=
 OpenBabel11062416513D

 34 36  0  0  1  0  0  0  0  0999 V2000
  187.3030  178.3710  142.1680 C   0  0  2  0  0  3  0  0  0  0  0  0
  188.2810  178.2270  141.0400 C   0  0  0  0  0  0  0  0  0  0  0  0
  189.4990  178.0460  141.3040 O   0  0  0  0  0  0  0  0  0  0  0  0
  187.8360  178.2770  139.6820 N   0  0  0  0  0  2  0  0  0  0  0  0
  186.8240  176.8170  136.7750 C   0  0  1  0  0  0  0  0  0  0  0  0
  186.8390  178.3480  136.9000 C   0  0  0  0  0  2  0  0  0  0  0  0
  187.9110  176.3160  136.0390 O   0  0  0  0  0  0  0  0  0  0  0  0
  187.8460  175.9360  137.4010 C   0  0  1  0  0  3  0  0  0  0  0  0
  188.8950  176.6790  138.1880 C   0  0  0  0  0  0  0  0  0  0  0  0
  188.7360  178.1290  138.5450 C   0  0  1  0  0  3  0  0  0  0  0  0
  189.8890  176.0800  138.5630 O   0  0  0  0  0  0  0  0  0  0  0  0
  188.1940  178.8970  137.3450 C   0  0  0  0  0  2  0  0  0  0  0  0
  185.6070  176.1910  136.3940 O   0  0  0  0  0  0  0  0  0  0  0  0
  183.9220  176.4650  138.1130 O   0  0  0  0  0  1  0  0  0  0  0  0
  184.3670  176.6750  136.8120 C   0  0  0  0  0  0  0  0  0  0  0  0
  183.6430  177.3100  136.0030 O   0  0  0  0  0  0  0  0  0  0  0  0
  187.3230  177.1730  143.1120 C   0  0  0  0  0  2  0  0  0  0  0  0
  190.1360  176.2880  143.6540 Cl  0  0  0  0  0  0  0  0  0  0  0  0
  187.8830  177.5520  144.4550 C   0  0  0  0  0  0  0  0  0  0  0  0
  189.1480  177.2080  144.7830 C   0  0  0  0  0  0  0  0  0  0  0  0
  187.0500  178.2690  145.3710 N   0  0  0  0  0  2  0  0  0  0  0  0
  186.3510  177.6790  146.2210 O   0  0  0  0  0  1  0  0  0  0  0  0
  189.7660  177.5410  146.0360 N   0  0  0  0  0  2  0  0  0  0  0  0
  189.9660  176.6550  147.1760 C   0  0  0  0  0  2  0  0  0  0  0  0
  192.1420  176.6540  146.2160 F   0  0  0  0  0  0  0  0  0  0  0  0
  191.9330  177.1780  148.4030 F   0  0  0  0  0  0  0  0  0  0  0  0
  191.6230  175.0560  147.7160 F   0  0  0  0  0  0  0  0  0  0  0  0
  191.4480  176.3850  147.3810 C   0  0  0  0  0  0  0  0  0  0  0  0
  185.8870  178.7100  141.6920 C   0  0  0  0  0  2  0  0  0  0  0  0
  183.4490  178.6720  142.2150 C   0  0  0  0  0  2  0  0  0  0  0  0
  184.6520  180.2430  143.6610 O   0  0  0  0  0  1  0  0  0  0  0  0
  184.1560  178.9450  143.5160 C   0  0  0  0  0  0  0  0  0  0  0  0
  183.5710  178.3500  144.6340 O   0  0  0  0  0  1  0  0  0  0  0  0
  184.7990  178.0140  142.5070 C   0  0  2  0  0  3  0  0  0  0  0  0
  1 29  1  6  0  0  0
  1 17  1  0  0  0  0
  2  3  2  0  0  0  0
  2  1  1  0  0  0  0
  4  2  1  0  0  0  0
  5 13  1  6  0  0  0
  5  6  1  0  0  0  0
  5  8  1  0  0  0  0
  6 12  1  0  0  0  0
  7  5  1  0  0  0  0
  8  7  1  6  0  0  0
  8  9  1  0  0  0  0
  9 10  1  0  0  0  0
  9 11  2  0  0  0  0
 10  4  1  1  0  0  0
 12 10  1  0  0  0  0
 13 15  1  0  0  0  0
 15 14  1  0  0  0  0
 16 15  2  0  0  0  0
 17 19  1  0  0  0  0
 18 20  1  0  0  0  0
 19 20  2  0  0  0  0
 19 21  1  0  0  0  0
 20 23  1  0  0  0  0
 21 22  1  0  0  0  0
 23 24  1  0  0  0  0
 24 28  1  0  0  0  0
 25 28  1  0  0  0  0
 28 27  1  0  0  0  0
 28 26  1  0  0  0  0
 30 34  1  0  0  0  0
 30 32  1  0  0  0  0
 32 31  1  0  0  0  0
 32 33  1  0  0  0  0
 34 29  1  6  0  0  0
 34 32  1  0  0  0  0
M  END
>  <MODEL>
1

>  <REMARK>
 VINA RESULT:      -7.3      0.000      0.000
  Name = 
  12 active torsions:
  status: ('A' for Active; 'I' for Inactive)
    1  A    between atoms: N_1  and  C_33
    2  A    between atoms: N_1  and  C_34
    3  A    between atoms: C_2  and  C_7
    4  A    between atoms: C_2  and  C_11
    5  A    between atoms: C_2  and  C_30
    6  A    between atoms: C_3  and  O_17
    7  A    between atoms: N_10  and  C_18
    8  A    between atoms: C_11  and  C_18
    9  A    between atoms: O_17  and  C_22
   10  A    between atoms: C_20  and  N_29
   11  A    between atoms: C_28  and  C_33
   12  A    between atoms: C_30  and  C_31
                            x       y       z     vdW  Elec       q    Type
                         _______ _______ _______ _____ _____    ______ ____

>  <TORSDO>
F 12

$$$$
=
 OpenBabel11062416513D

 34 36  0  0  1  0  0  0  0  0999 V2000
  184.3000  179.1340  143.5430 C   0  0  2  0  0  3  0  0  0  0  0  0
  182.8200  178.8940  143.5170 C   0  0  0  0  0  0  0  0  0  0  0  0
  182.2070  178.7240  144.6040 O   0  0  0  0  0  0  0  0  0  0  0  0
  182.1090  178.8760  142.2770 N   0  0  0  0  0  2  0  0  0  0  0  0
  180.3170  179.8620  139.5520 C   0  0  1  0  0  0  0  0  0  0  0  0
  180.7720  178.4010  139.6830 C   0  0  0  0  0  2  0  0  0  0  0  0
  178.9580  180.0430  139.8610 O   0  0  0  0  0  0  0  0  0  0  0  0
  179.8880  180.6910  140.7100 C   0  0  1  0  0  3  0  0  0  0  0  0
  179.9550  179.9740  142.0340 C   0  0  0  0  0  0  0  0  0  0  0  0
  180.6700  178.6620  142.1870 C   0  0  1  0  0  3  0  0  0  0  0  0
  179.4320  180.4840  143.0110 O   0  0  0  0  0  0  0  0  0  0  0  0
  180.3470  177.7600  141.0030 C   0  0  0  0  0  2  0  0  0  0  0  0
  180.6800  180.5710  138.3760 O   0  0  0  0  0  0  0  0  0  0  0  0
  181.5040  182.8080  137.9420 O   0  0  0  0  0  0  0  0  0  0  0  0
  181.7200  181.5020  138.3690 C   0  0  0  0  0  0  0  0  0  0  0  0
  182.8660  181.1560  138.7530 O   0  0  0  0  0  1  0  0  0  0  0  0
  185.0880  177.9790  142.9330 C   0  0  0  0  0  2  0  0  0  0  0  0
  187.7250  176.6220  143.3730 Cl  0  0  0  0  0  0  0  0  0  0  0  0
  186.2340  178.4840  142.1010 C   0  0  0  0  0  0  0  0  0  0  0  0
  187.4570  177.9240  142.2210 C   0  0  0  0  0  0  0  0  0  0  0  0
  186.0010  179.5680  141.1950 N   0  0  0  0  0  2  0  0  0  0  0  0
  185.2210  179.4560  140.2270 O   0  0  0  0  0  1  0  0  0  0  0  0
  188.6020  178.3360  141.4560 N   0  0  0  0  0  2  0  0  0  0  0  0
  189.6160  177.4720  140.8660 C   0  0  0  0  0  2  0  0  0  0  0  0
  190.7450  178.3130  142.7820 F   0  0  0  0  0  0  0  0  0  0  0  0
  190.8150  176.0910  142.3830 F   0  0  0  0  0  0  0  0  0  0  0  0
  191.9710  177.5110  141.0720 F   0  0  0  0  0  0  0  0  0  0  0  0
  190.8090  177.3430  141.7980 C   0  0  0  0  0  0  0  0  0  0  0  0
  184.8200  179.5200  144.9310 C   0  0  0  0  0  2  0  0  0  0  0  0
  184.8020  177.9790  146.8930 C   0  0  0  0  0  2  0  0  0  0  0  0
  185.8990  180.1030  147.4300 O   0  0  0  0  0  1  0  0  0  0  0  0
  186.0700  178.7860  147.0000 C   0  0  0  0  0  0  0  0  0  0  0  0
  187.1680  178.0830  147.4940 O   0  0  0  0  0  1  0  0  0  0  0  0
  185.5640  178.3830  145.6280 C   0  0  2  0  0  3  0  0  0  0  0  0
  1 17  1  1  0  0  0
  1 29  1  0  0  0  0
  2  1  1  0  0  0  0
  2  3  2  0  0  0  0
  4  2  1  0  0  0  0
  5 13  1  6  0  0  0
  5  6  1  0  0  0  0
  5  7  1  0  0  0  0
  5  8  1  0  0  0  0
  6 12  1  0  0  0  0
  8  7  1  6  0  0  0
  8  9  1  0  0  0  0
  9 10  1  0  0  0  0
  9 11  2  0  0  0  0
 10  4  1  6  0  0  0
 12 10  1  0  0  0  0
 14 15  2  0  0  0  0
 15 13  1  0  0  0  0
 15 16  1  0  0  0  0
 19 20  2  0  0  0  0
 19 17  1  0  0  0  0
 20 18  1  0  0  0  0
 21 19  1  0  0  0  0
 22 21  1  0  0  0  0
 23 20  1  0  0  0  0
 24 23  1  0  0  0  0
 24 28  1  0  0  0  0
 27 28  1  0  0  0  0
 28 26  1  0  0  0  0
 28 25  1  0  0  0  0
 30 32  1  0  0  0  0
 32 31  1  0  0  0  0
 32 33  1  0  0  0  0
 34 29  1  6  0  0  0
 34 30  1  0  0  0  0
 34 32  1  0  0  0  0
M  END
>  <MODEL>
2

>  <REMARK>
 VINA RESULT:      -7.2      3.823      6.445
  Name = 
  12 active torsions:
  status: ('A' for Active; 'I' for Inactive)
    1  A    between atoms: N_1  and  C_33
    2  A    between atoms: N_1  and  C_34
    3  A    between atoms: C_2  and  C_7
    4  A    between atoms: C_2  and  C_11
    5  A    between atoms: C_2  and  C_30
    6  A    between atoms: C_3  and  O_17
    7  A    between atoms: N_10  and  C_18
    8  A    between atoms: C_11  and  C_18
    9  A    between atoms: O_17  and  C_22
   10  A    between atoms: C_20  and  N_29
   11  A    between atoms: C_28  and  C_33
   12  A    between atoms: C_30  and  C_31
                            x       y       z     vdW  Elec       q    Type
                         _______ _______ _______ _____ _____    ______ ____

>  <TORSDO>
F 12

$$$$
=
 OpenBabel11062416513D

 34 36  0  0  1  0  0  0  0  0999 V2000
  187.8140  178.2440  141.9480 C   0  0  2  0  0  3  0  0  0  0  0  0
  188.5090  178.0410  140.6340 C   0  0  0  0  0  0  0  0  0  0  0  0
  189.7610  177.9080  140.6160 O   0  0  0  0  0  0  0  0  0  0  0  0
  187.7590  177.9830  139.4180 N   0  0  0  0  0  2  0  0  0  0  0  0
  186.0750  176.4900  136.8600 C   0  0  1  0  0  0  0  0  0  0  0  0
  186.1640  178.0210  136.9290 C   0  0  0  0  0  2  0  0  0  0  0  0
  186.9530  175.9310  135.9160 O   0  0  0  0  0  0  0  0  0  0  0  0
  187.1850  175.5880  137.2700 C   0  0  1  0  0  3  0  0  0  0  0  0
  188.4060  176.3110  137.7770 C   0  0  0  0  0  0  0  0  0  0  0  0
  188.3750  177.7750  138.1130 C   0  0  1  0  0  3  0  0  0  0  0  0
  189.4400  175.6860  137.9390 O   0  0  0  0  0  0  0  0  0  0  0  0
  187.6000  178.5310  137.0410 C   0  0  0  0  0  2  0  0  0  0  0  0
  184.7860  175.8980  136.7830 O   0  0  0  0  0  0  0  0  0  0  0  0
  182.9350  177.4380  137.0530 O   0  0  0  0  0  0  0  0  0  0  0  0
  183.7080  176.3820  137.5250 C   0  0  0  0  0  0  0  0  0  0  0  0
  183.4310  175.8570  138.6340 O   0  0  0  0  0  1  0  0  0  0  0  0
  187.8100  176.9810  142.8040 C   0  0  0  0  0  2  0  0  0  0  0  0
  187.1470  178.1690  145.4760 Cl  0  0  0  0  0  0  0  0  0  0  0  0
  188.9290  177.0050  143.8090 C   0  0  0  0  0  0  0  0  0  0  0  0
  188.7200  177.5080  145.0440 C   0  0  0  0  0  0  0  0  0  0  0  0
  190.2090  176.4940  143.4250 N   0  0  0  0  0  2  0  0  0  0  0  0
  190.3240  175.4270  142.7860 O   0  0  0  0  0  1  0  0  0  0  0  0
  189.7270  177.5570  146.0680 N   0  0  0  0  0  2  0  0  0  0  0  0
  189.9410  176.5850  147.1320 C   0  0  0  0  0  2  0  0  0  0  0  0
  191.6230  175.0230  147.7500 F   0  0  0  0  0  0  0  0  0  0  0  0
  192.0900  176.5150  146.1210 F   0  0  0  0  0  0  0  0  0  0  0  0
  191.9260  177.1950  148.2610 F   0  0  0  0  0  0  0  0  0  0  0  0
  191.4260  176.3210  147.3170 C   0  0  0  0  0  0  0  0  0  0  0  0
  186.4150  178.8470  141.7980 C   0  0  0  0  0  2  0  0  0  0  0  0
  183.9550  178.5250  142.0540 C   0  0  0  0  0  2  0  0  0  0  0  0
  184.8020  180.2250  143.6010 O   0  0  0  0  0  1  0  0  0  0  0  0
  184.4790  178.8780  143.4200 C   0  0  0  0  0  0  0  0  0  0  0  0
  183.8490  178.2200  144.4750 O   0  0  0  0  0  1  0  0  0  0  0  0
  185.3330  178.0300  142.4990 C   0  0  2  0  0  3  0  0  0  0  0  0
  1 29  1  6  0  0  0
  1 17  1  0  0  0  0
  2  1  1  0  0  0  0
  3  2  2  0  0  0  0
  4  2  1  0  0  0  0
  5 13  1  1  0  0  0
  5  6  1  0  0  0  0
  5  8  1  0  0  0  0
  6 12  1  0  0  0  0
  7  5  1  0  0  0  0
  8  7  1  6  0  0  0
  8  9  1  0  0  0  0
  9 11  2  0  0  0  0
  9 10  1  0  0  0  0
 10  4  1  1  0  0  0
 12 10  1  0  0  0  0
 13 15  1  0  0  0  0
 14 15  2  0  0  0  0
 15 16  1  0  0  0  0
 17 19  1  0  0  0  0
 19 20  2  0  0  0  0
 20 18  1  0  0  0  0
 20 23  1  0  0  0  0
 21 19  1  0  0  0  0
 22 21  1  0  0  0  0
 23 24  1  0  0  0  0
 24 28  1  0  0  0  0
 26 28  1  0  0  0  0
 28 25  1  0  0  0  0
 28 27  1  0  0  0  0
 30 34  1  0  0  0  0
 30 32  1  0  0  0  0
 32 31  1  0  0  0  0
 32 33  1  0  0  0  0
 34 29  1  6  0  0  0
 34 32  1  0  0  0  0
M  END
>  <MODEL>
3

>  <REMARK>
 VINA RESULT:      -7.2      1.183      1.762
  Name = 
  12 active torsions:
  status: ('A' for Active; 'I' for Inactive)
    1  A    between atoms: N_1  and  C_33
    2  A    between atoms: N_1  and  C_34
    3  A    between atoms: C_2  and  C_7
    4  A    between atoms: C_2  and  C_11
    5  A    between atoms: C_2  and  C_30
    6  A    between atoms: C_3  and  O_17
    7  A    between atoms: N_10  and  C_18
    8  A    between atoms: C_11  and  C_18
    9  A    between atoms: O_17  and  C_22
   10  A    between atoms: C_20  and  N_29
   11  A    between atoms: C_28  and  C_33
   12  A    between atoms: C_30  and  C_31
                            x       y       z     vdW  Elec       q    Type
                         _______ _______ _______ _____ _____    ______ ____

>  <TORSDO>
F 12

$$$$
=
 OpenBabel11062416513D

 34 36  0  0  1  0  0  0  0  0999 V2000
  184.4030  179.1420  143.5180 C   0  0  2  0  0  3  0  0  0  0  0  0
  182.9180  178.9680  143.4030 C   0  0  0  0  0  0  0  0  0  0  0  0
  182.2360  178.8070  144.4490 O   0  0  0  0  0  0  0  0  0  0  0  0
  182.2800  179.0020  142.1230 N   0  0  0  0  0  2  0  0  0  0  0  0
  180.8280  179.1430  139.0450 C   0  0  1  0  0  0  0  0  0  0  0  0
  181.1350  177.7820  139.6860 C   0  0  0  0  0  2  0  0  0  0  0  0
  179.4690  179.4940  139.1260 O   0  0  0  0  0  0  0  0  0  0  0  0
  180.3770  180.3290  139.8220 C   0  0  1  0  0  3  0  0  0  0  0  0
  180.2630  180.0820  141.3040 C   0  0  0  0  0  0  0  0  0  0  0  0
  180.8410  178.8540  141.9470 C   0  0  1  0  0  3  0  0  0  0  0  0
  179.7060  180.9130  142.0020 O   0  0  0  0  0  0  0  0  0  0  0  0
  180.5410  177.6330  141.0860 C   0  0  0  0  0  2  0  0  0  0  0  0
  181.3540  179.4070  137.7520 O   0  0  0  0  0  0  0  0  0  0  0  0
  182.6950  177.8560  136.4620 O   0  0  0  0  0  1  0  0  0  0  0  0
  181.4600  178.4090  136.7830 C   0  0  0  0  0  0  0  0  0  0  0  0
  180.4260  178.0040  136.1920 O   0  0  0  0  0  0  0  0  0  0  0  0
  185.1730  177.9520  142.9530 C   0  0  0  0  0  2  0  0  0  0  0  0
  187.8420  176.6990  143.4970 Cl  0  0  0  0  0  0  0  0  0  0  0  0
  186.3040  178.4080  142.0740 C   0  0  0  0  0  0  0  0  0  0  0  0
  187.5400  177.8890  142.2360 C   0  0  0  0  0  0  0  0  0  0  0  0
  186.0450  179.4030  141.0780 N   0  0  0  0  0  2  0  0  0  0  0  0
  185.5940  179.1010  139.9530 O   0  0  0  0  0  1  0  0  0  0  0  0
  188.6730  178.2570  141.4320 N   0  0  0  0  0  2  0  0  0  0  0  0
  189.4120  177.3980  140.5160 C   0  0  0  0  0  2  0  0  0  0  0  0
  190.1650  177.3770  138.2610 F   0  0  0  0  0  0  0  0  0  0  0  0
  187.9470  177.2200  138.6530 F   0  0  0  0  0  0  0  0  0  0  0  0
  189.0190  179.1690  138.9990 F   0  0  0  0  0  0  0  0  0  0  0  0
  189.1300  177.7950  139.0760 C   0  0  0  0  0  0  0  0  0  0  0  0
  184.8540  179.5040  144.9360 C   0  0  0  0  0  2  0  0  0  0  0  0
  184.7720  177.9700  146.9010 C   0  0  0  0  0  2  0  0  0  0  0  0
  185.9010  180.0730  147.4530 O   0  0  0  0  0  1  0  0  0  0  0  0
  186.0530  178.7510  147.0290 C   0  0  0  0  0  0  0  0  0  0  0  0
  187.1280  178.0290  147.5440 O   0  0  0  0  0  1  0  0  0  0  0  0
  185.5640  178.3550  145.6500 C   0  0  2  0  0  3  0  0  0  0  0  0
  1 17  1  1  0  0  0
  1 29  1  0  0  0  0
  2  1  1  0  0  0  0
  2  3  2  0  0  0  0
  4  2  1  0  0  0  0
  5 13  1  6  0  0  0
  5  7  1  0  0  0  0
  5  6  1  0  0  0  0
  5  8  1  0  0  0  0
  6 12  1  0  0  0  0
  8  7  1  6  0  0  0
  8  9  1  0  0  0  0
  9 10  1  0  0  0  0
  9 11  2  0  0  0  0
 10  4  1  6  0  0  0
 12 10  1  0  0  0  0
 14 15  1  0  0  0  0
 15 13  1  0  0  0  0
 16 15  2  0  0  0  0
 19 20  2  0  0  0  0
 19 17  1  0  0  0  0
 20 18  1  0  0  0  0
 21 19  1  0  0  0  0
 22 21  1  0  0  0  0
 23 20  1  0  0  0  0
 24 23  1  0  0  0  0
 25 28  1  0  0  0  0
 26 28  1  0  0  0  0
 27 28  1  0  0  0  0
 28 24  1  0  0  0  0
 30 32  1  0  0  0  0
 32 31  1  0  0  0  0
 32 33  1  0  0  0  0
 34 29  1  6  0  0  0
 34 30  1  0  0  0  0
 34 32  1  0  0  0  0
M  END
>  <MODEL>
4

>  <REMARK>
 VINA RESULT:      -7.1      4.016      6.557
  Name = 
  12 active torsions:
  status: ('A' for Active; 'I' for Inactive)
    1  A    between atoms: N_1  and  C_33
    2  A    between atoms: N_1  and  C_34
    3  A    between atoms: C_2  and  C_7
    4  A    between atoms: C_2  and  C_11
    5  A    between atoms: C_2  and  C_30
    6  A    between atoms: C_3  and  O_17
    7  A    between atoms: N_10  and  C_18
    8  A    between atoms: C_11  and  C_18
    9  A    between atoms: O_17  and  C_22
   10  A    between atoms: C_20  and  N_29
   11  A    between atoms: C_28  and  C_33
   12  A    between atoms: C_30  and  C_31
                            x       y       z     vdW  Elec       q    Type
                         _______ _______ _______ _____ _____    ______ ____

>  <TORSDO>
F 12

$$$$
=
 OpenBabel11062416513D

 34 36  0  0  1  0  0  0  0  0999 V2000
  186.1390  178.8960  141.7120 C   0  0  2  0  0  3  0  0  0  0  0  0
  187.4950  178.7020  141.1020 C   0  0  0  0  0  0  0  0  0  0  0  0
  188.5070  178.6780  141.8510 O   0  0  0  0  0  0  0  0  0  0  0  0
  187.6370  178.5300  139.6900 N   0  0  0  0  0  2  0  0  0  0  0  0
  187.8820  177.0690  136.6220 C   0  0  1  0  0  0  0  0  0  0  0  0
  187.9160  178.5990  136.7470 C   0  0  0  0  0  2  0  0  0  0  0  0
  189.1530  176.5070  136.4130 O   0  0  0  0  0  0  0  0  0  0  0  0
  188.5000  176.1530  137.6180 C   0  0  1  0  0  3  0  0  0  0  0  0
  189.1510  176.8620  138.7780 C   0  0  0  0  0  0  0  0  0  0  0  0
  188.9250  178.3230  139.0390 C   0  0  1  0  0  3  0  0  0  0  0  0
  189.8640  176.2250  139.5360 O   0  0  0  0  0  0  0  0  0  0  0  0
  188.9790  179.0940  137.7260 C   0  0  0  0  0  2  0  0  0  0  0  0
  186.9120  176.4910  135.7590 O   0  0  0  0  0  0  0  0  0  0  0  0
  184.7850  177.1150  134.7830 O   0  0  0  0  0  0  0  0  0  0  0  0
  185.5510  176.7690  135.8900 C   0  0  0  0  0  0  0  0  0  0  0  0
  185.0100  176.7040  137.0240 O   0  0  0  0  0  1  0  0  0  0  0  0
  185.7960  177.8090  142.7260 C   0  0  0  0  0  2  0  0  0  0  0  0
  188.0250  176.6030  144.3280 Cl  0  0  0  0  0  0  0  0  0  0  0  0
  185.9420  178.3160  144.1340 C   0  0  0  0  0  0  0  0  0  0  0  0
  186.9260  177.8400  144.9260 C   0  0  0  0  0  0  0  0  0  0  0  0
  185.0160  179.2970  144.6110 N   0  0  0  0  0  2  0  0  0  0  0  0
  184.0830  178.9950  145.3840 O   0  0  0  0  0  1  0  0  0  0  0  0
  187.1460  178.2790  146.2770 N   0  0  0  0  0  2  0  0  0  0  0  0
  187.6170  177.4700  147.3940 C   0  0  0  0  0  2  0  0  0  0  0  0
  189.4400  178.2210  148.7220 F   0  0  0  0  0  0  0  0  0  0  0  0
  189.7010  176.3340  147.5100 F   0  0  0  0  0  0  0  0  0  0  0  0
  189.6190  178.3350  146.4810 F   0  0  0  0  0  0  0  0  0  0  0  0
  189.1260  177.5900  147.5330 C   0  0  0  0  0  0  0  0  0  0  0  0
  185.0340  179.0850  140.6680 C   0  0  0  0  0  2  0  0  0  0  0  0
  183.1850  177.5420  140.0180 C   0  0  0  0  0  2  0  0  0  0  0  0
  182.8190  179.8010  139.1410 O   0  0  0  0  0  1  0  0  0  0  0  0
  182.5620  178.9040  140.1810 C   0  0  0  0  0  0  0  0  0  0  0  0
  181.2780  178.8970  140.7230 O   0  0  0  0  0  1  0  0  0  0  0  0
  183.6940  178.4950  141.1020 C   0  0  2  0  0  3  0  0  0  0  0  0
  1 29  1  6  0  0  0
  1 17  1  0  0  0  0
  2  1  1  0  0  0  0
  2  3  2  0  0  0  0
  4  2  1  0  0  0  0
  5 13  1  6  0  0  0
  5  6  1  0  0  0  0
  5  8  1  0  0  0  0
  6 12  1  0  0  0  0
  7  5  1  0  0  0  0
  8  7  1  6  0  0  0
  8  9  1  0  0  0  0
  9 10  1  0  0  0  0
  9 11  2  0  0  0  0
 10  4  1  6  0  0  0
 12 10  1  0  0  0  0
 13 15  1  0  0  0  0
 14 15  2  0  0  0  0
 15 16  1  0  0  0  0
 17 19  1  0  0  0  0
 18 20  1  0  0  0  0
 19 21  1  0  0  0  0
 19 20  2  0  0  0  0
 20 23  1  0  0  0  0
 21 22  1  0  0  0  0
 23 24  1  0  0  0  0
 24 28  1  0  0  0  0
 26 28  1  0  0  0  0
 27 28  1  0  0  0  0
 28 25  1  0  0  0  0
 30 32  1  0  0  0  0
 30 34  1  0  0  0  0
 31 32  1  0  0  0  0
 32 33  1  0  0  0  0
 32 34  1  0  0  0  0
 34 29  1  6  0  0  0
M  END
>  <MODEL>
5

>  <REMARK>
 VINA RESULT:      -7.0      1.824      2.377
  Name = 
  12 active torsions:
  status: ('A' for Active; 'I' for Inactive)
    1  A    between atoms: N_1  and  C_33
    2  A    between atoms: N_1  and  C_34
    3  A    between atoms: C_2  and  C_7
    4  A    between atoms: C_2  and  C_11
    5  A    between atoms: C_2  and  C_30
    6  A    between atoms: C_3  and  O_17
    7  A    between atoms: N_10  and  C_18
    8  A    between atoms: C_11  and  C_18
    9  A    between atoms: O_17  and  C_22
   10  A    between atoms: C_20  and  N_29
   11  A    between atoms: C_28  and  C_33
   12  A    between atoms: C_30  and  C_31
                            x       y       z     vdW  Elec       q    Type
                         _______ _______ _______ _____ _____    ______ ____

>  <TORSDO>
F 12

$$$$
=
 OpenBabel11062416513D

 34 36  0  0  1  0  0  0  0  0999 V2000
  187.3200  177.8120  142.5420 C   0  0  2  0  0  3  0  0  0  0  0  0
  188.2780  178.2770  141.4860 C   0  0  0  0  0  0  0  0  0  0  0  0
  188.9100  179.3520  141.6620 O   0  0  0  0  0  0  0  0  0  0  0  0
  188.4850  177.5030  140.3020 N   0  0  0  0  0  2  0  0  0  0  0  0
  188.1930  176.3080  137.1250 C   0  0  1  0  0  0  0  0  0  0  0  0
  187.6290  177.6920  137.4780 C   0  0  0  0  0  2  0  0  0  0  0  0
  189.4130  176.3750  136.4300 O   0  0  0  0  0  0  0  0  0  0  0  0
  189.4500  175.7650  137.7080 C   0  0  1  0  0  3  0  0  0  0  0  0
  190.1160  176.6890  138.6940 C   0  0  0  0  0  0  0  0  0  0  0  0
  189.4120  177.8950  139.2470 C   0  0  1  0  0  3  0  0  0  0  0  0
  191.2490  176.4380  139.0700 O   0  0  0  0  0  0  0  0  0  0  0  0
  188.6630  178.6100  138.1290 C   0  0  0  0  0  2  0  0  0  0  0  0
  187.3150  175.3580  136.5390 O   0  0  0  0  0  0  0  0  0  0  0  0
  185.0000  175.3910  137.2510 O   0  0  0  0  0  1  0  0  0  0  0  0
  185.9730  175.6510  136.2920 C   0  0  0  0  0  0  0  0  0  0  0  0
  185.6390  176.1560  135.1900 O   0  0  0  0  0  0  0  0  0  0  0  0
  187.7760  176.5200  143.2130 C   0  0  0  0  0  2  0  0  0  0  0  0
  187.0560  177.8780  145.7870 Cl  0  0  0  0  0  0  0  0  0  0  0  0
  188.9150  176.7760  144.1610 C   0  0  0  0  0  0  0  0  0  0  0  0
  188.6840  177.3710  145.3520 C   0  0  0  0  0  0  0  0  0  0  0  0
  190.2360  176.3870  143.7720 N   0  0  0  0  0  2  0  0  0  0  0  0
  190.4900  175.9990  142.6130 O   0  0  0  0  0  1  0  0  0  0  0  0
  189.7090  177.6400  146.3220 N   0  0  0  0  0  2  0  0  0  0  0  0
  190.0360  176.8410  147.4950 C   0  0  0  0  0  2  0  0  0  0  0  0
  191.6230  175.0810  147.6900 F   0  0  0  0  0  0  0  0  0  0  0  0
  192.0580  176.7650  146.2480 F   0  0  0  0  0  0  0  0  0  0  0  0
  192.1720  177.1210  148.4690 F   0  0  0  0  0  0  0  0  0  0  0  0
  191.5020  176.4410  147.4710 C   0  0  0  0  0  0  0  0  0  0  0  0
  185.8750  177.7260  142.0420 C   0  0  0  0  0  2  0  0  0  0  0  0
  183.7980  178.9960  141.4980 C   0  0  0  0  0  2  0  0  0  0  0  0
  184.6130  177.7370  139.5600 O   0  0  0  0  0  1  0  0  0  0  0  0
  184.6150  178.9610  140.2340 C   0  0  0  0  0  0  0  0  0  0  0  0
  184.5470  180.1210  139.4630 O   0  0  0  0  0  1  0  0  0  0  0  0
  185.3250  179.0700  141.5690 C   0  0  2  0  0  3  0  0  0  0  0  0
  1 29  1  6  0  0  0
  1 17  1  0  0  0  0
  2  3  2  0  0  0  0
  2  1  1  0  0  0  0
  4  2  1  0  0  0  0
  5 13  1  6  0  0  0
  5  6  1  0  0  0  0
  5  8  1  0  0  0  0
  6 12  1  0  0  0  0
  7  5  1  0  0  0  0
  8  7  1  6  0  0  0
  8  9  1  0  0  0  0
  9 11  2  0  0  0  0
  9 10  1  0  0  0  0
 10  4  1  1  0  0  0
 12 10  1  0  0  0  0
 15 13  1  0  0  0  0
 15 14  1  0  0  0  0
 16 15  2  0  0  0  0
 17 19  1  0  0  0  0
 19 20  2  0  0  0  0
 20 18  1  0  0  0  0
 20 23  1  0  0  0  0
 21 19  1  0  0  0  0
 22 21  1  0  0  0  0
 23 24  1  0  0  0  0
 26 28  1  0  0  0  0
 28 24  1  0  0  0  0
 28 25  1  0  0  0  0
 28 27  1  0  0  0  0
 30 34  1  0  0  0  0
 31 32  1  0  0  0  0
 32 30  1  0  0  0  0
 32 34  1  0  0  0  0
 33 32  1  0  0  0  0
 34 29  1  1  0  0  0
M  END
>  <MODEL>
6

>  <REMARK>
 VINA RESULT:      -6.8      2.018      2.354
  Name = 
  12 active torsions:
  status: ('A' for Active; 'I' for Inactive)
    1  A    between atoms: N_1  and  C_33
    2  A    between atoms: N_1  and  C_34
    3  A    between atoms: C_2  and  C_7
    4  A    between atoms: C_2  and  C_11
    5  A    between atoms: C_2  and  C_30
    6  A    between atoms: C_3  and  O_17
    7  A    between atoms: N_10  and  C_18
    8  A    between atoms: C_11  and  C_18
    9  A    between atoms: O_17  and  C_22
   10  A    between atoms: C_20  and  N_29
   11  A    between atoms: C_28  and  C_33
   12  A    between atoms: C_30  and  C_31
                            x       y       z     vdW  Elec       q    Type
                         _______ _______ _______ _____ _____    ______ ____

>  <TORSDO>
F 12

$$$$
=
 OpenBabel11062416513D

 34 36  0  0  1  0  0  0  0  0999 V2000
  186.5020  178.8010  141.8370 C   0  0  2  0  0  3  0  0  0  0  0  0
  186.4500  178.7040  140.3410 C   0  0  0  0  0  0  0  0  0  0  0  0
  185.3860  179.0140  139.7430 O   0  0  0  0  0  0  0  0  0  0  0  0
  187.5980  178.2830  139.6010 N   0  0  0  0  0  2  0  0  0  0  0  0
  189.8420  176.3070  137.9670 C   0  0  1  0  0  0  0  0  0  0  0  0
  188.4180  175.7950  138.2290 C   0  0  0  0  0  2  0  0  0  0  0  0
  190.0370  176.7290  136.6400 O   0  0  0  0  0  0  0  0  0  0  0  0
  190.1530  177.7250  137.6400 C   0  0  1  0  0  3  0  0  0  0  0  0
  188.9440  178.6240  137.6060 C   0  0  0  0  0  0  0  0  0  0  0  0
  187.6140  178.1820  138.1470 C   0  0  1  0  0  3  0  0  0  0  0  0
  189.0550  179.7490  137.1470 O   0  0  0  0  0  0  0  0  0  0  0  0
  187.3380  176.7460  137.7180 C   0  0  0  0  0  2  0  0  0  0  0  0
  190.9310  175.5180  138.4250 O   0  0  0  0  0  0  0  0  0  0  0  0
  190.9140  173.4710  137.1300 O   0  0  0  0  0  0  0  0  0  0  0  0
  191.5770  174.6020  137.5940 C   0  0  0  0  0  0  0  0  0  0  0  0
  192.7730  174.8020  137.2600 O   0  0  0  0  0  1  0  0  0  0  0  0
  186.9860  177.5080  142.4870 C   0  0  0  0  0  2  0  0  0  0  0  0
  187.1820  177.4720  145.4790 Cl  0  0  0  0  0  0  0  0  0  0  0  0
  188.3670  177.6730  143.0560 C   0  0  0  0  0  0  0  0  0  0  0  0
  188.5560  177.6550  144.3940 C   0  0  0  0  0  0  0  0  0  0  0  0
  189.4650  177.8550  142.1570 N   0  0  0  0  0  2  0  0  0  0  0  0
  190.0890  176.8850  141.6790 O   0  0  0  0  0  1  0  0  0  0  0  0
  189.8410  177.7910  145.0210 N   0  0  0  0  0  2  0  0  0  0  0  0
  190.5200  176.8040  145.8490 C   0  0  0  0  0  2  0  0  0  0  0  0
  189.2570  176.0430  147.7150 F   0  0  0  0  0  0  0  0  0  0  0  0
  191.3040  176.9220  148.0890 F   0  0  0  0  0  0  0  0  0  0  0  0
  189.5980  178.2560  147.4710 F   0  0  0  0  0  0  0  0  0  0  0  0
  190.1640  177.0060  147.3130 C   0  0  0  0  0  0  0  0  0  0  0  0
  185.1920  179.3030  142.4500 C   0  0  0  0  0  2  0  0  0  0  0  0
  183.1820  178.6270  143.7630 C   0  0  0  0  0  2  0  0  0  0  0  0
  184.2360  180.6290  144.7040 O   0  0  0  0  0  1  0  0  0  0  0  0
  184.1450  179.2360  144.7480 C   0  0  0  0  0  0  0  0  0  0  0  0
  184.1580  178.6280  146.0030 O   0  0  0  0  0  1  0  0  0  0  0  0
  184.6880  178.4210  143.5910 C   0  0  2  0  0  3  0  0  0  0  0  0
  1 29  1  1  0  0  0
  1 17  1  0  0  0  0
  2  1  1  0  0  0  0
  3  2  2  0  0  0  0
  4  2  1  0  0  0  0
  5  6  1  0  0  0  0
  5 13  1  1  0  0  0
  7  5  1  0  0  0  0
  8  7  1  6  0  0  0
  8  5  1  0  0  0  0
  9  8  1  0  0  0  0
  9 10  1  0  0  0  0
 10  4  1  1  0  0  0
 11  9  2  0  0  0  0
 12 10  1  0  0  0  0
 12  6  1  0  0  0  0
 14 15  2  0  0  0  0
 15 13  1  0  0  0  0
 16 15  1  0  0  0  0
 17 19  1  0  0  0  0
 19 20  2  0  0  0  0
 20 23  1  0  0  0  0
 20 18  1  0  0  0  0
 21 19  1  0  0  0  0
 22 21  1  0  0  0  0
 23 24  1  0  0  0  0
 24 28  1  0  0  0  0
 28 27  1  0  0  0  0
 28 25  1  0  0  0  0
 28 26  1  0  0  0  0
 30 32  1  0  0  0  0
 31 32  1  0  0  0  0
 32 33  1  0  0  0  0
 34 29  1  6  0  0  0
 34 30  1  0  0  0  0
 34 32  1  0  0  0  0
M  END
>  <MODEL>
7

>  <REMARK>
 VINA RESULT:      -6.7      1.957      3.588
  Name = 
  12 active torsions:
  status: ('A' for Active; 'I' for Inactive)
    1  A    between atoms: N_1  and  C_33
    2  A    between atoms: N_1  and  C_34
    3  A    between atoms: C_2  and  C_7
    4  A    between atoms: C_2  and  C_11
    5  A    between atoms: C_2  and  C_30
    6  A    between atoms: C_3  and  O_17
    7  A    between atoms: N_10  and  C_18
    8  A    between atoms: C_11  and  C_18
    9  A    between atoms: O_17  and  C_22
   10  A    between atoms: C_20  and  N_29
   11  A    between atoms: C_28  and  C_33
   12  A    between atoms: C_30  and  C_31
                            x       y       z     vdW  Elec       q    Type
                         _______ _______ _______ _____ _____    ______ ____

>  <TORSDO>
F 12

$$$$
=
 OpenBabel11062416513D

 34 36  0  0  1  0  0  0  0  0999 V2000
  184.7970  178.9640  143.3790 C   0  0  2  0  0  3  0  0  0  0  0  0
  183.4970  178.9510  142.6310 C   0  0  0  0  0  0  0  0  0  0  0  0
  182.4260  179.1710  143.2570 O   0  0  0  0  0  0  0  0  0  0  0  0
  183.4720  178.7090  141.2220 N   0  0  0  0  0  2  0  0  0  0  0  0
  183.2040  176.9130  138.3390 C   0  0  1  0  0  0  0  0  0  0  0  0
  182.6580  176.3380  139.6540 C   0  0  0  0  0  2  0  0  0  0  0  0
  182.1960  177.4200  137.5020 O   0  0  0  0  0  0  0  0  0  0  0  0
  183.1400  178.3570  137.9900 C   0  0  1  0  0  3  0  0  0  0  0  0
  182.5030  179.2160  139.0520 C   0  0  0  0  0  0  0  0  0  0  0  0
  182.2440  178.6970  140.4380 C   0  0  1  0  0  3  0  0  0  0  0  0
  182.2100  180.3690  138.7850 O   0  0  0  0  0  0  0  0  0  0  0  0
  181.6850  177.2810  140.3600 C   0  0  0  0  0  2  0  0  0  0  0  0
  184.1420  176.1350  137.6080 O   0  0  0  0  0  0  0  0  0  0  0  0
  183.0990  174.5040  136.1510 O   0  0  0  0  0  0  0  0  0  0  0  0
  183.8840  174.8090  137.2580 C   0  0  0  0  0  0  0  0  0  0  0  0
  184.3670  173.8780  137.9520 O   0  0  0  0  0  1  0  0  0  0  0  0
  185.6830  177.7740  143.0260 C   0  0  0  0  0  2  0  0  0  0  0  0
  188.1950  176.8170  144.3540 Cl  0  0  0  0  0  0  0  0  0  0  0  0
  186.9720  178.2260  142.3970 C   0  0  0  0  0  0  0  0  0  0  0  0
  188.1540  177.8340  142.9180 C   0  0  0  0  0  0  0  0  0  0  0  0
  186.9160  179.0810  141.2500 N   0  0  0  0  0  2  0  0  0  0  0  0
  186.7120  178.6280  140.1050 O   0  0  0  0  0  1  0  0  0  0  0  0
  189.4300  178.2070  142.3730 N   0  0  0  0  0  2  0  0  0  0  0  0
  190.7110  178.2100  143.0670 C   0  0  0  0  0  2  0  0  0  0  0  0
  190.5910  175.9650  142.2950 F   0  0  0  0  0  0  0  0  0  0  0  0
  192.4810  177.1360  141.9010 F   0  0  0  0  0  0  0  0  0  0  0  0
  191.9930  176.4510  143.9890 F   0  0  0  0  0  0  0  0  0  0  0  0
  191.4590  176.9140  142.8030 C   0  0  0  0  0  0  0  0  0  0  0  0
  184.6150  179.1240  144.8900 C   0  0  0  0  0  2  0  0  0  0  0  0
  184.7820  177.9280  147.0730 C   0  0  0  0  0  2  0  0  0  0  0  0
  185.8910  180.1110  147.1600 O   0  0  0  0  0  1  0  0  0  0  0  0
  186.0430  178.7400  146.9390 C   0  0  0  0  0  0  0  0  0  0  0  0
  187.1880  178.1290  147.4480 O   0  0  0  0  0  1  0  0  0  0  0  0
  185.4310  178.1180  145.7000 C   0  0  2  0  0  3  0  0  0  0  0  0
  1 17  1  1  0  0  0
  1 29  1  0  0  0  0
  2  3  2  0  0  0  0
  2  1  1  0  0  0  0
  4  2  1  0  0  0  0
  5 13  1  6  0  0  0
  5  6  1  0  0  0  0
  6 12  1  0  0  0  0
  7  5  1  0  0  0  0
  8  7  1  6  0  0  0
  8  5  1  0  0  0  0
  8  9  1  0  0  0  0
  9 10  1  0  0  0  0
 10  4  1  1  0  0  0
 11  9  2  0  0  0  0
 12 10  1  0  0  0  0
 14 15  2  0  0  0  0
 15 13  1  0  0  0  0
 15 16  1  0  0  0  0
 19 20  2  0  0  0  0
 19 17  1  0  0  0  0
 20 18  1  0  0  0  0
 21 19  1  0  0  0  0
 22 21  1  0  0  0  0
 23 20  1  0  0  0  0
 23 24  1  0  0  0  0
 25 28  1  0  0  0  0
 26 28  1  0  0  0  0
 28 24  1  0  0  0  0
 28 27  1  0  0  0  0
 32 30  1  0  0  0  0
 32 31  1  0  0  0  0
 32 33  1  0  0  0  0
 34 29  1  6  0  0  0
 34 32  1  0  0  0  0
 34 30  1  0  0  0  0
M  END
>  <MODEL>
8

>  <REMARK>
 VINA RESULT:      -6.7      3.057      4.796
  Name = 
  12 active torsions:
  status: ('A' for Active; 'I' for Inactive)
    1  A    between atoms: N_1  and  C_33
    2  A    between atoms: N_1  and  C_34
    3  A    between atoms: C_2  and  C_7
    4  A    between atoms: C_2  and  C_11
    5  A    between atoms: C_2  and  C_30
    6  A    between atoms: C_3  and  O_17
    7  A    between atoms: N_10  and  C_18
    8  A    between atoms: C_11  and  C_18
    9  A    between atoms: O_17  and  C_22
   10  A    between atoms: C_20  and  N_29
   11  A    between atoms: C_28  and  C_33
   12  A    between atoms: C_30  and  C_31
                            x       y       z     vdW  Elec       q    Type
                         _______ _______ _______ _____ _____    ______ ____

>  <TORSDO>
F 12

$$$$
=
 OpenBabel11062416513D

 34 36  0  0  1  0  0  0  0  0999 V2000
  184.3910  178.7190  142.9760 C   0  0  2  0  0  3  0  0  0  0  0  0
  184.7350  179.2050  141.6000 C   0  0  0  0  0  0  0  0  0  0  0  0
  185.8500  179.7550  141.4030 O   0  0  0  0  0  0  0  0  0  0  0  0
  183.8150  179.0320  140.5190 N   0  0  0  0  0  2  0  0  0  0  0  0
  182.8660  177.1910  137.8130 C   0  0  1  0  0  0  0  0  0  0  0  0
  182.0040  178.3750  138.2750 C   0  0  0  0  0  2  0  0  0  0  0  0
  183.6460  177.4880  136.6830 O   0  0  0  0  0  0  0  0  0  0  0  0
  184.3530  177.1900  137.8730 C   0  0  1  0  0  3  0  0  0  0  0  0
  184.9420  178.4530  138.4450 C   0  0  0  0  0  0  0  0  0  0  0  0
  184.0960  179.4690  139.1570 C   0  0  1  0  0  3  0  0  0  0  0  0
  186.1430  178.6440  138.3460 O   0  0  0  0  0  0  0  0  0  0  0  0
  182.7930  179.6780  138.3940 C   0  0  0  0  0  2  0  0  0  0  0  0
  182.2450  175.9190  137.6940 O   0  0  0  0  0  0  0  0  0  0  0  0
  179.8310  175.7270  137.6180 O   0  0  0  0  0  0  0  0  0  0  0  0
  181.0300  175.6320  138.3170 C   0  0  0  0  0  0  0  0  0  0  0  0
  181.0180  175.2820  139.5250 O   0  0  0  0  0  1  0  0  0  0  0  0
  185.3930  177.6930  143.4980 C   0  0  0  0  0  2  0  0  0  0  0  0
  188.1600  176.6510  143.9930 Cl  0  0  0  0  0  0  0  0  0  0  0  0
  186.0630  178.1800  144.7530 C   0  0  0  0  0  0  0  0  0  0  0  0
  187.3160  177.7750  145.0520 C   0  0  0  0  0  0  0  0  0  0  0  0
  185.3450  179.0660  145.6170 N   0  0  0  0  0  2  0  0  0  0  0  0
  184.5440  178.6380  146.4750 O   0  0  0  0  0  1  0  0  0  0  0  0
  188.0340  178.2010  146.2220 N   0  0  0  0  0  2  0  0  0  0  0  0
  189.4810  178.2540  146.3890 C   0  0  0  0  0  2  0  0  0  0  0  0
  188.8800  176.3430  147.6700 F   0  0  0  0  0  0  0  0  0  0  0  0
  190.7520  176.2460  146.4100 F   0  0  0  0  0  0  0  0  0  0  0  0
  190.7070  177.5140  148.2700 F   0  0  0  0  0  0  0  0  0  0  0  0
  189.9630  177.0620  147.1990 C   0  0  0  0  0  0  0  0  0  0  0  0
  182.9450  178.2300  143.0950 C   0  0  0  0  0  2  0  0  0  0  0  0
  180.6710  178.6590  144.0260 C   0  0  0  0  0  2  0  0  0  0  0  0
  180.6490  178.6460  141.5750 O   0  0  0  0  0  1  0  0  0  0  0  0
  180.7490  179.4240  142.7310 C   0  0  0  0  0  0  0  0  0  0  0  0
  180.0900  180.6530  142.7390 O   0  0  0  0  0  1  0  0  0  0  0  0
  181.9880  179.3090  143.5970 C   0  0  2  0  0  3  0  0  0  0  0  0
  1 29  1  6  0  0  0
  1 17  1  0  0  0  0
  2  1  1  0  0  0  0
  3  2  2  0  0  0  0
  4  2  1  0  0  0  0
  5 13  1  1  0  0  0
  5  8  1  0  0  0  0
  5  6  1  0  0  0  0
  6 12  1  0  0  0  0
  7  5  1  0  0  0  0
  8  7  1  6  0  0  0
  8  9  1  0  0  0  0
  9 10  1  0  0  0  0
 10  4  1  1  0  0  0
 11  9  2  0  0  0  0
 12 10  1  0  0  0  0
 13 15  1  0  0  0  0
 14 15  2  0  0  0  0
 15 16  1  0  0  0  0
 17 19  1  0  0  0  0
 18 20  1  0  0  0  0
 19 20  2  0  0  0  0
 19 21  1  0  0  0  0
 20 23  1  0  0  0  0
 21 22  1  0  0  0  0
 23 24  1  0  0  0  0
 24 28  1  0  0  0  0
 26 28  1  0  0  0  0
 28 25  1  0  0  0  0
 28 27  1  0  0  0  0
 31 32  1  0  0  0  0
 32 33  1  0  0  0  0
 32 34  1  0  0  0  0
 32 30  1  0  0  0  0
 34 29  1  6  0  0  0
 34 30  1  0  0  0  0
M  END
>  <MODEL>
9

>  <REMARK>
 VINA RESULT:      -6.7      2.597      3.614
  Name = 
  12 active torsions:
  status: ('A' for Active; 'I' for Inactive)
    1  A    between atoms: N_1  and  C_33
    2  A    between atoms: N_1  and  C_34
    3  A    between atoms: C_2  and  C_7
    4  A    between atoms: C_2  and  C_11
    5  A    between atoms: C_2  and  C_30
    6  A    between atoms: C_3  and  O_17
    7  A    between atoms: N_10  and  C_18
    8  A    between atoms: C_11  and  C_18
    9  A    between atoms: O_17  and  C_22
   10  A    between atoms: C_20  and  N_29
   11  A    between atoms: C_28  and  C_33
   12  A    between atoms: C_30  and  C_31
                            x       y       z     vdW  Elec       q    Type
                         _______ _______ _______ _____ _____    ______ ____

>  <TORSDO>
F 12

$$$$
