=
 OpenBabel11062418133D

 70 77  0  0  1  0  0  0  0  0999 V2000
  183.1470  178.1970  142.5730 C   0  0  1  0  0  0  0  0  0  0  0  0
  182.5150  179.2460  136.0410 C   0  0  0  0  0  2  0  0  0  0  0  0
  184.0500  176.3850  139.1350 C   0  0  0  0  0  2  0  0  0  0  0  0
  181.4790  179.3390  140.6410 C   0  0  0  0  0  2  0  0  0  0  0  0
  185.0350  179.4050  143.3790 C   0  0  0  0  0  2  0  0  0  0  0  0
  189.4430  178.3160  144.5500 C   0  0  0  0  0  2  0  0  0  0  0  0
  184.2910  177.5100  138.1420 C   0  0  2  0  0  3  0  0  0  0  0  0
  189.1260  177.8030  142.0630 C   0  0  1  0  0  3  0  0  0  0  0  0
  183.5910  177.1280  136.9840 O   0  0  0  0  0  0  0  0  0  0  0  0
  182.3330  179.5880  139.4910 C   0  0  1  0  0  3  0  0  0  0  0  0
  187.9730  177.4920  140.9470 C   0  0  0  0  0  2  0  0  0  0  0  0
  182.3590  176.9810  142.9980 C   0  0  0  0  0  1  0  0  0  0  0  0
  186.6860  176.5450  137.7560 C   0  0  0  0  0  2  0  0  0  0  0  0
  183.6450  177.4230  134.5940 C   0  0  0  0  0  1  0  0  0  0  0  0
  188.6500  177.9340  143.4740 C   0  0  2  0  0  3  0  0  0  0  0  0
  188.4450  178.6680  137.9620 O   0  0  0  0  0  0  0  0  0  0  0  0
  181.3790  179.0130  137.0310 C   0  0  2  0  0  3  0  0  0  0  0  0
  186.1390  178.6090  143.6710 C   0  0  0  0  0  0  0  0  0  0  0  0
  183.8570  178.6720  143.8490 C   0  0  1  0  0  3  0  0  0  0  0  0
  190.5500  175.7960  142.5740 C   0  0  0  0  0  1  0  0  0  0  0  0
  181.3270  179.7660  142.9350 F   0  0  0  0  0  0  0  0  0  0  0  0
  183.6270  178.0920  135.9580 C   0  0  1  0  0  3  0  0  0  0  0  0
  190.0160  176.7490  140.2230 C   0  0  2  0  0  3  0  0  0  0  0  0
  190.2410  176.8760  141.7520 C   0  0  1  0  0  3  0  0  0  0  0  0
  189.1280  176.4160  137.2980 O   0  0  0  0  0  0  0  0  0  0  0  0
  187.2600  178.1170  143.7310 C   0  0  0  0  0  0  0  0  0  0  0  0
  184.8610  178.5560  140.8030 O   0  0  0  0  0  1  0  0  0  0  0  0
  184.1420  177.5390  141.4260 C   0  0  2  0  0  3  0  0  0  0  0  0
  181.7920  178.5640  138.4050 C   0  0  0  0  0  2  0  0  0  0  0  0
  185.7850  177.7220  137.9850 C   0  0  0  0  0  2  0  0  0  0  0  0
  188.2690  177.2000  138.2460 S   0  0  0  0  0  0  0  0  0  0  0  0
  188.5700  176.5980  139.9130 N   0  0  2  0  0  0  0  0  0  0  0  0
  183.3010  176.7720  140.3930 C   0  0  0  0  0  2  0  0  0  0  0  0
  182.2780  179.3710  142.0110 C   0  0  1  0  0  3  0  0  0  0  0  0
  183.2050  179.1100  146.0440 F   0  0  0  0  0  0  0  0  0  0  0  0
  183.2690  180.9240  144.5760 F   0  0  0  0  0  0  0  0  0  0  0  0
  183.0270  179.5470  144.7440 C   0  0  0  0  0  3  0  0  0  0  0  0
  180.3220  178.1030  136.4940 C   0  0  0  0  0  0  0  0  0  0  0  0
  180.0570  177.9270  135.2470 N   0  0  0  0  0  0  0  0  0  0  0  0
  178.9310  177.1720  134.8550 O   0  0  0  0  0  1  0  0  0  0  0  0
  179.5390  177.4080  137.6420 C   0  0  1  0  0  3  0  0  0  0  0  0
  178.9310  177.7280  140.0990 C   0  0  0  0  0  2  0  0  0  0  0  0
  179.5310  176.3030  139.7410 C   0  0  2  0  0  3  0  0  0  0  0  0
  180.2660  176.3240  138.3680 C   0  0  0  0  0  2  0  0  0  0  0  0
  179.2180  178.4150  138.7430 C   0  0  0  0  0  2  0  0  0  0  0  0
  178.9440  174.9650  140.3120 C   0  0  1  0  0  3  0  0  0  0  0  0
  179.4970  173.7070  139.7590 C   0  0  0  0  0  1  0  0  0  0  0  0
  179.3430  174.7060  141.6920 O   0  0  0  0  0  1  0  0  0  0  0  0
  191.2500  179.8710  144.2900 O   0  0  0  0  0  0  0  0  0  0  0  0
  190.8390  178.7000  144.6990 C   0  0  0  0  0  0  0  0  0  0  0  0
  191.7850  177.8360  145.2190 O   0  0  0  0  0  0  0  0  0  0  0  0
  192.2770  175.7160  146.1440 C   0  0  0  0  0  1  0  0  0  0  0  0
  191.3970  176.9140  146.2970 C   0  0  0  0  0  2  0  0  0  0  0  0
  181.0700  181.0560  138.4540 C   0  0  0  0  0  1  0  0  0  0  0  0
  182.4310  180.8900  139.0130 O   0  0  0  0  0  0  0  0  0  0  0  0
  190.9680  175.7350  139.6820 C   0  0  0  0  0  2  0  0  0  0  0  0
  191.7770  176.6960  135.6100 O   0  0  0  0  0  1  0  0  0  0  0  0
  191.8340  176.0570  138.3880 C   0  0  2  0  0  3  0  0  0  0  0  0
  193.7790  173.9480  135.3610 O   0  0  0  0  0  1  0  0  0  0  0  0
  192.6350  174.0440  137.7330 O   0  0  0  0  0  0  0  0  0  0  0  0
  191.6850  174.9700  137.3710 C   0  0  2  0  0  3  0  0  0  0  0  0
  193.6080  176.1780  138.7860 S   0  0  0  0  0  0  0  0  0  0  0  0
  193.7740  174.8030  137.5160 C   0  0  2  0  0  3  0  0  0  0  0  0
  192.1170  175.3390  135.9390 C   0  0  2  0  0  3  0  0  0  0  0  0
  193.6540  175.0990  136.0650 C   0  0  2  0  0  0  0  0  0  0  0  0
  197.1190  176.5110  135.2070 C   0  0  0  0  0  2  0  0  0  0  0  0
  195.8510  175.9300  134.6180 C   0  0  1  0  0  3  0  0  0  0  0  0
  194.4380  177.5900  135.7750 O   0  0  0  0  0  1  0  0  0  0  0  0
  196.0520  175.9120  136.0740 C   0  0  2  0  0  3  0  0  0  0  0  0
  194.6960  176.2380  135.5050 C   0  0  1  0  0  0  0  0  0  0  0  0
  1 12  1  1  0  0  0
  1 19  1  0  0  0  0
  2 17  1  0  0  0  0
  3 33  1  0  0  0  0
  4 34  1  0  0  0  0
  5 18  1  0  0  0  0
  5 19  1  0  0  0  0
  6 50  1  0  0  0  0
  7 30  1  6  0  0  0
  7  3  1  0  0  0  0
  8 11  1  6  0  0  0
  8 15  1  0  0  0  0
  9  7  1  0  0  0  0
 10 55  1  6  0  0  0
 10  4  1  0  0  0  0
 13 30  1  0  0  0  0
 13 31  1  0  0  0  0
 15 26  1  0  0  0  0
 15  6  1  6  0  0  0
 16 31  2  0  0  0  0
 17 38  1  6  0  0  0
 17 29  1  0  0  0  0
 18 26  3  0  0  0  0
 19 37  1  6  0  0  0
 22 14  1  6  0  0  0
 22  2  1  0  0  0  0
 22  9  1  0  0  0  0
 23 56  1  1  0  0  0
 23 24  1  0  0  0  0
 24  8  1  0  0  0  0
 24 20  1  1  0  0  0
 25 31  2  0  0  0  0
 28 27  1  6  0  0  0
 28  1  1  0  0  0  0
 29 10  1  0  0  0  0
 31 32  1  0  0  0  0
 32 23  1  0  0  0  0
 32 11  1  1  0  0  0
 33 28  1  0  0  0  0
 34  1  1  0  0  0  0
 34 21  1  1  0  0  0
 36 37  1  0  0  0  0
 37 35  1  0  0  0  0
 39 38  2  0  0  0  0
 40 39  1  0  0  0  0
 41 38  1  6  0  0  0
 41 44  1  0  0  0  0
 41 45  1  0  0  0  0
 43 42  1  0  0  0  0
 43 46  1  6  0  0  0
 44 43  1  0  0  0  0
 45 42  1  0  0  0  0
 46 47  1  6  0  0  0
 46 48  1  0  0  0  0
 49 50  2  0  0  0  0
 50 51  1  0  0  0  0
 51 53  1  0  0  0  0
 52 53  1  0  0  0  0
 54 55  1  0  0  0  0
 58 62  1  0  0  0  0
 58 56  1  1  0  0  0
 61 60  1  1  0  0  0
 61 58  1  0  0  0  0
 63 60  1  1  0  0  0
 63 62  1  0  0  0  0
 64 57  1  1  0  0  0
 64 65  1  0  0  0  0
 64 61  1  0  0  0  0
 65 59  1  6  0  0  0
 65 63  1  0  0  0  0
 67 66  1  6  0  0  0
 67 70  1  0  0  0  0
 67 69  1  0  0  0  0
 69 66  1  6  0  0  0
 70 68  1  1  0  0  0
 70 65  1  0  0  0  0
 70 69  1  0  0  0  0
M  END
>  <MODEL>
1

>  <REMARK>
 VINA RESULT:      -1.0      0.000      0.000
  Name = 
  11 active torsions:
  status: ('A' for Active; 'I' for Inactive)
    1  A    between atoms: C_1  and  C_42
    2  A    between atoms: C_11  and  C_61
    3  A    between atoms: C_12  and  C_63
    4  A    between atoms: C_18  and  C_35
    5  A    between atoms: C_20  and  O_44
    6  A    between atoms: C_28  and  C_42
    7  A    between atoms: C_34  and  C_47
    8  A    between atoms: C_41  and  C_61
    9  A    between atoms: C_53  and  C_60
   10  A    between atoms: C_63  and  O_66
   11  A    between atoms: O_66  and  C_68
                            x       y       z     vdW  Elec       q    Type
                         _______ _______ _______ _____ _____    ______ ____

>  <TORSDO>
F 11

$$$$
=
 OpenBabel11062418133D

 70 77  0  0  1  0  0  0  0  0999 V2000
  187.3540  173.0030  136.6160 C   0  0  1  0  0  0  0  0  0  0  0  0
  193.2170  176.1300  136.7620 C   0  0  0  0  0  2  0  0  0  0  0  0
  189.7000  174.8740  139.2450 C   0  0  0  0  0  2  0  0  0  0  0  0
  189.9150  173.0100  135.4930 C   0  0  0  0  0  2  0  0  0  0  0  0
  185.6910  174.4990  135.7960 C   0  0  0  0  0  2  0  0  0  0  0  0
  182.2880  177.0860  137.7220 C   0  0  0  0  0  2  0  0  0  0  0  0
  190.4370  175.9320  138.4400 C   0  0  2  0  0  3  0  0  0  0  0  0
  184.5350  177.9210  138.6210 C   0  0  1  0  0  3  0  0  0  0  0  0
  191.7780  175.8320  138.8530 O   0  0  0  0  0  0  0  0  0  0  0  0
  190.4260  174.3550  135.7050 C   0  0  1  0  0  3  0  0  0  0  0  0
  186.0860  177.4600  138.8430 C   0  0  0  0  0  2  0  0  0  0  0  0
  187.3870  171.7640  137.4800 C   0  0  0  0  0  1  0  0  0  0  0  0
  189.4360  177.7330  140.0440 C   0  0  0  0  0  2  0  0  0  0  0  0
  193.7660  177.1750  139.0640 C   0  0  0  0  0  1  0  0  0  0  0  0
  183.6100  176.8700  138.0950 C   0  0  2  0  0  3  0  0  0  0  0  0
  188.3750  179.7230  138.4450 O   0  0  0  0  0  0  0  0  0  0  0  0
  192.9920  174.6460  136.4940 C   0  0  2  0  0  3  0  0  0  0  0  0
  184.8250  174.9790  136.7740 C   0  0  0  0  0  0  0  0  0  0  0  0
  185.9120  173.0810  136.0940 C   0  0  1  0  0  3  0  0  0  0  0  0
  183.2740  178.1560  140.7840 C   0  0  0  0  0  1  0  0  0  0  0  0
  188.0820  171.8690  134.5940 F   0  0  0  0  0  0  0  0  0  0  0  0
  192.6490  176.6890  138.1550 C   0  0  1  0  0  3  0  0  0  0  0  0
  185.5670  179.2220  140.2130 C   0  0  2  0  0  3  0  0  0  0  0  0
  184.1640  178.6720  139.8460 C   0  0  1  0  0  3  0  0  0  0  0  0
  188.4950  179.8780  140.8830 O   0  0  0  0  0  0  0  0  0  0  0  0
  184.1520  175.6870  137.5140 C   0  0  0  0  0  0  0  0  0  0  0  0
  187.9240  175.3840  137.0680 O   0  0  0  0  0  1  0  0  0  0  0  0
  187.7600  174.1660  137.7210 C   0  0  2  0  0  3  0  0  0  0  0  0
  191.6010  174.1380  136.7510 C   0  0  0  0  0  2  0  0  0  0  0  0
  189.7670  177.2760  138.6540 C   0  0  0  0  0  2  0  0  0  0  0  0
  188.1870  178.9650  139.7330 S   0  0  0  0  0  0  0  0  0  0  0  0
  186.6060  178.1710  140.0480 N   0  0  2  0  0  0  0  0  0  0  0  0
  189.0600  173.7650  138.4380 C   0  0  0  0  0  2  0  0  0  0  0  0
  188.3320  172.9700  135.3950 C   0  0  1  0  0  3  0  0  0  0  0  0
  186.3110  171.0510  135.0210 F   0  0  0  0  0  0  0  0  0  0  0  0
  184.2640  172.0890  134.5940 F   0  0  0  0  0  0  0  0  0  0  0  0
  185.6350  172.2480  134.8760 C   0  0  0  0  0  3  0  0  0  0  0  0
  193.9890  173.7760  137.1910 C   0  0  0  0  0  0  0  0  0  0  0  0
  193.8550  172.5130  137.3990 N   0  0  0  0  0  0  0  0  0  0  0  0
  194.7790  171.8200  138.2100 O   0  0  0  0  0  1  0  0  0  0  0  0
  195.2130  174.5990  137.6790 C   0  0  1  0  0  3  0  0  0  0  0  0
  197.7250  174.8280  137.2960 C   0  0  0  0  0  2  0  0  0  0  0  0
  197.2910  174.7020  138.8180 C   0  0  2  0  0  3  0  0  0  0  0  0
  195.8450  174.1410  138.9530 C   0  0  0  0  0  2  0  0  0  0  0  0
  196.3500  174.5010  136.6670 C   0  0  0  0  0  2  0  0  0  0  0  0
  197.9150  175.5830  139.9560 C   0  0  1  0  0  3  0  0  0  0  0  0
  196.9670  176.3330  140.8110 C   0  0  0  0  0  1  0  0  0  0  0  0
  198.4970  174.7950  141.0380 O   0  0  0  0  0  1  0  0  0  0  0  0
  181.5660  179.1600  136.7580 O   0  0  0  0  0  0  0  0  0  0  0  0
  181.4190  178.2530  137.6880 C   0  0  0  0  0  0  0  0  0  0  0  0
  180.4540  178.4780  138.6520 O   0  0  0  0  0  0  0  0  0  0  0  0
  178.9420  178.3240  136.8410 C   0  0  0  0  0  1  0  0  0  0  0  0
  179.0960  178.8510  138.2320 C   0  0  0  0  0  2  0  0  0  0  0  0
  189.9760  176.2990  134.7860 C   0  0  0  0  0  1  0  0  0  0  0  0
  190.8150  175.0940  134.5940 O   0  0  0  0  0  0  0  0  0  0  0  0
  185.4750  179.9290  141.5240 C   0  0  0  0  0  2  0  0  0  0  0  0
  188.7050  178.1410  143.6510 O   0  0  0  0  0  1  0  0  0  0  0  0
  186.3070  179.4100  142.7750 C   0  0  2  0  0  3  0  0  0  0  0  0
  186.5270  175.9810  145.1380 O   0  0  0  0  0  1  0  0  0  0  0  0
  185.2740  177.4880  143.3780 O   0  0  0  0  0  0  0  0  0  0  0  0
  186.4190  177.9180  142.7500 C   0  0  2  0  0  3  0  0  0  0  0  0
  185.5000  179.8600  144.3450 S   0  0  0  0  0  0  0  0  0  0  0  0
  185.5110  178.0050  144.6420 C   0  0  2  0  0  3  0  0  0  0  0  0
  187.5240  177.3220  143.6420 C   0  0  2  0  0  3  0  0  0  0  0  0
  186.7710  177.3070  145.0090 C   0  0  2  0  0  0  0  0  0  0  0  0
  189.3620  177.2520  147.8410 C   0  0  0  0  0  2  0  0  0  0  0  0
  188.9980  177.9050  146.5240 C   0  0  1  0  0  3  0  0  0  0  0  0
  186.7500  178.5190  147.3400 O   0  0  0  0  0  1  0  0  0  0  0  0
  188.2380  176.7360  146.9920 C   0  0  2  0  0  3  0  0  0  0  0  0
  187.5190  177.8930  146.3480 C   0  0  1  0  0  0  0  0  0  0  0  0
  1 12  1  1  0  0  0
  1 28  1  0  0  0  0
  2 22  1  0  0  0  0
  4 10  1  0  0  0  0
  5 19  1  0  0  0  0
  5 18  1  0  0  0  0
  7 30  1  1  0  0  0
  7  9  1  0  0  0  0
  7  3  1  0  0  0  0
  8 11  1  1  0  0  0
  8 24  1  0  0  0  0
 10 55  1  6  0  0  0
 10 29  1  0  0  0  0
 15  6  1  6  0  0  0
 15  8  1  0  0  0  0
 16 31  2  0  0  0  0
 17 29  1  0  0  0  0
 17  2  1  0  0  0  0
 17 38  1  1  0  0  0
 18 26  3  0  0  0  0
 19 37  1  6  0  0  0
 19  1  1  0  0  0  0
 22  9  1  0  0  0  0
 22 14  1  1  0  0  0
 23 56  1  1  0  0  0
 24 23  1  0  0  0  0
 24 20  1  1  0  0  0
 26 15  1  0  0  0  0
 28 27  1  6  0  0  0
 28 33  1  0  0  0  0
 30 13  1  0  0  0  0
 31 13  1  0  0  0  0
 31 32  1  0  0  0  0
 31 25  2  0  0  0  0
 32 11  1  6  0  0  0
 32 23  1  0  0  0  0
 33  3  1  0  0  0  0
 34 21  1  1  0  0  0
 34  4  1  0  0  0  0
 34  1  1  0  0  0  0
 36 37  1  0  0  0  0
 37 35  1  0  0  0  0
 38 39  2  0  0  0  0
 39 40  1  0  0  0  0
 41 38  1  6  0  0  0
 41 44  1  0  0  0  0
 42 43  1  0  0  0  0
 43 44  1  0  0  0  0
 43 46  1  6  0  0  0
 45 42  1  0  0  0  0
 45 41  1  0  0  0  0
 46 47  1  1  0  0  0
 46 48  1  0  0  0  0
 49 50  2  0  0  0  0
 50  6  1  0  0  0  0
 50 51  1  0  0  0  0
 52 53  1  0  0  0  0
 53 51  1  0  0  0  0
 55 54  1  0  0  0  0
 58 56  1  6  0  0  0
 58 62  1  0  0  0  0
 61 58  1  0  0  0  0
 61 60  1  1  0  0  0
 61 64  1  0  0  0  0
 62 63  1  0  0  0  0
 63 60  1  6  0  0  0
 63 65  1  0  0  0  0
 64 57  1  1  0  0  0
 64 65  1  0  0  0  0
 65 59  1  1  0  0  0
 65 70  1  0  0  0  0
 67 69  1  0  0  0  0
 67 66  1  1  0  0  0
 69 66  1  1  0  0  0
 70 67  1  0  0  0  0
 70 69  1  0  0  0  0
 70 68  1  1  0  0  0
M  END
>  <MODEL>
2

>  <REMARK>
 VINA RESULT:       2.0      3.912     11.451
  Name = 
  11 active torsions:
  status: ('A' for Active; 'I' for Inactive)
    1  A    between atoms: C_1  and  C_42
    2  A    between atoms: C_11  and  C_61
    3  A    between atoms: C_12  and  C_63
    4  A    between atoms: C_18  and  C_35
    5  A    between atoms: C_20  and  O_44
    6  A    between atoms: C_28  and  C_42
    7  A    between atoms: C_34  and  C_47
    8  A    between atoms: C_41  and  C_61
    9  A    between atoms: C_53  and  C_60
   10  A    between atoms: C_63  and  O_66
   11  A    between atoms: O_66  and  C_68
                            x       y       z     vdW  Elec       q    Type
                         _______ _______ _______ _____ _____    ______ ____

>  <TORSDO>
F 11

$$$$
