=
 OpenBabel11062417593D

 40 45  0  0  1  0  0  0  0  0999 V2000
  191.9090  177.6000  144.9870 C   0  0  0  0  0  2  0  0  0  0  0  0
  189.1910  177.1000  140.5000 N   0  0  0  0  0  2  0  0  0  0  0  0
  190.2040  179.3680  143.2970 C   0  0  0  0  0  2  0  0  0  0  0  0
  189.3360  177.6500  141.8140 C   0  0  0  0  0  0  0  0  0  0  0  0
  190.5590  176.9080  145.1530 C   0  0  1  0  0  3  0  0  0  0  0  0
  190.4730  175.5600  144.4110 C   0  0  1  0  0  3  0  0  0  0  0  0
  191.5750  179.4170  143.6190 O   0  0  0  0  0  0  0  0  0  0  0  0
  189.5090  175.5460  143.2590 C   0  0  2  0  0  3  0  0  0  0  0  0
  190.8990  175.6820  143.0740 O   0  0  0  0  0  0  0  0  0  0  0  0
  188.7940  176.8840  142.9950 C   0  0  2  0  0  3  0  0  0  0  0  0
  189.9840  178.7680  141.9820 N   0  0  0  0  0  0  0  0  0  0  0  0
  192.0280  178.1330  143.6320 N   0  0  0  0  0  2  0  0  0  0  0  0
  190.2300  176.7340  146.6270 C   0  0  0  0  0  2  0  0  0  0  0  0
  188.7540  177.9270  148.2650 C   0  0  0  0  0  3  0  0  0  0  0  0
  187.9680  177.6070  145.9940 C   0  0  0  0  0  3  0  0  0  0  0  0
  186.7650  178.2380  146.3220 C   0  0  0  0  0  3  0  0  0  0  0  0
  188.9680  177.4550  146.9630 C   0  0  0  0  0  0  0  0  0  0  0  0
  187.5510  178.5600  148.5910 C   0  0  0  0  0  3  0  0  0  0  0  0
  186.5570  178.7160  147.6200 C   0  0  0  0  0  3  0  0  0  0  0  0
  189.7190  177.7480  139.3050 C   0  0  2  0  0  3  0  0  0  0  0  0
  188.7820  178.7520  137.1560 C   0  0  0  0  0  3  0  0  0  0  0  0
  186.6350  178.6830  137.6520 O   0  0  0  0  0  0  0  0  0  0  0  0
  188.6110  178.2220  138.4160 C   0  0  0  0  0  0  0  0  0  0  0  0
  187.2620  178.1900  138.6930 C   0  0  0  0  0  3  0  0  0  0  0  0
  187.4980  179.0270  136.7210 C   0  0  0  0  0  3  0  0  0  0  0  0
  190.1290  175.5500  138.4080 O   0  0  0  0  0  1  0  0  0  0  0  0
  190.6840  176.8230  138.5580 C   0  0  2  0  0  3  0  0  0  0  0  0
  192.0130  176.7120  139.2900 C   0  0  0  0  0  2  0  0  0  0  0  0
  193.1720  176.8470  138.3210 C   0  0  0  0  0  3  0  0  0  0  0  0
  193.7090  175.4690  137.9960 C   0  0  0  0  0  2  0  0  0  0  0  0
  192.8060  176.1800  137.0130 C   0  0  0  0  0  2  0  0  0  0  0  0
  187.2730  176.7450  142.9770 C   0  0  0  0  0  2  0  0  0  0  0  0
  186.5780  178.0270  142.5480 C   0  0  0  0  0  2  0  0  0  0  0  0
  185.1610  178.0320  143.0840 C   0  0  0  0  0  2  0  0  0  0  0  0
  184.2640  177.8770  142.0270 O   0  0  0  0  0  0  0  0  0  0  0  0
  181.2860  178.9830  143.4090 C   0  0  0  0  0  2  0  0  0  0  0  0
  181.0090  178.3760  142.0550 C   0  0  0  0  0  2  0  0  0  0  0  0
  182.7900  178.9350  143.5660 C   0  0  0  0  0  2  0  0  0  0  0  0
  182.2020  178.7500  141.2050 C   0  0  0  0  0  2  0  0  0  0  0  0
  183.3690  178.9390  142.1620 C   0  0  0  0  0  3  0  0  0  0  0  0
  1  5  1  0  0  0  0
  2  4  1  0  0  0  0
  3  7  1  0  0  0  0
  4 11  2  0  0  0  0
  4 10  1  0  0  0  0
  5 13  1  1  0  0  0
  6  9  1  6  0  0  0
  6  5  1  0  0  0  0
  7 12  1  0  0  0  0
  8  9  1  6  0  0  0
  8  6  1  0  0  0  0
 10 32  1  6  0  0  0
 10  8  1  0  0  0  0
 11  3  1  0  0  0  0
 12  1  1  0  0  0  0
 13 17  1  0  0  0  0
 14 18  1  0  0  0  0
 15 16  2  0  0  0  0
 15 17  1  0  0  0  0
 16 19  1  0  0  0  0
 17 14  2  0  0  0  0
 19 18  2  0  0  0  0
 20  2  1  1  0  0  0
 21 23  1  0  0  0  0
 22 24  1  0  0  0  0
 23 24  2  0  0  0  0
 23 20  1  0  0  0  0
 25 21  2  0  0  0  0
 25 22  1  0  0  0  0
 27 26  1  1  0  0  0
 27 28  1  0  0  0  0
 27 20  1  0  0  0  0
 29 28  1  0  0  0  0
 30 29  1  0  0  0  0
 31 30  1  0  0  0  0
 31 29  1  0  0  0  0
 33 32  1  0  0  0  0
 33 34  1  0  0  0  0
 35 40  1  0  0  0  0
 35 34  1  0  0  0  0
 36 38  1  0  0  0  0
 37 36  1  0  0  0  0
 39 37  1  0  0  0  0
 39 40  1  0  0  0  0
 40 38  1  0  0  0  0
M  END
>  <MODEL>
1

>  <REMARK>
 VINA RESULT:      -7.1      0.000      0.000
  Name = 
  12 active torsions:
  status: ('A' for Active; 'I' for Inactive)
    1  A    between atoms: C_4  and  C_17
    2  A    between atoms: C_4  and  O_29
    3  A    between atoms: C_6  and  C_34
    4  A    between atoms: N_11  and  C_33
    5  A    between atoms: C_15  and  C_20
    6  A    between atoms: C_17  and  C_37
    7  A    between atoms: C_19  and  C_33
    8  A    between atoms: C_20  and  C_31
    9  A    between atoms: C_24  and  C_37
   10  A    between atoms: O_29  and  C_32
   11  A    between atoms: C_33  and  C_35
   12  A    between atoms: C_34  and  C_35
                            x       y       z     vdW  Elec       q    Type
                         _______ _______ _______ _____ _____    ______ ____

>  <TORSDO>
F 12

$$$$
=
 OpenBabel11062417593D

 40 45  0  0  1  0  0  0  0  0999 V2000
  191.6930  177.4510  145.0320 C   0  0  0  0  0  2  0  0  0  0  0  0
  189.1100  177.2340  140.4440 N   0  0  0  0  0  2  0  0  0  0  0  0
  190.2760  179.3920  143.2690 C   0  0  0  0  0  2  0  0  0  0  0  0
  189.2680  177.7750  141.7600 C   0  0  0  0  0  0  0  0  0  0  0  0
  190.2660  176.9240  145.1480 C   0  0  1  0  0  3  0  0  0  0  0  0
  190.0500  175.5890  144.4090 C   0  0  1  0  0  3  0  0  0  0  0  0
  191.6300  179.2820  143.6440 O   0  0  0  0  0  0  0  0  0  0  0  0
  189.1360  175.6790  143.2200 C   0  0  2  0  0  3  0  0  0  0  0  0
  190.5380  175.6480  143.0900 O   0  0  0  0  0  0  0  0  0  0  0  0
  188.5940  177.0890  142.9230 C   0  0  2  0  0  3  0  0  0  0  0  0
  190.0370  178.8100  141.9480 N   0  0  0  0  0  0  0  0  0  0  0  0
  191.9270  177.9540  143.6810 N   0  0  0  0  0  2  0  0  0  0  0  0
  189.8620  176.8040  146.6090 C   0  0  0  0  0  2  0  0  0  0  0  0
  188.4160  178.3120  147.9930 C   0  0  0  0  0  3  0  0  0  0  0  0
  187.5020  177.3480  145.9650 C   0  0  0  0  0  3  0  0  0  0  0  0
  186.2800  177.9770  146.2170 C   0  0  0  0  0  3  0  0  0  0  0  0
  188.5750  177.5190  146.8490 C   0  0  0  0  0  0  0  0  0  0  0  0
  187.1930  178.9420  148.2440 C   0  0  0  0  0  3  0  0  0  0  0  0
  186.1270  178.7760  147.3550 C   0  0  0  0  0  3  0  0  0  0  0  0
  189.7560  177.8050  139.2680 C   0  0  2  0  0  3  0  0  0  0  0  0
  187.4340  177.8860  138.2180 C   0  0  0  0  0  3  0  0  0  0  0  0
  187.8000  179.4360  136.6930 O   0  0  0  0  0  0  0  0  0  0  0  0
  188.7420  178.3100  138.2890 C   0  0  0  0  0  0  0  0  0  0  0  0
  188.9370  179.2770  137.3270 C   0  0  0  0  0  3  0  0  0  0  0  0
  186.8860  178.6310  137.1900 C   0  0  0  0  0  3  0  0  0  0  0  0
  190.1300  175.5270  138.5790 O   0  0  0  0  0  1  0  0  0  0  0  0
  190.7100  176.7970  138.6210 C   0  0  2  0  0  3  0  0  0  0  0  0
  192.0270  176.7250  139.3780 C   0  0  0  0  0  2  0  0  0  0  0  0
  193.2000  176.8730  138.4280 C   0  0  0  0  0  3  0  0  0  0  0  0
  193.7450  175.4990  138.0960 C   0  0  0  0  0  2  0  0  0  0  0  0
  192.8560  176.2190  137.1070 C   0  0  0  0  0  2  0  0  0  0  0  0
  187.0700  177.1300  142.8460 C   0  0  0  0  0  2  0  0  0  0  0  0
  186.5390  178.5300  142.5780 C   0  0  0  0  0  2  0  0  0  0  0  0
  185.1710  178.4320  141.9370 C   0  0  0  0  0  2  0  0  0  0  0  0
  185.0870  179.3400  140.8820 O   0  0  0  0  0  0  0  0  0  0  0  0
  182.1370  179.5480  139.0750 C   0  0  0  0  0  2  0  0  0  0  0  0
  181.8640  178.8640  140.3930 C   0  0  0  0  0  2  0  0  0  0  0  0
  183.6310  179.7830  139.0520 C   0  0  0  0  0  2  0  0  0  0  0  0
  183.1000  178.0370  140.6700 C   0  0  0  0  0  2  0  0  0  0  0  0
  184.2480  178.7250  139.9500 C   0  0  0  0  0  3  0  0  0  0  0  0
  1  5  1  0  0  0  0
  2  4  1  0  0  0  0
  3  7  1  0  0  0  0
  4 11  2  0  0  0  0
  4 10  1  0  0  0  0
  5 13  1  1  0  0  0
  6  9  1  6  0  0  0
  6  5  1  0  0  0  0
  7 12  1  0  0  0  0
  8  9  1  6  0  0  0
  8  6  1  0  0  0  0
 10 32  1  6  0  0  0
 10  8  1  0  0  0  0
 11  3  1  0  0  0  0
 12  1  1  0  0  0  0
 13 17  1  0  0  0  0
 14 18  1  0  0  0  0
 15 16  2  0  0  0  0
 15 17  1  0  0  0  0
 16 19  1  0  0  0  0
 17 14  2  0  0  0  0
 19 18  2  0  0  0  0
 20  2  1  1  0  0  0
 21 23  1  0  0  0  0
 22 25  1  0  0  0  0
 22 24  1  0  0  0  0
 23 20  1  0  0  0  0
 24 23  2  0  0  0  0
 25 21  2  0  0  0  0
 27 26  1  1  0  0  0
 27 20  1  0  0  0  0
 27 28  1  0  0  0  0
 29 28  1  0  0  0  0
 30 29  1  0  0  0  0
 31 30  1  0  0  0  0
 31 29  1  0  0  0  0
 33 32  1  0  0  0  0
 34 33  1  0  0  0  0
 35 34  1  0  0  0  0
 36 37  1  0  0  0  0
 37 39  1  0  0  0  0
 38 36  1  0  0  0  0
 38 40  1  0  0  0  0
 40 39  1  0  0  0  0
 40 35  1  0  0  0  0
M  END
>  <MODEL>
2

>  <REMARK>
 VINA RESULT:      -7.0      0.986      1.367
  Name = 
  12 active torsions:
  status: ('A' for Active; 'I' for Inactive)
    1  A    between atoms: C_4  and  C_17
    2  A    between atoms: C_4  and  O_29
    3  A    between atoms: C_6  and  C_34
    4  A    between atoms: N_11  and  C_33
    5  A    between atoms: C_15  and  C_20
    6  A    between atoms: C_17  and  C_37
    7  A    between atoms: C_19  and  C_33
    8  A    between atoms: C_20  and  C_31
    9  A    between atoms: C_24  and  C_37
   10  A    between atoms: O_29  and  C_32
   11  A    between atoms: C_33  and  C_35
   12  A    between atoms: C_34  and  C_35
                            x       y       z     vdW  Elec       q    Type
                         _______ _______ _______ _____ _____    ______ ____

>  <TORSDO>
F 12

$$$$
=
 OpenBabel11062417593D

 40 45  0  0  1  0  0  0  0  0999 V2000
  187.7460  175.1750  135.2360 C   0  0  0  0  0  2  0  0  0  0  0  0
  192.6320  175.8360  137.0950 N   0  0  0  0  0  2  0  0  0  0  0  0
  189.7040  173.5310  136.7690 C   0  0  0  0  0  2  0  0  0  0  0  0
  191.3130  175.2940  137.2240 C   0  0  0  0  0  0  0  0  0  0  0  0
  187.8130  175.9790  136.5320 C   0  0  1  0  0  3  0  0  0  0  0  0
  188.5580  177.3190  136.3760 C   0  0  1  0  0  3  0  0  0  0  0  0
  189.1510  173.3730  135.4820 O   0  0  0  0  0  0  0  0  0  0  0  0
  189.8580  177.3960  137.1240 C   0  0  2  0  0  3  0  0  0  0  0  0
  189.8020  177.1440  135.7400 O   0  0  0  0  0  0  0  0  0  0  0  0
  190.2420  176.1190  137.8940 C   0  0  2  0  0  3  0  0  0  0  0  0
  191.0370  174.1290  136.7100 N   0  0  0  0  0  0  0  0  0  0  0  0
  189.0590  174.6150  134.9320 N   0  0  0  0  0  2  0  0  0  0  0  0
  186.4170  176.1990  137.0930 C   0  0  0  0  0  2  0  0  0  0  0  0
  184.3900  175.0420  136.1810 C   0  0  0  0  0  3  0  0  0  0  0  0
  185.9680  173.7700  137.5120 C   0  0  0  0  0  3  0  0  0  0  0  0
  185.1640  172.6350  137.3810 C   0  0  0  0  0  3  0  0  0  0  0  0
  185.5860  174.9750  136.9080 C   0  0  0  0  0  0  0  0  0  0  0  0
  183.5870  173.9050  136.0490 C   0  0  0  0  0  3  0  0  0  0  0  0
  183.9750  172.7020  136.6470 C   0  0  0  0  0  3  0  0  0  0  0  0
  193.7190  175.1300  136.4270 C   0  0  2  0  0  3  0  0  0  0  0  0
  194.6510  172.8860  137.2000 C   0  0  0  0  0  3  0  0  0  0  0  0
  195.5790  173.5330  139.0920 O   0  0  0  0  0  0  0  0  0  0  0  0
  194.4470  174.2360  137.3820 C   0  0  0  0  0  0  0  0  0  0  0  0
  195.0400  174.6080  138.5690 C   0  0  0  0  0  3  0  0  0  0  0  0
  195.3710  172.4940  138.3130 C   0  0  0  0  0  3  0  0  0  0  0  0
  193.9870  176.8750  134.7880 O   0  0  0  0  0  1  0  0  0  0  0  0
  194.6700  176.1120  135.7370 C   0  0  2  0  0  3  0  0  0  0  0  0
  195.8200  175.3780  135.0630 C   0  0  0  0  0  2  0  0  0  0  0  0
  197.1530  175.9360  135.5210 C   0  0  0  0  0  3  0  0  0  0  0  0
  197.9640  174.8250  136.1540 C   0  0  0  0  0  2  0  0  0  0  0  0
  198.2660  175.2700  134.7410 C   0  0  0  0  0  2  0  0  0  0  0  0
  190.5200  176.3830  139.3720 C   0  0  0  0  0  2  0  0  0  0  0  0
  189.4910  177.3100  139.9990 C   0  0  0  0  0  2  0  0  0  0  0  0
  189.5660  177.1940  141.5070 C   0  0  0  0  0  2  0  0  0  0  0  0
  188.2860  177.3140  142.0470 O   0  0  0  0  0  0  0  0  0  0  0  0
  187.7880  177.4540  145.4730 C   0  0  0  0  0  2  0  0  0  0  0  0
  189.2060  177.8650  145.1610 C   0  0  0  0  0  2  0  0  0  0  0  0
  187.1870  177.0580  144.1420 C   0  0  0  0  0  2  0  0  0  0  0  0
  189.6220  176.9930  143.9970 C   0  0  0  0  0  2  0  0  0  0  0  0
  188.3450  176.6250  143.2590 C   0  0  0  0  0  3  0  0  0  0  0  0
  1  5  1  0  0  0  0
  2  4  1  0  0  0  0
  4 10  1  0  0  0  0
  5 13  1  6  0  0  0
  6  9  1  6  0  0  0
  6  5  1  0  0  0  0
  6  8  1  0  0  0  0
  7  3  1  0  0  0  0
  8  9  1  6  0  0  0
  8 10  1  0  0  0  0
 10 32  1  1  0  0  0
 11  3  1  0  0  0  0
 11  4  2  0  0  0  0
 12  1  1  0  0  0  0
 12  7  1  0  0  0  0
 14 17  1  0  0  0  0
 16 15  1  0  0  0  0
 17 13  1  0  0  0  0
 17 15  2  0  0  0  0
 18 14  2  0  0  0  0
 18 19  1  0  0  0  0
 19 16  2  0  0  0  0
 20  2  1  1  0  0  0
 20 23  1  0  0  0  0
 21 23  1  0  0  0  0
 21 25  2  0  0  0  0
 23 24  2  0  0  0  0
 24 22  1  0  0  0  0
 25 22  1  0  0  0  0
 27 26  1  6  0  0  0
 27 20  1  0  0  0  0
 28 29  1  0  0  0  0
 28 27  1  0  0  0  0
 29 30  1  0  0  0  0
 31 29  1  0  0  0  0
 31 30  1  0  0  0  0
 32 33  1  0  0  0  0
 33 34  1  0  0  0  0
 34 35  1  0  0  0  0
 35 40  1  0  0  0  0
 37 36  1  0  0  0  0
 38 36  1  0  0  0  0
 39 37  1  0  0  0  0
 40 39  1  0  0  0  0
 40 38  1  0  0  0  0
M  END
>  <MODEL>
3

>  <REMARK>
 VINA RESULT:      -6.7      3.726      8.190
  Name = 
  12 active torsions:
  status: ('A' for Active; 'I' for Inactive)
    1  A    between atoms: C_4  and  C_17
    2  A    between atoms: C_4  and  O_29
    3  A    between atoms: C_6  and  C_34
    4  A    between atoms: N_11  and  C_33
    5  A    between atoms: C_15  and  C_20
    6  A    between atoms: C_17  and  C_37
    7  A    between atoms: C_19  and  C_33
    8  A    between atoms: C_20  and  C_31
    9  A    between atoms: C_24  and  C_37
   10  A    between atoms: O_29  and  C_32
   11  A    between atoms: C_33  and  C_35
   12  A    between atoms: C_34  and  C_35
                            x       y       z     vdW  Elec       q    Type
                         _______ _______ _______ _____ _____    ______ ____

>  <TORSDO>
F 12

$$$$
=
 OpenBabel11062417593D

 40 45  0  0  1  0  0  0  0  0999 V2000
  188.3390  177.3350  135.0330 C   0  0  0  0  0  2  0  0  0  0  0  0
  187.2910  177.7100  140.1830 N   0  0  0  0  0  2  0  0  0  0  0  0
  189.0300  179.2210  137.2360 C   0  0  0  0  0  2  0  0  0  0  0  0
  188.1850  177.8810  139.0790 C   0  0  0  0  0  0  0  0  0  0  0  0
  189.1930  176.4220  135.9080 C   0  0  1  0  0  3  0  0  0  0  0  0
  188.3720  175.3440  136.6420 C   0  0  1  0  0  3  0  0  0  0  0  0
  188.2720  179.3900  136.0600 O   0  0  0  0  0  0  0  0  0  0  0  0
  188.3280  175.5070  138.1350 C   0  0  2  0  0  3  0  0  0  0  0  0
  187.2630  175.9050  137.3030 O   0  0  0  0  0  0  0  0  0  0  0  0
  189.0820  176.7360  138.6760 C   0  0  2  0  0  3  0  0  0  0  0  0
  188.1730  178.9920  138.3990 N   0  0  0  0  0  0  0  0  0  0  0  0
  187.5630  178.2430  135.8740 N   0  0  0  0  0  2  0  0  0  0  0  0
  190.3050  175.7880  135.0870 C   0  0  0  0  0  2  0  0  0  0  0  0
  191.4840  174.3180  136.7390 C   0  0  0  0  0  3  0  0  0  0  0  0
  192.5450  176.3820  136.0390 C   0  0  0  0  0  3  0  0  0  0  0  0
  193.6210  176.1190  136.8920 C   0  0  0  0  0  3  0  0  0  0  0  0
  191.4770  175.4800  135.9560 C   0  0  0  0  0  0  0  0  0  0  0  0
  192.5620  174.0530  137.5900 C   0  0  0  0  0  3  0  0  0  0  0  0
  193.6300  174.9530  137.6650 C   0  0  0  0  0  3  0  0  0  0  0  0
  186.3590  178.7450  140.6180 C   0  0  2  0  0  3  0  0  0  0  0  0
  185.1240  179.3560  142.7630 C   0  0  0  0  0  3  0  0  0  0  0  0
  186.1910  178.0290  144.1640 O   0  0  0  0  0  0  0  0  0  0  0  0
  186.0900  178.6440  142.0870 C   0  0  0  0  0  0  0  0  0  0  0  0
  186.7350  177.8240  142.9880 C   0  0  0  0  0  3  0  0  0  0  0  0
  185.2350  178.9270  144.0740 C   0  0  0  0  0  3  0  0  0  0  0  0
  184.6370  179.9880  139.4810 O   0  0  0  0  0  1  0  0  0  0  0  0
  185.0640  178.6970  139.8030 C   0  0  2  0  0  3  0  0  0  0  0  0
  183.9630  177.9770  140.5650 C   0  0  0  0  0  2  0  0  0  0  0  0
  182.6140  178.2190  139.9160 C   0  0  0  0  0  3  0  0  0  0  0  0
  181.7010  177.0490  140.2170 C   0  0  0  0  0  2  0  0  0  0  0  0
  181.5570  178.3390  140.9920 C   0  0  0  0  0  2  0  0  0  0  0  0
  190.1110  176.3710  139.7440 C   0  0  0  0  0  2  0  0  0  0  0  0
  191.4060  177.1540  139.5930 C   0  0  0  0  0  2  0  0  0  0  0  0
  191.8930  177.5840  140.9610 C   0  0  0  0  0  2  0  0  0  0  0  0
  190.9310  177.2620  141.9190 O   0  0  0  0  0  0  0  0  0  0  0  0
  190.8900  176.7530  145.3460 C   0  0  0  0  0  2  0  0  0  0  0  0
  190.0500  177.9630  145.0140 C   0  0  0  0  0  2  0  0  0  0  0  0
  191.4850  176.3090  144.0280 C   0  0  0  0  0  2  0  0  0  0  0  0
  190.7660  178.6340  143.8630 C   0  0  0  0  0  2  0  0  0  0  0  0
  191.5410  177.5420  143.1430 C   0  0  0  0  0  3  0  0  0  0  0  0
  1 12  1  0  0  0  0
  1  5  1  0  0  0  0
  3 11  1  0  0  0  0
  4  2  1  0  0  0  0
  5 13  1  6  0  0  0
  5  6  1  0  0  0  0
  6  9  1  6  0  0  0
  6  8  1  0  0  0  0
  7  3  1  0  0  0  0
  8  9  1  6  0  0  0
  8 10  1  0  0  0  0
 10  4  1  0  0  0  0
 10 32  1  1  0  0  0
 11  4  2  0  0  0  0
 12  7  1  0  0  0  0
 13 17  1  0  0  0  0
 14 18  1  0  0  0  0
 15 16  2  0  0  0  0
 16 19  1  0  0  0  0
 17 15  1  0  0  0  0
 17 14  2  0  0  0  0
 18 19  2  0  0  0  0
 20  2  1  6  0  0  0
 20 23  1  0  0  0  0
 21 25  2  0  0  0  0
 23 21  1  0  0  0  0
 23 24  2  0  0  0  0
 24 22  1  0  0  0  0
 25 22  1  0  0  0  0
 27 26  1  1  0  0  0
 27 28  1  0  0  0  0
 27 20  1  0  0  0  0
 29 30  1  0  0  0  0
 29 28  1  0  0  0  0
 29 31  1  0  0  0  0
 30 31  1  0  0  0  0
 33 32  1  0  0  0  0
 33 34  1  0  0  0  0
 34 35  1  0  0  0  0
 35 40  1  0  0  0  0
 37 36  1  0  0  0  0
 38 36  1  0  0  0  0
 39 37  1  0  0  0  0
 40 39  1  0  0  0  0
 40 38  1  0  0  0  0
M  END
>  <MODEL>
4

>  <REMARK>
 VINA RESULT:      -6.6      2.283      8.550
  Name = 
  12 active torsions:
  status: ('A' for Active; 'I' for Inactive)
    1  A    between atoms: C_4  and  C_17
    2  A    between atoms: C_4  and  O_29
    3  A    between atoms: C_6  and  C_34
    4  A    between atoms: N_11  and  C_33
    5  A    between atoms: C_15  and  C_20
    6  A    between atoms: C_17  and  C_37
    7  A    between atoms: C_19  and  C_33
    8  A    between atoms: C_20  and  C_31
    9  A    between atoms: C_24  and  C_37
   10  A    between atoms: O_29  and  C_32
   11  A    between atoms: C_33  and  C_35
   12  A    between atoms: C_34  and  C_35
                            x       y       z     vdW  Elec       q    Type
                         _______ _______ _______ _____ _____    ______ ____

>  <TORSDO>
F 12

$$$$
=
 OpenBabel11062417593D

 40 45  0  0  1  0  0  0  0  0999 V2000
  192.3140  176.0650  142.8260 C   0  0  0  0  0  2  0  0  0  0  0  0
  187.9550  178.3230  144.7400 N   0  0  0  0  0  2  0  0  0  0  0  0
  189.3790  175.5920  142.6160 C   0  0  0  0  0  2  0  0  0  0  0  0
  188.6480  177.6500  143.6840 C   0  0  0  0  0  0  0  0  0  0  0  0
  191.8930  177.3290  142.0820 C   0  0  1  0  0  3  0  0  0  0  0  0
  191.9610  178.5980  142.9540 C   0  0  1  0  0  3  0  0  0  0  0  0
  190.4160  174.8180  143.1750 O   0  0  0  0  0  0  0  0  0  0  0  0
  190.6250  179.2150  143.2570 C   0  0  2  0  0  3  0  0  0  0  0  0
  191.3080  178.4080  144.1870 O   0  0  0  0  0  0  0  0  0  0  0  0
  189.4150  178.4640  142.6710 C   0  0  2  0  0  3  0  0  0  0  0  0
  188.6600  176.3480  143.6420 N   0  0  0  0  0  0  0  0  0  0  0  0
  191.2770  175.6830  143.7800 N   0  0  0  0  0  2  0  0  0  0  0  0
  192.7170  177.5000  140.8160 C   0  0  0  0  0  2  0  0  0  0  0  0
  192.5330  176.5590  138.5000 C   0  0  0  0  0  3  0  0  0  0  0  0
  190.5360  177.4020  139.5870 C   0  0  0  0  0  3  0  0  0  0  0  0
  189.7880  177.0990  138.4460 C   0  0  0  0  0  3  0  0  0  0  0  0
  191.9090  177.1270  139.6190 C   0  0  0  0  0  0  0  0  0  0  0  0
  191.7840  176.2540  137.3600 C   0  0  0  0  0  3  0  0  0  0  0  0
  190.4110  176.5230  137.3340 C   0  0  0  0  0  3  0  0  0  0  0  0
  187.2230  177.6180  145.7850 C   0  0  2  0  0  3  0  0  0  0  0  0
  185.0270  178.3980  144.7500 C   0  0  0  0  0  3  0  0  0  0  0  0
  183.8390  178.6270  146.5940 O   0  0  0  0  0  0  0  0  0  0  0  0
  185.7980  178.0740  145.8450 C   0  0  0  0  0  0  0  0  0  0  0  0
  185.0270  178.2250  146.9770 C   0  0  0  0  0  3  0  0  0  0  0  0
  183.7980  178.7420  145.2840 C   0  0  0  0  0  3  0  0  0  0  0  0
  188.5480  179.0110  147.2370 O   0  0  0  0  0  1  0  0  0  0  0  0
  187.9190  177.7670  147.1410 C   0  0  2  0  0  3  0  0  0  0  0  0
  188.9440  176.6650  147.3550 C   0  0  0  0  0  2  0  0  0  0  0  0
  190.3270  177.1320  146.9420 C   0  0  0  0  0  3  0  0  0  0  0  0
  191.2360  177.1190  148.1530 C   0  0  0  0  0  2  0  0  0  0  0  0
  191.3130  176.0010  147.1370 C   0  0  0  0  0  2  0  0  0  0  0  0
  188.5230  179.3610  141.8170 C   0  0  0  0  0  2  0  0  0  0  0  0
  187.4780  178.5720  141.0430 C   0  0  0  0  0  2  0  0  0  0  0  0
  186.0970  178.9530  141.5360 C   0  0  0  0  0  2  0  0  0  0  0  0
  185.4670  179.7500  140.5810 O   0  0  0  0  0  0  0  0  0  0  0  0
  182.2070  179.2860  139.5010 C   0  0  0  0  0  2  0  0  0  0  0  0
  182.3390  178.7720  140.9140 C   0  0  0  0  0  2  0  0  0  0  0  0
  183.6020  179.7180  139.1030 C   0  0  0  0  0  2  0  0  0  0  0  0
  183.7250  178.1710  140.9860 C   0  0  0  0  0  2  0  0  0  0  0  0
  184.5630  178.8970  139.9460 C   0  0  0  0  0  3  0  0  0  0  0  0
  1 12  1  0  0  0  0
  3  7  1  0  0  0  0
  3 11  1  0  0  0  0
  4  2  1  0  0  0  0
  5 13  1  6  0  0  0
  5  1  1  0  0  0  0
  5  6  1  0  0  0  0
  6  8  1  0  0  0  0
  6  9  1  1  0  0  0
  7 12  1  0  0  0  0
  8  9  1  1  0  0  0
 10 32  1  1  0  0  0
 10  8  1  0  0  0  0
 10  4  1  0  0  0  0
 11  4  2  0  0  0  0
 14 17  1  0  0  0  0
 15 17  2  0  0  0  0
 16 15  1  0  0  0  0
 17 13  1  0  0  0  0
 18 14  2  0  0  0  0
 19 18  1  0  0  0  0
 19 16  2  0  0  0  0
 20  2  1  6  0  0  0
 20 23  1  0  0  0  0
 20 27  1  0  0  0  0
 21 25  2  0  0  0  0
 21 23  1  0  0  0  0
 22 24  1  0  0  0  0
 23 24  2  0  0  0  0
 25 22  1  0  0  0  0
 27 26  1  6  0  0  0
 27 28  1  0  0  0  0
 29 31  1  0  0  0  0
 29 28  1  0  0  0  0
 29 30  1  0  0  0  0
 31 30  1  0  0  0  0
 33 34  1  0  0  0  0
 33 32  1  0  0  0  0
 35 34  1  0  0  0  0
 36 37  1  0  0  0  0
 37 39  1  0  0  0  0
 38 36  1  0  0  0  0
 38 40  1  0  0  0  0
 40 35  1  0  0  0  0
 40 39  1  0  0  0  0
M  END
>  <MODEL>
5

>  <REMARK>
 VINA RESULT:      -6.6      1.991      6.713
  Name = 
  12 active torsions:
  status: ('A' for Active; 'I' for Inactive)
    1  A    between atoms: C_4  and  C_17
    2  A    between atoms: C_4  and  O_29
    3  A    between atoms: C_6  and  C_34
    4  A    between atoms: N_11  and  C_33
    5  A    between atoms: C_15  and  C_20
    6  A    between atoms: C_17  and  C_37
    7  A    between atoms: C_19  and  C_33
    8  A    between atoms: C_20  and  C_31
    9  A    between atoms: C_24  and  C_37
   10  A    between atoms: O_29  and  C_32
   11  A    between atoms: C_33  and  C_35
   12  A    between atoms: C_34  and  C_35
                            x       y       z     vdW  Elec       q    Type
                         _______ _______ _______ _____ _____    ______ ____

>  <TORSDO>
F 12

$$$$
=
 OpenBabel11062417593D

 40 45  0  0  1  0  0  0  0  0999 V2000
  179.6680  179.7170  138.8960 C   0  0  0  0  0  2  0  0  0  0  0  0
  183.9510  177.7870  141.2830 N   0  0  0  0  0  2  0  0  0  0  0  0
  182.6110  180.1490  138.7100 C   0  0  0  0  0  2  0  0  0  0  0  0
  183.2960  178.2860  140.1120 C   0  0  0  0  0  0  0  0  0  0  0  0
  180.1060  178.3510  138.3750 C   0  0  1  0  0  3  0  0  0  0  0  0
  180.0030  177.2360  139.4340 C   0  0  1  0  0  3  0  0  0  0  0  0
  181.5620  181.0020  139.1060 O   0  0  0  0  0  0  0  0  0  0  0  0
  181.3250  176.6730  139.8730 C   0  0  2  0  0  3  0  0  0  0  0  0
  180.6170  177.6180  140.6420 O   0  0  0  0  0  0  0  0  0  0  0  0
  182.5570  177.3220  139.2160 C   0  0  2  0  0  3  0  0  0  0  0  0
  183.2920  179.5650  139.8650 N   0  0  0  0  0  0  0  0  0  0  0  0
  180.6760  180.2450  139.8110 N   0  0  0  0  0  2  0  0  0  0  0  0
  179.3220  177.9830  137.1260 C   0  0  0  0  0  2  0  0  0  0  0  0
  180.0140  175.7400  136.2470 C   0  0  0  0  0  3  0  0  0  0  0  0
  181.1210  177.7250  135.4010 C   0  0  0  0  0  3  0  0  0  0  0  0
  181.9360  176.9260  134.5940 C   0  0  0  0  0  3  0  0  0  0  0  0
  180.1540  177.1340  136.2240 C   0  0  0  0  0  0  0  0  0  0  0  0
  180.8290  174.9420  135.4370 C   0  0  0  0  0  3  0  0  0  0  0  0
  181.7880  175.5350  134.6100 C   0  0  0  0  0  3  0  0  0  0  0  0
  184.6530  178.6480  142.2280 C   0  0  2  0  0  3  0  0  0  0  0  0
  186.7780  177.4540  142.9770 C   0  0  0  0  0  3  0  0  0  0  0  0
  188.2290  178.4830  141.6720 O   0  0  0  0  0  0  0  0  0  0  0  0
  186.1270  178.3870  142.2000 C   0  0  0  0  0  0  0  0  0  0  0  0
  187.0590  179.0080  141.3970 C   0  0  0  0  0  3  0  0  0  0  0  0
  188.1060  177.5600  142.6020 C   0  0  0  0  0  3  0  0  0  0  0  0
  182.7650  178.9640  143.6900 O   0  0  0  0  0  1  0  0  0  0  0  0
  184.0810  178.4980  143.6400 C   0  0  2  0  0  3  0  0  0  0  0  0
  184.9230  179.2540  144.6560 C   0  0  0  0  0  2  0  0  0  0  0  0
  184.8560  178.5820  146.0140 C   0  0  0  0  0  3  0  0  0  0  0  0
  186.2060  177.9720  146.3320 C   0  0  0  0  0  2  0  0  0  0  0  0
  185.8010  179.2850  146.9650 C   0  0  0  0  0  2  0  0  0  0  0  0
  183.4720  176.3010  138.5440 C   0  0  0  0  0  2  0  0  0  0  0  0
  184.4640  176.9500  137.5920 C   0  0  0  0  0  2  0  0  0  0  0  0
  185.0810  175.8840  136.7090 C   0  0  0  0  0  2  0  0  0  0  0  0
  186.4540  176.1040  136.6050 O   0  0  0  0  0  0  0  0  0  0  0  0
  188.5730  178.8360  136.8440 C   0  0  0  0  0  2  0  0  0  0  0  0
  188.8830  177.8680  137.9610 C   0  0  0  0  0  2  0  0  0  0  0  0
  187.3830  178.2420  136.1230 C   0  0  0  0  0  2  0  0  0  0  0  0
  187.5450  177.2900  138.3640 C   0  0  0  0  0  2  0  0  0  0  0  0
  186.6510  177.3800  137.1370 C   0  0  0  0  0  3  0  0  0  0  0  0
  1 12  1  0  0  0  0
  3  7  1  0  0  0  0
  3 11  1  0  0  0  0
  4  2  1  0  0  0  0
  5 13  1  6  0  0  0
  5  1  1  0  0  0  0
  5  6  1  0  0  0  0
  6  8  1  0  0  0  0
  6  9  1  1  0  0  0
  7 12  1  0  0  0  0
  8  9  1  1  0  0  0
 10 32  1  1  0  0  0
 10  8  1  0  0  0  0
 10  4  1  0  0  0  0
 11  4  2  0  0  0  0
 15 17  2  0  0  0  0
 16 19  2  0  0  0  0
 16 15  1  0  0  0  0
 17 14  1  0  0  0  0
 17 13  1  0  0  0  0
 18 14  2  0  0  0  0
 19 18  1  0  0  0  0
 20  2  1  6  0  0  0
 20 27  1  0  0  0  0
 22 25  1  0  0  0  0
 23 20  1  0  0  0  0
 23 21  1  0  0  0  0
 24 22  1  0  0  0  0
 24 23  2  0  0  0  0
 25 21  2  0  0  0  0
 27 26  1  6  0  0  0
 27 28  1  0  0  0  0
 28 29  1  0  0  0  0
 29 30  1  0  0  0  0
 29 31  1  0  0  0  0
 30 31  1  0  0  0  0
 33 32  1  0  0  0  0
 34 33  1  0  0  0  0
 35 34  1  0  0  0  0
 35 40  1  0  0  0  0
 36 37  1  0  0  0  0
 37 39  1  0  0  0  0
 38 36  1  0  0  0  0
 38 40  1  0  0  0  0
 40 39  1  0  0  0  0
M  END
>  <MODEL>
6

>  <REMARK>
 VINA RESULT:      -6.5      3.920      9.869
  Name = 
  12 active torsions:
  status: ('A' for Active; 'I' for Inactive)
    1  A    between atoms: C_4  and  C_17
    2  A    between atoms: C_4  and  O_29
    3  A    between atoms: C_6  and  C_34
    4  A    between atoms: N_11  and  C_33
    5  A    between atoms: C_15  and  C_20
    6  A    between atoms: C_17  and  C_37
    7  A    between atoms: C_19  and  C_33
    8  A    between atoms: C_20  and  C_31
    9  A    between atoms: C_24  and  C_37
   10  A    between atoms: O_29  and  C_32
   11  A    between atoms: C_33  and  C_35
   12  A    between atoms: C_34  and  C_35
                            x       y       z     vdW  Elec       q    Type
                         _______ _______ _______ _____ _____    ______ ____

>  <TORSDO>
F 12

$$$$
=
 OpenBabel11062417593D

 40 45  0  0  1  0  0  0  0  0999 V2000
  179.8990  180.2780  138.9010 C   0  0  0  0  0  2  0  0  0  0  0  0
  183.6140  177.8810  141.7690 N   0  0  0  0  0  2  0  0  0  0  0  0
  182.8670  180.0260  138.7960 C   0  0  0  0  0  2  0  0  0  0  0  0
  183.1020  178.3120  140.5030 C   0  0  0  0  0  0  0  0  0  0  0  0
  180.0300  178.7830  138.6220 C   0  0  1  0  0  3  0  0  0  0  0  0
  179.6680  177.9050  139.8350 C   0  0  1  0  0  3  0  0  0  0  0  0
  182.0280  181.1390  139.0020 O   0  0  0  0  0  0  0  0  0  0  0  0
  180.8250  177.1490  140.4220 C   0  0  2  0  0  3  0  0  0  0  0  0
  180.3340  178.3360  140.9980 O   0  0  0  0  0  0  0  0  0  0  0  0
  182.1800  177.3990  139.7340 C   0  0  2  0  0  3  0  0  0  0  0  0
  183.3860  179.5040  140.0600 N   0  0  0  0  0  0  0  0  0  0  0  0
  180.9870  180.7160  139.7710 N   0  0  0  0  0  2  0  0  0  0  0  0
  179.2010  178.3950  137.4080 C   0  0  0  0  0  2  0  0  0  0  0  0
  179.6130  176.4990  135.8230 C   0  0  0  0  0  3  0  0  0  0  0  0
  181.3190  178.2010  136.0840 C   0  0  0  0  0  3  0  0  0  0  0  0
  182.1380  177.5200  135.1800 C   0  0  0  0  0  3  0  0  0  0  0  0
  180.0520  177.6960  136.4030 C   0  0  0  0  0  0  0  0  0  0  0  0
  180.4330  175.8180  134.9170 C   0  0  0  0  0  3  0  0  0  0  0  0
  181.6940  176.3290  134.5950 C   0  0  0  0  0  3  0  0  0  0  0  0
  184.4770  178.7120  142.6010 C   0  0  2  0  0  3  0  0  0  0  0  0
  186.6890  177.5170  143.0260 C   0  0  0  0  0  3  0  0  0  0  0  0
  187.9000  178.4630  141.4450 O   0  0  0  0  0  0  0  0  0  0  0  0
  185.9210  178.4250  142.3310 C   0  0  0  0  0  0  0  0  0  0  0  0
  186.7050  178.9960  141.3520 C   0  0  0  0  0  3  0  0  0  0  0  0
  187.9320  177.5840  142.4230 C   0  0  0  0  0  3  0  0  0  0  0  0
  182.8650  179.0520  144.3580 O   0  0  0  0  0  1  0  0  0  0  0  0
  184.1370  178.5450  144.0850 C   0  0  2  0  0  3  0  0  0  0  0  0
  185.1610  179.2470  144.9640 C   0  0  0  0  0  2  0  0  0  0  0  0
  185.1760  178.6430  146.3550 C   0  0  0  0  0  3  0  0  0  0  0  0
  186.4450  177.8350  146.5310 C   0  0  0  0  0  2  0  0  0  0  0  0
  186.3390  179.2180  147.1350 C   0  0  0  0  0  2  0  0  0  0  0  0
  182.8540  176.1080  139.2740 C   0  0  0  0  0  2  0  0  0  0  0  0
  182.0240  175.3530  138.2490 C   0  0  0  0  0  2  0  0  0  0  0  0
  182.8540  174.2310  137.6610 C   0  0  0  0  0  2  0  0  0  0  0  0
  183.7340  174.7520  136.7130 O   0  0  0  0  0  0  0  0  0  0  0  0
  186.4550  172.7380  137.4520 C   0  0  0  0  0  2  0  0  0  0  0  0
  186.9160  173.9070  136.6150 C   0  0  0  0  0  2  0  0  0  0  0  0
  184.9520  172.8860  137.5480 C   0  0  0  0  0  2  0  0  0  0  0  0
  185.7850  174.1660  135.6450 C   0  0  0  0  0  2  0  0  0  0  0  0
  184.5170  173.6660  136.3190 C   0  0  0  0  0  3  0  0  0  0  0  0
  1 12  1  0  0  0  0
  3  7  1  0  0  0  0
  3 11  1  0  0  0  0
  4  2  1  0  0  0  0
  5 13  1  6  0  0  0
  5  1  1  0  0  0  0
  5  6  1  0  0  0  0
  6  8  1  0  0  0  0
  6  9  1  1  0  0  0
  7 12  1  0  0  0  0
  8  9  1  1  0  0  0
 10 32  1  1  0  0  0
 10  8  1  0  0  0  0
 10  4  1  0  0  0  0
 11  4  2  0  0  0  0
 14 17  1  0  0  0  0
 15 17  2  0  0  0  0
 16 15  1  0  0  0  0
 17 13  1  0  0  0  0
 18 14  2  0  0  0  0
 19 18  1  0  0  0  0
 19 16  2  0  0  0  0
 20  2  1  6  0  0  0
 20 27  1  0  0  0  0
 22 25  1  0  0  0  0
 23 20  1  0  0  0  0
 23 21  1  0  0  0  0
 24 22  1  0  0  0  0
 24 23  2  0  0  0  0
 25 21  2  0  0  0  0
 27 26  1  6  0  0  0
 27 28  1  0  0  0  0
 28 29  1  0  0  0  0
 29 30  1  0  0  0  0
 29 31  1  0  0  0  0
 30 31  1  0  0  0  0
 33 32  1  0  0  0  0
 34 33  1  0  0  0  0
 35 34  1  0  0  0  0
 36 38  1  0  0  0  0
 37 36  1  0  0  0  0
 39 40  1  0  0  0  0
 39 37  1  0  0  0  0
 40 35  1  0  0  0  0
 40 38  1  0  0  0  0
M  END
>  <MODEL>
7

>  <REMARK>
 VINA RESULT:      -6.4      4.401      9.975
  Name = 
  12 active torsions:
  status: ('A' for Active; 'I' for Inactive)
    1  A    between atoms: C_4  and  C_17
    2  A    between atoms: C_4  and  O_29
    3  A    between atoms: C_6  and  C_34
    4  A    between atoms: N_11  and  C_33
    5  A    between atoms: C_15  and  C_20
    6  A    between atoms: C_17  and  C_37
    7  A    between atoms: C_19  and  C_33
    8  A    between atoms: C_20  and  C_31
    9  A    between atoms: C_24  and  C_37
   10  A    between atoms: O_29  and  C_32
   11  A    between atoms: C_33  and  C_35
   12  A    between atoms: C_34  and  C_35
                            x       y       z     vdW  Elec       q    Type
                         _______ _______ _______ _____ _____    ______ ____

>  <TORSDO>
F 12

$$$$
=
 OpenBabel11062417593D

 40 45  0  0  1  0  0  0  0  0999 V2000
  191.6830  176.3550  143.6500 C   0  0  0  0  0  2  0  0  0  0  0  0
  186.8690  178.4950  143.6850 N   0  0  0  0  0  2  0  0  0  0  0  0
  188.9900  175.6050  142.6170 C   0  0  0  0  0  2  0  0  0  0  0  0
  187.8870  177.7310  143.0310 C   0  0  0  0  0  0  0  0  0  0  0  0
  191.4840  177.4500  142.6060 C   0  0  1  0  0  3  0  0  0  0  0  0
  191.2250  178.8370  143.2250 C   0  0  1  0  0  3  0  0  0  0  0  0
  189.8150  175.0170  143.5960 O   0  0  0  0  0  0  0  0  0  0  0  0
  189.8440  179.3770  142.9830 C   0  0  2  0  0  3  0  0  0  0  0  0
  190.2160  178.7830  144.2050 O   0  0  0  0  0  0  0  0  0  0  0  0
  188.9130  178.4440  142.1860 C   0  0  2  0  0  3  0  0  0  0  0  0
  187.9540  176.4440  143.2200 N   0  0  0  0  0  0  0  0  0  0  0  0
  190.4070  176.0340  144.2820 N   0  0  0  0  0  2  0  0  0  0  0  0
  192.6670  177.4960  141.6530 C   0  0  0  0  0  2  0  0  0  0  0  0
  190.8980  176.7870  140.0250 C   0  0  0  0  0  3  0  0  0  0  0  0
  193.1690  177.0860  139.2320 C   0  0  0  0  0  3  0  0  0  0  0  0
  192.7720  176.7010  137.9490 C   0  0  0  0  0  3  0  0  0  0  0  0
  192.2320  177.1360  140.2720 C   0  0  0  0  0  0  0  0  0  0  0  0
  190.5010  176.4030  138.7410 C   0  0  0  0  0  3  0  0  0  0  0  0
  191.4370  176.3610  137.7030 C   0  0  0  0  0  3  0  0  0  0  0  0
  185.8610  177.8980  144.5540 C   0  0  2  0  0  3  0  0  0  0  0  0
  183.4620  178.6020  145.0570 C   0  0  0  0  0  3  0  0  0  0  0  0
  182.7760  178.9820  142.9960 O   0  0  0  0  0  0  0  0  0  0  0  0
  184.4850  178.3480  144.1700 C   0  0  0  0  0  0  0  0  0  0  0  0
  184.0260  178.5970  142.8950 C   0  0  0  0  0  3  0  0  0  0  0  0
  182.4050  178.9990  144.2580 C   0  0  0  0  0  3  0  0  0  0  0  0
  185.6810  179.4540  146.3840 O   0  0  0  0  0  1  0  0  0  0  0  0
  186.1600  178.1910  146.0260 C   0  0  2  0  0  3  0  0  0  0  0  0
  187.6530  178.1190  146.3070 C   0  0  0  0  0  2  0  0  0  0  0  0
  187.9170  177.4020  147.6170 C   0  0  0  0  0  3  0  0  0  0  0  0
  189.3920  177.0720  147.7130 C   0  0  0  0  0  2  0  0  0  0  0  0
  188.8300  178.2510  148.4750 C   0  0  0  0  0  2  0  0  0  0  0  0
  188.3160  179.1210  140.9540 C   0  0  0  0  0  2  0  0  0  0  0  0
  187.6020  178.1370  140.0410 C   0  0  0  0  0  2  0  0  0  0  0  0
  186.1950  178.6290  139.7770 C   0  0  0  0  0  2  0  0  0  0  0  0
  186.0640  178.9630  138.4290 O   0  0  0  0  0  0  0  0  0  0  0  0
  187.2490  177.8560  135.3670 C   0  0  0  0  0  2  0  0  0  0  0  0
  185.8830  177.2620  135.6140 C   0  0  0  0  0  2  0  0  0  0  0  0
  187.5780  178.6320  136.6230 C   0  0  0  0  0  2  0  0  0  0  0  0
  185.8350  176.9940  137.1020 C   0  0  0  0  0  2  0  0  0  0  0  0
  186.7900  177.9840  137.7480 C   0  0  0  0  0  3  0  0  0  0  0  0
  1 12  1  0  0  0  0
  3 11  1  0  0  0  0
  3  7  1  0  0  0  0
  4 11  2  0  0  0  0
  4  2  1  0  0  0  0
  5 13  1  1  0  0  0
  5  6  1  0  0  0  0
  5  1  1  0  0  0  0
  6  9  1  1  0  0  0
  7 12  1  0  0  0  0
  8  6  1  0  0  0  0
  8  9  1  1  0  0  0
 10 32  1  6  0  0  0
 10  8  1  0  0  0  0
 10  4  1  0  0  0  0
 14 17  1  0  0  0  0
 15 17  2  0  0  0  0
 16 15  1  0  0  0  0
 17 13  1  0  0  0  0
 18 14  2  0  0  0  0
 19 16  2  0  0  0  0
 19 18  1  0  0  0  0
 20  2  1  6  0  0  0
 20 27  1  0  0  0  0
 22 25  1  0  0  0  0
 23 20  1  0  0  0  0
 23 21  1  0  0  0  0
 24 22  1  0  0  0  0
 24 23  2  0  0  0  0
 25 21  2  0  0  0  0
 27 28  1  0  0  0  0
 27 26  1  6  0  0  0
 28 29  1  0  0  0  0
 29 30  1  0  0  0  0
 29 31  1  0  0  0  0
 30 31  1  0  0  0  0
 33 32  1  0  0  0  0
 34 33  1  0  0  0  0
 35 34  1  0  0  0  0
 36 37  1  0  0  0  0
 36 38  1  0  0  0  0
 37 39  1  0  0  0  0
 38 40  1  0  0  0  0
 39 40  1  0  0  0  0
 40 35  1  0  0  0  0
M  END
>  <MODEL>
8

>  <REMARK>
 VINA RESULT:      -6.3      1.776      7.124
  Name = 
  12 active torsions:
  status: ('A' for Active; 'I' for Inactive)
    1  A    between atoms: C_4  and  C_17
    2  A    between atoms: C_4  and  O_29
    3  A    between atoms: C_6  and  C_34
    4  A    between atoms: N_11  and  C_33
    5  A    between atoms: C_15  and  C_20
    6  A    between atoms: C_17  and  C_37
    7  A    between atoms: C_19  and  C_33
    8  A    between atoms: C_20  and  C_31
    9  A    between atoms: C_24  and  C_37
   10  A    between atoms: O_29  and  C_32
   11  A    between atoms: C_33  and  C_35
   12  A    between atoms: C_34  and  C_35
                            x       y       z     vdW  Elec       q    Type
                         _______ _______ _______ _____ _____    ______ ____

>  <TORSDO>
F 12

$$$$
=
 OpenBabel11062417593D

 40 45  0  0  1  0  0  0  0  0999 V2000
  183.8120  173.7680  134.9020 C   0  0  0  0  0  2  0  0  0  0  0  0
  187.2800  176.9860  137.2230 N   0  0  0  0  0  2  0  0  0  0  0  0
  185.0400  174.0150  137.6070 C   0  0  0  0  0  2  0  0  0  0  0  0
  186.1010  176.1760  137.2790 C   0  0  0  0  0  0  0  0  0  0  0  0
  183.2200  175.1040  135.3430 C   0  0  1  0  0  3  0  0  0  0  0  0
  183.8220  176.3100  134.5970 C   0  0  1  0  0  3  0  0  0  0  0  0
  185.1330  173.0090  136.6230 O   0  0  0  0  0  0  0  0  0  0  0  0
  184.6420  177.2270  135.4590 C   0  0  2  0  0  3  0  0  0  0  0  0
  185.2290  176.2710  134.6080 O   0  0  0  0  0  0  0  0  0  0  0  0
  184.7680  176.7930  136.9310 C   0  0  2  0  0  3  0  0  0  0  0  0
  186.1960  174.9100  137.5680 N   0  0  0  0  0  0  0  0  0  0  0  0
  185.1730  173.6360  135.4150 N   0  0  0  0  0  2  0  0  0  0  0  0
  181.7060  175.0850  135.2060 C   0  0  0  0  0  2  0  0  0  0  0  0
  179.9000  176.1810  136.5540 C   0  0  0  0  0  3  0  0  0  0  0  0
  181.6590  174.9760  137.7090 C   0  0  0  0  0  3  0  0  0  0  0  0
  181.0860  175.3170  138.9370 C   0  0  0  0  0  3  0  0  0  0  0  0
  181.0650  175.4030  136.5140 C   0  0  0  0  0  0  0  0  0  0  0  0
  179.3270  176.5200  137.7840 C   0  0  0  0  0  3  0  0  0  0  0  0
  179.9190  176.0860  138.9740 C   0  0  0  0  0  3  0  0  0  0  0  0
  188.6140  176.4670  137.5010 C   0  0  2  0  0  3  0  0  0  0  0  0
  190.4210  176.8310  139.2630 C   0  0  0  0  0  3  0  0  0  0  0  0
  189.2400  177.9680  140.7380 O   0  0  0  0  0  0  0  0  0  0  0  0
  189.1300  176.9830  138.8090 C   0  0  0  0  0  0  0  0  0  0  0  0
  188.4200  177.6980  139.7500 C   0  0  0  0  0  3  0  0  0  0  0  0
  190.4320  177.4720  140.4890 C   0  0  0  0  0  3  0  0  0  0  0  0
  189.0620  177.7910  135.5400 O   0  0  0  0  0  1  0  0  0  0  0  0
  189.5780  176.7800  136.3530 C   0  0  2  0  0  3  0  0  0  0  0  0
  189.8460  175.5420  135.5110 C   0  0  0  0  0  2  0  0  0  0  0  0
  189.7790  174.2890  136.3630 C   0  0  0  0  0  3  0  0  0  0  0  0
  190.5780  173.1900  135.6930 C   0  0  0  0  0  2  0  0  0  0  0  0
  191.1680  173.9500  136.8600 C   0  0  0  0  0  2  0  0  0  0  0  0
  184.3370  177.8860  137.9060 C   0  0  0  0  0  2  0  0  0  0  0  0
  184.2730  177.3910  139.3420 C   0  0  0  0  0  2  0  0  0  0  0  0
  184.5680  178.5410  140.2820 C   0  0  0  0  0  2  0  0  0  0  0  0
  184.2160  178.1800  141.5830 O   0  0  0  0  0  0  0  0  0  0  0  0
  186.2060  178.0480  144.4160 C   0  0  0  0  0  2  0  0  0  0  0  0
  184.8410  178.5700  144.7930 C   0  0  0  0  0  2  0  0  0  0  0  0
  186.1660  177.8800  142.9130 C   0  0  0  0  0  2  0  0  0  0  0  0
  184.4040  179.4130  143.6160 C   0  0  0  0  0  2  0  0  0  0  0  0
  185.1240  178.8580  142.3980 C   0  0  0  0  0  3  0  0  0  0  0  0
  1  5  1  0  0  0  0
  1 12  1  0  0  0  0
  2  4  1  0  0  0  0
  4 11  2  0  0  0  0
  5 13  1  6  0  0  0
  6  9  1  6  0  0  0
  6  5  1  0  0  0  0
  6  8  1  0  0  0  0
  7  3  1  0  0  0  0
  8  9  1  6  0  0  0
  8 10  1  0  0  0  0
 10  4  1  0  0  0  0
 10 32  1  1  0  0  0
 11  3  1  0  0  0  0
 12  7  1  0  0  0  0
 13 17  1  0  0  0  0
 14 18  1  0  0  0  0
 15 16  2  0  0  0  0
 16 19  1  0  0  0  0
 17 14  2  0  0  0  0
 17 15  1  0  0  0  0
 18 19  2  0  0  0  0
 20  2  1  6  0  0  0
 20 23  1  0  0  0  0
 21 25  2  0  0  0  0
 23 21  1  0  0  0  0
 23 24  2  0  0  0  0
 24 22  1  0  0  0  0
 25 22  1  0  0  0  0
 27 26  1  6  0  0  0
 27 20  1  0  0  0  0
 28 27  1  0  0  0  0
 28 29  1  0  0  0  0
 29 31  1  0  0  0  0
 30 29  1  0  0  0  0
 30 31  1  0  0  0  0
 32 33  1  0  0  0  0
 33 34  1  0  0  0  0
 34 35  1  0  0  0  0
 35 40  1  0  0  0  0
 36 37  1  0  0  0  0
 38 36  1  0  0  0  0
 39 37  1  0  0  0  0
 40 38  1  0  0  0  0
 40 39  1  0  0  0  0
M  END
>  <MODEL>
9

>  <REMARK>
 VINA RESULT:      -5.8      3.955      8.042
  Name = 
  12 active torsions:
  status: ('A' for Active; 'I' for Inactive)
    1  A    between atoms: C_4  and  C_17
    2  A    between atoms: C_4  and  O_29
    3  A    between atoms: C_6  and  C_34
    4  A    between atoms: N_11  and  C_33
    5  A    between atoms: C_15  and  C_20
    6  A    between atoms: C_17  and  C_37
    7  A    between atoms: C_19  and  C_33
    8  A    between atoms: C_20  and  C_31
    9  A    between atoms: C_24  and  C_37
   10  A    between atoms: O_29  and  C_32
   11  A    between atoms: C_33  and  C_35
   12  A    between atoms: C_34  and  C_35
                            x       y       z     vdW  Elec       q    Type
                         _______ _______ _______ _____ _____    ______ ____

>  <TORSDO>
F 12

$$$$
