=
 OpenBabel11062417593D

 40 44  0  0  1  0  0  0  0  0999 V2000
  180.7100  177.8950  139.8750 C   0  0  1  0  0  3  0  0  0  0  0  0
  180.0140  176.0300  136.1350 C   0  0  0  0  0  0  0  0  0  0  0  0
  181.2080  176.7230  136.3500 C   0  0  0  0  0  3  0  0  0  0  0  0
  182.7650  177.9650  137.8940 C   0  0  1  0  0  3  0  0  0  0  0  0
  182.0750  178.9850  141.4670 C   0  0  2  0  0  3  0  0  0  0  0  0
  180.4580  177.2310  138.5920 C   0  0  0  0  0  0  0  0  0  0  0  0
  183.8370  179.8720  139.1860 O   0  0  0  0  0  0  0  0  0  0  0  0
  180.3070  177.4440  141.0120 N   0  0  0  0  0  2  0  0  0  0  0  0
  184.7260  178.9740  139.8020 C   0  0  0  0  0  2  0  0  0  0  0  0
  181.4270  177.3390  137.5830 C   0  0  0  0  0  0  0  0  0  0  0  0
  179.7800  175.3890  134.8860 N   0  0  0  0  0  1  0  0  0  0  0  0
  184.5700  179.0120  141.3070 C   0  0  2  0  0  3  0  0  0  0  0  0
  185.6890  178.4470  141.8880 F   0  0  0  0  0  0  0  0  0  0  0  0
  179.2880  176.5060  138.3470 C   0  0  0  0  0  3  0  0  0  0  0  0
  180.9230  178.1900  142.1090 C   0  0  2  0  0  3  0  0  0  0  0  0
  181.6580  179.0200  139.9970 C   0  0  1  0  0  3  0  0  0  0  0  0
  182.6180  179.2500  138.7950 C   0  0  2  0  0  0  0  0  0  0  0  0
  183.3560  178.1970  141.6960 C   0  0  0  0  0  2  0  0  0  0  0  0
  179.0930  175.9280  137.1320 N   0  0  0  0  0  0  0  0  0  0  0  0
  179.9030  179.1300  142.7490 C   0  0  1  0  0  3  0  0  0  0  0  0
  179.5760  178.6630  144.1550 C   0  0  0  0  0  1  0  0  0  0  0  0
  180.4140  180.4260  142.8050 O   0  0  0  0  0  1  0  0  0  0  0  0
  181.8870  180.2930  137.9400 C   0  0  0  0  0  2  0  0  0  0  0  0
  181.2430  181.3950  138.7710 C   0  0  0  0  0  1  0  0  0  0  0  0
  183.5870  176.9560  138.4730 O   0  0  0  0  0  0  0  0  0  0  0  0
  183.4240  173.5800  136.9150 C   0  0  0  0  0  2  0  0  0  0  0  0
  185.3760  175.7720  137.1640 C   0  0  2  0  0  3  0  0  0  0  0  0
  184.5440  173.7460  135.8970 C   0  0  0  0  0  2  0  0  0  0  0  0
  183.1240  174.8450  137.5830 N   0  0  0  0  0  0  0  0  0  0  0  0
  185.7440  174.3910  136.5820 C   0  0  2  0  0  3  0  0  0  0  0  0
  183.9760  175.8210  137.7540 C   0  0  0  0  0  0  0  0  0  0  0  0
  185.9370  178.0970  136.9020 O   0  0  0  0  0  1  0  0  0  0  0  0
  186.9010  176.6120  135.3480 C   0  0  0  0  0  1  0  0  0  0  0  0
  185.6730  176.9310  136.1830 C   0  0  0  0  0  0  0  0  0  0  0  0
  184.5020  177.1800  135.2460 C   0  0  0  0  0  1  0  0  0  0  0  0
  186.2350  173.5570  137.5930 O   0  0  0  0  0  0  0  0  0  0  0  0
  186.9580  172.5670  136.9260 C   0  0  0  0  0  2  0  0  0  0  0  0
  188.5720  173.0870  135.2530 O   0  0  0  0  0  0  0  0  0  0  0  0
  188.2660  173.1180  136.4730 C   0  0  0  0  0  0  0  0  0  0  0  0
  189.1640  173.6260  137.4000 O   0  0  0  0  0  1  0  0  0  0  0  0
  1  6  1  1  0  0  0
  1 16  1  0  0  0  0
  1  8  1  0  0  0  0
  2  3  2  0  0  0  0
  2 19  1  0  0  0  0
  3 10  1  0  0  0  0
  4 25  1  1  0  0  0
  4 17  1  0  0  0  0
  5 18  1  6  0  0  0
  5 15  1  0  0  0  0
  7  9  1  0  0  0  0
  8 15  1  0  0  0  0
  9 12  1  0  0  0  0
 10  4  1  0  0  0  0
 10  6  2  0  0  0  0
 11  2  1  0  0  0  0
 12 18  1  0  0  0  0
 12 13  1  1  0  0  0
 14  6  1  0  0  0  0
 15 20  1  6  0  0  0
 16  5  1  0  0  0  0
 17  7  1  0  0  0  0
 17 16  1  0  0  0  0
 19 14  2  0  0  0  0
 20 22  1  0  0  0  0
 20 21  1  0  0  0  0
 23 24  1  0  0  0  0
 23 17  1  0  0  0  0
 26 29  1  0  0  0  0
 27 31  1  0  0  0  0
 28 30  1  0  0  0  0
 28 26  1  0  0  0  0
 29 31  2  0  0  0  0
 30 27  1  0  0  0  0
 30 36  1  0  0  0  0
 31 25  1  0  0  0  0
 33 34  1  0  0  0  0
 34 32  1  0  0  0  0
 34 27  1  0  0  0  0
 35 34  1  0  0  0  0
 37 36  1  0  0  0  0
 38 39  2  0  0  0  0
 39 37  1  0  0  0  0
 39 40  1  0  0  0  0
M  END
>  <MODEL>
1

>  <REMARK>
 VINA RESULT:      -5.4      0.000      0.000
  Name = 
  8 active torsions:
  status: ('A' for Active; 'I' for Inactive)
    1  A    between atoms: C_1  and  C_29
    2  A    between atoms: C_7  and  C_27
    3  A    between atoms: C_8  and  O_25
    4  A    between atoms: C_10  and  C_34
    5  A    between atoms: C_15  and  C_31
    6  A    between atoms: C_15  and  O_38
    7  A    between atoms: O_25  and  C_39
    8  A    between atoms: C_35  and  O_38
                            x       y       z     vdW  Elec       q    Type
                         _______ _______ _______ _____ _____    ______ ____

>  <TORSDO>
F 8

$$$$
=
 OpenBabel11062417593D

 40 44  0  0  1  0  0  0  0  0999 V2000
  188.7820  177.6880  139.7010 C   0  0  1  0  0  3  0  0  0  0  0  0
  184.6700  178.7150  139.6600 C   0  0  0  0  0  0  0  0  0  0  0  0
  185.2980  178.3270  138.4730 C   0  0  0  0  0  3  0  0  0  0  0  0
  187.3190  177.4320  137.2620 C   0  0  1  0  0  3  0  0  0  0  0  0
  190.7400  176.7910  138.7310 C   0  0  2  0  0  3  0  0  0  0  0  0
  187.3560  178.0320  139.7090 C   0  0  0  0  0  0  0  0  0  0  0  0
  189.5390  177.3750  136.0270 O   0  0  0  0  0  0  0  0  0  0  0  0
  189.3870  177.1040  140.6750 N   0  0  0  0  0  2  0  0  0  0  0  0
  189.4920  175.9710  135.9800 C   0  0  0  0  0  2  0  0  0  0  0  0
  186.6530  177.9960  138.4950 C   0  0  0  0  0  0  0  0  0  0  0  0
  183.2870  179.0460  139.6570 N   0  0  0  0  0  1  0  0  0  0  0  0
  190.6960  175.3700  136.6740 C   0  0  2  0  0  3  0  0  0  0  0  0
  190.8330  174.0550  136.2760 F   0  0  0  0  0  0  0  0  0  0  0  0
  186.6860  178.4000  140.8790 C   0  0  0  0  0  3  0  0  0  0  0  0
  190.7260  176.6780  140.2670 C   0  0  2  0  0  3  0  0  0  0  0  0
  189.5960  177.7700  138.4720 C   0  0  1  0  0  3  0  0  0  0  0  0
  188.8160  177.9070  137.1330 C   0  0  2  0  0  0  0  0  0  0  0  0
  190.4680  175.4040  138.1700 C   0  0  0  0  0  2  0  0  0  0  0  0
  185.3680  178.7320  140.8290 N   0  0  0  0  0  0  0  0  0  0  0  0
  191.7830  177.5890  140.8900 C   0  0  1  0  0  3  0  0  0  0  0  0
  191.8820  177.3260  142.3810 C   0  0  0  0  0  1  0  0  0  0  0  0
  193.0250  177.3540  140.3020 O   0  0  0  0  0  1  0  0  0  0  0  0
  188.7690  179.4210  136.8940 C   0  0  0  0  0  2  0  0  0  0  0  0
  187.5270  179.8640  136.1340 C   0  0  0  0  0  1  0  0  0  0  0  0
  187.1730  176.0170  137.3040 O   0  0  0  0  0  0  0  0  0  0  0  0
  184.0520  175.5190  135.3370 C   0  0  0  0  0  2  0  0  0  0  0  0
  185.9470  173.8650  136.8710 C   0  0  2  0  0  3  0  0  0  0  0  0
  184.2040  174.0330  135.0450 C   0  0  0  0  0  2  0  0  0  0  0  0
  185.2550  176.0600  135.9690 N   0  0  0  0  0  0  0  0  0  0  0  0
  184.6130  173.3150  136.3270 C   0  0  2  0  0  3  0  0  0  0  0  0
  186.0930  175.3680  136.6940 C   0  0  0  0  0  0  0  0  0  0  0  0
  188.1660  173.0640  137.3480 O   0  0  0  0  0  1  0  0  0  0  0  0
  186.7830  171.6190  136.1050 C   0  0  0  0  0  1  0  0  0  0  0  0
  187.1720  173.0640  136.3700 C   0  0  0  0  0  0  0  0  0  0  0  0
  187.7370  173.6560  135.0880 C   0  0  0  0  0  1  0  0  0  0  0  0
  183.6100  173.4380  137.2960 O   0  0  0  0  0  0  0  0  0  0  0  0
  182.6850  172.4390  136.9880 C   0  0  0  0  0  2  0  0  0  0  0  0
  180.4780  172.3030  137.8740 O   0  0  0  0  0  1  0  0  0  0  0  0
  181.3020  172.9570  137.1830 C   0  0  0  0  0  0  0  0  0  0  0  0
  180.9090  174.1370  136.5690 O   0  0  0  0  0  0  0  0  0  0  0  0
  1  6  1  6  0  0  0
  1  8  1  0  0  0  0
  2 19  1  0  0  0  0
  3 10  1  0  0  0  0
  3  2  2  0  0  0  0
  4 25  1  1  0  0  0
  4 10  1  0  0  0  0
  5 18  1  6  0  0  0
  5 15  1  0  0  0  0
  6 14  1  0  0  0  0
  7 17  1  0  0  0  0
  9  7  1  0  0  0  0
  9 12  1  0  0  0  0
 10  6  2  0  0  0  0
 11  2  1  0  0  0  0
 12 13  1  6  0  0  0
 12 18  1  0  0  0  0
 15  8  1  0  0  0  0
 15 20  1  1  0  0  0
 16  5  1  0  0  0  0
 16  1  1  0  0  0  0
 17  4  1  0  0  0  0
 17 16  1  0  0  0  0
 19 14  2  0  0  0  0
 20 21  1  0  0  0  0
 22 20  1  0  0  0  0
 23 17  1  0  0  0  0
 24 23  1  0  0  0  0
 26 29  1  0  0  0  0
 28 26  1  0  0  0  0
 28 30  1  0  0  0  0
 29 31  2  0  0  0  0
 30 27  1  0  0  0  0
 30 36  1  0  0  0  0
 31 27  1  0  0  0  0
 31 25  1  0  0  0  0
 33 34  1  0  0  0  0
 34 27  1  0  0  0  0
 34 32  1  0  0  0  0
 35 34  1  0  0  0  0
 37 39  1  0  0  0  0
 37 36  1  0  0  0  0
 39 38  1  0  0  0  0
 40 39  2  0  0  0  0
M  END
>  <MODEL>
2

>  <REMARK>
 VINA RESULT:      -5.4      3.901      7.130
  Name = 
  8 active torsions:
  status: ('A' for Active; 'I' for Inactive)
    1  A    between atoms: C_1  and  C_29
    2  A    between atoms: C_7  and  C_27
    3  A    between atoms: C_8  and  O_25
    4  A    between atoms: C_10  and  C_34
    5  A    between atoms: C_15  and  C_31
    6  A    between atoms: C_15  and  O_38
    7  A    between atoms: O_25  and  C_39
    8  A    between atoms: C_35  and  O_38
                            x       y       z     vdW  Elec       q    Type
                         _______ _______ _______ _____ _____    ______ ____

>  <TORSDO>
F 8

$$$$
=
 OpenBabel11062417593D

 40 44  0  0  1  0  0  0  0  0999 V2000
  188.0220  177.7340  139.2570 C   0  0  1  0  0  3  0  0  0  0  0  0
  184.0940  179.2400  139.7720 C   0  0  0  0  0  0  0  0  0  0  0  0
  184.4960  178.7690  138.5190 C   0  0  0  0  0  3  0  0  0  0  0  0
  186.2040  177.6300  137.0580 C   0  0  1  0  0  3  0  0  0  0  0  0
  189.7040  176.6010  138.0450 C   0  0  2  0  0  3  0  0  0  0  0  0
  186.6620  178.2450  139.4580 C   0  0  0  0  0  0  0  0  0  0  0  0
  188.2020  177.2980  135.5240 O   0  0  0  0  0  0  0  0  0  0  0  0
  188.6890  177.0910  140.1520 N   0  0  0  0  0  2  0  0  0  0  0  0
  187.9870  175.9090  135.5210 C   0  0  0  0  0  2  0  0  0  0  0  0
  185.7920  178.2800  138.3570 C   0  0  0  0  0  0  0  0  0  0  0  0
  182.7720  179.7330  139.9550 N   0  0  0  0  0  1  0  0  0  0  0  0
  189.2000  175.1760  136.0530 C   0  0  2  0  0  3  0  0  0  0  0  0
  189.1250  173.8500  135.6750 F   0  0  0  0  0  0  0  0  0  0  0  0
  186.2140  178.7000  140.7020 C   0  0  0  0  0  3  0  0  0  0  0  0
  189.8970  176.5060  139.5700 C   0  0  2  0  0  3  0  0  0  0  0  0
  188.6550  177.7060  137.9240 C   0  0  1  0  0  3  0  0  0  0  0  0
  187.7120  177.9220  136.7060 C   0  0  2  0  0  0  0  0  0  0  0  0
  189.1950  175.2510  137.5650 C   0  0  0  0  0  2  0  0  0  0  0  0
  184.9500  179.1850  140.8290 N   0  0  0  0  0  0  0  0  0  0  0  0
  191.1310  177.2910  140.0130 C   0  0  1  0  0  3  0  0  0  0  0  0
  191.3260  177.1510  141.5110 C   0  0  0  0  0  1  0  0  0  0  0  0
  192.2640  176.8120  139.3580 O   0  0  0  0  0  1  0  0  0  0  0  0
  187.8070  179.4290  136.4360 C   0  0  0  0  0  2  0  0  0  0  0  0
  188.9530  180.0950  137.1850 C   0  0  0  0  0  1  0  0  0  0  0  0
  185.9030  176.2420  137.1580 O   0  0  0  0  0  0  0  0  0  0  0  0
  182.5630  176.0120  135.5320 C   0  0  0  0  0  2  0  0  0  0  0  0
  184.2170  174.3870  137.3480 C   0  0  2  0  0  3  0  0  0  0  0  0
  182.3700  174.5050  135.6240 C   0  0  0  0  0  2  0  0  0  0  0  0
  183.9100  176.3990  135.9470 N   0  0  0  0  0  0  0  0  0  0  0  0
  182.7490  174.0420  137.0260 C   0  0  2  0  0  3  0  0  0  0  0  0
  184.6550  175.7300  136.7860 C   0  0  0  0  0  0  0  0  0  0  0  0
  186.2340  173.2130  137.9370 O   0  0  0  0  0  1  0  0  0  0  0  0
  184.4700  171.8960  137.0990 C   0  0  0  0  0  1  0  0  0  0  0  0
  185.1890  173.2310  137.0130 C   0  0  0  0  0  0  0  0  0  0  0  0
  185.7670  173.3800  135.6140 C   0  0  0  0  0  1  0  0  0  0  0  0
  181.8980  174.6190  137.9770 O   0  0  0  0  0  0  0  0  0  0  0  0
  180.6930  173.9250  137.8530 C   0  0  0  0  0  2  0  0  0  0  0  0
  179.0690  175.4360  138.7200 O   0  0  0  0  0  0  0  0  0  0  0  0
  179.7380  174.3850  138.8980 C   0  0  0  0  0  0  0  0  0  0  0  0
  179.6150  173.6800  140.0870 O   0  0  0  0  0  1  0  0  0  0  0  0
  1  6  1  6  0  0  0
  1  8  1  0  0  0  0
  2 11  1  0  0  0  0
  2 19  1  0  0  0  0
  3  2  2  0  0  0  0
  4 25  1  1  0  0  0
  4 10  1  0  0  0  0
  5 18  1  1  0  0  0
  5 15  1  0  0  0  0
  6 14  1  0  0  0  0
  7 17  1  0  0  0  0
  9  7  1  0  0  0  0
  9 12  1  0  0  0  0
 10  3  1  0  0  0  0
 10  6  2  0  0  0  0
 12 13  1  1  0  0  0
 12 18  1  0  0  0  0
 14 19  2  0  0  0  0
 15 20  1  1  0  0  0
 15  8  1  0  0  0  0
 16  5  1  0  0  0  0
 16  1  1  0  0  0  0
 17  4  1  0  0  0  0
 17 16  1  0  0  0  0
 20 21  1  0  0  0  0
 22 20  1  0  0  0  0
 23 17  1  0  0  0  0
 23 24  1  0  0  0  0
 26 28  1  0  0  0  0
 26 29  1  0  0  0  0
 28 30  1  0  0  0  0
 29 31  2  0  0  0  0
 30 27  1  0  0  0  0
 30 36  1  0  0  0  0
 31 25  1  0  0  0  0
 31 27  1  0  0  0  0
 34 33  1  0  0  0  0
 34 27  1  0  0  0  0
 34 32  1  0  0  0  0
 35 34  1  0  0  0  0
 37 36  1  0  0  0  0
 37 39  1  0  0  0  0
 38 39  2  0  0  0  0
 39 40  1  0  0  0  0
M  END
>  <MODEL>
3

>  <REMARK>
 VINA RESULT:      -5.3      3.516      7.039
  Name = 
  8 active torsions:
  status: ('A' for Active; 'I' for Inactive)
    1  A    between atoms: C_1  and  C_29
    2  A    between atoms: C_7  and  C_27
    3  A    between atoms: C_8  and  O_25
    4  A    between atoms: C_10  and  C_34
    5  A    between atoms: C_15  and  C_31
    6  A    between atoms: C_15  and  O_38
    7  A    between atoms: O_25  and  C_39
    8  A    between atoms: C_35  and  O_38
                            x       y       z     vdW  Elec       q    Type
                         _______ _______ _______ _____ _____    ______ ____

>  <TORSDO>
F 8

$$$$
=
 OpenBabel11062417593D

 40 44  0  0  1  0  0  0  0  0999 V2000
  182.4770  176.5930  138.6700 C   0  0  1  0  0  3  0  0  0  0  0  0
  186.4300  177.5320  137.4660 C   0  0  0  0  0  0  0  0  0  0  0  0
  185.7300  178.4170  138.2910 C   0  0  0  0  0  3  0  0  0  0  0  0
  183.7030  178.9640  139.6850 C   0  0  1  0  0  3  0  0  0  0  0  0
  180.5370  176.9220  139.9770 C   0  0  2  0  0  3  0  0  0  0  0  0
  183.8520  176.8940  138.2560 C   0  0  0  0  0  0  0  0  0  0  0  0
  181.3880  179.7950  140.3200 O   0  0  0  0  0  0  0  0  0  0  0  0
  182.0400  175.4050  138.9060 N   0  0  0  0  0  2  0  0  0  0  0  0
  181.5790  179.3590  141.6430 C   0  0  0  0  0  2  0  0  0  0  0  0
  184.4270  178.1020  138.6780 C   0  0  0  0  0  0  0  0  0  0  0  0
  187.7630  177.8340  137.0700 N   0  0  0  0  0  1  0  0  0  0  0  0
  180.5220  178.3460  142.0320 C   0  0  2  0  0  3  0  0  0  0  0  0
  180.4870  178.2420  143.4090 F   0  0  0  0  0  0  0  0  0  0  0  0
  184.5950  176.0230  137.4530 C   0  0  0  0  0  3  0  0  0  0  0  0
  180.7200  175.4580  139.5330 C   0  0  2  0  0  3  0  0  0  0  0  0
  181.5380  177.6540  139.0840 C   0  0  1  0  0  3  0  0  0  0  0  0
  182.1590  179.0490  139.3840 C   0  0  2  0  0  0  0  0  0  0  0  0
  180.8960  176.9990  141.4530 C   0  0  0  0  0  2  0  0  0  0  0  0
  185.8570  176.3600  137.0780 N   0  0  0  0  0  0  0  0  0  0  0  0
  179.6410  175.0550  138.5300 C   0  0  1  0  0  3  0  0  0  0  0  0
  180.2740  174.7080  137.1960 C   0  0  0  0  0  1  0  0  0  0  0  0
  178.9360  173.9480  139.0020 O   0  0  0  0  0  1  0  0  0  0  0  0
  182.0200  179.8010  138.0550 C   0  0  0  0  0  2  0  0  0  0  0  0
  181.0320  180.9570  138.1270 C   0  0  0  0  0  1  0  0  0  0  0  0
  184.0030  178.4530  140.9800 O   0  0  0  0  0  0  0  0  0  0  0  0
  187.6790  178.9980  141.1750 C   0  0  0  0  0  2  0  0  0  0  0  0
  185.5420  177.9280  142.8970 C   0  0  2  0  0  3  0  0  0  0  0  0
  187.8290  178.9890  142.6900 C   0  0  0  0  0  2  0  0  0  0  0  0
  186.2710  178.9800  140.7820 N   0  0  0  0  0  0  0  0  0  0  0  0
  187.0370  177.8170  143.2590 C   0  0  2  0  0  3  0  0  0  0  0  0
  185.3020  178.4730  141.4980 C   0  0  0  0  0  0  0  0  0  0  0  0
  183.4180  178.1340  144.0100 O   0  0  0  0  0  1  0  0  0  0  0  0
  185.3310  178.4110  145.3570 C   0  0  0  0  0  1  0  0  0  0  0  0
  184.7150  178.6480  143.9880 C   0  0  0  0  0  0  0  0  0  0  0  0
  184.6510  180.1460  143.7390 C   0  0  0  0  0  1  0  0  0  0  0  0
  187.5570  176.6040  142.7930 O   0  0  0  0  0  0  0  0  0  0  0  0
  188.6650  176.3500  143.6040 C   0  0  0  0  0  2  0  0  0  0  0  0
  189.8920  176.3840  141.5630 O   0  0  0  0  0  0  0  0  0  0  0  0
  189.8370  175.9940  142.7580 C   0  0  0  0  0  0  0  0  0  0  0  0
  190.8500  175.1980  143.2730 O   0  0  0  0  0  1  0  0  0  0  0  0
  1  6  1  1  0  0  0
  1  8  1  0  0  0  0
  1 16  1  0  0  0  0
  2  3  1  0  0  0  0
  3 10  2  0  0  0  0
  4 25  1  1  0  0  0
  5 18  1  1  0  0  0
  6 10  1  0  0  0  0
  7  9  1  0  0  0  0
  8 15  1  0  0  0  0
  9 12  1  0  0  0  0
 10  4  1  0  0  0  0
 11  2  1  0  0  0  0
 12 13  1  1  0  0  0
 14  6  2  0  0  0  0
 15 20  1  6  0  0  0
 15  5  1  0  0  0  0
 16 17  1  0  0  0  0
 16  5  1  0  0  0  0
 17  4  1  0  0  0  0
 17  7  1  0  0  0  0
 18 12  1  0  0  0  0
 19 14  1  0  0  0  0
 19  2  2  0  0  0  0
 20 22  1  0  0  0  0
 21 20  1  0  0  0  0
 23 24  1  0  0  0  0
 23 17  1  0  0  0  0
 25 31  1  0  0  0  0
 26 28  1  0  0  0  0
 27 30  1  0  0  0  0
 27 34  1  0  0  0  0
 28 30  1  0  0  0  0
 29 26  1  0  0  0  0
 29 31  2  0  0  0  0
 31 27  1  0  0  0  0
 34 32  1  0  0  0  0
 34 33  1  0  0  0  0
 35 34  1  0  0  0  0
 36 30  1  0  0  0  0
 36 37  1  0  0  0  0
 38 39  2  0  0  0  0
 39 40  1  0  0  0  0
 39 37  1  0  0  0  0
M  END
>  <MODEL>
4

>  <REMARK>
 VINA RESULT:      -5.3      3.310      5.900
  Name = 
  8 active torsions:
  status: ('A' for Active; 'I' for Inactive)
    1  A    between atoms: C_1  and  C_29
    2  A    between atoms: C_7  and  C_27
    3  A    between atoms: C_8  and  O_25
    4  A    between atoms: C_10  and  C_34
    5  A    between atoms: C_15  and  C_31
    6  A    between atoms: C_15  and  O_38
    7  A    between atoms: O_25  and  C_39
    8  A    between atoms: C_35  and  O_38
                            x       y       z     vdW  Elec       q    Type
                         _______ _______ _______ _____ _____    ______ ____

>  <TORSDO>
F 8

$$$$
=
 OpenBabel11062417593D

 40 44  0  0  1  0  0  0  0  0999 V2000
  189.5510  176.9520  139.0010 C   0  0  1  0  0  3  0  0  0  0  0  0
  186.3700  178.7880  141.1140 C   0  0  0  0  0  0  0  0  0  0  0  0
  186.2610  178.5910  139.7350 C   0  0  0  0  0  3  0  0  0  0  0  0
  187.1650  177.6320  137.5870 C   0  0  1  0  0  3  0  0  0  0  0  0
  190.5080  175.9410  137.0920 C   0  0  2  0  0  3  0  0  0  0  0  0
  188.4540  177.5720  139.7520 C   0  0  0  0  0  0  0  0  0  0  0  0
  188.4820  177.4270  135.4240 O   0  0  0  0  0  0  0  0  0  0  0  0
  190.3130  176.0270  139.4720 N   0  0  0  0  0  2  0  0  0  0  0  0
  187.9950  176.1220  135.2350 C   0  0  0  0  0  2  0  0  0  0  0  0
  187.3150  177.9910  139.0470 C   0  0  0  0  0  0  0  0  0  0  0  0
  185.2990  179.3910  141.8330 N   0  0  0  0  0  1  0  0  0  0  0  0
  189.1350  175.1280  135.1670 C   0  0  2  0  0  3  0  0  0  0  0  0
  188.6760  173.9570  134.5960 F   0  0  0  0  0  0  0  0  0  0  0  0
  188.5130  177.7620  141.1360 C   0  0  0  0  0  3  0  0  0  0  0  0
  191.1360  175.4490  138.4100 C   0  0  2  0  0  3  0  0  0  0  0  0
  189.7240  177.1700  137.5520 C   0  0  1  0  0  3  0  0  0  0  0  0
  188.5180  177.8010  136.7980 C   0  0  2  0  0  0  0  0  0  0  0  0
  189.6100  174.8290  136.5730 C   0  0  0  0  0  2  0  0  0  0  0  0
  187.4780  178.3630  141.7800 N   0  0  0  0  0  0  0  0  0  0  0  0
  192.5800  175.9310  138.5380 C   0  0  1  0  0  3  0  0  0  0  0  0
  193.1200  176.3270  137.1770 C   0  0  0  0  0  1  0  0  0  0  0  0
  192.6440  177.0320  139.3920 O   0  0  0  0  0  1  0  0  0  0  0  0
  188.8340  179.3020  136.8000 C   0  0  0  0  0  2  0  0  0  0  0  0
  187.6200  180.1640  136.4870 C   0  0  0  0  0  1  0  0  0  0  0  0
  186.6300  176.3140  137.5230 O   0  0  0  0  0  0  0  0  0  0  0  0
  183.1780  176.9000  136.2600 C   0  0  0  0  0  2  0  0  0  0  0  0
  184.6670  174.7460  137.6090 C   0  0  2  0  0  3  0  0  0  0  0  0
  182.7330  175.4490  136.1390 C   0  0  0  0  0  2  0  0  0  0  0  0
  184.6020  176.9910  136.5780 N   0  0  0  0  0  0  0  0  0  0  0  0
  183.1390  174.6990  137.4030 C   0  0  2  0  0  3  0  0  0  0  0  0
  185.2850  176.0780  137.2160 C   0  0  0  0  0  0  0  0  0  0  0  0
  186.6310  173.3550  137.6080 O   0  0  0  0  0  1  0  0  0  0  0  0
  184.5810  172.2610  137.2280 C   0  0  0  0  0  1  0  0  0  0  0  0
  185.3900  173.5250  136.9940 C   0  0  0  0  0  0  0  0  0  0  0  0
  185.5970  173.6970  135.4980 C   0  0  0  0  0  1  0  0  0  0  0  0
  182.4850  175.2330  138.5190 O   0  0  0  0  0  0  0  0  0  0  0  0
  181.1780  174.7480  138.4390 C   0  0  0  0  0  2  0  0  0  0  0  0
  180.2760  176.6600  139.5360 O   0  0  0  0  0  0  0  0  0  0  0  0
  180.3330  175.4050  139.4750 C   0  0  0  0  0  0  0  0  0  0  0  0
  179.6430  174.6340  140.3990 O   0  0  0  0  0  1  0  0  0  0  0  0
  1  8  1  6  0  0  0
  1  6  1  0  0  0  0
  2 19  1  0  0  0  0
  2 11  1  0  0  0  0
  3  2  2  0  0  0  0
  4 25  1  1  0  0  0
  4 10  1  0  0  0  0
  5 18  1  1  0  0  0
  5 16  1  0  0  0  0
  5 15  1  0  0  0  0
  6 14  1  0  0  0  0
  7 17  1  0  0  0  0
  9  7  1  0  0  0  0
 10  3  1  0  0  0  0
 10  6  2  0  0  0  0
 12 13  1  1  0  0  0
 12  9  1  0  0  0  0
 12 18  1  0  0  0  0
 14 19  2  0  0  0  0
 15 20  1  1  0  0  0
 15  8  1  0  0  0  0
 16  1  1  0  0  0  0
 17 23  1  0  0  0  0
 17 16  1  0  0  0  0
 17  4  1  0  0  0  0
 20 22  1  0  0  0  0
 21 20  1  0  0  0  0
 24 23  1  0  0  0  0
 26 29  1  0  0  0  0
 28 26  1  0  0  0  0
 28 30  1  0  0  0  0
 29 31  2  0  0  0  0
 30 27  1  0  0  0  0
 30 36  1  0  0  0  0
 31 25  1  0  0  0  0
 31 27  1  0  0  0  0
 34 33  1  0  0  0  0
 34 32  1  0  0  0  0
 34 27  1  0  0  0  0
 35 34  1  0  0  0  0
 37 36  1  0  0  0  0
 37 39  1  0  0  0  0
 39 38  2  0  0  0  0
 39 40  1  0  0  0  0
M  END
>  <MODEL>
5

>  <REMARK>
 VINA RESULT:      -5.2      3.744      7.935
  Name = 
  8 active torsions:
  status: ('A' for Active; 'I' for Inactive)
    1  A    between atoms: C_1  and  C_29
    2  A    between atoms: C_7  and  C_27
    3  A    between atoms: C_8  and  O_25
    4  A    between atoms: C_10  and  C_34
    5  A    between atoms: C_15  and  C_31
    6  A    between atoms: C_15  and  O_38
    7  A    between atoms: O_25  and  C_39
    8  A    between atoms: C_35  and  O_38
                            x       y       z     vdW  Elec       q    Type
                         _______ _______ _______ _____ _____    ______ ____

>  <TORSDO>
F 8

$$$$
=
 OpenBabel11062417593D

 40 44  0  0  1  0  0  0  0  0999 V2000
  186.9090  175.7680  137.2130 C   0  0  1  0  0  3  0  0  0  0  0  0
  190.9770  176.1600  138.3300 C   0  0  0  0  0  0  0  0  0  0  0  0
  190.0840  177.2010  138.5970 C   0  0  0  0  0  3  0  0  0  0  0  0
  187.7330  178.1080  138.6270 C   0  0  1  0  0  3  0  0  0  0  0  0
  184.6440  176.4410  137.2280 C   0  0  2  0  0  3  0  0  0  0  0  0
  188.3170  175.8800  137.6060 C   0  0  0  0  0  0  0  0  0  0  0  0
  185.5910  179.2350  137.8530 O   0  0  0  0  0  0  0  0  0  0  0  0
  186.2430  174.6660  137.2230 N   0  0  0  0  0  2  0  0  0  0  0  0
  184.9760  178.9410  139.0820 C   0  0  0  0  0  2  0  0  0  0  0  0
  188.7470  177.0660  138.2200 C   0  0  0  0  0  0  0  0  0  0  0  0
  192.3420  176.2780  138.7160 N   0  0  0  0  0  1  0  0  0  0  0  0
  183.7400  178.0920  138.8740 C   0  0  2  0  0  3  0  0  0  0  0  0
  182.9560  178.1550  140.0090 F   0  0  0  0  0  0  0  0  0  0  0  0
  189.2360  174.8500  137.3810 C   0  0  0  0  0  3  0  0  0  0  0  0
  184.8180  174.9240  137.0220 C   0  0  2  0  0  3  0  0  0  0  0  0
  186.0630  176.9590  136.9980 C   0  0  1  0  0  3  0  0  0  0  0  0
  186.6240  178.3100  137.5260 C   0  0  2  0  0  0  0  0  0  0  0  0
  184.1620  176.6550  138.6540 C   0  0  0  0  0  2  0  0  0  0  0  0
  190.5360  175.0130  137.7440 N   0  0  0  0  0  0  0  0  0  0  0  0
  184.4000  174.5150  135.6100 C   0  0  1  0  0  3  0  0  0  0  0  0
  184.6630  173.0360  135.3980 C   0  0  0  0  0  1  0  0  0  0  0  0
  183.0420  174.7690  135.4190 O   0  0  0  0  0  1  0  0  0  0  0  0
  187.3330  178.9110  136.3060 C   0  0  0  0  0  2  0  0  0  0  0  0
  186.9220  178.2530  134.9970 C   0  0  0  0  0  1  0  0  0  0  0  0
  187.2110  177.7260  139.8960 O   0  0  0  0  0  0  0  0  0  0  0  0
  190.0090  178.6460  142.1710 C   0  0  0  0  0  2  0  0  0  0  0  0
  187.3050  177.4990  142.3970 C   0  0  2  0  0  3  0  0  0  0  0  0
  189.2170  178.7640  143.4660 C   0  0  0  0  0  2  0  0  0  0  0  0
  189.1220  178.4590  141.0250 N   0  0  0  0  0  0  0  0  0  0  0  0
  188.2840  177.5640  143.5880 C   0  0  2  0  0  3  0  0  0  0  0  0
  187.9360  177.9130  141.0780 C   0  0  0  0  0  0  0  0  0  0  0  0
  184.9170  177.5030  142.0980 O   0  0  0  0  0  1  0  0  0  0  0  0
  185.7060  178.2570  144.1860 C   0  0  0  0  0  1  0  0  0  0  0  0
  185.9640  178.2120  142.6890 C   0  0  0  0  0  0  0  0  0  0  0  0
  185.9620  179.6350  142.1550 C   0  0  0  0  0  1  0  0  0  0  0  0
  189.0230  176.3780  143.6700 O   0  0  0  0  0  0  0  0  0  0  0  0
  189.6120  176.4050  144.9350 C   0  0  0  0  0  2  0  0  0  0  0  0
  191.8200  176.8030  145.7340 O   0  0  0  0  0  1  0  0  0  0  0  0
  191.0950  176.3710  144.8020 C   0  0  0  0  0  0  0  0  0  0  0  0
  191.6760  175.9010  143.6330 O   0  0  0  0  0  0  0  0  0  0  0  0
  1  8  1  1  0  0  0
  1  6  1  0  0  0  0
  2  3  1  0  0  0  0
  2 11  1  0  0  0  0
  4 25  1  1  0  0  0
  5 18  1  1  0  0  0
  6 10  1  0  0  0  0
  7  9  1  0  0  0  0
 10  3  2  0  0  0  0
 10  4  1  0  0  0  0
 12  9  1  0  0  0  0
 12 13  1  1  0  0  0
 14  6  2  0  0  0  0
 14 19  1  0  0  0  0
 15 20  1  6  0  0  0
 15  8  1  0  0  0  0
 15  5  1  0  0  0  0
 16  1  1  0  0  0  0
 16  5  1  0  0  0  0
 16 17  1  0  0  0  0
 17  7  1  0  0  0  0
 17  4  1  0  0  0  0
 18 12  1  0  0  0  0
 19  2  2  0  0  0  0
 21 20  1  0  0  0  0
 22 20  1  0  0  0  0
 23 17  1  0  0  0  0
 24 23  1  0  0  0  0
 25 31  1  0  0  0  0
 26 28  1  0  0  0  0
 27 34  1  0  0  0  0
 27 30  1  0  0  0  0
 28 30  1  0  0  0  0
 29 31  2  0  0  0  0
 29 26  1  0  0  0  0
 30 36  1  0  0  0  0
 31 27  1  0  0  0  0
 32 34  1  0  0  0  0
 34 33  1  0  0  0  0
 35 34  1  0  0  0  0
 36 37  1  0  0  0  0
 39 37  1  0  0  0  0
 39 38  1  0  0  0  0
 40 39  2  0  0  0  0
M  END
>  <MODEL>
6

>  <REMARK>
 VINA RESULT:      -5.2      4.413      7.874
  Name = 
  8 active torsions:
  status: ('A' for Active; 'I' for Inactive)
    1  A    between atoms: C_1  and  C_29
    2  A    between atoms: C_7  and  C_27
    3  A    between atoms: C_8  and  O_25
    4  A    between atoms: C_10  and  C_34
    5  A    between atoms: C_15  and  C_31
    6  A    between atoms: C_15  and  O_38
    7  A    between atoms: O_25  and  C_39
    8  A    between atoms: C_35  and  O_38
                            x       y       z     vdW  Elec       q    Type
                         _______ _______ _______ _____ _____    ______ ____

>  <TORSDO>
F 8

$$$$
=
 OpenBabel11062417593D

 40 44  0  0  1  0  0  0  0  0999 V2000
  182.4640  175.3980  138.1570 C   0  0  1  0  0  3  0  0  0  0  0  0
  186.1370  174.2870  136.3590 C   0  0  0  0  0  0  0  0  0  0  0  0
  185.6730  175.5990  136.2300 C   0  0  0  0  0  3  0  0  0  0  0  0
  184.0080  177.3960  136.8230 C   0  0  1  0  0  3  0  0  0  0  0  0
  180.8540  176.9770  138.8610 C   0  0  2  0  0  3  0  0  0  0  0  0
  183.7410  174.9990  137.5550 C   0  0  0  0  0  0  0  0  0  0  0  0
  181.9240  178.8460  136.7490 O   0  0  0  0  0  0  0  0  0  0  0  0
  182.0160  174.9300  139.2700 N   0  0  0  0  0  2  0  0  0  0  0  0
  182.3540  179.5460  137.8900 C   0  0  0  0  0  2  0  0  0  0  0  0
  184.4600  175.9540  136.8200 C   0  0  0  0  0  0  0  0  0  0  0  0
  187.3770  173.9110  135.7710 N   0  0  0  0  0  1  0  0  0  0  0  0
  181.3420  179.4250  139.0090 C   0  0  2  0  0  3  0  0  0  0  0  0
  181.5810  180.4160  139.9400 F   0  0  0  0  0  0  0  0  0  0  0  0
  184.2520  173.7040  137.6840 C   0  0  0  0  0  3  0  0  0  0  0  0
  180.8560  175.6990  139.7210 C   0  0  2  0  0  3  0  0  0  0  0  0
  181.6940  176.5530  137.6570 C   0  0  1  0  0  3  0  0  0  0  0  0
  182.4430  177.5210  136.6970 C   0  0  2  0  0  0  0  0  0  0  0  0
  181.5100  178.0780  139.6790 C   0  0  0  0  0  2  0  0  0  0  0  0
  185.4290  173.3800  137.0860 N   0  0  0  0  0  0  0  0  0  0  0  0
  179.5740  174.8970  139.5080 C   0  0  1  0  0  3  0  0  0  0  0  0
  179.8980  173.5550  138.8790 C   0  0  0  0  0  1  0  0  0  0  0  0
  178.9310  174.6870  140.7280 O   0  0  0  0  0  1  0  0  0  0  0  0
  182.0800  177.0000  135.3000 C   0  0  0  0  0  2  0  0  0  0  0  0
  180.6490  176.4910  135.2100 C   0  0  0  0  0  1  0  0  0  0  0  0
  184.5350  178.0080  137.9960 O   0  0  0  0  0  0  0  0  0  0  0  0
  188.0760  178.8670  137.2380 C   0  0  0  0  0  2  0  0  0  0  0  0
  186.5260  177.8340  139.5200 C   0  0  2  0  0  3  0  0  0  0  0  0
  188.5760  179.0450  138.6650 C   0  0  0  0  0  2  0  0  0  0  0  0
  186.6260  178.6900  137.2030 N   0  0  0  0  0  0  0  0  0  0  0  0
  188.0680  177.8860  139.5160 C   0  0  2  0  0  3  0  0  0  0  0  0
  185.9100  178.1920  138.1770 C   0  0  0  0  0  0  0  0  0  0  0  0
  185.3990  179.8270  140.2620 O   0  0  0  0  0  1  0  0  0  0  0  0
  184.7520  177.8160  141.3040 C   0  0  0  0  0  1  0  0  0  0  0  0
  185.9060  178.6060  140.7080 C   0  0  0  0  0  0  0  0  0  0  0  0
  186.9320  178.8630  141.8000 C   0  0  0  0  0  1  0  0  0  0  0  0
  188.5900  176.6740  139.0510 O   0  0  0  0  0  0  0  0  0  0  0  0
  189.9630  176.7560  139.2930 C   0  0  0  0  0  2  0  0  0  0  0  0
  190.7100  174.7770  138.1960 O   0  0  0  0  0  1  0  0  0  0  0  0
  190.7060  176.0350  138.2210 C   0  0  0  0  0  0  0  0  0  0  0  0
  191.4280  176.7490  137.2760 O   0  0  0  0  0  0  0  0  0  0  0  0
  1  6  1  1  0  0  0
  1  8  1  0  0  0  0
  2 19  1  0  0  0  0
  3  2  2  0  0  0  0
  3 10  1  0  0  0  0
  4 25  1  1  0  0  0
  5 18  1  1  0  0  0
  5 15  1  0  0  0  0
  6 14  1  0  0  0  0
  7  9  1  0  0  0  0
  8 15  1  0  0  0  0
  9 12  1  0  0  0  0
 10  4  1  0  0  0  0
 10  6  2  0  0  0  0
 11  2  1  0  0  0  0
 12 18  1  0  0  0  0
 12 13  1  1  0  0  0
 15 20  1  6  0  0  0
 16  1  1  0  0  0  0
 16  5  1  0  0  0  0
 17  7  1  0  0  0  0
 17  4  1  0  0  0  0
 17 16  1  0  0  0  0
 19 14  2  0  0  0  0
 20 22  1  0  0  0  0
 21 20  1  0  0  0  0
 23 17  1  0  0  0  0
 24 23  1  0  0  0  0
 25 31  1  0  0  0  0
 26 28  1  0  0  0  0
 27 34  1  0  0  0  0
 28 30  1  0  0  0  0
 29 26  1  0  0  0  0
 29 31  2  0  0  0  0
 30 27  1  0  0  0  0
 31 27  1  0  0  0  0
 32 34  1  0  0  0  0
 34 33  1  0  0  0  0
 34 35  1  0  0  0  0
 36 37  1  0  0  0  0
 36 30  1  0  0  0  0
 38 39  1  0  0  0  0
 39 37  1  0  0  0  0
 40 39  2  0  0  0  0
M  END
>  <MODEL>
7

>  <REMARK>
 VINA RESULT:      -5.1      2.735      4.883
  Name = 
  8 active torsions:
  status: ('A' for Active; 'I' for Inactive)
    1  A    between atoms: C_1  and  C_29
    2  A    between atoms: C_7  and  C_27
    3  A    between atoms: C_8  and  O_25
    4  A    between atoms: C_10  and  C_34
    5  A    between atoms: C_15  and  C_31
    6  A    between atoms: C_15  and  O_38
    7  A    between atoms: O_25  and  C_39
    8  A    between atoms: C_35  and  O_38
                            x       y       z     vdW  Elec       q    Type
                         _______ _______ _______ _____ _____    ______ ____

>  <TORSDO>
F 8

$$$$
=
 OpenBabel11062417593D

 40 44  0  0  1  0  0  0  0  0999 V2000
  188.6970  176.9420  138.7880 C   0  0  1  0  0  3  0  0  0  0  0  0
  186.0580  179.0290  141.3650 C   0  0  0  0  0  0  0  0  0  0  0  0
  185.7030  178.8250  140.0290 C   0  0  0  0  0  3  0  0  0  0  0  0
  186.1590  177.7790  137.7820 C   0  0  1  0  0  3  0  0  0  0  0  0
  189.2420  175.8430  136.7690 C   0  0  2  0  0  3  0  0  0  0  0  0
  187.7890  177.6490  139.6980 C   0  0  0  0  0  0  0  0  0  0  0  0
  187.0710  177.4550  135.4330 O   0  0  0  0  0  0  0  0  0  0  0  0
  189.4610  175.9690  139.1440 N   0  0  0  0  0  2  0  0  0  0  0  0
  186.4690  176.1880  135.3590 C   0  0  0  0  0  2  0  0  0  0  0  0
  186.5800  178.1420  139.1860 C   0  0  0  0  0  0  0  0  0  0  0  0
  185.1700  179.7160  142.2390 N   0  0  0  0  0  1  0  0  0  0  0  0
  187.5080  175.1120  135.1220 C   0  0  2  0  0  3  0  0  0  0  0  0
  186.8770  173.9720  134.6640 F   0  0  0  0  0  0  0  0  0  0  0  0
  188.0960  177.8490  141.0480 C   0  0  0  0  0  3  0  0  0  0  0  0
  190.0490  175.3210  137.9720 C   0  0  2  0  0  3  0  0  0  0  0  0
  188.6350  177.1310  137.3250 C   0  0  1  0  0  3  0  0  0  0  0  0
  187.3660  177.8400  136.7720 C   0  0  2  0  0  0  0  0  0  0  0  0
  188.1920  174.7940  136.4340 C   0  0  0  0  0  2  0  0  0  0  0  0
  187.2310  178.5320  141.8440 N   0  0  0  0  0  0  0  0  0  0  0  0
  191.5240  175.6980  137.8440 C   0  0  1  0  0  3  0  0  0  0  0  0
  191.8390  176.0830  136.4110 C   0  0  0  0  0  1  0  0  0  0  0  0
  191.8190  176.7730  138.6820 O   0  0  0  0  0  1  0  0  0  0  0  0
  187.7830  179.3140  136.6860 C   0  0  0  0  0  2  0  0  0  0  0  0
  189.2170  179.5530  137.1360 C   0  0  0  0  0  1  0  0  0  0  0  0
  185.5290  176.5030  137.8390 O   0  0  0  0  0  0  0  0  0  0  0  0
  181.9450  177.3910  137.3740 C   0  0  0  0  0  2  0  0  0  0  0  0
  183.5220  175.0140  138.1070 C   0  0  2  0  0  3  0  0  0  0  0  0
  181.3920  175.9900  137.1540 C   0  0  0  0  0  2  0  0  0  0  0  0
  183.4060  177.3830  137.4130 N   0  0  0  0  0  0  0  0  0  0  0  0
  181.9840  175.0540  138.2030 C   0  0  2  0  0  3  0  0  0  0  0  0
  184.1390  176.3640  137.7770 C   0  0  0  0  0  0  0  0  0  0  0  0
  185.3500  173.5500  137.5480 O   0  0  0  0  0  1  0  0  0  0  0  0
  183.1900  172.6190  137.4100 C   0  0  0  0  0  1  0  0  0  0  0  0
  184.0340  173.8660  137.2050 C   0  0  0  0  0  0  0  0  0  0  0  0
  183.9820  174.2490  135.7350 C   0  0  0  0  0  1  0  0  0  0  0  0
  181.5910  175.4490  139.4870 O   0  0  0  0  0  0  0  0  0  0  0  0
  180.3100  174.9180  139.6530 C   0  0  0  0  0  2  0  0  0  0  0  0
  179.1630  175.6910  141.5920 O   0  0  0  0  0  1  0  0  0  0  0  0
  179.4520  175.8910  140.3840 C   0  0  0  0  0  0  0  0  0  0  0  0
  178.9370  176.9970  139.7220 O   0  0  0  0  0  0  0  0  0  0  0  0
  1  8  1  6  0  0  0
  1  6  1  0  0  0  0
  2 19  1  0  0  0  0
  2 11  1  0  0  0  0
  3  2  2  0  0  0  0
  4 25  1  1  0  0  0
  4 10  1  0  0  0  0
  5 18  1  1  0  0  0
  5 16  1  0  0  0  0
  5 15  1  0  0  0  0
  6 14  1  0  0  0  0
  7 17  1  0  0  0  0
  9  7  1  0  0  0  0
 10  6  2  0  0  0  0
 10  3  1  0  0  0  0
 12 13  1  1  0  0  0
 12  9  1  0  0  0  0
 12 18  1  0  0  0  0
 14 19  2  0  0  0  0
 15 20  1  6  0  0  0
 15  8  1  0  0  0  0
 16  1  1  0  0  0  0
 17 16  1  0  0  0  0
 17  4  1  0  0  0  0
 20 22  1  0  0  0  0
 21 20  1  0  0  0  0
 23 17  1  0  0  0  0
 23 24  1  0  0  0  0
 26 29  1  0  0  0  0
 27 30  1  0  0  0  0
 28 26  1  0  0  0  0
 28 30  1  0  0  0  0
 29 31  2  0  0  0  0
 30 36  1  0  0  0  0
 31 25  1  0  0  0  0
 31 27  1  0  0  0  0
 34 33  1  0  0  0  0
 34 32  1  0  0  0  0
 34 27  1  0  0  0  0
 35 34  1  0  0  0  0
 36 37  1  0  0  0  0
 37 39  1  0  0  0  0
 39 38  1  0  0  0  0
 40 39  2  0  0  0  0
M  END
>  <MODEL>
8

>  <REMARK>
 VINA RESULT:      -5.0      3.390      7.793
  Name = 
  8 active torsions:
  status: ('A' for Active; 'I' for Inactive)
    1  A    between atoms: C_1  and  C_29
    2  A    between atoms: C_7  and  C_27
    3  A    between atoms: C_8  and  O_25
    4  A    between atoms: C_10  and  C_34
    5  A    between atoms: C_15  and  C_31
    6  A    between atoms: C_15  and  O_38
    7  A    between atoms: O_25  and  C_39
    8  A    between atoms: C_35  and  O_38
                            x       y       z     vdW  Elec       q    Type
                         _______ _______ _______ _____ _____    ______ ____

>  <TORSDO>
F 8

$$$$
=
 OpenBabel11062417593D

 40 44  0  0  1  0  0  0  0  0999 V2000
  185.7460  174.5750  136.9710 C   0  0  1  0  0  3  0  0  0  0  0  0
  189.7360  175.9880  137.1720 C   0  0  0  0  0  0  0  0  0  0  0  0
  188.6790  176.9020  137.1310 C   0  0  0  0  0  3  0  0  0  0  0  0
  186.2060  177.3860  137.1630 C   0  0  1  0  0  3  0  0  0  0  0  0
  183.4020  174.8550  137.0700 C   0  0  2  0  0  3  0  0  0  0  0  0
  187.1330  175.0450  137.0560 C   0  0  0  0  0  0  0  0  0  0  0  0
  183.8280  177.7520  136.3480 O   0  0  0  0  0  0  0  0  0  0  0  0
  185.3140  173.5000  137.5330 N   0  0  0  0  0  2  0  0  0  0  0  0
  183.3870  177.9270  137.6710 C   0  0  0  0  0  2  0  0  0  0  0  0
  187.3690  176.4280  137.0590 C   0  0  0  0  0  0  0  0  0  0  0  0
  191.0770  176.4560  137.2550 N   0  0  0  0  0  1  0  0  0  0  0  0
  182.3300  176.9020  138.0240 C   0  0  2  0  0  3  0  0  0  0  0  0
  181.6450  177.3310  139.1450 F   0  0  0  0  0  0  0  0  0  0  0  0
  188.2150  174.1630  137.1260 C   0  0  0  0  0  3  0  0  0  0  0  0
  183.8540  173.4390  137.4720 C   0  0  2  0  0  3  0  0  0  0  0  0
  184.6670  175.4230  136.4280 C   0  0  1  0  0  3  0  0  0  0  0  0
  184.9920  176.9360  136.2660 C   0  0  2  0  0  0  0  0  0  0  0  0
  183.0080  175.5870  138.3430 C   0  0  0  0  0  2  0  0  0  0  0  0
  189.4830  174.6510  137.1800 N   0  0  0  0  0  0  0  0  0  0  0  0
  183.4100  172.4090  136.4350 C   0  0  1  0  0  3  0  0  0  0  0  0
  182.0280  172.7560  135.9160 C   0  0  0  0  0  1  0  0  0  0  0  0
  184.3060  172.3870  135.3670 O   0  0  0  0  0  1  0  0  0  0  0  0
  185.4650  177.0520  134.8110 C   0  0  0  0  0  2  0  0  0  0  0  0
  186.4390  178.2010  134.5940 C   0  0  0  0  0  1  0  0  0  0  0  0
  185.8770  177.5130  138.5430 O   0  0  0  0  0  0  0  0  0  0  0  0
  189.0670  178.7960  139.9680 C   0  0  0  0  0  2  0  0  0  0  0  0
  186.4400  177.9080  140.9600 C   0  0  2  0  0  3  0  0  0  0  0  0
  188.5360  179.2800  141.3100 C   0  0  0  0  0  2  0  0  0  0  0  0
  187.9770  178.3850  139.0850 N   0  0  0  0  0  0  0  0  0  0  0  0
  187.6270  178.2070  141.8990 C   0  0  2  0  0  3  0  0  0  0  0  0
  186.8160  177.9420  139.4880 C   0  0  0  0  0  0  0  0  0  0  0  0
  185.0200  179.7480  140.3350 O   0  0  0  0  0  1  0  0  0  0  0  0
  183.9450  177.8780  141.2800 C   0  0  0  0  0  1  0  0  0  0  0  0
  185.1870  178.7510  141.2970 C   0  0  0  0  0  0  0  0  0  0  0  0
  185.3050  179.3990  142.6670 C   0  0  0  0  0  1  0  0  0  0  0  0
  188.3520  177.0350  142.1470 O   0  0  0  0  0  0  0  0  0  0  0  0
  187.9110  176.5940  143.3960 C   0  0  0  0  0  2  0  0  0  0  0  0
  188.1850  177.5840  145.5450 O   0  0  0  0  0  1  0  0  0  0  0  0
  188.7290  177.2240  144.4690 C   0  0  0  0  0  0  0  0  0  0  0  0
  190.0830  177.4540  144.2670 O   0  0  0  0  0  0  0  0  0  0  0  0
  1  6  1  1  0  0  0
  1  8  1  0  0  0  0
  2 19  1  0  0  0  0
  2 11  1  0  0  0  0
  3  2  2  0  0  0  0
  4 25  1  1  0  0  0
  5 15  1  0  0  0  0
  5 18  1  1  0  0  0
  6 10  2  0  0  0  0
  6 14  1  0  0  0  0
  7  9  1  0  0  0  0
  9 12  1  0  0  0  0
 10  3  1  0  0  0  0
 10  4  1  0  0  0  0
 12 18  1  0  0  0  0
 12 13  1  1  0  0  0
 14 19  2  0  0  0  0
 15 20  1  6  0  0  0
 15  8  1  0  0  0  0
 16  1  1  0  0  0  0
 16  5  1  0  0  0  0
 17  7  1  0  0  0  0
 17 16  1  0  0  0  0
 17  4  1  0  0  0  0
 21 20  1  0  0  0  0
 22 20  1  0  0  0  0
 23 17  1  0  0  0  0
 24 23  1  0  0  0  0
 25 31  1  0  0  0  0
 26 28  1  0  0  0  0
 27 34  1  0  0  0  0
 27 30  1  0  0  0  0
 28 30  1  0  0  0  0
 29 31  2  0  0  0  0
 29 26  1  0  0  0  0
 30 36  1  0  0  0  0
 31 27  1  0  0  0  0
 32 34  1  0  0  0  0
 33 34  1  0  0  0  0
 34 35  1  0  0  0  0
 36 37  1  0  0  0  0
 37 39  1  0  0  0  0
 39 38  1  0  0  0  0
 40 39  2  0  0  0  0
M  END
>  <MODEL>
9

>  <REMARK>
 VINA RESULT:      -4.6      3.580      7.287
  Name = 
  8 active torsions:
  status: ('A' for Active; 'I' for Inactive)
    1  A    between atoms: C_1  and  C_29
    2  A    between atoms: C_7  and  C_27
    3  A    between atoms: C_8  and  O_25
    4  A    between atoms: C_10  and  C_34
    5  A    between atoms: C_15  and  C_31
    6  A    between atoms: C_15  and  O_38
    7  A    between atoms: O_25  and  C_39
    8  A    between atoms: C_35  and  O_38
                            x       y       z     vdW  Elec       q    Type
                         _______ _______ _______ _____ _____    ______ ____

>  <TORSDO>
F 8

$$$$
