=
 OpenBabel11062412063D

 48 53  0  0  1  0  0  0  0  0999 V2000
  184.3170  179.0890  140.6140 O   0  0  0  0  0  0  0  0  0  0  0  0
  183.2750  179.0720  141.2520 C   0  0  0  0  0  0  0  0  0  0  0  0
  182.1140  179.6770  138.4040 C   0  0  1  0  0  3  0  0  0  0  0  0
  179.3490  174.7800  140.8860 C   0  0  0  0  0  3  0  0  0  0  0  0
  182.4920  177.9360  136.5910 C   0  0  1  0  0  3  0  0  0  0  0  0
  181.9650  177.4490  135.2510 C   0  0  0  0  0  1  0  0  0  0  0  0
  182.0650  178.3560  140.6680 C   0  0  1  0  0  3  0  0  0  0  0  0
  180.9370  177.8940  142.0130 S   0  0  1  0  0  0  0  0  0  0  0  0
  180.4820  179.2260  142.5900 O   0  0  0  0  0  0  0  0  0  0  0  0
  179.4720  177.3130  141.1270 C   0  0  1  0  0  3  0  0  0  0  0  0
  181.2740  179.1170  139.5660 C   0  0  2  0  0  3  0  0  0  0  0  0
  181.6840  179.1450  137.0380 C   0  0  0  0  0  2  0  0  0  0  0  0
  181.1870  176.0630  137.8280 C   0  0  2  0  0  3  0  0  0  0  0  0
  182.5360  176.8070  137.6330 C   0  0  1  0  0  3  0  0  0  0  0  0
  180.7090  176.0800  139.2940 C   0  0  1  0  0  3  0  0  0  0  0  0
  181.9690  181.1840  138.3760 C   0  0  0  0  0  1  0  0  0  0  0  0
  180.0880  178.5030  139.0660 O   0  0  0  0  0  0  0  0  0  0  0  0
  179.7540  177.2500  139.6240 C   0  0  2  0  0  3  0  0  0  0  0  0
  179.0680  175.9920  141.6130 N   0  0  0  0  0  2  0  0  0  0  0  0
  180.0870  174.7980  139.7720 C   0  0  0  0  0  3  0  0  0  0  0  0
  181.0840  174.8180  137.1630 O   0  0  0  0  0  0  0  0  0  0  0  0
  180.0640  174.8910  136.3240 O   0  0  0  0  0  1  0  0  0  0  0  0
  183.5770  175.9250  137.3290 O   0  0  0  0  0  0  0  0  0  0  0  0
  184.7490  176.6840  137.4150 C   0  0  0  0  0  1  0  0  0  0  0  0
  183.3360  179.5830  142.6690 C   0  0  0  0  0  2  0  0  0  0  0  0
  183.3710  178.8740  145.0580 C   0  0  0  0  0  2  0  0  0  0  0  0
  184.5470  179.3390  145.7850 N   0  0  0  0  0  2  0  0  0  0  0  0
  183.7300  178.4680  143.6310 C   0  0  2  0  0  3  0  0  0  0  0  0
  185.4220  178.1930  146.0160 C   0  0  0  0  0  2  0  0  0  0  0  0
  185.2150  178.1440  143.4630 C   0  0  0  0  0  2  0  0  0  0  0  0
  185.8610  177.5200  144.7010 C   0  0  1  0  0  3  0  0  0  0  0  0
  187.3450  177.6180  144.5610 C   0  0  0  0  0  3  0  0  0  0  0  0
  188.0600  176.6260  144.0350 C   0  0  0  0  0  3  0  0  0  0  0  0
  189.5620  176.7450  143.9280 C   0  0  1  0  0  3  0  0  0  0  0  0
  188.7340  178.2260  140.6580 C   0  0  1  0  0  3  0  0  0  0  0  0
  190.9650  177.5160  139.6470 N   0  0  0  0  0  2  0  0  0  0  0  0
  189.8940  177.3300  142.6040 N   0  0  0  0  0  0  0  0  0  0  0  0
  189.0720  177.7400  138.3340 O   0  0  0  0  0  0  0  0  0  0  0  0
  191.0020  176.6300  141.9500 C   0  0  0  0  0  2  0  0  0  0  0  0
  191.6710  177.5440  140.9290 C   0  0  0  0  0  2  0  0  0  0  0  0
  188.7300  177.1550  141.7310 C   0  0  0  0  0  2  0  0  0  0  0  0
  189.5670  177.7800  139.4890 C   0  0  0  0  0  0  0  0  0  0  0  0
  187.3670  178.5200  140.2560 N   0  0  0  0  0  1  0  0  0  0  0  0
  189.4850  177.1350  146.4300 C   0  0  0  0  0  3  0  0  0  0  0  0
  190.1030  177.5650  145.1260 C   0  0  1  0  0  3  0  0  0  0  0  0
  191.6260  176.7240  146.6390 C   0  0  0  0  0  3  0  0  0  0  0  0
  191.5350  177.2360  145.4220 C   0  0  0  0  0  3  0  0  0  0  0  0
  190.3510  176.6620  147.2570 N   0  0  0  0  0  0  0  0  0  0  0  0
  1  2  2  0  0  0  0
  2 25  1  0  0  0  0
  3 16  1  6  0  0  0
  3 11  1  0  0  0  0
  4 19  1  0  0  0  0
  5  6  1  6  0  0  0
  5 12  1  0  0  0  0
  5 14  1  0  0  0  0
  7  2  1  1  0  0  0
  7  8  1  0  0  0  0
  8  9  2  1  0  0  0
 10 19  1  1  0  0  0
 10  8  1  0  0  0  0
 11 17  1  6  0  0  0
 11  7  1  0  0  0  0
 12  3  1  0  0  0  0
 13 21  1  1  0  0  0
 13 15  1  0  0  0  0
 14 23  1  6  0  0  0
 14 13  1  0  0  0  0
 15 18  1  0  0  0  0
 15 20  1  6  0  0  0
 18 17  1  1  0  0  0
 18 10  1  0  0  0  0
 20  4  2  0  0  0  0
 22 21  1  0  0  0  0
 23 24  1  0  0  0  0
 26 27  1  0  0  0  0
 27 29  1  0  0  0  0
 28 25  1  6  0  0  0
 28 26  1  0  0  0  0
 30 28  1  0  0  0  0
 30 31  1  0  0  0  0
 31 32  1  6  0  0  0
 31 29  1  0  0  0  0
 33 32  2  0  0  0  0
 34 33  1  1  0  0  0
 35 43  1  6  0  0  0
 35 41  1  0  0  0  0
 36 40  1  0  0  0  0
 37 34  1  0  0  0  0
 38 42  2  0  0  0  0
 39 37  1  0  0  0  0
 40 39  1  0  0  0  0
 41 37  1  0  0  0  0
 42 36  1  0  0  0  0
 42 35  1  0  0  0  0
 44 48  2  0  0  0  0
 45 34  1  6  0  0  0
 45 47  1  0  0  0  0
 45 44  1  0  0  0  0
 46 48  1  0  0  0  0
 47 46  2  0  0  0  0
M  END
>  <MODEL>
1

>  <REMARK>
 VINA RESULT:      -9.1      0.000      0.000
  Name = 
  9 active torsions:
  status: ('A' for Active; 'I' for Inactive)
    1  A    between atoms: C_5  and  C_44
    2  A    between atoms: O_8  and  C_35
    3  A    between atoms: C_9  and  C_38
    4  A    between atoms: O_10  and  C_39
    5  A    between atoms: C_13  and  C_29
    6  A    between atoms: N_14  and  C_38
    7  A    between atoms: C_20  and  C_38
    8  A    between atoms: C_27  and  C_45
    9  A    between atoms: C_29  and  C_45
                            x       y       z     vdW  Elec       q    Type
                         _______ _______ _______ _____ _____    ______ ____

>  <TORSDO>
F 9

$$$$
=
 OpenBabel11062412063D

 48 53  0  0  1  0  0  0  0  0999 V2000
  181.7060  180.5590  139.6050 O   0  0  0  0  0  0  0  0  0  0  0  0
  182.1100  179.4160  139.7580 C   0  0  0  0  0  0  0  0  0  0  0  0
  180.8690  178.7970  136.9470 C   0  0  1  0  0  3  0  0  0  0  0  0
  179.5520  174.3150  140.9420 C   0  0  0  0  0  3  0  0  0  0  0  0
  181.7490  176.7630  135.7010 C   0  0  1  0  0  3  0  0  0  0  0  0
  181.4000  175.7710  134.6020 C   0  0  0  0  0  1  0  0  0  0  0  0
  181.1590  178.2560  139.4960 C   0  0  1  0  0  3  0  0  0  0  0  0
  180.1850  177.9320  140.9930 S   0  0  1  0  0  0  0  0  0  0  0  0
  179.3660  179.1990  141.1850 O   0  0  0  0  0  0  0  0  0  0  0  0
  178.9560  176.7360  140.4210 C   0  0  1  0  0  3  0  0  0  0  0  0
  180.2030  178.4060  138.2780 C   0  0  2  0  0  3  0  0  0  0  0  0
  180.6280  177.7830  135.8300 C   0  0  0  0  0  2  0  0  0  0  0  0
  181.0020  175.0670  137.5210 C   0  0  2  0  0  3  0  0  0  0  0  0
  182.0920  176.0560  137.0220 C   0  0  1  0  0  3  0  0  0  0  0  0
  180.5160  175.3940  138.9470 C   0  0  1  0  0  3  0  0  0  0  0  0
  180.3090  180.1270  136.4890 C   0  0  0  0  0  1  0  0  0  0  0  0
  179.2440  177.3720  138.0650 O   0  0  0  0  0  0  0  0  0  0  0  0
  179.2670  176.3030  138.9870 C   0  0  2  0  0  3  0  0  0  0  0  0
  178.9310  175.5650  141.3000 N   0  0  0  0  0  2  0  0  0  0  0  0
  180.2720  174.1970  139.8220 C   0  0  0  0  0  3  0  0  0  0  0  0
  181.2630  173.7010  137.2590 O   0  0  0  0  0  0  0  0  0  0  0  0
  180.2130  173.2040  136.6270 O   0  0  0  0  0  1  0  0  0  0  0  0
  183.3420  175.4410  136.9170 O   0  0  0  0  0  0  0  0  0  0  0  0
  184.2740  176.4240  137.2670 C   0  0  0  0  0  1  0  0  0  0  0  0
  183.5890  179.2420  139.9920 C   0  0  0  0  0  2  0  0  0  0  0  0
  183.1460  178.8540  142.4130 C   0  0  0  0  0  2  0  0  0  0  0  0
  184.0890  179.5340  143.2940 N   0  0  0  0  0  2  0  0  0  0  0  0
  183.8460  178.3100  141.1710 C   0  0  2  0  0  3  0  0  0  0  0  0
  184.9790  178.5300  143.8710 C   0  0  0  0  0  2  0  0  0  0  0  0
  185.3520  178.1330  141.3690 C   0  0  0  0  0  2  0  0  0  0  0  0
  185.7520  177.7470  142.7930 C   0  0  1  0  0  3  0  0  0  0  0  0
  187.2180  177.9900  142.9550 C   0  0  0  0  0  3  0  0  0  0  0  0
  188.0490  177.0110  143.3050 C   0  0  0  0  0  3  0  0  0  0  0  0
  189.5220  177.2910  143.4830 C   0  0  1  0  0  3  0  0  0  0  0  0
  188.9280  177.2000  147.1180 C   0  0  1  0  0  3  0  0  0  0  0  0
  191.4250  177.1570  147.6380 N   0  0  0  0  0  2  0  0  0  0  0  0
  189.8920  176.9900  144.8900 N   0  0  0  0  0  0  0  0  0  0  0  0
  189.9090  178.0910  149.1170 O   0  0  0  0  0  0  0  0  0  0  0  0
  191.2910  177.3110  145.1780 C   0  0  0  0  0  2  0  0  0  0  0  0
  191.7790  176.5040  146.3760 C   0  0  0  0  0  2  0  0  0  0  0  0
  189.0880  177.8530  145.7600 C   0  0  0  0  0  2  0  0  0  0  0  0
  190.0960  177.5490  147.9980 C   0  0  0  0  0  0  0  0  0  0  0  0
  187.6690  177.6160  147.7160 N   0  0  0  0  0  1  0  0  0  0  0  0
  189.8060  176.6790  141.0420 C   0  0  0  0  0  3  0  0  0  0  0  0
  190.3330  176.4840  142.4390 C   0  0  1  0  0  3  0  0  0  0  0  0
  191.8520  177.4570  141.0040 C   0  0  0  0  0  3  0  0  0  0  0  0
  191.7110  177.0440  142.2530 C   0  0  0  0  0  3  0  0  0  0  0  0
  190.6670  177.2300  140.2600 N   0  0  0  0  0  0  0  0  0  0  0  0
  1  2  2  0  0  0  0
  2 25  1  0  0  0  0
  3 16  1  6  0  0  0
  3 11  1  0  0  0  0
  4 19  1  0  0  0  0
  5  6  1  6  0  0  0
  5 12  1  0  0  0  0
  5 14  1  0  0  0  0
  7  2  1  1  0  0  0
  7  8  1  0  0  0  0
  8  9  2  6  0  0  0
 10  8  1  0  0  0  0
 10 19  1  1  0  0  0
 11 17  1  6  0  0  0
 11  7  1  0  0  0  0
 12  3  1  0  0  0  0
 13 21  1  1  0  0  0
 13 15  1  0  0  0  0
 14 23  1  6  0  0  0
 14 13  1  0  0  0  0
 15 18  1  0  0  0  0
 15 20  1  6  0  0  0
 18 17  1  6  0  0  0
 18 10  1  0  0  0  0
 20  4  2  0  0  0  0
 22 21  1  0  0  0  0
 23 24  1  0  0  0  0
 26 27  1  0  0  0  0
 27 29  1  0  0  0  0
 28 25  1  6  0  0  0
 28 30  1  0  0  0  0
 28 26  1  0  0  0  0
 30 31  1  0  0  0  0
 31 32  1  6  0  0  0
 31 29  1  0  0  0  0
 32 33  2  0  0  0  0
 34 33  1  1  0  0  0
 34 37  1  0  0  0  0
 35 43  1  1  0  0  0
 35 42  1  0  0  0  0
 36 42  1  0  0  0  0
 37 39  1  0  0  0  0
 37 41  1  0  0  0  0
 39 40  1  0  0  0  0
 40 36  1  0  0  0  0
 41 35  1  0  0  0  0
 42 38  2  0  0  0  0
 44 45  1  0  0  0  0
 45 34  1  1  0  0  0
 46 47  2  0  0  0  0
 47 45  1  0  0  0  0
 48 46  1  0  0  0  0
 48 44  2  0  0  0  0
M  END
>  <MODEL>
2

>  <REMARK>
 VINA RESULT:      -8.3      1.990      3.685
  Name = 
  9 active torsions:
  status: ('A' for Active; 'I' for Inactive)
    1  A    between atoms: C_5  and  C_44
    2  A    between atoms: O_8  and  C_35
    3  A    between atoms: C_9  and  C_38
    4  A    between atoms: O_10  and  C_39
    5  A    between atoms: C_13  and  C_29
    6  A    between atoms: N_14  and  C_38
    7  A    between atoms: C_20  and  C_38
    8  A    between atoms: C_27  and  C_45
    9  A    between atoms: C_29  and  C_45
                            x       y       z     vdW  Elec       q    Type
                         _______ _______ _______ _____ _____    ______ ____

>  <TORSDO>
F 9

$$$$
=
 OpenBabel11062412063D

 48 53  0  0  1  0  0  0  0  0999 V2000
  183.3680  178.8210  138.4680 O   0  0  0  0  0  0  0  0  0  0  0  0
  183.3080  177.6010  138.4220 C   0  0  0  0  0  0  0  0  0  0  0  0
  181.4140  176.8590  136.0370 C   0  0  1  0  0  3  0  0  0  0  0  0
  179.2860  174.5310  141.3130 C   0  0  0  0  0  3  0  0  0  0  0  0
  181.2020  174.3990  135.4310 C   0  0  1  0  0  3  0  0  0  0  0  0
  180.3000  173.4000  134.7240 C   0  0  0  0  0  1  0  0  0  0  0  0
  181.9580  176.9210  138.6010 C   0  0  1  0  0  3  0  0  0  0  0  0
  181.2390  177.4310  140.1890 S   0  0  1  0  0  0  0  0  0  0  0  0
  181.0140  178.9260  140.0310 O   0  0  0  0  0  0  0  0  0  0  0  0
  179.5630  176.7560  140.1050 C   0  0  1  0  0  3  0  0  0  0  0  0
  180.9160  177.1390  137.4670 C   0  0  2  0  0  3  0  0  0  0  0  0
  180.5970  175.7900  135.3120 C   0  0  0  0  0  2  0  0  0  0  0  0
  180.2310  173.7020  137.7360 C   0  0  2  0  0  3  0  0  0  0  0  0
  181.4970  173.9790  136.8800 C   0  0  1  0  0  3  0  0  0  0  0  0
  180.1870  174.5560  139.0200 C   0  0  1  0  0  3  0  0  0  0  0  0
  181.3220  178.1350  135.2270 C   0  0  0  0  0  1  0  0  0  0  0  0
  179.6160  176.5840  137.6540 O   0  0  0  0  0  0  0  0  0  0  0  0
  179.4080  175.8810  138.8600 C   0  0  2  0  0  3  0  0  0  0  0  0
  179.2650  175.9720  141.3050 N   0  0  0  0  0  2  0  0  0  0  0  0
  179.6800  173.8400  140.2390 C   0  0  0  0  0  3  0  0  0  0  0  0
  179.9000  172.3350  137.8970 O   0  0  0  0  0  0  0  0  0  0  0  0
  178.9310  172.0520  137.0410 O   0  0  0  0  0  1  0  0  0  0  0  0
  182.3760  172.8930  136.8860 O   0  0  0  0  0  0  0  0  0  0  0  0
  183.6040  173.4030  136.4510 C   0  0  0  0  0  1  0  0  0  0  0  0
  184.5530  176.8750  137.9780 C   0  0  0  0  0  2  0  0  0  0  0  0
  185.9110  177.1290  135.9050 C   0  0  0  0  0  2  0  0  0  0  0  0
  187.2590  176.5840  136.0220 N   0  0  0  0  0  2  0  0  0  0  0  0
  185.4760  177.8070  137.2010 C   0  0  2  0  0  3  0  0  0  0  0  0
  188.1960  177.7010  136.1000 C   0  0  0  0  0  2  0  0  0  0  0  0
  186.6570  178.2150  138.0820 C   0  0  0  0  0  2  0  0  0  0  0  0
  187.9050  178.6230  137.3000 C   0  0  1  0  0  3  0  0  0  0  0  0
  189.0730  178.6110  138.2330 C   0  0  0  0  0  3  0  0  0  0  0  0
  189.1500  177.7400  139.2360 C   0  0  0  0  0  3  0  0  0  0  0  0
  190.3320  177.7660  140.1770 C   0  0  1  0  0  3  0  0  0  0  0  0
  190.6510  178.2580  143.8140 C   0  0  1  0  0  3  0  0  0  0  0  0
  188.6790  176.7190  144.3080 N   0  0  0  0  0  2  0  0  0  0  0  0
  189.8230  177.7830  141.5720 N   0  0  0  0  0  0  0  0  0  0  0  0
  190.4090  176.9720  145.8240 O   0  0  0  0  0  0  0  0  0  0  0  0
  188.9350  176.6530  141.8540 C   0  0  0  0  0  2  0  0  0  0  0  0
  188.0200  176.9850  143.0270 C   0  0  0  0  0  2  0  0  0  0  0  0
  190.9710  177.6330  142.4700 C   0  0  0  0  0  2  0  0  0  0  0  0
  189.9470  177.2600  144.6910 C   0  0  0  0  0  0  0  0  0  0  0  0
  191.8770  178.7390  144.4340 N   0  0  0  0  0  1  0  0  0  0  0  0
  190.8420  175.8280  138.6280 C   0  0  0  0  0  3  0  0  0  0  0  0
  191.2650  176.5700  139.8690 C   0  0  1  0  0  3  0  0  0  0  0  0
  192.8410  176.6060  138.1850 C   0  0  0  0  0  3  0  0  0  0  0  0
  192.6220  177.0250  139.4220 C   0  0  0  0  0  3  0  0  0  0  0  0
  191.7330  175.8670  137.6990 N   0  0  0  0  0  0  0  0  0  0  0  0
  2  1  2  0  0  0  0
  3 16  1  6  0  0  0
  3 11  1  0  0  0  0
  5  6  1  1  0  0  0
  5 14  1  0  0  0  0
  7  2  1  6  0  0  0
  7  8  1  0  0  0  0
  8  9  2  6  0  0  0
 10  8  1  0  0  0  0
 10 19  1  1  0  0  0
 11 17  1  1  0  0  0
 11  7  1  0  0  0  0
 12  5  1  0  0  0  0
 12  3  1  0  0  0  0
 13 21  1  1  0  0  0
 13 15  1  0  0  0  0
 14 23  1  6  0  0  0
 14 13  1  0  0  0  0
 15 20  1  1  0  0  0
 18 17  1  6  0  0  0
 18 15  1  0  0  0  0
 18 10  1  0  0  0  0
 19  4  1  0  0  0  0
 20  4  2  0  0  0  0
 22 21  1  0  0  0  0
 24 23  1  0  0  0  0
 25  2  1  0  0  0  0
 26 27  1  0  0  0  0
 26 28  1  0  0  0  0
 27 29  1  0  0  0  0
 28 25  1  1  0  0  0
 28 30  1  0  0  0  0
 29 31  1  0  0  0  0
 31 30  1  0  0  0  0
 31 32  1  1  0  0  0
 32 33  2  0  0  0  0
 34 33  1  6  0  0  0
 34 37  1  0  0  0  0
 35 43  1  1  0  0  0
 35 42  1  0  0  0  0
 36 42  1  0  0  0  0
 37 39  1  0  0  0  0
 37 41  1  0  0  0  0
 39 40  1  0  0  0  0
 40 36  1  0  0  0  0
 41 35  1  0  0  0  0
 42 38  2  0  0  0  0
 44 45  1  0  0  0  0
 45 34  1  6  0  0  0
 46 47  2  0  0  0  0
 47 45  1  0  0  0  0
 48 46  1  0  0  0  0
 48 44  2  0  0  0  0
M  END
>  <MODEL>
3

>  <REMARK>
 VINA RESULT:      -8.0      2.561      5.107
  Name = 
  9 active torsions:
  status: ('A' for Active; 'I' for Inactive)
    1  A    between atoms: C_5  and  C_44
    2  A    between atoms: O_8  and  C_35
    3  A    between atoms: C_9  and  C_38
    4  A    between atoms: O_10  and  C_39
    5  A    between atoms: C_13  and  C_29
    6  A    between atoms: N_14  and  C_38
    7  A    between atoms: C_20  and  C_38
    8  A    between atoms: C_27  and  C_45
    9  A    between atoms: C_29  and  C_45
                            x       y       z     vdW  Elec       q    Type
                         _______ _______ _______ _____ _____    ______ ____

>  <TORSDO>
F 9

$$$$
=
 OpenBabel11062412063D

 48 53  0  0  1  0  0  0  0  0999 V2000
  186.7060  178.9400  139.5980 O   0  0  0  0  0  0  0  0  0  0  0  0
  186.4990  177.8730  139.0390 C   0  0  0  0  0  0  0  0  0  0  0  0
  186.0170  176.8840  136.1040 C   0  0  1  0  0  3  0  0  0  0  0  0
  180.7770  176.8040  139.3160 C   0  0  0  0  0  3  0  0  0  0  0  0
  185.2910  174.4680  135.7860 C   0  0  1  0  0  3  0  0  0  0  0  0
  184.6060  173.5280  134.8060 C   0  0  0  0  0  1  0  0  0  0  0  0
  185.1180  177.5990  138.4600 C   0  0  1  0  0  3  0  0  0  0  0  0
  183.9130  178.7130  139.2370 S   0  0  1  0  0  0  0  0  0  0  0  0
  184.3560  180.1010  138.8010 O   0  0  0  0  0  0  0  0  0  0  0  0
  182.4200  178.4360  138.2560 C   0  0  1  0  0  3  0  0  0  0  0  0
  184.9850  177.6870  136.9130 C   0  0  2  0  0  3  0  0  0  0  0  0
  185.3830  175.8550  135.1680 C   0  0  0  0  0  2  0  0  0  0  0  0
  183.0840  174.7380  137.1280 C   0  0  2  0  0  3  0  0  0  0  0  0
  184.6100  174.4530  137.1640 C   0  0  1  0  0  3  0  0  0  0  0  0
  182.6840  175.9290  138.0220 C   0  0  1  0  0  3  0  0  0  0  0  0
  186.8270  177.8400  135.2530 C   0  0  0  0  0  1  0  0  0  0  0  0
  183.6820  177.5200  136.3560 O   0  0  0  0  0  0  0  0  0  0  0  0
  182.6390  177.2810  137.2760 C   0  0  2  0  0  3  0  0  0  0  0  0
  181.2810  178.1400  139.1270 N   0  0  0  0  0  2  0  0  0  0  0  0
  181.3970  175.7490  138.7760 C   0  0  0  0  0  3  0  0  0  0  0  0
  182.2550  173.5940  137.2200 O   0  0  0  0  0  0  0  0  0  0  0  0
  181.4690  173.5790  136.1570 O   0  0  0  0  0  1  0  0  0  0  0  0
  184.8990  173.2530  137.8190 O   0  0  0  0  0  0  0  0  0  0  0  0
  186.2600  173.0190  137.5910 C   0  0  0  0  0  1  0  0  0  0  0  0
  187.6980  176.9960  138.7810 C   0  0  0  0  0  2  0  0  0  0  0  0
  190.1670  176.7500  139.0150 C   0  0  0  0  0  2  0  0  0  0  0  0
  190.5730  176.1090  140.2600 N   0  0  0  0  0  2  0  0  0  0  0  0
  188.9810  177.6840  139.2360 C   0  0  2  0  0  3  0  0  0  0  0  0
  191.1560  177.1280  141.1280 C   0  0  0  0  0  2  0  0  0  0  0  0
  188.8380  178.1260  140.6940 C   0  0  0  0  0  2  0  0  0  0  0  0
  190.1680  178.2700  141.4340 C   0  0  1  0  0  3  0  0  0  0  0  0
  189.8910  178.3110  142.9020 C   0  0  0  0  0  3  0  0  0  0  0  0
  188.7550  177.8350  143.4060 C   0  0  0  0  0  3  0  0  0  0  0  0
  188.4930  177.9110  144.8920 C   0  0  1  0  0  3  0  0  0  0  0  0
  184.9790  178.0430  143.7930 C   0  0  1  0  0  3  0  0  0  0  0  0
  184.1840  178.8850  146.0660 N   0  0  0  0  0  2  0  0  0  0  0  0
  187.0240  177.9110  145.1120 N   0  0  0  0  0  0  0  0  0  0  0  0
  183.0490  179.4290  144.1230 O   0  0  0  0  0  0  0  0  0  0  0  0
  186.6360  178.7060  146.2790 C   0  0  0  0  0  2  0  0  0  0  0  0
  185.2790  178.2460  146.7990 C   0  0  0  0  0  2  0  0  0  0  0  0
  186.3970  178.5540  143.9540 C   0  0  0  0  0  2  0  0  0  0  0  0
  184.0400  178.8550  144.6420 C   0  0  0  0  0  0  0  0  0  0  0  0
  184.5990  178.0860  142.3900 N   0  0  0  0  0  1  0  0  0  0  0  0
  190.6960  176.7170  145.2610 C   0  0  0  0  0  3  0  0  0  0  0  0
  189.2310  176.7520  145.6070 C   0  0  1  0  0  3  0  0  0  0  0  0
  190.6180  177.0750  147.4200 C   0  0  0  0  0  3  0  0  0  0  0  0
  189.3410  176.9920  147.0840 C   0  0  0  0  0  3  0  0  0  0  0  0
  191.4520  176.9060  146.2860 N   0  0  0  0  0  0  0  0  0  0  0  0
  2  1  2  0  0  0  0
  3 16  1  6  0  0  0
  3 11  1  0  0  0  0
  5  6  1  6  0  0  0
  5 14  1  0  0  0  0
  7  2  1  6  0  0  0
  7  8  1  0  0  0  0
  8  9  2  6  0  0  0
 10 19  1  1  0  0  0
 10  8  1  0  0  0  0
 11 17  1  1  0  0  0
 11  7  1  0  0  0  0
 12  5  1  0  0  0  0
 12  3  1  0  0  0  0
 13 14  1  0  0  0  0
 13 21  1  1  0  0  0
 13 15  1  0  0  0  0
 14 23  1  6  0  0  0
 15 20  1  6  0  0  0
 18 17  1  1  0  0  0
 18 15  1  0  0  0  0
 18 10  1  0  0  0  0
 19  4  1  0  0  0  0
 20  4  2  0  0  0  0
 22 21  1  0  0  0  0
 24 23  1  0  0  0  0
 25  2  1  0  0  0  0
 26 28  1  0  0  0  0
 26 27  1  0  0  0  0
 27 29  1  0  0  0  0
 28 25  1  1  0  0  0
 28 30  1  0  0  0  0
 29 31  1  0  0  0  0
 30 31  1  0  0  0  0
 31 32  1  1  0  0  0
 32 33  2  0  0  0  0
 34 33  1  6  0  0  0
 34 37  1  0  0  0  0
 35 43  1  6  0  0  0
 35 41  1  0  0  0  0
 35 42  1  0  0  0  0
 36 40  1  0  0  0  0
 37 39  1  0  0  0  0
 38 42  2  0  0  0  0
 39 40  1  0  0  0  0
 41 37  1  0  0  0  0
 42 36  1  0  0  0  0
 44 45  1  0  0  0  0
 44 48  2  0  0  0  0
 45 34  1  6  0  0  0
 45 47  1  0  0  0  0
 47 46  2  0  0  0  0
 48 46  1  0  0  0  0
M  END
>  <MODEL>
4

>  <REMARK>
 VINA RESULT:      -7.9      2.084      4.960
  Name = 
  9 active torsions:
  status: ('A' for Active; 'I' for Inactive)
    1  A    between atoms: C_5  and  C_44
    2  A    between atoms: O_8  and  C_35
    3  A    between atoms: C_9  and  C_38
    4  A    between atoms: O_10  and  C_39
    5  A    between atoms: C_13  and  C_29
    6  A    between atoms: N_14  and  C_38
    7  A    between atoms: C_20  and  C_38
    8  A    between atoms: C_27  and  C_45
    9  A    between atoms: C_29  and  C_45
                            x       y       z     vdW  Elec       q    Type
                         _______ _______ _______ _____ _____    ______ ____

>  <TORSDO>
F 9

$$$$
=
 OpenBabel11062412063D

 48 53  0  0  1  0  0  0  0  0999 V2000
  193.4950  176.8600  137.5490 O   0  0  0  0  0  0  0  0  0  0  0  0
  192.8570  175.8180  137.5040 C   0  0  0  0  0  0  0  0  0  0  0  0
  195.4090  176.0070  135.6940 C   0  0  1  0  0  3  0  0  0  0  0  0
  193.5580  170.1710  136.2450 C   0  0  0  0  0  3  0  0  0  0  0  0
  197.5340  174.9030  136.5470 C   0  0  1  0  0  3  0  0  0  0  0  0
  198.8750  174.3460  136.0960 C   0  0  0  0  0  1  0  0  0  0  0  0
  193.4260  174.6390  136.7270 C   0  0  1  0  0  3  0  0  0  0  0  0
  192.0710  173.5290  136.2490 S   0  0  1  0  0  0  0  0  0  0  0  0
  191.2200  174.3670  135.3070 O   0  0  0  0  0  0  0  0  0  0  0  0
  192.8840  172.3610  135.1330 C   0  0  1  0  0  3  0  0  0  0  0  0
  194.2830  174.9820  135.4750 C   0  0  2  0  0  3  0  0  0  0  0  0
  196.7950  175.4660  135.3430 C   0  0  0  0  0  2  0  0  0  0  0  0
  196.5180  172.5140  136.6010 C   0  0  2  0  0  3  0  0  0  0  0  0
  196.7210  173.8650  137.3390 C   0  0  1  0  0  3  0  0  0  0  0  0
  195.0300  172.1370  136.4570 C   0  0  1  0  0  3  0  0  0  0  0  0
  195.1520  177.2140  134.8170 C   0  0  0  0  0  1  0  0  0  0  0  0
  194.7530  173.8930  134.6830 O   0  0  0  0  0  0  0  0  0  0  0  0
  194.3950  172.6010  135.1270 C   0  0  2  0  0  3  0  0  0  0  0  0
  192.6010  170.9830  135.5370 N   0  0  0  0  0  0  0  0  0  0  0  0
  194.7240  170.6790  136.6570 C   0  0  0  0  0  2  0  0  0  0  0  0
  197.3800  171.4680  137.0110 O   0  0  0  0  0  0  0  0  0  0  0  0
  198.1540  171.1570  135.9850 O   0  0  0  0  0  1  0  0  0  0  0  0
  197.2890  173.6870  138.6040 O   0  0  0  0  0  0  0  0  0  0  0  0
  196.5470  174.5020  139.4650 C   0  0  0  0  0  1  0  0  0  0  0  0
  191.6510  175.7190  138.4030 C   0  0  0  0  0  2  0  0  0  0  0  0
  192.5150  177.2740  140.1480 C   0  0  0  0  0  2  0  0  0  0  0  0
  192.0700  176.9410  141.4960 N   0  0  0  0  0  2  0  0  0  0  0  0
  191.4050  177.0380  139.1270 C   0  0  2  0  0  3  0  0  0  0  0  0
  191.0760  177.9290  141.9060 C   0  0  0  0  0  2  0  0  0  0  0  0
  190.0110  177.0270  139.7580 C   0  0  0  0  0  2  0  0  0  0  0  0
  189.8630  177.9640  140.9560 C   0  0  1  0  0  3  0  0  0  0  0  0
  188.6290  177.5800  141.7080 C   0  0  0  0  0  3  0  0  0  0  0  0
  187.6850  178.4730  141.9930 C   0  0  0  0  0  3  0  0  0  0  0  0
  186.4600  178.0600  142.7740 C   0  0  1  0  0  3  0  0  0  0  0  0
  188.3800  177.7010  145.8980 C   0  0  1  0  0  3  0  0  0  0  0  0
  186.3320  178.1800  147.3420 N   0  0  0  0  0  2  0  0  0  0  0  0
  186.7190  178.2980  144.2170 N   0  0  0  0  0  0  0  0  0  0  0  0
  188.0540  176.8380  148.1120 O   0  0  0  0  0  0  0  0  0  0  0  0
  185.4960  178.2290  145.0210 C   0  0  0  0  0  2  0  0  0  0  0  0
  185.6790  179.0030  146.3210 C   0  0  0  0  0  2  0  0  0  0  0  0
  187.5850  177.2180  144.7010 C   0  0  0  0  0  2  0  0  0  0  0  0
  187.5820  177.5070  147.1580 C   0  0  0  0  0  0  0  0  0  0  0  0
  189.6500  176.9950  145.9590 N   0  0  0  0  0  1  0  0  0  0  0  0
  185.4570  179.3670  140.8500 C   0  0  0  0  0  3  0  0  0  0  0  0
  185.2210  178.8150  142.2310 C   0  0  1  0  0  3  0  0  0  0  0  0
  183.8160  177.9340  140.6290 C   0  0  0  0  0  3  0  0  0  0  0  0
  184.0910  177.8780  141.9220 C   0  0  0  0  0  3  0  0  0  0  0  0
  184.6670  178.8570  139.9700 N   0  0  0  0  0  0  0  0  0  0  0  0
  2  1  2  0  0  0  0
  2 25  1  0  0  0  0
  3 16  1  6  0  0  0
  4 20  1  0  0  0  0
  5  6  1  6  0  0  0
  5 14  1  0  0  0  0
  7  2  1  6  0  0  0
  8  9  2  6  0  0  0
  8  7  1  0  0  0  0
 10 19  1  1  0  0  0
 10  8  1  0  0  0  0
 11 17  1  1  0  0  0
 11  3  1  0  0  0  0
 11  7  1  0  0  0  0
 12  3  1  0  0  0  0
 12  5  1  0  0  0  0
 13 21  1  1  0  0  0
 13 14  1  0  0  0  0
 14 23  1  1  0  0  0
 15 13  1  0  0  0  0
 15 20  1  6  0  0  0
 18 17  1  1  0  0  0
 18 10  1  0  0  0  0
 18 15  1  0  0  0  0
 19  4  2  0  0  0  0
 22 21  1  0  0  0  0
 23 24  1  0  0  0  0
 26 27  1  0  0  0  0
 27 29  1  0  0  0  0
 28 25  1  1  0  0  0
 28 30  1  0  0  0  0
 28 26  1  0  0  0  0
 30 31  1  0  0  0  0
 31 32  1  1  0  0  0
 31 29  1  0  0  0  0
 32 33  2  0  0  0  0
 34 33  1  6  0  0  0
 34 37  1  0  0  0  0
 35 43  1  1  0  0  0
 35 42  1  0  0  0  0
 37 41  1  0  0  0  0
 37 39  1  0  0  0  0
 39 40  1  0  0  0  0
 40 36  1  0  0  0  0
 41 35  1  0  0  0  0
 42 36  1  0  0  0  0
 42 38  2  0  0  0  0
 44 45  1  0  0  0  0
 45 34  1  6  0  0  0
 46 47  2  0  0  0  0
 47 45  1  0  0  0  0
 48 46  1  0  0  0  0
 48 44  2  0  0  0  0
M  END
>  <MODEL>
5

>  <REMARK>
 VINA RESULT:      -7.8      5.956     11.690
  Name = 
  9 active torsions:
  status: ('A' for Active; 'I' for Inactive)
    1  A    between atoms: C_5  and  C_44
    2  A    between atoms: O_8  and  C_35
    3  A    between atoms: C_9  and  C_38
    4  A    between atoms: O_10  and  C_39
    5  A    between atoms: C_13  and  C_29
    6  A    between atoms: N_14  and  C_38
    7  A    between atoms: C_20  and  C_38
    8  A    between atoms: C_27  and  C_45
    9  A    between atoms: C_29  and  C_45
                            x       y       z     vdW  Elec       q    Type
                         _______ _______ _______ _____ _____    ______ ____

>  <TORSDO>
F 9

$$$$
=
 OpenBabel11062412063D

 48 53  0  0  1  0  0  0  0  0999 V2000
  184.7960  179.0080  138.3390 O   0  0  0  0  0  0  0  0  0  0  0  0
  184.5150  177.8470  138.0770 C   0  0  0  0  0  0  0  0  0  0  0  0
  182.8060  176.9550  135.6060 C   0  0  1  0  0  3  0  0  0  0  0  0
  179.7620  175.9210  140.8460 C   0  0  0  0  0  3  0  0  0  0  0  0
  182.2790  174.4780  135.3790 C   0  0  1  0  0  3  0  0  0  0  0  0
  181.3160  173.4990  134.7260 C   0  0  0  0  0  1  0  0  0  0  0  0
  183.0630  177.4010  138.1770 C   0  0  1  0  0  3  0  0  0  0  0  0
  182.2600  178.2790  139.5480 S   0  0  1  0  0  0  0  0  0  0  0  0
  182.2920  179.7390  139.1230 O   0  0  0  0  0  0  0  0  0  0  0  0
  180.5190  177.8340  139.3450 C   0  0  1  0  0  3  0  0  0  0  0  0
  182.2020  177.5510  136.8900 C   0  0  2  0  0  3  0  0  0  0  0  0
  181.9180  175.8940  134.9570 C   0  0  0  0  0  2  0  0  0  0  0  0
  180.9590  174.3430  137.6120 C   0  0  2  0  0  3  0  0  0  0  0  0
  182.3400  174.2880  136.9040 C   0  0  1  0  0  3  0  0  0  0  0  0
  180.9070  175.4110  138.7230 C   0  0  1  0  0  3  0  0  0  0  0  0
  183.0070  178.0650  134.5970 C   0  0  0  0  0  1  0  0  0  0  0  0
  180.8180  177.2200  136.9840 O   0  0  0  0  0  0  0  0  0  0  0  0
  180.3680  176.7790  138.2470 C   0  0  2  0  0  3  0  0  0  0  0  0
  179.9690  177.3260  140.6030 N   0  0  0  0  0  2  0  0  0  0  0  0
  180.1600  175.0010  139.9610 C   0  0  0  0  0  3  0  0  0  0  0  0
  180.4010  173.0850  137.9430 O   0  0  0  0  0  0  0  0  0  0  0  0
  179.2720  172.9540  137.2660 O   0  0  0  0  0  1  0  0  0  0  0  0
  183.0320  173.1110  137.2050 O   0  0  0  0  0  0  0  0  0  0  0  0
  184.3810  173.4770  137.2750 C   0  0  0  0  0  1  0  0  0  0  0  0
  185.6060  177.0030  137.4700 C   0  0  0  0  0  2  0  0  0  0  0  0
  187.8250  177.1090  136.3420 C   0  0  0  0  0  2  0  0  0  0  0  0
  188.8630  176.3460  137.0260 N   0  0  0  0  0  2  0  0  0  0  0  0
  186.8990  177.7990  137.3400 C   0  0  2  0  0  3  0  0  0  0  0  0
  189.7730  177.2900  137.6690 C   0  0  0  0  0  2  0  0  0  0  0  0
  187.5380  177.9720  138.7190 C   0  0  0  0  0  2  0  0  0  0  0  0
  189.0490  178.2000  138.6810 C   0  0  1  0  0  3  0  0  0  0  0  0
  189.5990  177.9590  140.0500 C   0  0  0  0  0  3  0  0  0  0  0  0
  188.9730  178.4060  141.1370 C   0  0  0  0  0  3  0  0  0  0  0  0
  189.5640  178.1670  142.5060 C   0  0  1  0  0  3  0  0  0  0  0  0
  186.0290  177.8470  143.4910 C   0  0  1  0  0  3  0  0  0  0  0  0
  186.6010  177.9040  145.9760 N   0  0  0  0  0  2  0  0  0  0  0  0
  188.4650  177.8090  143.4380 N   0  0  0  0  0  0  0  0  0  0  0  0
  184.5620  178.6770  145.1980 O   0  0  0  0  0  0  0  0  0  0  0  0
  188.7640  178.1850  144.8210 C   0  0  0  0  0  2  0  0  0  0  0  0
  187.9380  177.3400  145.7850 C   0  0  0  0  0  2  0  0  0  0  0  0
  187.2800  178.5810  143.0530 C   0  0  0  0  0  2  0  0  0  0  0  0
  185.6930  178.2070  144.9120 C   0  0  0  0  0  0  0  0  0  0  0  0
  184.9330  178.1660  142.5890 N   0  0  0  0  0  1  0  0  0  0  0  0
  191.6810  177.2180  143.5240 C   0  0  0  0  0  3  0  0  0  0  0  0
  190.6750  177.0920  142.4100 C   0  0  1  0  0  3  0  0  0  0  0  0
  190.7620  175.2480  143.7920 C   0  0  0  0  0  3  0  0  0  0  0  0
  190.1500  175.7220  142.7180 C   0  0  0  0  0  3  0  0  0  0  0  0
  191.7080  176.1820  144.2870 N   0  0  0  0  0  0  0  0  0  0  0  0
  2  1  2  0  0  0  0
  3 16  1  6  0  0  0
  3 11  1  0  0  0  0
  5  6  1  1  0  0  0
  5 14  1  0  0  0  0
  7  2  1  6  0  0  0
  7  8  1  0  0  0  0
  8  9  2  6  0  0  0
 10  8  1  0  0  0  0
 10 19  1  1  0  0  0
 11 17  1  1  0  0  0
 11  7  1  0  0  0  0
 12  5  1  0  0  0  0
 12  3  1  0  0  0  0
 13 21  1  1  0  0  0
 13 15  1  0  0  0  0
 14 23  1  6  0  0  0
 14 13  1  0  0  0  0
 15 20  1  1  0  0  0
 18 17  1  6  0  0  0
 18 15  1  0  0  0  0
 18 10  1  0  0  0  0
 19  4  1  0  0  0  0
 20  4  2  0  0  0  0
 22 21  1  0  0  0  0
 23 24  1  0  0  0  0
 25  2  1  0  0  0  0
 26 27  1  0  0  0  0
 26 28  1  0  0  0  0
 27 29  1  0  0  0  0
 28 25  1  1  0  0  0
 28 30  1  0  0  0  0
 29 31  1  0  0  0  0
 31 30  1  0  0  0  0
 31 32  1  1  0  0  0
 32 33  2  0  0  0  0
 34 33  1  6  0  0  0
 34 37  1  0  0  0  0
 35 43  1  6  0  0  0
 35 42  1  0  0  0  0
 37 39  1  0  0  0  0
 39 40  1  0  0  0  0
 40 36  1  0  0  0  0
 41 37  1  0  0  0  0
 41 35  1  0  0  0  0
 42 38  2  0  0  0  0
 42 36  1  0  0  0  0
 44 48  2  0  0  0  0
 45 34  1  1  0  0  0
 45 47  1  0  0  0  0
 45 44  1  0  0  0  0
 46 48  1  0  0  0  0
 47 46  2  0  0  0  0
M  END
>  <MODEL>
6

>  <REMARK>
 VINA RESULT:      -7.7      2.196      4.605
  Name = 
  9 active torsions:
  status: ('A' for Active; 'I' for Inactive)
    1  A    between atoms: C_5  and  C_44
    2  A    between atoms: O_8  and  C_35
    3  A    between atoms: C_9  and  C_38
    4  A    between atoms: O_10  and  C_39
    5  A    between atoms: C_13  and  C_29
    6  A    between atoms: N_14  and  C_38
    7  A    between atoms: C_20  and  C_38
    8  A    between atoms: C_27  and  C_45
    9  A    between atoms: C_29  and  C_45
                            x       y       z     vdW  Elec       q    Type
                         _______ _______ _______ _____ _____    ______ ____

>  <TORSDO>
F 9

$$$$
=
 OpenBabel11062412063D

 48 53  0  0  1  0  0  0  0  0999 V2000
  186.4350  178.8290  139.7140 O   0  0  0  0  0  0  0  0  0  0  0  0
  186.3470  177.9570  138.8630 C   0  0  0  0  0  0  0  0  0  0  0  0
  185.8440  176.9840  135.9260 C   0  0  1  0  0  3  0  0  0  0  0  0
  180.7300  176.4660  139.2960 C   0  0  0  0  0  3  0  0  0  0  0  0
  185.2860  174.5260  135.5850 C   0  0  1  0  0  3  0  0  0  0  0  0
  184.6410  173.5550  134.6100 C   0  0  0  0  0  1  0  0  0  0  0  0
  184.9710  177.5920  138.3220 C   0  0  1  0  0  3  0  0  0  0  0  0
  183.7140  178.6010  139.1560 S   0  0  1  0  0  0  0  0  0  0  0  0
  184.0410  180.0250  138.7330 O   0  0  0  0  0  0  0  0  0  0  0  0
  182.2140  178.2310  138.2160 C   0  0  1  0  0  3  0  0  0  0  0  0
  184.7820  177.6960  136.7810 C   0  0  2  0  0  3  0  0  0  0  0  0
  185.2570  175.9260  134.9910 C   0  0  0  0  0  2  0  0  0  0  0  0
  183.1100  174.6120  136.9990 C   0  0  2  0  0  3  0  0  0  0  0  0
  184.6530  174.4390  136.9840 C   0  0  1  0  0  3  0  0  0  0  0  0
  182.6530  175.7550  137.9280 C   0  0  1  0  0  3  0  0  0  0  0  0
  186.5540  178.0100  135.0690 C   0  0  0  0  0  1  0  0  0  0  0  0
  183.4780  177.4430  136.2610 O   0  0  0  0  0  0  0  0  0  0  0  0
  182.4850  177.1120  137.2090 C   0  0  2  0  0  3  0  0  0  0  0  0
  181.1280  177.8390  139.1160 N   0  0  0  0  0  2  0  0  0  0  0  0
  181.4070  175.4690  138.7180 C   0  0  0  0  0  3  0  0  0  0  0  0
  182.3700  173.4090  137.0960 O   0  0  0  0  0  0  0  0  0  0  0  0
  181.5700  173.3420  136.0450 O   0  0  0  0  0  1  0  0  0  0  0  0
  185.0500  173.2520  137.6070 O   0  0  0  0  0  0  0  0  0  0  0  0
  186.4420  173.2080  137.4760 C   0  0  0  0  0  1  0  0  0  0  0  0
  187.6370  177.4580  138.2620 C   0  0  0  0  0  2  0  0  0  0  0  0
  189.9130  176.8700  139.0880 C   0  0  0  0  0  2  0  0  0  0  0  0
  189.9030  176.1420  140.3520 N   0  0  0  0  0  2  0  0  0  0  0  0
  188.8350  177.9500  139.0670 C   0  0  2  0  0  3  0  0  0  0  0  0
  190.3670  177.0440  141.4020 C   0  0  0  0  0  2  0  0  0  0  0  0
  188.3800  178.3630  140.4670 C   0  0  0  0  0  2  0  0  0  0  0  0
  189.4830  178.3010  141.5240 C   0  0  1  0  0  3  0  0  0  0  0  0
  188.8470  178.3350  142.8750 C   0  0  0  0  0  3  0  0  0  0  0  0
  187.7600  177.6170  143.1480 C   0  0  0  0  0  3  0  0  0  0  0  0
  187.1250  177.6890  144.5170 C   0  0  1  0  0  3  0  0  0  0  0  0
  190.5490  177.2360  145.7990 C   0  0  1  0  0  3  0  0  0  0  0  0
  189.7890  177.4540  148.2240 N   0  0  0  0  0  2  0  0  0  0  0  0
  188.2020  177.8340  145.5280 N   0  0  0  0  0  0  0  0  0  0  0  0
  191.6420  176.1860  147.6590 O   0  0  0  0  0  0  0  0  0  0  0  0
  187.7170  177.6170  146.8930 C   0  0  0  0  0  2  0  0  0  0  0  0
  188.6410  178.3010  147.8940 C   0  0  0  0  0  2  0  0  0  0  0  0
  189.1980  176.7880  145.2790 C   0  0  0  0  0  2  0  0  0  0  0  0
  190.6800  176.8890  147.2570 C   0  0  0  0  0  0  0  0  0  0  0  0
  191.6050  176.6220  145.0090 N   0  0  0  0  0  1  0  0  0  0  0  0
  185.3880  178.9980  143.2190 C   0  0  0  0  0  3  0  0  0  0  0  0
  186.0840  178.8350  144.5450 C   0  0  1  0  0  3  0  0  0  0  0  0
  183.8100  178.4650  144.6420 C   0  0  0  0  0  3  0  0  0  0  0  0
  184.8980  178.4870  145.3950 C   0  0  0  0  0  3  0  0  0  0  0  0
  184.1210  178.7800  143.2950 N   0  0  0  0  0  0  0  0  0  0  0  0
  2  1  2  0  0  0  0
  3 16  1  6  0  0  0
  3 11  1  0  0  0  0
  5  6  1  6  0  0  0
  5 14  1  0  0  0  0
  7  2  1  6  0  0  0
  7  8  1  0  0  0  0
  8  9  2  6  0  0  0
 10 19  1  1  0  0  0
 10  8  1  0  0  0  0
 11 17  1  1  0  0  0
 11  7  1  0  0  0  0
 12  5  1  0  0  0  0
 12  3  1  0  0  0  0
 13 21  1  1  0  0  0
 13 15  1  0  0  0  0
 14 13  1  0  0  0  0
 14 23  1  6  0  0  0
 15 20  1  6  0  0  0
 18 17  1  1  0  0  0
 18 15  1  0  0  0  0
 18 10  1  0  0  0  0
 19  4  1  0  0  0  0
 20  4  2  0  0  0  0
 22 21  1  0  0  0  0
 24 23  1  0  0  0  0
 25  2  1  0  0  0  0
 26 27  1  0  0  0  0
 27 29  1  0  0  0  0
 28 25  1  6  0  0  0
 28 26  1  0  0  0  0
 28 30  1  0  0  0  0
 29 31  1  0  0  0  0
 30 31  1  0  0  0  0
 31 32  1  1  0  0  0
 32 33  2  0  0  0  0
 34 33  1  6  0  0  0
 34 37  1  0  0  0  0
 35 43  1  6  0  0  0
 35 42  1  0  0  0  0
 37 39  1  0  0  0  0
 39 40  1  0  0  0  0
 40 36  1  0  0  0  0
 41 37  1  0  0  0  0
 41 35  1  0  0  0  0
 42 38  2  0  0  0  0
 42 36  1  0  0  0  0
 44 48  2  0  0  0  0
 44 45  1  0  0  0  0
 45 34  1  6  0  0  0
 45 47  1  0  0  0  0
 46 47  2  0  0  0  0
 48 46  1  0  0  0  0
M  END
>  <MODEL>
7

>  <REMARK>
 VINA RESULT:      -7.5      2.501      5.337
  Name = 
  9 active torsions:
  status: ('A' for Active; 'I' for Inactive)
    1  A    between atoms: C_5  and  C_44
    2  A    between atoms: O_8  and  C_35
    3  A    between atoms: C_9  and  C_38
    4  A    between atoms: O_10  and  C_39
    5  A    between atoms: C_13  and  C_29
    6  A    between atoms: N_14  and  C_38
    7  A    between atoms: C_20  and  C_38
    8  A    between atoms: C_27  and  C_45
    9  A    between atoms: C_29  and  C_45
                            x       y       z     vdW  Elec       q    Type
                         _______ _______ _______ _____ _____    ______ ____

>  <TORSDO>
F 9

$$$$
=
 OpenBabel11062412063D

 48 53  0  0  1  0  0  0  0  0999 V2000
  184.1500  177.0920  139.0980 O   0  0  0  0  0  0  0  0  0  0  0  0
  183.4020  177.0390  138.1340 C   0  0  0  0  0  0  0  0  0  0  0  0
  180.8230  176.4460  139.8140 C   0  0  1  0  0  3  0  0  0  0  0  0
  180.4430  181.9560  137.1150 C   0  0  0  0  0  3  0  0  0  0  0  0
  180.3630  177.9380  141.8210 C   0  0  1  0  0  3  0  0  0  0  0  0
  179.2570  178.4110  142.7500 C   0  0  0  0  0  1  0  0  0  0  0  0
  182.1630  177.9240  138.1130 C   0  0  1  0  0  3  0  0  0  0  0  0
  182.0050  178.6940  136.4770 S   0  0  1  0  0  0  0  0  0  0  0  0
  181.7810  177.5220  135.5350 O   0  0  0  0  0  0  0  0  0  0  0  0
  180.3750  179.4720  136.5550 C   0  0  1  0  0  3  0  0  0  0  0  0
  180.8180  177.2440  138.4980 C   0  0  2  0  0  3  0  0  0  0  0  0
  179.7890  176.9420  140.8240 C   0  0  0  0  0  2  0  0  0  0  0  0
  180.1670  180.1150  140.4190 C   0  0  2  0  0  3  0  0  0  0  0  0
  181.0970  179.1160  141.1590 C   0  0  1  0  0  3  0  0  0  0  0  0
  180.5600  180.3020  138.9390 C   0  0  1  0  0  3  0  0  0  0  0  0
  180.5090  174.9960  139.5110 C   0  0  0  0  0  1  0  0  0  0  0  0
  179.6330  178.0310  138.4020 O   0  0  0  0  0  0  0  0  0  0  0  0
  179.8050  179.3640  137.9710 C   0  0  2  0  0  3  0  0  0  0  0  0
  180.4580  180.8790  136.1580 N   0  0  0  0  0  0  0  0  0  0  0  0
  180.4520  181.7120  138.4300 C   0  0  0  0  0  2  0  0  0  0  0  0
  179.8690  181.3020  141.1300 O   0  0  0  0  0  0  0  0  0  0  0  0
  178.9310  181.0150  142.0170 O   0  0  0  0  0  1  0  0  0  0  0  0
  181.9030  179.7580  142.1030 O   0  0  0  0  0  0  0  0  0  0  0  0
  182.9060  178.8380  142.4280 C   0  0  0  0  0  1  0  0  0  0  0  0
  183.8820  176.2520  136.9420 C   0  0  0  0  0  2  0  0  0  0  0  0
  185.5130  176.1780  135.0590 C   0  0  0  0  0  2  0  0  0  0  0  0
  186.8560  175.7840  135.4680 N   0  0  0  0  0  2  0  0  0  0  0  0
  184.8580  177.0740  136.1070 C   0  0  2  0  0  3  0  0  0  0  0  0
  187.7120  176.9670  135.4230 C   0  0  0  0  0  2  0  0  0  0  0  0
  185.8750  177.7540  137.0250 C   0  0  0  0  0  2  0  0  0  0  0  0
  187.2010  178.0920  136.3430 C   0  0  1  0  0  3  0  0  0  0  0  0
  188.2190  178.3720  137.4010 C   0  0  0  0  0  3  0  0  0  0  0  0
  188.3690  177.5670  138.4490 C   0  0  0  0  0  3  0  0  0  0  0  0
  189.3910  177.8880  139.5140 C   0  0  1  0  0  3  0  0  0  0  0  0
  188.8420  177.6910  143.1520 C   0  0  1  0  0  3  0  0  0  0  0  0
  186.3670  178.2630  142.9220 N   0  0  0  0  0  2  0  0  0  0  0  0
  188.6730  178.2030  140.7760 N   0  0  0  0  0  0  0  0  0  0  0  0
  187.1370  176.9540  144.6700 O   0  0  0  0  0  0  0  0  0  0  0  0
  187.2180  178.1880  140.6070 C   0  0  0  0  0  2  0  0  0  0  0  0
  186.5550  179.0310  141.6900 C   0  0  0  0  0  2  0  0  0  0  0  0
  188.9820  177.1470  141.7440 C   0  0  0  0  0  2  0  0  0  0  0  0
  187.4150  177.5720  143.6100 C   0  0  0  0  0  0  0  0  0  0  0  0
  189.7480  176.9810  144.0420 N   0  0  0  0  0  1  0  0  0  0  0  0
  190.4500  175.8810  138.3890 C   0  0  0  0  0  3  0  0  0  0  0  0
  190.3910  176.7120  139.6430 C   0  0  1  0  0  3  0  0  0  0  0  0
  192.4630  176.7080  138.6330 C   0  0  0  0  0  3  0  0  0  0  0  0
  191.8110  177.1920  139.6770 C   0  0  0  0  0  3  0  0  0  0  0  0
  191.6130  175.8990  137.8370 N   0  0  0  0  0  0  0  0  0  0  0  0
  2  1  2  0  0  0  0
  3 16  1  6  0  0  0
  3 12  1  0  0  0  0
  4 20  1  0  0  0  0
  5  6  1  6  0  0  0
  7  2  1  6  0  0  0
  7 11  1  0  0  0  0
  8  9  2  6  0  0  0
  8 10  1  0  0  0  0
  8  7  1  0  0  0  0
 10 19  1  1  0  0  0
 10 18  1  0  0  0  0
 11 17  1  1  0  0  0
 11  3  1  0  0  0  0
 12  5  1  0  0  0  0
 13 21  1  1  0  0  0
 13 14  1  0  0  0  0
 14  5  1  0  0  0  0
 14 23  1  1  0  0  0
 15 20  1  6  0  0  0
 15 13  1  0  0  0  0
 18 17  1  1  0  0  0
 18 15  1  0  0  0  0
 19  4  2  0  0  0  0
 21 22  1  0  0  0  0
 23 24  1  0  0  0  0
 25  2  1  0  0  0  0
 26 27  1  0  0  0  0
 26 28  1  0  0  0  0
 28 25  1  1  0  0  0
 28 30  1  0  0  0  0
 29 27  1  0  0  0  0
 29 31  1  0  0  0  0
 31 30  1  0  0  0  0
 31 32  1  1  0  0  0
 32 33  2  0  0  0  0
 34 33  1  6  0  0  0
 34 37  1  0  0  0  0
 35 42  1  0  0  0  0
 35 43  1  1  0  0  0
 36 42  1  0  0  0  0
 37 41  1  0  0  0  0
 39 37  1  0  0  0  0
 39 40  1  0  0  0  0
 40 36  1  0  0  0  0
 41 35  1  0  0  0  0
 42 38  2  0  0  0  0
 44 45  1  0  0  0  0
 45 34  1  6  0  0  0
 45 47  1  0  0  0  0
 46 47  2  0  0  0  0
 48 44  2  0  0  0  0
 48 46  1  0  0  0  0
M  END
>  <MODEL>
8

>  <REMARK>
 VINA RESULT:      -6.8      2.536      6.312
  Name = 
  9 active torsions:
  status: ('A' for Active; 'I' for Inactive)
    1  A    between atoms: C_5  and  C_44
    2  A    between atoms: O_8  and  C_35
    3  A    between atoms: C_9  and  C_38
    4  A    between atoms: O_10  and  C_39
    5  A    between atoms: C_13  and  C_29
    6  A    between atoms: N_14  and  C_38
    7  A    between atoms: C_20  and  C_38
    8  A    between atoms: C_27  and  C_45
    9  A    between atoms: C_29  and  C_45
                            x       y       z     vdW  Elec       q    Type
                         _______ _______ _______ _____ _____    ______ ____

>  <TORSDO>
F 9

$$$$
=
 OpenBabel11062412063D

 48 53  0  0  1  0  0  0  0  0999 V2000
  184.0910  176.3280  138.3660 O   0  0  0  0  0  0  0  0  0  0  0  0
  182.9760  176.0910  137.9230 C   0  0  0  0  0  0  0  0  0  0  0  0
  180.3850  175.9860  139.6840 C   0  0  1  0  0  3  0  0  0  0  0  0
  180.9650  181.4800  136.9890 C   0  0  0  0  0  3  0  0  0  0  0  0
  180.2770  177.5290  141.7020 C   0  0  1  0  0  3  0  0  0  0  0  0
  179.3090  178.1980  142.6650 C   0  0  0  0  0  1  0  0  0  0  0  0
  181.9260  177.1930  137.9400 C   0  0  1  0  0  3  0  0  0  0  0  0
  181.8660  177.9860  136.3080 S   0  0  1  0  0  0  0  0  0  0  0  0
  181.3960  176.8800  135.3760 O   0  0  0  0  0  0  0  0  0  0  0  0
  180.4140  179.0560  136.4350 C   0  0  1  0  0  3  0  0  0  0  0  0
  180.4900  176.7760  138.3680 C   0  0  2  0  0  3  0  0  0  0  0  0
  179.4950  176.6640  140.7260 C   0  0  0  0  0  2  0  0  0  0  0  0
  180.4510  179.7100  140.3020 C   0  0  2  0  0  3  0  0  0  0  0  0
  181.1990  178.5510  141.0150 C   0  0  1  0  0  3  0  0  0  0  0  0
  180.8260  179.8260  138.8110 C   0  0  1  0  0  3  0  0  0  0  0  0
  179.7950  174.6230  139.3930 C   0  0  0  0  0  1  0  0  0  0  0  0
  179.4710  177.7720  138.3070 O   0  0  0  0  0  0  0  0  0  0  0  0
  179.8780  179.0510  137.8680 C   0  0  2  0  0  3  0  0  0  0  0  0
  180.7480  180.4240  136.0330 N   0  0  0  0  0  0  0  0  0  0  0  0
  180.9700  181.2330  138.3030 C   0  0  0  0  0  2  0  0  0  0  0  0
  180.4040  180.9290  141.0210 O   0  0  0  0  0  0  0  0  0  0  0  0
  179.1320  181.2510  141.1850 O   0  0  0  0  0  1  0  0  0  0  0  0
  182.1410  179.0270  141.9320 O   0  0  0  0  0  0  0  0  0  0  0  0
  183.3830  178.6060  141.4460 C   0  0  0  0  0  1  0  0  0  0  0  0
  182.7970  174.7810  137.1990 C   0  0  0  0  0  2  0  0  0  0  0  0
  183.9270  173.1200  135.7250 C   0  0  0  0  0  2  0  0  0  0  0  0
  185.0130  172.4020  136.3820 N   0  0  0  0  0  2  0  0  0  0  0  0
  183.8920  174.5830  136.1570 C   0  0  2  0  0  3  0  0  0  0  0  0
  186.2780  172.8990  135.8470 C   0  0  0  0  0  2  0  0  0  0  0  0
  185.2300  175.0680  136.7180 C   0  0  0  0  0  2  0  0  0  0  0  0
  186.4510  174.4140  136.0700 C   0  0  1  0  0  3  0  0  0  0  0  0
  187.6380  174.6570  136.9440 C   0  0  0  0  0  3  0  0  0  0  0  0
  188.2610  175.8330  136.9570 C   0  0  0  0  0  3  0  0  0  0  0  0
  189.4720  176.0420  137.8340 C   0  0  1  0  0  3  0  0  0  0  0  0
  193.1000  175.6040  137.3660 C   0  0  1  0  0  3  0  0  0  0  0  0
  192.9350  175.9940  134.8510 N   0  0  0  0  0  2  0  0  0  0  0  0
  190.6880  175.7240  137.0430 N   0  0  0  0  0  0  0  0  0  0  0  0
  194.8580  176.5300  136.0220 O   0  0  0  0  0  0  0  0  0  0  0  0
  190.6320  176.2810  135.6890 C   0  0  0  0  0  2  0  0  0  0  0  0
  191.5580  175.5020  134.7620 C   0  0  0  0  0  2  0  0  0  0  0  0
  191.8310  176.3630  137.6990 C   0  0  0  0  0  2  0  0  0  0  0  0
  193.6750  176.1060  136.0700 C   0  0  0  0  0  0  0  0  0  0  0  0
  194.0520  175.7380  138.4580 N   0  0  0  0  0  1  0  0  0  0  0  0
  188.2500  178.2580  137.9440 C   0  0  0  0  0  3  0  0  0  0  0  0
  189.4580  177.4830  138.4020 C   0  0  1  0  0  3  0  0  0  0  0  0
  188.0730  178.1420  140.1240 C   0  0  0  0  0  3  0  0  0  0  0  0
  189.2020  177.4960  139.8790 C   0  0  0  0  0  3  0  0  0  0  0  0
  187.4880  178.6100  138.9200 N   0  0  0  0  0  0  0  0  0  0  0  0
  2  1  2  0  0  0  0
  3 16  1  6  0  0  0
  3 12  1  0  0  0  0
  4 20  1  0  0  0  0
  5  6  1  1  0  0  0
  7  2  1  6  0  0  0
  7 11  1  0  0  0  0
  8  9  2  6  0  0  0
  8 10  1  0  0  0  0
  8  7  1  0  0  0  0
 10 19  1  1  0  0  0
 10 18  1  0  0  0  0
 11 17  1  1  0  0  0
 11  3  1  0  0  0  0
 12  5  1  0  0  0  0
 13 14  1  0  0  0  0
 13 21  1  1  0  0  0
 14  5  1  0  0  0  0
 14 23  1  1  0  0  0
 15 20  1  6  0  0  0
 15 13  1  0  0  0  0
 18 17  1  1  0  0  0
 18 15  1  0  0  0  0
 19  4  2  0  0  0  0
 21 22  1  0  0  0  0
 24 23  1  0  0  0  0
 25  2  1  0  0  0  0
 26 28  1  0  0  0  0
 26 27  1  0  0  0  0
 28 30  1  0  0  0  0
 28 25  1  1  0  0  0
 29 31  1  0  0  0  0
 29 27  1  0  0  0  0
 31 30  1  0  0  0  0
 31 32  1  1  0  0  0
 32 33  2  0  0  0  0
 34 33  1  6  0  0  0
 35 41  1  0  0  0  0
 35 43  1  1  0  0  0
 36 42  1  0  0  0  0
 37 41  1  0  0  0  0
 37 34  1  0  0  0  0
 38 42  2  0  0  0  0
 39 37  1  0  0  0  0
 40 36  1  0  0  0  0
 40 39  1  0  0  0  0
 42 35  1  0  0  0  0
 44 45  1  0  0  0  0
 44 48  2  0  0  0  0
 45 34  1  6  0  0  0
 45 47  1  0  0  0  0
 47 46  2  0  0  0  0
 48 46  1  0  0  0  0
M  END
>  <MODEL>
9

>  <REMARK>
 VINA RESULT:      -6.8      3.664      6.744
  Name = 
  9 active torsions:
  status: ('A' for Active; 'I' for Inactive)
    1  A    between atoms: C_5  and  C_44
    2  A    between atoms: O_8  and  C_35
    3  A    between atoms: C_9  and  C_38
    4  A    between atoms: O_10  and  C_39
    5  A    between atoms: C_13  and  C_29
    6  A    between atoms: N_14  and  C_38
    7  A    between atoms: C_20  and  C_38
    8  A    between atoms: C_27  and  C_45
    9  A    between atoms: C_29  and  C_45
                            x       y       z     vdW  Elec       q    Type
                         _______ _______ _______ _____ _____    ______ ____

>  <TORSDO>
F 9

$$$$
