=
 OpenBabel11062417543D

 39 43  0  0  1  0  0  0  0  0999 V2000
  191.7560  176.9090  142.9920 C   0  0  0  0  0  3  0  0  0  0  0  0
  189.9140  177.1580  141.2140 C   0  0  0  0  0  0  0  0  0  0  0  0
  188.2650  176.6480  143.3650 C   0  0  1  0  0  3  0  0  0  0  0  0
  189.1270  176.9050  142.2870 C   0  0  0  0  0  0  0  0  0  0  0  0
  191.3040  177.1640  141.6070 C   0  0  0  0  0  3  0  0  0  0  0  0
  190.8990  176.6450  144.0610 N   0  0  0  0  0  0  0  0  0  0  0  0
  189.6430  176.6650  143.6240 C   0  0  0  0  0  0  0  0  0  0  0  0
  189.4070  177.3960  139.9000 N   0  0  0  0  0  2  0  0  0  0  0  0
  190.5530  175.6820  138.7850 O   0  0  0  0  0  0  0  0  0  0  0  0
  189.7850  176.6780  138.7220 C   0  0  0  0  0  0  0  0  0  0  0  0
  189.2700  177.1210  137.3970 C   0  0  0  0  0  2  0  0  0  0  0  0
  187.2810  175.5140  137.0010 C   0  0  0  0  0  2  0  0  0  0  0  0
  186.7770  177.7240  137.4680 C   0  0  0  0  0  0  0  0  0  0  0  0
  187.8510  176.8230  137.2800 N   0  0  0  0  0  0  0  0  0  0  0  0
  186.9100  178.9400  137.7550 O   0  0  0  0  0  0  0  0  0  0  0  0
  185.5270  177.0250  137.3030 C   0  0  0  0  0  0  0  0  0  0  0  0
  185.7870  175.7490  137.0400 C   0  0  0  0  0  3  0  0  0  0  0  0
  184.1670  177.6110  137.4630 C   0  0  0  0  0  2  0  0  0  0  0  0
  182.0480  179.6280  139.2920 N   0  0  0  0  0  0  0  0  0  0  0  0
  181.3950  177.3150  138.8460 C   0  0  0  0  0  2  0  0  0  0  0  0
  181.0990  178.7440  139.1940 C   0  0  0  0  0  3  0  0  0  0  0  0
  184.3000  180.1970  139.1380 O   0  0  0  0  0  0  0  0  0  0  0  0
  182.7490  176.9110  139.4240 C   0  0  0  0  0  2  0  0  0  0  0  0
  183.8520  177.8580  138.9350 C   0  0  2  0  0  3  0  0  0  0  0  0
  183.4330  179.2870  139.1340 C   0  0  0  0  0  0  0  0  0  0  0  0
  187.6800  177.8740  143.7870 O   0  0  0  0  0  0  0  0  0  0  0  0
  183.5430  178.6530  143.7320 C   0  0  0  0  0  0  0  0  0  0  0  0
  184.2040  178.3030  142.5570 C   0  0  0  0  0  3  0  0  0  0  0  0
  184.2520  178.7340  144.9340 C   0  0  0  0  0  3  0  0  0  0  0  0
  186.3020  178.1180  143.7840 C   0  0  0  0  0  0  0  0  0  0  0  0
  185.5760  178.0390  142.5820 C   0  0  0  0  0  3  0  0  0  0  0  0
  185.6300  178.4590  144.9830 C   0  0  0  0  0  0  0  0  0  0  0  0
  180.9970  179.1430  143.6890 N   0  0  0  0  0  0  0  0  0  0  0  0
  182.1330  178.9260  143.7090 C   0  0  0  0  0  0  0  0  0  0  0  0
  185.8560  179.3850  147.1490 O   0  0  0  0  0  0  0  0  0  0  0  0
  186.3120  178.5690  146.3030 C   0  0  0  0  0  0  0  0  0  0  0  0
  187.4350  177.3650  148.1900 C   0  0  0  0  0  1  0  0  0  0  0  0
  187.4930  177.7340  146.7180 C   0  0  2  0  0  3  0  0  0  0  0  0
  188.7030  178.3600  146.4110 O   0  0  0  0  0  1  0  0  0  0  0  0
  1  6  1  0  0  0  0
  2  5  1  0  0  0  0
  2  4  2  0  0  0  0
  3  7  1  0  0  0  0
  3 26  1  1  0  0  0
  4  3  1  0  0  0  0
  4  7  1  0  0  0  0
  5  1  2  0  0  0  0
  7  6  2  0  0  0  0
  8  2  1  0  0  0  0
 10  9  2  0  0  0  0
 10  8  1  0  0  0  0
 11 10  1  0  0  0  0
 12 17  1  0  0  0  0
 12 14  1  0  0  0  0
 13 15  2  0  0  0  0
 14 11  1  0  0  0  0
 14 13  1  0  0  0  0
 16 18  1  0  0  0  0
 16 13  1  0  0  0  0
 17 16  2  0  0  0  0
 20 21  1  0  0  0  0
 20 23  1  0  0  0  0
 21 19  2  0  0  0  0
 24 18  1  6  0  0  0
 24 25  1  0  0  0  0
 24 23  1  0  0  0  0
 25 22  2  0  0  0  0
 25 19  1  0  0  0  0
 27 29  1  0  0  0  0
 28 31  1  0  0  0  0
 28 27  2  0  0  0  0
 29 32  2  0  0  0  0
 30 26  1  0  0  0  0
 30 32  1  0  0  0  0
 31 30  2  0  0  0  0
 32 36  1  0  0  0  0
 33 34  3  0  0  0  0
 34 27  1  0  0  0  0
 36 38  1  0  0  0  0
 36 35  2  0  0  0  0
 38 37  1  1  0  0  0
 39 38  1  0  0  0  0
M  END
>  <MODEL>
1

>  <REMARK>
 VINA RESULT:      -9.0      0.000      0.000
  Name = 
  10 active torsions:
  status: ('A' for Active; 'I' for Inactive)
    1  A    between atoms: C_1  and  C_38
    2  A    between atoms: C_4  and  N_13
    3  A    between atoms: C_6  and  O_28
    4  A    between atoms: N_9  and  C_27
    5  A    between atoms: C_15  and  C_26
    6  A    between atoms: C_15  and  C_31
    7  A    between atoms: C_22  and  C_34
    8  A    between atoms: C_27  and  C_33
    9  A    between atoms: O_28  and  C_32
   10  A    between atoms: C_34  and  C_39
                            x       y       z     vdW  Elec       q    Type
                         _______ _______ _______ _____ _____    ______ ____

>  <TORSDO>
F 10

$$$$
=
 OpenBabel11062417543D

 39 43  0  0  1  0  0  0  0  0999 V2000
  181.2610  178.6400  142.4610 C   0  0  0  0  0  3  0  0  0  0  0  0
  183.1030  178.2050  140.7200 C   0  0  0  0  0  0  0  0  0  0  0  0
  184.7460  179.0340  142.7760 C   0  0  1  0  0  3  0  0  0  0  0  0
  183.8880  178.6160  141.7470 C   0  0  0  0  0  0  0  0  0  0  0  0
  181.7160  178.2160  141.1190 C   0  0  0  0  0  3  0  0  0  0  0  0
  182.1140  179.0630  143.4820 N   0  0  0  0  0  0  0  0  0  0  0  0
  183.3700  179.0170  143.0430 C   0  0  0  0  0  0  0  0  0  0  0  0
  183.6130  177.8090  139.4460 N   0  0  0  0  0  2  0  0  0  0  0  0
  184.9910  179.6640  139.0480 O   0  0  0  0  0  0  0  0  0  0  0  0
  184.5030  178.5800  138.6330 C   0  0  0  0  0  0  0  0  0  0  0  0
  184.8490  178.0990  137.2670 C   0  0  0  0  0  2  0  0  0  0  0  0
  186.0950  175.8320  137.3520 C   0  0  0  0  0  2  0  0  0  0  0  0
  187.3920  177.7480  137.2570 C   0  0  0  0  0  0  0  0  0  0  0  0
  186.0550  177.2860  137.3080 N   0  0  0  0  0  0  0  0  0  0  0  0
  187.7240  178.9570  137.1820 O   0  0  0  0  0  0  0  0  0  0  0  0
  188.2910  176.6220  137.2810 C   0  0  0  0  0  0  0  0  0  0  0  0
  187.5730  175.5060  137.3290 C   0  0  0  0  0  3  0  0  0  0  0  0
  189.7780  176.6860  137.2000 C   0  0  0  0  0  2  0  0  0  0  0  0
  192.4250  174.4940  137.4950 N   0  0  0  0  0  0  0  0  0  0  0  0
  192.7340  176.8250  138.1610 C   0  0  0  0  0  2  0  0  0  0  0  0
  193.2380  175.4840  137.7180 C   0  0  0  0  0  3  0  0  0  0  0  0
  190.2590  173.6460  137.3880 O   0  0  0  0  0  0  0  0  0  0  0  0
  191.4980  176.6500  139.0400 C   0  0  0  0  0  2  0  0  0  0  0  0
  190.4180  175.8490  138.3030 C   0  0  2  0  0  3  0  0  0  0  0  0
  191.0110  174.6000  137.7140 C   0  0  0  0  0  0  0  0  0  0  0  0
  185.3620  177.8880  143.3510 O   0  0  0  0  0  0  0  0  0  0  0  0
  187.6070  178.0540  146.9090 C   0  0  0  0  0  0  0  0  0  0  0  0
  186.2570  178.3990  146.9180 C   0  0  0  0  0  3  0  0  0  0  0  0
  188.2140  177.6400  145.7210 C   0  0  0  0  0  3  0  0  0  0  0  0
  186.1130  177.9220  144.5320 C   0  0  0  0  0  0  0  0  0  0  0  0
  185.5150  178.3360  145.7360 C   0  0  0  0  0  3  0  0  0  0  0  0
  187.4810  177.5560  144.5240 C   0  0  0  0  0  0  0  0  0  0  0  0
  188.9890  178.1680  149.1000 N   0  0  0  0  0  0  0  0  0  0  0  0
  188.3720  178.1180  148.1230 C   0  0  0  0  0  0  0  0  0  0  0  0
  188.2090  175.8780  143.0210 O   0  0  0  0  0  0  0  0  0  0  0  0
  188.2040  177.1080  143.3000 C   0  0  0  0  0  0  0  0  0  0  0  0
  188.5070  177.7510  140.8990 C   0  0  0  0  0  1  0  0  0  0  0  0
  188.8980  178.0350  142.3390 C   0  0  2  0  0  3  0  0  0  0  0  0
  190.2850  177.9970  142.4940 O   0  0  0  0  0  1  0  0  0  0  0  0
  1  6  1  0  0  0  0
  2  5  1  0  0  0  0
  2  4  2  0  0  0  0
  3  7  1  0  0  0  0
  3 26  1  1  0  0  0
  4  3  1  0  0  0  0
  4  7  1  0  0  0  0
  5  1  2  0  0  0  0
  7  6  2  0  0  0  0
  8  2  1  0  0  0  0
 10  9  2  0  0  0  0
 10  8  1  0  0  0  0
 11 14  1  0  0  0  0
 11 10  1  0  0  0  0
 13 16  1  0  0  0  0
 13 14  1  0  0  0  0
 14 12  1  0  0  0  0
 15 13  2  0  0  0  0
 16 17  2  0  0  0  0
 17 12  1  0  0  0  0
 18 16  1  0  0  0  0
 19 25  1  0  0  0  0
 19 21  2  0  0  0  0
 20 23  1  0  0  0  0
 21 20  1  0  0  0  0
 22 25  2  0  0  0  0
 24 18  1  6  0  0  0
 24 23  1  0  0  0  0
 25 24  1  0  0  0  0
 26 30  1  0  0  0  0
 27 28  1  0  0  0  0
 27 34  1  0  0  0  0
 29 27  2  0  0  0  0
 30 31  1  0  0  0  0
 31 28  2  0  0  0  0
 32 30  2  0  0  0  0
 32 29  1  0  0  0  0
 34 33  3  0  0  0  0
 35 36  2  0  0  0  0
 36 32  1  0  0  0  0
 38 37  1  6  0  0  0
 38 39  1  0  0  0  0
 38 36  1  0  0  0  0
M  END
>  <MODEL>
2

>  <REMARK>
 VINA RESULT:      -8.9      2.045      6.629
  Name = 
  10 active torsions:
  status: ('A' for Active; 'I' for Inactive)
    1  A    between atoms: C_1  and  C_38
    2  A    between atoms: C_4  and  N_13
    3  A    between atoms: C_6  and  O_28
    4  A    between atoms: N_9  and  C_27
    5  A    between atoms: C_15  and  C_26
    6  A    between atoms: C_15  and  C_31
    7  A    between atoms: C_22  and  C_34
    8  A    between atoms: C_27  and  C_33
    9  A    between atoms: O_28  and  C_32
   10  A    between atoms: C_34  and  C_39
                            x       y       z     vdW  Elec       q    Type
                         _______ _______ _______ _____ _____    ______ ____

>  <TORSDO>
F 10

$$$$
=
 OpenBabel11062417543D

 39 43  0  0  1  0  0  0  0  0999 V2000
  182.0490  178.3320  140.5910 C   0  0  0  0  0  3  0  0  0  0  0  0
  184.3910  178.7760  139.6250 C   0  0  0  0  0  0  0  0  0  0  0  0
  185.0030  179.2500  142.2730 C   0  0  1  0  0  3  0  0  0  0  0  0
  184.6650  179.0040  140.9330 C   0  0  0  0  0  0  0  0  0  0  0  0
  183.0030  178.4130  139.4630 C   0  0  0  0  0  3  0  0  0  0  0  0
  182.3840  178.5860  141.9220 N   0  0  0  0  0  0  0  0  0  0  0  0
  183.6750  178.9020  141.9910 C   0  0  0  0  0  0  0  0  0  0  0  0
  185.3650  178.8730  138.5850 N   0  0  0  0  0  2  0  0  0  0  0  0
  185.0830  176.7370  137.6620 O   0  0  0  0  0  0  0  0  0  0  0  0
  185.7100  177.8280  137.6710 C   0  0  0  0  0  0  0  0  0  0  0  0
  186.8390  178.0300  136.7200 C   0  0  0  0  0  2  0  0  0  0  0  0
  188.7470  178.4310  138.4220 C   0  0  0  0  0  2  0  0  0  0  0  0
  188.8970  176.5430  137.0920 C   0  0  0  0  0  0  0  0  0  0  0  0
  188.1020  177.6830  137.3540 N   0  0  0  0  0  0  0  0  0  0  0  0
  188.6170  175.6600  136.2430 O   0  0  0  0  0  0  0  0  0  0  0  0
  190.0470  176.5480  137.9610 C   0  0  0  0  0  0  0  0  0  0  0  0
  189.9840  177.6200  138.7420 C   0  0  0  0  0  3  0  0  0  0  0  0
  191.1020  175.4970  138.0240 C   0  0  0  0  0  2  0  0  0  0  0  0
  194.5210  175.0900  138.2490 N   0  0  0  0  0  0  0  0  0  0  0  0
  193.2420  173.6090  136.7840 C   0  0  0  0  0  2  0  0  0  0  0  0
  194.4420  173.9580  137.6140 C   0  0  0  0  0  3  0  0  0  0  0  0
  193.5800  177.1300  138.8620 O   0  0  0  0  0  0  0  0  0  0  0  0
  192.6650  174.8730  136.1500 C   0  0  0  0  0  2  0  0  0  0  0  0
  192.3330  175.9150  137.2250 C   0  0  2  0  0  3  0  0  0  0  0  0
  193.5020  176.0970  138.1500 C   0  0  0  0  0  0  0  0  0  0  0  0
  185.6980  178.1200  142.7850 O   0  0  0  0  0  0  0  0  0  0  0  0
  187.2360  177.9710  146.7020 C   0  0  0  0  0  0  0  0  0  0  0  0
  185.9760  178.5170  146.4650 C   0  0  0  0  0  3  0  0  0  0  0  0
  187.9860  177.4600  145.6390 C   0  0  0  0  0  3  0  0  0  0  0  0
  186.2120  178.0490  144.0860 C   0  0  0  0  0  0  0  0  0  0  0  0
  185.4680  178.5580  145.1650 C   0  0  0  0  0  3  0  0  0  0  0  0
  187.4860  177.4800  144.3240 C   0  0  0  0  0  0  0  0  0  0  0  0
  188.1820  177.8950  149.1150 N   0  0  0  0  0  0  0  0  0  0  0  0
  187.7610  177.9280  148.0380 C   0  0  0  0  0  0  0  0  0  0  0  0
  188.2810  175.6810  143.0060 O   0  0  0  0  0  0  0  0  0  0  0  0
  188.3490  176.9170  143.2470 C   0  0  0  0  0  0  0  0  0  0  0  0
  190.4580  178.2650  143.1800 C   0  0  0  0  0  1  0  0  0  0  0  0
  189.2740  177.7370  142.3890 C   0  0  2  0  0  3  0  0  0  0  0  0
  188.5990  178.7800  141.7510 O   0  0  0  0  0  1  0  0  0  0  0  0
  1  6  1  0  0  0  0
  2  4  2  0  0  0  0
  3 26  1  1  0  0  0
  4  7  1  0  0  0  0
  4  3  1  0  0  0  0
  5  2  1  0  0  0  0
  5  1  2  0  0  0  0
  6  7  2  0  0  0  0
  7  3  1  0  0  0  0
  8  2  1  0  0  0  0
  9 10  2  0  0  0  0
 10  8  1  0  0  0  0
 11 14  1  0  0  0  0
 11 10  1  0  0  0  0
 12 17  1  0  0  0  0
 13 14  1  0  0  0  0
 13 16  1  0  0  0  0
 14 12  1  0  0  0  0
 15 13  2  0  0  0  0
 16 18  1  0  0  0  0
 16 17  2  0  0  0  0
 20 21  1  0  0  0  0
 21 19  2  0  0  0  0
 23 20  1  0  0  0  0
 23 24  1  0  0  0  0
 24 18  1  1  0  0  0
 24 25  1  0  0  0  0
 25 19  1  0  0  0  0
 25 22  2  0  0  0  0
 26 30  1  0  0  0  0
 27 34  1  0  0  0  0
 28 27  1  0  0  0  0
 29 27  2  0  0  0  0
 30 32  2  0  0  0  0
 30 31  1  0  0  0  0
 31 28  2  0  0  0  0
 32 29  1  0  0  0  0
 34 33  3  0  0  0  0
 35 36  2  0  0  0  0
 36 32  1  0  0  0  0
 38 37  1  1  0  0  0
 38 36  1  0  0  0  0
 39 38  1  0  0  0  0
M  END
>  <MODEL>
3

>  <REMARK>
 VINA RESULT:      -8.9      2.587      6.930
  Name = 
  10 active torsions:
  status: ('A' for Active; 'I' for Inactive)
    1  A    between atoms: C_1  and  C_38
    2  A    between atoms: C_4  and  N_13
    3  A    between atoms: C_6  and  O_28
    4  A    between atoms: N_9  and  C_27
    5  A    between atoms: C_15  and  C_26
    6  A    between atoms: C_15  and  C_31
    7  A    between atoms: C_22  and  C_34
    8  A    between atoms: C_27  and  C_33
    9  A    between atoms: O_28  and  C_32
   10  A    between atoms: C_34  and  C_39
                            x       y       z     vdW  Elec       q    Type
                         _______ _______ _______ _____ _____    ______ ____

>  <TORSDO>
F 10

$$$$
=
 OpenBabel11062417543D

 39 43  0  0  1  0  0  0  0  0999 V2000
  184.7610  179.0100  139.3150 C   0  0  0  0  0  3  0  0  0  0  0  0
  187.0170  177.8880  138.7990 C   0  0  0  0  0  0  0  0  0  0  0  0
  187.5700  178.6190  141.4010 C   0  0  1  0  0  3  0  0  0  0  0  0
  187.2630  178.2590  140.0790 C   0  0  0  0  0  0  0  0  0  0  0  0
  185.6840  178.2870  138.4130 C   0  0  0  0  0  3  0  0  0  0  0  0
  185.0700  179.3760  140.6260 N   0  0  0  0  0  0  0  0  0  0  0  0
  186.3050  178.9680  140.9090 C   0  0  0  0  0  0  0  0  0  0  0  0
  187.9590  177.1890  137.9830 N   0  0  0  0  0  2  0  0  0  0  0  0
  189.0560  179.0510  137.0730 O   0  0  0  0  0  0  0  0  0  0  0  0
  188.9140  177.8000  137.1100 C   0  0  0  0  0  0  0  0  0  0  0  0
  189.7460  176.9430  136.2210 C   0  0  0  0  0  2  0  0  0  0  0  0
  191.3300  176.8700  138.2670 C   0  0  0  0  0  2  0  0  0  0  0  0
  192.1030  175.9310  136.2970 C   0  0  0  0  0  0  0  0  0  0  0  0
  191.0030  176.6100  136.8730 N   0  0  0  0  0  0  0  0  0  0  0  0
  192.1470  175.5280  135.1080 O   0  0  0  0  0  0  0  0  0  0  0  0
  193.1360  175.7610  137.2880 C   0  0  0  0  0  0  0  0  0  0  0  0
  192.7160  176.2860  138.4330 C   0  0  0  0  0  3  0  0  0  0  0  0
  194.4340  175.0570  137.0890 C   0  0  0  0  0  2  0  0  0  0  0  0
  195.7080  171.9020  136.5190 N   0  0  0  0  0  0  0  0  0  0  0  0
  196.9300  173.4290  137.9850 C   0  0  0  0  0  2  0  0  0  0  0  0
  196.8340  172.2410  137.0740 C   0  0  0  0  0  3  0  0  0  0  0  0
  193.4430  172.2940  136.1460 O   0  0  0  0  0  0  0  0  0  0  0  0
  195.6250  173.5960  138.7590 C   0  0  0  0  0  2  0  0  0  0  0  0
  194.4350  173.7070  137.7990 C   0  0  2  0  0  3  0  0  0  0  0  0
  194.4820  172.5990  136.7850 C   0  0  0  0  0  0  0  0  0  0  0  0
  187.4650  177.4650  142.2260 O   0  0  0  0  0  0  0  0  0  0  0  0
  187.8200  177.6160  146.4180 C   0  0  0  0  0  0  0  0  0  0  0  0
  186.6090  177.9340  145.8070 C   0  0  0  0  0  3  0  0  0  0  0  0
  188.9160  177.2350  145.6390 C   0  0  0  0  0  3  0  0  0  0  0  0
  187.5890  177.4950  143.6200 C   0  0  0  0  0  0  0  0  0  0  0  0
  186.4940  177.8750  144.4170 C   0  0  0  0  0  3  0  0  0  0  0  0
  188.8170  177.1570  144.2390 C   0  0  0  0  0  0  0  0  0  0  0  0
  188.0350  177.7230  149.0000 N   0  0  0  0  0  0  0  0  0  0  0  0
  187.9400  177.6760  147.8490 C   0  0  0  0  0  0  0  0  0  0  0  0
  190.0460  175.6070  142.9390 O   0  0  0  0  0  0  0  0  0  0  0  0
  190.0330  176.7450  143.4810 C   0  0  0  0  0  0  0  0  0  0  0  0
  190.9780  179.0530  143.7040 C   0  0  0  0  0  1  0  0  0  0  0  0
  191.2410  177.6190  143.2790 C   0  0  2  0  0  3  0  0  0  0  0  0
  191.7010  177.5680  141.9620 O   0  0  0  0  0  1  0  0  0  0  0  0
  1  6  1  0  0  0  0
  2  4  2  0  0  0  0
  3 26  1  1  0  0  0
  4  7  1  0  0  0  0
  4  3  1  0  0  0  0
  5  2  1  0  0  0  0
  5  1  2  0  0  0  0
  6  7  2  0  0  0  0
  7  3  1  0  0  0  0
  8  2  1  0  0  0  0
  9 10  2  0  0  0  0
 10  8  1  0  0  0  0
 11 14  1  0  0  0  0
 11 10  1  0  0  0  0
 12 17  1  0  0  0  0
 13 14  1  0  0  0  0
 13 16  1  0  0  0  0
 14 12  1  0  0  0  0
 15 13  2  0  0  0  0
 16 17  2  0  0  0  0
 18 16  1  0  0  0  0
 19 25  1  0  0  0  0
 19 21  2  0  0  0  0
 20 23  1  0  0  0  0
 21 20  1  0  0  0  0
 22 25  2  0  0  0  0
 24 18  1  6  0  0  0
 24 23  1  0  0  0  0
 25 24  1  0  0  0  0
 26 30  1  0  0  0  0
 27 34  1  0  0  0  0
 28 27  1  0  0  0  0
 29 27  2  0  0  0  0
 30 32  2  0  0  0  0
 30 31  1  0  0  0  0
 31 28  2  0  0  0  0
 32 29  1  0  0  0  0
 34 33  3  0  0  0  0
 35 36  2  0  0  0  0
 36 32  1  0  0  0  0
 38 36  1  0  0  0  0
 38 37  1  6  0  0  0
 39 38  1  0  0  0  0
M  END
>  <MODEL>
4

>  <REMARK>
 VINA RESULT:      -8.6      3.794      7.856
  Name = 
  10 active torsions:
  status: ('A' for Active; 'I' for Inactive)
    1  A    between atoms: C_1  and  C_38
    2  A    between atoms: C_4  and  N_13
    3  A    between atoms: C_6  and  O_28
    4  A    between atoms: N_9  and  C_27
    5  A    between atoms: C_15  and  C_26
    6  A    between atoms: C_15  and  C_31
    7  A    between atoms: C_22  and  C_34
    8  A    between atoms: C_27  and  C_33
    9  A    between atoms: O_28  and  C_32
   10  A    between atoms: C_34  and  C_39
                            x       y       z     vdW  Elec       q    Type
                         _______ _______ _______ _____ _____    ______ ____

>  <TORSDO>
F 10

$$$$
=
 OpenBabel11062417543D

 39 43  0  0  1  0  0  0  0  0999 V2000
  189.1170  177.7050  146.3710 C   0  0  0  0  0  3  0  0  0  0  0  0
  189.7310  177.8960  143.8810 C   0  0  0  0  0  0  0  0  0  0  0  0
  187.0590  177.2960  143.5440 C   0  0  1  0  0  3  0  0  0  0  0  0
  188.4150  177.5990  143.7430 C   0  0  0  0  0  0  0  0  0  0  0  0
  190.0830  177.9550  145.2800 C   0  0  0  0  0  3  0  0  0  0  0  0
  187.7700  177.3950  146.1720 N   0  0  0  0  0  0  0  0  0  0  0  0
  187.5220  177.3670  144.8650 C   0  0  0  0  0  0  0  0  0  0  0  0
  190.6090  178.1250  142.7780 N   0  0  0  0  0  2  0  0  0  0  0  0
  190.4250  176.0200  141.7620 O   0  0  0  0  0  0  0  0  0  0  0  0
  190.9620  177.1590  141.7840 C   0  0  0  0  0  0  0  0  0  0  0  0
  191.9920  177.5000  140.7640 C   0  0  0  0  0  2  0  0  0  0  0  0
  192.2060  176.0380  138.6390 C   0  0  0  0  0  2  0  0  0  0  0  0
  190.4200  177.5080  138.7350 C   0  0  0  0  0  0  0  0  0  0  0  0
  191.5610  177.0630  139.4450 N   0  0  0  0  0  0  0  0  0  0  0  0
  189.6130  178.3740  139.1560 O   0  0  0  0  0  0  0  0  0  0  0  0
  190.3260  176.7980  137.4840 C   0  0  0  0  0  0  0  0  0  0  0  0
  191.3370  175.9410  137.4050 C   0  0  0  0  0  3  0  0  0  0  0  0
  189.2430  176.9490  136.4710 C   0  0  0  0  0  2  0  0  0  0  0  0
  185.9520  177.5040  135.5980 N   0  0  0  0  0  0  0  0  0  0  0  0
  186.8770  175.2530  135.3710 C   0  0  0  0  0  2  0  0  0  0  0  0
  185.8870  176.3300  135.0410 C   0  0  0  0  0  3  0  0  0  0  0  0
  187.0110  179.0020  137.0310 O   0  0  0  0  0  0  0  0  0  0  0  0
  187.3090  175.3740  136.8300 C   0  0  0  0  0  2  0  0  0  0  0  0
  187.8700  176.7730  137.1140 C   0  0  2  0  0  3  0  0  0  0  0  0
  186.9290  177.8240  136.5990 C   0  0  0  0  0  0  0  0  0  0  0  0
  186.3670  178.4930  143.2100 O   0  0  0  0  0  0  0  0  0  0  0  0
  182.1970  178.9020  143.6220 C   0  0  0  0  0  0  0  0  0  0  0  0
  182.9920  178.6800  144.7450 C   0  0  0  0  0  3  0  0  0  0  0  0
  182.7850  179.0010  142.3590 C   0  0  0  0  0  3  0  0  0  0  0  0
  184.9810  178.6480  143.3380 C   0  0  0  0  0  0  0  0  0  0  0  0
  184.3750  178.5520  144.6040 C   0  0  0  0  0  3  0  0  0  0  0  0
  184.1770  178.8880  142.1970 C   0  0  0  0  0  0  0  0  0  0  0  0
  179.6280  179.1420  143.8800 N   0  0  0  0  0  0  0  0  0  0  0  0
  180.7730  179.0340  143.7650 C   0  0  0  0  0  0  0  0  0  0  0  0
  185.9640  178.8440  140.6450 O   0  0  0  0  0  0  0  0  0  0  0  0
  184.7260  179.0040  140.8160 C   0  0  0  0  0  0  0  0  0  0  0  0
  184.0160  178.1340  138.5770 C   0  0  0  0  0  1  0  0  0  0  0  0
  183.8880  179.2580  139.5920 C   0  0  2  0  0  3  0  0  0  0  0  0
  184.1860  180.4900  139.0070 O   0  0  0  0  0  1  0  0  0  0  0  0
  2  5  1  0  0  0  0
  3 26  1  1  0  0  0
  3  4  1  0  0  0  0
  3  7  1  0  0  0  0
  4  2  2  0  0  0  0
  4  7  1  0  0  0  0
  5  1  2  0  0  0  0
  6  1  1  0  0  0  0
  7  6  2  0  0  0  0
  8  2  1  0  0  0  0
  9 10  2  0  0  0  0
 10  8  1  0  0  0  0
 11 10  1  0  0  0  0
 12 14  1  0  0  0  0
 13 15  2  0  0  0  0
 13 14  1  0  0  0  0
 14 11  1  0  0  0  0
 16 13  1  0  0  0  0
 17 16  2  0  0  0  0
 17 12  1  0  0  0  0
 18 16  1  0  0  0  0
 19 25  1  0  0  0  0
 20 23  1  0  0  0  0
 21 20  1  0  0  0  0
 21 19  2  0  0  0  0
 23 24  1  0  0  0  0
 24 18  1  6  0  0  0
 25 22  2  0  0  0  0
 25 24  1  0  0  0  0
 26 30  1  0  0  0  0
 27 34  1  0  0  0  0
 27 28  1  0  0  0  0
 29 27  2  0  0  0  0
 30 31  1  0  0  0  0
 31 28  2  0  0  0  0
 32 29  1  0  0  0  0
 32 30  2  0  0  0  0
 34 33  3  0  0  0  0
 35 36  2  0  0  0  0
 36 32  1  0  0  0  0
 38 37  1  6  0  0  0
 38 36  1  0  0  0  0
 39 38  1  0  0  0  0
M  END
>  <MODEL>
5

>  <REMARK>
 VINA RESULT:      -8.3      1.951      4.660
  Name = 
  10 active torsions:
  status: ('A' for Active; 'I' for Inactive)
    1  A    between atoms: C_1  and  C_38
    2  A    between atoms: C_4  and  N_13
    3  A    between atoms: C_6  and  O_28
    4  A    between atoms: N_9  and  C_27
    5  A    between atoms: C_15  and  C_26
    6  A    between atoms: C_15  and  C_31
    7  A    between atoms: C_22  and  C_34
    8  A    between atoms: C_27  and  C_33
    9  A    between atoms: O_28  and  C_32
   10  A    between atoms: C_34  and  C_39
                            x       y       z     vdW  Elec       q    Type
                         _______ _______ _______ _____ _____    ______ ____

>  <TORSDO>
F 10

$$$$
=
 OpenBabel11062417543D

 39 43  0  0  1  0  0  0  0  0999 V2000
  191.2490  177.4230  138.3710 C   0  0  0  0  0  3  0  0  0  0  0  0
  188.7140  177.6370  138.7480 C   0  0  0  0  0  0  0  0  0  0  0  0
  189.3560  176.6000  141.2230 C   0  0  1  0  0  3  0  0  0  0  0  0
  189.0560  177.1260  139.9560 C   0  0  0  0  0  0  0  0  0  0  0  0
  189.8890  177.7950  137.9240 C   0  0  0  0  0  3  0  0  0  0  0  0
  191.5440  176.8920  139.6270 N   0  0  0  0  0  0  0  0  0  0  0  0
  190.4180  176.7850  140.3280 C   0  0  0  0  0  0  0  0  0  0  0  0
  187.3740  177.9740  138.3840 N   0  0  0  0  0  2  0  0  0  0  0  0
  186.8550  176.0260  137.1870 O   0  0  0  0  0  0  0  0  0  0  0  0
  186.5090  177.1740  137.5720 C   0  0  0  0  0  0  0  0  0  0  0  0
  185.1820  177.7120  137.1650 C   0  0  0  0  0  2  0  0  0  0  0  0
  183.4340  176.4440  138.5920 C   0  0  0  0  0  2  0  0  0  0  0  0
  183.9680  178.5990  139.2460 C   0  0  0  0  0  0  0  0  0  0  0  0
  184.2370  177.6130  138.2670 N   0  0  0  0  0  0  0  0  0  0  0  0
  184.5160  179.7300  139.2850 O   0  0  0  0  0  0  0  0  0  0  0  0
  183.0000  178.0940  140.1850 C   0  0  0  0  0  0  0  0  0  0  0  0
  182.6790  176.8530  139.8380 C   0  0  0  0  0  3  0  0  0  0  0  0
  182.4870  178.8120  141.3870 C   0  0  0  0  0  2  0  0  0  0  0  0
  179.7520  180.2830  142.8890 N   0  0  0  0  0  0  0  0  0  0  0  0
  179.9780  180.4020  140.4590 C   0  0  0  0  0  2  0  0  0  0  0  0
  179.4440  180.8800  141.7760 C   0  0  0  0  0  3  0  0  0  0  0  0
  180.9180  178.6240  144.0340 O   0  0  0  0  0  0  0  0  0  0  0  0
  180.1370  178.8830  140.4830 C   0  0  0  0  0  2  0  0  0  0  0  0
  181.0290  178.4510  141.6530 C   0  0  2  0  0  3  0  0  0  0  0  0
  180.5680  179.1020  142.9250 C   0  0  0  0  0  0  0  0  0  0  0  0
  189.3370  177.6580  142.1740 O   0  0  0  0  0  0  0  0  0  0  0  0
  186.3840  178.1030  145.1420 C   0  0  0  0  0  0  0  0  0  0  0  0
  186.0210  178.0380  143.7990 C   0  0  0  0  0  3  0  0  0  0  0  0
  187.7300  178.0070  145.5060 C   0  0  0  0  0  3  0  0  0  0  0  0
  188.3620  177.7880  143.1700 C   0  0  0  0  0  0  0  0  0  0  0  0
  187.0040  177.8830  142.8180 C   0  0  0  0  0  3  0  0  0  0  0  0
  188.7330  177.8380  144.5360 C   0  0  0  0  0  0  0  0  0  0  0  0
  184.5640  178.3880  146.9670 N   0  0  0  0  0  0  0  0  0  0  0  0
  185.3750  178.2620  146.1520 C   0  0  0  0  0  0  0  0  0  0  0  0
  190.9530  178.6520  144.6640 O   0  0  0  0  0  0  0  0  0  0  0  0
  190.1440  177.7470  145.0070 C   0  0  0  0  0  0  0  0  0  0  0  0
  190.6660  177.0910  147.3670 C   0  0  0  0  0  1  0  0  0  0  0  0
  190.6670  176.6620  145.9100 C   0  0  2  0  0  3  0  0  0  0  0  0
  191.9360  176.2310  145.5200 O   0  0  0  0  0  1  0  0  0  0  0  0
  1  6  1  0  0  0  0
  2  4  2  0  0  0  0
  3 26  1  1  0  0  0
  4  7  1  0  0  0  0
  4  3  1  0  0  0  0
  5  1  2  0  0  0  0
  5  2  1  0  0  0  0
  6  7  2  0  0  0  0
  7  3  1  0  0  0  0
  8  2  1  0  0  0  0
  9 10  2  0  0  0  0
 10  8  1  0  0  0  0
 11 10  1  0  0  0  0
 11 14  1  0  0  0  0
 12 17  1  0  0  0  0
 13 15  2  0  0  0  0
 13 16  1  0  0  0  0
 14 12  1  0  0  0  0
 14 13  1  0  0  0  0
 16 18  1  0  0  0  0
 17 16  2  0  0  0  0
 19 25  1  0  0  0  0
 20 23  1  0  0  0  0
 20 21  1  0  0  0  0
 21 19  2  0  0  0  0
 23 24  1  0  0  0  0
 24 18  1  6  0  0  0
 24 25  1  0  0  0  0
 25 22  2  0  0  0  0
 26 30  1  0  0  0  0
 27 29  1  0  0  0  0
 27 34  1  0  0  0  0
 28 27  2  0  0  0  0
 30 32  1  0  0  0  0
 31 30  2  0  0  0  0
 31 28  1  0  0  0  0
 32 36  1  0  0  0  0
 32 29  2  0  0  0  0
 34 33  3  0  0  0  0
 35 36  2  0  0  0  0
 36 38  1  0  0  0  0
 38 37  1  1  0  0  0
 39 38  1  0  0  0  0
M  END
>  <MODEL>
6

>  <REMARK>
 VINA RESULT:      -8.3      2.258      3.801
  Name = 
  10 active torsions:
  status: ('A' for Active; 'I' for Inactive)
    1  A    between atoms: C_1  and  C_38
    2  A    between atoms: C_4  and  N_13
    3  A    between atoms: C_6  and  O_28
    4  A    between atoms: N_9  and  C_27
    5  A    between atoms: C_15  and  C_26
    6  A    between atoms: C_15  and  C_31
    7  A    between atoms: C_22  and  C_34
    8  A    between atoms: C_27  and  C_33
    9  A    between atoms: O_28  and  C_32
   10  A    between atoms: C_34  and  C_39
                            x       y       z     vdW  Elec       q    Type
                         _______ _______ _______ _____ _____    ______ ____

>  <TORSDO>
F 10

$$$$
=
 OpenBabel11062417543D

 39 43  0  0  1  0  0  0  0  0999 V2000
  191.8670  177.4090  142.6140 C   0  0  0  0  0  3  0  0  0  0  0  0
  190.3550  177.1850  140.5450 C   0  0  0  0  0  0  0  0  0  0  0  0
  188.3730  177.0030  142.4560 C   0  0  1  0  0  3  0  0  0  0  0  0
  189.4010  177.0980  141.5040 C   0  0  0  0  0  0  0  0  0  0  0  0
  191.6550  177.3570  141.1510 C   0  0  0  0  0  3  0  0  0  0  0  0
  190.8460  177.3060  143.5590 N   0  0  0  0  0  0  0  0  0  0  0  0
  189.6840  177.1590  142.9280 C   0  0  0  0  0  0  0  0  0  0  0  0
  190.0760  177.1260  139.1450 N   0  0  0  0  0  2  0  0  0  0  0  0
  188.9450  179.1700  138.9450 O   0  0  0  0  0  0  0  0  0  0  0  0
  189.3360  178.1010  138.4060 C   0  0  0  0  0  0  0  0  0  0  0  0
  189.0110  177.8440  136.9750 C   0  0  0  0  0  2  0  0  0  0  0  0
  186.4570  178.2550  136.9040 C   0  0  0  0  0  2  0  0  0  0  0  0
  187.1870  176.0830  136.5760 C   0  0  0  0  0  0  0  0  0  0  0  0
  187.6320  177.4000  136.8420 N   0  0  0  0  0  0  0  0  0  0  0  0
  187.9460  175.0920  136.4300 O   0  0  0  0  0  0  0  0  0  0  0  0
  185.7500  176.0710  136.4780 C   0  0  0  0  0  0  0  0  0  0  0  0
  185.3020  177.3090  136.6560 C   0  0  0  0  0  3  0  0  0  0  0  0
  184.9020  174.8860  136.1660 C   0  0  0  0  0  2  0  0  0  0  0  0
  182.2280  172.8730  137.0050 N   0  0  0  0  0  0  0  0  0  0  0  0
  184.4460  171.8700  136.7840 C   0  0  0  0  0  2  0  0  0  0  0  0
  182.9470  171.8090  136.8020 C   0  0  0  0  0  3  0  0  0  0  0  0
  182.0780  175.1680  137.3710 O   0  0  0  0  0  0  0  0  0  0  0  0
  184.9340  172.9370  137.7610 C   0  0  0  0  0  2  0  0  0  0  0  0
  184.3020  174.2960  137.4390 C   0  0  2  0  0  3  0  0  0  0  0  0
  182.8160  174.1530  137.2820 C   0  0  0  0  0  0  0  0  0  0  0  0
  187.6880  178.2480  142.5150 O   0  0  0  0  0  0  0  0  0  0  0  0
  183.5980  178.7510  141.6550 C   0  0  0  0  0  0  0  0  0  0  0  0
  184.5370  178.7810  140.6260 C   0  0  0  0  0  3  0  0  0  0  0  0
  184.0120  178.5420  142.9730 C   0  0  0  0  0  3  0  0  0  0  0  0
  186.3240  178.3960  142.2380 C   0  0  0  0  0  0  0  0  0  0  0  0
  185.8920  178.6070  140.9160 C   0  0  0  0  0  3  0  0  0  0  0  0
  185.3700  178.3510  143.2840 C   0  0  0  0  0  0  0  0  0  0  0  0
  181.0810  179.0770  141.1240 N   0  0  0  0  0  0  0  0  0  0  0  0
  182.2040  178.9310  141.3590 C   0  0  0  0  0  0  0  0  0  0  0  0
  186.4210  177.1250  145.0150 O   0  0  0  0  0  0  0  0  0  0  0  0
  185.7290  178.1350  144.7140 C   0  0  0  0  0  0  0  0  0  0  0  0
  186.2250  178.8610  147.0590 C   0  0  0  0  0  1  0  0  0  0  0  0
  185.3570  179.0740  145.8310 C   0  0  2  0  0  3  0  0  0  0  0  0
  184.0030  178.9770  146.1570 O   0  0  0  0  0  1  0  0  0  0  0  0
  1  6  1  0  0  0  0
  2  5  1  0  0  0  0
  2  4  2  0  0  0  0
  3 26  1  6  0  0  0
  3  7  1  0  0  0  0
  4  3  1  0  0  0  0
  4  7  1  0  0  0  0
  5  1  2  0  0  0  0
  7  6  2  0  0  0  0
  8  2  1  0  0  0  0
 10  9  2  0  0  0  0
 10  8  1  0  0  0  0
 11 10  1  0  0  0  0
 13 14  1  0  0  0  0
 14 12  1  0  0  0  0
 14 11  1  0  0  0  0
 15 13  2  0  0  0  0
 16 13  1  0  0  0  0
 16 17  2  0  0  0  0
 17 12  1  0  0  0  0
 18 16  1  0  0  0  0
 19 25  1  0  0  0  0
 20 21  1  0  0  0  0
 20 23  1  0  0  0  0
 21 19  2  0  0  0  0
 24 18  1  6  0  0  0
 24 23  1  0  0  0  0
 25 22  2  0  0  0  0
 25 24  1  0  0  0  0
 27 29  1  0  0  0  0
 28 31  1  0  0  0  0
 28 27  2  0  0  0  0
 29 32  2  0  0  0  0
 30 26  1  0  0  0  0
 30 32  1  0  0  0  0
 31 30  2  0  0  0  0
 32 36  1  0  0  0  0
 33 34  3  0  0  0  0
 34 27  1  0  0  0  0
 36 35  2  0  0  0  0
 36 38  1  0  0  0  0
 38 39  1  0  0  0  0
 38 37  1  1  0  0  0
M  END
>  <MODEL>
7

>  <REMARK>
 VINA RESULT:      -8.2      2.317      3.217
  Name = 
  10 active torsions:
  status: ('A' for Active; 'I' for Inactive)
    1  A    between atoms: C_1  and  C_38
    2  A    between atoms: C_4  and  N_13
    3  A    between atoms: C_6  and  O_28
    4  A    between atoms: N_9  and  C_27
    5  A    between atoms: C_15  and  C_26
    6  A    between atoms: C_15  and  C_31
    7  A    between atoms: C_22  and  C_34
    8  A    between atoms: C_27  and  C_33
    9  A    between atoms: O_28  and  C_32
   10  A    between atoms: C_34  and  C_39
                            x       y       z     vdW  Elec       q    Type
                         _______ _______ _______ _____ _____    ______ ____

>  <TORSDO>
F 10

$$$$
=
 OpenBabel11062417543D

 39 43  0  0  1  0  0  0  0  0999 V2000
  191.2560  177.0260  144.9510 C   0  0  0  0  0  3  0  0  0  0  0  0
  190.0220  176.8870  142.7000 C   0  0  0  0  0  0  0  0  0  0  0  0
  187.7960  176.8280  144.3290 C   0  0  1  0  0  3  0  0  0  0  0  0
  188.9450  176.8590  143.5230 C   0  0  0  0  0  0  0  0  0  0  0  0
  191.2370  176.9830  143.4730 C   0  0  0  0  0  3  0  0  0  0  0  0
  190.1140  176.9860  145.7530 N   0  0  0  0  0  0  0  0  0  0  0  0
  189.0400  176.9070  144.9720 C   0  0  0  0  0  0  0  0  0  0  0  0
  189.9280  176.8420  141.2750 N   0  0  0  0  0  2  0  0  0  0  0  0
  192.0620  177.6750  140.7750 O   0  0  0  0  0  0  0  0  0  0  0  0
  190.9370  177.2860  140.3630 C   0  0  0  0  0  0  0  0  0  0  0  0
  190.6500  177.2990  138.9020 C   0  0  0  0  0  2  0  0  0  0  0  0
  190.5940  174.9430  137.8320 C   0  0  0  0  0  2  0  0  0  0  0  0
  192.6320  176.0400  137.8660 C   0  0  0  0  0  0  0  0  0  0  0  0
  191.2760  176.1570  138.2530 N   0  0  0  0  0  0  0  0  0  0  0  0
  193.5030  176.9270  138.0500 O   0  0  0  0  0  0  0  0  0  0  0  0
  192.8390  174.7700  137.2170 C   0  0  0  0  0  0  0  0  0  0  0  0
  191.6810  174.1200  137.1770 C   0  0  0  0  0  3  0  0  0  0  0  0
  194.1190  174.2860  136.6270 C   0  0  0  0  0  2  0  0  0  0  0  0
  196.9650  172.3360  136.6420 N   0  0  0  0  0  0  0  0  0  0  0  0
  196.7080  174.0740  138.3410 C   0  0  0  0  0  2  0  0  0  0  0  0
  197.5230  173.1320  137.5060 C   0  0  0  0  0  3  0  0  0  0  0  0
  195.0590  171.5510  135.5570 O   0  0  0  0  0  0  0  0  0  0  0  0
  195.3520  173.4470  138.6570 C   0  0  0  0  0  2  0  0  0  0  0  0
  194.6240  173.0510  137.3670 C   0  0  2  0  0  3  0  0  0  0  0  0
  195.5410  172.2630  136.4750 C   0  0  0  0  0  0  0  0  0  0  0  0
  187.1850  178.1120  144.3040 O   0  0  0  0  0  0  0  0  0  0  0  0
  183.1870  178.8100  143.1840 C   0  0  0  0  0  0  0  0  0  0  0  0
  184.1530  178.5660  142.2110 C   0  0  0  0  0  3  0  0  0  0  0  0
  183.5430  178.8120  144.5350 C   0  0  0  0  0  3  0  0  0  0  0  0
  185.8490  178.3280  143.9440 C   0  0  0  0  0  0  0  0  0  0  0  0
  185.4760  178.3270  142.5880 C   0  0  0  0  0  3  0  0  0  0  0  0
  184.8670  178.5620  144.9370 C   0  0  0  0  0  0  0  0  0  0  0  0
  180.7290  179.2530  142.4860 N   0  0  0  0  0  0  0  0  0  0  0  0
  181.8250  179.0560  142.7990 C   0  0  0  0  0  0  0  0  0  0  0  0
  184.3780  177.9840  147.1800 O   0  0  0  0  0  0  0  0  0  0  0  0
  185.1640  178.5830  146.3970 C   0  0  0  0  0  0  0  0  0  0  0  0
  187.2180  178.2520  147.7900 C   0  0  0  0  0  1  0  0  0  0  0  0
  186.3740  179.2410  147.0050 C   0  0  2  0  0  3  0  0  0  0  0  0
  186.0240  180.3340  147.8000 O   0  0  0  0  0  1  0  0  0  0  0  0
  1  6  1  0  0  0  0
  2  5  1  0  0  0  0
  2  4  2  0  0  0  0
  3 26  1  6  0  0  0
  3  7  1  0  0  0  0
  4  3  1  0  0  0  0
  4  7  1  0  0  0  0
  5  1  2  0  0  0  0
  7  6  2  0  0  0  0
  8  2  1  0  0  0  0
 10  9  2  0  0  0  0
 10  8  1  0  0  0  0
 11 10  1  0  0  0  0
 12 14  1  0  0  0  0
 13 15  2  0  0  0  0
 13 14  1  0  0  0  0
 14 11  1  0  0  0  0
 16 13  1  0  0  0  0
 17 16  2  0  0  0  0
 17 12  1  0  0  0  0
 18 16  1  0  0  0  0
 19 21  2  0  0  0  0
 20 23  1  0  0  0  0
 21 20  1  0  0  0  0
 22 25  2  0  0  0  0
 24 18  1  6  0  0  0
 24 23  1  0  0  0  0
 25 19  1  0  0  0  0
 25 24  1  0  0  0  0
 27 29  1  0  0  0  0
 28 31  1  0  0  0  0
 28 27  2  0  0  0  0
 29 32  2  0  0  0  0
 30 26  1  0  0  0  0
 30 32  1  0  0  0  0
 31 30  2  0  0  0  0
 32 36  1  0  0  0  0
 33 34  3  0  0  0  0
 34 27  1  0  0  0  0
 36 38  1  0  0  0  0
 36 35  2  0  0  0  0
 38 37  1  1  0  0  0
 38 39  1  0  0  0  0
M  END
>  <MODEL>
8

>  <REMARK>
 VINA RESULT:      -8.1      3.682      7.046
  Name = 
  10 active torsions:
  status: ('A' for Active; 'I' for Inactive)
    1  A    between atoms: C_1  and  C_38
    2  A    between atoms: C_4  and  N_13
    3  A    between atoms: C_6  and  O_28
    4  A    between atoms: N_9  and  C_27
    5  A    between atoms: C_15  and  C_26
    6  A    between atoms: C_15  and  C_31
    7  A    between atoms: C_22  and  C_34
    8  A    between atoms: C_27  and  C_33
    9  A    between atoms: O_28  and  C_32
   10  A    between atoms: C_34  and  C_39
                            x       y       z     vdW  Elec       q    Type
                         _______ _______ _______ _____ _____    ______ ____

>  <TORSDO>
F 10

$$$$
=
 OpenBabel11062417543D

 39 43  0  0  1  0  0  0  0  0999 V2000
  191.4810  176.8550  143.6360 C   0  0  0  0  0  3  0  0  0  0  0  0
  190.0770  177.2220  141.5130 C   0  0  0  0  0  0  0  0  0  0  0  0
  187.9820  176.7890  143.2530 C   0  0  1  0  0  3  0  0  0  0  0  0
  189.0660  177.0050  142.3890 C   0  0  0  0  0  0  0  0  0  0  0  0
  191.3500  177.1470  142.1920 C   0  0  0  0  0  3  0  0  0  0  0  0
  190.4020  176.6310  144.4930 N   0  0  0  0  0  0  0  0  0  0  0  0
  189.2710  176.7260  143.7990 C   0  0  0  0  0  0  0  0  0  0  0  0
  189.8760  177.4990  140.1260 N   0  0  0  0  0  2  0  0  0  0  0  0
  188.0910  179.0040  140.3430 O   0  0  0  0  0  0  0  0  0  0  0  0
  188.8540  178.3450  139.5890 C   0  0  0  0  0  0  0  0  0  0  0  0
  188.6810  178.4380  138.1130 C   0  0  0  0  0  2  0  0  0  0  0  0
  187.8830  176.1650  137.1670 C   0  0  0  0  0  2  0  0  0  0  0  0
  186.2530  177.7270  137.6810 C   0  0  0  0  0  0  0  0  0  0  0  0
  187.6520  177.5130  137.6640 N   0  0  0  0  0  0  0  0  0  0  0  0
  185.7000  178.7810  138.0830 O   0  0  0  0  0  0  0  0  0  0  0  0
  185.5810  176.5500  137.1920 C   0  0  0  0  0  0  0  0  0  0  0  0
  186.4930  175.6320  136.8950 C   0  0  0  0  0  3  0  0  0  0  0  0
  184.1050  176.3600  137.0940 C   0  0  0  0  0  2  0  0  0  0  0  0
  181.1490  175.2620  138.4930 N   0  0  0  0  0  0  0  0  0  0  0  0
  181.9200  174.2560  136.4030 C   0  0  0  0  0  2  0  0  0  0  0  0
  180.8620  174.6070  137.4070 C   0  0  0  0  0  3  0  0  0  0  0  0
  182.7030  176.3540  139.8410 O   0  0  0  0  0  0  0  0  0  0  0  0
  183.2450  173.9930  137.1160 C   0  0  0  0  0  2  0  0  0  0  0  0
  183.6470  175.2000  137.9730 C   0  0  2  0  0  3  0  0  0  0  0  0
  182.4940  175.6350  138.8300 C   0  0  0  0  0  0  0  0  0  0  0  0
  187.3870  178.0430  143.5650 O   0  0  0  0  0  0  0  0  0  0  0  0
  183.2560  178.8190  143.3270 C   0  0  0  0  0  0  0  0  0  0  0  0
  183.9700  178.4740  142.1810 C   0  0  0  0  0  3  0  0  0  0  0  0
  183.9100  178.8960  144.5590 C   0  0  0  0  0  3  0  0  0  0  0  0
  186.0100  178.2850  143.5000 C   0  0  0  0  0  0  0  0  0  0  0  0
  185.3390  178.2100  142.2670 C   0  0  0  0  0  3  0  0  0  0  0  0
  185.2840  178.6210  144.6690 C   0  0  0  0  0  0  0  0  0  0  0  0
  180.7150  179.3090  143.1690 N   0  0  0  0  0  0  0  0  0  0  0  0
  181.8480  179.0900  143.2410 C   0  0  0  0  0  0  0  0  0  0  0  0
  185.8340  179.8280  146.6300 O   0  0  0  0  0  0  0  0  0  0  0  0
  185.9060  178.7270  146.0190 C   0  0  0  0  0  0  0  0  0  0  0  0
  188.0520  177.8780  146.9920 C   0  0  0  0  0  1  0  0  0  0  0  0
  186.5840  177.5870  146.7310 C   0  0  2  0  0  3  0  0  0  0  0  0
  186.4310  176.3830  146.0410 O   0  0  0  0  0  1  0  0  0  0  0  0
  1  6  1  0  0  0  0
  2  5  1  0  0  0  0
  2  4  2  0  0  0  0
  3 26  1  1  0  0  0
  3  7  1  0  0  0  0
  4  3  1  0  0  0  0
  4  7  1  0  0  0  0
  5  1  2  0  0  0  0
  7  6  2  0  0  0  0
  8  2  1  0  0  0  0
 10  8  1  0  0  0  0
 10  9  2  0  0  0  0
 11 10  1  0  0  0  0
 12 14  1  0  0  0  0
 13 15  2  0  0  0  0
 14 13  1  0  0  0  0
 14 11  1  0  0  0  0
 16 13  1  0  0  0  0
 17 12  1  0  0  0  0
 17 16  2  0  0  0  0
 18 16  1  0  0  0  0
 19 25  1  0  0  0  0
 20 23  1  0  0  0  0
 20 21  1  0  0  0  0
 21 19  2  0  0  0  0
 23 24  1  0  0  0  0
 24 18  1  6  0  0  0
 24 25  1  0  0  0  0
 25 22  2  0  0  0  0
 27 29  1  0  0  0  0
 28 31  1  0  0  0  0
 28 27  2  0  0  0  0
 29 32  2  0  0  0  0
 30 26  1  0  0  0  0
 30 32  1  0  0  0  0
 31 30  2  0  0  0  0
 32 36  1  0  0  0  0
 33 34  3  0  0  0  0
 34 27  1  0  0  0  0
 36 35  2  0  0  0  0
 36 38  1  0  0  0  0
 38 37  1  6  0  0  0
 39 38  1  0  0  0  0
M  END
>  <MODEL>
9

>  <REMARK>
 VINA RESULT:      -8.0      1.732      2.027
  Name = 
  10 active torsions:
  status: ('A' for Active; 'I' for Inactive)
    1  A    between atoms: C_1  and  C_38
    2  A    between atoms: C_4  and  N_13
    3  A    between atoms: C_6  and  O_28
    4  A    between atoms: N_9  and  C_27
    5  A    between atoms: C_15  and  C_26
    6  A    between atoms: C_15  and  C_31
    7  A    between atoms: C_22  and  C_34
    8  A    between atoms: C_27  and  C_33
    9  A    between atoms: O_28  and  C_32
   10  A    between atoms: C_34  and  C_39
                            x       y       z     vdW  Elec       q    Type
                         _______ _______ _______ _____ _____    ______ ____

>  <TORSDO>
F 10

$$$$
