=
 OpenBabel11062414413D

 68 75  0  0  1  0  0  0  0  0999 V2000
  191.3450  174.0220  136.9150 C   0  0  0  0  0  2  0  0  0  0  0  0
  191.0100  177.3180  139.2710 C   0  0  0  0  0  0  0  0  0  0  0  0
  191.5260  176.4250  137.1810 O   0  0  0  0  0  0  0  0  0  0  0  0
  188.8970  176.2790  136.4700 O   0  0  0  0  0  0  0  0  0  0  0  0
  191.2390  175.4000  136.2240 C   0  0  1  0  0  0  0  0  0  0  0  0
  190.5890  176.8550  138.1150 C   0  0  0  0  0  0  0  0  0  0  0  0
  192.2430  175.4930  135.0710 C   0  0  0  0  0  2  0  0  0  0  0  0
  193.6980  175.2900  135.5250 C   0  0  0  0  0  2  0  0  0  0  0  0
  189.8340  175.5800  135.7050 C   0  0  0  0  0  0  0  0  0  0  0  0
  189.4880  175.0930  134.5940 O   0  0  0  0  0  0  0  0  0  0  0  0
  189.1240  176.6640  137.8250 C   0  0  1  0  0  3  0  0  0  0  0  0
  192.7640  173.4200  136.9360 C   0  0  0  0  0  2  0  0  0  0  0  0
  191.4710  177.7580  140.4240 C   0  0  0  0  0  3  0  0  0  0  0  0
  193.8200  174.5140  136.8460 C   0  0  1  0  0  3  0  0  0  0  0  0
  190.9310  175.3020  143.2670 S   0  0  0  0  0  0  0  0  0  0  0  0
  189.0870  176.0100  141.5530 O   0  0  0  0  0  0  0  0  0  0  0  0
  190.7060  177.7260  141.7310 C   0  0  2  0  0  3  0  0  0  0  0  0
  190.5240  176.6220  144.4100 C   0  0  2  0  0  3  0  0  0  0  0  0
  191.6260  178.3360  142.8220 C   0  0  2  0  0  3  0  0  0  0  0  0
  190.1420  176.3540  142.0490 C   0  0  0  0  0  0  0  0  0  0  0  0
  191.5930  177.6480  144.1390 C   0  0  1  0  0  0  0  0  0  0  0  0
  190.9100  178.8570  143.9470 O   0  0  0  0  0  0  0  0  0  0  0  0
  191.5610  176.9440  145.4790 C   0  0  1  0  0  3  0  0  0  0  0  0
  190.9730  177.7310  146.4760 O   0  0  0  0  0  0  0  0  0  0  0  0
  190.5980  176.8960  147.5450 C   0  0  0  0  0  2  0  0  0  0  0  0
  189.2110  176.6340  147.5750 O   0  0  0  0  0  0  0  0  0  0  0  0
  187.1550  177.4910  146.7680 C   0  0  2  0  0  3  0  0  0  0  0  0
  187.3010  177.4530  149.2640 N   0  0  0  0  0  1  0  0  0  0  0  0
  187.2280  179.7430  148.1590 C   0  0  0  0  0  1  0  0  0  0  0  0
  187.4580  178.2390  148.0510 C   0  0  2  0  0  0  0  0  0  0  0  0
  188.5990  177.8170  147.1410 C   0  0  1  0  0  3  0  0  0  0  0  0
  186.7050  178.4100  145.6390 C   0  0  0  0  0  2  0  0  0  0  0  0
  186.4220  177.5970  144.4230 C   0  0  0  0  0  0  0  0  0  0  0  0
  185.2630  177.8120  143.6910 O   0  0  0  0  0  0  0  0  0  0  0  0
  187.2350  176.7020  144.0720 O   0  0  0  0  0  1  0  0  0  0  0  0
  189.0460  179.0010  138.7990 C   0  0  0  0  0  1  0  0  0  0  0  0
  188.2380  177.8490  138.2280 C   0  0  2  0  0  3  0  0  0  0  0  0
  187.0660  177.8890  140.4990 C   0  0  0  0  0  1  0  0  0  0  0  0
  186.9470  177.5790  139.0210 C   0  0  1  0  0  3  0  0  0  0  0  0
  185.3590  178.1610  138.2800 P   0  0  1  0  0  0  0  0  0  0  0  0
  186.2630  175.4900  135.9340 C   0  0  0  0  0  1  0  0  0  0  0  0
  185.1130  177.3750  136.7970 O   0  0  0  0  0  0  0  0  0  0  0  0
  185.3400  176.0150  137.0300 C   0  0  1  0  0  3  0  0  0  0  0  0
  183.9060  177.8090  139.3370 C   0  0  1  0  0  3  0  0  0  0  0  0
  184.0700  175.2690  137.0240 N   0  0  0  0  0  0  0  0  0  0  0  0
  185.4150  179.6430  138.0030 O   0  0  0  0  0  0  0  0  0  0  0  0
  183.0650  175.8060  137.9530 C   0  0  1  0  0  3  0  0  0  0  0  0
  183.5810  176.3130  139.3160 C   0  0  0  0  0  2  0  0  0  0  0  0
  181.4490  177.7070  137.9460 O   0  0  0  0  0  1  0  0  0  0  0  0
  182.0010  176.6230  137.2790 C   0  0  0  0  0  0  0  0  0  0  0  0
  181.5930  176.3380  136.1210 O   0  0  0  0  0  0  0  0  0  0  0  0
  184.4020  173.6150  137.5650 S   0  0  0  0  0  0  0  0  0  0  0  0
  183.4760  172.9060  136.1730 C   0  0  0  0  0  2  0  0  0  0  0  0
  182.7350  171.6690  136.6450 C   0  0  0  0  0  1  0  0  0  0  0  0
  184.1410  178.3470  140.7540 C   0  0  0  0  0  2  0  0  0  0  0  0
  183.1100  179.3890  141.1750 C   0  0  0  0  0  2  0  0  0  0  0  0
  182.0990  178.7780  142.1330 C   0  0  0  0  0  2  0  0  0  0  0  0
  180.7380  178.8580  141.5390 C   0  0  0  0  0  0  0  0  0  0  0  0
  180.2080  177.8190  141.0440 O   0  0  0  0  0  0  0  0  0  0  0  0
  180.0320  180.1040  141.5680 N   0  0  0  0  0  0  0  0  0  0  0  0
  178.9460  180.2030  138.4270 C   0  0  0  0  0  1  0  0  0  0  0  0
  179.2930  182.0510  139.8420 O   0  0  0  0  0  0  0  0  0  0  0  0
  179.8420  180.8260  140.5100 C   0  0  0  0  0  0  0  0  0  0  0  0
  179.9510  181.0650  139.1580 C   0  0  1  0  0  3  0  0  0  0  0  0
  195.1030  173.9710  136.9620 O   0  0  0  0  0  0  0  0  0  0  0  0
  195.5520  174.3310  138.2350 C   0  0  1  0  0  3  0  0  0  0  0  0
  195.4780  173.1700  139.1140 N   0  0  0  0  0  1  0  0  0  0  0  0
  196.8730  174.7710  138.1660 O   0  0  0  0  0  1  0  0  0  0  0  0
  1 12  1  0  0  0  0
  2 13  2  0  0  0  0
  3  6  1  0  0  0  0
  4 11  1  0  0  0  0
  5  7  1  6  0  0  0
  5  1  1  0  0  0  0
  5  3  1  0  0  0  0
  6  2  2  0  0  0  0
  7  8  1  0  0  0  0
  8 14  1  0  0  0  0
  9  5  1  0  0  0  0
  9  4  1  0  0  0  0
 10  9  2  0  0  0  0
 11  6  1  0  0  0  0
 11 37  1  6  0  0  0
 14 12  1  0  0  0  0
 14 65  1  6  0  0  0
 16 20  2  0  0  0  0
 17 13  1  6  0  0  0
 17 20  1  0  0  0  0
 17 19  1  0  0  0  0
 18 15  1  6  0  0  0
 18 23  1  0  0  0  0
 19 22  1  1  0  0  0
 19 21  1  0  0  0  0
 20 15  1  0  0  0  0
 21 22  1  1  0  0  0
 21 18  1  0  0  0  0
 21 23  1  0  0  0  0
 23 24  1  1  0  0  0
 24 25  1  0  0  0  0
 25 26  1  0  0  0  0
 27 32  1  6  0  0  0
 27 31  1  0  0  0  0
 27 30  1  0  0  0  0
 30 29  1  1  0  0  0
 30 28  1  0  0  0  0
 31 26  1  1  0  0  0
 31 30  1  0  0  0  0
 33 32  1  0  0  0  0
 34 33  2  0  0  0  0
 35 33  1  0  0  0  0
 37 36  1  1  0  0  0
 37 39  1  0  0  0  0
 39 38  1  1  0  0  0
 40 46  2  6  0  0  0
 40 39  1  0  0  0  0
 40 44  1  0  0  0  0
 42 43  1  0  0  0  0
 42 40  1  0  0  0  0
 43 41  1  6  0  0  0
 44 55  1  1  0  0  0
 45 43  1  0  0  0  0
 45 52  1  0  0  0  0
 45 47  1  0  0  0  0
 47 50  1  6  0  0  0
 47 48  1  0  0  0  0
 48 44  1  0  0  0  0
 50 49  1  0  0  0  0
 51 50  2  0  0  0  0
 53 54  1  0  0  0  0
 53 52  1  0  0  0  0
 55 56  1  0  0  0  0
 56 57  1  0  0  0  0
 58 60  1  0  0  0  0
 58 57  1  0  0  0  0
 59 58  2  0  0  0  0
 62 63  1  0  0  0  0
 63 60  2  0  0  0  0
 64 61  1  6  0  0  0
 64 62  1  0  0  0  0
 64 63  1  0  0  0  0
 65 66  1  0  0  0  0
 66 68  1  6  0  0  0
 66 67  1  0  0  0  0
M  END
>  <MODEL>
1

>  <REMARK>
 VINA RESULT:      -5.6      0.000      0.000
  Name = 
  20 active torsions:
  status: ('A' for Active; 'I' for Inactive)
    1  A    between atoms: N_1  and  C_10
    2  A    between atoms: O_2  and  C_44
    3  A    between atoms: O_2  and  C_68
    4  A    between atoms: P_4  and  C_65
    5  A    between atoms: C_5  and  C_15
    6  A    between atoms: C_7  and  C_28
    7  A    between atoms: C_7  and  C_38
    8  A    between atoms: C_9  and  C_64
    9  A    between atoms: C_10  and  C_20
   10  A    between atoms: O_11  and  C_44
   11  A    between atoms: O_11  and  C_62
   12  A    between atoms: C_14  and  O_42
   13  A    between atoms: C_15  and  C_27
   14  A    between atoms: C_16  and  S_32
   15  A    between atoms: C_20  and  C_28
   16  A    between atoms: S_32  and  N_43
   17  A    between atoms: O_42  and  C_66
   18  A    between atoms: C_47  and  C_59
   19  A    between atoms: C_47  and  C_65
   20  A    between atoms: C_49  and  C_52
                            x       y       z     vdW  Elec       q    Type
                         _______ _______ _______ _____ _____    ______ ____

>  <TORSDO>
F 20

$$$$
=
 OpenBabel11062414413D

 68 75  0  0  1  0  0  0  0  0999 V2000
  185.5780  179.9220  145.5460 C   0  0  0  0  0  2  0  0  0  0  0  0
  187.3240  177.5030  142.7860 C   0  0  0  0  0  0  0  0  0  0  0  0
  185.7060  177.7670  144.4410 O   0  0  0  0  0  0  0  0  0  0  0  0
  183.9930  179.0160  142.7260 O   0  0  0  0  0  0  0  0  0  0  0  0
  184.7990  178.6710  145.0810 C   0  0  1  0  0  0  0  0  0  0  0  0
  186.1380  177.9490  143.1310 C   0  0  0  0  0  0  0  0  0  0  0  0
  184.1550  177.9700  146.2820 C   0  0  0  0  0  2  0  0  0  0  0  0
  185.1810  177.5360  147.3430 C   0  0  0  0  0  2  0  0  0  0  0  0
  183.7370  179.0930  144.0960 C   0  0  0  0  0  0  0  0  0  0  0  0
  182.6240  179.5310  144.4950 O   0  0  0  0  0  0  0  0  0  0  0  0
  185.2870  178.7550  142.1850 C   0  0  1  0  0  3  0  0  0  0  0  0
  186.2250  179.7950  146.9390 C   0  0  0  0  0  2  0  0  0  0  0  0
  188.5270  177.0570  142.4820 C   0  0  0  0  0  3  0  0  0  0  0  0
  186.4910  178.3360  147.2850 C   0  0  1  0  0  3  0  0  0  0  0  0
  192.0730  176.5480  141.2270 S   0  0  0  0  0  0  0  0  0  0  0  0
  191.2220  178.7150  142.4180 O   0  0  0  0  0  0  0  0  0  0  0  0
  189.4030  177.6140  141.3800 C   0  0  2  0  0  3  0  0  0  0  0  0
  191.6450  177.1520  139.5940 C   0  0  2  0  0  3  0  0  0  0  0  0
  189.1430  176.7660  140.1060 C   0  0  2  0  0  3  0  0  0  0  0  0
  190.8580  177.7400  141.7910 C   0  0  0  0  0  0  0  0  0  0  0  0
  190.3480  176.4450  139.2980 C   0  0  1  0  0  0  0  0  0  0  0  0
  189.4600  177.4500  138.8890 O   0  0  0  0  0  0  0  0  0  0  0  0
  191.5780  176.1160  138.4780 C   0  0  1  0  0  3  0  0  0  0  0  0
  191.5760  176.7670  137.2390 O   0  0  0  0  0  0  0  0  0  0  0  0
  192.7170  176.3660  136.5190 C   0  0  0  0  0  2  0  0  0  0  0  0
  192.5520  175.1170  135.8810 O   0  0  0  0  0  0  0  0  0  0  0  0
  194.5660  174.2120  136.7400 C   0  0  2  0  0  3  0  0  0  0  0  0
  192.8930  172.4700  136.0940 N   0  0  0  0  0  1  0  0  0  0  0  0
  195.0230  172.5770  134.7070 C   0  0  0  0  0  1  0  0  0  0  0  0
  194.0650  173.2340  135.6960 C   0  0  2  0  0  0  0  0  0  0  0  0
  193.8390  174.7220  135.4970 C   0  0  1  0  0  3  0  0  0  0  0  0
  196.0560  174.5060  136.6100 C   0  0  0  0  0  2  0  0  0  0  0  0
  196.7570  174.0650  137.8470 C   0  0  0  0  0  0  0  0  0  0  0  0
  197.2090  172.7580  137.9670 O   0  0  0  0  0  0  0  0  0  0  0  0
  196.9230  174.8810  138.7910 O   0  0  0  0  0  1  0  0  0  0  0  0
  185.9660  179.0160  139.7590 C   0  0  0  0  0  1  0  0  0  0  0  0
  185.1980  178.1790  140.7660 C   0  0  2  0  0  3  0  0  0  0  0  0
  182.7810  177.5510  141.3170 C   0  0  0  0  0  1  0  0  0  0  0  0
  183.8290  177.7180  140.2340 C   0  0  1  0  0  3  0  0  0  0  0  0
  183.1830  178.5510  138.7190 P   0  0  1  0  0  0  0  0  0  0  0  0
  185.4210  176.0590  137.2230 C   0  0  0  0  0  1  0  0  0  0  0  0
  184.0110  177.9590  137.3600 O   0  0  0  0  0  0  0  0  0  0  0  0
  184.0030  176.5650  137.4720 C   0  0  1  0  0  3  0  0  0  0  0  0
  181.3980  178.2540  138.4470 C   0  0  1  0  0  3  0  0  0  0  0  0
  183.0740  175.9720  136.4960 N   0  0  0  0  0  0  0  0  0  0  0  0
  183.4280  180.0370  138.7860 O   0  0  0  0  0  0  0  0  0  0  0  0
  181.7110  176.5170  136.5700 C   0  0  1  0  0  3  0  0  0  0  0  0
  181.1600  176.8160  137.9800 C   0  0  0  0  0  2  0  0  0  0  0  0
  180.1010  177.6450  135.0340 O   0  0  0  0  0  1  0  0  0  0  0  0
  181.4040  177.5160  135.4920 C   0  0  0  0  0  0  0  0  0  0  0  0
  182.3090  178.2360  134.9900 O   0  0  0  0  0  0  0  0  0  0  0  0
  182.9300  174.2430  136.8540 S   0  0  0  0  0  0  0  0  0  0  0  0
  183.3350  173.7900  135.1430 C   0  0  0  0  0  2  0  0  0  0  0  0
  184.6490  173.0320  135.1240 C   0  0  0  0  0  1  0  0  0  0  0  0
  180.6050  178.6090  139.7110 C   0  0  0  0  0  2  0  0  0  0  0  0
  179.5420  179.6770  139.4690 C   0  0  0  0  0  2  0  0  0  0  0  0
  180.0750  181.0510  139.8420 C   0  0  0  0  0  2  0  0  0  0  0  0
  179.8860  181.9860  138.7010 C   0  0  0  0  0  0  0  0  0  0  0  0
  179.2520  183.0690  138.8770 O   0  0  0  0  0  0  0  0  0  0  0  0
  180.4540  181.6610  137.4270 N   0  0  0  0  0  0  0  0  0  0  0  0
  181.1700  184.7210  136.3400 C   0  0  0  0  0  1  0  0  0  0  0  0
  180.7880  182.8200  135.0070 O   0  0  0  0  0  0  0  0  0  0  0  0
  180.4490  182.4840  136.4280 C   0  0  0  0  0  0  0  0  0  0  0  0
  180.1660  183.7020  135.8490 C   0  0  1  0  0  3  0  0  0  0  0  0
  187.1650  178.2340  148.5050 O   0  0  0  0  0  0  0  0  0  0  0  0
  188.3220  177.5000  148.2380 C   0  0  1  0  0  3  0  0  0  0  0  0
  188.3880  177.2140  146.8100 N   0  0  0  0  0  1  0  0  0  0  0  0
  189.4480  178.2340  148.6100 O   0  0  0  0  0  1  0  0  0  0  0  0
  1 12  1  0  0  0  0
  2  6  2  0  0  0  0
  3  5  1  0  0  0  0
  4  9  1  0  0  0  0
  5  1  1  1  0  0  0
  5  7  1  0  0  0  0
  6  3  1  0  0  0  0
  7  8  1  0  0  0  0
  9 10  2  0  0  0  0
  9  5  1  0  0  0  0
 11 37  1  6  0  0  0
 11  4  1  0  0  0  0
 11  6  1  0  0  0  0
 12 14  1  0  0  0  0
 13  2  2  0  0  0  0
 14  8  1  0  0  0  0
 14 65  1  1  0  0  0
 15 20  1  0  0  0  0
 17 20  1  0  0  0  0
 17 13  1  1  0  0  0
 18 15  1  1  0  0  0
 19 22  1  6  0  0  0
 19 17  1  0  0  0  0
 20 16  2  0  0  0  0
 21 22  1  6  0  0  0
 21 18  1  0  0  0  0
 21 19  1  0  0  0  0
 23 24  1  6  0  0  0
 23 21  1  0  0  0  0
 23 18  1  0  0  0  0
 25 24  1  0  0  0  0
 26 25  1  0  0  0  0
 27 32  1  6  0  0  0
 30 29  1  6  0  0  0
 30 28  1  0  0  0  0
 30 27  1  0  0  0  0
 31 30  1  0  0  0  0
 31 26  1  1  0  0  0
 31 27  1  0  0  0  0
 32 33  1  0  0  0  0
 33 34  2  0  0  0  0
 33 35  1  0  0  0  0
 37 36  1  6  0  0  0
 39 37  1  0  0  0  0
 39 38  1  1  0  0  0
 40 46  2  1  0  0  0
 40 39  1  0  0  0  0
 42 43  1  0  0  0  0
 42 40  1  0  0  0  0
 43 41  1  6  0  0  0
 44 40  1  0  0  0  0
 44 55  1  1  0  0  0
 45 47  1  0  0  0  0
 45 52  1  0  0  0  0
 45 43  1  0  0  0  0
 47 50  1  6  0  0  0
 47 48  1  0  0  0  0
 48 44  1  0  0  0  0
 49 50  1  0  0  0  0
 51 50  2  0  0  0  0
 53 52  1  0  0  0  0
 54 53  1  0  0  0  0
 56 55  1  0  0  0  0
 56 57  1  0  0  0  0
 58 59  2  0  0  0  0
 58 57  1  0  0  0  0
 60 58  1  0  0  0  0
 62 64  1  0  0  0  0
 62 63  1  0  0  0  0
 63 60  2  0  0  0  0
 64 61  1  1  0  0  0
 64 63  1  0  0  0  0
 66 67  1  6  0  0  0
 66 65  1  0  0  0  0
 66 68  1  0  0  0  0
M  END
>  <MODEL>
2

>  <REMARK>
 VINA RESULT:      -4.9      2.124      8.506
  Name = 
  20 active torsions:
  status: ('A' for Active; 'I' for Inactive)
    1  A    between atoms: N_1  and  C_10
    2  A    between atoms: O_2  and  C_44
    3  A    between atoms: O_2  and  C_68
    4  A    between atoms: P_4  and  C_65
    5  A    between atoms: C_5  and  C_15
    6  A    between atoms: C_7  and  C_28
    7  A    between atoms: C_7  and  C_38
    8  A    between atoms: C_9  and  C_64
    9  A    between atoms: C_10  and  C_20
   10  A    between atoms: O_11  and  C_44
   11  A    between atoms: O_11  and  C_62
   12  A    between atoms: C_14  and  O_42
   13  A    between atoms: C_15  and  C_27
   14  A    between atoms: C_16  and  S_32
   15  A    between atoms: C_20  and  C_28
   16  A    between atoms: S_32  and  N_43
   17  A    between atoms: O_42  and  C_66
   18  A    between atoms: C_47  and  C_59
   19  A    between atoms: C_47  and  C_65
   20  A    between atoms: C_49  and  C_52
                            x       y       z     vdW  Elec       q    Type
                         _______ _______ _______ _____ _____    ______ ____

>  <TORSDO>
F 20

$$$$
=
 OpenBabel11062414413D

 68 75  0  0  1  0  0  0  0  0999 V2000
  191.6310  173.9690  136.7480 C   0  0  0  0  0  2  0  0  0  0  0  0
  191.4890  176.9500  139.5080 C   0  0  0  0  0  0  0  0  0  0  0  0
  191.9510  176.3040  137.3180 O   0  0  0  0  0  0  0  0  0  0  0  0
  189.3180  176.4020  136.6140 O   0  0  0  0  0  0  0  0  0  0  0  0
  191.6040  175.4280  136.2390 C   0  0  1  0  0  0  0  0  0  0  0  0
  191.0410  176.6640  138.3070 C   0  0  0  0  0  0  0  0  0  0  0  0
  192.6120  175.6110  135.1000 C   0  0  0  0  0  2  0  0  0  0  0  0
  194.0530  175.2680  135.5120 C   0  0  0  0  0  2  0  0  0  0  0  0
  190.2110  175.7540  135.7590 C   0  0  0  0  0  0  0  0  0  0  0  0
  189.8380  175.4340  134.5980 O   0  0  0  0  0  0  0  0  0  0  0  0
  189.5670  176.5960  138.0060 C   0  0  1  0  0  3  0  0  0  0  0  0
  193.0130  173.2900  136.6810 C   0  0  0  0  0  2  0  0  0  0  0  0
  191.9750  177.2120  140.7050 C   0  0  0  0  0  3  0  0  0  0  0  0
  194.1300  174.3240  136.7220 C   0  0  1  0  0  3  0  0  0  0  0  0
  189.7530  179.3720  142.8970 S   0  0  0  0  0  0  0  0  0  0  0  0
  192.1540  178.5700  143.5580 O   0  0  0  0  0  0  0  0  0  0  0  0
  191.2110  177.0560  142.0030 C   0  0  2  0  0  3  0  0  0  0  0  0
  188.9610  177.9330  143.6150 C   0  0  2  0  0  3  0  0  0  0  0  0
  189.8110  176.4860  141.6510 C   0  0  2  0  0  3  0  0  0  0  0  0
  191.2060  178.3220  142.8390 C   0  0  0  0  0  0  0  0  0  0  0  0
  188.6770  177.0670  142.4150 C   0  0  1  0  0  0  0  0  0  0  0  0
  189.1830  175.8010  142.7410 O   0  0  0  0  0  0  0  0  0  0  0  0
  187.5220  177.6630  143.1930 C   0  0  1  0  0  3  0  0  0  0  0  0
  186.9440  176.7400  144.0720 O   0  0  0  0  0  0  0  0  0  0  0  0
  186.0590  177.4250  144.9250 C   0  0  0  0  0  2  0  0  0  0  0  0
  186.7260  178.2360  145.8700 O   0  0  0  0  0  0  0  0  0  0  0  0
  188.8380  177.7090  146.8060 C   0  0  2  0  0  3  0  0  0  0  0  0
  187.5920  179.4560  148.0900 N   0  0  0  0  0  1  0  0  0  0  0  0
  187.9420  177.2190  149.2500 C   0  0  0  0  0  1  0  0  0  0  0  0
  187.9240  178.0450  147.9680 C   0  0  2  0  0  0  0  0  0  0  0  0
  187.3560  177.3440  146.7460 C   0  0  1  0  0  3  0  0  0  0  0  0
  189.6590  176.4480  147.0450 C   0  0  0  0  0  2  0  0  0  0  0  0
  191.0960  176.8140  147.1870 C   0  0  0  0  0  0  0  0  0  0  0  0
  191.5420  177.4660  148.3280 O   0  0  0  0  0  1  0  0  0  0  0  0
  191.9010  176.5410  146.2590 O   0  0  0  0  0  0  0  0  0  0  0  0
  189.4410  178.4390  139.7400 C   0  0  0  0  0  1  0  0  0  0  0  0
  188.7520  177.7690  138.5640 C   0  0  2  0  0  3  0  0  0  0  0  0
  186.7480  178.1540  140.1050 C   0  0  0  0  0  1  0  0  0  0  0  0
  187.2400  177.5850  138.7880 C   0  0  1  0  0  3  0  0  0  0  0  0
  186.1200  177.9610  137.3690 P   0  0  1  0  0  0  0  0  0  0  0  0
  187.0840  174.5120  136.5780 C   0  0  0  0  0  1  0  0  0  0  0  0
  186.1690  176.6760  136.2630 O   0  0  0  0  0  0  0  0  0  0  0  0
  186.0100  175.5060  137.0120 C   0  0  1  0  0  3  0  0  0  0  0  0
  184.3750  178.1840  137.8760 C   0  0  1  0  0  3  0  0  0  0  0  0
  184.6710  174.9320  136.7990 N   0  0  0  0  0  0  0  0  0  0  0  0
  186.5810  179.2010  136.6440 O   0  0  0  0  0  0  0  0  0  0  0  0
  183.5750  175.8780  137.0540 C   0  0  1  0  0  3  0  0  0  0  0  0
  183.7520  176.8370  138.2490 C   0  0  0  0  0  2  0  0  0  0  0  0
  183.7830  177.1260  134.9040 O   0  0  0  0  0  0  0  0  0  0  0  0
  182.9720  176.4490  135.8040 C   0  0  0  0  0  0  0  0  0  0  0  0
  181.7410  176.3330  135.5590 O   0  0  0  0  0  1  0  0  0  0  0  0
  184.4520  173.6060  137.9540 S   0  0  0  0  0  0  0  0  0  0  0  0
  183.3260  172.7300  136.8300 C   0  0  0  0  0  2  0  0  0  0  0  0
  184.0580  172.4070  135.5410 C   0  0  0  0  0  1  0  0  0  0  0  0
  184.2810  179.2180  139.0050 C   0  0  0  0  0  2  0  0  0  0  0  0
  182.8680  179.7550  139.2070 C   0  0  0  0  0  2  0  0  0  0  0  0
  182.1170  179.7850  137.8850 C   0  0  0  0  0  2  0  0  0  0  0  0
  180.6710  179.5360  138.1280 C   0  0  0  0  0  0  0  0  0  0  0  0
  179.9440  180.4660  138.5900 O   0  0  0  0  0  0  0  0  0  0  0  0
  180.1150  178.2570  137.8030 N   0  0  0  0  0  0  0  0  0  0  0  0
  179.3360  177.1930  140.8550 C   0  0  0  0  0  1  0  0  0  0  0  0
  179.7670  175.8450  138.9750 O   0  0  0  0  0  0  0  0  0  0  0  0
  180.1070  177.2640  138.6340 C   0  0  0  0  0  0  0  0  0  0  0  0
  180.3650  176.6980  139.8630 C   0  0  1  0  0  3  0  0  0  0  0  0
  195.3800  173.6980  136.7580 O   0  0  0  0  0  0  0  0  0  0  0  0
  196.1000  174.3490  137.7610 C   0  0  1  0  0  3  0  0  0  0  0  0
  196.8440  173.3620  138.5340 N   0  0  0  0  0  1  0  0  0  0  0  0
  196.9950  175.2540  137.1910 O   0  0  0  0  0  1  0  0  0  0  0  0
  2 13  2  0  0  0  0
  3  6  1  0  0  0  0
  4 11  1  0  0  0  0
  5  7  1  6  0  0  0
  5  1  1  0  0  0  0
  5  3  1  0  0  0  0
  6  2  2  0  0  0  0
  7  8  1  0  0  0  0
  8 14  1  0  0  0  0
  9  5  1  0  0  0  0
  9  4  1  0  0  0  0
 10  9  2  0  0  0  0
 11  6  1  0  0  0  0
 11 37  1  6  0  0  0
 12 14  1  0  0  0  0
 12  1  1  0  0  0  0
 14 65  1  6  0  0  0
 17 13  1  6  0  0  0
 17 20  1  0  0  0  0
 18 15  1  6  0  0  0
 19 17  1  0  0  0  0
 19 21  1  0  0  0  0
 19 22  1  1  0  0  0
 20 15  1  0  0  0  0
 20 16  2  0  0  0  0
 21 22  1  1  0  0  0
 21 23  1  0  0  0  0
 21 18  1  0  0  0  0
 23 18  1  0  0  0  0
 23 24  1  1  0  0  0
 24 25  1  0  0  0  0
 25 26  1  0  0  0  0
 27 32  1  1  0  0  0
 27 30  1  0  0  0  0
 30 28  1  0  0  0  0
 30 29  1  1  0  0  0
 31 26  1  6  0  0  0
 31 27  1  0  0  0  0
 31 30  1  0  0  0  0
 32 33  1  0  0  0  0
 33 34  1  0  0  0  0
 35 33  2  0  0  0  0
 37 39  1  0  0  0  0
 37 36  1  1  0  0  0
 39 38  1  1  0  0  0
 40 46  2  6  0  0  0
 40 44  1  0  0  0  0
 40 39  1  0  0  0  0
 42 43  1  0  0  0  0
 42 40  1  0  0  0  0
 43 41  1  6  0  0  0
 44 48  1  0  0  0  0
 44 55  1  1  0  0  0
 45 43  1  0  0  0  0
 45 47  1  0  0  0  0
 45 52  1  0  0  0  0
 47 50  1  6  0  0  0
 47 48  1  0  0  0  0
 49 50  2  0  0  0  0
 51 50  1  0  0  0  0
 53 52  1  0  0  0  0
 54 53  1  0  0  0  0
 55 56  1  0  0  0  0
 57 58  1  0  0  0  0
 57 56  1  0  0  0  0
 58 59  2  0  0  0  0
 60 58  1  0  0  0  0
 60 63  2  0  0  0  0
 62 64  1  0  0  0  0
 63 62  1  0  0  0  0
 63 64  1  0  0  0  0
 64 61  1  1  0  0  0
 65 66  1  0  0  0  0
 66 68  1  6  0  0  0
 66 67  1  0  0  0  0
M  END
>  <MODEL>
3

>  <REMARK>
 VINA RESULT:      -4.4      1.551      2.781
  Name = 
  20 active torsions:
  status: ('A' for Active; 'I' for Inactive)
    1  A    between atoms: N_1  and  C_10
    2  A    between atoms: O_2  and  C_44
    3  A    between atoms: O_2  and  C_68
    4  A    between atoms: P_4  and  C_65
    5  A    between atoms: C_5  and  C_15
    6  A    between atoms: C_7  and  C_28
    7  A    between atoms: C_7  and  C_38
    8  A    between atoms: C_9  and  C_64
    9  A    between atoms: C_10  and  C_20
   10  A    between atoms: O_11  and  C_44
   11  A    between atoms: O_11  and  C_62
   12  A    between atoms: C_14  and  O_42
   13  A    between atoms: C_15  and  C_27
   14  A    between atoms: C_16  and  S_32
   15  A    between atoms: C_20  and  C_28
   16  A    between atoms: S_32  and  N_43
   17  A    between atoms: O_42  and  C_66
   18  A    between atoms: C_47  and  C_59
   19  A    between atoms: C_47  and  C_65
   20  A    between atoms: C_49  and  C_52
                            x       y       z     vdW  Elec       q    Type
                         _______ _______ _______ _____ _____    ______ ____

>  <TORSDO>
F 20

$$$$
