=
 OpenBabel11062412483D

 54 59  0  0  1  0  0  0  0  0999 V2000
  184.1770  178.1200  141.5530 C   0  0  1  0  0  3  0  0  0  0  0  0
  186.8690  178.4640  139.9360 C   0  0  0  0  0  0  0  0  0  0  0  0
  186.4000  176.2650  137.8270 C   0  0  1  0  0  3  0  0  0  0  0  0
  179.5820  174.6700  137.9600 O   0  0  0  0  0  1  0  0  0  0  0  0
  187.2790  175.0150  137.5730 C   0  0  0  0  0  2  0  0  0  0  0  0
  187.2420  177.3970  137.7310 O   0  0  0  0  0  0  0  0  0  0  0  0
  180.8150  175.1750  137.5550 C   0  0  2  0  0  3  0  0  0  0  0  0
  186.1560  179.5380  141.7870 N   0  0  0  0  0  2  0  0  0  0  0  0
  182.0180  178.4160  140.3480 O   0  0  0  0  0  0  0  0  0  0  0  0
  179.5040  177.7540  138.6320 O   0  0  0  0  0  1  0  0  0  0  0  0
  187.2600  174.6060  136.1050 C   0  0  0  0  0  2  0  0  0  0  0  0
  185.2670  176.3510  136.7530 C   0  0  1  0  0  0  0  0  0  0  0  0
  185.0310  178.7890  137.0160 O   0  0  0  0  0  1  0  0  0  0  0  0
  185.6280  178.6570  139.6830 N   0  0  0  0  0  0  0  0  0  0  0  0
  181.9870  177.3010  137.6310 O   0  0  0  0  0  0  0  0  0  0  0  0
  187.2520  175.7480  135.2690 O   0  0  0  0  0  0  0  0  0  0  0  0
  187.2340  178.9890  141.1400 O   0  0  0  0  0  0  0  0  0  0  0  0
  180.3470  176.9110  139.3690 C   0  0  1  0  0  3  0  0  0  0  0  0
  181.4170  174.0920  135.3660 C   0  0  0  0  0  2  0  0  0  0  0  0
  182.5410  175.6540  139.2310 C   0  0  0  0  0  2  0  0  0  0  0  0
  183.2740  177.5780  138.1220 C   0  0  1  0  0  3  0  0  0  0  0  0
  183.5460  176.7550  139.3850 C   0  0  1  0  0  3  0  0  0  0  0  0
  183.5250  178.6640  142.8270 C   0  0  0  0  0  1  0  0  0  0  0  0
  181.4200  176.2870  138.4370 C   0  0  1  0  0  0  0  0  0  0  0  0
  183.0800  177.5430  140.6330 C   0  0  1  0  0  3  0  0  0  0  0  0
  180.9000  175.3710  136.0320 C   0  0  1  0  0  3  0  0  0  0  0  0
  184.3180  177.5820  136.9750 C   0  0  2  0  0  3  0  0  0  0  0  0
  187.7930  177.7260  139.0020 C   0  0  2  0  0  3  0  0  0  0  0  0
  182.8490  173.7910  135.8130 C   0  0  2  0  0  3  0  0  0  0  0  0
  185.9690  176.3560  135.3350 C   0  0  2  0  0  3  0  0  0  0  0  0
  184.3990  175.0740  136.8110 C   0  0  0  0  0  2  0  0  0  0  0  0
  180.8730  177.6590  140.6160 C   0  0  0  0  0  2  0  0  0  0  0  0
  183.6690  174.9170  135.6180 O   0  0  0  0  0  0  0  0  0  0  0  0
  185.0330  179.2070  140.8940 C   0  0  1  0  0  3  0  0  0  0  0  0
  183.3950  172.6100  135.0210 C   0  0  0  0  0  1  0  0  0  0  0  0
  179.5940  175.8780  135.4050 C   0  0  0  0  0  3  0  0  0  0  0  0
  179.8720  176.9920  134.6140 O   0  0  0  0  0  1  0  0  0  0  0  0
  178.9990  174.8930  134.6120 O   0  0  0  0  0  1  0  0  0  0  0  0
  188.7040  176.6730  139.6480 C   0  0  0  0  0  2  0  0  0  0  0  0
  190.0360  177.2760  140.0170 C   0  0  0  0  0  0  0  0  0  0  0  0
  190.3030  177.5950  141.3820 N   0  0  0  0  0  2  0  0  0  0  0  0
  190.9150  177.4850  139.1360 O   0  0  0  0  0  0  0  0  0  0  0  0
  191.5640  177.5600  141.8890 O   0  0  0  0  0  0  0  0  0  0  0  0
  191.4660  177.1540  143.2360 C   0  0  1  0  0  3  0  0  0  0  0  0
  190.5740  177.8180  145.9460 N   0  0  0  0  0  1  0  0  0  0  0  0
  190.8340  179.6790  144.0440 O   0  0  0  0  0  1  0  0  0  0  0  0
  190.4100  178.2430  144.2560 P   0  0  1  0  0  0  0  0  0  0  0  0
  188.8000  178.0470  143.7630 O   0  0  0  0  0  0  0  0  0  0  0  0
  192.0630  174.9020  144.3220 C   0  0  0  0  0  1  0  0  0  0  0  0
  190.2240  175.1550  142.9080 O   0  0  0  0  0  0  0  0  0  0  0  0
  191.1890  175.6920  143.4210 C   0  0  0  0  0  0  0  0  0  0  0  0
  185.9660  177.6160  134.6660 O   0  0  0  0  0  0  0  0  0  0  0  0
  187.0530  178.4870  134.5950 C   0  0  0  0  0  3  0  0  0  0  0  0
  188.1390  178.2310  135.1820 O   0  0  0  0  0  0  0  0  0  0  0  0
  1 23  1  1  0  0  0
  2 17  1  0  0  0  0
  3  5  1  6  0  0  0
  6  3  1  0  0  0  0
  6 28  1  0  0  0  0
  7  4  1  1  0  0  0
  7 24  1  0  0  0  0
  9 32  1  0  0  0  0
 11  5  1  0  0  0  0
 12 31  1  1  0  0  0
 12 27  1  0  0  0  0
 12  3  1  0  0  0  0
 14  2  2  0  0  0  0
 15 24  1  0  0  0  0
 16 30  1  0  0  0  0
 16 11  1  0  0  0  0
 17  8  1  0  0  0  0
 18 10  1  6  0  0  0
 18 32  1  0  0  0  0
 19 29  1  0  0  0  0
 19 26  1  0  0  0  0
 21 15  1  6  0  0  0
 21 22  1  0  0  0  0
 22 20  1  6  0  0  0
 22 25  1  0  0  0  0
 24 20  1  1  0  0  0
 24 18  1  0  0  0  0
 25  9  1  6  0  0  0
 25  1  1  0  0  0  0
 26 36  1  6  0  0  0
 26  7  1  0  0  0  0
 27 13  1  1  0  0  0
 27 21  1  0  0  0  0
 28 39  1  1  0  0  0
 28  2  1  0  0  0  0
 29 35  1  6  0  0  0
 30 52  1  1  0  0  0
 30 12  1  0  0  0  0
 33 29  1  0  0  0  0
 33 31  1  0  0  0  0
 34 14  1  6  0  0  0
 34  1  1  0  0  0  0
 34  8  1  0  0  0  0
 37 36  1  0  0  0  0
 38 36  1  0  0  0  0
 39 40  1  0  0  0  0
 40 41  1  0  0  0  0
 41 43  1  0  0  0  0
 42 40  2  0  0  0  0
 44 43  1  6  0  0  0
 44 51  1  0  0  0  0
 44 47  1  0  0  0  0
 46 47  1  0  0  0  0
 47 48  2  6  0  0  0
 47 45  1  0  0  0  0
 50 51  2  0  0  0  0
 51 49  1  0  0  0  0
 53 52  1  0  0  0  0
 53 54  2  0  0  0  0
M  END
>  <MODEL>
1

>  <REMARK>
 VINA RESULT:      -6.1      0.000      0.000
  Name = 
  9 active torsions:
  status: ('A' for Active; 'I' for Inactive)
    1  A    between atoms: C_1  and  P_37
    2  A    between atoms: C_1  and  O_43
    3  A    between atoms: C_1  and  C_47
    4  A    between atoms: C_3  and  C_6
    5  A    between atoms: N_5  and  O_43
    6  A    between atoms: C_6  and  C_44
    7  A    between atoms: O_11  and  C_21
    8  A    between atoms: O_11  and  C_49
    9  A    between atoms: C_23  and  C_41
                            x       y       z     vdW  Elec       q    Type
                         _______ _______ _______ _____ _____    ______ ____

>  <TORSDO>
F 9

$$$$
=
 OpenBabel11062412483D

 54 59  0  0  1  0  0  0  0  0999 V2000
  184.9640  178.1930  141.8350 C   0  0  1  0  0  3  0  0  0  0  0  0
  187.5420  178.2300  140.0100 C   0  0  0  0  0  0  0  0  0  0  0  0
  186.5690  176.2770  137.8330 C   0  0  1  0  0  3  0  0  0  0  0  0
  179.6160  175.7400  138.4730 O   0  0  0  0  0  1  0  0  0  0  0  0
  187.2170  174.9270  137.4340 C   0  0  0  0  0  2  0  0  0  0  0  0
  187.5690  177.2710  137.7250 O   0  0  0  0  0  0  0  0  0  0  0  0
  180.8780  176.0760  137.9910 C   0  0  2  0  0  3  0  0  0  0  0  0
  187.1540  179.2710  141.9720 N   0  0  0  0  0  2  0  0  0  0  0  0
  182.7920  178.8970  140.8420 O   0  0  0  0  0  0  0  0  0  0  0  0
  180.0790  178.7460  139.3180 O   0  0  0  0  0  1  0  0  0  0  0  0
  187.0180  174.6260  135.9530 C   0  0  0  0  0  2  0  0  0  0  0  0
  185.3840  176.6080  136.8680 C   0  0  1  0  0  0  0  0  0  0  0  0
  185.5580  179.0300  137.2840 O   0  0  0  0  0  1  0  0  0  0  0  0
  186.3330  178.6270  139.8780 N   0  0  0  0  0  0  0  0  0  0  0  0
  182.3740  177.9870  138.0800 O   0  0  0  0  0  0  0  0  0  0  0  0
  187.1260  175.8100  135.1850 O   0  0  0  0  0  0  0  0  0  0  0  0
  188.0790  178.6090  141.2040 O   0  0  0  0  0  0  0  0  0  0  0  0
  180.8330  177.7360  139.9310 C   0  0  1  0  0  3  0  0  0  0  0  0
  181.1290  175.0660  135.7000 C   0  0  0  0  0  2  0  0  0  0  0  0
  182.7830  176.1710  139.5320 C   0  0  0  0  0  2  0  0  0  0  0  0
  183.7220  178.0300  138.4710 C   0  0  1  0  0  3  0  0  0  0  0  0
  183.9580  177.0910  139.6580 C   0  0  1  0  0  3  0  0  0  0  0  0
  184.5080  178.7420  143.1890 C   0  0  0  0  0  1  0  0  0  0  0  0
  181.7180  177.0200  138.8760 C   0  0  1  0  0  0  0  0  0  0  0  0
  183.7210  177.8550  140.9840 C   0  0  1  0  0  3  0  0  0  0  0  0
  180.8740  176.3600  136.4780 C   0  0  1  0  0  3  0  0  0  0  0  0
  184.6620  177.9520  137.2390 C   0  0  2  0  0  3  0  0  0  0  0  0
  188.2630  177.4240  138.9600 C   0  0  2  0  0  3  0  0  0  0  0  0
  182.5250  174.5190  136.0040 C   0  0  2  0  0  3  0  0  0  0  0  0
  185.9650  176.6020  135.3960 C   0  0  2  0  0  3  0  0  0  0  0  0
  184.3310  175.4790  136.9320 C   0  0  0  0  0  2  0  0  0  0  0  0
  181.5660  178.3080  141.1670 C   0  0  0  0  0  2  0  0  0  0  0  0
  183.4960  175.5170  135.8000 O   0  0  0  0  0  0  0  0  0  0  0  0
  185.9270  179.1780  141.1640 C   0  0  1  0  0  3  0  0  0  0  0  0
  182.8140  173.3240  135.1030 C   0  0  0  0  0  1  0  0  0  0  0  0
  179.6190  177.1030  135.9970 C   0  0  0  0  0  3  0  0  0  0  0  0
  179.9580  178.4230  135.7050 O   0  0  0  0  0  1  0  0  0  0  0  0
  179.0870  176.5040  134.8520 O   0  0  0  0  0  1  0  0  0  0  0  0
  189.0430  176.2030  139.4650 C   0  0  0  0  0  2  0  0  0  0  0  0
  190.5280  176.4510  139.3890 C   0  0  0  0  0  0  0  0  0  0  0  0
  191.2730  175.8980  138.3040 N   0  0  0  0  0  2  0  0  0  0  0  0
  191.1110  177.1490  140.2640 O   0  0  0  0  0  0  0  0  0  0  0  0
  192.3900  176.5090  137.8230 O   0  0  0  0  0  0  0  0  0  0  0  0
  192.6410  175.9770  136.5410 C   0  0  1  0  0  3  0  0  0  0  0  0
  194.6280  174.6110  134.8790 N   0  0  0  0  0  1  0  0  0  0  0  0
  194.9770  177.1210  135.7300 O   0  0  0  0  0  0  0  0  0  0  0  0
  194.4180  175.7840  136.1610 P   0  0  1  0  0  0  0  0  0  0  0  0
  195.2150  175.2590  137.5610 O   0  0  0  0  0  1  0  0  0  0  0  0
  190.9430  174.8170  134.9990 C   0  0  0  0  0  1  0  0  0  0  0  0
  191.8900  173.7420  136.8410 O   0  0  0  0  0  0  0  0  0  0  0  0
  191.8120  174.7750  136.2000 C   0  0  0  0  0  0  0  0  0  0  0  0
  186.1090  177.8900  134.8000 O   0  0  0  0  0  0  0  0  0  0  0  0
  187.3240  178.5450  134.5950 C   0  0  0  0  0  3  0  0  0  0  0  0
  188.3510  178.2490  135.2630 O   0  0  0  0  0  0  0  0  0  0  0  0
  1 23  1  1  0  0  0
  2 17  1  0  0  0  0
  3  5  1  6  0  0  0
  6  3  1  0  0  0  0
  6 28  1  0  0  0  0
  7  4  1  1  0  0  0
  7 24  1  0  0  0  0
  9 32  1  0  0  0  0
 11  5  1  0  0  0  0
 12 31  1  1  0  0  0
 12 27  1  0  0  0  0
 12  3  1  0  0  0  0
 14  2  2  0  0  0  0
 15 24  1  0  0  0  0
 16 30  1  0  0  0  0
 16 11  1  0  0  0  0
 17  8  1  0  0  0  0
 18 10  1  6  0  0  0
 18 32  1  0  0  0  0
 19 29  1  0  0  0  0
 19 26  1  0  0  0  0
 21 15  1  6  0  0  0
 21 22  1  0  0  0  0
 22 20  1  6  0  0  0
 22 25  1  0  0  0  0
 24 20  1  1  0  0  0
 24 18  1  0  0  0  0
 25  9  1  6  0  0  0
 25  1  1  0  0  0  0
 26 36  1  6  0  0  0
 26  7  1  0  0  0  0
 27 13  1  1  0  0  0
 27 21  1  0  0  0  0
 28 39  1  1  0  0  0
 28  2  1  0  0  0  0
 29 35  1  6  0  0  0
 30 52  1  1  0  0  0
 30 12  1  0  0  0  0
 33 29  1  0  0  0  0
 33 31  1  0  0  0  0
 34 14  1  6  0  0  0
 34  1  1  0  0  0  0
 34  8  1  0  0  0  0
 37 36  1  0  0  0  0
 38 36  1  0  0  0  0
 40 39  1  0  0  0  0
 40 42  2  0  0  0  0
 41 40  1  0  0  0  0
 43 41  1  0  0  0  0
 44 51  1  1  0  0  0
 44 43  1  0  0  0  0
 46 47  2  0  0  0  0
 47 45  1  6  0  0  0
 47 44  1  0  0  0  0
 47 48  1  0  0  0  0
 49 51  1  0  0  0  0
 51 50  2  0  0  0  0
 53 52  1  0  0  0  0
 53 54  2  0  0  0  0
M  END
>  <MODEL>
2

>  <REMARK>
 VINA RESULT:      -5.3      2.495      3.635
  Name = 
  9 active torsions:
  status: ('A' for Active; 'I' for Inactive)
    1  A    between atoms: C_1  and  P_37
    2  A    between atoms: C_1  and  O_43
    3  A    between atoms: C_1  and  C_47
    4  A    between atoms: C_3  and  C_6
    5  A    between atoms: N_5  and  O_43
    6  A    between atoms: C_6  and  C_44
    7  A    between atoms: O_11  and  C_21
    8  A    between atoms: O_11  and  C_49
    9  A    between atoms: C_23  and  C_41
                            x       y       z     vdW  Elec       q    Type
                         _______ _______ _______ _____ _____    ______ ____

>  <TORSDO>
F 9

$$$$
=
 OpenBabel11062412483D

 54 59  0  0  1  0  0  0  0  0999 V2000
  186.8760  178.1200  141.8290 C   0  0  1  0  0  3  0  0  0  0  0  0
  187.0040  178.0250  138.6740 C   0  0  0  0  0  0  0  0  0  0  0  0
  184.1420  177.0100  138.1480 C   0  0  1  0  0  3  0  0  0  0  0  0
  180.4680  177.9910  144.0280 O   0  0  0  0  0  1  0  0  0  0  0  0
  183.7350  175.7000  137.4270 C   0  0  0  0  0  2  0  0  0  0  0  0
  184.9850  177.7290  137.2690 O   0  0  0  0  0  0  0  0  0  0  0  0
  180.9480  178.1340  142.7290 C   0  0  2  0  0  3  0  0  0  0  0  0
  188.6090  178.5700  140.1630 N   0  0  0  0  0  2  0  0  0  0  0  0
  185.1540  179.5570  142.9090 O   0  0  0  0  0  0  0  0  0  0  0  0
  182.4260  180.4660  144.1090 O   0  0  0  0  0  1  0  0  0  0  0  0
  182.4170  175.8600  136.6770 C   0  0  0  0  0  2  0  0  0  0  0  0
  182.8700  177.8570  138.4780 C   0  0  1  0  0  0  0  0  0  0  0  0
  184.1390  179.9680  138.5360 O   0  0  0  0  0  1  0  0  0  0  0  0
  186.3590  178.7200  139.5350 N   0  0  0  0  0  0  0  0  0  0  0  0
  182.5460  179.5390  141.5590 O   0  0  0  0  0  0  0  0  0  0  0  0
  182.3300  177.1440  136.0890 O   0  0  0  0  0  0  0  0  0  0  0  0
  188.3300  177.9350  138.9790 O   0  0  0  0  0  0  0  0  0  0  0  0
  182.9510  179.1800  143.9190 C   0  0  1  0  0  3  0  0  0  0  0  0
  179.0340  177.7370  141.1460 C   0  0  0  0  0  2  0  0  0  0  0  0
  183.2090  177.3590  142.1780 C   0  0  0  0  0  2  0  0  0  0  0  0
  183.6180  179.1550  140.7370 C   0  0  1  0  0  3  0  0  0  0  0  0
  184.2990  177.9070  141.3070 C   0  0  1  0  0  3  0  0  0  0  0  0
  187.8160  178.3820  143.0100 C   0  0  0  0  0  1  0  0  0  0  0  0
  182.4190  178.5810  142.5900 C   0  0  1  0  0  0  0  0  0  0  0  0
  185.4180  178.3250  142.2920 C   0  0  1  0  0  3  0  0  0  0  0  0
  179.9260  178.8010  141.7930 C   0  0  1  0  0  3  0  0  0  0  0  0
  183.2120  179.1860  139.2410 C   0  0  2  0  0  3  0  0  0  0  0  0
  186.3500  177.3800  137.4810 C   0  0  2  0  0  3  0  0  0  0  0  0
  179.8600  176.8140  140.2470 C   0  0  2  0  0  3  0  0  0  0  0  0
  182.1070  178.1040  137.1130 C   0  0  2  0  0  3  0  0  0  0  0  0
  181.9170  177.0350  139.3740 C   0  0  0  0  0  2  0  0  0  0  0  0
  184.4880  179.2120  144.0890 C   0  0  0  0  0  2  0  0  0  0  0  0
  180.6150  177.5690  139.3330 O   0  0  0  0  0  0  0  0  0  0  0  0
  187.2780  178.9890  140.6330 C   0  0  1  0  0  3  0  0  0  0  0  0
  178.9320  175.8680  139.4950 C   0  0  0  0  0  1  0  0  0  0  0  0
  179.1190  179.9200  142.4650 C   0  0  0  0  0  3  0  0  0  0  0  0
  179.1720  179.7510  143.8490 O   0  0  0  0  0  1  0  0  0  0  0  0
  179.6340  181.1780  142.1400 O   0  0  0  0  0  1  0  0  0  0  0  0
  186.7340  175.9190  137.2080 C   0  0  0  0  0  2  0  0  0  0  0  0
  187.3610  175.7790  135.8450 C   0  0  0  0  0  0  0  0  0  0  0  0
  188.7830  175.7970  135.7260 N   0  0  0  0  0  2  0  0  0  0  0  0
  186.6440  175.6320  134.8170 O   0  0  0  0  0  0  0  0  0  0  0  0
  189.4250  175.1180  134.7370 O   0  0  0  0  0  0  0  0  0  0  0  0
  190.1650  174.0840  135.3480 C   0  0  1  0  0  3  0  0  0  0  0  0
  192.7410  173.3480  136.5290 N   0  0  0  0  0  1  0  0  0  0  0  0
  192.3080  175.7630  135.4690 O   0  0  0  0  0  0  0  0  0  0  0  0
  191.6300  174.6740  136.2690 P   0  0  1  0  0  0  0  0  0  0  0  0
  191.1140  175.2980  137.7570 O   0  0  0  0  0  1  0  0  0  0  0  0
  188.4500  172.1690  135.3480 C   0  0  0  0  0  1  0  0  0  0  0  0
  189.4130  172.9790  137.3140 O   0  0  0  0  0  0  0  0  0  0  0  0
  189.3310  173.0930  136.1030 C   0  0  0  0  0  0  0  0  0  0  0  0
  182.2050  179.4310  136.6000 O   0  0  0  0  0  0  0  0  0  0  0  0
  181.1290  180.3010  136.4190 C   0  0  0  0  0  3  0  0  0  0  0  0
  181.0440  181.3820  137.0610 O   0  0  0  0  0  0  0  0  0  0  0  0
  1 25  1  0  0  0  0
  1 23  1  1  0  0  0
  2 17  1  0  0  0  0
  2 14  2  0  0  0  0
  3  5  1  6  0  0  0
  3 12  1  0  0  0  0
  6 28  1  0  0  0  0
  6  3  1  0  0  0  0
  7  4  1  1  0  0  0
  8 34  1  0  0  0  0
  9 32  1  0  0  0  0
 11  5  1  0  0  0  0
 12 27  1  0  0  0  0
 12 31  1  1  0  0  0
 15 24  1  0  0  0  0
 16 11  1  0  0  0  0
 16 30  1  0  0  0  0
 17  8  1  0  0  0  0
 18 32  1  0  0  0  0
 18 10  1  6  0  0  0
 19 26  1  0  0  0  0
 21 22  1  0  0  0  0
 21 15  1  1  0  0  0
 22 20  1  1  0  0  0
 22 25  1  0  0  0  0
 24 20  1  6  0  0  0
 24  7  1  0  0  0  0
 24 18  1  0  0  0  0
 25  9  1  6  0  0  0
 26 36  1  1  0  0  0
 26  7  1  0  0  0  0
 27 13  1  6  0  0  0
 27 21  1  0  0  0  0
 28 39  1  1  0  0  0
 28  2  1  0  0  0  0
 29 35  1  6  0  0  0
 29 19  1  0  0  0  0
 30 52  1  6  0  0  0
 30 12  1  0  0  0  0
 33 31  1  0  0  0  0
 33 29  1  0  0  0  0
 34 14  1  6  0  0  0
 34  1  1  0  0  0  0
 36 37  1  0  0  0  0
 38 36  1  0  0  0  0
 40 39  1  0  0  0  0
 41 40  1  0  0  0  0
 42 40  2  0  0  0  0
 43 41  1  0  0  0  0
 44 43  1  1  0  0  0
 44 51  1  0  0  0  0
 44 47  1  0  0  0  0
 47 46  2  6  0  0  0
 47 45  1  0  0  0  0
 47 48  1  0  0  0  0
 49 51  1  0  0  0  0
 51 50  2  0  0  0  0
 53 52  1  0  0  0  0
 53 54  2  0  0  0  0
M  END
>  <MODEL>
3

>  <REMARK>
 VINA RESULT:      -4.5      2.944      5.875
  Name = 
  9 active torsions:
  status: ('A' for Active; 'I' for Inactive)
    1  A    between atoms: C_1  and  P_37
    2  A    between atoms: C_1  and  O_43
    3  A    between atoms: C_1  and  C_47
    4  A    between atoms: C_3  and  C_6
    5  A    between atoms: N_5  and  O_43
    6  A    between atoms: C_6  and  C_44
    7  A    between atoms: O_11  and  C_21
    8  A    between atoms: O_11  and  C_49
    9  A    between atoms: C_23  and  C_41
                            x       y       z     vdW  Elec       q    Type
                         _______ _______ _______ _____ _____    ______ ____

>  <TORSDO>
F 9

$$$$
=
 OpenBabel11062412483D

 54 59  0  0  1  0  0  0  0  0999 V2000
  184.2490  178.1410  141.3170 C   0  0  1  0  0  3  0  0  0  0  0  0
  187.1510  178.5220  140.1290 C   0  0  0  0  0  0  0  0  0  0  0  0
  187.0690  176.2640  138.0320 C   0  0  1  0  0  3  0  0  0  0  0  0
  180.3530  174.4870  137.1470 O   0  0  0  0  0  1  0  0  0  0  0  0
  188.0060  175.0320  137.9510 C   0  0  0  0  0  2  0  0  0  0  0  0
  187.8890  177.4160  138.0380 O   0  0  0  0  0  0  0  0  0  0  0  0
  181.6220  175.0160  136.9250 C   0  0  2  0  0  3  0  0  0  0  0  0
  186.1330  179.6170  141.8180 N   0  0  0  0  0  2  0  0  0  0  0  0
  182.2980  178.3510  139.7840 O   0  0  0  0  0  0  0  0  0  0  0  0
  180.0980  177.5820  137.7160 O   0  0  0  0  0  1  0  0  0  0  0  0
  188.2250  174.5900  136.5090 C   0  0  0  0  0  2  0  0  0  0  0  0
  186.1150  176.2950  136.7930 C   0  0  1  0  0  0  0  0  0  0  0  0
  185.7850  178.7310  136.9520 O   0  0  0  0  0  1  0  0  0  0  0  0
  185.9610  178.6760  139.6820 N   0  0  0  0  0  0  0  0  0  0  0  0
  182.7180  177.1740  137.1260 O   0  0  0  0  0  0  0  0  0  0  0  0
  188.3210  175.7120  135.6520 O   0  0  0  0  0  0  0  0  0  0  0  0
  187.3120  179.0830  141.3610 O   0  0  0  0  0  0  0  0  0  0  0  0
  180.8350  176.7790  138.5980 C   0  0  1  0  0  3  0  0  0  0  0  0
  182.5830  173.9010  134.8850 C   0  0  0  0  0  2  0  0  0  0  0  0
  183.0530  175.5800  138.8350 C   0  0  0  0  0  2  0  0  0  0  0  0
  183.9050  177.4970  137.8030 C   0  0  1  0  0  3  0  0  0  0  0  0
  183.9960  176.7110  139.1140 C   0  0  1  0  0  3  0  0  0  0  0  0
  183.3940  178.6950  142.4600 C   0  0  0  0  0  1  0  0  0  0  0  0
  182.0560  176.1640  137.8610 C   0  0  1  0  0  0  0  0  0  0  0  0
  183.3220  177.5140  140.2540 C   0  0  1  0  0  3  0  0  0  0  0  0
  181.9380  175.1790  135.4290 C   0  0  1  0  0  3  0  0  0  0  0  0
  185.1150  177.5040  136.8320 C   0  0  2  0  0  3  0  0  0  0  0  0
  188.2270  177.7880  139.3700 C   0  0  2  0  0  3  0  0  0  0  0  0
  183.9340  173.6490  135.5580 C   0  0  2  0  0  3  0  0  0  0  0  0
  187.0290  176.2870  135.5020 C   0  0  2  0  0  3  0  0  0  0  0  0
  185.2790  174.9960  136.7500 C   0  0  0  0  0  2  0  0  0  0  0  0
  181.1430  177.5690  139.8910 C   0  0  0  0  0  2  0  0  0  0  0  0
  184.7480  174.7920  135.4620 O   0  0  0  0  0  0  0  0  0  0  0  0
  185.1720  179.2360  140.7700 C   0  0  1  0  0  3  0  0  0  0  0  0
  184.6250  172.4650  134.8910 C   0  0  0  0  0  1  0  0  0  0  0  0
  180.7340  175.6360  134.5940 C   0  0  0  0  0  3  0  0  0  0  0  0
  179.7200  174.6850  134.7010 O   0  0  0  0  0  1  0  0  0  0  0  0
  180.2510  176.8700  135.0390 O   0  0  0  0  0  1  0  0  0  0  0  0
  189.0510  176.7760  140.1770 C   0  0  0  0  0  2  0  0  0  0  0  0
  188.7880  176.9310  141.6540 C   0  0  0  0  0  0  0  0  0  0  0  0
  189.7760  177.5470  142.4770 N   0  0  0  0  0  2  0  0  0  0  0  0
  187.7020  176.5350  142.1600 O   0  0  0  0  0  0  0  0  0  0  0  0
  189.4390  178.2470  143.5940 O   0  0  0  0  0  0  0  0  0  0  0  0
  189.5080  177.3570  144.6860 C   0  0  1  0  0  3  0  0  0  0  0  0
  191.8900  175.6900  144.3290 N   0  0  0  0  0  1  0  0  0  0  0  0
  192.0540  178.2590  145.0530 O   0  0  0  0  0  0  0  0  0  0  0  0
  191.2140  177.0170  145.2490 P   0  0  1  0  0  0  0  0  0  0  0  0
  191.1670  176.6160  146.8950 O   0  0  0  0  0  1  0  0  0  0  0  0
  187.1110  177.8280  145.4850 C   0  0  0  0  0  1  0  0  0  0  0  0
  188.9180  177.7240  146.9580 O   0  0  0  0  0  0  0  0  0  0  0  0
  188.5520  177.6690  145.7970 C   0  0  0  0  0  0  0  0  0  0  0  0
  187.1010  177.5300  134.8070 O   0  0  0  0  0  0  0  0  0  0  0  0
  188.2670  178.2700  134.6090 C   0  0  0  0  0  3  0  0  0  0  0  0
  189.3780  177.8770  135.0570 O   0  0  0  0  0  0  0  0  0  0  0  0
  1 23  1  1  0  0  0
  2 17  1  0  0  0  0
  3  5  1  6  0  0  0
  3  6  1  0  0  0  0
  6 28  1  0  0  0  0
  7  4  1  6  0  0  0
  7 24  1  0  0  0  0
  9 32  1  0  0  0  0
 11  5  1  0  0  0  0
 12 31  1  1  0  0  0
 12 27  1  0  0  0  0
 12  3  1  0  0  0  0
 14  2  2  0  0  0  0
 15 24  1  0  0  0  0
 16 11  1  0  0  0  0
 17  8  1  0  0  0  0
 18 10  1  6  0  0  0
 18 32  1  0  0  0  0
 19 26  1  0  0  0  0
 19 29  1  0  0  0  0
 21 15  1  6  0  0  0
 21 22  1  0  0  0  0
 22 20  1  6  0  0  0
 22 25  1  0  0  0  0
 24 18  1  0  0  0  0
 24 20  1  1  0  0  0
 25  9  1  6  0  0  0
 25  1  1  0  0  0  0
 26 36  1  6  0  0  0
 26  7  1  0  0  0  0
 27 13  1  1  0  0  0
 27 21  1  0  0  0  0
 28  2  1  0  0  0  0
 28 39  1  1  0  0  0
 29 35  1  6  0  0  0
 30 52  1  1  0  0  0
 30 16  1  0  0  0  0
 30 12  1  0  0  0  0
 33 29  1  0  0  0  0
 33 31  1  0  0  0  0
 34 14  1  6  0  0  0
 34  1  1  0  0  0  0
 34  8  1  0  0  0  0
 36 37  1  0  0  0  0
 36 38  1  0  0  0  0
 39 40  1  0  0  0  0
 40 42  2  0  0  0  0
 40 41  1  0  0  0  0
 41 43  1  0  0  0  0
 44 43  1  6  0  0  0
 44 47  1  0  0  0  0
 44 51  1  0  0  0  0
 46 47  2  0  0  0  0
 47 45  1  6  0  0  0
 47 48  1  0  0  0  0
 49 51  1  0  0  0  0
 51 50  2  0  0  0  0
 53 52  1  0  0  0  0
 53 54  2  0  0  0  0
M  END
>  <MODEL>
4

>  <REMARK>
 VINA RESULT:      -4.1      1.549      1.886
  Name = 
  9 active torsions:
  status: ('A' for Active; 'I' for Inactive)
    1  A    between atoms: C_1  and  P_37
    2  A    between atoms: C_1  and  O_43
    3  A    between atoms: C_1  and  C_47
    4  A    between atoms: C_3  and  C_6
    5  A    between atoms: N_5  and  O_43
    6  A    between atoms: C_6  and  C_44
    7  A    between atoms: O_11  and  C_21
    8  A    between atoms: O_11  and  C_49
    9  A    between atoms: C_23  and  C_41
                            x       y       z     vdW  Elec       q    Type
                         _______ _______ _______ _____ _____    ______ ____

>  <TORSDO>
F 9

$$$$
=
 OpenBabel11062412483D

 54 59  0  0  1  0  0  0  0  0999 V2000
  187.3840  171.8440  135.6180 C   0  0  1  0  0  3  0  0  0  0  0  0
  185.5250  174.3970  135.6880 C   0  0  0  0  0  0  0  0  0  0  0  0
  187.3000  176.1860  137.4630 C   0  0  1  0  0  3  0  0  0  0  0  0
  193.7090  173.3620  137.5160 O   0  0  0  0  0  1  0  0  0  0  0  0
  186.9290  176.7970  138.8380 C   0  0  0  0  0  2  0  0  0  0  0  0
  186.3060  176.5880  136.5420 O   0  0  0  0  0  0  0  0  0  0  0  0
  192.6420  174.2170  137.2520 C   0  0  2  0  0  3  0  0  0  0  0  0
  185.1800  172.3940  134.7110 N   0  0  0  0  0  2  0  0  0  0  0  0
  189.6910  172.0750  134.7120 O   0  0  0  0  0  0  0  0  0  0  0  0
  192.7500  172.6520  134.5940 O   0  0  0  0  0  1  0  0  0  0  0  0
  187.6120  178.1420  139.0550 C   0  0  0  0  0  2  0  0  0  0  0  0
  188.6980  176.7130  137.0020 C   0  0  1  0  0  0  0  0  0  0  0  0
  188.1970  176.3270  134.6210 O   0  0  0  0  0  1  0  0  0  0  0  0
  186.6760  174.1270  135.1970 N   0  0  0  0  0  0  0  0  0  0  0  0
  191.0390  174.5740  135.4630 O   0  0  0  0  0  0  0  0  0  0  0  0
  187.6540  178.8810  137.8490 O   0  0  0  0  0  0  0  0  0  0  0  0
  184.6070  173.4300  135.4040 O   0  0  0  0  0  0  0  0  0  0  0  0
  191.9290  172.3320  135.6830 C   0  0  1  0  0  3  0  0  0  0  0  0
  193.2180  176.4860  138.1740 C   0  0  0  0  0  2  0  0  0  0  0  0
  190.3450  173.3650  137.3680 C   0  0  0  0  0  2  0  0  0  0  0  0
  189.6380  174.6350  135.5370 C   0  0  1  0  0  3  0  0  0  0  0  0
  189.1180  173.6040  136.5430 C   0  0  1  0  0  3  0  0  0  0  0  0
  187.3380  170.4040  135.0990 C   0  0  0  0  0  1  0  0  0  0  0  0
  191.4880  173.6290  136.4140 C   0  0  1  0  0  0  0  0  0  0  0  0
  188.8560  172.2570  135.8250 C   0  0  1  0  0  3  0  0  0  0  0  0
  193.1020  175.6420  136.9010 C   0  0  1  0  0  3  0  0  0  0  0  0
  189.1490  176.1030  135.6270 C   0  0  2  0  0  3  0  0  0  0  0  0
  185.2460  175.6380  136.4960 C   0  0  2  0  0  3  0  0  0  0  0  0
  191.8480  176.6560  138.8350 C   0  0  2  0  0  3  0  0  0  0  0  0
  188.6180  178.2930  136.9840 C   0  0  2  0  0  3  0  0  0  0  0  0
  189.7670  176.3370  138.0540 C   0  0  0  0  0  2  0  0  0  0  0  0
  190.7950  171.3850  135.2240 C   0  0  0  0  0  2  0  0  0  0  0  0
  190.9130  177.1410  137.9030 O   0  0  0  0  0  0  0  0  0  0  0  0
  186.6040  172.7680  134.6770 C   0  0  1  0  0  3  0  0  0  0  0  0
  191.9620  177.6260  140.0050 C   0  0  0  0  0  1  0  0  0  0  0  0
  194.3770  175.6810  136.0470 C   0  0  0  0  0  3  0  0  0  0  0  0
  194.1280  176.4220  134.8920 O   0  0  0  0  0  1  0  0  0  0  0  0
  195.4350  176.2700  136.7470 O   0  0  0  0  0  1  0  0  0  0  0  0
  184.4510  175.4340  137.7930 C   0  0  0  0  0  2  0  0  0  0  0  0
  183.1390  176.1730  137.7360 C   0  0  0  0  0  0  0  0  0  0  0  0
  183.0280  177.4470  138.3700 N   0  0  0  0  0  2  0  0  0  0  0  0
  182.1490  175.6840  137.1250 O   0  0  0  0  0  0  0  0  0  0  0  0
  182.1810  178.4040  137.9030 O   0  0  0  0  0  0  0  0  0  0  0  0
  181.8600  179.2470  138.9870 C   0  0  1  0  0  3  0  0  0  0  0  0
  180.8810  181.0080  136.8620 N   0  0  0  0  0  1  0  0  0  0  0  0
  180.4810  181.5520  139.4490 O   0  0  0  0  0  1  0  0  0  0  0  0
  181.5030  180.9710  138.4970 P   0  0  1  0  0  0  0  0  0  0  0  0
  182.9390  181.8660  138.5910 O   0  0  0  0  0  0  0  0  0  0  0  0
  179.6340  178.0310  139.4060 C   0  0  0  0  0  1  0  0  0  0  0  0
  181.0660  178.6440  141.1450 O   0  0  0  0  0  0  0  0  0  0  0  0
  180.8610  178.6680  139.9440 C   0  0  0  0  0  0  0  0  0  0  0  0
  188.5620  178.8790  135.6850 O   0  0  0  0  0  0  0  0  0  0  0  0
  187.3980  179.3180  135.0540 C   0  0  0  0  0  3  0  0  0  0  0  0
  186.5530  178.5040  134.5940 O   0  0  0  0  0  0  0  0  0  0  0  0
  1 23  1  6  0  0  0
  1 25  1  0  0  0  0
  2 28  1  0  0  0  0
  3  5  1  1  0  0  0
  5 11  1  0  0  0  0
  6  3  1  0  0  0  0
  7  4  1  6  0  0  0
  8 17  1  0  0  0  0
  9 32  1  0  0  0  0
 12  3  1  0  0  0  0
 12 31  1  1  0  0  0
 14  2  2  0  0  0  0
 15 24  1  0  0  0  0
 16 11  1  0  0  0  0
 17  2  1  0  0  0  0
 18 10  1  6  0  0  0
 18 24  1  0  0  0  0
 19 29  1  0  0  0  0
 21 15  1  1  0  0  0
 21 27  1  0  0  0  0
 21 22  1  0  0  0  0
 22 20  1  1  0  0  0
 24  7  1  0  0  0  0
 24 20  1  1  0  0  0
 25  9  1  6  0  0  0
 25 22  1  0  0  0  0
 26 36  1  1  0  0  0
 26  7  1  0  0  0  0
 26 19  1  0  0  0  0
 27 13  1  6  0  0  0
 27 12  1  0  0  0  0
 28  6  1  0  0  0  0
 28 39  1  1  0  0  0
 29 35  1  1  0  0  0
 30 52  1  6  0  0  0
 30 12  1  0  0  0  0
 30 16  1  0  0  0  0
 32 18  1  0  0  0  0
 33 31  1  0  0  0  0
 33 29  1  0  0  0  0
 34  8  1  1  0  0  0
 34 14  1  0  0  0  0
 34  1  1  0  0  0  0
 36 38  1  0  0  0  0
 37 36  1  0  0  0  0
 40 39  1  0  0  0  0
 40 41  1  0  0  0  0
 42 40  2  0  0  0  0
 43 41  1  0  0  0  0
 44 43  1  6  0  0  0
 44 51  1  0  0  0  0
 47 45  1  6  0  0  0
 47 48  2  0  0  0  0
 47 44  1  0  0  0  0
 47 46  1  0  0  0  0
 49 51  1  0  0  0  0
 51 50  2  0  0  0  0
 53 52  1  0  0  0  0
 54 53  2  0  0  0  0
M  END
>  <MODEL>
5

>  <REMARK>
 VINA RESULT:      -3.7      3.749      9.521
  Name = 
  9 active torsions:
  status: ('A' for Active; 'I' for Inactive)
    1  A    between atoms: C_1  and  P_37
    2  A    between atoms: C_1  and  O_43
    3  A    between atoms: C_1  and  C_47
    4  A    between atoms: C_3  and  C_6
    5  A    between atoms: N_5  and  O_43
    6  A    between atoms: C_6  and  C_44
    7  A    between atoms: O_11  and  C_21
    8  A    between atoms: O_11  and  C_49
    9  A    between atoms: C_23  and  C_41
                            x       y       z     vdW  Elec       q    Type
                         _______ _______ _______ _____ _____    ______ ____

>  <TORSDO>
F 9

$$$$
=
 OpenBabel11062412483D

 54 59  0  0  1  0  0  0  0  0999 V2000
  184.4520  171.3890  135.8190 C   0  0  1  0  0  3  0  0  0  0  0  0
  182.4040  173.7940  135.8250 C   0  0  0  0  0  0  0  0  0  0  0  0
  184.0800  175.7950  137.4650 C   0  0  1  0  0  3  0  0  0  0  0  0
  190.6860  173.4720  137.4640 O   0  0  0  0  0  1  0  0  0  0  0  0
  183.6970  176.4420  138.8200 C   0  0  0  0  0  2  0  0  0  0  0  0
  183.0350  176.0770  136.5540 O   0  0  0  0  0  0  0  0  0  0  0  0
  189.5500  174.2300  137.1920 C   0  0  2  0  0  3  0  0  0  0  0  0
  182.1910  171.7260  134.9510 N   0  0  0  0  0  2  0  0  0  0  0  0
  186.7110  171.7500  134.8380 O   0  0  0  0  0  0  0  0  0  0  0  0
  189.7130  172.5520  134.6060 O   0  0  0  0  0  1  0  0  0  0  0  0
  184.2790  177.8440  138.9550 C   0  0  0  0  0  2  0  0  0  0  0  0
  185.4210  176.4040  136.9400 C   0  0  1  0  0  0  0  0  0  0  0  0
  184.8920  175.8680  134.5950 O   0  0  0  0  0  1  0  0  0  0  0  0
  183.5600  173.5890  135.3140 N   0  0  0  0  0  0  0  0  0  0  0  0
  187.8810  174.3780  135.4340 O   0  0  0  0  0  0  0  0  0  0  0  0
  184.2340  178.5250  137.7160 O   0  0  0  0  0  0  0  0  0  0  0  0
  181.5560  172.7480  135.6120 O   0  0  0  0  0  0  0  0  0  0  0  0
  188.9460  172.2230  135.7320 C   0  0  1  0  0  3  0  0  0  0  0  0
  189.9720  176.5780  137.9910 C   0  0  0  0  0  2  0  0  0  0  0  0
  187.3300  173.2120  137.4120 C   0  0  0  0  0  2  0  0  0  0  0  0
  186.4820  174.3360  135.5460 C   0  0  1  0  0  3  0  0  0  0  0  0
  186.0670  173.3180  136.6120 C   0  0  1  0  0  3  0  0  0  0  0  0
  184.5040  169.9260  135.3690 C   0  0  0  0  0  1  0  0  0  0  0  0
  188.4240  173.5160  136.4150 C   0  0  1  0  0  0  0  0  0  0  0  0
  185.8920  171.9220  135.9650 C   0  0  1  0  0  3  0  0  0  0  0  0
  189.8910  175.6670  136.7620 C   0  0  1  0  0  3  0  0  0  0  0  0
  185.8830  175.7660  135.5820 C   0  0  2  0  0  3  0  0  0  0  0  0
  182.0500  175.0470  136.5830 C   0  0  2  0  0  3  0  0  0  0  0  0
  188.6100  176.6750  138.6820 C   0  0  2  0  0  3  0  0  0  0  0  0
  185.2180  177.9710  136.8520 C   0  0  2  0  0  3  0  0  0  0  0  0
  186.5410  176.1620  137.9760 C   0  0  0  0  0  2  0  0  0  0  0  0
  187.8780  171.1720  135.3490 C   0  0  0  0  0  2  0  0  0  0  0  0
  187.6170  177.0420  137.7560 O   0  0  0  0  0  0  0  0  0  0  0  0
  183.5800  172.2050  134.8600 C   0  0  1  0  0  3  0  0  0  0  0  0
  188.6780  177.7060  139.8030 C   0  0  0  0  0  1  0  0  0  0  0  0
  191.1370  175.7620  135.8710 C   0  0  0  0  0  3  0  0  0  0  0  0
  190.9060  176.7010  134.8660 O   0  0  0  0  0  1  0  0  0  0  0  0
  192.2570  176.1520  136.6110 O   0  0  0  0  0  1  0  0  0  0  0  0
  181.3060  174.8460  137.9100 C   0  0  0  0  0  2  0  0  0  0  0  0
  180.1740  175.8330  138.0410 C   0  0  0  0  0  0  0  0  0  0  0  0
  179.8420  176.3460  139.3310 N   0  0  0  0  0  2  0  0  0  0  0  0
  179.5320  176.2160  137.0250 O   0  0  0  0  0  0  0  0  0  0  0  0
  179.3140  177.5890  139.4890 O   0  0  0  0  0  0  0  0  0  0  0  0
  180.3290  178.4140  140.0170 C   0  0  1  0  0  3  0  0  0  0  0  0
  179.5500  180.2440  137.8680 N   0  0  0  0  0  1  0  0  0  0  0  0
  179.3100  180.9040  140.4480 O   0  0  0  0  0  1  0  0  0  0  0  0
  180.2090  180.1590  139.4870 P   0  0  1  0  0  0  0  0  0  0  0  0
  181.7610  180.8380  139.5170 O   0  0  0  0  0  0  0  0  0  0  0  0
  181.8840  178.5950  142.0570 C   0  0  0  0  0  1  0  0  0  0  0  0
  179.6680  177.8840  142.2380 O   0  0  0  0  0  0  0  0  0  0  0  0
  180.5600  178.2400  141.4890 C   0  0  0  0  0  0  0  0  0  0  0  0
  185.0850  178.4880  135.5290 O   0  0  0  0  0  0  0  0  0  0  0  0
  186.1210  178.5840  134.5990 C   0  0  0  0  0  3  0  0  0  0  0  0
  187.3030  178.2610  134.8970 O   0  0  0  0  0  0  0  0  0  0  0  0
  1 23  1  6  0  0  0
  1 25  1  0  0  0  0
  2 28  1  0  0  0  0
  3  5  1  1  0  0  0
  5 11  1  0  0  0  0
  6 28  1  0  0  0  0
  6  3  1  0  0  0  0
  7  4  1  6  0  0  0
  8 17  1  0  0  0  0
  9 32  1  0  0  0  0
 12  3  1  0  0  0  0
 12 31  1  1  0  0  0
 14  2  2  0  0  0  0
 15 24  1  0  0  0  0
 16 11  1  0  0  0  0
 17  2  1  0  0  0  0
 18 10  1  6  0  0  0
 18 24  1  0  0  0  0
 19 29  1  0  0  0  0
 21 15  1  1  0  0  0
 21 27  1  0  0  0  0
 21 22  1  0  0  0  0
 22 20  1  1  0  0  0
 24  7  1  0  0  0  0
 24 20  1  1  0  0  0
 25  9  1  6  0  0  0
 25 22  1  0  0  0  0
 26 36  1  1  0  0  0
 26  7  1  0  0  0  0
 26 19  1  0  0  0  0
 27 13  1  6  0  0  0
 27 12  1  0  0  0  0
 28 39  1  1  0  0  0
 29 35  1  1  0  0  0
 30 52  1  6  0  0  0
 30 12  1  0  0  0  0
 30 16  1  0  0  0  0
 32 18  1  0  0  0  0
 33 31  1  0  0  0  0
 33 29  1  0  0  0  0
 34  8  1  1  0  0  0
 34 14  1  0  0  0  0
 34  1  1  0  0  0  0
 36 38  1  0  0  0  0
 37 36  1  0  0  0  0
 39 40  1  0  0  0  0
 40 41  1  0  0  0  0
 41 43  1  0  0  0  0
 42 40  2  0  0  0  0
 44 43  1  1  0  0  0
 44 51  1  0  0  0  0
 47 45  1  6  0  0  0
 47 48  2  0  0  0  0
 47 44  1  0  0  0  0
 47 46  1  0  0  0  0
 51 49  1  0  0  0  0
 51 50  2  0  0  0  0
 53 54  2  0  0  0  0
 53 52  1  0  0  0  0
M  END
>  <MODEL>
6

>  <REMARK>
 VINA RESULT:      -3.7      3.957      8.728
  Name = 
  9 active torsions:
  status: ('A' for Active; 'I' for Inactive)
    1  A    between atoms: C_1  and  P_37
    2  A    between atoms: C_1  and  O_43
    3  A    between atoms: C_1  and  C_47
    4  A    between atoms: C_3  and  C_6
    5  A    between atoms: N_5  and  O_43
    6  A    between atoms: C_6  and  C_44
    7  A    between atoms: O_11  and  C_21
    8  A    between atoms: O_11  and  C_49
    9  A    between atoms: C_23  and  C_41
                            x       y       z     vdW  Elec       q    Type
                         _______ _______ _______ _____ _____    ______ ____

>  <TORSDO>
F 9

$$$$
=
 OpenBabel11062412483D

 54 59  0  0  1  0  0  0  0  0999 V2000
  180.8510  178.9210  140.8300 C   0  0  1  0  0  3  0  0  0  0  0  0
  180.3450  177.0500  138.3360 C   0  0  0  0  0  0  0  0  0  0  0  0
  183.1200  177.3090  137.0200 C   0  0  1  0  0  3  0  0  0  0  0  0
  187.4770  179.9150  141.8440 O   0  0  0  0  0  1  0  0  0  0  0  0
  183.4340  177.8560  135.6050 C   0  0  0  0  0  2  0  0  0  0  0  0
  182.1800  176.2640  136.8670 O   0  0  0  0  0  0  0  0  0  0  0  0
  186.8440  179.0340  140.9710 C   0  0  2  0  0  3  0  0  0  0  0  0
  178.9320  177.6630  139.9840 N   0  0  0  0  0  2  0  0  0  0  0  0
  182.6940  178.3400  142.4000 O   0  0  0  0  0  0  0  0  0  0  0  0
  185.5490  178.1730  143.6370 O   0  0  0  0  0  1  0  0  0  0  0  0
  184.6530  177.1710  134.9970 C   0  0  0  0  0  2  0  0  0  0  0  0
  184.4250  176.7580  137.6830 C   0  0  1  0  0  0  0  0  0  0  0  0
  183.1780  175.2360  139.1660 O   0  0  0  0  0  1  0  0  0  0  0  0
  181.0900  176.9930  139.3750 N   0  0  0  0  0  0  0  0  0  0  0  0
  185.1210  177.3270  141.0920 O   0  0  0  0  0  0  0  0  0  0  0  0
  184.6710  175.7970  135.3330 O   0  0  0  0  0  0  0  0  0  0  0  0
  179.0650  177.4060  138.6420 O   0  0  0  0  0  0  0  0  0  0  0  0
  185.0020  179.0990  142.7380 C   0  0  1  0  0  3  0  0  0  0  0  0
  188.5540  178.2240  139.3120 C   0  0  0  0  0  2  0  0  0  0  0  0
  184.5320  179.4630  140.2760 C   0  0  0  0  0  2  0  0  0  0  0  0
  183.9570  177.1970  140.3170 C   0  0  1  0  0  3  0  0  0  0  0  0
  183.3470  178.5760  140.0460 C   0  0  1  0  0  3  0  0  0  0  0  0
  180.0610  179.5160  141.9990 C   0  0  0  0  0  1  0  0  0  0  0  0
  185.3690  178.7060  141.2820 C   0  0  1  0  0  0  0  0  0  0  0  0
  182.3550  178.9410  141.1780 C   0  0  1  0  0  3  0  0  0  0  0  0
  187.7490  177.8580  140.5630 C   0  0  1  0  0  3  0  0  0  0  0  0
  184.1810  176.2170  139.1370 C   0  0  2  0  0  3  0  0  0  0  0  0
  180.8490  176.7680  136.9440 C   0  0  2  0  0  3  0  0  0  0  0  0
  187.6230  178.4500  138.1180 C   0  0  2  0  0  3  0  0  0  0  0  0
  185.0190  175.6640  136.7060 C   0  0  2  0  0  3  0  0  0  0  0  0
  185.4770  177.8860  137.7740 C   0  0  0  0  0  2  0  0  0  0  0  0
  183.4970  179.2920  143.0370 C   0  0  0  0  0  2  0  0  0  0  0  0
  186.7650  177.3480  137.9520 O   0  0  0  0  0  0  0  0  0  0  0  0
  180.3110  177.5300  140.4820 C   0  0  1  0  0  3  0  0  0  0  0  0
  188.4520  178.6550  136.8550 C   0  0  0  0  0  1  0  0  0  0  0  0
  188.6330  177.3400  141.7050 C   0  0  0  0  0  3  0  0  0  0  0  0
  187.9730  176.2960  142.3530 O   0  0  0  0  0  1  0  0  0  0  0  0
  189.8590  176.8750  141.2220 O   0  0  0  0  0  1  0  0  0  0  0  0
  180.4310  177.7690  135.8590 C   0  0  0  0  0  2  0  0  0  0  0  0
  180.0000  179.0750  136.4760 C   0  0  0  0  0  0  0  0  0  0  0  0
  180.8050  180.2370  136.2830 N   0  0  0  0  0  2  0  0  0  0  0  0
  178.9340  179.1500  137.1470 O   0  0  0  0  0  0  0  0  0  0  0  0
  180.2620  181.4840  136.2560 O   0  0  0  0  0  0  0  0  0  0  0  0
  181.0710  182.3140  137.0600 C   0  0  1  0  0  3  0  0  0  0  0  0
  180.8700  184.3580  134.9730 N   0  0  0  0  0  1  0  0  0  0  0  0
  179.5800  184.5810  137.3040 O   0  0  0  0  0  0  0  0  0  0  0  0
  180.8800  184.0960  136.7030 P   0  0  1  0  0  0  0  0  0  0  0  0
  182.1770  184.9280  137.4080 O   0  0  0  0  0  1  0  0  0  0  0  0
  179.7290  181.9270  139.2180 C   0  0  0  0  0  1  0  0  0  0  0  0
  182.0480  181.6800  139.1310 O   0  0  0  0  0  0  0  0  0  0  0  0
  181.0370  181.9790  138.5210 C   0  0  0  0  0  0  0  0  0  0  0  0
  184.8630  174.3160  137.1440 O   0  0  0  0  0  0  0  0  0  0  0  0
  185.7800  173.2900  136.9170 C   0  0  0  0  0  3  0  0  0  0  0  0
  185.9720  172.8240  135.7610 O   0  0  0  0  0  0  0  0  0  0  0  0
  1 25  1  0  0  0  0
  1 23  1  1  0  0  0
  2 17  1  0  0  0  0
  2 14  2  0  0  0  0
  3  5  1  6  0  0  0
  3 12  1  0  0  0  0
  6 28  1  0  0  0  0
  6  3  1  0  0  0  0
  7 24  1  0  0  0  0
  7  4  1  1  0  0  0
  8 34  1  0  0  0  0
  9 32  1  0  0  0  0
 11 16  1  0  0  0  0
 11  5  1  0  0  0  0
 12 31  1  1  0  0  0
 12 27  1  0  0  0  0
 15 24  1  0  0  0  0
 16 30  1  0  0  0  0
 17  8  1  0  0  0  0
 18 32  1  0  0  0  0
 18 10  1  1  0  0  0
 19 26  1  0  0  0  0
 21 15  1  6  0  0  0
 22 20  1  1  0  0  0
 22 21  1  0  0  0  0
 22 25  1  0  0  0  0
 24 20  1  6  0  0  0
 24 18  1  0  0  0  0
 25  9  1  1  0  0  0
 26  7  1  0  0  0  0
 26 36  1  1  0  0  0
 27 13  1  6  0  0  0
 27 21  1  0  0  0  0
 28 39  1  6  0  0  0
 28  2  1  0  0  0  0
 29 35  1  6  0  0  0
 29 19  1  0  0  0  0
 30 52  1  1  0  0  0
 30 12  1  0  0  0  0
 31 33  1  0  0  0  0
 33 29  1  0  0  0  0
 34 14  1  6  0  0  0
 34  1  1  0  0  0  0
 36 37  1  0  0  0  0
 38 36  1  0  0  0  0
 39 40  1  0  0  0  0
 40 42  2  0  0  0  0
 41 40  1  0  0  0  0
 43 41  1  0  0  0  0
 44 43  1  6  0  0  0
 44 51  1  0  0  0  0
 47 45  1  6  0  0  0
 47 44  1  0  0  0  0
 47 46  2  0  0  0  0
 47 48  1  0  0  0  0
 51 50  2  0  0  0  0
 51 49  1  0  0  0  0
 53 52  1  0  0  0  0
 54 53  2  0  0  0  0
M  END
>  <MODEL>
7

>  <REMARK>
 VINA RESULT:      -3.3      3.629      8.291
  Name = 
  9 active torsions:
  status: ('A' for Active; 'I' for Inactive)
    1  A    between atoms: C_1  and  P_37
    2  A    between atoms: C_1  and  O_43
    3  A    between atoms: C_1  and  C_47
    4  A    between atoms: C_3  and  C_6
    5  A    between atoms: N_5  and  O_43
    6  A    between atoms: C_6  and  C_44
    7  A    between atoms: O_11  and  C_21
    8  A    between atoms: O_11  and  C_49
    9  A    between atoms: C_23  and  C_41
                            x       y       z     vdW  Elec       q    Type
                         _______ _______ _______ _____ _____    ______ ____

>  <TORSDO>
F 9

$$$$
