=
 OpenBabel11062412133D

 55 65  0  0  1  0  0  0  0  0999 V2000
  192.5440  174.8600  138.3440 O   0  0  0  0  0  1  0  0  0  0  0  0
  192.2850  175.8570  137.3930 C   0  0  0  0  0  0  0  0  0  0  0  0
  190.9550  175.8140  136.6660 C   0  0  2  0  0  3  0  0  0  0  0  0
  193.3670  176.3040  136.6340 O   0  0  0  0  0  1  0  0  0  0  0  0
  191.2370  176.9080  137.7230 C   0  0  1  0  0  3  0  0  0  0  0  0
  190.6120  176.6680  139.1000 C   0  0  0  0  0  2  0  0  0  0  0  0
  188.2950  178.7770  141.2940 C   0  0  0  0  0  2  0  0  0  0  0  0
  187.6490  176.3840  138.7970 C   0  0  0  0  0  1  0  0  0  0  0  0
  189.1100  178.6880  138.6780 C   0  0  1  0  0  3  0  0  0  0  0  0
  188.4570  178.2610  137.3650 C   0  0  0  0  0  2  0  0  0  0  0  0
  187.7820  177.9050  138.6610 C   0  0  1  0  0  0  0  0  0  0  0  0
  190.0020  177.9470  139.6860 C   0  0  1  0  0  3  0  0  0  0  0  0
  189.3000  177.7280  140.9840 N   0  0  0  0  0  0  0  0  0  0  0  0
  186.9060  178.4610  140.6760 C   0  0  2  0  0  3  0  0  0  0  0  0
  186.8170  178.7150  139.2770 O   0  0  0  0  0  0  0  0  0  0  0  0
  185.8530  179.2770  141.3960 C   0  0  0  0  0  1  0  0  0  0  0  0
  190.2930  177.6450  142.0740 C   0  0  2  0  0  3  0  0  0  0  0  0
  191.7020  177.4790  141.5220 C   0  0  0  0  0  1  0  0  0  0  0  0
  189.9670  176.6400  143.2000 C   0  0  0  0  0  0  0  0  0  0  0  0
  189.6570  175.2180  142.7810 C   0  0  0  0  0  2  0  0  0  0  0  0
  188.5320  176.1610  143.1740 C   0  0  0  0  0  2  0  0  0  0  0  0
  191.7170  176.4150  144.9640 O   0  0  0  0  0  0  0  0  0  0  0  0
  189.9010  177.3770  145.6630 C   0  0  0  0  0  0  0  0  0  0  0  0
  191.9220  176.7010  146.2200 N   0  0  0  0  0  0  0  0  0  0  0  0
  190.8130  177.3040  146.7010 C   0  0  0  0  0  3  0  0  0  0  0  0
  190.5220  176.7980  144.5840 C   0  0  0  0  0  0  0  0  0  0  0  0
  188.6100  177.9240  145.6700 O   0  0  0  0  0  0  0  0  0  0  0  0
  187.8670  177.2600  147.7630 O   0  0  0  0  0  0  0  0  0  0  0  0
  187.5990  177.5830  146.5740 C   0  0  0  0  0  0  0  0  0  0  0  0
  186.1800  177.5590  146.0990 C   0  0  0  0  0  3  0  0  0  0  0  0
  186.0800  178.2980  144.7760 C   0  0  0  0  0  2  0  0  0  0  0  0
  185.6080  178.9670  146.0470 C   0  0  0  0  0  2  0  0  0  0  0  0
  190.0350  174.6860  137.1490 C   0  0  0  0  0  2  0  0  0  0  0  0
  188.0530  173.3000  136.6050 C   0  0  1  0  0  3  0  0  0  0  0  0
  189.2010  172.8390  135.7290 C   0  0  0  0  0  2  0  0  0  0  0  0
  189.0490  174.3080  136.0570 C   0  0  2  0  0  3  0  0  0  0  0  0
  186.7720  173.3320  135.7880 C   0  0  1  0  0  0  0  0  0  0  0  0
  185.5920  173.8850  136.5230 N   0  0  0  0  0  0  0  0  0  0  0  0
  186.4410  172.0540  135.0630 C   0  0  0  0  0  2  0  0  0  0  0  0
  184.8210  174.9790  137.0100 C   0  0  0  0  0  0  0  0  0  0  0  0
  185.1500  176.1550  136.7130 O   0  0  0  0  0  0  0  0  0  0  0  0
  185.9170  172.4300  136.4240 C   0  0  1  0  0  3  0  0  0  0  0  0
  183.6040  174.7380  137.8350 C   0  0  0  0  0  2  0  0  0  0  0  0
  181.9980  172.9100  136.4000 O   0  0  0  0  0  0  0  0  0  0  0  0
  181.9980  174.2500  135.9540 C   0  0  1  0  0  3  0  0  0  0  0  0
  180.3600  174.0100  137.7380 C   0  0  0  0  0  2  0  0  0  0  0  0
  180.7460  173.5460  136.3420 C   0  0  2  0  0  3  0  0  0  0  0  0
  182.3550  175.2130  137.0890 C   0  0  1  0  0  3  0  0  0  0  0  0
  181.1050  175.3030  137.9560 C   0  0  2  0  0  3  0  0  0  0  0  0
  181.3570  175.5890  139.4340 C   0  0  0  0  0  2  0  0  0  0  0  0
  180.7550  176.7960  139.7970 O   0  0  0  0  0  0  0  0  0  0  0  0
  181.6850  178.9230  141.3310 O   0  0  0  0  0  1  0  0  0  0  0  0
  183.2930  177.1170  140.3430 O   0  0  0  0  0  0  0  0  0  0  0  0
  182.3440  179.0380  138.2800 S   0  0  0  0  0  1  0  0  0  0  0  0
  182.0330  177.8910  140.0320 P   0  0  1  0  0  0  0  0  0  0  0  0
  2  5  1  0  0  0  0
  2  1  1  0  0  0  0
  3 33  1  1  0  0  0
  3  2  1  0  0  0  0
  3  5  1  0  0  0  0
  4  2  1  0  0  0  0
  5  6  1  1  0  0  0
  9 10  1  6  0  0  0
  9 12  1  0  0  0  0
 10 11  1  0  0  0  0
 11  9  1  0  0  0  0
 11  8  1  1  0  0  0
 11 15  1  0  0  0  0
 12  6  1  6  0  0  0
 12 13  1  0  0  0  0
 13  7  1  0  0  0  0
 13 17  1  0  0  0  0
 14  7  1  0  0  0  0
 14 16  1  1  0  0  0
 15 14  1  0  0  0  0
 17 18  1  6  0  0  0
 17 19  1  0  0  0  0
 19 26  1  0  0  0  0
 20 21  1  0  0  0  0
 20 19  1  0  0  0  0
 21 19  1  0  0  0  0
 22 24  1  0  0  0  0
 23 27  1  0  0  0  0
 23 25  1  0  0  0  0
 24 25  2  0  0  0  0
 26 22  1  0  0  0  0
 26 23  2  0  0  0  0
 27 29  1  0  0  0  0
 29 28  2  0  0  0  0
 30 29  1  0  0  0  0
 31 32  1  0  0  0  0
 31 30  1  0  0  0  0
 32 30  1  0  0  0  0
 34 35  1  6  0  0  0
 35 36  1  0  0  0  0
 36 34  1  0  0  0  0
 36 33  1  1  0  0  0
 37 39  1  6  0  0  0
 37 42  1  0  0  0  0
 37 38  1  0  0  0  0
 37 34  1  0  0  0  0
 38 40  1  0  0  0  0
 40 43  1  0  0  0  0
 41 40  2  0  0  0  0
 42 39  1  6  0  0  0
 42 38  1  0  0  0  0
 45 47  1  0  0  0  0
 45 44  1  1  0  0  0
 45 48  1  0  0  0  0
 46 49  1  0  0  0  0
 47 44  1  0  0  0  0
 47 46  1  1  0  0  0
 48 43  1  1  0  0  0
 48 49  1  0  0  0  0
 49 50  1  1  0  0  0
 50 51  1  0  0  0  0
 51 55  1  0  0  0  0
 55 54  1  6  0  0  0
 55 53  2  0  0  0  0
 55 52  1  0  0  0  0
M  END
>  <MODEL>
1

>  <REMARK>
 VINA RESULT:      -7.3      0.000      0.000
  Name = 
  16 active torsions:
  status: ('A' for Active; 'I' for Inactive)
    1  A    between atoms: C_3  and  O_34
    2  A    between atoms: C_3  and  C_54
    3  A    between atoms: C_4  and  C_36
    4  A    between atoms: C_4  and  C_43
    5  A    between atoms: C_5  and  C_27
    6  A    between atoms: C_5  and  C_31
    7  A    between atoms: O_10  and  C_13
    8  A    between atoms: O_10  and  C_55
    9  A    between atoms: C_12  and  C_55
   10  A    between atoms: C_14  and  C_18
   11  A    between atoms: C_24  and  C_37
   12  A    between atoms: C_24  and  C_51
   13  A    between atoms: C_29  and  C_53
   14  A    between atoms: C_31  and  N_38
   15  A    between atoms: O_34  and  P_46
   16  A    between atoms: C_40  and  C_53
                            x       y       z     vdW  Elec       q    Type
                         _______ _______ _______ _____ _____    ______ ____

>  <TORSDO>
F 16

$$$$
=
 OpenBabel11062412133D

 55 65  0  0  1  0  0  0  0  0999 V2000
  186.8230  178.1870  138.5620 O   0  0  0  0  0  1  0  0  0  0  0  0
  187.2870  178.2060  137.2400 C   0  0  0  0  0  0  0  0  0  0  0  0
  188.0980  177.0200  136.7560 C   0  0  2  0  0  3  0  0  0  0  0  0
  187.6710  179.4430  136.7210 O   0  0  0  0  0  1  0  0  0  0  0  0
  186.6560  177.2460  136.2440 C   0  0  1  0  0  3  0  0  0  0  0  0
  185.5810  176.3780  136.9030 C   0  0  0  0  0  2  0  0  0  0  0  0
  182.6120  174.3230  135.6420 C   0  0  0  0  0  2  0  0  0  0  0  0
  185.4970  173.4390  137.4510 C   0  0  0  0  0  1  0  0  0  0  0  0
  185.2600  174.6750  135.0280 C   0  0  1  0  0  3  0  0  0  0  0  0
  186.5240  173.8380  135.2130 C   0  0  0  0  0  2  0  0  0  0  0  0
  185.2710  173.4290  135.9360 C   0  0  1  0  0  0  0  0  0  0  0  0
  184.6120  175.7830  135.8730 C   0  0  1  0  0  3  0  0  0  0  0  0
  183.3180  175.3360  136.4670 N   0  0  0  0  0  0  0  0  0  0  0  0
  183.0730  172.8760  135.9660 C   0  0  2  0  0  3  0  0  0  0  0  0
  184.3360  172.5260  135.4080 O   0  0  0  0  0  0  0  0  0  0  0  0
  182.0230  171.9040  135.4670 C   0  0  0  0  0  1  0  0  0  0  0  0
  182.4440  176.5070  136.6830 C   0  0  2  0  0  3  0  0  0  0  0  0
  182.7040  177.5850  135.6410 C   0  0  0  0  0  1  0  0  0  0  0  0
  182.4120  177.0590  138.1240 C   0  0  0  0  0  0  0  0  0  0  0  0
  182.6610  176.0710  139.2440 C   0  0  0  0  0  2  0  0  0  0  0  0
  181.2480  176.5380  138.9370 C   0  0  0  0  0  2  0  0  0  0  0  0
  183.9470  178.8950  138.8330 O   0  0  0  0  0  0  0  0  0  0  0  0
  181.9510  179.5820  138.3250 C   0  0  0  0  0  0  0  0  0  0  0  0
  183.9570  180.1880  139.0000 N   0  0  0  0  0  0  0  0  0  0  0  0
  182.7300  180.6640  138.6960 C   0  0  0  0  0  3  0  0  0  0  0  0
  182.7690  178.4830  138.4300 C   0  0  0  0  0  0  0  0  0  0  0  0
  180.6100  179.5700  137.9160 O   0  0  0  0  0  0  0  0  0  0  0  0
  179.4650  181.5360  138.3570 O   0  0  0  0  0  0  0  0  0  0  0  0
  179.8830  180.6940  137.5160 C   0  0  0  0  0  0  0  0  0  0  0  0
  179.5580  180.8700  136.0660 C   0  0  0  0  0  3  0  0  0  0  0  0
  180.8330  180.7510  135.2480 C   0  0  0  0  0  2  0  0  0  0  0  0
  180.2360  182.1150  135.5120 C   0  0  0  0  0  2  0  0  0  0  0  0
  188.2320  175.9090  137.8050 C   0  0  0  0  0  2  0  0  0  0  0  0
  189.7040  177.0680  139.4280 C   0  0  1  0  0  3  0  0  0  0  0  0
  190.3130  177.2260  138.0490 C   0  0  0  0  0  2  0  0  0  0  0  0
  189.6200  175.9330  138.4210 C   0  0  2  0  0  3  0  0  0  0  0  0
  190.8030  176.7910  140.4400 C   0  0  1  0  0  0  0  0  0  0  0  0
  190.3810  176.9650  141.8650 N   0  0  0  0  0  0  0  0  0  0  0  0
  192.1220  177.4590  140.1530 C   0  0  0  0  0  2  0  0  0  0  0  0
  189.7420  176.4950  143.0460 C   0  0  0  0  0  0  0  0  0  0  0  0
  189.2840  175.3250  143.0840 O   0  0  0  0  0  0  0  0  0  0  0  0
  191.0500  178.0230  141.0490 C   0  0  1  0  0  3  0  0  0  0  0  0
  189.6490  177.3640  144.2530 C   0  0  0  0  0  2  0  0  0  0  0  0
  189.7860  178.2070  146.9450 O   0  0  0  0  0  0  0  0  0  0  0  0
  189.4190  176.8630  146.7130 C   0  0  1  0  0  3  0  0  0  0  0  0
  187.4330  178.2620  146.5660 C   0  0  0  0  0  2  0  0  0  0  0  0
  188.5540  177.7970  147.4830 C   0  0  2  0  0  3  0  0  0  0  0  0
  188.7920  176.6910  145.3270 C   0  0  1  0  0  3  0  0  0  0  0  0
  187.3810  177.2540  145.4450 C   0  0  2  0  0  3  0  0  0  0  0  0
  186.8030  177.8390  144.1590 C   0  0  0  0  0  2  0  0  0  0  0  0
  185.8130  178.7760  144.4630 O   0  0  0  0  0  0  0  0  0  0  0  0
  185.2340  180.0360  142.0500 O   0  0  0  0  0  0  0  0  0  0  0  0
  184.8740  177.4730  142.3980 O   0  0  0  0  0  1  0  0  0  0  0  0
  182.7770  179.1020  143.7360 S   0  0  0  0  0  1  0  0  0  0  0  0
  184.7780  178.7990  143.1160 P   0  0  1  0  0  0  0  0  0  0  0  0
  2  1  1  0  0  0  0
  3  2  1  0  0  0  0
  3 33  1  1  0  0  0
  4  2  1  0  0  0  0
  5  3  1  0  0  0  0
  5  6  1  1  0  0  0
  5  2  1  0  0  0  0
  7 14  1  0  0  0  0
  7 13  1  0  0  0  0
  9 10  1  1  0  0  0
  9 12  1  0  0  0  0
  9 11  1  0  0  0  0
 10 11  1  0  0  0  0
 11  8  1  1  0  0  0
 12 13  1  0  0  0  0
 12  6  1  1  0  0  0
 13 17  1  0  0  0  0
 14 16  1  6  0  0  0
 15 11  1  0  0  0  0
 15 14  1  0  0  0  0
 17 18  1  6  0  0  0
 17 19  1  0  0  0  0
 19 26  1  0  0  0  0
 19 21  1  0  0  0  0
 19 20  1  0  0  0  0
 21 20  1  0  0  0  0
 22 24  1  0  0  0  0
 23 26  2  0  0  0  0
 23 25  1  0  0  0  0
 25 24  2  0  0  0  0
 26 22  1  0  0  0  0
 27 23  1  0  0  0  0
 29 27  1  0  0  0  0
 29 28  2  0  0  0  0
 30 29  1  0  0  0  0
 31 32  1  0  0  0  0
 31 30  1  0  0  0  0
 32 30  1  0  0  0  0
 34 35  1  6  0  0  0
 34 37  1  0  0  0  0
 35 36  1  0  0  0  0
 36 33  1  6  0  0  0
 36 34  1  0  0  0  0
 37 39  1  6  0  0  0
 37 42  1  0  0  0  0
 37 38  1  0  0  0  0
 38 40  1  0  0  0  0
 40 41  2  0  0  0  0
 40 43  1  0  0  0  0
 42 39  1  1  0  0  0
 42 38  1  0  0  0  0
 44 47  1  0  0  0  0
 45 44  1  6  0  0  0
 45 47  1  0  0  0  0
 47 46  1  6  0  0  0
 48 43  1  6  0  0  0
 48 49  1  0  0  0  0
 48 45  1  0  0  0  0
 49 50  1  6  0  0  0
 49 46  1  0  0  0  0
 50 51  1  0  0  0  0
 53 55  1  0  0  0  0
 55 52  2  6  0  0  0
 55 54  1  0  0  0  0
 55 51  1  0  0  0  0
M  END
>  <MODEL>
2

>  <REMARK>
 VINA RESULT:      -6.9      2.907      8.835
  Name = 
  16 active torsions:
  status: ('A' for Active; 'I' for Inactive)
    1  A    between atoms: C_3  and  O_34
    2  A    between atoms: C_3  and  C_54
    3  A    between atoms: C_4  and  C_36
    4  A    between atoms: C_4  and  C_43
    5  A    between atoms: C_5  and  C_27
    6  A    between atoms: C_5  and  C_31
    7  A    between atoms: O_10  and  C_13
    8  A    between atoms: O_10  and  C_55
    9  A    between atoms: C_12  and  C_55
   10  A    between atoms: C_14  and  C_18
   11  A    between atoms: C_24  and  C_37
   12  A    between atoms: C_24  and  C_51
   13  A    between atoms: C_29  and  C_53
   14  A    between atoms: C_31  and  N_38
   15  A    between atoms: O_34  and  P_46
   16  A    between atoms: C_40  and  C_53
                            x       y       z     vdW  Elec       q    Type
                         _______ _______ _______ _____ _____    ______ ____

>  <TORSDO>
F 16

$$$$
=
 OpenBabel11062412133D

 55 65  0  0  1  0  0  0  0  0999 V2000
  180.4130  177.0180  141.8880 O   0  0  0  0  0  1  0  0  0  0  0  0
  180.1090  178.2850  142.4020 C   0  0  0  0  0  0  0  0  0  0  0  0
  181.2600  179.1540  142.8730 C   0  0  2  0  0  3  0  0  0  0  0  0
  178.9310  178.4030  143.1410 O   0  0  0  0  0  1  0  0  0  0  0  0
  180.4900  179.5040  141.5780 C   0  0  1  0  0  3  0  0  0  0  0  0
  181.1840  179.1070  140.2730 C   0  0  0  0  0  2  0  0  0  0  0  0
  180.1090  179.1630  136.6030 C   0  0  0  0  0  2  0  0  0  0  0  0
  181.9090  181.4570  138.5700 C   0  0  0  0  0  1  0  0  0  0  0  0
  179.4220  180.3980  138.9520 C   0  0  1  0  0  3  0  0  0  0  0  0
  179.6310  181.7950  139.5290 C   0  0  0  0  0  2  0  0  0  0  0  0
  180.4020  181.3950  138.3020 C   0  0  1  0  0  0  0  0  0  0  0  0
  180.2120  179.0860  139.0860 C   0  0  1  0  0  3  0  0  0  0  0  0
  180.8570  178.6980  137.7980 N   0  0  0  0  0  0  0  0  0  0  0  0
  180.5090  180.6030  136.1810 C   0  0  2  0  0  3  0  0  0  0  0  0
  179.9480  181.6280  136.9960 O   0  0  0  0  0  0  0  0  0  0  0  0
  180.0900  180.8260  134.7430 C   0  0  0  0  0  1  0  0  0  0  0  0
  181.0200  177.2310  137.7500 C   0  0  2  0  0  3  0  0  0  0  0  0
  180.0520  176.5400  138.7000 C   0  0  0  0  0  1  0  0  0  0  0  0
  182.4690  176.7160  137.8910 C   0  0  0  0  0  0  0  0  0  0  0  0
  182.7640  175.8070  139.0660 C   0  0  0  0  0  2  0  0  0  0  0  0
  183.1830  177.2670  139.1050 C   0  0  0  0  0  2  0  0  0  0  0  0
  184.4460  177.2350  136.4590 O   0  0  0  0  0  0  0  0  0  0  0  0
  183.2150  175.6220  135.6850 C   0  0  0  0  0  0  0  0  0  0  0  0
  185.0210  176.8400  135.3570 N   0  0  0  0  0  0  0  0  0  0  0  0
  184.2870  175.8330  134.8350 C   0  0  0  0  0  3  0  0  0  0  0  0
  183.3610  176.5380  136.6990 C   0  0  0  0  0  0  0  0  0  0  0  0
  182.1830  174.6800  135.5730 O   0  0  0  0  0  0  0  0  0  0  0  0
  183.1920  172.9340  136.7150 O   0  0  0  0  0  0  0  0  0  0  0  0
  182.1470  173.4480  136.2320 C   0  0  0  0  0  0  0  0  0  0  0  0
  180.8480  172.7100  136.3200 C   0  0  0  0  0  3  0  0  0  0  0  0
  180.1040  173.1510  137.5690 C   0  0  0  0  0  2  0  0  0  0  0  0
  180.8200  171.8190  137.5530 C   0  0  0  0  0  2  0  0  0  0  0  0
  182.6350  178.5160  142.6410 C   0  0  0  0  0  2  0  0  0  0  0  0
  184.3010  178.2240  144.4540 C   0  0  1  0  0  3  0  0  0  0  0  0
  183.2570  179.2130  144.9330 C   0  0  0  0  0  2  0  0  0  0  0  0
  183.6880  179.2180  143.4820 C   0  0  2  0  0  3  0  0  0  0  0  0
  185.6810  178.6930  144.8830 C   0  0  1  0  0  0  0  0  0  0  0  0
  186.7940  178.1910  144.0180 N   0  0  0  0  0  0  0  0  0  0  0  0
  185.9850  178.5340  146.3490 C   0  0  0  0  0  2  0  0  0  0  0  0
  187.5900  178.2580  142.8400 C   0  0  0  0  0  0  0  0  0  0  0  0
  187.4210  179.1990  142.0250 O   0  0  0  0  0  0  0  0  0  0  0  0
  186.3470  177.5330  145.2830 C   0  0  1  0  0  3  0  0  0  0  0  0
  188.6500  177.2430  142.5860 C   0  0  0  0  0  2  0  0  0  0  0  0
  190.2610  176.5350  144.7960 O   0  0  0  0  0  0  0  0  0  0  0  0
  190.4590  177.8200  144.2450 C   0  0  1  0  0  3  0  0  0  0  0  0
  191.7860  176.2090  142.9920 C   0  0  0  0  0  2  0  0  0  0  0  0
  191.5650  176.8310  144.3620 C   0  0  2  0  0  3  0  0  0  0  0  0
  190.0370  177.8640  142.7740 C   0  0  1  0  0  3  0  0  0  0  0  0
  191.1480  177.1570  142.0090 C   0  0  2  0  0  3  0  0  0  0  0  0
  190.7120  176.4580  140.7230 C   0  0  0  0  0  2  0  0  0  0  0  0
  191.1260  177.1970  139.6130 O   0  0  0  0  0  0  0  0  0  0  0  0
  190.6140  177.3850  136.8840 O   0  0  0  0  0  0  0  0  0  0  0  0
  189.9190  175.2930  138.2850 O   0  0  0  0  0  1  0  0  0  0  0  0
  188.1340  177.6210  138.7670 S   0  0  0  0  0  1  0  0  0  0  0  0
  190.0420  176.7970  138.3680 P   0  0  1  0  0  0  0  0  0  0  0  0
  1  2  1  0  0  0  0
  2  3  1  0  0  0  0
  2  4  1  0  0  0  0
  3 33  1  6  0  0  0
  5  6  1  6  0  0  0
  5  2  1  0  0  0  0
  5  3  1  0  0  0  0
  7 13  1  0  0  0  0
  9 12  1  0  0  0  0
  9 10  1  1  0  0  0
 11  8  1  1  0  0  0
 11  9  1  0  0  0  0
 11 10  1  0  0  0  0
 12  6  1  1  0  0  0
 13 12  1  0  0  0  0
 14 16  1  6  0  0  0
 14  7  1  0  0  0  0
 14 15  1  0  0  0  0
 15 11  1  0  0  0  0
 17 13  1  0  0  0  0
 17 19  1  0  0  0  0
 17 18  1  1  0  0  0
 19 20  1  0  0  0  0
 19 21  1  0  0  0  0
 20 21  1  0  0  0  0
 22 26  1  0  0  0  0
 23 26  2  0  0  0  0
 24 22  1  0  0  0  0
 25 24  2  0  0  0  0
 25 23  1  0  0  0  0
 26 19  1  0  0  0  0
 27 23  1  0  0  0  0
 27 29  1  0  0  0  0
 29 30  1  0  0  0  0
 29 28  2  0  0  0  0
 30 32  1  0  0  0  0
 30 31  1  0  0  0  0
 32 31  1  0  0  0  0
 34 37  1  0  0  0  0
 34 35  1  1  0  0  0
 36 33  1  6  0  0  0
 36 34  1  0  0  0  0
 36 35  1  0  0  0  0
 37 42  1  0  0  0  0
 37 39  1  1  0  0  0
 38 37  1  0  0  0  0
 38 42  1  0  0  0  0
 40 38  1  0  0  0  0
 41 40  2  0  0  0  0
 42 39  1  1  0  0  0
 43 40  1  0  0  0  0
 45 47  1  0  0  0  0
 45 44  1  1  0  0  0
 47 46  1  6  0  0  0
 47 44  1  0  0  0  0
 48 43  1  1  0  0  0
 48 45  1  0  0  0  0
 49 50  1  6  0  0  0
 49 48  1  0  0  0  0
 49 46  1  0  0  0  0
 51 50  1  0  0  0  0
 53 55  1  0  0  0  0
 55 52  2  6  0  0  0
 55 54  1  0  0  0  0
 55 51  1  0  0  0  0
M  END
>  <MODEL>
3

>  <REMARK>
 VINA RESULT:      -6.5      3.464     10.653
  Name = 
  16 active torsions:
  status: ('A' for Active; 'I' for Inactive)
    1  A    between atoms: C_3  and  O_34
    2  A    between atoms: C_3  and  C_54
    3  A    between atoms: C_4  and  C_36
    4  A    between atoms: C_4  and  C_43
    5  A    between atoms: C_5  and  C_27
    6  A    between atoms: C_5  and  C_31
    7  A    between atoms: O_10  and  C_13
    8  A    between atoms: O_10  and  C_55
    9  A    between atoms: C_12  and  C_55
   10  A    between atoms: C_14  and  C_18
   11  A    between atoms: C_24  and  C_37
   12  A    between atoms: C_24  and  C_51
   13  A    between atoms: C_29  and  C_53
   14  A    between atoms: C_31  and  N_38
   15  A    between atoms: O_34  and  P_46
   16  A    between atoms: C_40  and  C_53
                            x       y       z     vdW  Elec       q    Type
                         _______ _______ _______ _____ _____    ______ ____

>  <TORSDO>
F 16

$$$$
=
 OpenBabel11062412133D

 55 65  0  0  1  0  0  0  0  0999 V2000
  186.4440  178.2630  138.3260 O   0  0  0  0  0  1  0  0  0  0  0  0
  187.0700  178.3620  137.0760 C   0  0  0  0  0  0  0  0  0  0  0  0
  188.0850  177.2980  136.7050 C   0  0  2  0  0  3  0  0  0  0  0  0
  187.3530  179.6460  136.6090 O   0  0  0  0  0  1  0  0  0  0  0  0
  186.7050  177.3430  136.0080 C   0  0  1  0  0  3  0  0  0  0  0  0
  185.6760  176.3330  136.5230 C   0  0  0  0  0  2  0  0  0  0  0  0
  183.0410  174.1060  134.8710 C   0  0  0  0  0  2  0  0  0  0  0  0
  185.4360  173.4730  137.3680 C   0  0  0  0  0  1  0  0  0  0  0  0
  185.7640  174.4240  134.8300 C   0  0  1  0  0  3  0  0  0  0  0  0
  186.9440  173.6320  135.3870 C   0  0  0  0  0  2  0  0  0  0  0  0
  185.5560  173.2890  135.8520 C   0  0  1  0  0  0  0  0  0  0  0  0
  184.9550  175.6110  135.3770 C   0  0  1  0  0  3  0  0  0  0  0  0
  183.5560  175.2160  135.7120 N   0  0  0  0  0  0  0  0  0  0  0  0
  183.4010  172.7120  135.4520 C   0  0  2  0  0  3  0  0  0  0  0  0
  184.7530  172.3190  135.2340 O   0  0  0  0  0  0  0  0  0  0  0  0
  182.4790  171.6750  134.8430 C   0  0  0  0  0  1  0  0  0  0  0  0
  182.6700  176.3910  135.5920 C   0  0  2  0  0  3  0  0  0  0  0  0
  183.3140  177.4810  134.7480 C   0  0  0  0  0  1  0  0  0  0  0  0
  182.0870  176.9250  136.9180 C   0  0  0  0  0  0  0  0  0  0  0  0
  182.7880  176.5090  138.1940 C   0  0  0  0  0  2  0  0  0  0  0  0
  181.4860  175.8400  137.7850 C   0  0  0  0  0  2  0  0  0  0  0  0
  180.6250  178.7350  136.0160 O   0  0  0  0  0  0  0  0  0  0  0  0
  181.2750  179.0840  138.0570 C   0  0  0  0  0  0  0  0  0  0  0  0
  180.0880  179.8670  136.3760 N   0  0  0  0  0  0  0  0  0  0  0  0
  180.4660  180.1290  137.6460 C   0  0  0  0  0  3  0  0  0  0  0  0
  181.3450  178.2270  136.9860 C   0  0  0  0  0  0  0  0  0  0  0  0
  181.9020  178.9000  139.2980 O   0  0  0  0  0  0  0  0  0  0  0  0
  181.8340  179.0840  141.6060 O   0  0  0  0  0  0  0  0  0  0  0  0
  181.2420  178.8160  140.5260 C   0  0  0  0  0  0  0  0  0  0  0  0
  179.8180  178.3540  140.5540 C   0  0  0  0  0  3  0  0  0  0  0  0
  179.4420  177.9720  141.9760 C   0  0  0  0  0  2  0  0  0  0  0  0
  179.7380  176.8900  140.9620 C   0  0  0  0  0  2  0  0  0  0  0  0
  188.2260  176.1980  137.7650 C   0  0  0  0  0  2  0  0  0  0  0  0
  189.6610  177.1190  139.5630 C   0  0  1  0  0  3  0  0  0  0  0  0
  190.2100  177.5990  138.2340 C   0  0  0  0  0  2  0  0  0  0  0  0
  189.6280  176.2070  138.3480 C   0  0  2  0  0  3  0  0  0  0  0  0
  190.8120  176.7320  140.4780 C   0  0  1  0  0  0  0  0  0  0  0  0
  190.5260  176.9220  141.9340 N   0  0  0  0  0  0  0  0  0  0  0  0
  192.1570  177.2850  140.0860 C   0  0  0  0  0  2  0  0  0  0  0  0
  189.9480  176.4930  143.1620 C   0  0  0  0  0  0  0  0  0  0  0  0
  189.3920  175.3680  143.2300 O   0  0  0  0  0  0  0  0  0  0  0  0
  191.2170  177.9280  141.0720 C   0  0  1  0  0  3  0  0  0  0  0  0
  190.0330  177.3500  144.3770 C   0  0  0  0  0  2  0  0  0  0  0  0
  191.6740  177.3740  146.6760 O   0  0  0  0  0  0  0  0  0  0  0  0
  190.8830  176.2230  146.4660 C   0  0  1  0  0  3  0  0  0  0  0  0
  189.5500  177.9000  147.6230 C   0  0  0  0  0  2  0  0  0  0  0  0
  190.7930  177.0280  147.7150 C   0  0  2  0  0  3  0  0  0  0  0  0
  189.6480  176.5450  145.6220 C   0  0  1  0  0  3  0  0  0  0  0  0
  188.6880  177.2660  146.5600 C   0  0  2  0  0  3  0  0  0  0  0  0
  187.7540  178.2710  145.8910 C   0  0  0  0  0  2  0  0  0  0  0  0
  186.5800  177.6340  145.4820 O   0  0  0  0  0  0  0  0  0  0  0  0
  184.5470  177.8500  147.3710 O   0  0  0  0  0  1  0  0  0  0  0  0
  185.8700  179.9320  146.5120 O   0  0  0  0  0  0  0  0  0  0  0  0
  183.8950  178.9450  144.5200 S   0  0  0  0  0  1  0  0  0  0  0  0
  185.3090  178.6040  146.0580 P   0  0  1  0  0  0  0  0  0  0  0  0
  2  1  1  0  0  0  0
  3  2  1  0  0  0  0
  3 33  1  1  0  0  0
  4  2  1  0  0  0  0
  5  6  1  1  0  0  0
  5  3  1  0  0  0  0
  5  2  1  0  0  0  0
  7 14  1  0  0  0  0
  7 13  1  0  0  0  0
  9 12  1  0  0  0  0
  9 10  1  1  0  0  0
  9 11  1  0  0  0  0
 10 11  1  0  0  0  0
 11  8  1  1  0  0  0
 12 13  1  0  0  0  0
 12  6  1  1  0  0  0
 14 16  1  6  0  0  0
 15 14  1  0  0  0  0
 15 11  1  0  0  0  0
 17 18  1  1  0  0  0
 17 13  1  0  0  0  0
 17 19  1  0  0  0  0
 19 26  1  0  0  0  0
 19 21  1  0  0  0  0
 19 20  1  0  0  0  0
 21 20  1  0  0  0  0
 22 24  1  0  0  0  0
 22 26  1  0  0  0  0
 23 27  1  0  0  0  0
 24 25  2  0  0  0  0
 25 23  1  0  0  0  0
 26 23  2  0  0  0  0
 27 29  1  0  0  0  0
 29 30  1  0  0  0  0
 29 28  2  0  0  0  0
 30 32  1  0  0  0  0
 30 31  1  0  0  0  0
 32 31  1  0  0  0  0
 34 35  1  6  0  0  0
 34 37  1  0  0  0  0
 35 36  1  0  0  0  0
 36 33  1  6  0  0  0
 36 34  1  0  0  0  0
 37 39  1  6  0  0  0
 37 42  1  0  0  0  0
 37 38  1  0  0  0  0
 38 40  1  0  0  0  0
 40 41  2  0  0  0  0
 40 43  1  0  0  0  0
 42 39  1  1  0  0  0
 42 38  1  0  0  0  0
 44 47  1  0  0  0  0
 45 44  1  6  0  0  0
 45 47  1  0  0  0  0
 47 46  1  6  0  0  0
 48 43  1  6  0  0  0
 48 45  1  0  0  0  0
 48 49  1  0  0  0  0
 49 50  1  6  0  0  0
 49 46  1  0  0  0  0
 51 50  1  0  0  0  0
 51 55  1  0  0  0  0
 55 54  1  6  0  0  0
 55 53  2  0  0  0  0
 55 52  1  0  0  0  0
M  END
>  <MODEL>
4

>  <REMARK>
 VINA RESULT:      -6.3      2.757      9.173
  Name = 
  16 active torsions:
  status: ('A' for Active; 'I' for Inactive)
    1  A    between atoms: C_3  and  O_34
    2  A    between atoms: C_3  and  C_54
    3  A    between atoms: C_4  and  C_36
    4  A    between atoms: C_4  and  C_43
    5  A    between atoms: C_5  and  C_27
    6  A    between atoms: C_5  and  C_31
    7  A    between atoms: O_10  and  C_13
    8  A    between atoms: O_10  and  C_55
    9  A    between atoms: C_12  and  C_55
   10  A    between atoms: C_14  and  C_18
   11  A    between atoms: C_24  and  C_37
   12  A    between atoms: C_24  and  C_51
   13  A    between atoms: C_29  and  C_53
   14  A    between atoms: C_31  and  N_38
   15  A    between atoms: O_34  and  P_46
   16  A    between atoms: C_40  and  C_53
                            x       y       z     vdW  Elec       q    Type
                         _______ _______ _______ _____ _____    ______ ____

>  <TORSDO>
F 16

$$$$
=
 OpenBabel11062412133D

 55 65  0  0  1  0  0  0  0  0999 V2000
  184.6060  180.2040  138.9340 O   0  0  0  0  0  1  0  0  0  0  0  0
  184.6020  178.8170  138.7310 C   0  0  0  0  0  0  0  0  0  0  0  0
  184.5260  177.9220  139.9520 C   0  0  2  0  0  3  0  0  0  0  0  0
  185.3810  178.3300  137.6810 O   0  0  0  0  0  1  0  0  0  0  0  0
  183.3140  178.0560  139.0000 C   0  0  1  0  0  3  0  0  0  0  0  0
  182.2000  178.9880  139.4820 C   0  0  0  0  0  2  0  0  0  0  0  0
  180.1510  179.5640  136.3040 C   0  0  0  0  0  2  0  0  0  0  0  0
  181.7880  181.7800  138.4910 C   0  0  0  0  0  1  0  0  0  0  0  0
  179.8670  179.9100  139.0090 C   0  0  1  0  0  3  0  0  0  0  0  0
  179.8680  181.1200  139.9400 C   0  0  0  0  0  2  0  0  0  0  0  0
  180.3340  181.2960  138.5220 C   0  0  1  0  0  0  0  0  0  0  0  0
  180.9700  178.9350  138.5670 C   0  0  1  0  0  3  0  0  0  0  0  0
  181.3000  179.0970  137.1210 N   0  0  0  0  0  0  0  0  0  0  0  0
  180.0340  181.1120  136.2830 C   0  0  2  0  0  3  0  0  0  0  0  0
  179.4850  181.6730  137.4710 O   0  0  0  0  0  0  0  0  0  0  0  0
  179.1820  181.5220  135.1000 C   0  0  0  0  0  1  0  0  0  0  0  0
  181.8110  177.8190  136.5860 C   0  0  2  0  0  3  0  0  0  0  0  0
  182.6450  178.0430  135.3320 C   0  0  0  0  0  1  0  0  0  0  0  0
  180.7620  176.6990  136.4160 C   0  0  0  0  0  0  0  0  0  0  0  0
  180.6460  176.0690  135.0440 C   0  0  0  0  0  2  0  0  0  0  0  0
  179.6180  177.0870  135.5060 C   0  0  0  0  0  2  0  0  0  0  0  0
  179.2290  175.9490  138.2360 O   0  0  0  0  0  0  0  0  0  0  0  0
  181.0390  174.7590  138.0820 C   0  0  0  0  0  0  0  0  0  0  0  0
  179.1400  175.0360  139.1630 N   0  0  0  0  0  0  0  0  0  0  0  0
  180.2490  174.2670  139.1070 C   0  0  0  0  0  3  0  0  0  0  0  0
  180.3470  175.8260  137.5630 C   0  0  0  0  0  0  0  0  0  0  0  0
  182.2820  174.2910  137.6340 O   0  0  0  0  0  0  0  0  0  0  0  0
  181.6690  172.8110  135.9600 O   0  0  0  0  0  0  0  0  0  0  0  0
  182.4770  173.1360  136.8710 C   0  0  0  0  0  0  0  0  0  0  0  0
  183.6440  172.2510  137.1800 C   0  0  0  0  0  3  0  0  0  0  0  0
  184.7840  173.0950  137.7230 C   0  0  0  0  0  2  0  0  0  0  0  0
  184.8310  172.6000  136.2950 C   0  0  0  0  0  2  0  0  0  0  0  0
  184.3890  178.6990  141.2670 C   0  0  0  0  0  2  0  0  0  0  0  0
  186.7060  177.9280  141.6920 C   0  0  1  0  0  3  0  0  0  0  0  0
  186.0930  178.3210  143.0210 C   0  0  0  0  0  2  0  0  0  0  0  0
  185.7590  179.1130  141.7770 C   0  0  2  0  0  3  0  0  0  0  0  0
  188.1460  178.4120  141.6340 C   0  0  1  0  0  0  0  0  0  0  0  0
  188.8560  178.0710  140.3620 N   0  0  0  0  0  0  0  0  0  0  0  0
  188.9780  178.0970  142.8490 C   0  0  0  0  0  2  0  0  0  0  0  0
  189.1530  178.3150  138.9910 C   0  0  0  0  0  0  0  0  0  0  0  0
  188.6890  179.3350  138.4240 O   0  0  0  0  0  0  0  0  0  0  0  0
  188.9160  177.2470  141.6080 C   0  0  1  0  0  3  0  0  0  0  0  0
  190.0430  177.3900  138.2350 C   0  0  0  0  0  2  0  0  0  0  0  0
  188.6110  176.9200  135.8450 O   0  0  0  0  0  0  0  0  0  0  0  0
  188.1920  176.2110  136.9920 C   0  0  1  0  0  3  0  0  0  0  0  0
  190.0110  174.9920  135.9290 C   0  0  0  0  0  2  0  0  0  0  0  0
  188.5970  175.5190  135.7390 C   0  0  2  0  0  3  0  0  0  0  0  0
  189.3370  176.0520  137.9960 C   0  0  1  0  0  3  0  0  0  0  0  0
  190.2370  174.9650  137.4200 C   0  0  2  0  0  3  0  0  0  0  0  0
  191.7140  175.0780  137.7880 C   0  0  0  0  0  2  0  0  0  0  0  0
  192.4990  174.4570  136.8140 O   0  0  0  0  0  0  0  0  0  0  0  0
  194.8240  175.1380  135.4450 O   0  0  0  0  0  0  0  0  0  0  0  0
  193.8790  176.6040  137.3890 O   0  0  0  0  0  1  0  0  0  0  0  0
  195.2020  174.1300  138.3760 S   0  0  0  0  0  1  0  0  0  0  0  0
  194.0360  175.1680  136.9460 P   0  0  1  0  0  0  0  0  0  0  0  0
  2  1  1  0  0  0  0
  2  5  1  0  0  0  0
  2  3  1  0  0  0  0
  3 33  1  1  0  0  0
  4  2  1  0  0  0  0
  5  6  1  1  0  0  0
  5  3  1  0  0  0  0
  7 13  1  0  0  0  0
  9 10  1  1  0  0  0
 11  8  1  6  0  0  0
 11  9  1  0  0  0  0
 11 10  1  0  0  0  0
 12  9  1  0  0  0  0
 12  6  1  1  0  0  0
 13 12  1  0  0  0  0
 14 16  1  6  0  0  0
 14  7  1  0  0  0  0
 14 15  1  0  0  0  0
 15 11  1  0  0  0  0
 17 18  1  6  0  0  0
 17 13  1  0  0  0  0
 19 17  1  0  0  0  0
 19 26  1  0  0  0  0
 20 21  1  0  0  0  0
 20 19  1  0  0  0  0
 21 19  1  0  0  0  0
 22 24  1  0  0  0  0
 23 25  1  0  0  0  0
 25 24  2  0  0  0  0
 26 23  2  0  0  0  0
 26 22  1  0  0  0  0
 27 23  1  0  0  0  0
 28 29  2  0  0  0  0
 29 30  1  0  0  0  0
 29 27  1  0  0  0  0
 30 31  1  0  0  0  0
 32 30  1  0  0  0  0
 32 31  1  0  0  0  0
 34 36  1  0  0  0  0
 34 35  1  1  0  0  0
 36 33  1  6  0  0  0
 36 35  1  0  0  0  0
 37 34  1  0  0  0  0
 37 39  1  1  0  0  0
 38 42  1  0  0  0  0
 38 37  1  0  0  0  0
 40 38  1  0  0  0  0
 41 40  2  0  0  0  0
 42 37  1  0  0  0  0
 42 39  1  1  0  0  0
 43 40  1  0  0  0  0
 45 44  1  6  0  0  0
 45 48  1  0  0  0  0
 46 49  1  0  0  0  0
 47 44  1  0  0  0  0
 47 46  1  1  0  0  0
 47 45  1  0  0  0  0
 48 43  1  6  0  0  0
 49 50  1  6  0  0  0
 49 48  1  0  0  0  0
 51 55  1  0  0  0  0
 51 50  1  0  0  0  0
 55 52  2  6  0  0  0
 55 53  1  0  0  0  0
 55 54  1  0  0  0  0
M  END
>  <MODEL>
5

>  <REMARK>
 VINA RESULT:      -5.8      4.005     10.033
  Name = 
  16 active torsions:
  status: ('A' for Active; 'I' for Inactive)
    1  A    between atoms: C_3  and  O_34
    2  A    between atoms: C_3  and  C_54
    3  A    between atoms: C_4  and  C_36
    4  A    between atoms: C_4  and  C_43
    5  A    between atoms: C_5  and  C_27
    6  A    between atoms: C_5  and  C_31
    7  A    between atoms: O_10  and  C_13
    8  A    between atoms: O_10  and  C_55
    9  A    between atoms: C_12  and  C_55
   10  A    between atoms: C_14  and  C_18
   11  A    between atoms: C_24  and  C_37
   12  A    between atoms: C_24  and  C_51
   13  A    between atoms: C_29  and  C_53
   14  A    between atoms: C_31  and  N_38
   15  A    between atoms: O_34  and  P_46
   16  A    between atoms: C_40  and  C_53
                            x       y       z     vdW  Elec       q    Type
                         _______ _______ _______ _____ _____    ______ ____

>  <TORSDO>
F 16

$$$$
=
 OpenBabel11062412133D

 55 65  0  0  1  0  0  0  0  0999 V2000
  190.6080  174.9480  138.0950 O   0  0  0  0  0  1  0  0  0  0  0  0
  190.5330  175.5850  136.8490 C   0  0  0  0  0  0  0  0  0  0  0  0
  189.4480  175.1380  135.8880 C   0  0  2  0  0  3  0  0  0  0  0  0
  191.7400  175.9580  136.2560 O   0  0  0  0  0  1  0  0  0  0  0  0
  189.3600  176.5150  136.5880 C   0  0  1  0  0  3  0  0  0  0  0  0
  188.4150  176.5810  137.7910 C   0  0  0  0  0  2  0  0  0  0  0  0
  185.6790  178.9960  138.9350 C   0  0  0  0  0  2  0  0  0  0  0  0
  185.5540  175.7190  137.6640 C   0  0  0  0  0  1  0  0  0  0  0  0
  186.6490  177.9750  136.5840 C   0  0  1  0  0  3  0  0  0  0  0  0
  186.1470  176.9460  135.5740 C   0  0  0  0  0  2  0  0  0  0  0  0
  185.4600  177.0480  136.9080 C   0  0  1  0  0  0  0  0  0  0  0  0
  187.5840  177.8700  137.7990 C   0  0  1  0  0  3  0  0  0  0  0  0
  186.8490  178.0930  139.0790 N   0  0  0  0  0  0  0  0  0  0  0  0
  184.3930  178.2320  138.5190 C   0  0  2  0  0  3  0  0  0  0  0  0
  184.3480  177.8710  137.1420 O   0  0  0  0  0  0  0  0  0  0  0  0
  183.1870  179.0890  138.8470 C   0  0  0  0  0  1  0  0  0  0  0  0
  187.7770  178.6290  140.0940 C   0  0  2  0  0  3  0  0  0  0  0  0
  189.2230  178.5120  139.6320 C   0  0  0  0  0  1  0  0  0  0  0  0
  187.5640  178.1120  141.5330 C   0  0  0  0  0  0  0  0  0  0  0  0
  186.1340  177.8770  141.9730 C   0  0  0  0  0  2  0  0  0  0  0  0
  186.8800  179.1190  142.4330 C   0  0  0  0  0  2  0  0  0  0  0  0
  189.3440  176.3690  141.6660 O   0  0  0  0  0  0  0  0  0  0  0  0
  188.9530  177.3540  143.5610 C   0  0  0  0  0  0  0  0  0  0  0  0
  190.1630  175.8320  142.5270 N   0  0  0  0  0  0  0  0  0  0  0  0
  189.9550  176.4140  143.7280 C   0  0  0  0  0  3  0  0  0  0  0  0
  188.5990  177.2850  142.2360 C   0  0  0  0  0  0  0  0  0  0  0  0
  188.3950  178.2170  144.5150 O   0  0  0  0  0  0  0  0  0  0  0  0
  189.0480  177.8630  146.7100 O   0  0  0  0  0  0  0  0  0  0  0  0
  188.1310  177.8780  145.8450 C   0  0  0  0  0  0  0  0  0  0  0  0
  186.7400  177.4830  146.2310 C   0  0  0  0  0  3  0  0  0  0  0  0
  185.7450  178.2980  145.4230 C   0  0  0  0  0  2  0  0  0  0  0  0
  186.0080  178.6540  146.8690 C   0  0  0  0  0  2  0  0  0  0  0  0
  188.5210  174.0670  136.4750 C   0  0  0  0  0  2  0  0  0  0  0  0
  186.9640  172.2090  135.9580 C   0  0  1  0  0  3  0  0  0  0  0  0
  188.2960  171.8980  135.3060 C   0  0  0  0  0  2  0  0  0  0  0  0
  187.8030  173.3270  135.3600 C   0  0  2  0  0  3  0  0  0  0  0  0
  185.8360  171.8370  135.0100 C   0  0  1  0  0  0  0  0  0  0  0  0
  184.4910  172.3360  135.4340 N   0  0  0  0  0  0  0  0  0  0  0  0
  185.7990  170.3900  134.5940 C   0  0  0  0  0  2  0  0  0  0  0  0
  183.5130  173.3660  135.5340 C   0  0  0  0  0  0  0  0  0  0  0  0
  183.7240  174.4810  134.9940 O   0  0  0  0  0  0  0  0  0  0  0  0
  185.0200  170.9730  135.7440 C   0  0  1  0  0  3  0  0  0  0  0  0
  182.2240  173.1190  136.2390 C   0  0  0  0  0  2  0  0  0  0  0  0
  180.5630  170.8470  136.4810 O   0  0  0  0  0  0  0  0  0  0  0  0
  180.7500  171.3680  135.1810 C   0  0  1  0  0  3  0  0  0  0  0  0
  178.9410  172.5820  136.2680 C   0  0  0  0  0  2  0  0  0  0  0  0
  179.3980  171.2140  135.7840 C   0  0  2  0  0  3  0  0  0  0  0  0
  181.1070  172.8560  135.2260 C   0  0  1  0  0  3  0  0  0  0  0  0
  179.8010  173.5800  135.5340 C   0  0  2  0  0  3  0  0  0  0  0  0
  179.9490  174.8940  136.2960 C   0  0  0  0  0  2  0  0  0  0  0  0
  179.3950  174.7720  137.5720 O   0  0  0  0  0  0  0  0  0  0  0  0
  180.5970  175.0780  140.0630 O   0  0  0  0  0  1  0  0  0  0  0  0
  181.6210  176.1080  137.8930 O   0  0  0  0  0  0  0  0  0  0  0  0
  179.2570  177.6310  138.8620 S   0  0  0  0  0  1  0  0  0  0  0  0
  180.3000  175.8130  138.5650 P   0  0  1  0  0  0  0  0  0  0  0  0
  2  1  1  0  0  0  0
  3 33  1  1  0  0  0
  3  5  1  0  0  0  0
  3  2  1  0  0  0  0
  4  2  1  0  0  0  0
  5  2  1  0  0  0  0
  5  6  1  1  0  0  0
  7 13  1  0  0  0  0
  9 10  1  6  0  0  0
  9 11  1  0  0  0  0
  9 12  1  0  0  0  0
 10 11  1  0  0  0  0
 11 15  1  0  0  0  0
 11  8  1  1  0  0  0
 12  6  1  1  0  0  0
 12 13  1  0  0  0  0
 13 17  1  0  0  0  0
 14 16  1  6  0  0  0
 14  7  1  0  0  0  0
 15 14  1  0  0  0  0
 17 18  1  6  0  0  0
 17 19  1  0  0  0  0
 19 20  1  0  0  0  0
 19 26  1  0  0  0  0
 19 21  1  0  0  0  0
 20 21  1  0  0  0  0
 22 26  1  0  0  0  0
 22 24  1  0  0  0  0
 23 25  1  0  0  0  0
 23 27  1  0  0  0  0
 24 25  2  0  0  0  0
 26 23  2  0  0  0  0
 27 29  1  0  0  0  0
 29 30  1  0  0  0  0
 29 28  2  0  0  0  0
 30 32  1  0  0  0  0
 31 30  1  0  0  0  0
 31 32  1  0  0  0  0
 34 35  1  6  0  0  0
 35 36  1  0  0  0  0
 36 34  1  0  0  0  0
 36 33  1  1  0  0  0
 37 39  1  6  0  0  0
 37 38  1  0  0  0  0
 37 42  1  0  0  0  0
 37 34  1  0  0  0  0
 38 40  1  0  0  0  0
 38 42  1  0  0  0  0
 40 43  1  0  0  0  0
 41 40  2  0  0  0  0
 42 39  1  6  0  0  0
 45 48  1  0  0  0  0
 45 47  1  0  0  0  0
 45 44  1  1  0  0  0
 47 46  1  1  0  0  0
 47 44  1  0  0  0  0
 48 49  1  0  0  0  0
 48 43  1  1  0  0  0
 49 46  1  0  0  0  0
 49 50  1  1  0  0  0
 50 51  1  0  0  0  0
 51 55  1  0  0  0  0
 55 53  2  6  0  0  0
 55 54  1  0  0  0  0
 55 52  1  0  0  0  0
M  END
>  <MODEL>
6

>  <REMARK>
 VINA RESULT:      -5.6      2.004      2.800
  Name = 
  16 active torsions:
  status: ('A' for Active; 'I' for Inactive)
    1  A    between atoms: C_3  and  O_34
    2  A    between atoms: C_3  and  C_54
    3  A    between atoms: C_4  and  C_36
    4  A    between atoms: C_4  and  C_43
    5  A    between atoms: C_5  and  C_27
    6  A    between atoms: C_5  and  C_31
    7  A    between atoms: O_10  and  C_13
    8  A    between atoms: O_10  and  C_55
    9  A    between atoms: C_12  and  C_55
   10  A    between atoms: C_14  and  C_18
   11  A    between atoms: C_24  and  C_37
   12  A    between atoms: C_24  and  C_51
   13  A    between atoms: C_29  and  C_53
   14  A    between atoms: C_31  and  N_38
   15  A    between atoms: O_34  and  P_46
   16  A    between atoms: C_40  and  C_53
                            x       y       z     vdW  Elec       q    Type
                         _______ _______ _______ _____ _____    ______ ____

>  <TORSDO>
F 16

$$$$
=
 OpenBabel11062412133D

 55 65  0  0  1  0  0  0  0  0999 V2000
  181.3220  176.9770  141.1630 O   0  0  0  0  0  1  0  0  0  0  0  0
  180.6330  177.9090  141.9510 C   0  0  0  0  0  0  0  0  0  0  0  0
  181.4510  178.8520  142.8130 C   0  0  2  0  0  3  0  0  0  0  0  0
  179.4200  177.4960  142.5030 O   0  0  0  0  0  1  0  0  0  0  0  0
  180.7100  179.3760  141.5600 C   0  0  1  0  0  3  0  0  0  0  0  0
  181.5820  179.5830  140.3190 C   0  0  0  0  0  2  0  0  0  0  0  0
  181.0790  179.0530  136.5650 C   0  0  0  0  0  2  0  0  0  0  0  0
  181.2340  181.9610  138.5380 C   0  0  0  0  0  1  0  0  0  0  0  0
  179.5860  179.7930  138.7410 C   0  0  1  0  0  3  0  0  0  0  0  0
  178.9950  181.1110  139.2380 C   0  0  0  0  0  2  0  0  0  0  0  0
  180.0060  181.1430  138.1250 C   0  0  1  0  0  0  0  0  0  0  0  0
  180.9030  179.0630  139.0450 C   0  0  1  0  0  3  0  0  0  0  0  0
  181.8080  179.0410  137.8590 N   0  0  0  0  0  0  0  0  0  0  0  0
  180.7530  180.4940  136.0860 C   0  0  2  0  0  3  0  0  0  0  0  0
  179.6590  181.1020  136.7670 O   0  0  0  0  0  0  0  0  0  0  0  0
  180.4570  180.4610  134.6010 C   0  0  0  0  0  1  0  0  0  0  0  0
  182.6880  177.8580  137.9300 C   0  0  2  0  0  3  0  0  0  0  0  0
  184.1310  178.2620  138.1960 C   0  0  0  0  0  1  0  0  0  0  0  0
  182.5510  176.8530  136.7650 C   0  0  0  0  0  0  0  0  0  0  0  0
  183.7510  176.6890  135.8560 C   0  0  0  0  0  2  0  0  0  0  0  0
  182.5590  177.5150  135.4040 C   0  0  0  0  0  2  0  0  0  0  0  0
  180.4290  175.6800  137.3530 O   0  0  0  0  0  0  0  0  0  0  0  0
  181.8980  174.3910  136.4090 C   0  0  0  0  0  0  0  0  0  0  0  0
  179.8750  174.5030  137.2720 N   0  0  0  0  0  0  0  0  0  0  0  0
  180.7560  173.6610  136.6900 C   0  0  0  0  0  3  0  0  0  0  0  0
  181.6390  175.6660  136.8500 C   0  0  0  0  0  0  0  0  0  0  0  0
  183.0840  173.9590  135.7980 O   0  0  0  0  0  0  0  0  0  0  0  0
  182.9920  171.6710  135.4480 O   0  0  0  0  0  0  0  0  0  0  0  0
  183.6140  172.6700  135.8980 C   0  0  0  0  0  0  0  0  0  0  0  0
  184.9240  172.4770  136.5950 C   0  0  0  0  0  3  0  0  0  0  0  0
  184.8620  173.1200  137.9700 C   0  0  0  0  0  2  0  0  0  0  0  0
  185.6000  173.8160  136.8490 C   0  0  0  0  0  2  0  0  0  0  0  0
  182.9650  178.6810  142.6300 C   0  0  0  0  0  2  0  0  0  0  0  0
  184.3090  178.2830  144.6740 C   0  0  1  0  0  3  0  0  0  0  0  0
  183.0380  179.0000  145.0830 C   0  0  0  0  0  2  0  0  0  0  0  0
  183.7090  179.3500  143.7730 C   0  0  2  0  0  3  0  0  0  0  0  0
  185.4860  178.8530  145.4490 C   0  0  1  0  0  0  0  0  0  0  0  0
  186.7800  178.1430  145.2060 N   0  0  0  0  0  0  0  0  0  0  0  0
  185.2340  179.0890  146.9150 C   0  0  0  0  0  2  0  0  0  0  0  0
  187.9450  177.8970  144.4250 C   0  0  0  0  0  0  0  0  0  0  0  0
  188.1650  178.5880  143.3990 O   0  0  0  0  0  0  0  0  0  0  0  0
  185.8540  177.8430  146.3390 C   0  0  1  0  0  3  0  0  0  0  0  0
  188.9240  176.8540  144.8370 C   0  0  0  0  0  2  0  0  0  0  0  0
  190.1970  175.9700  147.2000 O   0  0  0  0  0  0  0  0  0  0  0  0
  190.4060  177.3150  146.8240 C   0  0  1  0  0  3  0  0  0  0  0  0
  192.0080  175.9070  145.6510 C   0  0  0  0  0  2  0  0  0  0  0  0
  191.5340  176.3650  147.0220 C   0  0  2  0  0  3  0  0  0  0  0  0
  190.2240  177.5050  145.3160 C   0  0  1  0  0  3  0  0  0  0  0  0
  191.4840  176.9320  144.6770 C   0  0  2  0  0  3  0  0  0  0  0  0
  191.3000  176.3630  143.2730 C   0  0  0  0  0  2  0  0  0  0  0  0
  191.6700  177.3150  142.3190 O   0  0  0  0  0  0  0  0  0  0  0  0
  189.4270  175.9340  141.4190 O   0  0  0  0  0  1  0  0  0  0  0  0
  189.8100  178.4600  140.8800 O   0  0  0  0  0  0  0  0  0  0  0  0
  191.5440  176.6790  139.2480 S   0  0  0  0  0  1  0  0  0  0  0  0
  190.5470  177.1530  141.0540 P   0  0  1  0  0  0  0  0  0  0  0  0
  1  2  1  0  0  0  0
  2  4  1  0  0  0  0
  2  3  1  0  0  0  0
  3 33  1  6  0  0  0
  5  6  1  6  0  0  0
  5  2  1  0  0  0  0
  5  3  1  0  0  0  0
  7 13  1  0  0  0  0
  9 12  1  0  0  0  0
  9 10  1  1  0  0  0
 11  8  1  1  0  0  0
 11  9  1  0  0  0  0
 11 10  1  0  0  0  0
 12  6  1  1  0  0  0
 13 17  1  0  0  0  0
 13 12  1  0  0  0  0
 14 16  1  6  0  0  0
 14  7  1  0  0  0  0
 14 15  1  0  0  0  0
 15 11  1  0  0  0  0
 17 18  1  6  0  0  0
 19 26  1  0  0  0  0
 19 17  1  0  0  0  0
 20 19  1  0  0  0  0
 21 20  1  0  0  0  0
 21 19  1  0  0  0  0
 23 25  1  0  0  0  0
 23 26  2  0  0  0  0
 24 22  1  0  0  0  0
 25 24  2  0  0  0  0
 26 22  1  0  0  0  0
 27 29  1  0  0  0  0
 27 23  1  0  0  0  0
 28 29  2  0  0  0  0
 29 30  1  0  0  0  0
 30 32  1  0  0  0  0
 30 31  1  0  0  0  0
 32 31  1  0  0  0  0
 34 35  1  1  0  0  0
 34 37  1  0  0  0  0
 36 33  1  6  0  0  0
 36 34  1  0  0  0  0
 36 35  1  0  0  0  0
 37 42  1  0  0  0  0
 37 39  1  1  0  0  0
 38 37  1  0  0  0  0
 38 42  1  0  0  0  0
 40 43  1  0  0  0  0
 40 38  1  0  0  0  0
 41 40  2  0  0  0  0
 42 39  1  1  0  0  0
 45 47  1  0  0  0  0
 45 44  1  6  0  0  0
 47 46  1  6  0  0  0
 47 44  1  0  0  0  0
 48 43  1  6  0  0  0
 48 45  1  0  0  0  0
 49 50  1  6  0  0  0
 49 48  1  0  0  0  0
 49 46  1  0  0  0  0
 51 50  1  0  0  0  0
 53 55  2  0  0  0  0
 55 54  1  6  0  0  0
 55 52  1  0  0  0  0
 55 51  1  0  0  0  0
M  END
>  <MODEL>
7

>  <REMARK>
 VINA RESULT:      -5.4      3.715     11.027
  Name = 
  16 active torsions:
  status: ('A' for Active; 'I' for Inactive)
    1  A    between atoms: C_3  and  O_34
    2  A    between atoms: C_3  and  C_54
    3  A    between atoms: C_4  and  C_36
    4  A    between atoms: C_4  and  C_43
    5  A    between atoms: C_5  and  C_27
    6  A    between atoms: C_5  and  C_31
    7  A    between atoms: O_10  and  C_13
    8  A    between atoms: O_10  and  C_55
    9  A    between atoms: C_12  and  C_55
   10  A    between atoms: C_14  and  C_18
   11  A    between atoms: C_24  and  C_37
   12  A    between atoms: C_24  and  C_51
   13  A    between atoms: C_29  and  C_53
   14  A    between atoms: C_31  and  N_38
   15  A    between atoms: O_34  and  P_46
   16  A    between atoms: C_40  and  C_53
                            x       y       z     vdW  Elec       q    Type
                         _______ _______ _______ _____ _____    ______ ____

>  <TORSDO>
F 16

$$$$
=
 OpenBabel11062412133D

 55 65  0  0  1  0  0  0  0  0999 V2000
  181.3420  175.2580  139.8200 O   0  0  0  0  0  1  0  0  0  0  0  0
  180.1020  175.7170  139.3550 C   0  0  0  0  0  0  0  0  0  0  0  0
  180.0090  177.1560  138.8870 C   0  0  2  0  0  3  0  0  0  0  0  0
  178.9640  175.2210  139.9930 O   0  0  0  0  0  1  0  0  0  0  0  0
  179.9520  175.9930  137.8680 C   0  0  1  0  0  3  0  0  0  0  0  0
  181.2530  175.7200  137.1100 C   0  0  0  0  0  2  0  0  0  0  0  0
  183.1650  172.4980  136.3380 C   0  0  0  0  0  2  0  0  0  0  0  0
  180.6140  174.1990  134.6140 C   0  0  0  0  0  1  0  0  0  0  0  0
  180.6590  173.2370  137.1690 C   0  0  1  0  0  3  0  0  0  0  0  0
  179.2820  173.2800  136.5120 C   0  0  0  0  0  2  0  0  0  0  0  0
  180.4920  173.0730  135.6450 C   0  0  1  0  0  0  0  0  0  0  0  0
  181.7640  174.2920  137.3410 C   0  0  1  0  0  3  0  0  0  0  0  0
  182.9740  173.9580  136.5340 N   0  0  0  0  0  0  0  0  0  0  0  0
  182.3930  171.9650  135.1010 C   0  0  2  0  0  3  0  0  0  0  0  0
  180.9930  171.8060  135.3090 O   0  0  0  0  0  0  0  0  0  0  0  0
  182.9880  170.6340  134.6890 C   0  0  0  0  0  1  0  0  0  0  0  0
  184.1700  174.5400  137.1750 C   0  0  2  0  0  3  0  0  0  0  0  0
  183.8050  175.7510  138.0220 C   0  0  0  0  0  1  0  0  0  0  0  0
  185.3680  174.8030  136.2370 C   0  0  0  0  0  0  0  0  0  0  0  0
  185.5240  176.2110  135.7010 C   0  0  0  0  0  2  0  0  0  0  0  0
  184.9560  175.1150  134.8160 C   0  0  0  0  0  2  0  0  0  0  0  0
  186.7820  172.7720  135.9160 O   0  0  0  0  0  0  0  0  0  0  0  0
  187.8400  174.4260  136.8440 C   0  0  0  0  0  0  0  0  0  0  0  0
  188.0000  172.3530  136.1190 N   0  0  0  0  0  0  0  0  0  0  0  0
  188.7000  173.3520  136.6990 C   0  0  0  0  0  3  0  0  0  0  0  0
  186.6350  174.0060  136.3340 C   0  0  0  0  0  0  0  0  0  0  0  0
  188.1050  175.6920  137.3860 O   0  0  0  0  0  0  0  0  0  0  0  0
  189.1010  176.7620  135.5880 O   0  0  0  0  0  0  0  0  0  0  0  0
  188.9800  176.6320  136.8370 C   0  0  0  0  0  0  0  0  0  0  0  0
  189.8200  177.4640  137.7540 C   0  0  0  0  0  3  0  0  0  0  0  0
  189.2300  177.4210  139.1530 C   0  0  0  0  0  2  0  0  0  0  0  0
  189.0220  178.6440  138.2890 C   0  0  0  0  0  2  0  0  0  0  0  0
  181.3510  177.8970  138.9310 C   0  0  0  0  0  2  0  0  0  0  0  0
  181.6290  178.1050  141.3850 C   0  0  1  0  0  3  0  0  0  0  0  0
  180.2280  178.5620  141.0330 C   0  0  0  0  0  2  0  0  0  0  0  0
  181.3760  178.8700  140.0960 C   0  0  2  0  0  3  0  0  0  0  0  0
  182.2170  179.0310  142.4370 C   0  0  1  0  0  0  0  0  0  0  0  0
  183.5640  178.6140  142.9360 N   0  0  0  0  0  0  0  0  0  0  0  0
  181.2830  179.3980  143.5610 C   0  0  0  0  0  2  0  0  0  0  0  0
  184.9790  178.5420  142.8040 C   0  0  0  0  0  0  0  0  0  0  0  0
  185.5460  179.1200  141.8440 O   0  0  0  0  0  0  0  0  0  0  0  0
  182.2720  178.2630  143.6020 C   0  0  1  0  0  3  0  0  0  0  0  0
  185.7970  177.8190  143.8180 C   0  0  0  0  0  2  0  0  0  0  0  0
  184.5270  178.1000  146.3260 O   0  0  0  0  0  0  0  0  0  0  0  0
  185.2330  179.2210  145.8360 C   0  0  1  0  0  3  0  0  0  0  0  0
  186.7890  177.7480  146.9930 C   0  0  0  0  0  2  0  0  0  0  0  0
  185.5430  178.6060  147.1550 C   0  0  2  0  0  3  0  0  0  0  0  0
  186.3360  178.8000  144.8620 C   0  0  1  0  0  3  0  0  0  0  0  0
  187.4550  178.2360  145.7300 C   0  0  2  0  0  3  0  0  0  0  0  0
  188.3130  177.1600  145.0700 C   0  0  0  0  0  2  0  0  0  0  0  0
  189.5270  177.0330  145.7500 O   0  0  0  0  0  0  0  0  0  0  0  0
  191.1930  178.5830  144.1470 O   0  0  0  0  0  0  0  0  0  0  0  0
  191.9270  176.2500  145.0630 O   0  0  0  0  0  1  0  0  0  0  0  0
  189.9950  176.0260  142.8140 S   0  0  0  0  0  1  0  0  0  0  0  0
  190.7240  177.0030  144.5440 P   0  0  1  0  0  0  0  0  0  0  0  0
  2  1  1  0  0  0  0
  2  4  1  0  0  0  0
  3 33  1  6  0  0  0
  3  2  1  0  0  0  0
  5  6  1  6  0  0  0
  5  3  1  0  0  0  0
  5  2  1  0  0  0  0
  7 13  1  0  0  0  0
  9 10  1  6  0  0  0
  9 12  1  0  0  0  0
 11  8  1  6  0  0  0
 11 10  1  0  0  0  0
 11  9  1  0  0  0  0
 12  6  1  6  0  0  0
 13 17  1  0  0  0  0
 13 12  1  0  0  0  0
 14 16  1  1  0  0  0
 14 15  1  0  0  0  0
 14  7  1  0  0  0  0
 15 11  1  0  0  0  0
 17 18  1  6  0  0  0
 19 26  1  0  0  0  0
 19 17  1  0  0  0  0
 20 19  1  0  0  0  0
 21 20  1  0  0  0  0
 21 19  1  0  0  0  0
 22 24  1  0  0  0  0
 22 26  1  0  0  0  0
 23 27  1  0  0  0  0
 24 25  2  0  0  0  0
 25 23  1  0  0  0  0
 26 23  2  0  0  0  0
 28 29  2  0  0  0  0
 29 27  1  0  0  0  0
 29 30  1  0  0  0  0
 30 32  1  0  0  0  0
 30 31  1  0  0  0  0
 32 31  1  0  0  0  0
 34 35  1  1  0  0  0
 34 37  1  0  0  0  0
 36 33  1  6  0  0  0
 36 35  1  0  0  0  0
 36 34  1  0  0  0  0
 37 38  1  0  0  0  0
 37 39  1  1  0  0  0
 37 42  1  0  0  0  0
 38 42  1  0  0  0  0
 40 38  1  0  0  0  0
 40 43  1  0  0  0  0
 41 40  2  0  0  0  0
 42 39  1  1  0  0  0
 44 47  1  0  0  0  0
 45 44  1  6  0  0  0
 45 47  1  0  0  0  0
 47 46  1  6  0  0  0
 48 43  1  6  0  0  0
 48 49  1  0  0  0  0
 48 45  1  0  0  0  0
 49 50  1  6  0  0  0
 49 46  1  0  0  0  0
 50 51  1  0  0  0  0
 52 55  2  0  0  0  0
 55 54  1  6  0  0  0
 55 53  1  0  0  0  0
 55 51  1  0  0  0  0
M  END
>  <MODEL>
8

>  <REMARK>
 VINA RESULT:      -5.3      3.144     10.041
  Name = 
  16 active torsions:
  status: ('A' for Active; 'I' for Inactive)
    1  A    between atoms: C_3  and  O_34
    2  A    between atoms: C_3  and  C_54
    3  A    between atoms: C_4  and  C_36
    4  A    between atoms: C_4  and  C_43
    5  A    between atoms: C_5  and  C_27
    6  A    between atoms: C_5  and  C_31
    7  A    between atoms: O_10  and  C_13
    8  A    between atoms: O_10  and  C_55
    9  A    between atoms: C_12  and  C_55
   10  A    between atoms: C_14  and  C_18
   11  A    between atoms: C_24  and  C_37
   12  A    between atoms: C_24  and  C_51
   13  A    between atoms: C_29  and  C_53
   14  A    between atoms: C_31  and  N_38
   15  A    between atoms: O_34  and  P_46
   16  A    between atoms: C_40  and  C_53
                            x       y       z     vdW  Elec       q    Type
                         _______ _______ _______ _____ _____    ______ ____

>  <TORSDO>
F 16

$$$$
=
 OpenBabel11062412133D

 55 65  0  0  1  0  0  0  0  0999 V2000
  183.6360  180.0360  139.8870 O   0  0  0  0  0  1  0  0  0  0  0  0
  183.6890  178.8110  139.2080 C   0  0  0  0  0  0  0  0  0  0  0  0
  183.1910  177.5760  139.9340 C   0  0  2  0  0  3  0  0  0  0  0  0
  184.7740  178.6060  138.3560 O   0  0  0  0  0  1  0  0  0  0  0  0
  182.3790  178.1810  138.7640 C   0  0  1  0  0  3  0  0  0  0  0  0
  181.1760  179.0350  139.1710 C   0  0  0  0  0  2  0  0  0  0  0  0
  179.9130  180.1750  135.7450 C   0  0  0  0  0  2  0  0  0  0  0  0
  181.1690  181.9520  138.5090 C   0  0  0  0  0  1  0  0  0  0  0  0
  179.0660  180.2170  138.3520 C   0  0  1  0  0  3  0  0  0  0  0  0
  178.9400  181.3000  139.4210 C   0  0  0  0  0  2  0  0  0  0  0  0
  179.7160  181.6030  138.1690 C   0  0  1  0  0  0  0  0  0  0  0  0
  180.1750  179.2060  138.0210 C   0  0  1  0  0  3  0  0  0  0  0  0
  180.8240  179.5100  136.7120 N   0  0  0  0  0  0  0  0  0  0  0  0
  179.9030  181.7180  135.9130 C   0  0  2  0  0  3  0  0  0  0  0  0
  179.1430  182.1800  137.0260 O   0  0  0  0  0  0  0  0  0  0  0  0
  179.3580  182.3450  134.6460 C   0  0  0  0  0  1  0  0  0  0  0  0
  181.3580  178.2640  136.1250 C   0  0  2  0  0  3  0  0  0  0  0  0
  182.0300  178.5330  134.7860 C   0  0  0  0  0  1  0  0  0  0  0  0
  180.3740  177.0750  136.0750 C   0  0  0  0  0  0  0  0  0  0  0  0
  179.7080  176.7900  134.7450 C   0  0  0  0  0  2  0  0  0  0  0  0
  178.9390  177.4970  135.8490 C   0  0  0  0  0  2  0  0  0  0  0  0
  179.5730  175.4320  137.7740 O   0  0  0  0  0  0  0  0  0  0  0  0
  181.6250  175.0990  137.1470 C   0  0  0  0  0  0  0  0  0  0  0  0
  179.9860  174.3880  138.4360 N   0  0  0  0  0  0  0  0  0  0  0  0
  181.2650  174.1410  138.0790 C   0  0  0  0  0  3  0  0  0  0  0  0
  180.5160  175.8950  136.9900 C   0  0  0  0  0  0  0  0  0  0  0  0
  182.8470  175.2540  136.4790 O   0  0  0  0  0  0  0  0  0  0  0  0
  184.3360  174.2750  137.9610 O   0  0  0  0  0  0  0  0  0  0  0  0
  184.1070  175.1420  137.0750 C   0  0  0  0  0  0  0  0  0  0  0  0
  185.1830  176.1040  136.6800 C   0  0  0  0  0  3  0  0  0  0  0  0
  184.9940  176.5020  135.2270 C   0  0  0  0  0  2  0  0  0  0  0  0
  186.0680  175.5040  135.5970 C   0  0  0  0  0  2  0  0  0  0  0  0
  182.6200  177.8780  141.3250 C   0  0  0  0  0  2  0  0  0  0  0  0
  183.9460  178.2310  143.3890 C   0  0  1  0  0  3  0  0  0  0  0  0
  182.8560  179.2830  143.3480 C   0  0  0  0  0  2  0  0  0  0  0  0
  183.5270  178.8460  142.0650 C   0  0  2  0  0  3  0  0  0  0  0  0
  185.2420  178.8600  143.8740 C   0  0  1  0  0  0  0  0  0  0  0  0
  186.4700  178.3160  143.2150 N   0  0  0  0  0  0  0  0  0  0  0  0
  185.3920  178.9480  145.3690 C   0  0  0  0  0  2  0  0  0  0  0  0
  187.3850  178.2610  142.1260 C   0  0  0  0  0  0  0  0  0  0  0  0
  187.2530  179.0530  141.1590 O   0  0  0  0  0  0  0  0  0  0  0  0
  185.9250  177.8260  144.5170 C   0  0  1  0  0  3  0  0  0  0  0  0
  188.5230  177.3000  142.1430 C   0  0  0  0  0  2  0  0  0  0  0  0
  189.8770  176.2960  144.4100 O   0  0  0  0  0  0  0  0  0  0  0  0
  190.0020  177.6790  144.1480 C   0  0  1  0  0  3  0  0  0  0  0  0
  191.6670  176.4720  142.8450 C   0  0  0  0  0  2  0  0  0  0  0  0
  191.1870  176.7830  144.2540 C   0  0  2  0  0  3  0  0  0  0  0  0
  189.7890  177.9850  142.6640 C   0  0  1  0  0  3  0  0  0  0  0  0
  191.0700  177.5430  141.9680 C   0  0  2  0  0  3  0  0  0  0  0  0
  190.9010  177.0850  140.5210 C   0  0  0  0  0  2  0  0  0  0  0  0
  190.2000  178.0490  139.7930 O   0  0  0  0  0  0  0  0  0  0  0  0
  191.1340  176.5910  137.6140 O   0  0  0  0  0  0  0  0  0  0  0  0
  188.7530  176.2140  138.6180 O   0  0  0  0  0  1  0  0  0  0  0  0
  188.9190  178.7060  137.0040 S   0  0  0  0  0  1  0  0  0  0  0  0
  189.7690  177.2950  138.3330 P   0  0  1  0  0  0  0  0  0  0  0  0
  2  1  1  0  0  0  0
  2  3  1  0  0  0  0
  3 33  1  1  0  0  0
  4  2  1  0  0  0  0
  5  6  1  1  0  0  0
  5  2  1  0  0  0  0
  5  3  1  0  0  0  0
  7 14  1  0  0  0  0
  7 13  1  0  0  0  0
  9 10  1  1  0  0  0
 11  9  1  0  0  0  0
 11  8  1  1  0  0  0
 11 10  1  0  0  0  0
 12  9  1  0  0  0  0
 12  6  1  1  0  0  0
 13 12  1  0  0  0  0
 14 16  1  6  0  0  0
 14 15  1  0  0  0  0
 15 11  1  0  0  0  0
 17 18  1  6  0  0  0
 17 13  1  0  0  0  0
 19 17  1  0  0  0  0
 19 26  1  0  0  0  0
 20 21  1  0  0  0  0
 20 19  1  0  0  0  0
 21 19  1  0  0  0  0
 22 24  1  0  0  0  0
 23 25  1  0  0  0  0
 25 24  2  0  0  0  0
 26 23  2  0  0  0  0
 26 22  1  0  0  0  0
 27 29  1  0  0  0  0
 27 23  1  0  0  0  0
 29 28  2  0  0  0  0
 30 29  1  0  0  0  0
 31 32  1  0  0  0  0
 31 30  1  0  0  0  0
 32 30  1  0  0  0  0
 34 35  1  1  0  0  0
 34 37  1  0  0  0  0
 36 33  1  6  0  0  0
 36 35  1  0  0  0  0
 36 34  1  0  0  0  0
 37 42  1  0  0  0  0
 37 39  1  1  0  0  0
 38 37  1  0  0  0  0
 38 42  1  0  0  0  0
 40 43  1  0  0  0  0
 40 38  1  0  0  0  0
 41 40  2  0  0  0  0
 42 39  1  1  0  0  0
 45 47  1  0  0  0  0
 45 44  1  6  0  0  0
 47 46  1  6  0  0  0
 47 44  1  0  0  0  0
 48 43  1  6  0  0  0
 48 45  1  0  0  0  0
 49 50  1  6  0  0  0
 49 48  1  0  0  0  0
 49 46  1  0  0  0  0
 51 50  1  0  0  0  0
 52 55  2  0  0  0  0
 55 54  1  6  0  0  0
 55 53  1  0  0  0  0
 55 51  1  0  0  0  0
M  END
>  <MODEL>
9

>  <REMARK>
 VINA RESULT:      -5.2      3.763     10.363
  Name = 
  16 active torsions:
  status: ('A' for Active; 'I' for Inactive)
    1  A    between atoms: C_3  and  O_34
    2  A    between atoms: C_3  and  C_54
    3  A    between atoms: C_4  and  C_36
    4  A    between atoms: C_4  and  C_43
    5  A    between atoms: C_5  and  C_27
    6  A    between atoms: C_5  and  C_31
    7  A    between atoms: O_10  and  C_13
    8  A    between atoms: O_10  and  C_55
    9  A    between atoms: C_12  and  C_55
   10  A    between atoms: C_14  and  C_18
   11  A    between atoms: C_24  and  C_37
   12  A    between atoms: C_24  and  C_51
   13  A    between atoms: C_29  and  C_53
   14  A    between atoms: C_31  and  N_38
   15  A    between atoms: O_34  and  P_46
   16  A    between atoms: C_40  and  C_53
                            x       y       z     vdW  Elec       q    Type
                         _______ _______ _______ _____ _____    ______ ____

>  <TORSDO>
F 16

$$$$
