=
 OpenBabel11062411023D

 49 53  0  0  1  0  0  0  0  0999 V2000
  187.7470  173.9780  136.9370 C   0  0  0  0  0  3  0  0  0  0  0  0
  188.7930  174.9210  136.9360 C   0  0  0  0  0  3  0  0  0  0  0  0
  184.1780  175.6870  134.8890 C   0  0  0  0  0  1  0  0  0  0  0  0
  186.2100  175.6550  136.3280 C   0  0  0  0  0  0  0  0  0  0  0  0
  186.4690  174.3600  136.6460 N   0  0  0  0  0  0  0  0  0  0  0  0
  187.2060  176.6020  136.3100 C   0  0  0  0  0  0  0  0  0  0  0  0
  184.8620  176.2850  136.1050 C   0  0  1  0  0  0  0  0  0  0  0  0
  186.5610  177.8560  136.0010 C   0  0  0  0  0  0  0  0  0  0  0  0
  185.1890  177.6590  135.8650 O   0  0  0  0  0  0  0  0  0  0  0  0
  187.1270  178.9740  135.8730 O   0  0  0  0  0  0  0  0  0  0  0  0
  188.5260  176.2640  136.6250 C   0  0  0  0  0  0  0  0  0  0  0  0
  182.6130  178.9450  139.2570 C   0  0  1  0  0  0  0  0  0  0  0  0
  180.9110  179.8810  137.8280 O   0  0  0  0  0  0  0  0  0  0  0  0
  183.2010  177.1340  137.6890 C   0  0  0  0  0  0  0  0  0  0  0  0
  181.7490  180.1560  138.9330 C   0  0  0  0  0  2  0  0  0  0  0  0
  181.4990  178.8130  137.1220 C   0  0  1  0  0  3  0  0  0  0  0  0
  182.4240  178.1260  138.0490 C   0  0  0  0  0  0  0  0  0  0  0  0
  183.9850  176.1570  137.3150 C   0  0  0  0  0  3  0  0  0  0  0  0
  184.0560  179.3910  139.4260 C   0  0  0  0  0  1  0  0  0  0  0  0
  182.8000  178.4100  141.7020 O   0  0  0  0  0  1  0  0  0  0  0  0
  181.0860  177.5350  140.4700 O   0  0  0  0  0  0  0  0  0  0  0  0
  182.1330  178.2350  140.4950 C   0  0  0  0  0  0  0  0  0  0  0  0
  180.4480  177.8870  136.5860 C   0  0  0  0  0  0  0  0  0  0  0  0
  179.7860  177.0580  137.3850 C   0  0  0  0  0  2  0  0  0  0  0  0
  180.1950  177.8650  135.2200 O   0  0  0  0  0  1  0  0  0  0  0  0
  189.6120  177.2870  136.7410 C   0  0  0  0  0  2  0  0  0  0  0  0
  189.5720  177.9160  138.0560 N   0  0  0  0  0  0  0  0  0  0  0  0
  189.3350  179.2490  138.1340 O   0  0  0  0  0  1  0  0  0  0  0  0
  189.5510  177.1300  139.2560 C   0  0  0  0  0  0  0  0  0  0  0  0
  188.4330  177.0540  139.9670 C   0  0  0  0  0  2  0  0  0  0  0  0
  191.7770  177.2870  140.3970 C   0  0  0  0  0  0  0  0  0  0  0  0
  191.5120  177.9240  141.6540 N   0  0  0  0  0  2  0  0  0  0  0  0
  193.3130  176.8440  138.6410 N   0  0  0  0  0  0  0  0  0  0  0  0
  192.9310  177.4840  139.8340 N   0  0  0  0  0  0  0  0  0  0  0  0
  192.5580  175.9460  138.0900 C   0  0  0  0  0  3  0  0  0  0  0  0
  190.7610  176.3810  139.7320 C   0  0  2  0  0  3  0  0  0  0  0  0
  191.3270  175.6200  138.6620 O   0  0  0  0  0  0  0  0  0  0  0  0
  190.0410  177.7790  142.5600 S   0  0  0  0  0  0  0  0  0  0  0  0
  188.9960  178.6760  141.9470 O   0  0  0  0  0  0  0  0  0  0  0  0
  189.5560  176.3590  142.4730 O   0  0  0  0  0  0  0  0  0  0  0  0
  189.2340  177.8570  145.2030 C   0  0  1  0  0  3  0  0  0  0  0  0
  190.3470  176.9290  145.0180 C   0  0  1  0  0  3  0  0  0  0  0  0
  190.3260  178.1790  144.2410 N   0  0  0  0  0  0  0  0  0  0  0  0
  191.3360  177.0790  146.1570 C   0  0  0  0  0  2  0  0  0  0  0  0
  191.7630  175.7090  146.6440 C   0  0  0  0  0  2  0  0  0  0  0  0
  192.5460  175.8550  147.9340 C   0  0  0  0  0  1  0  0  0  0  0  0
  187.9560  177.2950  144.5850 C   0  0  0  0  0  2  0  0  0  0  0  0
  187.2550  177.8040  146.9240 C   0  0  0  0  0  1  0  0  0  0  0  0
  186.7760  177.5240  145.5110 C   0  0  0  0  0  2  0  0  0  0  0  0
  2  1  1  0  0  0  0
  4  5  1  0  0  0  0
  5  1  2  0  0  0  0
  6  4  2  0  0  0  0
  6 11  1  0  0  0  0
  7  3  1  6  0  0  0
  7  4  1  0  0  0  0
  7 18  1  0  0  0  0
  8  6  1  0  0  0  0
  9  8  1  0  0  0  0
  9  7  1  0  0  0  0
 10  8  2  0  0  0  0
 11 26  1  0  0  0  0
 11  2  2  0  0  0  0
 12 19  1  1  0  0  0
 12 22  1  0  0  0  0
 13 15  1  0  0  0  0
 14 17  2  0  0  0  0
 15 12  1  0  0  0  0
 16 23  1  1  0  0  0
 16 13  1  0  0  0  0
 16 17  1  0  0  0  0
 17 12  1  0  0  0  0
 18 14  2  0  0  0  0
 21 22  2  0  0  0  0
 22 20  1  0  0  0  0
 23 24  2  0  0  0  0
 25 23  1  0  0  0  0
 26 27  1  0  0  0  0
 27 28  1  0  0  0  0
 27 29  1  0  0  0  0
 29 30  2  0  0  0  0
 31 32  1  0  0  0  0
 32 38  1  0  0  0  0
 33 34  1  0  0  0  0
 34 31  2  0  0  0  0
 35 33  2  0  0  0  0
 35 37  1  0  0  0  0
 36 29  1  6  0  0  0
 36 31  1  0  0  0  0
 37 36  1  0  0  0  0
 38 43  1  0  0  0  0
 39 38  2  0  0  0  0
 40 38  2  0  0  0  0
 41 47  1  6  0  0  0
 42 41  1  0  0  0  0
 42 44  1  1  0  0  0
 43 42  1  0  0  0  0
 43 41  1  0  0  0  0
 44 45  1  0  0  0  0
 45 46  1  0  0  0  0
 47 49  1  0  0  0  0
 49 48  1  0  0  0  0
M  END
>  <MODEL>
1

>  <REMARK>
 VINA RESULT:      -7.8      0.000      0.000
  Name = 
  13 active torsions:
  status: ('A' for Active; 'I' for Inactive)
    1  A    between atoms: C_3  and  C_36
    2  A    between atoms: N_4  and  S_34
    3  A    between atoms: C_5  and  C_26
    4  A    between atoms: C_9  and  C_25
    5  A    between atoms: C_12  and  C_19
    6  A    between atoms: C_12  and  C_29
    7  A    between atoms: N_17  and  C_27
    8  A    between atoms: N_17  and  C_43
    9  A    between atoms: C_24  and  C_27
   10  A    between atoms: C_25  and  C_40
   11  A    between atoms: S_34  and  N_48
   12  A    between atoms: C_38  and  C_41
   13  A    between atoms: C_43  and  C_49
                            x       y       z     vdW  Elec       q    Type
                         _______ _______ _______ _____ _____    ______ ____

>  <TORSDO>
F 13

$$$$
=
 OpenBabel11062411023D

 49 53  0  0  1  0  0  0  0  0999 V2000
  188.0060  174.0930  136.8530 C   0  0  0  0  0  3  0  0  0  0  0  0
  188.9940  175.0900  136.9690 C   0  0  0  0  0  3  0  0  0  0  0  0
  184.2950  175.8500  135.1220 C   0  0  0  0  0  1  0  0  0  0  0  0
  186.3590  175.7420  136.5100 C   0  0  0  0  0  0  0  0  0  0  0  0
  186.7010  174.4330  136.6380 N   0  0  0  0  0  0  0  0  0  0  0  0
  187.2970  176.7410  136.6110 C   0  0  0  0  0  0  0  0  0  0  0  0
  184.9720  176.3120  136.3990 C   0  0  1  0  0  0  0  0  0  0  0  0
  186.5720  177.9840  136.4920 C   0  0  0  0  0  0  0  0  0  0  0  0
  185.2120  177.7240  136.3510 O   0  0  0  0  0  0  0  0  0  0  0  0
  187.0690  179.1410  136.5150 O   0  0  0  0  0  0  0  0  0  0  0  0
  188.6420  176.4440  136.8550 C   0  0  0  0  0  0  0  0  0  0  0  0
  180.4920  176.3130  137.8160 C   0  0  1  0  0  0  0  0  0  0  0  0
  179.6400  174.5550  136.4030 O   0  0  0  0  0  0  0  0  0  0  0  0
  182.8580  175.7020  137.4710 C   0  0  0  0  0  0  0  0  0  0  0  0
  179.3130  175.7880  137.0100 C   0  0  0  0  0  2  0  0  0  0  0  0
  181.0460  174.4890  136.3380 C   0  0  1  0  0  3  0  0  0  0  0  0
  181.5800  175.4490  137.3280 C   0  0  0  0  0  0  0  0  0  0  0  0
  184.1330  175.9620  137.5930 C   0  0  0  0  0  3  0  0  0  0  0  0
  180.7240  177.7750  137.4710 C   0  0  0  0  0  1  0  0  0  0  0  0
  179.2440  176.8440  139.9270 O   0  0  0  0  0  0  0  0  0  0  0  0
  180.9600  175.3350  139.9650 O   0  0  0  0  0  1  0  0  0  0  0  0
  180.2700  176.1510  139.2970 C   0  0  0  0  0  0  0  0  0  0  0  0
  181.5260  173.0910  136.5940 C   0  0  0  0  0  0  0  0  0  0  0  0
  180.9100  172.2980  137.4620 C   0  0  0  0  0  2  0  0  0  0  0  0
  182.6650  172.6350  135.9420 O   0  0  0  0  0  1  0  0  0  0  0  0
  189.6690  177.5060  137.0980 C   0  0  0  0  0  2  0  0  0  0  0  0
  189.5260  178.0440  138.4450 N   0  0  0  0  0  0  0  0  0  0  0  0
  189.1750  179.3450  138.5940 O   0  0  0  0  0  1  0  0  0  0  0  0
  189.5260  177.1840  139.5930 C   0  0  0  0  0  0  0  0  0  0  0  0
  188.4100  177.0330  140.2960 C   0  0  0  0  0  2  0  0  0  0  0  0
  191.7600  177.3360  140.7180 C   0  0  0  0  0  0  0  0  0  0  0  0
  191.4960  177.9100  142.0050 N   0  0  0  0  0  2  0  0  0  0  0  0
  193.2860  177.0010  138.9300 N   0  0  0  0  0  0  0  0  0  0  0  0
  192.9040  177.5810  140.1530 N   0  0  0  0  0  0  0  0  0  0  0  0
  192.5440  176.1140  138.3470 C   0  0  0  0  0  3  0  0  0  0  0  0
  190.7560  176.4390  140.0240 C   0  0  2  0  0  3  0  0  0  0  0  0
  191.3250  175.7380  138.9160 O   0  0  0  0  0  0  0  0  0  0  0  0
  190.0380  177.6960  142.9180 S   0  0  0  0  0  0  0  0  0  0  0  0
  188.9480  178.5400  142.3090 O   0  0  0  0  0  0  0  0  0  0  0  0
  189.6230  176.2540  142.8360 O   0  0  0  0  0  0  0  0  0  0  0  0
  189.2070  177.8130  145.5520 C   0  0  1  0  0  3  0  0  0  0  0  0
  190.3110  176.8720  145.3890 C   0  0  1  0  0  3  0  0  0  0  0  0
  190.3110  178.1120  144.5980 N   0  0  0  0  0  0  0  0  0  0  0  0
  191.2900  177.0240  146.5360 C   0  0  0  0  0  2  0  0  0  0  0  0
  192.0530  175.7290  146.7300 C   0  0  0  0  0  2  0  0  0  0  0  0
  192.6990  175.7260  148.1010 C   0  0  0  0  0  1  0  0  0  0  0  0
  187.9280  177.2570  144.9280 C   0  0  0  0  0  2  0  0  0  0  0  0
  185.6850  178.2270  144.4280 C   0  0  0  0  0  1  0  0  0  0  0  0
  186.7110  177.9490  145.5120 C   0  0  0  0  0  2  0  0  0  0  0  0
  1  2  1  0  0  0  0
  4  6  2  0  0  0  0
  4  5  1  0  0  0  0
  5  1  2  0  0  0  0
  6 11  1  0  0  0  0
  7  3  1  6  0  0  0
  7  4  1  0  0  0  0
  7 18  1  0  0  0  0
  8 10  2  0  0  0  0
  8  6  1  0  0  0  0
  9  7  1  0  0  0  0
  9  8  1  0  0  0  0
 11  2  2  0  0  0  0
 11 26  1  0  0  0  0
 12 19  1  6  0  0  0
 12 22  1  0  0  0  0
 13 15  1  0  0  0  0
 14 18  2  0  0  0  0
 15 12  1  0  0  0  0
 16 13  1  0  0  0  0
 16 23  1  1  0  0  0
 16 17  1  0  0  0  0
 17 14  2  0  0  0  0
 17 12  1  0  0  0  0
 22 20  2  0  0  0  0
 22 21  1  0  0  0  0
 23 24  2  0  0  0  0
 25 23  1  0  0  0  0
 26 27  1  0  0  0  0
 27 28  1  0  0  0  0
 27 29  1  0  0  0  0
 29 30  2  0  0  0  0
 31 32  1  0  0  0  0
 32 38  1  0  0  0  0
 33 34  1  0  0  0  0
 34 31  2  0  0  0  0
 35 37  1  0  0  0  0
 35 33  2  0  0  0  0
 36 29  1  6  0  0  0
 36 31  1  0  0  0  0
 37 36  1  0  0  0  0
 38 43  1  0  0  0  0
 39 38  2  0  0  0  0
 40 38  2  0  0  0  0
 41 47  1  6  0  0  0
 42 41  1  0  0  0  0
 42 44  1  1  0  0  0
 43 42  1  0  0  0  0
 43 41  1  0  0  0  0
 44 45  1  0  0  0  0
 45 46  1  0  0  0  0
 47 49  1  0  0  0  0
 48 49  1  0  0  0  0
M  END
>  <MODEL>
2

>  <REMARK>
 VINA RESULT:      -7.6      1.605      2.260
  Name = 
  13 active torsions:
  status: ('A' for Active; 'I' for Inactive)
    1  A    between atoms: C_3  and  C_36
    2  A    between atoms: N_4  and  S_34
    3  A    between atoms: C_5  and  C_26
    4  A    between atoms: C_9  and  C_25
    5  A    between atoms: C_12  and  C_19
    6  A    between atoms: C_12  and  C_29
    7  A    between atoms: N_17  and  C_27
    8  A    between atoms: N_17  and  C_43
    9  A    between atoms: C_24  and  C_27
   10  A    between atoms: C_25  and  C_40
   11  A    between atoms: S_34  and  N_48
   12  A    between atoms: C_38  and  C_41
   13  A    between atoms: C_43  and  C_49
                            x       y       z     vdW  Elec       q    Type
                         _______ _______ _______ _____ _____    ______ ____

>  <TORSDO>
F 13

$$$$
=
 OpenBabel11062411023D

 49 53  0  0  1  0  0  0  0  0999 V2000
  186.0020  173.0090  137.6430 C   0  0  0  0  0  3  0  0  0  0  0  0
  187.1110  173.7710  137.2270 C   0  0  0  0  0  3  0  0  0  0  0  0
  182.3530  174.3560  135.4700 C   0  0  0  0  0  1  0  0  0  0  0  0
  184.5400  174.5610  136.6430 C   0  0  0  0  0  0  0  0  0  0  0  0
  184.7320  173.4210  137.3570 N   0  0  0  0  0  0  0  0  0  0  0  0
  185.5980  175.3260  136.2150 C   0  0  0  0  0  0  0  0  0  0  0  0
  183.2290  175.2350  136.3440 C   0  0  1  0  0  0  0  0  0  0  0  0
  185.0210  176.4760  135.5590 C   0  0  0  0  0  0  0  0  0  0  0  0
  183.6320  176.4070  135.6230 O   0  0  0  0  0  0  0  0  0  0  0  0
  185.6540  177.4150  135.0080 O   0  0  0  0  0  0  0  0  0  0  0  0
  186.9150  174.9580  136.5050 C   0  0  0  0  0  0  0  0  0  0  0  0
  182.4400  178.9590  139.0970 C   0  0  1  0  0  0  0  0  0  0  0  0
  181.0400  180.2460  137.6150 O   0  0  0  0  0  0  0  0  0  0  0  0
  182.1650  176.8550  137.8380 C   0  0  0  0  0  0  0  0  0  0  0  0
  182.0370  180.3440  138.6130 C   0  0  0  0  0  2  0  0  0  0  0  0
  181.1260  178.9480  137.0750 C   0  0  1  0  0  3  0  0  0  0  0  0
  181.8400  178.1050  138.0590 C   0  0  0  0  0  0  0  0  0  0  0  0
  182.5020  175.6150  137.6000 C   0  0  0  0  0  3  0  0  0  0  0  0
  183.9570  178.8570  139.1150 C   0  0  0  0  0  1  0  0  0  0  0  0
  182.7040  178.6840  141.5780 O   0  0  0  0  0  1  0  0  0  0  0  0
  180.6430  178.4600  140.6180 O   0  0  0  0  0  0  0  0  0  0  0  0
  181.8770  178.6610  140.4620 C   0  0  0  0  0  0  0  0  0  0  0  0
  179.7610  178.4110  136.7600 C   0  0  0  0  0  0  0  0  0  0  0  0
  178.9310  178.0290  137.7230 C   0  0  0  0  0  2  0  0  0  0  0  0
  179.3770  178.2700  135.4320 O   0  0  0  0  0  1  0  0  0  0  0  0
  188.0860  175.8290  136.1670 C   0  0  0  0  0  2  0  0  0  0  0  0
  189.1270  175.6850  137.1790 N   0  0  0  0  0  0  0  0  0  0  0  0
  189.3240  174.4690  137.7430 O   0  0  0  0  0  1  0  0  0  0  0  0
  190.0780  176.7310  137.4190 C   0  0  0  0  0  0  0  0  0  0  0  0
  191.3740  176.4800  137.2800 C   0  0  0  0  0  2  0  0  0  0  0  0
  188.6510  178.1000  138.9590 C   0  0  0  0  0  0  0  0  0  0  0  0
  189.0170  177.6860  140.2810 N   0  0  0  0  0  2  0  0  0  0  0  0
  186.9970  178.9910  137.5070 N   0  0  0  0  0  0  0  0  0  0  0  0
  187.4300  178.4940  138.7490 N   0  0  0  0  0  0  0  0  0  0  0  0
  187.8260  179.1690  136.5280 C   0  0  0  0  0  3  0  0  0  0  0  0
  189.6510  178.1130  137.8210 C   0  0  2  0  0  3  0  0  0  0  0  0
  189.1730  178.8360  136.6830 O   0  0  0  0  0  0  0  0  0  0  0  0
  190.5900  177.1360  140.7590 S   0  0  0  0  0  0  0  0  0  0  0  0
  190.7320  175.6790  140.4020 O   0  0  0  0  0  0  0  0  0  0  0  0
  191.6270  177.9130  139.9970 O   0  0  0  0  0  0  0  0  0  0  0  0
  189.6990  177.0410  143.3740 C   0  0  1  0  0  3  0  0  0  0  0  0
  190.7960  176.1010  143.1560 C   0  0  1  0  0  3  0  0  0  0  0  0
  190.8290  177.4040  142.4730 N   0  0  0  0  0  0  0  0  0  0  0  0
  191.7500  176.1420  144.3330 C   0  0  0  0  0  2  0  0  0  0  0  0
  191.3640  177.2730  145.2630 C   0  0  0  0  0  2  0  0  0  0  0  0
  191.2240  176.7400  146.6750 C   0  0  0  0  0  1  0  0  0  0  0  0
  188.4290  176.5580  142.6770 C   0  0  0  0  0  2  0  0  0  0  0  0
  187.5220  177.6540  144.7260 C   0  0  0  0  0  1  0  0  0  0  0  0
  187.2410  176.6590  143.6150 C   0  0  0  0  0  2  0  0  0  0  0  0
  2  1  2  0  0  0  0
  4  5  2  0  0  0  0
  5  1  1  0  0  0  0
  6 11  2  0  0  0  0
  6  4  1  0  0  0  0
  7  3  1  6  0  0  0
  7  4  1  0  0  0  0
  7 18  1  0  0  0  0
  8  9  1  0  0  0  0
  8  6  1  0  0  0  0
  9  7  1  0  0  0  0
 10  8  2  0  0  0  0
 11  2  1  0  0  0  0
 12 19  1  1  0  0  0
 12 22  1  0  0  0  0
 13 15  1  0  0  0  0
 14 17  2  0  0  0  0
 15 12  1  0  0  0  0
 16 23  1  1  0  0  0
 16 13  1  0  0  0  0
 16 17  1  0  0  0  0
 17 12  1  0  0  0  0
 18 14  2  0  0  0  0
 22 21  2  0  0  0  0
 22 20  1  0  0  0  0
 23 24  2  0  0  0  0
 25 23  1  0  0  0  0
 26 11  1  0  0  0  0
 26 27  1  0  0  0  0
 27 29  1  0  0  0  0
 27 28  1  0  0  0  0
 30 29  2  0  0  0  0
 31 32  1  0  0  0  0
 32 38  1  0  0  0  0
 33 34  1  0  0  0  0
 34 31  2  0  0  0  0
 35 37  1  0  0  0  0
 35 33  2  0  0  0  0
 36 29  1  6  0  0  0
 36 31  1  0  0  0  0
 37 36  1  0  0  0  0
 38 43  1  0  0  0  0
 39 38  2  0  0  0  0
 40 38  2  0  0  0  0
 41 47  1  6  0  0  0
 42 41  1  0  0  0  0
 42 44  1  1  0  0  0
 43 42  1  0  0  0  0
 43 41  1  0  0  0  0
 44 45  1  0  0  0  0
 45 46  1  0  0  0  0
 47 49  1  0  0  0  0
 49 48  1  0  0  0  0
M  END
>  <MODEL>
3

>  <REMARK>
 VINA RESULT:      -7.3      1.696      2.650
  Name = 
  13 active torsions:
  status: ('A' for Active; 'I' for Inactive)
    1  A    between atoms: C_3  and  C_36
    2  A    between atoms: N_4  and  S_34
    3  A    between atoms: C_5  and  C_26
    4  A    between atoms: C_9  and  C_25
    5  A    between atoms: C_12  and  C_19
    6  A    between atoms: C_12  and  C_29
    7  A    between atoms: N_17  and  C_27
    8  A    between atoms: N_17  and  C_43
    9  A    between atoms: C_24  and  C_27
   10  A    between atoms: C_25  and  C_40
   11  A    between atoms: S_34  and  N_48
   12  A    between atoms: C_38  and  C_41
   13  A    between atoms: C_43  and  C_49
                            x       y       z     vdW  Elec       q    Type
                         _______ _______ _______ _____ _____    ______ ____

>  <TORSDO>
F 13

$$$$
=
 OpenBabel11062411023D

 49 53  0  0  1  0  0  0  0  0999 V2000
  185.2230  173.1860  137.6970 C   0  0  0  0  0  3  0  0  0  0  0  0
  186.2580  174.1200  137.5000 C   0  0  0  0  0  3  0  0  0  0  0  0
  182.0760  173.7520  134.5940 C   0  0  0  0  0  1  0  0  0  0  0  0
  183.8250  174.4020  136.2430 C   0  0  0  0  0  0  0  0  0  0  0  0
  184.0180  173.3460  137.0770 N   0  0  0  0  0  0  0  0  0  0  0  0
  184.8150  175.3300  136.0210 C   0  0  0  0  0  0  0  0  0  0  0  0
  182.5410  174.8120  135.5760 C   0  0  1  0  0  0  0  0  0  0  0  0
  184.2400  176.3260  135.1480 C   0  0  0  0  0  0  0  0  0  0  0  0
  182.9130  176.0070  134.8780 O   0  0  0  0  0  0  0  0  0  0  0  0
  184.8270  177.3420  134.6900 O   0  0  0  0  0  0  0  0  0  0  0  0
  186.0570  175.2210  136.6530 C   0  0  0  0  0  0  0  0  0  0  0  0
  181.7530  177.4300  139.3970 C   0  0  1  0  0  0  0  0  0  0  0  0
  181.7170  179.6110  138.3700 O   0  0  0  0  0  0  0  0  0  0  0  0
  181.4660  176.2140  137.2700 C   0  0  0  0  0  0  0  0  0  0  0  0
  182.0900  178.9080  139.5380 C   0  0  0  0  0  2  0  0  0  0  0  0
  181.6360  178.6650  137.3290 C   0  0  1  0  0  3  0  0  0  0  0  0
  181.4870  177.3320  137.9530 C   0  0  0  0  0  0  0  0  0  0  0  0
  181.4650  175.1040  136.5810 C   0  0  0  0  0  3  0  0  0  0  0  0
  182.9570  176.6010  139.8140 C   0  0  0  0  0  1  0  0  0  0  0  0
  179.8460  175.8880  139.9290 O   0  0  0  0  0  0  0  0  0  0  0  0
  180.2020  177.7480  141.2090 O   0  0  0  0  0  1  0  0  0  0  0  0
  180.5470  177.0540  140.2160 C   0  0  0  0  0  0  0  0  0  0  0  0
  180.4960  178.9850  136.4060 C   0  0  0  0  0  0  0  0  0  0  0  0
  180.6390  178.9260  135.0880 C   0  0  0  0  0  2  0  0  0  0  0  0
  179.2830  179.3960  136.9440 O   0  0  0  0  0  1  0  0  0  0  0  0
  187.1130  176.2770  136.5380 C   0  0  0  0  0  2  0  0  0  0  0  0
  188.4080  175.6650  136.2650 N   0  0  0  0  0  0  0  0  0  0  0  0
  188.4890  174.7100  135.3060 O   0  0  0  0  0  1  0  0  0  0  0  0
  189.6160  176.2030  136.8200 C   0  0  0  0  0  0  0  0  0  0  0  0
  190.0750  177.3680  136.3800 C   0  0  0  0  0  2  0  0  0  0  0  0
  191.3550  176.3980  138.6150 C   0  0  0  0  0  0  0  0  0  0  0  0
  190.9080  177.4670  139.4590 N   0  0  0  0  0  2  0  0  0  0  0  0
  193.1660  175.1320  137.7460 N   0  0  0  0  0  0  0  0  0  0  0  0
  192.6330  176.2010  138.4890 N   0  0  0  0  0  0  0  0  0  0  0  0
  192.3990  174.2290  137.2230 C   0  0  0  0  0  3  0  0  0  0  0  0
  190.3800  175.4870  137.8960 C   0  0  2  0  0  3  0  0  0  0  0  0
  191.0130  174.3220  137.3640 O   0  0  0  0  0  0  0  0  0  0  0  0
  189.2520  177.8820  139.7580 S   0  0  0  0  0  0  0  0  0  0  0  0
  188.8530  179.0080  138.8390 O   0  0  0  0  0  0  0  0  0  0  0  0
  188.3900  176.6900  139.4480 O   0  0  0  0  0  0  0  0  0  0  0  0
  187.6380  178.5940  141.8870 C   0  0  1  0  0  3  0  0  0  0  0  0
  188.2250  177.2710  142.0880 C   0  0  1  0  0  3  0  0  0  0  0  0
  189.0330  178.3160  141.4410 N   0  0  0  0  0  0  0  0  0  0  0  0
  188.6790  177.1240  143.5270 C   0  0  0  0  0  2  0  0  0  0  0  0
  190.0210  176.4210  143.5680 C   0  0  0  0  0  2  0  0  0  0  0  0
  190.8130  176.9160  144.7610 C   0  0  0  0  0  1  0  0  0  0  0  0
  186.5750  178.5510  140.7930 C   0  0  0  0  0  2  0  0  0  0  0  0
  184.7980  178.4410  142.5400 C   0  0  0  0  0  1  0  0  0  0  0  0
  185.2780  179.1600  141.2910 C   0  0  0  0  0  2  0  0  0  0  0  0
  2  1  1  0  0  0  0
  4  5  1  0  0  0  0
  5  1  2  0  0  0  0
  6  4  2  0  0  0  0
  6 11  1  0  0  0  0
  7  3  1  6  0  0  0
  7  4  1  0  0  0  0
  7 18  1  0  0  0  0
  8  6  1  0  0  0  0
  9  8  1  0  0  0  0
  9  7  1  0  0  0  0
 10  8  2  0  0  0  0
 11  2  2  0  0  0  0
 12 15  1  0  0  0  0
 12 19  1  1  0  0  0
 12 22  1  0  0  0  0
 13 15  1  0  0  0  0
 14 17  2  0  0  0  0
 16 23  1  6  0  0  0
 16 17  1  0  0  0  0
 16 13  1  0  0  0  0
 17 12  1  0  0  0  0
 18 14  2  0  0  0  0
 20 22  2  0  0  0  0
 22 21  1  0  0  0  0
 23 25  1  0  0  0  0
 24 23  2  0  0  0  0
 26 11  1  0  0  0  0
 27 26  1  0  0  0  0
 27 29  1  0  0  0  0
 28 27  1  0  0  0  0
 30 29  2  0  0  0  0
 31 32  1  0  0  0  0
 32 38  1  0  0  0  0
 33 34  1  0  0  0  0
 34 31  2  0  0  0  0
 35 37  1  0  0  0  0
 35 33  2  0  0  0  0
 36 29  1  6  0  0  0
 36 31  1  0  0  0  0
 37 36  1  0  0  0  0
 38 43  1  0  0  0  0
 39 38  2  0  0  0  0
 40 38  2  0  0  0  0
 41 47  1  6  0  0  0
 41 42  1  0  0  0  0
 42 44  1  1  0  0  0
 43 41  1  0  0  0  0
 43 42  1  0  0  0  0
 44 45  1  0  0  0  0
 45 46  1  0  0  0  0
 47 49  1  0  0  0  0
 49 48  1  0  0  0  0
M  END
>  <MODEL>
4

>  <REMARK>
 VINA RESULT:      -7.3      1.993      2.950
  Name = 
  13 active torsions:
  status: ('A' for Active; 'I' for Inactive)
    1  A    between atoms: C_3  and  C_36
    2  A    between atoms: N_4  and  S_34
    3  A    between atoms: C_5  and  C_26
    4  A    between atoms: C_9  and  C_25
    5  A    between atoms: C_12  and  C_19
    6  A    between atoms: C_12  and  C_29
    7  A    between atoms: N_17  and  C_27
    8  A    between atoms: N_17  and  C_43
    9  A    between atoms: C_24  and  C_27
   10  A    between atoms: C_25  and  C_40
   11  A    between atoms: S_34  and  N_48
   12  A    between atoms: C_38  and  C_41
   13  A    between atoms: C_43  and  C_49
                            x       y       z     vdW  Elec       q    Type
                         _______ _______ _______ _____ _____    ______ ____

>  <TORSDO>
F 13

$$$$
=
 OpenBabel11062411023D

 49 53  0  0  1  0  0  0  0  0999 V2000
  183.6340  178.8010  143.5920 C   0  0  0  0  0  3  0  0  0  0  0  0
  182.7220  178.7500  142.5190 C   0  0  0  0  0  3  0  0  0  0  0  0
  187.6870  179.8520  142.0700 C   0  0  0  0  0  1  0  0  0  0  0  0
  185.4400  178.7810  142.0800 C   0  0  0  0  0  0  0  0  0  0  0  0
  184.9790  178.8030  143.3580 N   0  0  0  0  0  0  0  0  0  0  0  0
  184.5800  178.7380  141.0080 C   0  0  0  0  0  0  0  0  0  0  0  0
  186.8690  178.6520  141.6310 C   0  0  1  0  0  0  0  0  0  0  0  0
  185.4120  178.6590  139.8310 C   0  0  0  0  0  0  0  0  0  0  0  0
  186.7530  178.6260  140.2030 O   0  0  0  0  0  0  0  0  0  0  0  0
  185.0110  178.6190  138.6380 O   0  0  0  0  0  0  0  0  0  0  0  0
  183.1950  178.7100  141.1980 C   0  0  0  0  0  0  0  0  0  0  0  0
  190.8930  177.0550  143.4560 C   0  0  1  0  0  0  0  0  0  0  0  0
  190.7950  178.1340  145.6100 O   0  0  0  0  0  0  0  0  0  0  0  0
  188.5020  177.4040  142.9610 C   0  0  0  0  0  0  0  0  0  0  0  0
  191.6730  177.7150  144.5840 C   0  0  0  0  0  2  0  0  0  0  0  0
  189.5160  178.2500  145.0330 C   0  0  1  0  0  3  0  0  0  0  0  0
  189.5150  177.4480  143.7910 C   0  0  0  0  0  0  0  0  0  0  0  0
  187.4930  177.3820  142.1300 C   0  0  0  0  0  3  0  0  0  0  0  0
  191.3470  177.6350  142.1270 C   0  0  0  0  0  1  0  0  0  0  0  0
  192.0790  174.9760  144.2140 O   0  0  0  0  0  1  0  0  0  0  0  0
  190.2530  174.8150  142.8490 O   0  0  0  0  0  0  0  0  0  0  0  0
  191.0650  175.5580  143.4630 C   0  0  0  0  0  0  0  0  0  0  0  0
  188.4550  177.8000  145.9950 C   0  0  0  0  0  0  0  0  0  0  0  0
  188.7250  176.9290  146.9600 C   0  0  0  0  0  2  0  0  0  0  0  0
  187.1570  178.2700  145.8430 O   0  0  0  0  0  1  0  0  0  0  0  0
  182.2320  178.5340  140.0650 C   0  0  0  0  0  2  0  0  0  0  0  0
  182.1520  177.1290  139.6860 N   0  0  0  0  0  0  0  0  0  0  0  0
  183.0590  176.2620  140.2010 O   0  0  0  0  0  1  0  0  0  0  0  0
  181.0190  176.6140  138.9740 C   0  0  0  0  0  0  0  0  0  0  0  0
  180.2870  175.6510  139.5200 C   0  0  0  0  0  2  0  0  0  0  0  0
  181.8210  177.6250  136.8260 C   0  0  0  0  0  0  0  0  0  0  0  0
  182.8190  176.7220  136.3330 N   0  0  0  0  0  2  0  0  0  0  0  0
  180.9770  179.8420  136.9270 N   0  0  0  0  0  0  0  0  0  0  0  0
  181.9430  178.8900  136.5550 N   0  0  0  0  0  0  0  0  0  0  0  0
  179.8620  179.4850  137.4830 C   0  0  0  0  0  3  0  0  0  0  0  0
  180.6280  177.1390  137.6230 C   0  0  2  0  0  3  0  0  0  0  0  0
  179.6140  178.1380  137.7520 O   0  0  0  0  0  0  0  0  0  0  0  0
  182.8280  175.0060  136.5820 S   0  0  0  0  0  0  0  0  0  0  0  0
  183.2870  174.7160  137.9880 O   0  0  0  0  0  0  0  0  0  0  0  0
  181.4270  174.4860  136.4240 O   0  0  0  0  0  0  0  0  0  0  0  0
  185.3280  174.4020  135.5670 C   0  0  1  0  0  3  0  0  0  0  0  0
  184.6640  173.2070  136.0820 C   0  0  1  0  0  3  0  0  0  0  0  0
  183.8580  174.2290  135.3970 N   0  0  0  0  0  0  0  0  0  0  0  0
  184.8880  172.0450  135.1330 C   0  0  0  0  0  2  0  0  0  0  0  0
  183.9010  170.9380  135.4410 C   0  0  0  0  0  2  0  0  0  0  0  0
  183.3430  171.1340  136.8370 C   0  0  0  0  0  1  0  0  0  0  0  0
  185.7570  175.3160  136.7130 C   0  0  0  0  0  2  0  0  0  0  0  0
  187.6730  176.8500  137.1530 C   0  0  0  0  0  1  0  0  0  0  0  0
  186.5630  176.4860  136.1830 C   0  0  0  0  0  2  0  0  0  0  0  0
  2  1  2  0  0  0  0
  4  5  2  0  0  0  0
  5  1  1  0  0  0  0
  6 11  2  0  0  0  0
  6  4  1  0  0  0  0
  7  3  1  1  0  0  0
  7  4  1  0  0  0  0
  7 18  1  0  0  0  0
  8  9  1  0  0  0  0
  8  6  1  0  0  0  0
  9  7  1  0  0  0  0
 10  8  2  0  0  0  0
 11  2  1  0  0  0  0
 12 19  1  6  0  0  0
 12 22  1  0  0  0  0
 12 17  1  0  0  0  0
 12 15  1  0  0  0  0
 14 17  2  0  0  0  0
 15 13  1  0  0  0  0
 16 13  1  0  0  0  0
 16 23  1  1  0  0  0
 17 16  1  0  0  0  0
 18 14  2  0  0  0  0
 21 22  2  0  0  0  0
 22 20  1  0  0  0  0
 23 24  2  0  0  0  0
 25 23  1  0  0  0  0
 26 11  1  0  0  0  0
 27 26  1  0  0  0  0
 27 28  1  0  0  0  0
 29 30  2  0  0  0  0
 29 27  1  0  0  0  0
 31 36  1  0  0  0  0
 32 38  1  0  0  0  0
 32 31  1  0  0  0  0
 33 35  2  0  0  0  0
 34 31  2  0  0  0  0
 34 33  1  0  0  0  0
 35 37  1  0  0  0  0
 36 37  1  0  0  0  0
 36 29  1  1  0  0  0
 38 39  2  0  0  0  0
 40 38  2  0  0  0  0
 41 42  1  0  0  0  0
 41 47  1  1  0  0  0
 42 44  1  6  0  0  0
 43 41  1  0  0  0  0
 43 42  1  0  0  0  0
 43 38  1  0  0  0  0
 44 45  1  0  0  0  0
 45 46  1  0  0  0  0
 49 47  1  0  0  0  0
 49 48  1  0  0  0  0
M  END
>  <MODEL>
5

>  <REMARK>
 VINA RESULT:      -7.1      3.552      9.968
  Name = 
  13 active torsions:
  status: ('A' for Active; 'I' for Inactive)
    1  A    between atoms: C_3  and  C_36
    2  A    between atoms: N_4  and  S_34
    3  A    between atoms: C_5  and  C_26
    4  A    between atoms: C_9  and  C_25
    5  A    between atoms: C_12  and  C_19
    6  A    between atoms: C_12  and  C_29
    7  A    between atoms: N_17  and  C_27
    8  A    between atoms: N_17  and  C_43
    9  A    between atoms: C_24  and  C_27
   10  A    between atoms: C_25  and  C_40
   11  A    between atoms: S_34  and  N_48
   12  A    between atoms: C_38  and  C_41
   13  A    between atoms: C_43  and  C_49
                            x       y       z     vdW  Elec       q    Type
                         _______ _______ _______ _____ _____    ______ ____

>  <TORSDO>
F 13

$$$$
=
 OpenBabel11062411023D

 49 53  0  0  1  0  0  0  0  0999 V2000
  183.6480  178.6630  143.6280 C   0  0  0  0  0  3  0  0  0  0  0  0
  182.7260  178.6270  142.5640 C   0  0  0  0  0  3  0  0  0  0  0  0
  187.6660  179.8280  142.0940 C   0  0  0  0  0  1  0  0  0  0  0  0
  185.4370  178.7190  142.0960 C   0  0  0  0  0  0  0  0  0  0  0  0
  184.9900  178.6950  143.3790 N   0  0  0  0  0  0  0  0  0  0  0  0
  184.5660  178.6930  141.0340 C   0  0  0  0  0  0  0  0  0  0  0  0
  186.8640  178.6270  141.6280 C   0  0  1  0  0  0  0  0  0  0  0  0
  185.3860  178.6620  139.8450 C   0  0  0  0  0  0  0  0  0  0  0  0
  186.7310  178.6420  140.2010 O   0  0  0  0  0  0  0  0  0  0  0  0
  184.9720  178.6500  138.6560 O   0  0  0  0  0  0  0  0  0  0  0  0
  183.1840  178.6340  141.2370 C   0  0  0  0  0  0  0  0  0  0  0  0
  190.8130  177.0910  143.6560 C   0  0  1  0  0  0  0  0  0  0  0  0
  190.4890  177.9940  145.8670 O   0  0  0  0  0  0  0  0  0  0  0  0
  188.4520  177.3610  142.9930 C   0  0  0  0  0  0  0  0  0  0  0  0
  191.4650  177.6990  144.8890 C   0  0  0  0  0  2  0  0  0  0  0  0
  189.2540  178.0930  145.1980 C   0  0  1  0  0  3  0  0  0  0  0  0
  189.3940  177.3900  143.9040 C   0  0  0  0  0  0  0  0  0  0  0  0
  187.5140  177.3550  142.0830 C   0  0  0  0  0  3  0  0  0  0  0  0
  191.3380  177.7930  142.4140 C   0  0  0  0  0  1  0  0  0  0  0  0
  192.0560  175.0220  144.3460 O   0  0  0  0  0  1  0  0  0  0  0  0
  190.3380  174.8750  142.8450 O   0  0  0  0  0  0  0  0  0  0  0  0
  191.0650  175.6080  143.5670 C   0  0  0  0  0  0  0  0  0  0  0  0
  188.1480  177.5180  146.0340 C   0  0  0  0  0  0  0  0  0  0  0  0
  186.8730  177.7650  145.7550 C   0  0  0  0  0  2  0  0  0  0  0  0
  188.4670  176.7500  147.1460 O   0  0  0  0  0  1  0  0  0  0  0  0
  182.2110  178.4750  140.1100 C   0  0  0  0  0  2  0  0  0  0  0  0
  182.1090  177.0720  139.7280 N   0  0  0  0  0  0  0  0  0  0  0  0
  183.0550  176.2060  140.1680 O   0  0  0  0  0  1  0  0  0  0  0  0
  180.9270  176.5570  139.0990 C   0  0  0  0  0  0  0  0  0  0  0  0
  180.3650  175.4520  139.5720 C   0  0  0  0  0  2  0  0  0  0  0  0
  181.3180  177.9540  137.0550 C   0  0  0  0  0  0  0  0  0  0  0  0
  182.2970  177.2370  136.2900 N   0  0  0  0  0  2  0  0  0  0  0  0
  180.3330  180.0360  137.6310 N   0  0  0  0  0  0  0  0  0  0  0  0
  181.3020  179.2510  136.9800 N   0  0  0  0  0  0  0  0  0  0  0  0
  179.3450  179.4910  138.2690 C   0  0  0  0  0  3  0  0  0  0  0  0
  180.2990  177.2380  137.9180 C   0  0  2  0  0  3  0  0  0  0  0  0
  179.2430  178.1010  138.3460 O   0  0  0  0  0  0  0  0  0  0  0  0
  182.4740  175.5130  136.2530 S   0  0  0  0  0  0  0  0  0  0  0  0
  181.1540  174.8760  136.6040 O   0  0  0  0  0  0  0  0  0  0  0  0
  182.8460  175.0940  134.8590 O   0  0  0  0  0  0  0  0  0  0  0  0
  183.9940  173.5480  137.4670 C   0  0  1  0  0  3  0  0  0  0  0  0
  184.8060  174.3650  136.5700 C   0  0  1  0  0  3  0  0  0  0  0  0
  183.7420  175.0130  137.3530 N   0  0  0  0  0  0  0  0  0  0  0  0
  186.1430  174.6680  137.2190 C   0  0  0  0  0  2  0  0  0  0  0  0
  186.7670  175.8790  136.5580 C   0  0  0  0  0  2  0  0  0  0  0  0
  187.6970  176.5650  137.5390 C   0  0  0  0  0  1  0  0  0  0  0  0
  183.0470  172.6530  136.6720 C   0  0  0  0  0  2  0  0  0  0  0  0
  184.0170  170.6430  135.5570 C   0  0  0  0  0  1  0  0  0  0  0  0
  183.4290  171.1950  136.8430 C   0  0  0  0  0  2  0  0  0  0  0  0
  2  1  2  0  0  0  0
  4  5  2  0  0  0  0
  5  1  1  0  0  0  0
  6 11  2  0  0  0  0
  6  4  1  0  0  0  0
  7 18  1  0  0  0  0
  7  3  1  1  0  0  0
  7  4  1  0  0  0  0
  8  9  1  0  0  0  0
  8  6  1  0  0  0  0
  9  7  1  0  0  0  0
 10  8  2  0  0  0  0
 11  2  1  0  0  0  0
 12 19  1  6  0  0  0
 12 17  1  0  0  0  0
 12 15  1  0  0  0  0
 14 17  2  0  0  0  0
 15 13  1  0  0  0  0
 16 13  1  0  0  0  0
 16 23  1  1  0  0  0
 17 16  1  0  0  0  0
 18 14  2  0  0  0  0
 21 22  2  0  0  0  0
 22 12  1  0  0  0  0
 22 20  1  0  0  0  0
 23 25  1  0  0  0  0
 24 23  2  0  0  0  0
 26 11  1  0  0  0  0
 27 26  1  0  0  0  0
 27 28  1  0  0  0  0
 29 30  2  0  0  0  0
 29 27  1  0  0  0  0
 31 36  1  0  0  0  0
 32 31  1  0  0  0  0
 33 35  2  0  0  0  0
 34 31  2  0  0  0  0
 34 33  1  0  0  0  0
 35 37  1  0  0  0  0
 36 37  1  0  0  0  0
 36 29  1  1  0  0  0
 38 32  1  0  0  0  0
 38 39  2  0  0  0  0
 38 43  1  0  0  0  0
 40 38  2  0  0  0  0
 41 47  1  6  0  0  0
 42 44  1  1  0  0  0
 42 43  1  0  0  0  0
 42 41  1  0  0  0  0
 43 41  1  0  0  0  0
 45 44  1  0  0  0  0
 45 46  1  0  0  0  0
 47 49  1  0  0  0  0
 48 49  1  0  0  0  0
M  END
>  <MODEL>
6

>  <REMARK>
 VINA RESULT:      -7.0      3.565      9.927
  Name = 
  13 active torsions:
  status: ('A' for Active; 'I' for Inactive)
    1  A    between atoms: C_3  and  C_36
    2  A    between atoms: N_4  and  S_34
    3  A    between atoms: C_5  and  C_26
    4  A    between atoms: C_9  and  C_25
    5  A    between atoms: C_12  and  C_19
    6  A    between atoms: C_12  and  C_29
    7  A    between atoms: N_17  and  C_27
    8  A    between atoms: N_17  and  C_43
    9  A    between atoms: C_24  and  C_27
   10  A    between atoms: C_25  and  C_40
   11  A    between atoms: S_34  and  N_48
   12  A    between atoms: C_38  and  C_41
   13  A    between atoms: C_43  and  C_49
                            x       y       z     vdW  Elec       q    Type
                         _______ _______ _______ _____ _____    ______ ____

>  <TORSDO>
F 13

$$$$
=
 OpenBabel11062411023D

 49 53  0  0  1  0  0  0  0  0999 V2000
  187.8580  172.1540  137.1360 C   0  0  0  0  0  3  0  0  0  0  0  0
  188.6590  173.3090  137.0450 C   0  0  0  0  0  3  0  0  0  0  0  0
  184.1900  172.6680  134.6590 C   0  0  0  0  0  1  0  0  0  0  0  0
  186.0410  173.3180  136.1920 C   0  0  0  0  0  0  0  0  0  0  0  0
  186.5580  172.1780  136.7210 N   0  0  0  0  0  0  0  0  0  0  0  0
  186.7940  174.4620  136.0810 C   0  0  0  0  0  0  0  0  0  0  0  0
  184.6110  173.5730  135.8020 C   0  0  1  0  0  0  0  0  0  0  0  0
  185.9110  175.4720  135.5470 C   0  0  0  0  0  0  0  0  0  0  0  0
  184.6380  174.9390  135.3690 O   0  0  0  0  0  0  0  0  0  0  0  0
  186.2190  176.6640  135.2780 O   0  0  0  0  0  0  0  0  0  0  0  0
  188.1230  174.4940  136.5160 C   0  0  0  0  0  0  0  0  0  0  0  0
  180.4390  175.0700  137.3610 C   0  0  1  0  0  0  0  0  0  0  0  0
  179.0110  173.9660  135.7630 O   0  0  0  0  0  0  0  0  0  0  0  0
  182.4050  173.6670  136.8580 C   0  0  0  0  0  0  0  0  0  0  0  0
  179.1630  175.1400  136.5350 C   0  0  0  0  0  2  0  0  0  0  0  0
  180.2890  173.3860  135.6410 C   0  0  1  0  0  3  0  0  0  0  0  0
  181.1290  173.9340  136.7280 C   0  0  0  0  0  0  0  0  0  0  0  0
  183.6820  173.4090  136.9680 C   0  0  0  0  0  3  0  0  0  0  0  0
  181.2120  176.3700  137.2000 C   0  0  0  0  0  1  0  0  0  0  0  0
  180.3630  175.8050  139.7590 O   0  0  0  0  0  1  0  0  0  0  0  0
  179.6400  173.7150  139.1820 O   0  0  0  0  0  0  0  0  0  0  0  0
  180.1480  174.8090  138.8150 C   0  0  0  0  0  0  0  0  0  0  0  0
  180.2020  171.8890  135.6970 C   0  0  0  0  0  0  0  0  0  0  0  0
  179.4830  171.2750  136.6290 C   0  0  0  0  0  2  0  0  0  0  0  0
  180.9240  171.1330  134.7830 O   0  0  0  0  0  1  0  0  0  0  0  0
  188.9350  175.7520  136.5300 C   0  0  0  0  0  2  0  0  0  0  0  0
  189.8140  175.7700  137.6930 N   0  0  0  0  0  0  0  0  0  0  0  0
  190.1290  174.5940  138.2900 O   0  0  0  0  0  1  0  0  0  0  0  0
  190.5210  176.9590  138.0720 C   0  0  0  0  0  0  0  0  0  0  0  0
  191.8470  176.9440  138.1170 C   0  0  0  0  0  2  0  0  0  0  0  0
  188.6260  177.9970  139.3430 C   0  0  0  0  0  0  0  0  0  0  0  0
  188.8080  177.5760  140.7010 N   0  0  0  0  0  2  0  0  0  0  0  0
  187.1420  178.6890  137.6240 N   0  0  0  0  0  0  0  0  0  0  0  0
  187.4170  178.2010  138.9150 N   0  0  0  0  0  0  0  0  0  0  0  0
  188.0960  179.0490  136.8250 C   0  0  0  0  0  3  0  0  0  0  0  0
  189.8020  178.2310  138.4160 C   0  0  2  0  0  3  0  0  0  0  0  0
  189.4280  178.9280  137.2260 O   0  0  0  0  0  0  0  0  0  0  0  0
  190.3360  177.2600  141.4560 S   0  0  0  0  0  0  0  0  0  0  0  0
  190.5540  175.7700  141.5210 O   0  0  0  0  0  0  0  0  0  0  0  0
  191.4270  177.8620  140.6150 O   0  0  0  0  0  0  0  0  0  0  0  0
  189.2860  177.6210  143.9890 C   0  0  1  0  0  3  0  0  0  0  0  0
  190.5640  176.9150  144.0430 C   0  0  1  0  0  3  0  0  0  0  0  0
  190.3840  177.9860  143.0500 N   0  0  0  0  0  0  0  0  0  0  0  0
  191.3980  177.4490  145.1910 C   0  0  0  0  0  2  0  0  0  0  0  0
  190.7700  177.0420  146.5080 C   0  0  0  0  0  2  0  0  0  0  0  0
  191.6860  176.0710  147.2250 C   0  0  0  0  0  1  0  0  0  0  0  0
  188.1970  176.7200  143.4110 C   0  0  0  0  0  2  0  0  0  0  0  0
  186.4900  177.4520  145.0760 C   0  0  0  0  0  1  0  0  0  0  0  0
  186.8320  177.3530  143.6000 C   0  0  0  0  0  2  0  0  0  0  0  0
  2  1  1  0  0  0  0
  4  5  1  0  0  0  0
  5  1  2  0  0  0  0
  6  4  2  0  0  0  0
  6 11  1  0  0  0  0
  7  3  1  6  0  0  0
  7  4  1  0  0  0  0
  7 18  1  0  0  0  0
  8  6  1  0  0  0  0
  9  8  1  0  0  0  0
  9  7  1  0  0  0  0
 10  8  2  0  0  0  0
 11 26  1  0  0  0  0
 11  2  2  0  0  0  0
 12 19  1  6  0  0  0
 12 22  1  0  0  0  0
 13 15  1  0  0  0  0
 14 18  2  0  0  0  0
 15 12  1  0  0  0  0
 16 23  1  1  0  0  0
 16 13  1  0  0  0  0
 16 17  1  0  0  0  0
 17 14  2  0  0  0  0
 17 12  1  0  0  0  0
 22 21  2  0  0  0  0
 22 20  1  0  0  0  0
 23 24  2  0  0  0  0
 25 23  1  0  0  0  0
 26 27  1  0  0  0  0
 27 29  1  0  0  0  0
 27 28  1  0  0  0  0
 29 30  2  0  0  0  0
 31 32  1  0  0  0  0
 32 38  1  0  0  0  0
 33 34  1  0  0  0  0
 34 31  2  0  0  0  0
 35 37  1  0  0  0  0
 35 33  2  0  0  0  0
 36 29  1  6  0  0  0
 36 31  1  0  0  0  0
 37 36  1  0  0  0  0
 38 39  2  0  0  0  0
 38 43  1  0  0  0  0
 40 38  2  0  0  0  0
 41 47  1  6  0  0  0
 41 42  1  0  0  0  0
 42 44  1  1  0  0  0
 43 41  1  0  0  0  0
 43 42  1  0  0  0  0
 44 45  1  0  0  0  0
 45 46  1  0  0  0  0
 47 49  1  0  0  0  0
 49 48  1  0  0  0  0
M  END
>  <MODEL>
7

>  <REMARK>
 VINA RESULT:      -6.9      2.547      3.696
  Name = 
  13 active torsions:
  status: ('A' for Active; 'I' for Inactive)
    1  A    between atoms: C_3  and  C_36
    2  A    between atoms: N_4  and  S_34
    3  A    between atoms: C_5  and  C_26
    4  A    between atoms: C_9  and  C_25
    5  A    between atoms: C_12  and  C_19
    6  A    between atoms: C_12  and  C_29
    7  A    between atoms: N_17  and  C_27
    8  A    between atoms: N_17  and  C_43
    9  A    between atoms: C_24  and  C_27
   10  A    between atoms: C_25  and  C_40
   11  A    between atoms: S_34  and  N_48
   12  A    between atoms: C_38  and  C_41
   13  A    between atoms: C_43  and  C_49
                            x       y       z     vdW  Elec       q    Type
                         _______ _______ _______ _____ _____    ______ ____

>  <TORSDO>
F 13

$$$$
=
 OpenBabel11062411023D

 49 53  0  0  1  0  0  0  0  0999 V2000
  189.1260  177.6770  135.3570 C   0  0  0  0  0  3  0  0  0  0  0  0
  188.7920  178.3940  136.5230 C   0  0  0  0  0  3  0  0  0  0  0  0
  190.6110  173.6240  136.4610 C   0  0  0  0  0  1  0  0  0  0  0  0
  190.2850  176.0850  136.6490 C   0  0  0  0  0  0  0  0  0  0  0  0
  189.8790  176.5410  135.4350 N   0  0  0  0  0  0  0  0  0  0  0  0
  189.9720  176.7550  137.8080 C   0  0  0  0  0  0  0  0  0  0  0  0
  191.2160  174.9360  136.9240 C   0  0  1  0  0  0  0  0  0  0  0  0
  190.6170  176.0280  138.8770 C   0  0  0  0  0  0  0  0  0  0  0  0
  191.3300  174.9540  138.3520 O   0  0  0  0  0  0  0  0  0  0  0  0
  190.5630  176.3060  140.1040 O   0  0  0  0  0  0  0  0  0  0  0  0
  189.2250  177.9360  137.7770 C   0  0  0  0  0  0  0  0  0  0  0  0
  195.7650  174.0060  137.6450 C   0  0  1  0  0  0  0  0  0  0  0  0
  195.7250  171.6170  137.3280 O   0  0  0  0  0  0  0  0  0  0  0  0
  193.5730  174.3750  136.5750 C   0  0  0  0  0  0  0  0  0  0  0  0
  196.3330  172.6580  138.0650 C   0  0  0  0  0  2  0  0  0  0  0  0
  194.4990  172.1150  136.8470 C   0  0  1  0  0  3  0  0  0  0  0  0
  194.5780  173.5920  136.8790 C   0  0  0  0  0  0  0  0  0  0  0  0
  192.5580  175.1470  136.2870 C   0  0  0  0  0  3  0  0  0  0  0  0
  195.3950  174.8020  138.8860 C   0  0  0  0  0  1  0  0  0  0  0  0
  196.3180  175.9170  136.1150 O   0  0  0  0  0  0  0  0  0  0  0  0
  197.9530  174.4500  136.7470 O   0  0  0  0  0  1  0  0  0  0  0  0
  196.7380  174.7800  136.7950 C   0  0  0  0  0  0  0  0  0  0  0  0
  194.2180  171.5960  135.4670 C   0  0  0  0  0  0  0  0  0  0  0  0
  195.1980  171.3900  134.5950 C   0  0  0  0  0  2  0  0  0  0  0  0
  192.9020  171.3710  135.0820 O   0  0  0  0  0  1  0  0  0  0  0  0
  188.9730  178.7610  139.0010 C   0  0  0  0  0  2  0  0  0  0  0  0
  187.8070  178.2550  139.7150 N   0  0  0  0  0  0  0  0  0  0  0  0
  186.9770  177.3920  139.0800 O   0  0  0  0  0  1  0  0  0  0  0  0
  187.6480  178.4700  141.1250 C   0  0  0  0  0  0  0  0  0  0  0  0
  188.0110  179.6330  141.6530 C   0  0  0  0  0  2  0  0  0  0  0  0
  186.1560  177.9970  143.0820 C   0  0  0  0  0  0  0  0  0  0  0  0
  184.8920  178.5830  142.7430 N   0  0  0  0  0  2  0  0  0  0  0  0
  187.6830  177.3250  144.7710 N   0  0  0  0  0  0  0  0  0  0  0  0
  186.5000  177.9490  144.3340 N   0  0  0  0  0  0  0  0  0  0  0  0
  188.4470  176.6810  143.9470 C   0  0  0  0  0  3  0  0  0  0  0  0
  187.0750  177.4160  142.0260 C   0  0  2  0  0  3  0  0  0  0  0  0
  188.1210  176.6220  142.5910 O   0  0  0  0  0  0  0  0  0  0  0  0
  184.2560  178.7340  141.1380 S   0  0  0  0  0  0  0  0  0  0  0  0
  185.0770  179.7410  140.3750 O   0  0  0  0  0  0  0  0  0  0  0  0
  184.3720  177.4050  140.4440 O   0  0  0  0  0  0  0  0  0  0  0  0
  181.8710  179.3720  139.8930 C   0  0  1  0  0  3  0  0  0  0  0  0
  181.7670  178.1070  140.6150 C   0  0  1  0  0  3  0  0  0  0  0  0
  182.5670  179.1950  141.1990 N   0  0  0  0  0  0  0  0  0  0  0  0
  180.4370  178.0350  141.3390 C   0  0  0  0  0  2  0  0  0  0  0  0
  179.7230  176.7520  140.9670 C   0  0  0  0  0  2  0  0  0  0  0  0
  180.4080  176.1220  139.7710 C   0  0  0  0  0  1  0  0  0  0  0  0
  182.7470  179.2150  138.6520 C   0  0  0  0  0  2  0  0  0  0  0  0
  182.6780  177.4520  136.8890 C   0  0  0  0  0  1  0  0  0  0  0  0
  181.9430  178.6270  137.5080 C   0  0  0  0  0  2  0  0  0  0  0  0
  1  5  2  0  0  0  0
  1  2  1  0  0  0  0
  2 11  2  0  0  0  0
  4  7  1  0  0  0  0
  4  6  2  0  0  0  0
  5  4  1  0  0  0  0
  6  8  1  0  0  0  0
  7  3  1  6  0  0  0
  7  9  1  0  0  0  0
  8 10  2  0  0  0  0
  9  8  1  0  0  0  0
 11  6  1  0  0  0  0
 11 26  1  0  0  0  0
 12 15  1  0  0  0  0
 12 19  1  1  0  0  0
 13 15  1  0  0  0  0
 14 17  2  0  0  0  0
 16 23  1  6  0  0  0
 16 17  1  0  0  0  0
 16 13  1  0  0  0  0
 17 12  1  0  0  0  0
 18 14  2  0  0  0  0
 18  7  1  0  0  0  0
 20 22  2  0  0  0  0
 21 22  1  0  0  0  0
 22 12  1  0  0  0  0
 24 23  2  0  0  0  0
 25 23  1  0  0  0  0
 26 27  1  0  0  0  0
 27 29  1  0  0  0  0
 28 27  1  0  0  0  0
 29 30  2  0  0  0  0
 31 34  2  0  0  0  0
 32 31  1  0  0  0  0
 34 33  1  0  0  0  0
 35 33  2  0  0  0  0
 36 29  1  1  0  0  0
 36 37  1  0  0  0  0
 36 31  1  0  0  0  0
 37 35  1  0  0  0  0
 38 43  1  0  0  0  0
 38 32  1  0  0  0  0
 39 38  2  0  0  0  0
 40 38  2  0  0  0  0
 41 47  1  6  0  0  0
 41 42  1  0  0  0  0
 41 43  1  0  0  0  0
 42 43  1  0  0  0  0
 42 44  1  1  0  0  0
 45 44  1  0  0  0  0
 46 45  1  0  0  0  0
 48 49  1  0  0  0  0
 49 47  1  0  0  0  0
M  END
>  <MODEL>
8

>  <REMARK>
 VINA RESULT:      -6.9      3.488      9.850
  Name = 
  13 active torsions:
  status: ('A' for Active; 'I' for Inactive)
    1  A    between atoms: C_3  and  C_36
    2  A    between atoms: N_4  and  S_34
    3  A    between atoms: C_5  and  C_26
    4  A    between atoms: C_9  and  C_25
    5  A    between atoms: C_12  and  C_19
    6  A    between atoms: C_12  and  C_29
    7  A    between atoms: N_17  and  C_27
    8  A    between atoms: N_17  and  C_43
    9  A    between atoms: C_24  and  C_27
   10  A    between atoms: C_25  and  C_40
   11  A    between atoms: S_34  and  N_48
   12  A    between atoms: C_38  and  C_41
   13  A    between atoms: C_43  and  C_49
                            x       y       z     vdW  Elec       q    Type
                         _______ _______ _______ _____ _____    ______ ____

>  <TORSDO>
F 13

$$$$
=
 OpenBabel11062411023D

 49 53  0  0  1  0  0  0  0  0999 V2000
  186.6680  172.9480  137.5800 C   0  0  0  0  0  3  0  0  0  0  0  0
  187.6320  173.7090  136.8910 C   0  0  0  0  0  3  0  0  0  0  0  0
  182.5940  173.9920  136.1100 C   0  0  0  0  0  1  0  0  0  0  0  0
  184.9600  174.3640  136.7910 C   0  0  0  0  0  0  0  0  0  0  0  0
  185.3480  173.2930  137.5320 N   0  0  0  0  0  0  0  0  0  0  0  0
  185.8710  175.1250  136.0990 C   0  0  0  0  0  0  0  0  0  0  0  0
  183.5840  174.9680  136.7180 C   0  0  1  0  0  0  0  0  0  0  0  0
  185.1180  176.1980  135.4930 C   0  0  0  0  0  0  0  0  0  0  0  0
  183.7760  176.0890  135.8450 O   0  0  0  0  0  0  0  0  0  0  0  0
  185.5810  177.1090  134.7570 O   0  0  0  0  0  0  0  0  0  0  0  0
  187.2370  174.8260  136.1390 C   0  0  0  0  0  0  0  0  0  0  0  0
  183.4510  178.8190  139.4060 C   0  0  1  0  0  0  0  0  0  0  0  0
  181.8640  180.1190  138.1400 O   0  0  0  0  0  0  0  0  0  0  0  0
  182.8710  176.6890  138.3050 C   0  0  0  0  0  0  0  0  0  0  0  0
  183.0250  180.2040  138.9410 C   0  0  0  0  0  2  0  0  0  0  0  0
  181.7990  178.8000  137.6490 C   0  0  1  0  0  3  0  0  0  0  0  0
  182.6410  177.9590  138.5270 C   0  0  0  0  0  0  0  0  0  0  0  0
  183.1090  175.4260  138.0650 C   0  0  0  0  0  3  0  0  0  0  0  0
  184.9410  178.6460  139.1610 C   0  0  0  0  0  1  0  0  0  0  0  0
  184.1020  178.8010  141.8300 O   0  0  0  0  0  1  0  0  0  0  0  0
  181.9590  178.2930  141.2190 O   0  0  0  0  0  0  0  0  0  0  0  0
  183.1280  178.5960  140.8600 C   0  0  0  0  0  0  0  0  0  0  0  0
  180.3790  178.3190  137.6020 C   0  0  0  0  0  0  0  0  0  0  0  0
  179.8170  177.9370  136.4620 C   0  0  0  0  0  2  0  0  0  0  0  0
  179.6240  178.3160  138.7690 O   0  0  0  0  0  1  0  0  0  0  0  0
  188.2710  175.7030  135.5050 C   0  0  0  0  0  2  0  0  0  0  0  0
  189.6030  175.3120  135.9510 N   0  0  0  0  0  0  0  0  0  0  0  0
  190.2280  174.2900  135.3170 O   0  0  0  0  0  1  0  0  0  0  0  0
  190.3440  176.1190  136.8770 C   0  0  0  0  0  0  0  0  0  0  0  0
  190.2180  177.4400  136.8390 C   0  0  0  0  0  2  0  0  0  0  0  0
  191.9170  176.5560  138.7790 C   0  0  0  0  0  0  0  0  0  0  0  0
  191.1660  177.3340  139.7190 N   0  0  0  0  0  2  0  0  0  0  0  0
  194.0320  175.9770  137.8690 N   0  0  0  0  0  0  0  0  0  0  0  0
  193.2000  176.7450  138.7030 N   0  0  0  0  0  0  0  0  0  0  0  0
  193.5660  174.9720  137.1970 C   0  0  0  0  0  3  0  0  0  0  0  0
  191.2580  175.5110  137.9010 C   0  0  2  0  0  3  0  0  0  0  0  0
  192.2100  174.6520  137.2680 O   0  0  0  0  0  0  0  0  0  0  0  0
  189.4540  177.2240  139.9700 S   0  0  0  0  0  0  0  0  0  0  0  0
  188.8640  178.6100  139.9540 O   0  0  0  0  0  0  0  0  0  0  0  0
  188.8480  176.4370  138.8420 O   0  0  0  0  0  0  0  0  0  0  0  0
  189.9490  176.7820  142.6550 C   0  0  1  0  0  3  0  0  0  0  0  0
  188.6370  177.3910  142.4530 C   0  0  1  0  0  3  0  0  0  0  0  0
  189.1180  176.3990  141.4790 N   0  0  0  0  0  0  0  0  0  0  0  0
  187.6190  176.7300  143.3610 C   0  0  0  0  0  2  0  0  0  0  0  0
  187.6870  177.3520  144.7410 C   0  0  0  0  0  2  0  0  0  0  0  0
  186.3080  177.8360  145.1440 C   0  0  0  0  0  1  0  0  0  0  0  0
  191.0600  177.7920  142.3760 C   0  0  0  0  0  2  0  0  0  0  0  0
  191.4730  177.8200  144.8350 C   0  0  0  0  0  1  0  0  0  0  0  0
  191.2950  178.6700  143.5900 C   0  0  0  0  0  2  0  0  0  0  0  0
  2  1  2  0  0  0  0
  4  5  2  0  0  0  0
  5  1  1  0  0  0  0
  6 11  2  0  0  0  0
  6  4  1  0  0  0  0
  7  3  1  6  0  0  0
  7  4  1  0  0  0  0
  7 18  1  0  0  0  0
  8  9  1  0  0  0  0
  8  6  1  0  0  0  0
  9  7  1  0  0  0  0
 10  8  2  0  0  0  0
 11  2  1  0  0  0  0
 12 19  1  6  0  0  0
 12 22  1  0  0  0  0
 13 15  1  0  0  0  0
 14 17  2  0  0  0  0
 15 12  1  0  0  0  0
 16 23  1  1  0  0  0
 16 13  1  0  0  0  0
 16 17  1  0  0  0  0
 17 12  1  0  0  0  0
 18 14  2  0  0  0  0
 22 21  2  0  0  0  0
 22 20  1  0  0  0  0
 23 25  1  0  0  0  0
 24 23  2  0  0  0  0
 26 27  1  0  0  0  0
 26 11  1  0  0  0  0
 27 29  1  0  0  0  0
 28 27  1  0  0  0  0
 30 29  2  0  0  0  0
 31 32  1  0  0  0  0
 32 38  1  0  0  0  0
 33 34  1  0  0  0  0
 34 31  2  0  0  0  0
 35 37  1  0  0  0  0
 35 33  2  0  0  0  0
 36 29  1  6  0  0  0
 36 31  1  0  0  0  0
 37 36  1  0  0  0  0
 38 43  1  0  0  0  0
 39 38  2  0  0  0  0
 40 38  2  0  0  0  0
 41 47  1  6  0  0  0
 42 41  1  0  0  0  0
 42 44  1  1  0  0  0
 43 42  1  0  0  0  0
 43 41  1  0  0  0  0
 44 45  1  0  0  0  0
 45 46  1  0  0  0  0
 47 49  1  0  0  0  0
 49 48  1  0  0  0  0
M  END
>  <MODEL>
9

>  <REMARK>
 VINA RESULT:      -6.8      1.818      2.792
  Name = 
  13 active torsions:
  status: ('A' for Active; 'I' for Inactive)
    1  A    between atoms: C_3  and  C_36
    2  A    between atoms: N_4  and  S_34
    3  A    between atoms: C_5  and  C_26
    4  A    between atoms: C_9  and  C_25
    5  A    between atoms: C_12  and  C_19
    6  A    between atoms: C_12  and  C_29
    7  A    between atoms: N_17  and  C_27
    8  A    between atoms: N_17  and  C_43
    9  A    between atoms: C_24  and  C_27
   10  A    between atoms: C_25  and  C_40
   11  A    between atoms: S_34  and  N_48
   12  A    between atoms: C_38  and  C_41
   13  A    between atoms: C_43  and  C_49
                            x       y       z     vdW  Elec       q    Type
                         _______ _______ _______ _____ _____    ______ ____

>  <TORSDO>
F 13

$$$$
