=
 OpenBabel11062416373D

 62 66  0  0  1  0  0  0  0  0999 V2000
  189.1760  177.9960  141.0940 C   0  0  0  0  0  3  0  0  0  0  0  0
  188.8610  177.4120  143.4500 N   0  0  1  0  0  0  0  0  0  0  0  0
  189.6130  177.7820  139.8540 C   0  0  0  0  0  0  0  0  0  0  0  0
  190.6730  177.6820  144.9670 N   0  0  0  0  0  2  0  0  0  0  0  0
  189.5320  176.8480  144.6240 C   0  0  0  0  0  2  0  0  0  0  0  0
  191.1880  177.5350  142.5480 C   0  0  0  0  0  0  0  0  0  0  0  0
  190.7620  176.8290  139.6460 C   0  0  2  0  0  3  0  0  0  0  0  0
  189.7200  177.2230  142.2660 C   0  0  2  0  0  3  0  0  0  0  0  0
  192.1220  177.5420  141.6330 N   0  0  0  0  0  0  0  0  0  0  0  0
  191.6030  177.5930  143.9170 N   0  0  0  0  0  2  0  0  0  0  0  0
  189.0150  178.5850  138.7430 C   0  0  0  0  0  1  0  0  0  0  0  0
  192.0270  177.4930  140.1670 C   0  0  0  0  0  2  0  0  0  0  0  0
  190.9890  176.3090  137.9480 S   0  0  0  0  0  0  0  0  0  0  0  0
  190.1530  177.1540  137.0280 O   0  0  0  0  0  0  0  0  0  0  0  0
  192.4380  176.4620  137.5780 O   0  0  0  0  0  0  0  0  0  0  0  0
  190.5330  174.5970  137.7840 C   0  0  0  0  0  2  0  0  0  0  0  0
  187.4660  173.4250  135.7930 N   0  0  0  0  0  0  0  0  0  0  0  0
  188.8320  173.5460  136.2460 C   0  0  0  0  0  0  0  0  0  0  0  0
  189.1840  174.4970  137.2520 N   0  0  0  0  0  2  0  0  0  0  0  0
  189.7300  172.8230  135.7330 O   0  0  0  0  0  0  0  0  0  0  0  0
  187.5710  171.1760  134.8280 C   0  0  0  0  0  1  0  0  0  0  0  0
  187.1700  172.6250  134.6070 C   0  0  0  0  0  2  0  0  0  0  0  0
  186.3360  174.1660  136.3750 C   0  0  2  0  0  3  0  0  0  0  0  0
  182.6800  171.9990  137.1770 C   0  0  0  0  0  2  0  0  0  0  0  0
  182.5740  173.3220  136.4150 C   0  0  2  0  0  3  0  0  0  0  0  0
  185.0530  173.3870  136.4340 C   0  0  0  0  0  0  0  0  0  0  0  0
  185.0560  171.9620  136.6080 N   0  0  0  0  0  2  0  0  0  0  0  0
  183.8920  174.0480  136.3830 C   0  0  0  0  0  3  0  0  0  0  0  0
  183.8210  171.1800  136.5890 C   0  0  0  0  0  2  0  0  0  0  0  0
  180.0850  173.9650  136.5830 C   0  0  0  0  0  1  0  0  0  0  0  0
  181.7680  175.0790  137.7800 O   0  0  0  0  0  0  0  0  0  0  0  0
  181.5000  174.1880  136.9890 C   0  0  0  0  0  0  0  0  0  0  0  0
  186.1670  175.6120  135.8730 C   0  0  2  0  0  3  0  0  0  0  0  0
  187.0320  175.9180  134.8380 F   0  0  0  0  0  0  0  0  0  0  0  0
  184.9770  176.8560  137.5280 F   0  0  0  0  0  0  0  0  0  0  0  0
  187.1140  176.2660  137.9690 F   0  0  0  0  0  0  0  0  0  0  0  0
  186.2320  176.6610  136.9790 C   0  0  0  0  0  0  0  0  0  0  0  0
  186.6760  177.8570  136.4400 F   0  0  0  0  0  0  0  0  0  0  0  0
  186.3640  177.4160  143.6040 C   0  0  2  0  0  3  0  0  0  0  0  0
  186.9160  176.3890  144.5680 C   0  0  0  0  0  2  0  0  0  0  0  0
  187.6370  176.6290  143.2500 C   0  0  2  0  0  3  0  0  0  0  0  0
  186.6110  178.8060  144.1830 C   0  0  0  0  0  2  0  0  0  0  0  0
  186.1130  178.2630  146.5590 C   0  0  0  0  0  1  0  0  0  0  0  0
  185.6740  179.0710  145.3500 C   0  0  2  0  0  3  0  0  0  0  0  0
  184.3220  178.6840  144.9800 N   0  0  0  0  0  2  0  0  0  0  0  0
  181.9040  178.6370  143.5840 O   0  0  0  0  0  0  0  0  0  0  0  0
  184.2300  178.7900  143.5840 N   0  0  0  0  0  2  0  0  0  0  0  0
  182.9660  178.7950  142.9220 C   0  0  0  0  0  0  0  0  0  0  0  0
  182.8960  178.9800  141.5110 N   0  0  0  0  0  2  0  0  0  0  0  0
  184.0650  179.3310  140.7240 C   0  0  0  0  0  2  0  0  0  0  0  0
  183.7280  179.2750  139.2480 C   0  0  0  0  0  2  0  0  0  0  0  0
  182.9790  180.4040  138.8920 O   0  0  0  0  0  0  0  0  0  0  0  0
  181.8260  179.8980  138.2870 C   0  0  1  0  0  3  0  0  0  0  0  0
  181.1860  180.9560  137.4120 C   0  0  0  0  0  0  0  0  0  0  0  0
  180.7790  180.6840  136.2000 N   0  0  0  0  0  0  0  0  0  0  0  0
  181.0830  178.2730  136.5360 C   0  0  0  0  0  2  0  0  0  0  0  0
  180.9860  179.4030  135.5270 C   0  0  0  0  0  2  0  0  0  0  0  0
  182.1790  178.6240  137.5260 C   0  0  0  0  0  2  0  0  0  0  0  0
  180.9700  182.2270  137.9590 O   0  0  0  0  0  0  0  0  0  0  0  0
  181.8810  183.3030  137.7680 C   0  0  0  0  0  2  0  0  0  0  0  0
  180.3190  185.1670  137.6340 N   0  0  0  0  0  1  0  0  0  0  0  0
  181.2590  184.3620  136.8730 C   0  0  0  0  0  2  0  0  0  0  0  0
  2  5  1  1  0  0  0
  3  1  2  0  0  0  0
  5  4  1  0  0  0  0
  6 10  1  0  0  0  0
  7 13  1  6  0  0  0
  7  3  1  0  0  0  0
  7 12  1  0  0  0  0
  8  1  1  6  0  0  0
  8  6  1  0  0  0  0
  8  2  1  0  0  0  0
  9  6  2  0  0  0  0
 10  4  1  0  0  0  0
 11  3  1  0  0  0  0
 12  9  1  0  0  0  0
 14 13  2  0  0  0  0
 15 13  2  0  0  0  0
 16 13  1  0  0  0  0
 17 18  1  0  0  0  0
 18 19  1  0  0  0  0
 19 16  1  0  0  0  0
 20 18  2  0  0  0  0
 22 21  1  0  0  0  0
 22 17  1  0  0  0  0
 23 17  1  6  0  0  0
 23 26  1  0  0  0  0
 25 32  1  1  0  0  0
 25 24  1  0  0  0  0
 26 27  1  0  0  0  0
 28 25  1  0  0  0  0
 28 26  2  0  0  0  0
 29 27  1  0  0  0  0
 29 24  1  0  0  0  0
 30 32  1  0  0  0  0
 32 31  2  0  0  0  0
 33 34  1  6  0  0  0
 33 23  1  0  0  0  0
 33 37  1  0  0  0  0
 37 35  1  0  0  0  0
 37 36  1  0  0  0  0
 38 37  1  0  0  0  0
 39 42  1  1  0  0  0
 39 40  1  0  0  0  0
 41  2  1  0  0  0  0
 41 39  1  0  0  0  0
 41 40  1  1  0  0  0
 42 44  1  0  0  0  0
 44 43  1  1  0  0  0
 45 44  1  0  0  0  0
 47 45  1  0  0  0  0
 48 47  1  0  0  0  0
 48 46  2  0  0  0  0
 49 48  1  0  0  0  0
 50 49  1  0  0  0  0
 51 50  1  0  0  0  0
 52 51  1  0  0  0  0
 53 52  1  6  0  0  0
 54 59  1  0  0  0  0
 54 53  1  0  0  0  0
 55 54  2  0  0  0  0
 56 58  1  0  0  0  0
 57 55  1  0  0  0  0
 57 56  1  0  0  0  0
 58 53  1  0  0  0  0
 60 59  1  0  0  0  0
 62 61  1  0  0  0  0
 62 60  1  0  0  0  0
M  END
>  <MODEL>
1

>  <REMARK>
 VINA RESULT:      -6.4      0.000      0.000
  Name = 
  21 active torsions:
  status: ('A' for Active; 'I' for Inactive)
    1  A    between atoms: N_1  and  C_35
    2  A    between atoms: N_1  and  C_62
    3  A    between atoms: C_3  and  N_20
    4  A    between atoms: C_3  and  S_30
    5  A    between atoms: N_4  and  C_29
    6  A    between atoms: C_6  and  O_41
    7  A    between atoms: C_14  and  C_23
    8  A    between atoms: C_15  and  C_62
    9  A    between atoms: C_19  and  C_37
   10  A    between atoms: C_21  and  O_22
   11  A    between atoms: O_22  and  C_53
   12  A    between atoms: C_24  and  S_30
   13  A    between atoms: N_27  and  N_54
   14  A    between atoms: C_37  and  C_38
   15  A    between atoms: C_38  and  N_54
   16  A    between atoms: O_41  and  C_45
   17  A    between atoms: N_42  and  C_43
   18  A    between atoms: C_43  and  C_45
   19  A    between atoms: C_51  and  C_59
   20  A    between atoms: C_51  and  C_62
   21  A    between atoms: C_53  and  C_56
                            x       y       z     vdW  Elec       q    Type
                         _______ _______ _______ _____ _____    ______ ____

>  <TORSDO>
F 21

$$$$
=
 OpenBabel11062416373D

 62 66  0  0  1  0  0  0  0  0999 V2000
  188.8660  177.6220  139.9340 C   0  0  0  0  0  3  0  0  0  0  0  0
  189.7630  177.3310  142.1930 N   0  0  1  0  0  0  0  0  0  0  0  0
  188.6460  177.2480  138.6740 C   0  0  0  0  0  0  0  0  0  0  0  0
  192.0770  177.7190  142.5850 N   0  0  0  0  0  2  0  0  0  0  0  0
  190.9380  176.8890  142.9470 C   0  0  0  0  0  2  0  0  0  0  0  0
  191.3460  177.2680  140.2610 C   0  0  0  0  0  0  0  0  0  0  0  0
  189.5740  176.2390  138.0470 C   0  0  2  0  0  3  0  0  0  0  0  0
  189.9370  176.9750  140.7720 C   0  0  2  0  0  3  0  0  0  0  0  0
  191.7110  177.1350  139.0120 N   0  0  0  0  0  0  0  0  0  0  0  0
  192.3750  177.4740  141.2330 N   0  0  0  0  0  2  0  0  0  0  0  0
  187.5590  177.9330  137.9110 C   0  0  0  0  0  1  0  0  0  0  0  0
  190.9120  176.9170  137.7990 C   0  0  0  0  0  2  0  0  0  0  0  0
  188.9550  175.5140  136.5310 S   0  0  0  0  0  0  0  0  0  0  0  0
  187.9400  176.4230  135.8950 O   0  0  0  0  0  0  0  0  0  0  0  0
  190.1020  175.3130  135.5800 O   0  0  0  0  0  0  0  0  0  0  0  0
  188.2190  173.9330  136.8850 C   0  0  0  0  0  2  0  0  0  0  0  0
  184.6650  173.0380  135.7390 N   0  0  0  0  0  0  0  0  0  0  0  0
  186.0980  172.9850  135.8990 C   0  0  0  0  0  0  0  0  0  0  0  0
  186.7870  173.9930  136.6410 N   0  0  0  0  0  2  0  0  0  0  0  0
  186.7570  172.0530  135.3580 O   0  0  0  0  0  0  0  0  0  0  0  0
  184.4500  170.7050  135.0210 C   0  0  0  0  0  1  0  0  0  0  0  0
  184.0140  172.1420  134.7870 C   0  0  0  0  0  2  0  0  0  0  0  0
  183.8000  174.0360  136.3870 C   0  0  2  0  0  3  0  0  0  0  0  0
  180.2050  172.4820  138.2230 C   0  0  0  0  0  2  0  0  0  0  0  0
  180.1580  173.8980  137.6470 C   0  0  2  0  0  3  0  0  0  0  0  0
  182.4640  173.5050  136.8210 C   0  0  0  0  0  0  0  0  0  0  0  0
  182.2060  172.0940  136.8740 N   0  0  0  0  0  2  0  0  0  0  0  0
  181.5230  174.3680  137.2220 C   0  0  0  0  0  3  0  0  0  0  0  0
  180.8880  171.5630  137.2180 C   0  0  0  0  0  2  0  0  0  0  0  0
  179.6700  174.5930  140.0790 C   0  0  0  0  0  1  0  0  0  0  0  0
  178.9310  175.8370  138.2310 O   0  0  0  0  0  0  0  0  0  0  0  0
  179.5430  174.8530  138.6190 C   0  0  0  0  0  0  0  0  0  0  0  0
  183.7300  175.4040  135.6830 C   0  0  2  0  0  3  0  0  0  0  0  0
  184.5780  175.4840  134.5940 F   0  0  0  0  0  0  0  0  0  0  0  0
  184.0030  176.1580  137.9330 F   0  0  0  0  0  0  0  0  0  0  0  0
  185.0680  177.2900  136.2920 F   0  0  0  0  0  0  0  0  0  0  0  0
  183.9200  176.5920  136.6220 C   0  0  0  0  0  0  0  0  0  0  0  0
  182.8330  177.4410  136.4990 F   0  0  0  0  0  0  0  0  0  0  0  0
  188.1880  177.0350  144.1150 C   0  0  2  0  0  3  0  0  0  0  0  0
  189.0080  175.7740  143.9490 C   0  0  0  0  0  2  0  0  0  0  0  0
  188.6210  176.5720  142.7130 C   0  0  2  0  0  3  0  0  0  0  0  0
  189.0750  178.1110  144.7350 C   0  0  0  0  0  2  0  0  0  0  0  0
  189.7580  176.6830  146.6530 C   0  0  0  0  0  1  0  0  0  0  0  0
  189.0860  177.9830  146.2500 C   0  0  2  0  0  3  0  0  0  0  0  0
  187.7180  177.9890  146.7440 N   0  0  0  0  0  2  0  0  0  0  0  0
  184.9300  178.0610  146.8860 O   0  0  0  0  0  0  0  0  0  0  0  0
  186.8980  178.3980  145.6820 N   0  0  0  0  0  2  0  0  0  0  0  0
  185.4780  178.4480  145.8180 C   0  0  0  0  0  0  0  0  0  0  0  0
  184.6720  178.9390  144.7500 N   0  0  0  0  0  2  0  0  0  0  0  0
  185.2540  179.5510  143.5690 C   0  0  0  0  0  2  0  0  0  0  0  0
  184.2220  179.6100  142.4610 C   0  0  0  0  0  2  0  0  0  0  0  0
  183.6870  178.3330  142.2450 O   0  0  0  0  0  0  0  0  0  0  0  0
  183.5630  178.2220  140.8580 C   0  0  1  0  0  3  0  0  0  0  0  0
  182.1130  178.3700  140.4480 C   0  0  0  0  0  0  0  0  0  0  0  0
  181.7610  179.1380  139.4510 N   0  0  0  0  0  0  0  0  0  0  0  0
  184.0890  179.4430  138.7390 C   0  0  0  0  0  2  0  0  0  0  0  0
  182.6780  180.0030  138.7110 C   0  0  0  0  0  2  0  0  0  0  0  0
  184.4820  179.2410  140.1910 C   0  0  0  0  0  2  0  0  0  0  0  0
  181.1530  177.6010  141.1180 O   0  0  0  0  0  0  0  0  0  0  0  0
  179.9700  178.1700  141.6670 C   0  0  0  0  0  2  0  0  0  0  0  0
  179.9850  179.3560  143.7940 N   0  0  0  0  0  1  0  0  0  0  0  0
  180.2980  179.4710  142.3800 C   0  0  0  0  0  2  0  0  0  0  0  0
  2 41  1  0  0  0  0
  2  5  1  1  0  0  0
  3  1  2  0  0  0  0
  4  5  1  0  0  0  0
  6  8  1  0  0  0  0
  6 10  1  0  0  0  0
  7 13  1  6  0  0  0
  7  3  1  0  0  0  0
  8  1  1  6  0  0  0
  8  2  1  0  0  0  0
  9  6  2  0  0  0  0
 10  4  1  0  0  0  0
 11  3  1  0  0  0  0
 12  7  1  0  0  0  0
 12  9  1  0  0  0  0
 13 16  1  0  0  0  0
 14 13  2  0  0  0  0
 15 13  2  0  0  0  0
 17 18  1  0  0  0  0
 18 19  1  0  0  0  0
 19 16  1  0  0  0  0
 20 18  2  0  0  0  0
 22 21  1  0  0  0  0
 22 17  1  0  0  0  0
 23 17  1  6  0  0  0
 23 26  1  0  0  0  0
 25 24  1  0  0  0  0
 25 32  1  1  0  0  0
 26 27  1  0  0  0  0
 26 28  2  0  0  0  0
 27 29  1  0  0  0  0
 28 25  1  0  0  0  0
 29 24  1  0  0  0  0
 31 32  2  0  0  0  0
 32 30  1  0  0  0  0
 33 34  1  6  0  0  0
 33 23  1  0  0  0  0
 33 37  1  0  0  0  0
 36 37  1  0  0  0  0
 37 35  1  0  0  0  0
 38 37  1  0  0  0  0
 39 42  1  1  0  0  0
 40 39  1  0  0  0  0
 41 40  1  1  0  0  0
 41 39  1  0  0  0  0
 42 44  1  0  0  0  0
 44 43  1  6  0  0  0
 44 45  1  0  0  0  0
 47 48  1  0  0  0  0
 47 45  1  0  0  0  0
 48 46  2  0  0  0  0
 49 48  1  0  0  0  0
 50 49  1  0  0  0  0
 51 50  1  0  0  0  0
 52 51  1  0  0  0  0
 53 52  1  1  0  0  0
 54 53  1  0  0  0  0
 54 59  1  0  0  0  0
 55 54  2  0  0  0  0
 56 58  1  0  0  0  0
 57 56  1  0  0  0  0
 57 55  1  0  0  0  0
 58 53  1  0  0  0  0
 59 60  1  0  0  0  0
 60 62  1  0  0  0  0
 62 61  1  0  0  0  0
M  END
>  <MODEL>
2

>  <REMARK>
 VINA RESULT:      -5.7      2.286      3.382
  Name = 
  21 active torsions:
  status: ('A' for Active; 'I' for Inactive)
    1  A    between atoms: N_1  and  C_35
    2  A    between atoms: N_1  and  C_62
    3  A    between atoms: C_3  and  N_20
    4  A    between atoms: C_3  and  S_30
    5  A    between atoms: N_4  and  C_29
    6  A    between atoms: C_6  and  O_41
    7  A    between atoms: C_14  and  C_23
    8  A    between atoms: C_15  and  C_62
    9  A    between atoms: C_19  and  C_37
   10  A    between atoms: C_21  and  O_22
   11  A    between atoms: O_22  and  C_53
   12  A    between atoms: C_24  and  S_30
   13  A    between atoms: N_27  and  N_54
   14  A    between atoms: C_37  and  C_38
   15  A    between atoms: C_38  and  N_54
   16  A    between atoms: O_41  and  C_45
   17  A    between atoms: N_42  and  C_43
   18  A    between atoms: C_43  and  C_45
   19  A    between atoms: C_51  and  C_59
   20  A    between atoms: C_51  and  C_62
   21  A    between atoms: C_53  and  C_56
                            x       y       z     vdW  Elec       q    Type
                         _______ _______ _______ _____ _____    ______ ____

>  <TORSDO>
F 21

$$$$
=
 OpenBabel11062416373D

 62 66  0  0  1  0  0  0  0  0999 V2000
  188.8970  178.0690  140.6860 C   0  0  0  0  0  3  0  0  0  0  0  0
  188.6620  177.6290  143.0820 N   0  0  1  0  0  0  0  0  0  0  0  0
  189.2970  177.7830  139.4470 C   0  0  0  0  0  0  0  0  0  0  0  0
  190.5180  178.0050  144.5210 N   0  0  0  0  0  2  0  0  0  0  0  0
  189.3750  177.1430  144.2660 C   0  0  0  0  0  2  0  0  0  0  0  0
  190.9590  177.7130  142.1010 C   0  0  0  0  0  0  0  0  0  0  0  0
  190.4490  176.8270  139.2620 C   0  0  2  0  0  3  0  0  0  0  0  0
  189.4850  177.3740  141.8840 C   0  0  2  0  0  3  0  0  0  0  0  0
  191.8640  177.6710  141.1570 N   0  0  0  0  0  0  0  0  0  0  0  0
  191.4150  177.8580  143.4490 N   0  0  0  0  0  2  0  0  0  0  0  0
  188.6580  178.5110  138.3100 C   0  0  0  0  0  1  0  0  0  0  0  0
  191.7230  177.5310  139.7010 C   0  0  0  0  0  2  0  0  0  0  0  0
  190.6280  176.2050  137.5930 S   0  0  0  0  0  0  0  0  0  0  0  0
  189.7360  176.9700  136.6540 O   0  0  0  0  0  0  0  0  0  0  0  0
  192.0570  176.3700  137.1590 O   0  0  0  0  0  0  0  0  0  0  0  0
  190.2110  174.4760  137.5540 C   0  0  0  0  0  2  0  0  0  0  0  0
  187.1330  173.1000  135.7160 N   0  0  0  0  0  0  0  0  0  0  0  0
  188.5040  173.2830  136.1290 C   0  0  0  0  0  0  0  0  0  0  0  0
  188.8540  174.3090  137.0600 N   0  0  0  0  0  2  0  0  0  0  0  0
  189.4100  172.5480  135.6460 O   0  0  0  0  0  0  0  0  0  0  0  0
  187.1000  170.7660  134.9710 C   0  0  0  0  0  1  0  0  0  0  0  0
  186.8330  172.2140  134.5940 C   0  0  0  0  0  2  0  0  0  0  0  0
  185.9970  173.8520  136.2710 C   0  0  2  0  0  3  0  0  0  0  0  0
  182.1510  171.9700  136.8780 C   0  0  0  0  0  2  0  0  0  0  0  0
  182.3160  172.8820  135.6600 C   0  0  2  0  0  3  0  0  0  0  0  0
  184.7050  173.0880  136.2960 C   0  0  0  0  0  0  0  0  0  0  0  0
  184.5880  171.8470  137.0080 N   0  0  0  0  0  2  0  0  0  0  0  0
  183.6330  173.6100  135.6900 C   0  0  0  0  0  3  0  0  0  0  0  0
  183.3620  171.0520  136.9760 C   0  0  0  0  0  2  0  0  0  0  0  0
  181.2680  174.9800  134.5950 C   0  0  0  0  0  1  0  0  0  0  0  0
  180.1750  173.7090  136.2370 O   0  0  0  0  0  0  0  0  0  0  0  0
  181.1760  173.8420  135.5500 C   0  0  0  0  0  0  0  0  0  0  0  0
  185.8580  175.3010  135.7700 C   0  0  2  0  0  3  0  0  0  0  0  0
  186.9030  175.6800  134.9480 F   0  0  0  0  0  0  0  0  0  0  0  0
  184.6000  175.9060  137.7090 F   0  0  0  0  0  0  0  0  0  0  0  0
  186.7830  176.4860  137.6300 F   0  0  0  0  0  0  0  0  0  0  0  0
  185.6300  176.3210  136.8830 C   0  0  0  0  0  0  0  0  0  0  0  0
  185.2890  177.5370  136.3170 F   0  0  0  0  0  0  0  0  0  0  0  0
  186.2070  177.5360  143.5540 C   0  0  2  0  0  3  0  0  0  0  0  0
  186.9030  176.4470  144.3400 C   0  0  0  0  0  2  0  0  0  0  0  0
  187.4400  176.8260  142.9690 C   0  0  2  0  0  3  0  0  0  0  0  0
  186.4980  178.8770  144.2210 C   0  0  0  0  0  2  0  0  0  0  0  0
  186.3130  177.9120  146.5060 C   0  0  0  0  0  1  0  0  0  0  0  0
  185.7810  178.9720  145.5580 C   0  0  2  0  0  3  0  0  0  0  0  0
  184.3550  178.7640  145.3570 N   0  0  0  0  0  2  0  0  0  0  0  0
  181.9210  179.2980  144.0970 O   0  0  0  0  0  0  0  0  0  0  0  0
  184.1500  178.6240  143.9770 N   0  0  0  0  0  2  0  0  0  0  0  0
  182.8950  178.9440  143.3780 C   0  0  0  0  0  0  0  0  0  0  0  0
  182.7340  178.8660  141.9640 N   0  0  0  0  0  2  0  0  0  0  0  0
  183.8580  178.6270  141.0760 C   0  0  0  0  0  2  0  0  0  0  0  0
  183.3570  178.3710  139.6690 C   0  0  0  0  0  2  0  0  0  0  0  0
  181.9610  178.4960  139.6360 O   0  0  0  0  0  0  0  0  0  0  0  0
  181.6980  179.3180  138.5390 C   0  0  1  0  0  3  0  0  0  0  0  0
  180.2310  179.2450  138.1690 C   0  0  0  0  0  0  0  0  0  0  0  0
  179.5350  180.3240  137.9230 N   0  0  0  0  0  0  0  0  0  0  0  0
  181.5450  181.7290  137.8870 C   0  0  0  0  0  2  0  0  0  0  0  0
  180.0400  181.6870  138.0790 C   0  0  0  0  0  2  0  0  0  0  0  0
  182.1670  180.7350  138.8520 C   0  0  0  0  0  2  0  0  0  0  0  0
  179.6460  177.9810  138.0230 O   0  0  0  0  0  0  0  0  0  0  0  0
  179.2800  177.1780  139.1390 C   0  0  0  0  0  2  0  0  0  0  0  0
  180.4650  175.2570  140.0530 N   0  0  0  0  0  1  0  0  0  0  0  0
  179.7080  175.7380  138.9100 C   0  0  0  0  0  2  0  0  0  0  0  0
  2  5  1  1  0  0  0
  3  1  2  0  0  0  0
  5  4  1  0  0  0  0
  6 10  1  0  0  0  0
  7 13  1  6  0  0  0
  7  3  1  0  0  0  0
  7 12  1  0  0  0  0
  8  1  1  6  0  0  0
  8  6  1  0  0  0  0
  8  2  1  0  0  0  0
  9  6  2  0  0  0  0
 10  4  1  0  0  0  0
 11  3  1  0  0  0  0
 12  9  1  0  0  0  0
 14 13  2  0  0  0  0
 15 13  2  0  0  0  0
 16 13  1  0  0  0  0
 17 18  1  0  0  0  0
 18 19  1  0  0  0  0
 19 16  1  0  0  0  0
 20 18  2  0  0  0  0
 22 21  1  0  0  0  0
 22 17  1  0  0  0  0
 23 17  1  6  0  0  0
 23 26  1  0  0  0  0
 24 29  1  0  0  0  0
 25 32  1  1  0  0  0
 25 28  1  0  0  0  0
 25 24  1  0  0  0  0
 26 27  1  0  0  0  0
 28 26  2  0  0  0  0
 29 27  1  0  0  0  0
 30 32  1  0  0  0  0
 32 31  2  0  0  0  0
 33 34  1  1  0  0  0
 33 23  1  0  0  0  0
 33 37  1  0  0  0  0
 37 36  1  0  0  0  0
 37 35  1  0  0  0  0
 38 37  1  0  0  0  0
 39 42  1  1  0  0  0
 39 40  1  0  0  0  0
 41  2  1  0  0  0  0
 41 39  1  0  0  0  0
 41 40  1  1  0  0  0
 42 44  1  0  0  0  0
 44 43  1  1  0  0  0
 45 44  1  0  0  0  0
 47 45  1  0  0  0  0
 48 47  1  0  0  0  0
 48 46  2  0  0  0  0
 49 48  1  0  0  0  0
 50 49  1  0  0  0  0
 51 50  1  0  0  0  0
 52 51  1  0  0  0  0
 53 58  1  0  0  0  0
 53 52  1  1  0  0  0
 54 53  1  0  0  0  0
 55 57  1  0  0  0  0
 55 54  2  0  0  0  0
 56 57  1  0  0  0  0
 56 58  1  0  0  0  0
 59 54  1  0  0  0  0
 59 60  1  0  0  0  0
 62 60  1  0  0  0  0
 62 61  1  0  0  0  0
M  END
>  <MODEL>
3

>  <REMARK>
 VINA RESULT:      -5.6      1.306      2.311
  Name = 
  21 active torsions:
  status: ('A' for Active; 'I' for Inactive)
    1  A    between atoms: N_1  and  C_35
    2  A    between atoms: N_1  and  C_62
    3  A    between atoms: C_3  and  N_20
    4  A    between atoms: C_3  and  S_30
    5  A    between atoms: N_4  and  C_29
    6  A    between atoms: C_6  and  O_41
    7  A    between atoms: C_14  and  C_23
    8  A    between atoms: C_15  and  C_62
    9  A    between atoms: C_19  and  C_37
   10  A    between atoms: C_21  and  O_22
   11  A    between atoms: O_22  and  C_53
   12  A    between atoms: C_24  and  S_30
   13  A    between atoms: N_27  and  N_54
   14  A    between atoms: C_37  and  C_38
   15  A    between atoms: C_38  and  N_54
   16  A    between atoms: O_41  and  C_45
   17  A    between atoms: N_42  and  C_43
   18  A    between atoms: C_43  and  C_45
   19  A    between atoms: C_51  and  C_59
   20  A    between atoms: C_51  and  C_62
   21  A    between atoms: C_53  and  C_56
                            x       y       z     vdW  Elec       q    Type
                         _______ _______ _______ _____ _____    ______ ____

>  <TORSDO>
F 21

$$$$
=
 OpenBabel11062416373D

 62 66  0  0  1  0  0  0  0  0999 V2000
  188.5350  176.4100  142.8650 C   0  0  0  0  0  3  0  0  0  0  0  0
  190.1620  177.0520  141.1530 N   0  0  1  0  0  0  0  0  0  0  0  0
  187.6940  176.6500  143.8710 C   0  0  0  0  0  0  0  0  0  0  0  0
  192.4140  177.4790  141.7910 N   0  0  0  0  0  2  0  0  0  0  0  0
  191.3390  177.8880  140.9000 C   0  0  0  0  0  2  0  0  0  0  0  0
  190.6640  177.5870  143.5420 C   0  0  0  0  0  0  0  0  0  0  0  0
  187.8950  177.8930  144.7000 C   0  0  2  0  0  3  0  0  0  0  0  0
  189.5930  177.4040  142.4680 C   0  0  2  0  0  3  0  0  0  0  0  0
  190.4020  177.7980  144.8060 N   0  0  0  0  0  0  0  0  0  0  0  0
  192.0160  177.7690  143.1070 N   0  0  0  0  0  2  0  0  0  0  0  0
  186.6660  175.6160  144.1970 C   0  0  0  0  0  1  0  0  0  0  0  0
  189.1390  177.6980  145.5510 C   0  0  0  0  0  2  0  0  0  0  0  0
  186.4970  178.3220  145.7330 S   0  0  0  0  0  0  0  0  0  0  0  0
  185.5170  177.1830  145.7830 O   0  0  0  0  0  0  0  0  0  0  0  0
  186.9870  178.6110  147.1250 O   0  0  0  0  0  0  0  0  0  0  0  0
  185.7050  179.7790  145.0880 C   0  0  0  0  0  2  0  0  0  0  0  0
  182.4430  178.8120  143.3080 N   0  0  0  0  0  0  0  0  0  0  0  0
  183.3830  179.1100  144.3620 C   0  0  0  0  0  0  0  0  0  0  0  0
  184.7480  179.4030  144.0600 N   0  0  0  0  0  2  0  0  0  0  0  0
  183.0040  179.0880  145.5660 O   0  0  0  0  0  0  0  0  0  0  0  0
  180.1580  179.4190  143.9490 C   0  0  0  0  0  1  0  0  0  0  0  0
  181.1240  178.2850  143.6480 C   0  0  0  0  0  2  0  0  0  0  0  0
  182.7640  178.8820  141.8730 C   0  0  2  0  0  3  0  0  0  0  0  0
  179.7240  178.8280  138.7980 C   0  0  0  0  0  2  0  0  0  0  0  0
  179.9910  177.5290  139.5610 C   0  0  2  0  0  3  0  0  0  0  0  0
  181.5650  178.8280  140.9700 C   0  0  0  0  0  0  0  0  0  0  0  0
  180.8550  180.0210  140.6060 N   0  0  0  0  0  2  0  0  0  0  0  0
  181.1960  177.6510  140.4540 C   0  0  0  0  0  3  0  0  0  0  0  0
  179.6410  179.9780  139.7930 C   0  0  0  0  0  2  0  0  0  0  0  0
  181.4930  175.9440  138.1960 C   0  0  0  0  0  1  0  0  0  0  0  0
  179.1520  175.7870  138.1960 O   0  0  0  0  0  0  0  0  0  0  0  0
  180.1350  176.3750  138.6230 C   0  0  0  0  0  0  0  0  0  0  0  0
  183.9330  177.9910  141.4150 C   0  0  2  0  0  3  0  0  0  0  0  0
  184.6910  177.5260  142.4730 F   0  0  0  0  0  0  0  0  0  0  0  0
  184.7120  177.9190  139.1580 F   0  0  0  0  0  0  0  0  0  0  0  0
  184.4350  179.9430  140.1270 F   0  0  0  0  0  0  0  0  0  0  0  0
  184.8120  178.6290  140.3420 C   0  0  0  0  0  0  0  0  0  0  0  0
  186.1290  178.6080  140.7670 F   0  0  0  0  0  0  0  0  0  0  0  0
  189.4410  176.6960  138.7840 C   0  0  2  0  0  3  0  0  0  0  0  0
  189.8190  178.1490  138.9720 C   0  0  0  0  0  2  0  0  0  0  0  0
  189.1730  177.3980  140.1270 C   0  0  2  0  0  3  0  0  0  0  0  0
  190.7200  175.8650  138.7400 C   0  0  0  0  0  2  0  0  0  0  0  0
  192.0800  175.7840  136.6600 C   0  0  0  0  0  1  0  0  0  0  0  0
  190.8780  175.2020  137.3820 C   0  0  2  0  0  3  0  0  0  0  0  0
  189.6810  175.4370  136.5890 N   0  0  0  0  0  2  0  0  0  0  0  0
  190.3250  173.5930  134.5940 O   0  0  0  0  0  0  0  0  0  0  0  0
  189.0360  174.2010  136.4390 N   0  0  0  0  0  2  0  0  0  0  0  0
  189.4270  173.2790  135.4220 C   0  0  0  0  0  0  0  0  0  0  0  0
  188.8070  171.9990  135.3380 N   0  0  0  0  0  2  0  0  0  0  0  0
  187.8920  171.5210  136.3600 C   0  0  0  0  0  2  0  0  0  0  0  0
  186.5680  172.2490  136.2450 C   0  0  0  0  0  2  0  0  0  0  0  0
  186.1720  172.7090  137.5080 O   0  0  0  0  0  0  0  0  0  0  0  0
  184.9220  173.2970  137.3030 C   0  0  1  0  0  3  0  0  0  0  0  0
  184.9780  174.2520  136.1280 C   0  0  0  0  0  0  0  0  0  0  0  0
  184.0560  174.2490  135.2020 N   0  0  0  0  0  0  0  0  0  0  0  0
  182.6090  172.7620  136.5130 C   0  0  0  0  0  2  0  0  0  0  0  0
  182.9600  173.2840  135.1310 C   0  0  0  0  0  2  0  0  0  0  0  0
  183.8750  172.2010  137.1350 C   0  0  0  0  0  2  0  0  0  0  0  0
  186.0100  175.1980  136.0920 O   0  0  0  0  0  0  0  0  0  0  0  0
  186.1070  176.2540  137.0400 C   0  0  0  0  0  2  0  0  0  0  0  0
  186.0850  177.4400  134.9120 N   0  0  0  0  0  1  0  0  0  0  0  0
  186.3750  177.5710  136.3300 C   0  0  0  0  0  2  0  0  0  0  0  0
  1  3  2  0  0  0  0
  2  5  1  6  0  0  0
  2  8  1  0  0  0  0
  3 11  1  0  0  0  0
  3  7  1  0  0  0  0
  4 10  1  0  0  0  0
  5  4  1  0  0  0  0
  6  9  2  0  0  0  0
  7 12  1  0  0  0  0
  7 13  1  1  0  0  0
  8  1  1  1  0  0  0
  8  6  1  0  0  0  0
  9 12  1  0  0  0  0
 10  6  1  0  0  0  0
 13 14  2  0  0  0  0
 13 15  2  0  0  0  0
 16 13  1  0  0  0  0
 17 22  1  0  0  0  0
 17 18  1  0  0  0  0
 18 20  2  0  0  0  0
 19 18  1  0  0  0  0
 19 16  1  0  0  0  0
 22 21  1  0  0  0  0
 23 17  1  1  0  0  0
 24 25  1  0  0  0  0
 24 29  1  0  0  0  0
 25 32  1  6  0  0  0
 25 28  1  0  0  0  0
 26 23  1  0  0  0  0
 27 26  1  0  0  0  0
 28 26  2  0  0  0  0
 29 27  1  0  0  0  0
 30 32  1  0  0  0  0
 31 32  2  0  0  0  0
 33 23  1  0  0  0  0
 33 34  1  1  0  0  0
 35 37  1  0  0  0  0
 36 37  1  0  0  0  0
 37 38  1  0  0  0  0
 37 33  1  0  0  0  0
 39 42  1  1  0  0  0
 39 40  1  0  0  0  0
 39 41  1  0  0  0  0
 41 40  1  6  0  0  0
 41  2  1  0  0  0  0
 44 43  1  6  0  0  0
 44 42  1  0  0  0  0
 45 44  1  0  0  0  0
 46 48  2  0  0  0  0
 47 45  1  0  0  0  0
 48 47  1  0  0  0  0
 49 48  1  0  0  0  0
 49 50  1  0  0  0  0
 51 50  1  0  0  0  0
 51 52  1  0  0  0  0
 53 52  1  6  0  0  0
 54 53  1  0  0  0  0
 55 54  2  0  0  0  0
 56 58  1  0  0  0  0
 57 55  1  0  0  0  0
 57 56  1  0  0  0  0
 58 53  1  0  0  0  0
 59 54  1  0  0  0  0
 59 60  1  0  0  0  0
 61 62  1  0  0  0  0
 62 60  1  0  0  0  0
M  END
>  <MODEL>
4

>  <REMARK>
 VINA RESULT:      -5.2      2.837      8.026
  Name = 
  21 active torsions:
  status: ('A' for Active; 'I' for Inactive)
    1  A    between atoms: N_1  and  C_35
    2  A    between atoms: N_1  and  C_62
    3  A    between atoms: C_3  and  N_20
    4  A    between atoms: C_3  and  S_30
    5  A    between atoms: N_4  and  C_29
    6  A    between atoms: C_6  and  O_41
    7  A    between atoms: C_14  and  C_23
    8  A    between atoms: C_15  and  C_62
    9  A    between atoms: C_19  and  C_37
   10  A    between atoms: C_21  and  O_22
   11  A    between atoms: O_22  and  C_53
   12  A    between atoms: C_24  and  S_30
   13  A    between atoms: N_27  and  N_54
   14  A    between atoms: C_37  and  C_38
   15  A    between atoms: C_38  and  N_54
   16  A    between atoms: O_41  and  C_45
   17  A    between atoms: N_42  and  C_43
   18  A    between atoms: C_43  and  C_45
   19  A    between atoms: C_51  and  C_59
   20  A    between atoms: C_51  and  C_62
   21  A    between atoms: C_53  and  C_56
                            x       y       z     vdW  Elec       q    Type
                         _______ _______ _______ _____ _____    ______ ____

>  <TORSDO>
F 21

$$$$
=
 OpenBabel11062416373D

 62 66  0  0  1  0  0  0  0  0999 V2000
  184.4090  178.7850  143.0850 C   0  0  0  0  0  3  0  0  0  0  0  0
  186.7270  178.0010  143.0300 N   0  0  1  0  0  0  0  0  0  0  0  0
  183.1410  178.8080  142.6750 C   0  0  0  0  0  0  0  0  0  0  0  0
  188.1920  178.8180  141.3430 N   0  0  0  0  0  2  0  0  0  0  0  0
  187.8330  177.6520  142.1340 C   0  0  0  0  0  2  0  0  0  0  0  0
  185.7510  178.9940  140.9550 C   0  0  0  0  0  0  0  0  0  0  0  0
  182.8240  178.3400  141.2780 C   0  0  2  0  0  3  0  0  0  0  0  0
  185.5010  178.1950  142.2330 C   0  0  2  0  0  3  0  0  0  0  0  0
  184.8050  179.3830  140.1410 N   0  0  0  0  0  0  0  0  0  0  0  0
  187.1040  179.1220  140.5070 N   0  0  0  0  0  2  0  0  0  0  0  0
  182.1140  179.4030  143.5830 C   0  0  0  0  0  1  0  0  0  0  0  0
  183.3440  179.3820  140.3010 C   0  0  0  0  0  2  0  0  0  0  0  0
  181.0860  178.0270  140.9840 S   0  0  0  0  0  0  0  0  0  0  0  0
  180.8670  176.5780  140.6440 O   0  0  0  0  0  0  0  0  0  0  0  0
  180.3100  178.3630  142.2260 O   0  0  0  0  0  0  0  0  0  0  0  0
  180.5120  179.0570  139.6520 C   0  0  0  0  0  2  0  0  0  0  0  0
  181.3780  178.6270  135.9360 N   0  0  0  0  0  0  0  0  0  0  0  0
  180.9300  179.2280  137.1690 C   0  0  0  0  0  0  0  0  0  0  0  0
  180.8880  178.4670  138.3770 N   0  0  0  0  0  2  0  0  0  0  0  0
  180.5470  180.4300  137.1790 O   0  0  0  0  0  0  0  0  0  0  0  0
  179.7830  179.9120  134.5940 C   0  0  0  0  0  1  0  0  0  0  0  0
  181.1890  179.3420  134.6770 C   0  0  0  0  0  2  0  0  0  0  0  0
  181.9120  177.2600  135.8310 C   0  0  2  0  0  3  0  0  0  0  0  0
  179.3640  173.7670  135.6940 C   0  0  0  0  0  2  0  0  0  0  0  0
  179.5130  174.4910  137.0340 C   0  0  2  0  0  3  0  0  0  0  0  0
  180.8610  176.1860  135.8260 C   0  0  0  0  0  0  0  0  0  0  0  0
  180.2140  175.7850  134.6100 N   0  0  0  0  0  2  0  0  0  0  0  0
  180.5720  175.5580  136.9710 C   0  0  0  0  0  3  0  0  0  0  0  0
  179.1350  174.8000  134.5990 C   0  0  0  0  0  2  0  0  0  0  0  0
  180.4980  172.2480  137.8320 C   0  0  0  0  0  1  0  0  0  0  0  0
  179.4460  173.7610  139.2850 O   0  0  0  0  0  0  0  0  0  0  0  0
  179.7940  173.5230  138.1380 C   0  0  0  0  0  0  0  0  0  0  0  0
  183.1170  176.9510  136.7380 C   0  0  2  0  0  3  0  0  0  0  0  0
  183.7380  178.0960  137.2030 F   0  0  0  0  0  0  0  0  0  0  0  0
  185.0020  176.6710  135.2980 F   0  0  0  0  0  0  0  0  0  0  0  0
  184.8350  175.3290  137.1100 F   0  0  0  0  0  0  0  0  0  0  0  0
  184.1250  175.9860  136.1200 C   0  0  0  0  0  0  0  0  0  0  0  0
  183.4440  175.0470  135.3640 F   0  0  0  0  0  0  0  0  0  0  0  0
  187.3210  176.9390  145.2160 C   0  0  2  0  0  3  0  0  0  0  0  0
  187.8020  176.0520  144.0890 C   0  0  0  0  0  2  0  0  0  0  0  0
  186.5170  176.8460  143.9080 C   0  0  2  0  0  3  0  0  0  0  0  0
  188.2500  178.1470  145.3110 C   0  0  0  0  0  2  0  0  0  0  0  0
  190.5250  178.9180  145.9540 C   0  0  0  0  0  1  0  0  0  0  0  0
  189.5240  177.7800  146.0540 C   0  0  2  0  0  3  0  0  0  0  0  0
  190.1000  176.5820  145.4630 N   0  0  0  0  0  2  0  0  0  0  0  0
  191.8980  174.9860  144.0430 O   0  0  0  0  0  0  0  0  0  0  0  0
  190.6740  176.9610  144.2400 N   0  0  0  0  0  2  0  0  0  0  0  0
  191.5620  176.0920  143.5380 C   0  0  0  0  0  0  0  0  0  0  0  0
  192.0740  176.4680  142.2620 N   0  0  0  0  0  2  0  0  0  0  0  0
  191.5940  177.6460  141.5610 C   0  0  0  0  0  2  0  0  0  0  0  0
  191.5670  177.3800  140.0690 C   0  0  0  0  0  2  0  0  0  0  0  0
  190.8060  176.2320  139.8090 O   0  0  0  0  0  0  0  0  0  0  0  0
  190.2610  176.4400  138.5390 C   0  0  1  0  0  3  0  0  0  0  0  0
  190.7100  175.3470  137.5910 C   0  0  0  0  0  0  0  0  0  0  0  0
  189.8660  174.7420  136.7990 N   0  0  0  0  0  0  0  0  0  0  0  0
  188.0890  176.3590  137.3000 C   0  0  0  0  0  2  0  0  0  0  0  0
  188.4200  174.9600  136.8110 C   0  0  0  0  0  2  0  0  0  0  0  0
  188.7440  176.5450  138.6570 C   0  0  0  0  0  2  0  0  0  0  0  0
  192.0760  175.0450  137.5280 O   0  0  0  0  0  0  0  0  0  0  0  0
  192.5580  173.7920  137.0550 C   0  0  0  0  0  2  0  0  0  0  0  0
  194.6700  174.2260  135.9220 N   0  0  0  0  0  1  0  0  0  0  0  0
  193.2540  173.9720  135.7160 C   0  0  0  0  0  2  0  0  0  0  0  0
  2  5  1  6  0  0  0
  2 41  1  0  0  0  0
  3  1  2  0  0  0  0
  3 11  1  0  0  0  0
  4  5  1  0  0  0  0
  6  8  1  0  0  0  0
  7 13  1  1  0  0  0
  7  3  1  0  0  0  0
  8  2  1  0  0  0  0
  8  1  1  1  0  0  0
  9 12  1  0  0  0  0
  9  6  2  0  0  0  0
 10  6  1  0  0  0  0
 10  4  1  0  0  0  0
 12  7  1  0  0  0  0
 13 15  2  0  0  0  0
 14 13  2  0  0  0  0
 16 13  1  0  0  0  0
 17 18  1  0  0  0  0
 18 20  2  0  0  0  0
 18 19  1  0  0  0  0
 19 16  1  0  0  0  0
 21 22  1  0  0  0  0
 22 17  1  0  0  0  0
 23 17  1  1  0  0  0
 23 33  1  0  0  0  0
 24 25  1  0  0  0  0
 25 32  1  1  0  0  0
 26 23  1  0  0  0  0
 26 28  2  0  0  0  0
 27 26  1  0  0  0  0
 28 25  1  0  0  0  0
 29 27  1  0  0  0  0
 29 24  1  0  0  0  0
 30 32  1  0  0  0  0
 32 31  2  0  0  0  0
 33 34  1  6  0  0  0
 35 37  1  0  0  0  0
 37 33  1  0  0  0  0
 37 36  1  0  0  0  0
 38 37  1  0  0  0  0
 39 42  1  6  0  0  0
 40 39  1  0  0  0  0
 41 40  1  6  0  0  0
 41 39  1  0  0  0  0
 42 44  1  0  0  0  0
 44 43  1  6  0  0  0
 45 44  1  0  0  0  0
 47 45  1  0  0  0  0
 48 46  2  0  0  0  0
 48 47  1  0  0  0  0
 49 48  1  0  0  0  0
 50 49  1  0  0  0  0
 51 50  1  0  0  0  0
 52 51  1  0  0  0  0
 53 58  1  0  0  0  0
 53 52  1  1  0  0  0
 54 53  1  0  0  0  0
 55 57  1  0  0  0  0
 55 54  2  0  0  0  0
 56 58  1  0  0  0  0
 57 56  1  0  0  0  0
 59 54  1  0  0  0  0
 60 59  1  0  0  0  0
 62 61  1  0  0  0  0
 62 60  1  0  0  0  0
M  END
>  <MODEL>
5

>  <REMARK>
 VINA RESULT:      -5.2      2.799      7.978
  Name = 
  21 active torsions:
  status: ('A' for Active; 'I' for Inactive)
    1  A    between atoms: N_1  and  C_35
    2  A    between atoms: N_1  and  C_62
    3  A    between atoms: C_3  and  N_20
    4  A    between atoms: C_3  and  S_30
    5  A    between atoms: N_4  and  C_29
    6  A    between atoms: C_6  and  O_41
    7  A    between atoms: C_14  and  C_23
    8  A    between atoms: C_15  and  C_62
    9  A    between atoms: C_19  and  C_37
   10  A    between atoms: C_21  and  O_22
   11  A    between atoms: O_22  and  C_53
   12  A    between atoms: C_24  and  S_30
   13  A    between atoms: N_27  and  N_54
   14  A    between atoms: C_37  and  C_38
   15  A    between atoms: C_38  and  N_54
   16  A    between atoms: O_41  and  C_45
   17  A    between atoms: N_42  and  C_43
   18  A    between atoms: C_43  and  C_45
   19  A    between atoms: C_51  and  C_59
   20  A    between atoms: C_51  and  C_62
   21  A    between atoms: C_53  and  C_56
                            x       y       z     vdW  Elec       q    Type
                         _______ _______ _______ _____ _____    ______ ____

>  <TORSDO>
F 21

$$$$
=
 OpenBabel11062416373D

 62 66  0  0  1  0  0  0  0  0999 V2000
  187.9350  178.0390  145.0270 C   0  0  0  0  0  3  0  0  0  0  0  0
  187.0140  177.8920  147.2890 N   0  0  1  0  0  0  0  0  0  0  0  0
  188.7030  177.6340  144.0160 C   0  0  0  0  0  0  0  0  0  0  0  0
  188.3300  178.6230  149.1310 N   0  0  0  0  0  2  0  0  0  0  0  0
  187.3610  177.6330  148.6890 C   0  0  0  0  0  2  0  0  0  0  0  0
  189.4920  178.0630  147.0160 C   0  0  0  0  0  0  0  0  0  0  0  0
  189.9040  176.7740  144.3190 C   0  0  2  0  0  3  0  0  0  0  0  0
  188.1710  177.5630  146.4350 C   0  0  2  0  0  3  0  0  0  0  0  0
  190.6390  177.9840  146.3930 N   0  0  0  0  0  0  0  0  0  0  0  0
  189.5140  178.4230  148.4010 N   0  0  0  0  0  2  0  0  0  0  0  0
  188.3990  178.1460  142.6450 C   0  0  0  0  0  1  0  0  0  0  0  0
  190.9490  177.6440  144.9970 C   0  0  0  0  0  2  0  0  0  0  0  0
  190.6070  175.9610  142.8880 S   0  0  0  0  0  0  0  0  0  0  0  0
  191.6830  175.0000  143.3100 O   0  0  0  0  0  0  0  0  0  0  0  0
  189.5230  175.2020  142.1730 O   0  0  0  0  0  0  0  0  0  0  0  0
  191.2800  177.1800  141.7810 C   0  0  0  0  0  2  0  0  0  0  0  0
  190.9720  176.4690  138.0200 N   0  0  0  0  0  0  0  0  0  0  0  0
  191.5570  176.7250  139.3150 C   0  0  0  0  0  0  0  0  0  0  0  0
  190.7300  176.9910  140.4480 N   0  0  0  0  0  2  0  0  0  0  0  0
  192.8120  176.7390  139.4450 O   0  0  0  0  0  0  0  0  0  0  0  0
  192.9270  175.4000  137.0010 C   0  0  0  0  0  1  0  0  0  0  0  0
  191.8290  176.4380  136.8380 C   0  0  0  0  0  2  0  0  0  0  0  0
  189.5260  176.3590  137.7760 C   0  0  2  0  0  3  0  0  0  0  0  0
  188.0500  172.4750  136.5750 C   0  0  0  0  0  2  0  0  0  0  0  0
  187.4350  173.7100  135.9120 C   0  0  2  0  0  3  0  0  0  0  0  0
  189.1010  175.0560  137.1620 C   0  0  0  0  0  0  0  0  0  0  0  0
  189.9250  173.8850  137.2600 N   0  0  0  0  0  2  0  0  0  0  0  0
  187.9060  174.9800  136.5660 C   0  0  0  0  0  3  0  0  0  0  0  0
  189.5650  172.6310  136.6000 C   0  0  0  0  0  2  0  0  0  0  0  0
  185.1460  174.8150  136.3300 C   0  0  0  0  0  1  0  0  0  0  0  0
  185.3690  172.6050  135.5760 O   0  0  0  0  0  0  0  0  0  0  0  0
  185.9420  173.6300  135.9100 C   0  0  0  0  0  0  0  0  0  0  0  0
  188.8680  177.5960  137.1370 C   0  0  2  0  0  3  0  0  0  0  0  0
  189.7970  178.5090  136.6710 F   0  0  0  0  0  0  0  0  0  0  0  0
  186.9940  177.3200  138.5910 F   0  0  0  0  0  0  0  0  0  0  0  0
  188.4410  179.0010  139.0240 F   0  0  0  0  0  0  0  0  0  0  0  0
  187.8250  178.2700  138.0240 C   0  0  0  0  0  0  0  0  0  0  0  0
  187.0630  179.1280  137.2500 F   0  0  0  0  0  0  0  0  0  0  0  0
  184.9260  177.5750  145.9470 C   0  0  2  0  0  3  0  0  0  0  0  0
  184.5820  177.5110  147.4190 C   0  0  0  0  0  2  0  0  0  0  0  0
  185.9240  176.9710  146.9500 C   0  0  2  0  0  3  0  0  0  0  0  0
  185.1950  179.0310  145.5760 C   0  0  0  0  0  2  0  0  0  0  0  0
  185.4120  180.4820  143.5680 C   0  0  0  0  0  1  0  0  0  0  0  0
  184.6330  179.3420  144.1980 C   0  0  2  0  0  3  0  0  0  0  0  0
  183.2350  179.7260  144.3230 N   0  0  0  0  0  2  0  0  0  0  0  0
  180.5710  178.8990  144.4340 O   0  0  0  0  0  0  0  0  0  0  0  0
  182.5530  179.1610  143.2360 N   0  0  0  0  0  2  0  0  0  0  0  0
  181.1800  178.7860  143.3350 C   0  0  0  0  0  0  0  0  0  0  0  0
  180.4890  178.2840  142.1950 N   0  0  0  0  0  2  0  0  0  0  0  0
  181.0880  178.2890  140.8710 C   0  0  0  0  0  2  0  0  0  0  0  0
  180.3120  179.2180  139.9610 C   0  0  0  0  0  2  0  0  0  0  0  0
  180.0460  178.5740  138.7440 O   0  0  0  0  0  0  0  0  0  0  0  0
  180.8450  179.2300  137.8060 C   0  0  1  0  0  3  0  0  0  0  0  0
  181.7720  178.2440  137.1250 C   0  0  0  0  0  0  0  0  0  0  0  0
  181.9290  178.2400  135.8280 N   0  0  0  0  0  0  0  0  0  0  0  0
  180.7260  180.3630  135.5780 C   0  0  0  0  0  2  0  0  0  0  0  0
  181.1730  179.0800  134.9010 C   0  0  0  0  0  2  0  0  0  0  0  0
  179.9510  179.9850  136.8280 C   0  0  0  0  0  2  0  0  0  0  0  0
  182.5210  177.3760  137.9290 O   0  0  0  0  0  0  0  0  0  0  0  0
  183.8540  177.6690  138.3300 C   0  0  0  0  0  2  0  0  0  0  0  0
  184.6840  179.3810  139.8520 N   0  0  0  0  0  1  0  0  0  0  0  0
  184.0070  179.1600  138.5860 C   0  0  0  0  0  2  0  0  0  0  0  0
  2  5  1  1  0  0  0
  3  7  1  0  0  0  0
  3  1  2  0  0  0  0
  5  4  1  0  0  0  0
  6 10  1  0  0  0  0
  7 13  1  6  0  0  0
  7 12  1  0  0  0  0
  8  1  1  6  0  0  0
  8  6  1  0  0  0  0
  8  2  1  0  0  0  0
  9  6  2  0  0  0  0
 10  4  1  0  0  0  0
 11  3  1  0  0  0  0
 12  9  1  0  0  0  0
 13 14  2  0  0  0  0
 15 13  2  0  0  0  0
 16 13  1  0  0  0  0
 17 18  1  0  0  0  0
 18 20  2  0  0  0  0
 18 19  1  0  0  0  0
 19 16  1  0  0  0  0
 22 21  1  0  0  0  0
 22 17  1  0  0  0  0
 23 17  1  6  0  0  0
 24 29  1  0  0  0  0
 25 32  1  1  0  0  0
 25 28  1  0  0  0  0
 25 24  1  0  0  0  0
 26 27  1  0  0  0  0
 26 23  1  0  0  0  0
 28 26  2  0  0  0  0
 29 27  1  0  0  0  0
 31 32  2  0  0  0  0
 32 30  1  0  0  0  0
 33 34  1  1  0  0  0
 33 23  1  0  0  0  0
 33 37  1  0  0  0  0
 37 35  1  0  0  0  0
 37 36  1  0  0  0  0
 38 37  1  0  0  0  0
 39 42  1  1  0  0  0
 39 41  1  0  0  0  0
 39 40  1  0  0  0  0
 41  2  1  0  0  0  0
 41 40  1  1  0  0  0
 44 43  1  1  0  0  0
 44 45  1  0  0  0  0
 44 42  1  0  0  0  0
 47 48  1  0  0  0  0
 47 45  1  0  0  0  0
 48 46  2  0  0  0  0
 49 48  1  0  0  0  0
 50 49  1  0  0  0  0
 51 50  1  0  0  0  0
 52 51  1  0  0  0  0
 53 52  1  1  0  0  0
 54 53  1  0  0  0  0
 54 59  1  0  0  0  0
 55 54  2  0  0  0  0
 56 58  1  0  0  0  0
 57 56  1  0  0  0  0
 57 55  1  0  0  0  0
 58 53  1  0  0  0  0
 59 60  1  0  0  0  0
 60 62  1  0  0  0  0
 62 61  1  0  0  0  0
M  END
>  <MODEL>
6

>  <REMARK>
 VINA RESULT:      -5.0      2.617      4.363
  Name = 
  21 active torsions:
  status: ('A' for Active; 'I' for Inactive)
    1  A    between atoms: N_1  and  C_35
    2  A    between atoms: N_1  and  C_62
    3  A    between atoms: C_3  and  N_20
    4  A    between atoms: C_3  and  S_30
    5  A    between atoms: N_4  and  C_29
    6  A    between atoms: C_6  and  O_41
    7  A    between atoms: C_14  and  C_23
    8  A    between atoms: C_15  and  C_62
    9  A    between atoms: C_19  and  C_37
   10  A    between atoms: C_21  and  O_22
   11  A    between atoms: O_22  and  C_53
   12  A    between atoms: C_24  and  S_30
   13  A    between atoms: N_27  and  N_54
   14  A    between atoms: C_37  and  C_38
   15  A    between atoms: C_38  and  N_54
   16  A    between atoms: O_41  and  C_45
   17  A    between atoms: N_42  and  C_43
   18  A    between atoms: C_43  and  C_45
   19  A    between atoms: C_51  and  C_59
   20  A    between atoms: C_51  and  C_62
   21  A    between atoms: C_53  and  C_56
                            x       y       z     vdW  Elec       q    Type
                         _______ _______ _______ _____ _____    ______ ____

>  <TORSDO>
F 21

$$$$
=
 OpenBabel11062416373D

 62 66  0  0  1  0  0  0  0  0999 V2000
  183.0320  177.8360  140.0200 C   0  0  0  0  0  3  0  0  0  0  0  0
  181.1200  176.4270  139.4300 N   0  0  1  0  0  0  0  0  0  0  0  0
  183.9570  178.3160  140.8500 C   0  0  0  0  0  0  0  0  0  0  0  0
  178.9350  177.0930  140.0960 N   0  0  0  0  0  2  0  0  0  0  0  0
  179.8170  175.9520  139.9000 C   0  0  0  0  0  2  0  0  0  0  0  0
  180.8700  178.0600  141.3050 C   0  0  0  0  0  0  0  0  0  0  0  0
  183.6990  178.2540  142.3340 C   0  0  2  0  0  3  0  0  0  0  0  0
  181.8040  177.1320  140.5310 C   0  0  2  0  0  3  0  0  0  0  0  0
  181.2660  178.8670  142.2550 N   0  0  0  0  0  0  0  0  0  0  0  0
  179.4610  177.8670  141.1450 N   0  0  0  0  0  2  0  0  0  0  0  0
  185.1530  178.9960  140.2640 C   0  0  0  0  0  1  0  0  0  0  0  0
  182.6170  179.2680  142.6690 C   0  0  0  0  0  2  0  0  0  0  0  0
  185.1490  178.5360  143.3460 S   0  0  0  0  0  0  0  0  0  0  0  0
  185.9310  179.7080  142.8200 O   0  0  0  0  0  0  0  0  0  0  0  0
  184.7150  178.8270  144.7550 O   0  0  0  0  0  0  0  0  0  0  0  0
  186.1670  177.0770  143.3480 C   0  0  0  0  0  2  0  0  0  0  0  0
  189.6630  178.0890  144.5720 N   0  0  0  0  0  0  0  0  0  0  0  0
  188.5540  177.8220  143.6880 C   0  0  0  0  0  0  0  0  0  0  0  0
  187.3290  177.2900  144.1950 N   0  0  0  0  0  2  0  0  0  0  0  0
  188.6720  178.0350  142.4490 O   0  0  0  0  0  0  0  0  0  0  0  0
  191.3480  179.8460  144.2990 C   0  0  0  0  0  1  0  0  0  0  0  0
  190.9730  178.4020  144.0080 C   0  0  0  0  0  2  0  0  0  0  0  0
  189.6040  177.9440  146.0350 C   0  0  2  0  0  3  0  0  0  0  0  0
  192.9880  175.6190  147.3960 C   0  0  0  0  0  2  0  0  0  0  0  0
  192.1410  176.3340  148.4510 C   0  0  2  0  0  3  0  0  0  0  0  0
  190.6300  177.0050  146.6030 C   0  0  0  0  0  0  0  0  0  0  0  0
  191.1230  175.8940  145.8410 N   0  0  0  0  0  2  0  0  0  0  0  0
  191.1290  177.2510  147.8190 C   0  0  0  0  0  3  0  0  0  0  0  0
  192.0610  174.9260  146.4070 C   0  0  0  0  0  2  0  0  0  0  0  0
  194.1490  176.3780  150.0640 C   0  0  0  0  0  1  0  0  0  0  0  0
  192.7790  178.2460  149.6930 O   0  0  0  0  0  0  0  0  0  0  0  0
  193.0050  177.0770  149.4190 C   0  0  0  0  0  0  0  0  0  0  0  0
  188.1940  177.7600  146.6230 C   0  0  2  0  0  3  0  0  0  0  0  0
  187.2100  178.3170  145.8270 F   0  0  0  0  0  0  0  0  0  0  0  0
  186.9710  179.0630  148.2090 F   0  0  0  0  0  0  0  0  0  0  0  0
  187.9190  177.1370  148.9160 F   0  0  0  0  0  0  0  0  0  0  0  0
  188.0630  178.2240  148.0720 C   0  0  0  0  0  0  0  0  0  0  0  0
  189.2080  178.9150  148.4280 F   0  0  0  0  0  0  0  0  0  0  0  0
  182.5770  175.3300  137.7170 C   0  0  2  0  0  3  0  0  0  0  0  0
  181.3210  174.5050  137.8990 C   0  0  0  0  0  2  0  0  0  0  0  0
  181.9070  175.2350  139.0990 C   0  0  2  0  0  3  0  0  0  0  0  0
  182.2220  176.5810  136.9190 C   0  0  0  0  0  2  0  0  0  0  0  0
  181.3620  176.3680  134.5960 C   0  0  0  0  0  1  0  0  0  0  0  0
  182.6100  176.4090  135.4590 C   0  0  2  0  0  3  0  0  0  0  0  0
  183.3460  175.1650  135.2990 N   0  0  0  0  0  2  0  0  0  0  0  0
  185.2430  173.4750  136.4580 O   0  0  0  0  0  0  0  0  0  0  0  0
  184.7100  175.4780  135.3900 N   0  0  0  0  0  2  0  0  0  0  0  0
  185.6440  174.5630  135.9620 C   0  0  0  0  0  0  0  0  0  0  0  0
  187.0350  174.8730  135.9740 N   0  0  0  0  0  2  0  0  0  0  0  0
  187.5710  176.0260  135.2720 C   0  0  0  0  0  2  0  0  0  0  0  0
  189.0840  175.9540  135.2440 C   0  0  0  0  0  2  0  0  0  0  0  0
  189.6180  176.9030  136.1260 O   0  0  0  0  0  0  0  0  0  0  0  0
  190.8760  176.4050  136.4750 C   0  0  1  0  0  3  0  0  0  0  0  0
  190.8000  175.6690  137.7960 C   0  0  0  0  0  0  0  0  0  0  0  0
  191.3570  174.4980  137.9570 N   0  0  0  0  0  0  0  0  0  0  0  0
  192.5460  174.6630  135.8170 C   0  0  0  0  0  2  0  0  0  0  0  0
  192.0020  173.7360  136.8890 C   0  0  0  0  0  2  0  0  0  0  0  0
  191.4050  175.5400  135.3350 C   0  0  0  0  0  2  0  0  0  0  0  0
  190.1750  176.3070  138.8750 O   0  0  0  0  0  0  0  0  0  0  0  0
  190.0620  177.7220  138.9610 C   0  0  0  0  0  2  0  0  0  0  0  0
  187.9320  178.6180  138.1900 N   0  0  0  0  0  1  0  0  0  0  0  0
  188.6450  178.1100  139.3500 C   0  0  0  0  0  2  0  0  0  0  0  0
  1  3  2  0  0  0  0
  2  5  1  1  0  0  0
  2  8  1  0  0  0  0
  3  7  1  0  0  0  0
  4 10  1  0  0  0  0
  5  4  1  0  0  0  0
  6  9  2  0  0  0  0
  7 12  1  0  0  0  0
  7 13  1  1  0  0  0
  8  1  1  6  0  0  0
  8  6  1  0  0  0  0
  9 12  1  0  0  0  0
 10  6  1  0  0  0  0
 11  3  1  0  0  0  0
 13 16  1  0  0  0  0
 13 15  2  0  0  0  0
 14 13  2  0  0  0  0
 16 19  1  0  0  0  0
 18 19  1  0  0  0  0
 18 17  1  0  0  0  0
 20 18  2  0  0  0  0
 22 21  1  0  0  0  0
 22 17  1  0  0  0  0
 23 17  1  6  0  0  0
 23 26  1  0  0  0  0
 23 33  1  0  0  0  0
 24 25  1  0  0  0  0
 25 32  1  1  0  0  0
 26 28  2  0  0  0  0
 27 29  1  0  0  0  0
 27 26  1  0  0  0  0
 28 25  1  0  0  0  0
 29 24  1  0  0  0  0
 32 31  2  0  0  0  0
 32 30  1  0  0  0  0
 33 34  1  6  0  0  0
 33 37  1  0  0  0  0
 37 35  1  0  0  0  0
 37 38  1  0  0  0  0
 37 36  1  0  0  0  0
 39 42  1  6  0  0  0
 39 40  1  0  0  0  0
 39 41  1  0  0  0  0
 41 40  1  6  0  0  0
 41  2  1  0  0  0  0
 44 43  1  6  0  0  0
 44 42  1  0  0  0  0
 45 47  1  0  0  0  0
 45 44  1  0  0  0  0
 47 48  1  0  0  0  0
 48 49  1  0  0  0  0
 48 46  2  0  0  0  0
 50 49  1  0  0  0  0
 51 50  1  0  0  0  0
 51 52  1  0  0  0  0
 53 52  1  6  0  0  0
 53 54  1  0  0  0  0
 54 55  2  0  0  0  0
 54 59  1  0  0  0  0
 56 57  1  0  0  0  0
 57 55  1  0  0  0  0
 58 56  1  0  0  0  0
 58 53  1  0  0  0  0
 59 60  1  0  0  0  0
 60 62  1  0  0  0  0
 61 62  1  0  0  0  0
M  END
>  <MODEL>
7

>  <REMARK>
 VINA RESULT:      -4.7      4.265     10.830
  Name = 
  21 active torsions:
  status: ('A' for Active; 'I' for Inactive)
    1  A    between atoms: N_1  and  C_35
    2  A    between atoms: N_1  and  C_62
    3  A    between atoms: C_3  and  N_20
    4  A    between atoms: C_3  and  S_30
    5  A    between atoms: N_4  and  C_29
    6  A    between atoms: C_6  and  O_41
    7  A    between atoms: C_14  and  C_23
    8  A    between atoms: C_15  and  C_62
    9  A    between atoms: C_19  and  C_37
   10  A    between atoms: C_21  and  O_22
   11  A    between atoms: O_22  and  C_53
   12  A    between atoms: C_24  and  S_30
   13  A    between atoms: N_27  and  N_54
   14  A    between atoms: C_37  and  C_38
   15  A    between atoms: C_38  and  N_54
   16  A    between atoms: O_41  and  C_45
   17  A    between atoms: N_42  and  C_43
   18  A    between atoms: C_43  and  C_45
   19  A    between atoms: C_51  and  C_59
   20  A    between atoms: C_51  and  C_62
   21  A    between atoms: C_53  and  C_56
                            x       y       z     vdW  Elec       q    Type
                         _______ _______ _______ _____ _____    ______ ____

>  <TORSDO>
F 21

$$$$
=
 OpenBabel11062416373D

 62 66  0  0  1  0  0  0  0  0999 V2000
  183.8760  177.4920  138.6200 C   0  0  0  0  0  3  0  0  0  0  0  0
  182.1550  176.0420  137.6580 N   0  0  1  0  0  0  0  0  0  0  0  0
  184.4800  178.1380  139.6170 C   0  0  0  0  0  0  0  0  0  0  0  0
  179.9860  176.9270  137.2470 N   0  0  0  0  0  2  0  0  0  0  0  0
  180.7200  175.7460  137.6730 C   0  0  0  0  0  2  0  0  0  0  0  0
  181.4400  178.1080  138.8690 C   0  0  0  0  0  0  0  0  0  0  0  0
  183.6830  178.4660  140.8540 C   0  0  2  0  0  3  0  0  0  0  0  0
  182.4660  176.9820  138.7510 C   0  0  2  0  0  3  0  0  0  0  0  0
  181.5550  179.1180  139.6920 N   0  0  0  0  0  0  0  0  0  0  0  0
  180.1790  177.9270  138.2160 N   0  0  0  0  0  2  0  0  0  0  0  0
  185.8850  178.6050  139.4110 C   0  0  0  0  0  1  0  0  0  0  0  0
  182.6960  179.5670  140.5020 C   0  0  0  0  0  2  0  0  0  0  0  0
  184.6770  178.9510  142.2620 S   0  0  0  0  0  0  0  0  0  0  0  0
  185.8300  179.8060  141.8160 O   0  0  0  0  0  0  0  0  0  0  0  0
  183.8220  179.7350  143.2180 O   0  0  0  0  0  0  0  0  0  0  0  0
  185.2820  177.4980  143.0920 C   0  0  0  0  0  2  0  0  0  0  0  0
  187.9380  177.8000  145.8490 N   0  0  0  0  0  0  0  0  0  0  0  0
  186.6780  177.5420  145.1940 C   0  0  0  0  0  0  0  0  0  0  0  0
  186.5110  177.8130  143.8010 N   0  0  0  0  0  2  0  0  0  0  0  0
  185.7030  177.0950  145.8600 O   0  0  0  0  0  0  0  0  0  0  0  0
  187.2820  178.9220  147.9250 C   0  0  0  0  0  1  0  0  0  0  0  0
  188.0150  177.7440  147.3060 C   0  0  0  0  0  2  0  0  0  0  0  0
  189.1520  178.2510  145.1510 C   0  0  2  0  0  3  0  0  0  0  0  0
  189.4210  176.0030  141.4660 C   0  0  0  0  0  2  0  0  0  0  0  0
  189.9430  177.4410  141.4660 C   0  0  2  0  0  3  0  0  0  0  0  0
  189.4640  177.4830  143.8990 C   0  0  0  0  0  0  0  0  0  0  0  0
  189.5470  176.0510  143.9060 N   0  0  0  0  0  2  0  0  0  0  0  0
  189.6080  178.1510  142.7490 C   0  0  0  0  0  3  0  0  0  0  0  0
  189.9280  175.2940  142.7150 C   0  0  0  0  0  2  0  0  0  0  0  0
  190.0310  177.9610  138.9440 C   0  0  0  0  0  1  0  0  0  0  0  0
  188.5280  179.0140  140.4050 O   0  0  0  0  0  0  0  0  0  0  0  0
  189.4290  178.1990  140.2840 C   0  0  0  0  0  0  0  0  0  0  0  0
  190.3760  178.5020  146.0520 C   0  0  2  0  0  3  0  0  0  0  0  0
  191.2950  179.3560  145.4720 F   0  0  0  0  0  0  0  0  0  0  0  0
  190.1130  176.2080  146.6660 F   0  0  0  0  0  0  0  0  0  0  0  0
  192.0530  176.8360  145.6910 F   0  0  0  0  0  0  0  0  0  0  0  0
  191.0450  177.2250  146.5550 C   0  0  0  0  0  0  0  0  0  0  0  0
  191.5960  177.4670  147.8010 F   0  0  0  0  0  0  0  0  0  0  0  0
  183.8860  174.4200  136.8620 C   0  0  2  0  0  3  0  0  0  0  0  0
  182.5370  173.7360  136.8760 C   0  0  0  0  0  2  0  0  0  0  0  0
  182.8470  174.7800  137.9380 C   0  0  2  0  0  3  0  0  0  0  0  0
  183.9320  175.3760  135.6730 C   0  0  0  0  0  2  0  0  0  0  0  0
  185.7310  173.7970  134.9990 C   0  0  0  0  0  1  0  0  0  0  0  0
  185.2490  175.2350  134.9270 C   0  0  2  0  0  3  0  0  0  0  0  0
  186.2430  176.1050  135.5370 N   0  0  0  0  0  2  0  0  0  0  0  0
  188.7380  177.3270  135.2560 O   0  0  0  0  0  0  0  0  0  0  0  0
  187.4560  175.4010  135.5460 N   0  0  0  0  0  2  0  0  0  0  0  0
  188.7070  176.0790  135.4330 C   0  0  0  0  0  0  0  0  0  0  0  0
  189.9280  175.3500  135.5210 N   0  0  0  0  0  2  0  0  0  0  0  0
  189.9580  173.9450  135.8890 C   0  0  0  0  0  2  0  0  0  0  0  0
  191.3820  173.4300  135.8360 C   0  0  0  0  0  2  0  0  0  0  0  0
  192.2700  174.4600  136.1770 O   0  0  0  0  0  0  0  0  0  0  0  0
  193.5290  173.8580  136.2050 C   0  0  1  0  0  3  0  0  0  0  0  0
  194.3970  174.5050  137.2640 C   0  0  0  0  0  0  0  0  0  0  0  0
  195.1000  173.7890  138.1020 N   0  0  0  0  0  0  0  0  0  0  0  0
  194.6690  171.7250  136.8470 C   0  0  0  0  0  2  0  0  0  0  0  0
  195.0490  172.3310  138.1870 C   0  0  0  0  0  2  0  0  0  0  0  0
  193.3610  172.3550  136.4040 C   0  0  0  0  0  2  0  0  0  0  0  0
  194.4880  175.9030  137.2830 O   0  0  0  0  0  0  0  0  0  0  0  0
  194.1650  176.7010  136.1510 C   0  0  0  0  0  2  0  0  0  0  0  0
  195.7050  178.2750  135.1070 N   0  0  0  0  0  1  0  0  0  0  0  0
  195.3870  176.8650  135.2620 C   0  0  0  0  0  2  0  0  0  0  0  0
  1  3  2  0  0  0  0
  2  5  1  1  0  0  0
  2 41  1  0  0  0  0
  2  8  1  0  0  0  0
  3  7  1  0  0  0  0
  4  5  1  0  0  0  0
  4 10  1  0  0  0  0
  6  9  2  0  0  0  0
  7 13  1  1  0  0  0
  8  1  1  6  0  0  0
  8  6  1  0  0  0  0
  9 12  1  0  0  0  0
 10  6  1  0  0  0  0
 11  3  1  0  0  0  0
 12  7  1  0  0  0  0
 13 16  1  0  0  0  0
 13 15  2  0  0  0  0
 14 13  2  0  0  0  0
 16 19  1  0  0  0  0
 17 22  1  0  0  0  0
 18 17  1  0  0  0  0
 18 20  2  0  0  0  0
 19 18  1  0  0  0  0
 22 21  1  0  0  0  0
 23 17  1  1  0  0  0
 23 33  1  0  0  0  0
 24 29  1  0  0  0  0
 25 32  1  6  0  0  0
 25 24  1  0  0  0  0
 25 28  1  0  0  0  0
 26 27  1  0  0  0  0
 26 23  1  0  0  0  0
 28 26  2  0  0  0  0
 29 27  1  0  0  0  0
 30 32  1  0  0  0  0
 32 31  2  0  0  0  0
 33 34  1  6  0  0  0
 33 37  1  0  0  0  0
 36 37  1  0  0  0  0
 37 35  1  0  0  0  0
 37 38  1  0  0  0  0
 39 42  1  6  0  0  0
 39 40  1  0  0  0  0
 39 41  1  0  0  0  0
 41 40  1  6  0  0  0
 44 43  1  1  0  0  0
 44 45  1  0  0  0  0
 44 42  1  0  0  0  0
 45 47  1  0  0  0  0
 46 48  2  0  0  0  0
 48 49  1  0  0  0  0
 48 47  1  0  0  0  0
 49 50  1  0  0  0  0
 51 50  1  0  0  0  0
 51 52  1  0  0  0  0
 53 52  1  1  0  0  0
 53 58  1  0  0  0  0
 53 54  1  0  0  0  0
 54 59  1  0  0  0  0
 54 55  2  0  0  0  0
 55 57  1  0  0  0  0
 56 57  1  0  0  0  0
 58 56  1  0  0  0  0
 60 59  1  0  0  0  0
 61 62  1  0  0  0  0
 62 60  1  0  0  0  0
M  END
>  <MODEL>
8

>  <REMARK>
 VINA RESULT:      -4.5      3.933     10.999
  Name = 
  21 active torsions:
  status: ('A' for Active; 'I' for Inactive)
    1  A    between atoms: N_1  and  C_35
    2  A    between atoms: N_1  and  C_62
    3  A    between atoms: C_3  and  N_20
    4  A    between atoms: C_3  and  S_30
    5  A    between atoms: N_4  and  C_29
    6  A    between atoms: C_6  and  O_41
    7  A    between atoms: C_14  and  C_23
    8  A    between atoms: C_15  and  C_62
    9  A    between atoms: C_19  and  C_37
   10  A    between atoms: C_21  and  O_22
   11  A    between atoms: O_22  and  C_53
   12  A    between atoms: C_24  and  S_30
   13  A    between atoms: N_27  and  N_54
   14  A    between atoms: C_37  and  C_38
   15  A    between atoms: C_38  and  N_54
   16  A    between atoms: O_41  and  C_45
   17  A    between atoms: N_42  and  C_43
   18  A    between atoms: C_43  and  C_45
   19  A    between atoms: C_51  and  C_59
   20  A    between atoms: C_51  and  C_62
   21  A    between atoms: C_53  and  C_56
                            x       y       z     vdW  Elec       q    Type
                         _______ _______ _______ _____ _____    ______ ____

>  <TORSDO>
F 21

$$$$
=
 OpenBabel11062416373D

 62 66  0  0  1  0  0  0  0  0999 V2000
  188.6870  177.3380  140.3510 C   0  0  0  0  0  3  0  0  0  0  0  0
  189.7610  177.0630  142.5330 N   0  0  1  0  0  0  0  0  0  0  0  0
  188.4600  177.0190  139.0780 C   0  0  0  0  0  0  0  0  0  0  0  0
  191.9860  177.8460  142.8410 N   0  0  0  0  0  2  0  0  0  0  0  0
  191.0420  176.7950  143.1910 C   0  0  0  0  0  2  0  0  0  0  0  0
  191.2050  177.4310  140.5270 C   0  0  0  0  0  0  0  0  0  0  0  0
  189.5140  176.2460  138.3270 C   0  0  2  0  0  3  0  0  0  0  0  0
  189.9070  176.8450  141.0820 C   0  0  2  0  0  3  0  0  0  0  0  0
  191.5090  177.4560  139.2560 N   0  0  0  0  0  0  0  0  0  0  0  0
  192.2390  177.7560  141.4620 N   0  0  0  0  0  2  0  0  0  0  0  0
  187.2200  177.5410  138.4260 C   0  0  0  0  0  1  0  0  0  0  0  0
  190.6880  177.1770  138.0690 C   0  0  0  0  0  2  0  0  0  0  0  0
  188.9440  175.5270  136.7900 S   0  0  0  0  0  0  0  0  0  0  0  0
  189.1280  174.0350  136.8130 O   0  0  0  0  0  0  0  0  0  0  0  0
  187.4850  175.8400  136.6130 O   0  0  0  0  0  0  0  0  0  0  0  0
  189.8510  176.2300  135.4300 C   0  0  0  0  0  2  0  0  0  0  0  0
  192.9790  174.0540  134.9550 N   0  0  0  0  0  0  0  0  0  0  0  0
  191.5950  174.4630  134.9790 C   0  0  0  0  0  0  0  0  0  0  0  0
  191.2260  175.7560  135.4600 N   0  0  0  0  0  2  0  0  0  0  0  0
  190.6970  173.6640  134.5940 O   0  0  0  0  0  0  0  0  0  0  0  0
  192.5510  171.7390  135.6300 C   0  0  0  0  0  1  0  0  0  0  0  0
  193.3120  172.6570  134.6880 C   0  0  0  0  0  2  0  0  0  0  0  0
  194.1050  174.9330  135.3110 C   0  0  2  0  0  3  0  0  0  0  0  0
  198.0790  173.2840  135.7480 C   0  0  0  0  0  2  0  0  0  0  0  0
  196.8960  172.3150  135.7800 C   0  0  2  0  0  3  0  0  0  0  0  0
  195.4480  174.2620  135.2680 C   0  0  0  0  0  0  0  0  0  0  0  0
  196.5930  174.9260  134.7150 N   0  0  0  0  0  2  0  0  0  0  0  0
  195.5820  173.0470  135.8120 C   0  0  0  0  0  3  0  0  0  0  0  0
  197.8880  174.2590  134.5940 C   0  0  0  0  0  2  0  0  0  0  0  0
  195.8990  171.2800  137.9180 C   0  0  0  0  0  1  0  0  0  0  0  0
  198.0020  170.6720  137.0760 O   0  0  0  0  0  0  0  0  0  0  0  0
  197.0090  171.3670  136.9310 C   0  0  0  0  0  0  0  0  0  0  0  0
  193.8850  175.8150  136.5540 C   0  0  2  0  0  3  0  0  0  0  0  0
  194.5170  177.0400  136.4520 F   0  0  0  0  0  0  0  0  0  0  0  0
  193.8930  175.9370  138.9390 F   0  0  0  0  0  0  0  0  0  0  0  0
  193.5460  173.9220  137.9750 F   0  0  0  0  0  0  0  0  0  0  0  0
  194.2260  175.1230  137.8710 C   0  0  0  0  0  0  0  0  0  0  0  0
  195.5860  174.8680  137.9070 F   0  0  0  0  0  0  0  0  0  0  0  0
  187.6980  176.6990  143.9020 C   0  0  2  0  0  3  0  0  0  0  0  0
  188.8610  175.9930  144.5640 C   0  0  0  0  0  2  0  0  0  0  0  0
  188.8110  176.0700  143.0450 C   0  0  2  0  0  3  0  0  0  0  0  0
  187.8440  178.1990  144.1390 C   0  0  0  0  0  2  0  0  0  0  0  0
  187.8000  178.2160  146.6250 C   0  0  0  0  0  1  0  0  0  0  0  0
  187.0540  178.6230  145.3660 C   0  0  2  0  0  3  0  0  0  0  0  0
  185.7520  177.9750  145.3490 N   0  0  0  0  0  2  0  0  0  0  0  0
  184.0000  179.9710  144.4860 O   0  0  0  0  0  0  0  0  0  0  0  0
  185.2640  178.0640  144.0370 N   0  0  0  0  0  2  0  0  0  0  0  0
  184.3970  179.1250  143.6390 C   0  0  0  0  0  0  0  0  0  0  0  0
  183.9760  179.2360  142.2820 N   0  0  0  0  0  2  0  0  0  0  0  0
  184.5300  178.3950  141.2360 C   0  0  0  0  0  2  0  0  0  0  0  0
  184.2350  179.0020  139.8790 C   0  0  0  0  0  2  0  0  0  0  0  0
  183.7900  178.0040  139.0020 O   0  0  0  0  0  0  0  0  0  0  0  0
  183.1050  178.6870  137.9940 C   0  0  1  0  0  3  0  0  0  0  0  0
  182.6160  177.7150  136.9410 C   0  0  0  0  0  0  0  0  0  0  0  0
  181.3960  177.7700  136.4770 N   0  0  0  0  0  0  0  0  0  0  0  0
  180.9750  179.9280  137.5650 C   0  0  0  0  0  2  0  0  0  0  0  0
  180.3590  178.6700  136.9800 C   0  0  0  0  0  2  0  0  0  0  0  0
  181.9820  179.5080  138.6210 C   0  0  0  0  0  2  0  0  0  0  0  0
  183.5290  176.7930  136.4150 O   0  0  0  0  0  0  0  0  0  0  0  0
  183.1420  175.7740  135.5020 C   0  0  0  0  0  2  0  0  0  0  0  0
  183.9330  174.5310  137.4420 N   0  0  0  0  0  1  0  0  0  0  0  0
  183.2550  174.4100  136.1620 C   0  0  0  0  0  2  0  0  0  0  0  0
  2 41  1  0  0  0  0
  2  5  1  1  0  0  0
  3  1  2  0  0  0  0
  4  5  1  0  0  0  0
  6  8  1  0  0  0  0
  6 10  1  0  0  0  0
  7 13  1  6  0  0  0
  7  3  1  0  0  0  0
  8  1  1  6  0  0  0
  8  2  1  0  0  0  0
  9  6  2  0  0  0  0
 10  4  1  0  0  0  0
 11  3  1  0  0  0  0
 12  7  1  0  0  0  0
 12  9  1  0  0  0  0
 13 14  2  0  0  0  0
 15 13  2  0  0  0  0
 16 19  1  0  0  0  0
 16 13  1  0  0  0  0
 17 18  1  0  0  0  0
 18 19  1  0  0  0  0
 20 18  2  0  0  0  0
 22 17  1  0  0  0  0
 22 21  1  0  0  0  0
 23 17  1  1  0  0  0
 23 33  1  0  0  0  0
 24 25  1  0  0  0  0
 25 28  1  0  0  0  0
 25 32  1  1  0  0  0
 26 23  1  0  0  0  0
 26 28  2  0  0  0  0
 27 26  1  0  0  0  0
 29 27  1  0  0  0  0
 29 24  1  0  0  0  0
 32 31  2  0  0  0  0
 32 30  1  0  0  0  0
 33 34  1  6  0  0  0
 33 37  1  0  0  0  0
 37 38  1  0  0  0  0
 37 36  1  0  0  0  0
 37 35  1  0  0  0  0
 39 42  1  1  0  0  0
 39 40  1  0  0  0  0
 41 39  1  0  0  0  0
 41 40  1  1  0  0  0
 42 44  1  0  0  0  0
 44 43  1  1  0  0  0
 45 44  1  0  0  0  0
 47 45  1  0  0  0  0
 48 47  1  0  0  0  0
 48 46  2  0  0  0  0
 49 48  1  0  0  0  0
 50 49  1  0  0  0  0
 51 50  1  0  0  0  0
 52 51  1  0  0  0  0
 53 58  1  0  0  0  0
 53 52  1  1  0  0  0
 54 53  1  0  0  0  0
 55 54  2  0  0  0  0
 55 57  1  0  0  0  0
 56 58  1  0  0  0  0
 57 56  1  0  0  0  0
 59 54  1  0  0  0  0
 60 62  1  0  0  0  0
 60 59  1  0  0  0  0
 62 61  1  0  0  0  0
M  END
>  <MODEL>
9

>  <REMARK>
 VINA RESULT:      -4.0      3.878      6.879
  Name = 
  21 active torsions:
  status: ('A' for Active; 'I' for Inactive)
    1  A    between atoms: N_1  and  C_35
    2  A    between atoms: N_1  and  C_62
    3  A    between atoms: C_3  and  N_20
    4  A    between atoms: C_3  and  S_30
    5  A    between atoms: N_4  and  C_29
    6  A    between atoms: C_6  and  O_41
    7  A    between atoms: C_14  and  C_23
    8  A    between atoms: C_15  and  C_62
    9  A    between atoms: C_19  and  C_37
   10  A    between atoms: C_21  and  O_22
   11  A    between atoms: O_22  and  C_53
   12  A    between atoms: C_24  and  S_30
   13  A    between atoms: N_27  and  N_54
   14  A    between atoms: C_37  and  C_38
   15  A    between atoms: C_38  and  N_54
   16  A    between atoms: O_41  and  C_45
   17  A    between atoms: N_42  and  C_43
   18  A    between atoms: C_43  and  C_45
   19  A    between atoms: C_51  and  C_59
   20  A    between atoms: C_51  and  C_62
   21  A    between atoms: C_53  and  C_56
                            x       y       z     vdW  Elec       q    Type
                         _______ _______ _______ _____ _____    ______ ____

>  <TORSDO>
F 21

$$$$
