=
 OpenBabel11062417423D

 39 43  0  0  1  0  0  0  0  0999 V2000
  181.3810  176.4200  138.7510 C   0  0  0  0  0  0  0  0  0  0  0  0
  182.7690  176.1380  136.4290 S   0  0  0  0  0  0  0  0  0  0  0  0
  182.9240  173.3070  136.0900 C   0  0  0  0  0  2  0  0  0  0  0  0
  179.5580  175.0440  139.3980 C   0  0  0  0  0  2  0  0  0  0  0  0
  188.2820  175.9190  136.2640 C   0  0  1  0  0  3  0  0  0  0  0  0
  180.5590  177.5200  139.8900 S   0  0  0  0  0  0  0  0  0  0  0  0
  184.8040  178.0180  140.4840 O   0  0  0  0  0  1  0  0  0  0  0  0
  188.0000  175.8870  137.7730 C   0  0  0  0  0  2  0  0  0  0  0  0
  185.0070  172.0140  135.7130 C   0  0  0  0  0  2  0  0  0  0  0  0
  180.7800  175.2490  138.5840 C   0  0  0  0  0  0  0  0  0  0  0  0
  189.0950  174.6890  135.8150 C   0  0  2  0  0  3  0  0  0  0  0  0
  184.3100  172.6290  137.9120 O   0  0  0  0  0  1  0  0  0  0  0  0
  187.2350  177.1050  138.2740 C   0  0  0  0  0  2  0  0  0  0  0  0
  187.2430  172.9780  135.6230 N   0  0  0  0  0  2  0  0  0  0  0  0
  182.7440  176.6790  138.1720 C   0  0  1  0  0  3  0  0  0  0  0  0
  184.3420  173.0680  136.5870 C   0  0  2  0  0  3  0  0  0  0  0  0
  183.0940  178.0900  138.2500 N   0  0  0  0  0  2  0  0  0  0  0  0
  188.4580  173.3900  136.2530 C   0  0  0  0  0  0  0  0  0  0  0  0
  186.4690  171.8380  136.0880 C   0  0  0  0  0  2  0  0  0  0  0  0
  185.7540  176.8950  138.0290 C   0  0  0  0  0  2  0  0  0  0  0  0
  182.2810  174.4430  136.8150 C   0  0  0  0  0  0  0  0  0  0  0  0
  185.3130  179.5560  138.4300 O   0  0  0  0  0  0  0  0  0  0  0  0
  179.6000  176.0940  140.5010 C   0  0  0  0  0  2  0  0  0  0  0  0
  181.3380  174.1870  137.7290 C   0  0  0  0  0  3  0  0  0  0  0  0
  188.8510  172.8060  137.3420 N   0  0  0  0  0  2  0  0  0  0  0  0
  184.7560  178.2000  138.8030 P   0  0  2  0  0  0  0  0  0  0  0  0
  193.7540  173.3930  135.1270 C   0  0  0  0  0  2  0  0  0  0  0  0
  193.6080  176.4350  135.4760 O   0  0  0  0  0  0  0  0  0  0  0  0
  192.6340  174.2500  135.5570 C   0  0  2  0  0  0  0  0  0  0  0  0
  191.3500  173.7190  135.7140 O   0  0  0  0  0  0  0  0  0  0  0  0
  192.6350  175.7110  135.6170 C   0  0  0  0  0  0  0  0  0  0  0  0
  191.2640  176.1600  135.8690 C   0  0  2  0  0  3  0  0  0  0  0  0
  190.5800  174.8080  136.2080 C   0  0  1  0  0  3  0  0  0  0  0  0
  190.7250  176.7960  134.5940 C   0  0  0  0  0  1  0  0  0  0  0  0
  193.5240  173.6900  136.4880 O   0  0  0  0  0  0  0  0  0  0  0  0
  187.0040  176.0420  135.4340 C   0  0  0  0  0  2  0  0  0  0  0  0
  185.6390  177.8050  134.5940 O   0  0  0  0  0  0  0  0  0  0  0  0
  187.7920  178.3850  135.1230 O   0  0  0  0  0  1  0  0  0  0  0  0
  186.7700  177.4520  135.0160 C   0  0  0  0  0  0  0  0  0  0  0  0
  1  6  1  0  0  0  0
  2 21  1  0  0  0  0
  3 16  1  0  0  0  0
  3 21  1  0  0  0  0
  4 23  1  0  0  0  0
  5 36  1  6  0  0  0
  5  8  1  0  0  0  0
  6 23  1  0  0  0  0
  8 13  1  0  0  0  0
  9 19  1  0  0  0  0
  9 16  1  0  0  0  0
 10  1  2  0  0  0  0
 10  4  1  0  0  0  0
 11 33  1  0  0  0  0
 11 18  1  1  0  0  0
 11  5  1  0  0  0  0
 14 19  1  0  0  0  0
 14 18  1  0  0  0  0
 15  2  1  6  0  0  0
 15 17  1  0  0  0  0
 15  1  1  0  0  0  0
 16 12  1  1  0  0  0
 17 26  1  0  0  0  0
 18 25  2  0  0  0  0
 20 13  1  0  0  0  0
 20 26  1  0  0  0  0
 21 24  2  0  0  0  0
 24 10  1  0  0  0  0
 26 22  2  6  0  0  0
 26  7  1  0  0  0  0
 27 35  1  0  0  0  0
 28 31  2  0  0  0  0
 29 27  1  6  0  0  0
 29 31  1  0  0  0  0
 29 30  1  0  0  0  0
 29 35  1  0  0  0  0
 31 32  1  0  0  0  0
 32 34  1  6  0  0  0
 32 33  1  0  0  0  0
 33 30  1  6  0  0  0
 37 39  2  0  0  0  0
 39 38  1  0  0  0  0
 39 36  1  0  0  0  0
M  END
>  <MODEL>
1

>  <REMARK>
 VINA RESULT:      -4.0      0.000      0.000
  Name = 
  3 active torsions:
  status: ('A' for Active; 'I' for Inactive)
    1  A    between atoms: C_6  and  C_7
    2  A    between atoms: C_6  and  C_30
    3  A    between atoms: C_16  and  C_31
                            x       y       z     vdW  Elec       q    Type
                         _______ _______ _______ _____ _____    ______ ____

>  <TORSDO>
F 3

$$$$
=
 OpenBabel11062417423D

 39 43  0  0  1  0  0  0  0  0999 V2000
  183.6780  178.7400  141.3550 C   0  0  0  0  0  0  0  0  0  0  0  0
  184.7650  178.9920  138.8750 S   0  0  0  0  0  0  0  0  0  0  0  0
  183.4190  176.9850  137.3550 C   0  0  0  0  0  2  0  0  0  0  0  0
  181.3900  178.2660  141.7740 C   0  0  0  0  0  2  0  0  0  0  0  0
  189.3450  176.3180  137.3440 C   0  0  1  0  0  3  0  0  0  0  0  0
  183.5310  179.3930  143.0090 S   0  0  0  0  0  0  0  0  0  0  0  0
  187.3900  177.4820  142.7420 O   0  0  0  0  0  1  0  0  0  0  0  0
  189.0530  175.7030  138.7200 C   0  0  0  0  0  2  0  0  0  0  0  0
  184.5210  175.2300  135.9920 C   0  0  0  0  0  2  0  0  0  0  0  0
  182.5560  178.2340  140.8600 C   0  0  0  0  0  0  0  0  0  0  0  0
  189.4010  175.2400  136.2430 C   0  0  2  0  0  3  0  0  0  0  0  0
  184.2000  174.9570  138.3430 O   0  0  0  0  0  1  0  0  0  0  0  0
  189.0290  176.7240  139.8490 C   0  0  0  0  0  2  0  0  0  0  0  0
  186.9320  174.9350  135.7930 N   0  0  0  0  0  2  0  0  0  0  0  0
  184.9870  178.5680  140.6360 C   0  0  1  0  0  3  0  0  0  0  0  0
  184.4890  175.9030  137.3570 C   0  0  2  0  0  3  0  0  0  0  0  0
  186.0240  179.4110  141.2140 N   0  0  0  0  0  2  0  0  0  0  0  0
  188.1670  174.3670  136.2330 C   0  0  0  0  0  0  0  0  0  0  0  0
  185.6640  174.2320  135.9050 C   0  0  0  0  0  2  0  0  0  0  0  0
  187.6650  177.3820  139.8950 C   0  0  0  0  0  2  0  0  0  0  0  0
  183.4510  177.7810  138.6180 C   0  0  0  0  0  0  0  0  0  0  0  0
  188.6770  179.3680  141.4660 O   0  0  0  0  0  0  0  0  0  0  0  0
  181.9510  178.4950  143.1720 C   0  0  0  0  0  2  0  0  0  0  0  0
  182.4940  177.5960  139.5330 C   0  0  0  0  0  3  0  0  0  0  0  0
  188.1700  173.2280  136.8500 N   0  0  0  0  0  2  0  0  0  0  0  0
  187.4840  178.4460  141.3550 P   0  0  2  0  0  0  0  0  0  0  0  0
  192.1600  171.5620  134.5940 C   0  0  0  0  0  2  0  0  0  0  0  0
  193.8930  174.0800  134.8250 O   0  0  0  0  0  0  0  0  0  0  0  0
  191.8690  172.8640  135.2220 C   0  0  2  0  0  0  0  0  0  0  0  0
  190.5840  173.1610  135.6860 O   0  0  0  0  0  0  0  0  0  0  0  0
  192.7360  174.0410  135.2140 C   0  0  0  0  0  0  0  0  0  0  0  0
  191.9730  175.1750  135.7450 C   0  0  2  0  0  3  0  0  0  0  0  0
  190.7180  174.4420  136.2890 C   0  0  1  0  0  3  0  0  0  0  0  0
  191.6570  176.1220  134.5940 C   0  0  0  0  0  1  0  0  0  0  0  0
  192.4340  171.8080  135.9570 O   0  0  0  0  0  0  0  0  0  0  0  0
  188.3410  177.4080  136.9680 C   0  0  0  0  0  2  0  0  0  0  0  0
  189.6040  178.7870  135.4900 O   0  0  0  0  0  0  0  0  0  0  0  0
  189.0290  179.7450  137.4910 O   0  0  0  0  0  1  0  0  0  0  0  0
  189.0360  178.6750  136.6070 C   0  0  0  0  0  0  0  0  0  0  0  0
  1  6  1  0  0  0  0
  3 16  1  0  0  0  0
  3 21  1  0  0  0  0
  4 23  1  0  0  0  0
  5 36  1  6  0  0  0
  5  8  1  0  0  0  0
  6 23  1  0  0  0  0
  8 13  1  0  0  0  0
  9 16  1  0  0  0  0
 10  1  2  0  0  0  0
 10  4  1  0  0  0  0
 11 18  1  1  0  0  0
 11 33  1  0  0  0  0
 11  5  1  0  0  0  0
 13 20  1  0  0  0  0
 14 19  1  0  0  0  0
 14 18  1  0  0  0  0
 15  2  1  6  0  0  0
 15 17  1  0  0  0  0
 15  1  1  0  0  0  0
 16 12  1  1  0  0  0
 17 26  1  0  0  0  0
 18 25  2  0  0  0  0
 19  9  1  0  0  0  0
 20 26  1  0  0  0  0
 21  2  1  0  0  0  0
 21 24  2  0  0  0  0
 24 10  1  0  0  0  0
 26 22  2  1  0  0  0
 26  7  1  0  0  0  0
 27 35  1  0  0  0  0
 28 31  2  0  0  0  0
 29 27  1  6  0  0  0
 29 30  1  0  0  0  0
 29 35  1  0  0  0  0
 31 29  1  0  0  0  0
 31 32  1  0  0  0  0
 32 34  1  6  0  0  0
 32 33  1  0  0  0  0
 33 30  1  6  0  0  0
 37 39  2  0  0  0  0
 39 36  1  0  0  0  0
 39 38  1  0  0  0  0
M  END
>  <MODEL>
2

>  <REMARK>
 VINA RESULT:      -3.8      2.541      3.056
  Name = 
  3 active torsions:
  status: ('A' for Active; 'I' for Inactive)
    1  A    between atoms: C_6  and  C_7
    2  A    between atoms: C_6  and  C_30
    3  A    between atoms: C_16  and  C_31
                            x       y       z     vdW  Elec       q    Type
                         _______ _______ _______ _____ _____    ______ ____

>  <TORSDO>
F 3

$$$$
=
 OpenBabel11062417423D

 39 43  0  0  1  0  0  0  0  0999 V2000
  181.5940  175.0530  137.4860 C   0  0  0  0  0  0  0  0  0  0  0  0
  183.5030  175.5700  135.6180 S   0  0  0  0  0  0  0  0  0  0  0  0
  184.7400  173.0290  135.2150 C   0  0  0  0  0  2  0  0  0  0  0  0
  180.2900  173.0720  137.5560 C   0  0  0  0  0  2  0  0  0  0  0  0
  188.5950  177.2360  136.9470 C   0  0  1  0  0  3  0  0  0  0  0  0
  180.1860  175.6490  138.4060 S   0  0  0  0  0  0  0  0  0  0  0  0
  183.6950  177.4550  140.1500 O   0  0  0  0  0  1  0  0  0  0  0  0
  187.9910  176.9070  138.3200 C   0  0  0  0  0  2  0  0  0  0  0  0
  187.1740  172.5730  135.3630 C   0  0  0  0  0  2  0  0  0  0  0  0
  181.5120  173.7830  137.1140 C   0  0  0  0  0  0  0  0  0  0  0  0
  189.8770  176.4230  136.6830 C   0  0  2  0  0  3  0  0  0  0  0  0
  185.7990  172.6140  137.3140 O   0  0  0  0  0  1  0  0  0  0  0  0
  186.7440  177.7180  138.6450 C   0  0  0  0  0  2  0  0  0  0  0  0
  188.8670  174.2330  135.9240 N   0  0  0  0  0  2  0  0  0  0  0  0
  182.8700  175.8300  137.3100 C   0  0  1  0  0  3  0  0  0  0  0  0
  185.9870  173.2140  136.0680 C   0  0  2  0  0  3  0  0  0  0  0  0
  182.6600  177.2520  137.5400 N   0  0  0  0  0  2  0  0  0  0  0  0
  189.6650  174.9390  136.8770 C   0  0  0  0  0  0  0  0  0  0  0  0
  188.4660  172.8470  136.1130 C   0  0  0  0  0  2  0  0  0  0  0  0
  185.5420  177.0590  137.9990 C   0  0  0  0  0  2  0  0  0  0  0  0
  183.5790  173.7740  135.7860 C   0  0  0  0  0  0  0  0  0  0  0  0
  184.0930  179.3380  138.3780 O   0  0  0  0  0  0  0  0  0  0  0  0
  179.6870  173.9150  138.6720 C   0  0  0  0  0  2  0  0  0  0  0  0
  182.6020  173.0950  136.3980 C   0  0  0  0  0  3  0  0  0  0  0  0
  189.9690  174.3790  138.0060 N   0  0  0  0  0  2  0  0  0  0  0  0
  183.9880  177.8370  138.5280 P   0  0  2  0  0  0  0  0  0  0  0  0
  192.4570  176.6650  140.8240 C   0  0  0  0  0  2  0  0  0  0  0  0
  194.3880  176.3290  138.4670 O   0  0  0  0  0  0  0  0  0  0  0  0
  192.2110  176.7450  139.3730 C   0  0  2  0  0  0  0  0  0  0  0  0
  190.9080  176.8380  138.8740 O   0  0  0  0  0  0  0  0  0  0  0  0
  193.1870  176.4910  138.3140 C   0  0  0  0  0  0  0  0  0  0  0  0
  192.4750  176.4530  137.0340 C   0  0  2  0  0  3  0  0  0  0  0  0
  191.0810  176.9780  137.4700 C   0  0  1  0  0  3  0  0  0  0  0  0
  192.4410  175.0100  136.5460 C   0  0  0  0  0  1  0  0  0  0  0  0
  192.5430  177.8860  140.1210 O   0  0  0  0  0  0  0  0  0  0  0  0
  187.5960  177.0350  135.8070 C   0  0  0  0  0  2  0  0  0  0  0  0
  187.4440  179.4130  135.8180 O   0  0  0  0  0  1  0  0  0  0  0  0
  185.8330  178.3230  134.6050 O   0  0  0  0  0  0  0  0  0  0  0  0
  186.9540  178.3230  135.4240 C   0  0  0  0  0  0  0  0  0  0  0  0
  1  6  1  0  0  0  0
  2 21  1  0  0  0  0
  3 21  1  0  0  0  0
  3 16  1  0  0  0  0
  4 23  1  0  0  0  0
  5 36  1  6  0  0  0
  5  8  1  0  0  0  0
  6 23  1  0  0  0  0
  8 13  1  0  0  0  0
  9 16  1  0  0  0  0
  9 19  1  0  0  0  0
 10  1  2  0  0  0  0
 10  4  1  0  0  0  0
 11 18  1  1  0  0  0
 11  5  1  0  0  0  0
 11 33  1  0  0  0  0
 14 19  1  0  0  0  0
 14 18  1  0  0  0  0
 15  2  1  6  0  0  0
 15  1  1  0  0  0  0
 15 17  1  0  0  0  0
 16 12  1  1  0  0  0
 17 26  1  0  0  0  0
 18 25  2  0  0  0  0
 20 26  1  0  0  0  0
 20 13  1  0  0  0  0
 21 24  2  0  0  0  0
 24 10  1  0  0  0  0
 26 22  2  6  0  0  0
 26  7  1  0  0  0  0
 29 35  1  0  0  0  0
 29 27  1  1  0  0  0
 30 29  1  0  0  0  0
 31 28  2  0  0  0  0
 31 29  1  0  0  0  0
 32 34  1  1  0  0  0
 32 33  1  0  0  0  0
 32 31  1  0  0  0  0
 33 30  1  1  0  0  0
 35 27  1  0  0  0  0
 38 39  2  0  0  0  0
 39 36  1  0  0  0  0
 39 37  1  0  0  0  0
M  END
>  <MODEL>
3

>  <REMARK>
 VINA RESULT:      -2.0      2.010      2.563
  Name = 
  3 active torsions:
  status: ('A' for Active; 'I' for Inactive)
    1  A    between atoms: C_6  and  C_7
    2  A    between atoms: C_6  and  C_30
    3  A    between atoms: C_16  and  C_31
                            x       y       z     vdW  Elec       q    Type
                         _______ _______ _______ _____ _____    ______ ____

>  <TORSDO>
F 3

$$$$
=
 OpenBabel11062417423D

 39 43  0  0  1  0  0  0  0  0999 V2000
  188.6740  177.4710  145.0140 C   0  0  0  0  0  0  0  0  0  0  0  0
  187.2070  176.2550  143.0730 S   0  0  0  0  0  0  0  0  0  0  0  0
  188.5300  177.0240  140.6630 C   0  0  0  0  0  2  0  0  0  0  0  0
  191.0370  177.6850  144.9720 C   0  0  0  0  0  2  0  0  0  0  0  0
  182.7840  178.6150  140.7630 C   0  0  1  0  0  3  0  0  0  0  0  0
  188.9910  177.6740  146.7580 S   0  0  0  0  0  0  0  0  0  0  0  0
  185.3780  179.8570  145.8660 O   0  0  0  0  0  1  0  0  0  0  0  0
  183.3460  179.7530  141.6280 C   0  0  0  0  0  2  0  0  0  0  0  0
  187.4440  178.0750  138.6960 C   0  0  0  0  0  2  0  0  0  0  0  0
  189.7590  177.4760  144.2520 C   0  0  0  0  0  0  0  0  0  0  0  0
  182.6870  179.0260  139.2810 C   0  0  2  0  0  3  0  0  0  0  0  0
  188.1410  179.3780  140.5710 O   0  0  0  0  0  1  0  0  0  0  0  0
  183.4220  179.4090  143.1100 C   0  0  0  0  0  2  0  0  0  0  0  0
  185.0790  178.6480  138.5570 N   0  0  0  0  0  2  0  0  0  0  0  0
  187.3000  177.5010  144.4040 C   0  0  1  0  0  3  0  0  0  0  0  0
  187.6030  178.1420  140.2090 C   0  0  2  0  0  3  0  0  0  0  0  0
  186.2720  177.2290  145.3990 N   0  0  0  0  0  2  0  0  0  0  0  0
  183.9960  179.5610  138.7480 C   0  0  0  0  0  0  0  0  0  0  0  0
  186.4220  179.0890  138.2110 C   0  0  0  0  0  2  0  0  0  0  0  0
  184.6940  178.6290  143.3740 C   0  0  0  0  0  2  0  0  0  0  0  0
  188.5970  176.9490  142.1530 C   0  0  0  0  0  0  0  0  0  0  0  0
  183.7080  177.8450  145.7930 O   0  0  0  0  0  0  0  0  0  0  0  0
  190.6690  178.2530  146.3370 C   0  0  0  0  0  2  0  0  0  0  0  0
  189.6950  177.3810  142.7820 C   0  0  0  0  0  3  0  0  0  0  0  0
  184.2150  180.8380  138.7180 N   0  0  0  0  0  2  0  0  0  0  0  0
  184.9690  178.3800  145.1510 P   0  0  2  0  0  0  0  0  0  0  0  0
  180.8750  183.0900  137.2670 C   0  0  0  0  0  2  0  0  0  0  0  0
  178.9340  180.7740  136.7520 O   0  0  0  0  0  0  0  0  0  0  0  0
  180.8500  181.7270  137.8260 C   0  0  2  0  0  0  0  0  0  0  0  0
  181.9090  181.2580  138.6090 O   0  0  0  0  0  0  0  0  0  0  0  0
  179.9240  180.6570  137.4580 C   0  0  0  0  0  0  0  0  0  0  0  0
  180.3920  179.4130  138.0750 C   0  0  2  0  0  3  0  0  0  0  0  0
  181.4910  179.9630  139.0230 C   0  0  1  0  0  3  0  0  0  0  0  0
  180.9490  178.5130  136.9780 C   0  0  0  0  0  1  0  0  0  0  0  0
  180.1890  182.7890  138.4640 O   0  0  0  0  0  0  0  0  0  0  0  0
  183.5900  177.3230  140.9040 C   0  0  0  0  0  2  0  0  0  0  0  0
  181.9280  175.7500  140.2390 O   0  0  0  0  0  1  0  0  0  0  0  0
  183.7880  175.8500  138.9030 O   0  0  0  0  0  0  0  0  0  0  0  0
  183.0560  176.2590  140.0100 C   0  0  0  0  0  0  0  0  0  0  0  0
  1  6  1  0  0  0  0
  3 21  1  0  0  0  0
  4 23  1  0  0  0  0
  5 36  1  6  0  0  0
  5  8  1  0  0  0  0
  8 13  1  0  0  0  0
  9 16  1  0  0  0  0
 10  4  1  0  0  0  0
 10  1  2  0  0  0  0
 11 18  1  1  0  0  0
 11  5  1  0  0  0  0
 13 20  1  0  0  0  0
 14 18  1  0  0  0  0
 15  2  1  6  0  0  0
 15  1  1  0  0  0  0
 15 17  1  0  0  0  0
 16 12  1  6  0  0  0
 16  3  1  0  0  0  0
 19 14  1  0  0  0  0
 19  9  1  0  0  0  0
 20 26  1  0  0  0  0
 21 24  2  0  0  0  0
 21  2  1  0  0  0  0
 23  6  1  0  0  0  0
 24 10  1  0  0  0  0
 25 18  2  0  0  0  0
 26 17  1  0  0  0  0
 26 22  2  1  0  0  0
 26  7  1  0  0  0  0
 27 35  1  0  0  0  0
 28 31  2  0  0  0  0
 29 27  1  6  0  0  0
 29 35  1  0  0  0  0
 29 30  1  0  0  0  0
 31 29  1  0  0  0  0
 31 32  1  0  0  0  0
 32 34  1  6  0  0  0
 32 33  1  0  0  0  0
 33 30  1  6  0  0  0
 33 11  1  0  0  0  0
 38 39  2  0  0  0  0
 39 37  1  0  0  0  0
 39 36  1  0  0  0  0
M  END
>  <MODEL>
4

>  <REMARK>
 VINA RESULT:      -2.0      5.333      9.792
  Name = 
  3 active torsions:
  status: ('A' for Active; 'I' for Inactive)
    1  A    between atoms: C_6  and  C_7
    2  A    between atoms: C_6  and  C_30
    3  A    between atoms: C_16  and  C_31
                            x       y       z     vdW  Elec       q    Type
                         _______ _______ _______ _____ _____    ______ ____

>  <TORSDO>
F 3

$$$$
=
 OpenBabel11062417423D

 39 43  0  0  1  0  0  0  0  0999 V2000
  183.5710  178.8910  141.9250 C   0  0  0  0  0  0  0  0  0  0  0  0
  184.1550  179.4430  139.3270 S   0  0  0  0  0  0  0  0  0  0  0  0
  182.5050  177.6210  137.8760 C   0  0  0  0  0  2  0  0  0  0  0  0
  181.4020  178.3550  142.7270 C   0  0  0  0  0  2  0  0  0  0  0  0
  188.3020  177.0010  136.6230 C   0  0  1  0  0  3  0  0  0  0  0  0
  183.7610  179.3430  143.6410 S   0  0  0  0  0  0  0  0  0  0  0  0
  187.4610  177.5040  142.3980 O   0  0  0  0  0  1  0  0  0  0  0  0
  188.2750  176.2260  137.9480 C   0  0  0  0  0  2  0  0  0  0  0  0
  183.2900  176.0470  136.1270 C   0  0  0  0  0  2  0  0  0  0  0  0
  182.3660  178.4400  141.6040 C   0  0  0  0  0  0  0  0  0  0  0  0
  188.1240  176.0630  135.4140 C   0  0  2  0  0  3  0  0  0  0  0  0
  183.4310  175.4950  138.4460 O   0  0  0  0  0  1  0  0  0  0  0  0
  188.4900  177.1060  139.1710 C   0  0  0  0  0  2  0  0  0  0  0  0
  185.6100  175.7950  135.4240 N   0  0  0  0  0  2  0  0  0  0  0  0
  184.7110  178.8150  140.9480 C   0  0  1  0  0  3  0  0  0  0  0  0
  183.5360  176.5540  137.5410 C   0  0  2  0  0  3  0  0  0  0  0  0
  185.8540  179.5920  141.4060 N   0  0  0  0  0  2  0  0  0  0  0  0
  186.8980  175.1880  135.5430 C   0  0  0  0  0  0  0  0  0  0  0  0
  184.3770  175.0740  135.7000 C   0  0  0  0  0  2  0  0  0  0  0  0
  187.1720  177.7440  139.5610 C   0  0  0  0  0  2  0  0  0  0  0  0
  182.7970  178.2610  139.1920 C   0  0  0  0  0  0  0  0  0  0  0  0
  188.5050  179.5370  141.1250 O   0  0  0  0  0  0  0  0  0  0  0  0
  182.2290  178.4200  144.0040 C   0  0  0  0  0  2  0  0  0  0  0  0
  182.0340  177.9620  140.2490 C   0  0  0  0  0  3  0  0  0  0  0  0
  187.0030  173.9830  136.0100 N   0  0  0  0  0  2  0  0  0  0  0  0
  187.2970  178.6270  141.1430 P   0  0  2  0  0  0  0  0  0  0  0  0
  192.9670  175.5750  135.8200 C   0  0  0  0  0  2  0  0  0  0  0  0
  191.6460  172.8580  136.3420 O   0  0  0  0  0  0  0  0  0  0  0  0
  191.5720  175.1410  135.6230 C   0  0  2  0  0  0  0  0  0  0  0  0
  190.5780  176.0660  135.2910 O   0  0  0  0  0  0  0  0  0  0  0  0
  191.0130  173.8370  135.9780 C   0  0  0  0  0  0  0  0  0  0  0  0
  189.5570  173.9080  135.8300 C   0  0  2  0  0  3  0  0  0  0  0  0
  189.4110  175.2730  135.1060 C   0  0  1  0  0  3  0  0  0  0  0  0
  188.9320  173.9010  137.2190 C   0  0  0  0  0  1  0  0  0  0  0  0
  192.5210  175.0360  134.5940 O   0  0  0  0  0  0  0  0  0  0  0  0
  187.2620  178.1220  136.5820 C   0  0  0  0  0  2  0  0  0  0  0  0
  187.2600  180.5020  136.4680 O   0  0  0  0  0  0  0  0  0  0  0  0
  189.2050  179.5470  137.2170 O   0  0  0  0  0  1  0  0  0  0  0  0
  187.9050  179.4560  136.7390 C   0  0  0  0  0  0  0  0  0  0  0  0
  1  6  1  0  0  0  0
  3 21  1  0  0  0  0
  4 23  1  0  0  0  0
  5 36  1  1  0  0  0
  5  8  1  0  0  0  0
  6 23  1  0  0  0  0
  8 13  1  0  0  0  0
  9 16  1  0  0  0  0
 10  1  2  0  0  0  0
 10  4  1  0  0  0  0
 11 18  1  1  0  0  0
 11  5  1  0  0  0  0
 13 20  1  0  0  0  0
 14 18  1  0  0  0  0
 14 19  1  0  0  0  0
 15  2  1  6  0  0  0
 15 17  1  0  0  0  0
 15  1  1  0  0  0  0
 16  3  1  0  0  0  0
 16 12  1  1  0  0  0
 18 25  2  0  0  0  0
 19  9  1  0  0  0  0
 20 26  1  0  0  0  0
 21  2  1  0  0  0  0
 21 24  2  0  0  0  0
 24 10  1  0  0  0  0
 26 22  2  6  0  0  0
 26 17  1  0  0  0  0
 26  7  1  0  0  0  0
 29 27  1  1  0  0  0
 29 31  1  0  0  0  0
 30 29  1  0  0  0  0
 31 28  2  0  0  0  0
 32 31  1  0  0  0  0
 32 34  1  1  0  0  0
 33 30  1  1  0  0  0
 33 11  1  0  0  0  0
 33 32  1  0  0  0  0
 35 29  1  0  0  0  0
 35 27  1  0  0  0  0
 36 39  1  0  0  0  0
 37 39  2  0  0  0  0
 39 38  1  0  0  0  0
M  END
>  <MODEL>
5

>  <REMARK>
 VINA RESULT:      -1.5      2.675      3.519
  Name = 
  3 active torsions:
  status: ('A' for Active; 'I' for Inactive)
    1  A    between atoms: C_6  and  C_7
    2  A    between atoms: C_6  and  C_30
    3  A    between atoms: C_16  and  C_31
                            x       y       z     vdW  Elec       q    Type
                         _______ _______ _______ _____ _____    ______ ____

>  <TORSDO>
F 3

$$$$
=
 OpenBabel11062417423D

 39 43  0  0  1  0  0  0  0  0999 V2000
  191.6620  173.8110  136.4020 C   0  0  0  0  0  0  0  0  0  0  0  0
  189.8940  175.5000  135.2100 S   0  0  0  0  0  0  0  0  0  0  0  0
  189.8040  177.7290  136.9910 C   0  0  0  0  0  2  0  0  0  0  0  0
  193.6290  174.5100  137.5310 C   0  0  0  0  0  2  0  0  0  0  0  0
  184.4550  175.2420  136.1200 C   0  0  1  0  0  3  0  0  0  0  0  0
  192.6250  172.3140  136.2880 S   0  0  0  0  0  0  0  0  0  0  0  0
  188.5380  171.1390  137.0190 O   0  0  0  0  0  1  0  0  0  0  0  0
  185.0040  174.2380  137.1430 C   0  0  0  0  0  2  0  0  0  0  0  0
  187.7460  178.7110  137.9670 C   0  0  0  0  0  2  0  0  0  0  0  0
  192.2740  174.8150  137.0150 C   0  0  0  0  0  0  0  0  0  0  0  0
  183.6290  176.3500  136.8020 C   0  0  2  0  0  3  0  0  0  0  0  0
  188.7980  176.8060  138.9490 O   0  0  0  0  0  1  0  0  0  0  0  0
  185.7930  173.0980  136.5130 C   0  0  0  0  0  2  0  0  0  0  0  0
  185.4900  177.8750  137.5800 N   0  0  0  0  0  2  0  0  0  0  0  0
  190.2070  173.9010  136.0340 C   0  0  1  0  0  3  0  0  0  0  0  0
  188.5100  177.4160  137.7270 C   0  0  2  0  0  3  0  0  0  0  0  0
  189.8150  172.8120  135.1500 N   0  0  0  0  0  2  0  0  0  0  0  0
  184.3910  177.0260  137.9190 C   0  0  0  0  0  0  0  0  0  0  0  0
  186.3840  178.4330  138.5820 C   0  0  0  0  0  2  0  0  0  0  0  0
  187.2140  173.5590  136.2580 C   0  0  0  0  0  2  0  0  0  0  0  0
  190.5160  176.4790  136.5930 C   0  0  0  0  0  0  0  0  0  0  0  0
  187.6030  171.4330  134.5940 O   0  0  0  0  0  0  0  0  0  0  0  0
  193.7400  172.9910  137.5630 C   0  0  0  0  0  2  0  0  0  0  0  0
  191.6180  176.1130  137.2580 C   0  0  0  0  0  3  0  0  0  0  0  0
  184.2250  176.6430  139.1450 N   0  0  0  0  0  2  0  0  0  0  0  0
  188.2760  172.1880  135.7180 P   0  0  2  0  0  0  0  0  0  0  0  0
  180.3280  175.5370  140.3090 C   0  0  0  0  0  2  0  0  0  0  0  0
  178.9310  176.8330  137.9080 O   0  0  0  0  0  0  0  0  0  0  0  0
  180.8210  175.7910  138.9430 C   0  0  2  0  0  0  0  0  0  0  0  0
  182.1660  175.5840  138.6210 O   0  0  0  0  0  0  0  0  0  0  0  0
  180.1030  176.4910  137.8800 C   0  0  0  0  0  0  0  0  0  0  0  0
  181.0350  176.7240  136.7740 C   0  0  2  0  0  3  0  0  0  0  0  0
  182.2350  175.8490  137.2250 C   0  0  1  0  0  3  0  0  0  0  0  0
  181.3670  178.2110  136.7290 C   0  0  0  0  0  1  0  0  0  0  0  0
  180.1970  174.5790  139.2800 O   0  0  0  0  0  0  0  0  0  0  0  0
  185.5570  175.8560  135.2560 C   0  0  0  0  0  2  0  0  0  0  0  0
  183.9880  177.5240  134.5940 O   0  0  0  0  0  0  0  0  0  0  0  0
  186.1750  178.2050  134.6960 O   0  0  0  0  0  1  0  0  0  0  0  0
  185.1920  177.2330  134.8210 C   0  0  0  0  0  0  0  0  0  0  0  0
  1 10  2  0  0  0  0
  2 15  1  0  0  0  0
  2 21  1  0  0  0  0
  3 16  1  0  0  0  0
  4 23  1  0  0  0  0
  5 36  1  1  0  0  0
  5 11  1  0  0  0  0
  5  8  1  0  0  0  0
  6  1  1  0  0  0  0
  6 23  1  0  0  0  0
  9 19  1  0  0  0  0
 10 24  1  0  0  0  0
 10  4  1  0  0  0  0
 11 33  1  0  0  0  0
 11 18  1  1  0  0  0
 13  8  1  0  0  0  0
 14 18  1  0  0  0  0
 14 19  1  0  0  0  0
 15 17  1  6  0  0  0
 15  1  1  0  0  0  0
 16  9  1  0  0  0  0
 16 12  1  1  0  0  0
 17 26  1  0  0  0  0
 18 25  2  0  0  0  0
 20 13  1  0  0  0  0
 21  3  1  0  0  0  0
 21 24  2  0  0  0  0
 26 22  2  6  0  0  0
 26 20  1  0  0  0  0
 26  7  1  0  0  0  0
 29 35  1  0  0  0  0
 29 27  1  1  0  0  0
 30 29  1  0  0  0  0
 31 28  2  0  0  0  0
 31 29  1  0  0  0  0
 32 34  1  1  0  0  0
 32 33  1  0  0  0  0
 32 31  1  0  0  0  0
 33 30  1  1  0  0  0
 35 27  1  0  0  0  0
 37 39  2  0  0  0  0
 38 39  1  0  0  0  0
 39 36  1  0  0  0  0
M  END
>  <MODEL>
6

>  <REMARK>
 VINA RESULT:      -1.1      3.378      9.096
  Name = 
  3 active torsions:
  status: ('A' for Active; 'I' for Inactive)
    1  A    between atoms: C_6  and  C_7
    2  A    between atoms: C_6  and  C_30
    3  A    between atoms: C_16  and  C_31
                            x       y       z     vdW  Elec       q    Type
                         _______ _______ _______ _____ _____    ______ ____

>  <TORSDO>
F 3

$$$$
=
 OpenBabel11062417423D

 39 43  0  0  1  0  0  0  0  0999 V2000
  190.5380  177.6580  141.0980 C   0  0  0  0  0  0  0  0  0  0  0  0
  188.6830  179.1410  139.7730 S   0  0  0  0  0  0  0  0  0  0  0  0
  186.5510  179.3730  141.6570 C   0  0  0  0  0  2  0  0  0  0  0  0
  191.0160  177.8680  143.4130 C   0  0  0  0  0  2  0  0  0  0  0  0
  184.8390  176.8830  136.5160 C   0  0  1  0  0  3  0  0  0  0  0  0
  192.1930  176.9920  141.1280 S   0  0  0  0  0  0  0  0  0  0  0  0
  189.9180  174.6070  138.3440 O   0  0  0  0  0  1  0  0  0  0  0  0
  185.4900  175.6480  137.1570 C   0  0  0  0  0  2  0  0  0  0  0  0
  184.1760  178.8020  141.2230 C   0  0  0  0  0  2  0  0  0  0  0  0
  190.0870  178.0680  142.2760 C   0  0  0  0  0  0  0  0  0  0  0  0
  183.3230  176.9310  136.7910 C   0  0  2  0  0  3  0  0  0  0  0  0
  185.7610  177.1280  141.8460 O   0  0  0  0  0  1  0  0  0  0  0  0
  186.9820  175.5340  136.8780 C   0  0  0  0  0  2  0  0  0  0  0  0
  183.3240  177.9080  139.1220 N   0  0  0  0  0  2  0  0  0  0  0  0
  189.6270  177.5840  139.9040 C   0  0  1  0  0  3  0  0  0  0  0  0
  185.6120  178.3070  141.1130 C   0  0  2  0  0  3  0  0  0  0  0  0
  190.3780  177.3640  138.6770 N   0  0  0  0  0  2  0  0  0  0  0  0
  183.0040  176.8120  138.2630 C   0  0  0  0  0  0  0  0  0  0  0  0
  183.2120  177.8250  140.5700 C   0  0  0  0  0  2  0  0  0  0  0  0
  187.7390  176.3990  137.8650 C   0  0  0  0  0  2  0  0  0  0  0  0
  187.9790  179.0030  141.4290 C   0  0  0  0  0  0  0  0  0  0  0  0
  189.9650  176.2350  136.2970 O   0  0  0  0  0  0  0  0  0  0  0  0
  192.0560  176.8590  142.9420 C   0  0  0  0  0  2  0  0  0  0  0  0
  188.7220  178.5920  142.4630 C   0  0  0  0  0  3  0  0  0  0  0  0
  182.6980  175.6600  138.7730 N   0  0  0  0  0  2  0  0  0  0  0  0
  189.5330  176.1410  137.7430 P   0  0  2  0  0  0  0  0  0  0  0  0
  180.5820  172.9070  136.4010 C   0  0  0  0  0  2  0  0  0  0  0  0
  179.3820  175.1030  134.6310 O   0  0  0  0  0  0  0  0  0  0  0  0
  181.1290  174.2180  136.0090 C   0  0  2  0  0  0  0  0  0  0  0  0
  182.3030  174.7050  136.5930 O   0  0  0  0  0  0  0  0  0  0  0  0
  180.4440  175.2400  135.2190 C   0  0  0  0  0  0  0  0  0  0  0  0
  181.2470  176.4650  135.2600 C   0  0  2  0  0  3  0  0  0  0  0  0
  182.5500  175.9280  135.9120 C   0  0  1  0  0  3  0  0  0  0  0  0
  180.5230  177.4850  136.1300 C   0  0  0  0  0  1  0  0  0  0  0  0
  181.3880  173.0640  135.2530 O   0  0  0  0  0  0  0  0  0  0  0  0
  185.5000  178.1880  136.9620 C   0  0  0  0  0  2  0  0  0  0  0  0
  186.4660  178.2510  134.7840 O   0  0  0  0  0  0  0  0  0  0  0  0
  187.5550  179.4760  136.3870 O   0  0  0  0  0  1  0  0  0  0  0  0
  186.5340  178.6260  135.9840 C   0  0  0  0  0  0  0  0  0  0  0  0
  1  6  1  0  0  0  0
  1 10  2  0  0  0  0
  2 15  1  0  0  0  0
  2 21  1  0  0  0  0
  5 11  1  0  0  0  0
  5 36  1  1  0  0  0
  5  8  1  0  0  0  0
  6 23  1  0  0  0  0
 10 24  1  0  0  0  0
 10  4  1  0  0  0  0
 11 18  1  1  0  0  0
 13  8  1  0  0  0  0
 13 20  1  0  0  0  0
 14 19  1  0  0  0  0
 15 17  1  6  0  0  0
 15  1  1  0  0  0  0
 16  9  1  0  0  0  0
 16  3  1  0  0  0  0
 16 12  1  1  0  0  0
 18 25  2  0  0  0  0
 18 14  1  0  0  0  0
 19  9  1  0  0  0  0
 21  3  1  0  0  0  0
 21 24  2  0  0  0  0
 23  4  1  0  0  0  0
 26 22  2  6  0  0  0
 26 20  1  0  0  0  0
 26  7  1  0  0  0  0
 26 17  1  0  0  0  0
 28 31  2  0  0  0  0
 29 27  1  1  0  0  0
 29 30  1  0  0  0  0
 31 32  1  0  0  0  0
 31 29  1  0  0  0  0
 32 33  1  0  0  0  0
 32 34  1  1  0  0  0
 33 30  1  1  0  0  0
 33 11  1  0  0  0  0
 35 29  1  0  0  0  0
 35 27  1  0  0  0  0
 37 39  2  0  0  0  0
 39 38  1  0  0  0  0
 39 36  1  0  0  0  0
M  END
>  <MODEL>
7

>  <REMARK>
 VINA RESULT:      -1.1      3.900      8.474
  Name = 
  3 active torsions:
  status: ('A' for Active; 'I' for Inactive)
    1  A    between atoms: C_6  and  C_7
    2  A    between atoms: C_6  and  C_30
    3  A    between atoms: C_16  and  C_31
                            x       y       z     vdW  Elec       q    Type
                         _______ _______ _______ _____ _____    ______ ____

>  <TORSDO>
F 3

$$$$
