=
 OpenBabel11062413453D

 35 40  0  0  1  0  0  0  0  0999 V2000
  180.5330  178.4070  140.7670 O   0  0  0  0  0  1  0  0  0  0  0  0
  182.7350  179.0790  144.2820 C   0  0  0  0  0  2  0  0  0  0  0  0
  181.8960  178.6430  140.6470 C   0  0  1  0  0  3  0  0  0  0  0  0
  183.9430  178.9640  139.6990 C   0  0  1  0  0  3  0  0  0  0  0  0
  182.1740  178.7520  138.2120 N   0  0  0  0  0  2  0  0  0  0  0  0
  184.1070  179.4260  144.4840 C   0  0  2  0  0  3  0  0  0  0  0  0
  183.2570  178.4420  137.6130 N   0  0  0  0  0  0  0  0  0  0  0  0
  182.9260  178.2750  141.6170 C   0  0  2  0  0  3  0  0  0  0  0  0
  182.5170  179.0690  139.5500 C   0  0  1  0  0  3  0  0  0  0  0  0
  183.1430  178.6780  142.8920 C   0  0  1  0  0  3  0  0  0  0  0  0
  184.2080  178.4820  141.0510 C   0  0  2  0  0  3  0  0  0  0  0  0
  184.4180  179.0850  143.1120 N   0  0  1  0  0  0  0  0  0  0  0  0
  185.1440  179.0200  141.9880 C   0  0  0  0  0  2  0  0  0  0  0  0
  184.3660  178.5060  138.5270 C   0  0  0  0  0  0  0  0  0  0  0  0
  186.8530  178.4260  138.8250 N   0  0  0  0  0  2  0  0  0  0  0  0
  185.7160  176.8150  137.5630 O   0  0  0  0  0  0  0  0  0  0  0  0
  185.6600  177.8600  138.2670 C   0  0  0  0  0  0  0  0  0  0  0  0
  188.1330  176.5730  137.8930 C   0  0  0  0  0  1  0  0  0  0  0  0
  188.2090  177.9120  138.6160 C   0  0  0  0  0  0  0  0  0  0  0  0
  189.0060  178.8900  137.7650 C   0  0  0  0  0  1  0  0  0  0  0  0
  190.2830  177.1220  139.9940 C   0  0  0  0  0  1  0  0  0  0  0  0
  188.4890  178.3600  141.0430 C   0  0  0  0  0  2  0  0  0  0  0  0
  188.9170  177.7320  139.9450 C   0  0  0  0  0  0  0  0  0  0  0  0
  184.7750  178.4420  145.4370 C   0  0  0  0  0  2  0  0  0  0  0  0
  186.0250  179.0010  145.9350 N   0  0  0  0  0  2  0  0  0  0  0  0
  188.7430  176.9640  147.5590 C   0  0  0  0  0  3  0  0  0  0  0  0
  188.0610  177.8810  144.9440 C   0  0  2  0  0  3  0  0  0  0  0  0
  189.6160  176.8500  146.6070 N   0  0  0  0  0  0  0  0  0  0  0  0
  187.2160  178.2320  146.1390 C   0  0  0  0  0  0  0  0  0  0  0  0
  187.2520  176.5790  144.0310 Cl  0  0  0  0  0  0  0  0  0  0  0  0
  187.5170  177.7440  147.3480 C   0  0  0  0  0  3  0  0  0  0  0  0
  189.4040  177.4410  145.3480 N   0  0  0  0  0  0  0  0  0  0  0  0
  190.8440  176.5660  143.5670 C   0  0  0  0  0  2  0  0  0  0  0  0
  190.5550  177.7320  144.4970 C   0  0  0  0  0  3  0  0  0  0  0  0
  191.6840  176.7640  144.8060 C   0  0  0  0  0  2  0  0  0  0  0  0
  2  6  1  0  0  0  0
  3  1  1  6  0  0  0
  3  8  1  0  0  0  0
  4 14  1  6  0  0  0
  4 11  1  0  0  0  0
  5  9  1  0  0  0  0
  6 24  1  1  0  0  0
  7  5  1  0  0  0  0
  7 14  2  0  0  0  0
  8 10  1  0  0  0  0
  9  4  1  0  0  0  0
  9  3  1  0  0  0  0
 10 12  1  0  0  0  0
 10  2  1  0  0  0  0
 11  8  1  0  0  0  0
 11 13  1  0  0  0  0
 12  6  1  0  0  0  0
 13 12  1  0  0  0  0
 16 17  2  0  0  0  0
 17 14  1  0  0  0  0
 17 15  1  0  0  0  0
 18 19  1  0  0  0  0
 19 15  1  0  0  0  0
 19 23  1  0  0  0  0
 20 19  1  0  0  0  0
 23 21  1  0  0  0  0
 23 22  2  0  0  0  0
 24 25  1  0  0  0  0
 25 29  1  0  0  0  0
 27 32  1  0  0  0  0
 27 29  1  0  0  0  0
 28 26  2  0  0  0  0
 29 31  2  0  0  0  0
 30 27  1  0  0  0  0
 31 26  1  0  0  0  0
 32 28  1  0  0  0  0
 33 34  1  0  0  0  0
 33 35  1  0  0  0  0
 34 35  1  0  0  0  0
 34 32  1  0  0  0  0
M  END
>  <MODEL>
1

>  <REMARK>
 VINA RESULT:      -9.0      0.000      0.000
  Name = 
  7 active torsions:
  status: ('A' for Active; 'I' for Inactive)
    1  A    between atoms: N_1  and  C_11
    2  A    between atoms: N_1  and  C_22
    3  A    between atoms: C_11  and  C_12
    4  A    between atoms: C_18  and  N_35
    5  A    between atoms: C_21  and  C_24
    6  A    between atoms: C_24  and  N_25
    7  A    between atoms: C_28  and  C_34
                            x       y       z     vdW  Elec       q    Type
                         _______ _______ _______ _____ _____    ______ ____

>  <TORSDO>
F 7

$$$$
=
 OpenBabel11062413453D

 35 40  0  0  1  0  0  0  0  0999 V2000
  187.2990  177.3680  147.1900 O   0  0  0  0  0  1  0  0  0  0  0  0
  189.8830  177.0740  143.8910 C   0  0  0  0  0  2  0  0  0  0  0  0
  186.8590  177.8650  145.9710 C   0  0  1  0  0  3  0  0  0  0  0  0
  185.5250  178.8640  144.4160 C   0  0  1  0  0  3  0  0  0  0  0  0
  184.7270  178.9100  146.5950 N   0  0  0  0  0  2  0  0  0  0  0  0
  189.7610  177.5550  142.5500 C   0  0  2  0  0  3  0  0  0  0  0  0
  183.7440  179.0350  145.7920 N   0  0  0  0  0  0  0  0  0  0  0  0
  187.2120  177.3520  144.6490 C   0  0  2  0  0  3  0  0  0  0  0  0
  185.8940  178.7660  145.8020 C   0  0  1  0  0  3  0  0  0  0  0  0
  188.3990  177.2890  144.0000 C   0  0  1  0  0  3  0  0  0  0  0  0
  186.4040  177.9730  143.6650 C   0  0  2  0  0  3  0  0  0  0  0  0
  188.3480  177.8020  142.7450 N   0  0  1  0  0  0  0  0  0  0  0  0
  187.1280  178.2830  142.4730 C   0  0  0  0  0  2  0  0  0  0  0  0
  184.2010  178.9510  144.4310 C   0  0  0  0  0  0  0  0  0  0  0  0
  183.8120  178.7820  141.9610 N   0  0  0  0  0  2  0  0  0  0  0  0
  182.1020  178.3600  143.5030 O   0  0  0  0  0  0  0  0  0  0  0  0
  183.3040  178.6810  143.2980 C   0  0  0  0  0  0  0  0  0  0  0  0
  182.8720  177.0870  140.4830 C   0  0  0  0  0  1  0  0  0  0  0  0
  183.0240  178.5810  140.7420 C   0  0  0  0  0  0  0  0  0  0  0  0
  181.6440  179.1980  140.9120 C   0  0  0  0  0  1  0  0  0  0  0  0
  185.0470  178.7500  139.0990 C   0  0  0  0  0  1  0  0  0  0  0  0
  183.0330  180.0360  138.7290 C   0  0  0  0  0  2  0  0  0  0  0  0
  183.7080  179.2350  139.5570 C   0  0  0  0  0  0  0  0  0  0  0  0
  189.9660  176.4220  141.5510 C   0  0  0  0  0  2  0  0  0  0  0  0
  190.7030  176.9070  140.3920 N   0  0  0  0  0  2  0  0  0  0  0  0
  188.7810  178.4960  137.5710 C   0  0  0  0  0  3  0  0  0  0  0  0
  190.3860  176.1740  137.9950 C   0  0  2  0  0  3  0  0  0  0  0  0
  188.7960  177.5690  136.6640 N   0  0  0  0  0  0  0  0  0  0  0  0
  190.1060  177.1440  139.1110 C   0  0  0  0  0  0  0  0  0  0  0  0
  192.0410  176.4570  137.3910 Cl  0  0  0  0  0  0  0  0  0  0  0  0
  189.4010  178.2580  138.8800 C   0  0  0  0  0  3  0  0  0  0  0  0
  189.4250  176.3310  136.8950 N   0  0  0  0  0  0  0  0  0  0  0  0
  187.8890  174.4220  136.8040 C   0  0  0  0  0  2  0  0  0  0  0  0
  189.0160  175.1690  136.1100 C   0  0  0  0  0  3  0  0  0  0  0  0
  189.3010  173.8950  136.8850 C   0  0  0  0  0  2  0  0  0  0  0  0
  2 10  1  0  0  0  0
  3  1  1  1  0  0  0
  4 14  1  1  0  0  0
  4  9  1  0  0  0  0
  6 24  1  6  0  0  0
  6 12  1  0  0  0  0
  6  2  1  0  0  0  0
  7  5  1  0  0  0  0
  8  3  1  0  0  0  0
  9  3  1  0  0  0  0
  9  5  1  0  0  0  0
 10  8  1  0  0  0  0
 11  4  1  0  0  0  0
 11  8  1  0  0  0  0
 12 10  1  0  0  0  0
 13 12  1  0  0  0  0
 13 11  1  0  0  0  0
 14  7  2  0  0  0  0
 15 17  1  0  0  0  0
 17 16  2  0  0  0  0
 17 14  1  0  0  0  0
 18 19  1  0  0  0  0
 19 20  1  0  0  0  0
 19 15  1  0  0  0  0
 21 23  1  0  0  0  0
 22 23  2  0  0  0  0
 23 19  1  0  0  0  0
 25 24  1  0  0  0  0
 26 31  1  0  0  0  0
 27 29  1  0  0  0  0
 28 32  1  0  0  0  0
 28 26  2  0  0  0  0
 29 25  1  0  0  0  0
 30 27  1  0  0  0  0
 31 29  2  0  0  0  0
 32 27  1  0  0  0  0
 33 35  1  0  0  0  0
 34 33  1  0  0  0  0
 34 35  1  0  0  0  0
 34 32  1  0  0  0  0
M  END
>  <MODEL>
2

>  <REMARK>
 VINA RESULT:      -8.6      2.847      7.102
  Name = 
  7 active torsions:
  status: ('A' for Active; 'I' for Inactive)
    1  A    between atoms: N_1  and  C_11
    2  A    between atoms: N_1  and  C_22
    3  A    between atoms: C_11  and  C_12
    4  A    between atoms: C_18  and  N_35
    5  A    between atoms: C_21  and  C_24
    6  A    between atoms: C_24  and  N_25
    7  A    between atoms: C_28  and  C_34
                            x       y       z     vdW  Elec       q    Type
                         _______ _______ _______ _____ _____    ______ ____

>  <TORSDO>
F 7

$$$$
=
 OpenBabel11062413453D

 35 40  0  0  1  0  0  0  0  0999 V2000
  185.8190  180.1140  148.1390 O   0  0  0  0  0  1  0  0  0  0  0  0
  183.4620  179.3360  144.7490 C   0  0  0  0  0  2  0  0  0  0  0  0
  186.2680  179.1580  147.2380 C   0  0  1  0  0  3  0  0  0  0  0  0
  187.5680  177.5410  146.2940 C   0  0  1  0  0  3  0  0  0  0  0  0
  188.2390  178.2640  148.3950 N   0  0  0  0  0  2  0  0  0  0  0  0
  183.6040  178.3740  143.7010 C   0  0  2  0  0  3  0  0  0  0  0  0
  189.2450  177.7660  147.7890 N   0  0  0  0  0  0  0  0  0  0  0  0
  186.0430  179.1560  145.7940 C   0  0  2  0  0  3  0  0  0  0  0  0
  187.1390  178.1870  147.5050 C   0  0  1  0  0  3  0  0  0  0  0  0
  184.9060  179.0620  145.0630 C   0  0  1  0  0  3  0  0  0  0  0  0
  186.8320  178.1470  145.1890 C   0  0  2  0  0  3  0  0  0  0  0  0
  184.9700  178.1080  144.1000 N   0  0  1  0  0  0  0  0  0  0  0  0
  186.1440  177.4660  144.1380 C   0  0  0  0  0  2  0  0  0  0  0  0
  188.8730  177.3620  146.4590 C   0  0  0  0  0  0  0  0  0  0  0  0
  189.5000  177.3950  144.0330 N   0  0  0  0  0  2  0  0  0  0  0  0
  190.9930  176.6510  145.6760 O   0  0  0  0  0  0  0  0  0  0  0  0
  189.8530  177.1100  145.3940 C   0  0  0  0  0  0  0  0  0  0  0  0
  191.6750  177.9000  143.0570 C   0  0  0  0  0  1  0  0  0  0  0  0
  190.3590  177.1560  142.8700 C   0  0  0  0  0  0  0  0  0  0  0  0
  190.6460  175.6670  142.7390 C   0  0  0  0  0  1  0  0  0  0  0  0
  190.1200  177.1180  140.2700 C   0  0  0  0  0  1  0  0  0  0  0  0
  188.5120  178.2830  141.6510 C   0  0  0  0  0  2  0  0  0  0  0  0
  189.6790  177.6350  141.6040 C   0  0  0  0  0  0  0  0  0  0  0  0
  183.5750  179.0550  142.3370 C   0  0  0  0  0  2  0  0  0  0  0  0
  182.8770  178.2130  141.3750 N   0  0  0  0  0  2  0  0  0  0  0  0
  183.4780  176.3840  138.1390 C   0  0  0  0  0  3  0  0  0  0  0  0
  184.5480  178.6360  139.5280 C   0  0  2  0  0  3  0  0  0  0  0  0
  184.5870  176.9090  137.7210 N   0  0  0  0  0  0  0  0  0  0  0  0
  183.4320  177.8150  140.1160 C   0  0  0  0  0  0  0  0  0  0  0  0
  183.8630  180.1440  138.8660 Cl  0  0  0  0  0  0  0  0  0  0  0  0
  182.9020  176.7980  139.4250 C   0  0  0  0  0  3  0  0  0  0  0  0
  185.2500  177.9040  138.4650 N   0  0  0  0  0  0  0  0  0  0  0  0
  186.9740  178.4170  136.7990 C   0  0  0  0  0  2  0  0  0  0  0  0
  186.6810  178.1090  138.2580 C   0  0  0  0  0  3  0  0  0  0  0  0
  187.2310  177.0310  137.3400 C   0  0  0  0  0  2  0  0  0  0  0  0
  2 10  1  0  0  0  0
  3  9  1  0  0  0  0
  3  1  1  6  0  0  0
  4 14  1  6  0  0  0
  4  9  1  0  0  0  0
  6 24  1  6  0  0  0
  6 12  1  0  0  0  0
  6  2  1  0  0  0  0
  7  5  1  0  0  0  0
  8  3  1  0  0  0  0
  9  5  1  0  0  0  0
 10  8  1  0  0  0  0
 11  8  1  0  0  0  0
 11  4  1  0  0  0  0
 12 13  1  0  0  0  0
 12 10  1  0  0  0  0
 13 11  1  0  0  0  0
 14  7  2  0  0  0  0
 15 17  1  0  0  0  0
 17 16  2  0  0  0  0
 17 14  1  0  0  0  0
 19 18  1  0  0  0  0
 19 15  1  0  0  0  0
 20 19  1  0  0  0  0
 21 23  1  0  0  0  0
 23 22  2  0  0  0  0
 23 19  1  0  0  0  0
 25 24  1  0  0  0  0
 26 31  1  0  0  0  0
 27 29  1  0  0  0  0
 28 26  2  0  0  0  0
 28 32  1  0  0  0  0
 29 25  1  0  0  0  0
 30 27  1  0  0  0  0
 31 29  2  0  0  0  0
 32 27  1  0  0  0  0
 33 35  1  0  0  0  0
 33 34  1  0  0  0  0
 34 32  1  0  0  0  0
 35 34  1  0  0  0  0
M  END
>  <MODEL>
3

>  <REMARK>
 VINA RESULT:      -8.6      2.936      7.142
  Name = 
  7 active torsions:
  status: ('A' for Active; 'I' for Inactive)
    1  A    between atoms: N_1  and  C_11
    2  A    between atoms: N_1  and  C_22
    3  A    between atoms: C_11  and  C_12
    4  A    between atoms: C_18  and  N_35
    5  A    between atoms: C_21  and  C_24
    6  A    between atoms: C_24  and  N_25
    7  A    between atoms: C_28  and  C_34
                            x       y       z     vdW  Elec       q    Type
                         _______ _______ _______ _____ _____    ______ ____

>  <TORSDO>
F 7

$$$$
=
 OpenBabel11062413453D

 35 40  0  0  1  0  0  0  0  0999 V2000
  187.1750  177.3710  145.7820 O   0  0  0  0  0  1  0  0  0  0  0  0
  188.8370  177.8720  141.9560 C   0  0  0  0  0  2  0  0  0  0  0  0
  186.4140  178.0250  144.8210 C   0  0  1  0  0  3  0  0  0  0  0  0
  184.6830  179.1460  143.8520 C   0  0  1  0  0  3  0  0  0  0  0  0
  184.4690  178.7520  146.1290 N   0  0  0  0  0  2  0  0  0  0  0  0
  188.3530  178.5580  140.8000 C   0  0  2  0  0  3  0  0  0  0  0  0
  183.3080  178.9210  145.6280 N   0  0  0  0  0  0  0  0  0  0  0  0
  186.4400  177.7760  143.3820 C   0  0  2  0  0  3  0  0  0  0  0  0
  185.3990  178.8500  145.0640 C   0  0  1  0  0  3  0  0  0  0  0  0
  187.4230  177.9300  142.4620 C   0  0  1  0  0  3  0  0  0  0  0  0
  185.3790  178.4770  142.7580 C   0  0  2  0  0  3  0  0  0  0  0  0
  187.0280  178.6400  141.3750 N   0  0  1  0  0  0  0  0  0  0  0  0
  185.7580  179.0470  141.5030 C   0  0  0  0  0  2  0  0  0  0  0  0
  183.4040  179.1090  144.2060 C   0  0  0  0  0  0  0  0  0  0  0  0
  182.4630  179.0890  141.8830 N   0  0  0  0  0  2  0  0  0  0  0  0
  181.1140  178.7000  143.7560 O   0  0  0  0  0  0  0  0  0  0  0  0
  182.2600  178.9530  143.2960 C   0  0  0  0  0  0  0  0  0  0  0  0
  180.2270  179.8580  141.2920 C   0  0  0  0  0  1  0  0  0  0  0  0
  181.4110  178.9990  140.8670 C   0  0  0  0  0  0  0  0  0  0  0  0
  181.9390  179.5070  139.5330 C   0  0  0  0  0  1  0  0  0  0  0  0
  179.5700  177.1580  141.0740 C   0  0  0  0  0  1  0  0  0  0  0  0
  181.6660  176.7020  139.9570 C   0  0  0  0  0  2  0  0  0  0  0  0
  180.9610  177.5610  140.6970 C   0  0  0  0  0  0  0  0  0  0  0  0
  188.3470  177.6330  139.5880 C   0  0  0  0  0  2  0  0  0  0  0  0
  187.6080  178.2490  138.4940 N   0  0  0  0  0  2  0  0  0  0  0  0
  184.1290  177.4360  137.3070 C   0  0  0  0  0  3  0  0  0  0  0  0
  186.7910  176.5150  136.8490 C   0  0  2  0  0  3  0  0  0  0  0  0
  184.3060  176.3290  136.6540 N   0  0  0  0  0  0  0  0  0  0  0  0
  186.5060  177.6240  137.8260 C   0  0  0  0  0  0  0  0  0  0  0  0
  187.4330  177.2270  135.3450 Cl  0  0  0  0  0  0  0  0  0  0  0  0
  185.2590  178.0830  137.9840 C   0  0  0  0  0  3  0  0  0  0  0  0
  185.5800  175.7390  136.5510 N   0  0  0  0  0  0  0  0  0  0  0  0
  185.3960  173.4950  137.5220 C   0  0  0  0  0  2  0  0  0  0  0  0
  185.6780  174.3090  136.2700 C   0  0  0  0  0  3  0  0  0  0  0  0
  186.8210  173.7020  137.0670 C   0  0  0  0  0  2  0  0  0  0  0  0
  2 10  1  0  0  0  0
  3  9  1  0  0  0  0
  3  1  1  1  0  0  0
  4 14  1  1  0  0  0
  4  9  1  0  0  0  0
  6 24  1  6  0  0  0
  6 12  1  0  0  0  0
  6  2  1  0  0  0  0
  7  5  1  0  0  0  0
  8  3  1  0  0  0  0
  9  5  1  0  0  0  0
 10  8  1  0  0  0  0
 11  8  1  0  0  0  0
 11  4  1  0  0  0  0
 12 13  1  0  0  0  0
 12 10  1  0  0  0  0
 13 11  1  0  0  0  0
 14  7  2  0  0  0  0
 15 17  1  0  0  0  0
 17 16  2  0  0  0  0
 17 14  1  0  0  0  0
 19 18  1  0  0  0  0
 19 15  1  0  0  0  0
 20 19  1  0  0  0  0
 22 23  2  0  0  0  0
 23 19  1  0  0  0  0
 23 21  1  0  0  0  0
 25 24  1  0  0  0  0
 26 31  1  0  0  0  0
 27 29  1  0  0  0  0
 28 26  2  0  0  0  0
 29 31  2  0  0  0  0
 29 25  1  0  0  0  0
 30 27  1  0  0  0  0
 32 28  1  0  0  0  0
 32 27  1  0  0  0  0
 34 32  1  0  0  0  0
 34 35  1  0  0  0  0
 34 33  1  0  0  0  0
 35 33  1  0  0  0  0
M  END
>  <MODEL>
4

>  <REMARK>
 VINA RESULT:      -8.5      3.034      7.641
  Name = 
  7 active torsions:
  status: ('A' for Active; 'I' for Inactive)
    1  A    between atoms: N_1  and  C_11
    2  A    between atoms: N_1  and  C_22
    3  A    between atoms: C_11  and  C_12
    4  A    between atoms: C_18  and  N_35
    5  A    between atoms: C_21  and  C_24
    6  A    between atoms: C_24  and  N_25
    7  A    between atoms: C_28  and  C_34
                            x       y       z     vdW  Elec       q    Type
                         _______ _______ _______ _____ _____    ______ ____

>  <TORSDO>
F 7

$$$$
=
 OpenBabel11062413453D

 35 40  0  0  1  0  0  0  0  0999 V2000
  183.2370  179.4410  145.5960 O   0  0  0  0  0  1  0  0  0  0  0  0
  183.7220  178.7400  141.4820 C   0  0  0  0  0  2  0  0  0  0  0  0
  184.3830  178.7780  145.1790 C   0  0  1  0  0  3  0  0  0  0  0  0
  186.3780  177.6800  145.2630 C   0  0  1  0  0  3  0  0  0  0  0  0
  185.4170  178.1680  147.3190 N   0  0  0  0  0  2  0  0  0  0  0  0
  184.7270  178.0260  140.7590 C   0  0  2  0  0  3  0  0  0  0  0  0
  186.6750  178.0190  147.4750 N   0  0  0  0  0  0  0  0  0  0  0  0
  185.0800  178.9710  143.9090 C   0  0  2  0  0  3  0  0  0  0  0  0
  185.1490  177.9970  145.9380 C   0  0  1  0  0  3  0  0  0  0  0  0
  184.6930  178.7480  142.6300 C   0  0  1  0  0  3  0  0  0  0  0  0
  186.3180  178.2820  143.9350 C   0  0  2  0  0  3  0  0  0  0  0  0
  185.5860  178.0110  141.9240 N   0  0  1  0  0  0  0  0  0  0  0  0
  186.6250  177.6520  142.6900 C   0  0  0  0  0  2  0  0  0  0  0  0
  187.3070  177.7730  146.2070 C   0  0  0  0  0  0  0  0  0  0  0  0
  189.3010  177.6320  144.6960 N   0  0  0  0  0  2  0  0  0  0  0  0
  189.4960  178.3330  146.9210 O   0  0  0  0  0  0  0  0  0  0  0  0
  188.7510  177.9330  145.9850 C   0  0  0  0  0  0  0  0  0  0  0  0
  191.1130  179.1650  144.1420 C   0  0  0  0  0  1  0  0  0  0  0  0
  190.7220  177.7070  144.3460 C   0  0  0  0  0  0  0  0  0  0  0  0
  191.5620  177.1210  145.4720 C   0  0  0  0  0  1  0  0  0  0  0  0
  190.2470  175.6600  142.7950 C   0  0  0  0  0  1  0  0  0  0  0  0
  191.6720  177.4720  142.0630 C   0  0  0  0  0  2  0  0  0  0  0  0
  190.9960  176.9250  143.0760 C   0  0  0  0  0  0  0  0  0  0  0  0
  185.3310  178.9040  139.6690 C   0  0  0  0  0  2  0  0  0  0  0  0
  185.6380  178.1000  138.4930 N   0  0  0  0  0  2  0  0  0  0  0  0
  188.5200  178.4870  136.1030 C   0  0  0  0  0  3  0  0  0  0  0  0
  188.0540  177.3910  138.6970 C   0  0  2  0  0  3  0  0  0  0  0  0
  189.4360  177.7460  136.6450 N   0  0  0  0  0  0  0  0  0  0  0  0
  186.9400  178.0180  137.9020 C   0  0  0  0  0  0  0  0  0  0  0  0
  188.5820  178.5440  139.9510 Cl  0  0  0  0  0  0  0  0  0  0  0  0
  187.1880  178.5800  136.7130 C   0  0  0  0  0  3  0  0  0  0  0  0
  189.1920  177.0390  137.8370 N   0  0  0  0  0  0  0  0  0  0  0  0
  191.3790  176.2830  138.6500 C   0  0  0  0  0  2  0  0  0  0  0  0
  190.0070  175.8670  138.1470 C   0  0  0  0  0  3  0  0  0  0  0  0
  191.2120  175.8160  137.2240 C   0  0  0  0  0  2  0  0  0  0  0  0
  2 10  1  0  0  0  0
  3  1  1  1  0  0  0
  3  9  1  0  0  0  0
  4  9  1  0  0  0  0
  4 14  1  1  0  0  0
  5  7  1  0  0  0  0
  6 24  1  6  0  0  0
  6  2  1  0  0  0  0
  6 12  1  0  0  0  0
  8 11  1  0  0  0  0
  8  3  1  0  0  0  0
  9  5  1  0  0  0  0
 10  8  1  0  0  0  0
 11  4  1  0  0  0  0
 12 10  1  0  0  0  0
 12 13  1  0  0  0  0
 13 11  1  0  0  0  0
 14  7  2  0  0  0  0
 15 17  1  0  0  0  0
 17 14  1  0  0  0  0
 17 16  2  0  0  0  0
 18 19  1  0  0  0  0
 19 15  1  0  0  0  0
 19 20  1  0  0  0  0
 21 23  1  0  0  0  0
 22 23  2  0  0  0  0
 23 19  1  0  0  0  0
 25 24  1  0  0  0  0
 26 28  2  0  0  0  0
 26 31  1  0  0  0  0
 27 30  1  0  0  0  0
 28 32  1  0  0  0  0
 29 25  1  0  0  0  0
 29 27  1  0  0  0  0
 31 29  2  0  0  0  0
 32 34  1  0  0  0  0
 32 27  1  0  0  0  0
 34 33  1  0  0  0  0
 35 34  1  0  0  0  0
 35 33  1  0  0  0  0
M  END
>  <MODEL>
5

>  <REMARK>
 VINA RESULT:      -8.4      2.654      6.848
  Name = 
  7 active torsions:
  status: ('A' for Active; 'I' for Inactive)
    1  A    between atoms: N_1  and  C_11
    2  A    between atoms: N_1  and  C_22
    3  A    between atoms: C_11  and  C_12
    4  A    between atoms: C_18  and  N_35
    5  A    between atoms: C_21  and  C_24
    6  A    between atoms: C_24  and  N_25
    7  A    between atoms: C_28  and  C_34
                            x       y       z     vdW  Elec       q    Type
                         _______ _______ _______ _____ _____    ______ ____

>  <TORSDO>
F 7

$$$$
=
 OpenBabel11062413453D

 35 40  0  0  1  0  0  0  0  0999 V2000
  191.6740  177.5160  145.4980 O   0  0  0  0  0  1  0  0  0  0  0  0
  187.7190  177.8450  146.8750 C   0  0  0  0  0  2  0  0  0  0  0  0
  190.6480  177.2890  144.5920 C   0  0  1  0  0  3  0  0  0  0  0  0
  189.5770  176.7780  142.6460 C   0  0  1  0  0  3  0  0  0  0  0  0
  191.8860  176.5480  142.6060 N   0  0  0  0  0  2  0  0  0  0  0  0
  186.4700  177.5970  146.2250 C   0  0  2  0  0  3  0  0  0  0  0  0
  191.4660  176.7150  141.4130 N   0  0  0  0  0  0  0  0  0  0  0  0
  189.3310  177.9230  144.5990 C   0  0  2  0  0  3  0  0  0  0  0  0
  190.7520  176.6040  143.4550 C   0  0  1  0  0  3  0  0  0  0  0  0
  188.3180  177.8760  145.4970 C   0  0  1  0  0  3  0  0  0  0  0  0
  188.6420  177.6050  143.4030 C   0  0  2  0  0  3  0  0  0  0  0  0
  187.1220  177.5720  144.9330 N   0  0  1  0  0  0  0  0  0  0  0  0
  187.2520  177.3550  143.6180 C   0  0  0  0  0  2  0  0  0  0  0  0
  190.0430  176.9200  141.4110 C   0  0  0  0  0  0  0  0  0  0  0  0
  189.6380  177.0840  138.9440 N   0  0  0  0  0  2  0  0  0  0  0  0
  188.4190  178.3680  140.4740 O   0  0  0  0  0  0  0  0  0  0  0  0
  189.3170  177.5060  140.2760 C   0  0  0  0  0  0  0  0  0  0  0  0
  189.0560  179.1330  137.7590 C   0  0  0  0  0  1  0  0  0  0  0  0
  189.0260  177.6100  137.7210 C   0  0  0  0  0  0  0  0  0  0  0  0
  189.8060  177.1290  136.5050 C   0  0  0  0  0  1  0  0  0  0  0  0
  186.5060  178.0960  137.2380 C   0  0  0  0  0  1  0  0  0  0  0  0
  187.3050  175.8310  137.5210 C   0  0  0  0  0  2  0  0  0  0  0  0
  187.5930  177.1320  137.5990 C   0  0  0  0  0  0  0  0  0  0  0  0
  185.5560  178.8130  146.3330 C   0  0  0  0  0  2  0  0  0  0  0  0
  184.1790  178.4280  146.0550 N   0  0  0  0  0  2  0  0  0  0  0  0
  181.5500  179.0050  143.4220 C   0  0  0  0  0  3  0  0  0  0  0  0
  184.3900  178.7550  143.5590 C   0  0  2  0  0  3  0  0  0  0  0  0
  182.2220  178.8750  142.3210 N   0  0  0  0  0  0  0  0  0  0  0  0
  183.5360  178.6300  144.7910 C   0  0  0  0  0  0  0  0  0  0  0  0
  185.1470  180.3710  143.5490 Cl  0  0  0  0  0  0  0  0  0  0  0  0
  182.2110  178.8090  144.7180 C   0  0  0  0  0  3  0  0  0  0  0  0
  183.5970  178.5730  142.3360 N   0  0  0  0  0  0  0  0  0  0  0  0
  184.8400  179.0030  140.2660 C   0  0  0  0  0  2  0  0  0  0  0  0
  184.2000  177.9530  141.1590 C   0  0  0  0  0  3  0  0  0  0  0  0
  183.4920  178.4290  139.9030 C   0  0  0  0  0  2  0  0  0  0  0  0
  3  8  1  0  0  0  0
  3  1  1  6  0  0  0
  4 14  1  6  0  0  0
  4 11  1  0  0  0  0
  4  9  1  0  0  0  0
  5  9  1  0  0  0  0
  6 24  1  6  0  0  0
  6  2  1  0  0  0  0
  7  5  1  0  0  0  0
  8 10  1  0  0  0  0
  9  3  1  0  0  0  0
 10  2  1  0  0  0  0
 11 13  1  0  0  0  0
 11  8  1  0  0  0  0
 12 10  1  0  0  0  0
 12  6  1  0  0  0  0
 13 12  1  0  0  0  0
 14  7  2  0  0  0  0
 15 17  1  0  0  0  0
 17 16  2  0  0  0  0
 17 14  1  0  0  0  0
 19 18  1  0  0  0  0
 19 15  1  0  0  0  0
 20 19  1  0  0  0  0
 21 23  1  0  0  0  0
 22 23  2  0  0  0  0
 23 19  1  0  0  0  0
 25 24  1  0  0  0  0
 26 31  1  0  0  0  0
 27 29  1  0  0  0  0
 28 32  1  0  0  0  0
 28 26  2  0  0  0  0
 29 25  1  0  0  0  0
 30 27  1  0  0  0  0
 31 29  2  0  0  0  0
 32 27  1  0  0  0  0
 33 34  1  0  0  0  0
 34 32  1  0  0  0  0
 35 33  1  0  0  0  0
 35 34  1  0  0  0  0
M  END
>  <MODEL>
6

>  <REMARK>
 VINA RESULT:      -8.3      2.555      6.314
  Name = 
  7 active torsions:
  status: ('A' for Active; 'I' for Inactive)
    1  A    between atoms: N_1  and  C_11
    2  A    between atoms: N_1  and  C_22
    3  A    between atoms: C_11  and  C_12
    4  A    between atoms: C_18  and  N_35
    5  A    between atoms: C_21  and  C_24
    6  A    between atoms: C_24  and  N_25
    7  A    between atoms: C_28  and  C_34
                            x       y       z     vdW  Elec       q    Type
                         _______ _______ _______ _____ _____    ______ ____

>  <TORSDO>
F 7

$$$$
=
 OpenBabel11062413453D

 35 40  0  0  1  0  0  0  0  0999 V2000
  190.0830  177.4510  146.9820 O   0  0  0  0  0  1  0  0  0  0  0  0
  186.0550  178.1420  146.0090 C   0  0  0  0  0  2  0  0  0  0  0  0
  189.6700  177.1770  145.6850 C   0  0  1  0  0  3  0  0  0  0  0  0
  189.7360  176.5070  143.5080 C   0  0  1  0  0  3  0  0  0  0  0  0
  191.6810  176.1530  144.7230 N   0  0  0  0  0  2  0  0  0  0  0  0
  185.3170  177.8890  144.8110 C   0  0  2  0  0  3  0  0  0  0  0  0
  191.9730  176.2050  143.4820 N   0  0  0  0  0  0  0  0  0  0  0  0
  188.6220  177.8770  144.9460 C   0  0  2  0  0  3  0  0  0  0  0  0
  190.2840  176.3630  144.8300 C   0  0  1  0  0  3  0  0  0  0  0  0
  187.2890  177.9850  145.1650 C   0  0  1  0  0  3  0  0  0  0  0  0
  188.6360  177.4620  143.5910 C   0  0  2  0  0  3  0  0  0  0  0  0
  186.5440  177.6830  144.0720 N   0  0  1  0  0  0  0  0  0  0  0  0
  187.3230  177.3120  143.0470 C   0  0  0  0  0  2  0  0  0  0  0  0
  190.7940  176.4830  142.7070 C   0  0  0  0  0  0  0  0  0  0  0  0
  189.9470  176.4170  140.3490 N   0  0  0  0  0  2  0  0  0  0  0  0
  191.6550  177.8800  140.9980 O   0  0  0  0  0  0  0  0  0  0  0  0
  190.8400  176.9750  141.3220 C   0  0  0  0  0  0  0  0  0  0  0  0
  191.3260  177.0830  138.4520 C   0  0  0  0  0  1  0  0  0  0  0  0
  189.9110  176.7810  138.9300 C   0  0  0  0  0  0  0  0  0  0  0  0
  189.3480  175.6250  138.1150 C   0  0  0  0  0  1  0  0  0  0  0  0
  189.0900  178.7540  137.4280 C   0  0  0  0  0  1  0  0  0  0  0  0
  188.0030  178.2540  139.5300 C   0  0  0  0  0  2  0  0  0  0  0  0
  189.0330  177.9980  138.7190 C   0  0  0  0  0  0  0  0  0  0  0  0
  184.6170  179.1550  144.3320 C   0  0  0  0  0  2  0  0  0  0  0  0
  184.5810  179.1840  142.8760 N   0  0  0  0  0  2  0  0  0  0  0  0
  181.0580  178.5480  141.7110 C   0  0  0  0  0  3  0  0  0  0  0  0
  183.7130  178.1070  140.7620 C   0  0  2  0  0  3  0  0  0  0  0  0
  181.2360  177.7800  140.6810 N   0  0  0  0  0  0  0  0  0  0  0  0
  183.4580  178.7490  142.0990 C   0  0  0  0  0  0  0  0  0  0  0  0
  184.1620  179.3780  139.5920 Cl  0  0  0  0  0  0  0  0  0  0  0  0
  182.2080  179.0030  142.5020 C   0  0  0  0  0  3  0  0  0  0  0  0
  182.5270  177.3880  140.2780 N   0  0  0  0  0  0  0  0  0  0  0  0
  182.4280  176.4660  138.0080 C   0  0  0  0  0  2  0  0  0  0  0  0
  182.6820  176.1760  139.4780 C   0  0  0  0  0  3  0  0  0  0  0  0
  181.3550  175.8040  138.8390 C   0  0  0  0  0  2  0  0  0  0  0  0
  3  1  1  6  0  0  0
  4 14  1  6  0  0  0
  4 11  1  0  0  0  0
  4  9  1  0  0  0  0
  5  9  1  0  0  0  0
  6 24  1  6  0  0  0
  6  2  1  0  0  0  0
  7  5  1  0  0  0  0
  8 10  1  0  0  0  0
  8  3  1  0  0  0  0
  9  3  1  0  0  0  0
 10  2  1  0  0  0  0
 11  8  1  0  0  0  0
 12  6  1  0  0  0  0
 12 10  1  0  0  0  0
 13 11  1  0  0  0  0
 13 12  1  0  0  0  0
 14  7  2  0  0  0  0
 15 17  1  0  0  0  0
 16 17  2  0  0  0  0
 17 14  1  0  0  0  0
 18 19  1  0  0  0  0
 19 15  1  0  0  0  0
 20 19  1  0  0  0  0
 21 23  1  0  0  0  0
 23 19  1  0  0  0  0
 23 22  2  0  0  0  0
 25 24  1  0  0  0  0
 26 31  1  0  0  0  0
 27 29  1  0  0  0  0
 28 26  2  0  0  0  0
 29 31  2  0  0  0  0
 29 25  1  0  0  0  0
 30 27  1  0  0  0  0
 32 28  1  0  0  0  0
 32 27  1  0  0  0  0
 33 35  1  0  0  0  0
 33 34  1  0  0  0  0
 34 32  1  0  0  0  0
 35 34  1  0  0  0  0
M  END
>  <MODEL>
7

>  <REMARK>
 VINA RESULT:      -8.2      2.998      7.044
  Name = 
  7 active torsions:
  status: ('A' for Active; 'I' for Inactive)
    1  A    between atoms: N_1  and  C_11
    2  A    between atoms: N_1  and  C_22
    3  A    between atoms: C_11  and  C_12
    4  A    between atoms: C_18  and  N_35
    5  A    between atoms: C_21  and  C_24
    6  A    between atoms: C_24  and  N_25
    7  A    between atoms: C_28  and  C_34
                            x       y       z     vdW  Elec       q    Type
                         _______ _______ _______ _____ _____    ______ ____

>  <TORSDO>
F 7

$$$$
=
 OpenBabel11062413453D

 35 40  0  0  1  0  0  0  0  0999 V2000
  185.2710  179.7530  140.7380 O   0  0  0  0  0  1  0  0  0  0  0  0
  188.7260  177.7170  139.4850 C   0  0  0  0  0  2  0  0  0  0  0  0
  185.8960  178.9100  141.6470 C   0  0  1  0  0  3  0  0  0  0  0  0
  186.3180  177.7600  143.5680 C   0  0  1  0  0  3  0  0  0  0  0  0
  184.3300  178.9580  143.5350 N   0  0  0  0  0  2  0  0  0  0  0  0
  189.5340  176.7370  140.1410 C   0  0  2  0  0  3  0  0  0  0  0  0
  184.6850  178.7790  144.7480 N   0  0  0  0  0  0  0  0  0  0  0  0
  187.3290  178.6280  141.7220 C   0  0  2  0  0  3  0  0  0  0  0  0
  185.3280  178.3660  142.7200 C   0  0  1  0  0  3  0  0  0  0  0  0
  188.1720  178.0290  140.8470 C   0  0  1  0  0  3  0  0  0  0  0  0
  187.6100  177.9000  142.9040 C   0  0  2  0  0  3  0  0  0  0  0  0
  188.9100  177.0410  141.4110 N   0  0  1  0  0  0  0  0  0  0  0  0
  188.5880  176.8780  142.7010 C   0  0  0  0  0  2  0  0  0  0  0  0
  185.9460  178.0890  144.7990 C   0  0  0  0  0  0  0  0  0  0  0  0
  188.0870  177.4370  145.9270 N   0  0  0  0  0  2  0  0  0  0  0  0
  186.4020  178.5930  147.0690 O   0  0  0  0  0  0  0  0  0  0  0  0
  186.8000  178.0640  145.9960 C   0  0  0  0  0  0  0  0  0  0  0  0
  189.0780  178.6190  147.8150 C   0  0  0  0  0  1  0  0  0  0  0  0
  189.0220  177.3040  147.0480 C   0  0  0  0  0  0  0  0  0  0  0  0
  188.5490  176.2030  147.9860 C   0  0  0  0  0  1  0  0  0  0  0  0
  190.9060  177.5240  145.2520 C   0  0  0  0  0  1  0  0  0  0  0  0
  191.3070  176.3780  147.3440 C   0  0  0  0  0  2  0  0  0  0  0  0
  190.4070  176.9510  146.5420 C   0  0  0  0  0  0  0  0  0  0  0  0
  190.9960  177.1660  140.1550 C   0  0  0  0  0  2  0  0  0  0  0  0
  191.5370  177.1390  138.8020 N   0  0  0  0  0  2  0  0  0  0  0  0
  191.2220  173.9340  136.8530 C   0  0  0  0  0  3  0  0  0  0  0  0
  193.3070  175.6030  137.8600 C   0  0  2  0  0  3  0  0  0  0  0  0
  192.4410  173.4910  136.8420 N   0  0  0  0  0  0  0  0  0  0  0  0
  191.8580  175.9350  138.0970 C   0  0  0  0  0  0  0  0  0  0  0  0
  193.9300  176.6530  136.5590 Cl  0  0  0  0  0  0  0  0  0  0  0  0
  190.8930  175.1730  137.5670 C   0  0  0  0  0  3  0  0  0  0  0  0
  193.4790  174.1940  137.4830 N   0  0  0  0  0  0  0  0  0  0  0  0
  195.7080  173.4670  136.7650 C   0  0  0  0  0  2  0  0  0  0  0  0
  194.6830  173.4710  137.8860 C   0  0  0  0  0  3  0  0  0  0  0  0
  194.8630  172.2400  137.0140 C   0  0  0  0  0  2  0  0  0  0  0  0
  2  6  1  0  0  0  0
  2 10  1  0  0  0  0
  3  1  1  1  0  0  0
  3  8  1  0  0  0  0
  3  9  1  0  0  0  0
  4 14  1  1  0  0  0
  5  7  1  0  0  0  0
  6 24  1  1  0  0  0
  6 12  1  0  0  0  0
  7 14  2  0  0  0  0
  8 11  1  0  0  0  0
  9  5  1  0  0  0  0
  9  4  1  0  0  0  0
 10 12  1  0  0  0  0
 10  8  1  0  0  0  0
 11  4  1  0  0  0  0
 12 13  1  0  0  0  0
 13 11  1  0  0  0  0
 14 17  1  0  0  0  0
 15 17  1  0  0  0  0
 15 19  1  0  0  0  0
 17 16  2  0  0  0  0
 19 18  1  0  0  0  0
 19 20  1  0  0  0  0
 21 23  1  0  0  0  0
 23 19  1  0  0  0  0
 23 22  2  0  0  0  0
 25 24  1  0  0  0  0
 26 31  1  0  0  0  0
 27 29  1  0  0  0  0
 28 26  2  0  0  0  0
 28 32  1  0  0  0  0
 29 25  1  0  0  0  0
 30 27  1  0  0  0  0
 31 29  2  0  0  0  0
 32 27  1  0  0  0  0
 32 34  1  0  0  0  0
 33 35  1  0  0  0  0
 33 34  1  0  0  0  0
 35 34  1  0  0  0  0
M  END
>  <MODEL>
8

>  <REMARK>
 VINA RESULT:      -8.2      4.107      7.895
  Name = 
  7 active torsions:
  status: ('A' for Active; 'I' for Inactive)
    1  A    between atoms: N_1  and  C_11
    2  A    between atoms: N_1  and  C_22
    3  A    between atoms: C_11  and  C_12
    4  A    between atoms: C_18  and  N_35
    5  A    between atoms: C_21  and  C_24
    6  A    between atoms: C_24  and  N_25
    7  A    between atoms: C_28  and  C_34
                            x       y       z     vdW  Elec       q    Type
                         _______ _______ _______ _____ _____    ______ ____

>  <TORSDO>
F 7

$$$$
=
 OpenBabel11062413453D

 35 40  0  0  1  0  0  0  0  0999 V2000
  180.9620  178.4820  141.4620 O   0  0  0  0  0  1  0  0  0  0  0  0
  183.5450  178.7070  144.7670 C   0  0  0  0  0  2  0  0  0  0  0  0
  182.3070  178.7310  141.2220 C   0  0  1  0  0  3  0  0  0  0  0  0
  184.2420  179.1690  140.1010 C   0  0  1  0  0  3  0  0  0  0  0  0
  182.3180  179.1450  138.8040 N   0  0  0  0  0  2  0  0  0  0  0  0
  184.9360  179.0250  144.8580 C   0  0  2  0  0  3  0  0  0  0  0  0
  183.3240  178.9130  138.0540 N   0  0  0  0  0  0  0  0  0  0  0  0
  183.4320  178.2440  142.0180 C   0  0  2  0  0  3  0  0  0  0  0  0
  182.8100  179.2910  140.1250 C   0  0  1  0  0  3  0  0  0  0  0  0
  183.7920  178.4830  143.3020 C   0  0  1  0  0  3  0  0  0  0  0  0
  184.6470  178.5200  141.3450 C   0  0  2  0  0  3  0  0  0  0  0  0
  185.0900  178.8590  143.4290 N   0  0  1  0  0  0  0  0  0  0  0  0
  185.6870  178.9360  142.2320 C   0  0  0  0  0  2  0  0  0  0  0  0
  184.5270  178.8620  138.8410 C   0  0  0  0  0  0  0  0  0  0  0  0
  185.7180  177.2330  137.3550 N   0  0  0  0  0  2  0  0  0  0  0  0
  186.8850  178.6280  138.8290 O   0  0  0  0  0  0  0  0  0  0  0  0
  185.7760  178.2530  138.3610 C   0  0  0  0  0  0  0  0  0  0  0  0
  187.4540  177.3000  135.6450 C   0  0  0  0  0  1  0  0  0  0  0  0
  186.8750  176.5140  136.8150 C   0  0  0  0  0  0  0  0  0  0  0  0
  187.9410  176.3690  137.8920 C   0  0  0  0  0  1  0  0  0  0  0  0
  186.7560  174.6960  134.9430 C   0  0  0  0  0  1  0  0  0  0  0  0
  186.1150  174.1840  137.2180 C   0  0  0  0  0  2  0  0  0  0  0  0
  186.4660  175.1320  136.3460 C   0  0  0  0  0  0  0  0  0  0  0  0
  185.6910  177.9290  145.6020 C   0  0  0  0  0  2  0  0  0  0  0  0
  186.9650  178.4430  146.0880 N   0  0  0  0  0  2  0  0  0  0  0  0
  190.3490  176.8130  146.3330 C   0  0  0  0  0  3  0  0  0  0  0  0
  188.5920  177.7450  144.2860 C   0  0  2  0  0  3  0  0  0  0  0  0
  190.7940  176.9040  145.1180 N   0  0  0  0  0  0  0  0  0  0  0  0
  188.2350  177.8780  145.7420 C   0  0  0  0  0  0  0  0  0  0  0  0
  187.6790  176.3760  143.5950 Cl  0  0  0  0  0  0  0  0  0  0  0  0
  189.0430  177.3820  146.6860 C   0  0  0  0  0  3  0  0  0  0  0  0
  190.0330  177.5190  144.1060 N   0  0  0  0  0  0  0  0  0  0  0  0
  190.5650  177.1020  141.7490 C   0  0  0  0  0  2  0  0  0  0  0  0
  190.7140  178.0490  142.9280 C   0  0  0  0  0  3  0  0  0  0  0  0
  191.8560  177.1280  142.5330 C   0  0  0  0  0  2  0  0  0  0  0  0
  2  6  1  0  0  0  0
  3  1  1  6  0  0  0
  3  8  1  0  0  0  0
  4 14  1  6  0  0  0
  4  9  1  0  0  0  0
  4 11  1  0  0  0  0
  5  9  1  0  0  0  0
  6 24  1  1  0  0  0
  7  5  1  0  0  0  0
  7 14  2  0  0  0  0
  8 10  1  0  0  0  0
  9  3  1  0  0  0  0
 10 12  1  0  0  0  0
 10  2  1  0  0  0  0
 11  8  1  0  0  0  0
 11 13  1  0  0  0  0
 12  6  1  0  0  0  0
 13 12  1  0  0  0  0
 15 17  1  0  0  0  0
 17 16  2  0  0  0  0
 17 14  1  0  0  0  0
 18 19  1  0  0  0  0
 19 15  1  0  0  0  0
 19 20  1  0  0  0  0
 21 23  1  0  0  0  0
 23 19  1  0  0  0  0
 23 22  2  0  0  0  0
 24 25  1  0  0  0  0
 26 31  1  0  0  0  0
 27 29  1  0  0  0  0
 28 26  2  0  0  0  0
 29 25  1  0  0  0  0
 29 31  2  0  0  0  0
 30 27  1  0  0  0  0
 32 27  1  0  0  0  0
 32 28  1  0  0  0  0
 33 35  1  0  0  0  0
 33 34  1  0  0  0  0
 34 32  1  0  0  0  0
 35 34  1  0  0  0  0
M  END
>  <MODEL>
9

>  <REMARK>
 VINA RESULT:      -8.1      1.516      2.239
  Name = 
  7 active torsions:
  status: ('A' for Active; 'I' for Inactive)
    1  A    between atoms: N_1  and  C_11
    2  A    between atoms: N_1  and  C_22
    3  A    between atoms: C_11  and  C_12
    4  A    between atoms: C_18  and  N_35
    5  A    between atoms: C_21  and  C_24
    6  A    between atoms: C_24  and  N_25
    7  A    between atoms: C_28  and  C_34
                            x       y       z     vdW  Elec       q    Type
                         _______ _______ _______ _____ _____    ______ ____

>  <TORSDO>
F 7

$$$$
