=
 OpenBabel11062413273D

 30 32  0  0  1  0  0  0  0  0999 V2000
  187.3470  179.0080  140.4180 N   0  0  0  0  0  0  0  0  0  0  0  0
  188.5950  178.2400  140.4240 C   0  0  1  0  0  3  0  0  0  0  0  0
  188.4330  177.0590  141.3610 C   0  0  2  0  0  3  0  0  0  0  0  0
  186.4680  178.4400  139.5540 O   0  0  0  0  0  1  0  0  0  0  0  0
  187.2600  177.4460  142.2620 C   0  0  2  0  0  3  0  0  0  0  0  0
  186.7960  178.8050  141.7530 C   0  0  0  0  0  2  0  0  0  0  0  0
  184.8870  178.7450  146.5880 N   0  0  0  0  0  0  0  0  0  0  0  0
  186.1510  178.4380  146.9760 C   0  0  0  0  0  3  0  0  0  0  0  0
  185.4180  178.2480  144.3540 N   0  0  0  0  0  0  0  0  0  0  0  0
  184.5190  178.6500  145.2860 C   0  0  0  0  0  3  0  0  0  0  0  0
  186.6980  177.9300  144.6920 C   0  0  0  0  0  0  0  0  0  0  0  0
  187.1050  178.0180  146.0420 C   0  0  0  0  0  0  0  0  0  0  0  0
  187.6210  177.5330  143.6730 N   0  0  0  0  0  2  0  0  0  0  0  0
  191.7880  176.4070  145.5220 C   0  0  0  0  0  1  0  0  0  0  0  0
  188.1920  178.2240  148.9270 N   0  0  0  0  0  1  0  0  0  0  0  0
  188.4780  177.6600  146.4900 C   0  0  0  0  0  0  0  0  0  0  0  0
  190.5920  176.9220  146.2380 C   0  0  0  0  0  0  0  0  0  0  0  0
  188.9310  177.7380  147.8110 C   0  0  0  0  0  0  0  0  0  0  0  0
  190.5310  177.2360  147.8880 S   0  0  0  0  0  0  0  0  0  0  0  0
  189.4200  177.1960  145.6240 N   0  0  0  0  0  0  0  0  0  0  0  0
  189.1330  177.8830  139.0600 C   0  0  0  0  0  0  0  0  0  0  0  0
  189.3940  178.8150  138.1400 C   0  0  0  0  0  2  0  0  0  0  0  0
  189.2570  176.4380  138.7010 C   0  0  0  0  0  2  0  0  0  0  0  0
  190.5380  175.9780  139.0090 O   0  0  0  0  0  0  0  0  0  0  0  0
  191.1490  175.7780  137.7710 C   0  0  0  0  0  2  0  0  0  0  0  0
  192.5600  176.3230  137.8110 C   0  0  0  0  0  1  0  0  0  0  0  0
  189.7260  176.7340  142.0610 C   0  0  0  0  0  0  0  0  0  0  0  0
  189.9370  175.6090  142.4920 O   0  0  0  0  0  0  0  0  0  0  0  0
  191.8890  177.5160  141.5280 O   0  0  0  0  0  1  0  0  0  0  0  0
  190.7400  177.8080  142.2610 C   0  0  0  0  0  2  0  0  0  0  0  0
  1  2  1  0  0  0  0
  1  6  1  0  0  0  0
  2 21  1  6  0  0  0
  2  3  1  0  0  0  0
  3 27  1  1  0  0  0
  3  5  1  0  0  0  0
  4  1  1  0  0  0  0
  5 13  1  1  0  0  0
  6  5  1  0  0  0  0
  7  8  1  0  0  0  0
  9 11  2  0  0  0  0
  9 10  1  0  0  0  0
 10  7  2  0  0  0  0
 11 12  1  0  0  0  0
 12 16  1  0  0  0  0
 12  8  2  0  0  0  0
 13 11  1  0  0  0  0
 14 17  1  0  0  0  0
 16 18  2  0  0  0  0
 17 19  1  0  0  0  0
 18 19  1  0  0  0  0
 18 15  1  0  0  0  0
 20 17  2  0  0  0  0
 20 16  1  0  0  0  0
 22 21  2  0  0  0  0
 23 24  1  0  0  0  0
 23 21  1  0  0  0  0
 25 26  1  0  0  0  0
 25 24  1  0  0  0  0
 27 30  1  0  0  0  0
 27 28  2  0  0  0  0
 29 30  1  0  0  0  0
M  END
>  <MODEL>
1

>  <REMARK>
 VINA RESULT:      -7.7      0.000      0.000
  Name = 
  8 active torsions:
  status: ('A' for Active; 'I' for Inactive)
    1  A    between atoms: C_5  and  C_6
    2  A    between atoms: C_6  and  C_16
    3  A    between atoms: C_7  and  C_12
    4  A    between atoms: C_12  and  C_26
    5  A    between atoms: C_13  and  O_17
    6  A    between atoms: C_16  and  O_17
    7  A    between atoms: C_18  and  C_19
    8  A    between atoms: C_20  and  N_24
                            x       y       z     vdW  Elec       q    Type
                         _______ _______ _______ _____ _____    ______ ____

>  <TORSDO>
F 8

$$$$
=
 OpenBabel11062413273D

 30 32  0  0  1  0  0  0  0  0999 V2000
  187.3730  179.0310  140.4640 N   0  0  0  0  0  0  0  0  0  0  0  0
  188.6150  178.2520  140.4690 C   0  0  1  0  0  3  0  0  0  0  0  0
  188.4420  177.0710  141.4040 C   0  0  2  0  0  3  0  0  0  0  0  0
  186.4900  178.4730  139.5980 O   0  0  0  0  0  1  0  0  0  0  0  0
  187.2720  177.4670  142.3050 C   0  0  2  0  0  3  0  0  0  0  0  0
  186.8190  178.8300  141.7980 C   0  0  0  0  0  2  0  0  0  0  0  0
  184.9010  178.7550  146.6350 N   0  0  0  0  0  0  0  0  0  0  0  0
  186.1640  178.4440  147.0220 C   0  0  0  0  0  3  0  0  0  0  0  0
  185.4310  178.2650  144.3990 N   0  0  0  0  0  0  0  0  0  0  0  0
  184.5330  178.6660  145.3330 C   0  0  0  0  0  3  0  0  0  0  0  0
  186.7100  177.9430  144.7370 C   0  0  0  0  0  0  0  0  0  0  0  0
  187.1170  178.0250  146.0870 C   0  0  0  0  0  0  0  0  0  0  0  0
  187.6330  177.5480  143.7160 N   0  0  0  0  0  2  0  0  0  0  0  0
  191.8020  176.4200  145.5600 C   0  0  0  0  0  1  0  0  0  0  0  0
  188.2000  178.2020  148.9760 N   0  0  0  0  0  1  0  0  0  0  0  0
  188.4890  177.6620  146.5340 C   0  0  0  0  0  0  0  0  0  0  0  0
  190.6040  176.9270  146.2790 C   0  0  0  0  0  0  0  0  0  0  0  0
  188.9400  177.7270  147.8560 C   0  0  0  0  0  0  0  0  0  0  0  0
  190.5400  177.2240  147.9320 S   0  0  0  0  0  0  0  0  0  0  0  0
  189.4340  177.2070  145.6650 N   0  0  0  0  0  0  0  0  0  0  0  0
  189.1500  177.8930  139.1040 C   0  0  0  0  0  0  0  0  0  0  0  0
  189.6980  176.7020  138.8550 C   0  0  0  0  0  2  0  0  0  0  0  0
  189.1720  178.9500  138.0500 C   0  0  0  0  0  2  0  0  0  0  0  0
  189.0060  178.3700  136.7900 O   0  0  0  0  0  0  0  0  0  0  0  0
  187.7210  178.7420  136.3960 C   0  0  0  0  0  2  0  0  0  0  0  0
  186.8870  177.5010  136.1590 C   0  0  0  0  0  1  0  0  0  0  0  0
  189.7320  176.7340  142.1040 C   0  0  0  0  0  0  0  0  0  0  0  0
  189.9420  175.6010  142.5140 O   0  0  0  0  0  0  0  0  0  0  0  0
  191.9610  177.4320  141.7640 O   0  0  0  0  0  1  0  0  0  0  0  0
  190.7430  177.8050  142.3300 C   0  0  0  0  0  2  0  0  0  0  0  0
  1  2  1  0  0  0  0
  1  6  1  0  0  0  0
  2 21  1  6  0  0  0
  2  3  1  0  0  0  0
  3 27  1  1  0  0  0
  3  5  1  0  0  0  0
  4  1  1  0  0  0  0
  5 13  1  1  0  0  0
  6  5  1  0  0  0  0
  7  8  1  0  0  0  0
  9 11  2  0  0  0  0
  9 10  1  0  0  0  0
 10  7  2  0  0  0  0
 11 12  1  0  0  0  0
 12 16  1  0  0  0  0
 12  8  2  0  0  0  0
 13 11  1  0  0  0  0
 14 17  1  0  0  0  0
 16 18  2  0  0  0  0
 17 19  1  0  0  0  0
 18 19  1  0  0  0  0
 18 15  1  0  0  0  0
 20 17  2  0  0  0  0
 20 16  1  0  0  0  0
 22 21  2  0  0  0  0
 23 21  1  0  0  0  0
 24 23  1  0  0  0  0
 25 24  1  0  0  0  0
 26 25  1  0  0  0  0
 27 30  1  0  0  0  0
 27 28  2  0  0  0  0
 29 30  1  0  0  0  0
M  END
>  <MODEL>
2

>  <REMARK>
 VINA RESULT:      -7.6      1.021      1.670
  Name = 
  8 active torsions:
  status: ('A' for Active; 'I' for Inactive)
    1  A    between atoms: C_5  and  C_6
    2  A    between atoms: C_6  and  C_16
    3  A    between atoms: C_7  and  C_12
    4  A    between atoms: C_12  and  C_26
    5  A    between atoms: C_13  and  O_17
    6  A    between atoms: C_16  and  O_17
    7  A    between atoms: C_18  and  C_19
    8  A    between atoms: C_20  and  N_24
                            x       y       z     vdW  Elec       q    Type
                         _______ _______ _______ _____ _____    ______ ____

>  <TORSDO>
F 8

$$$$
=
 OpenBabel11062413273D

 30 32  0  0  1  0  0  0  0  0999 V2000
  187.4490  177.3760  144.3190 N   0  0  0  0  0  0  0  0  0  0  0  0
  188.8420  177.0090  144.0480 C   0  0  1  0  0  3  0  0  0  0  0  0
  189.3750  177.9100  142.9510 C   0  0  2  0  0  3  0  0  0  0  0  0
  187.4150  178.4320  145.1700 O   0  0  0  0  0  1  0  0  0  0  0  0
  188.1230  178.4550  142.2640 C   0  0  2  0  0  3  0  0  0  0  0  0
  186.9520  177.8650  143.0400 C   0  0  0  0  0  2  0  0  0  0  0  0
  184.5860  178.7790  138.6010 N   0  0  0  0  0  0  0  0  0  0  0  0
  185.6420  178.1770  137.9970 C   0  0  0  0  0  3  0  0  0  0  0  0
  185.7830  178.9280  140.6170 N   0  0  0  0  0  0  0  0  0  0  0  0
  184.6530  179.1540  139.9020 C   0  0  0  0  0  3  0  0  0  0  0  0
  186.8680  178.3260  140.0580 C   0  0  0  0  0  0  0  0  0  0  0  0
  186.8250  177.9290  138.7030 C   0  0  0  0  0  0  0  0  0  0  0  0
  188.0320  178.0840  140.8550 N   0  0  0  0  0  2  0  0  0  0  0  0
  189.6310  174.1580  137.0600 C   0  0  0  0  0  1  0  0  0  0  0  0
  189.1440  179.4050  137.2900 N   0  0  0  0  0  1  0  0  0  0  0  0
  187.9820  177.2930  138.0170 C   0  0  0  0  0  0  0  0  0  0  0  0
  189.2430  175.5740  137.2860 C   0  0  0  0  0  0  0  0  0  0  0  0
  189.0310  177.9900  137.4100 C   0  0  0  0  0  0  0  0  0  0  0  0
  190.1320  176.9010  136.7620 S   0  0  0  0  0  0  0  0  0  0  0  0
  188.1200  175.9400  137.9420 N   0  0  0  0  0  0  0  0  0  0  0  0
  189.7290  176.9170  145.2650 C   0  0  0  0  0  0  0  0  0  0  0  0
  191.0600  176.9000  145.1660 C   0  0  0  0  0  2  0  0  0  0  0  0
  189.0870  176.7190  146.5990 C   0  0  0  0  0  2  0  0  0  0  0  0
  189.9610  177.1140  147.6130 O   0  0  0  0  0  0  0  0  0  0  0  0
  189.3220  178.1880  148.2320 C   0  0  0  0  0  2  0  0  0  0  0  0
  187.9330  177.7690  148.6640 C   0  0  0  0  0  1  0  0  0  0  0  0
  190.3510  177.1790  142.0680 C   0  0  0  0  0  0  0  0  0  0  0  0
  190.1820  176.0000  141.7910 O   0  0  0  0  0  0  0  0  0  0  0  0
  191.7990  177.5270  140.2360 O   0  0  0  0  0  1  0  0  0  0  0  0
  191.5530  177.8970  141.5570 C   0  0  0  0  0  2  0  0  0  0  0  0
  1  4  1  0  0  0  0
  2  1  1  0  0  0  0
  2 21  1  1  0  0  0
  3 27  1  6  0  0  0
  3  2  1  0  0  0  0
  5 13  1  6  0  0  0
  5  3  1  0  0  0  0
  5  6  1  0  0  0  0
  6  1  1  0  0  0  0
  7 10  2  0  0  0  0
  8  7  1  0  0  0  0
  8 12  2  0  0  0  0
 10  9  1  0  0  0  0
 11  9  2  0  0  0  0
 11 13  1  0  0  0  0
 12 11  1  0  0  0  0
 14 17  1  0  0  0  0
 15 18  1  0  0  0  0
 16 12  1  0  0  0  0
 17 20  2  0  0  0  0
 18 16  2  0  0  0  0
 19 17  1  0  0  0  0
 19 18  1  0  0  0  0
 20 16  1  0  0  0  0
 21 23  1  0  0  0  0
 22 21  2  0  0  0  0
 23 24  1  0  0  0  0
 24 25  1  0  0  0  0
 25 26  1  0  0  0  0
 28 27  2  0  0  0  0
 29 30  1  0  0  0  0
 30 27  1  0  0  0  0
M  END
>  <MODEL>
3

>  <REMARK>
 VINA RESULT:      -7.5      3.062      7.103
  Name = 
  8 active torsions:
  status: ('A' for Active; 'I' for Inactive)
    1  A    between atoms: C_5  and  C_6
    2  A    between atoms: C_6  and  C_16
    3  A    between atoms: C_7  and  C_12
    4  A    between atoms: C_12  and  C_26
    5  A    between atoms: C_13  and  O_17
    6  A    between atoms: C_16  and  O_17
    7  A    between atoms: C_18  and  C_19
    8  A    between atoms: C_20  and  N_24
                            x       y       z     vdW  Elec       q    Type
                         _______ _______ _______ _____ _____    ______ ____

>  <TORSDO>
F 8

$$$$
=
 OpenBabel11062413273D

 30 32  0  0  1  0  0  0  0  0999 V2000
  187.0460  177.2150  144.6780 N   0  0  0  0  0  0  0  0  0  0  0  0
  188.5000  177.0680  144.7960 C   0  0  1  0  0  3  0  0  0  0  0  0
  189.1640  178.0250  143.8250 C   0  0  2  0  0  3  0  0  0  0  0  0
  186.6330  178.2660  145.4300 O   0  0  0  0  0  1  0  0  0  0  0  0
  188.0710  178.3550  142.8080 C   0  0  2  0  0  3  0  0  0  0  0  0
  186.8370  177.6010  143.2880 C   0  0  0  0  0  2  0  0  0  0  0  0
  185.8190  178.5990  138.2370 N   0  0  0  0  0  0  0  0  0  0  0  0
  187.0040  177.9830  137.9960 C   0  0  0  0  0  3  0  0  0  0  0  0
  186.3460  178.7920  140.5180 N   0  0  0  0  0  0  0  0  0  0  0  0
  185.4890  179.0030  139.4880 C   0  0  0  0  0  3  0  0  0  0  0  0
  187.5460  178.1780  140.3280 C   0  0  0  0  0  0  0  0  0  0  0  0
  187.9140  177.7500  139.0340 C   0  0  0  0  0  0  0  0  0  0  0  0
  188.4100  177.9530  141.4470 N   0  0  0  0  0  2  0  0  0  0  0  0
  192.8420  177.0970  139.3400 C   0  0  0  0  0  1  0  0  0  0  0  0
  188.3630  175.2890  137.2200 N   0  0  0  0  0  1  0  0  0  0  0  0
  189.2200  177.0980  138.7460 C   0  0  0  0  0  0  0  0  0  0  0  0
  191.4520  176.8210  138.8900 C   0  0  0  0  0  0  0  0  0  0  0  0
  189.3940  176.0010  137.8960 C   0  0  0  0  0  0  0  0  0  0  0  0
  191.0190  175.5820  137.8400 S   0  0  0  0  0  0  0  0  0  0  0  0
  190.3850  177.5470  139.2890 N   0  0  0  0  0  0  0  0  0  0  0  0
  189.0380  177.1360  146.2040 C   0  0  0  0  0  0  0  0  0  0  0  0
  188.2720  176.8670  147.2640 C   0  0  0  0  0  2  0  0  0  0  0  0
  190.4290  177.6370  146.4090 C   0  0  0  0  0  2  0  0  0  0  0  0
  190.9860  177.0500  147.5470 O   0  0  0  0  0  0  0  0  0  0  0  0
  191.7850  176.0170  147.0560 C   0  0  0  0  0  2  0  0  0  0  0  0
  192.8040  175.6260  148.1050 C   0  0  0  0  0  1  0  0  0  0  0  0
  190.4350  177.4440  143.2660 C   0  0  0  0  0  0  0  0  0  0  0  0
  191.3710  178.1680  142.9580 O   0  0  0  0  0  0  0  0  0  0  0  0
  191.6760  175.4790  143.6830 O   0  0  0  0  0  1  0  0  0  0  0  0
  190.5340  175.9720  143.0530 C   0  0  0  0  0  2  0  0  0  0  0  0
  1  2  1  0  0  0  0
  1  4  1  0  0  0  0
  2 21  1  1  0  0  0
  3 27  1  6  0  0  0
  3  2  1  0  0  0  0
  5 13  1  6  0  0  0
  5  6  1  0  0  0  0
  5  3  1  0  0  0  0
  6  1  1  0  0  0  0
  7 10  2  0  0  0  0
  8  7  1  0  0  0  0
  8 12  2  0  0  0  0
 10  9  1  0  0  0  0
 11  9  2  0  0  0  0
 11 13  1  0  0  0  0
 12 11  1  0  0  0  0
 15 18  1  0  0  0  0
 16 12  1  0  0  0  0
 16 20  1  0  0  0  0
 17 20  2  0  0  0  0
 17 14  1  0  0  0  0
 18 16  2  0  0  0  0
 19 18  1  0  0  0  0
 19 17  1  0  0  0  0
 21 23  1  0  0  0  0
 21 22  2  0  0  0  0
 23 24  1  0  0  0  0
 25 24  1  0  0  0  0
 25 26  1  0  0  0  0
 28 27  2  0  0  0  0
 30 27  1  0  0  0  0
 30 29  1  0  0  0  0
M  END
>  <MODEL>
4

>  <REMARK>
 VINA RESULT:      -7.3      2.984      6.854
  Name = 
  8 active torsions:
  status: ('A' for Active; 'I' for Inactive)
    1  A    between atoms: C_5  and  C_6
    2  A    between atoms: C_6  and  C_16
    3  A    between atoms: C_7  and  C_12
    4  A    between atoms: C_12  and  C_26
    5  A    between atoms: C_13  and  O_17
    6  A    between atoms: C_16  and  O_17
    7  A    between atoms: C_18  and  C_19
    8  A    between atoms: C_20  and  N_24
                            x       y       z     vdW  Elec       q    Type
                         _______ _______ _______ _____ _____    ______ ____

>  <TORSDO>
F 8

$$$$
=
 OpenBabel11062413273D

 30 32  0  0  1  0  0  0  0  0999 V2000
  190.8330  178.9090  144.6930 N   0  0  0  0  0  0  0  0  0  0  0  0
  189.6610  178.1160  145.0730 C   0  0  1  0  0  3  0  0  0  0  0  0
  189.4770  177.0070  144.0560 C   0  0  2  0  0  3  0  0  0  0  0  0
  191.9590  178.3040  145.1480 O   0  0  0  0  0  1  0  0  0  0  0  0
  190.2570  177.4810  142.8300 C   0  0  2  0  0  3  0  0  0  0  0  0
  190.8760  178.8110  143.2390 C   0  0  0  0  0  2  0  0  0  0  0  0
  190.8720  176.9900  137.7890 N   0  0  0  0  0  0  0  0  0  0  0  0
  189.5850  177.3950  137.9330 C   0  0  0  0  0  3  0  0  0  0  0  0
  191.1740  177.0110  140.1180 N   0  0  0  0  0  0  0  0  0  0  0  0
  191.6640  176.7970  138.8720 C   0  0  0  0  0  3  0  0  0  0  0  0
  189.8900  177.4190  140.3160 C   0  0  0  0  0  0  0  0  0  0  0  0
  189.0440  177.6240  139.2040 C   0  0  0  0  0  0  0  0  0  0  0  0
  189.4200  177.6570  141.6470 N   0  0  0  0  0  2  0  0  0  0  0  0
  184.9970  179.2700  141.5930 C   0  0  0  0  0  1  0  0  0  0  0  0
  186.9330  177.6900  136.9480 N   0  0  0  0  0  1  0  0  0  0  0  0
  187.6230  178.0420  139.3430 C   0  0  0  0  0  0  0  0  0  0  0  0
  185.8000  178.7820  140.4410 C   0  0  0  0  0  0  0  0  0  0  0  0
  186.6840  178.0340  138.3070 C   0  0  0  0  0  0  0  0  0  0  0  0
  185.2010  178.5690  138.8850 S   0  0  0  0  0  0  0  0  0  0  0  0
  187.1080  178.4590  140.5330 N   0  0  0  0  0  0  0  0  0  0  0  0
  189.6390  177.6540  146.5090 C   0  0  0  0  0  0  0  0  0  0  0  0
  188.9460  178.3050  147.4470 C   0  0  0  0  0  2  0  0  0  0  0  0
  190.5160  176.5110  146.9010 C   0  0  0  0  0  2  0  0  0  0  0  0
  191.4990  176.9470  147.7900 O   0  0  0  0  0  0  0  0  0  0  0  0
  192.4120  175.8930  147.8520 C   0  0  0  0  0  2  0  0  0  0  0  0
  192.4540  175.1830  146.5160 C   0  0  0  0  0  1  0  0  0  0  0  0
  188.0190  176.7020  143.8350 C   0  0  0  0  0  0  0  0  0  0  0  0
  187.6730  175.6600  143.2980 O   0  0  0  0  0  0  0  0  0  0  0  0
  186.3010  177.2370  145.3640 O   0  0  0  0  0  1  0  0  0  0  0  0
  186.9930  177.7020  144.2460 C   0  0  0  0  0  2  0  0  0  0  0  0
  1  2  1  0  0  0  0
  1  4  1  0  0  0  0
  2 21  1  1  0  0  0
  3 27  1  6  0  0  0
  3  2  1  0  0  0  0
  5 13  1  6  0  0  0
  5  6  1  0  0  0  0
  5  3  1  0  0  0  0
  6  1  1  0  0  0  0
  7  8  1  0  0  0  0
  7 10  2  0  0  0  0
  8 12  2  0  0  0  0
  9 11  2  0  0  0  0
 10  9  1  0  0  0  0
 11 13  1  0  0  0  0
 12 16  1  0  0  0  0
 12 11  1  0  0  0  0
 15 18  1  0  0  0  0
 16 20  1  0  0  0  0
 17 20  2  0  0  0  0
 17 14  1  0  0  0  0
 18 19  1  0  0  0  0
 18 16  2  0  0  0  0
 19 17  1  0  0  0  0
 21 23  1  0  0  0  0
 21 22  2  0  0  0  0
 23 24  1  0  0  0  0
 24 25  1  0  0  0  0
 26 25  1  0  0  0  0
 27 30  1  0  0  0  0
 28 27  2  0  0  0  0
 30 29  1  0  0  0  0
M  END
>  <MODEL>
5

>  <REMARK>
 VINA RESULT:      -7.3      3.284      7.553
  Name = 
  8 active torsions:
  status: ('A' for Active; 'I' for Inactive)
    1  A    between atoms: C_5  and  C_6
    2  A    between atoms: C_6  and  C_16
    3  A    between atoms: C_7  and  C_12
    4  A    between atoms: C_12  and  C_26
    5  A    between atoms: C_13  and  O_17
    6  A    between atoms: C_16  and  O_17
    7  A    between atoms: C_18  and  C_19
    8  A    between atoms: C_20  and  N_24
                            x       y       z     vdW  Elec       q    Type
                         _______ _______ _______ _____ _____    ______ ____

>  <TORSDO>
F 8

$$$$
=
 OpenBabel11062413273D

 30 32  0  0  1  0  0  0  0  0999 V2000
  191.5430  176.7630  141.2050 N   0  0  0  0  0  0  0  0  0  0  0  0
  190.1690  176.9530  140.7330 C   0  0  1  0  0  3  0  0  0  0  0  0
  189.5580  178.1210  141.4810 C   0  0  2  0  0  3  0  0  0  0  0  0
  192.3710  177.6150  140.5510 O   0  0  0  0  0  1  0  0  0  0  0  0
  190.4290  178.2730  142.7280 C   0  0  2  0  0  3  0  0  0  0  0  0
  191.5110  177.2090  142.5930 C   0  0  0  0  0  2  0  0  0  0  0  0
  191.3390  176.0800  147.2440 N   0  0  0  0  0  0  0  0  0  0  0  0
  190.0720  176.5550  147.3490 C   0  0  0  0  0  3  0  0  0  0  0  0
  191.5060  176.9220  145.0570 N   0  0  0  0  0  0  0  0  0  0  0  0
  192.0550  176.2620  146.1070 C   0  0  0  0  0  3  0  0  0  0  0  0
  190.2390  177.4160  145.1130 C   0  0  0  0  0  0  0  0  0  0  0  0
  189.4740  177.2430  146.2870 C   0  0  0  0  0  0  0  0  0  0  0  0
  189.6900  178.0850  143.9730 N   0  0  0  0  0  2  0  0  0  0  0  0
  184.9310  178.5920  144.7560 C   0  0  0  0  0  1  0  0  0  0  0  0
  188.1740  178.2540  148.9020 N   0  0  0  0  0  1  0  0  0  0  0  0
  188.0940  177.7790  146.4310 C   0  0  0  0  0  0  0  0  0  0  0  0
  186.0440  178.3910  145.7200 C   0  0  0  0  0  0  0  0  0  0  0  0
  187.5440  178.2560  147.6250 C   0  0  0  0  0  0  0  0  0  0  0  0
  185.9710  178.7770  147.3540 S   0  0  0  0  0  0  0  0  0  0  0  0
  187.2410  177.8670  145.3730 N   0  0  0  0  0  0  0  0  0  0  0  0
  190.0110  177.0210  139.2340 C   0  0  0  0  0  0  0  0  0  0  0  0
  190.4000  176.0210  138.4390 C   0  0  0  0  0  2  0  0  0  0  0  0
  189.5170  178.2940  138.6290 C   0  0  0  0  0  2  0  0  0  0  0  0
  189.4870  178.1810  137.2380 O   0  0  0  0  0  0  0  0  0  0  0  0
  188.2730  178.7570  136.8630 C   0  0  0  0  0  2  0  0  0  0  0  0
  187.1960  177.6930  136.8420 C   0  0  0  0  0  1  0  0  0  0  0  0
  188.0870  177.9090  141.7220 C   0  0  0  0  0  0  0  0  0  0  0  0
  187.6760  176.8560  142.1890 O   0  0  0  0  0  0  0  0  0  0  0  0
  186.4530  178.6340  140.1800 O   0  0  0  0  0  1  0  0  0  0  0  0
  187.1230  178.9830  141.3510 C   0  0  0  0  0  2  0  0  0  0  0  0
  1  6  1  0  0  0  0
  2 21  1  6  0  0  0
  2  1  1  0  0  0  0
  2  3  1  0  0  0  0
  3 27  1  1  0  0  0
  3  5  1  0  0  0  0
  4  1  1  0  0  0  0
  5 13  1  1  0  0  0
  6  5  1  0  0  0  0
  7  8  1  0  0  0  0
  9 11  2  0  0  0  0
  9 10  1  0  0  0  0
 10  7  2  0  0  0  0
 11 12  1  0  0  0  0
 12 16  1  0  0  0  0
 12  8  2  0  0  0  0
 13 11  1  0  0  0  0
 14 17  1  0  0  0  0
 16 18  2  0  0  0  0
 17 19  1  0  0  0  0
 18 15  1  0  0  0  0
 19 18  1  0  0  0  0
 20 17  2  0  0  0  0
 20 16  1  0  0  0  0
 22 21  2  0  0  0  0
 23 21  1  0  0  0  0
 24 23  1  0  0  0  0
 25 24  1  0  0  0  0
 26 25  1  0  0  0  0
 27 28  2  0  0  0  0
 29 30  1  0  0  0  0
 30 27  1  0  0  0  0
M  END
>  <MODEL>
6

>  <REMARK>
 VINA RESULT:      -7.3      1.928      4.225
  Name = 
  8 active torsions:
  status: ('A' for Active; 'I' for Inactive)
    1  A    between atoms: C_5  and  C_6
    2  A    between atoms: C_6  and  C_16
    3  A    between atoms: C_7  and  C_12
    4  A    between atoms: C_12  and  C_26
    5  A    between atoms: C_13  and  O_17
    6  A    between atoms: C_16  and  O_17
    7  A    between atoms: C_18  and  C_19
    8  A    between atoms: C_20  and  N_24
                            x       y       z     vdW  Elec       q    Type
                         _______ _______ _______ _____ _____    ______ ____

>  <TORSDO>
F 8

$$$$
=
 OpenBabel11062413273D

 30 32  0  0  1  0  0  0  0  0999 V2000
  187.8990  176.7140  144.2940 N   0  0  0  0  0  0  0  0  0  0  0  0
  188.6020  177.0810  143.0620 C   0  0  1  0  0  3  0  0  0  0  0  0
  187.9130  178.2880  142.4530 C   0  0  2  0  0  3  0  0  0  0  0  0
  188.3440  177.4860  145.3180 O   0  0  0  0  0  1  0  0  0  0  0  0
  186.5220  178.2920  143.0870 C   0  0  2  0  0  3  0  0  0  0  0  0
  186.5180  177.1130  144.0520 C   0  0  0  0  0  2  0  0  0  0  0  0
  181.4940  179.1570  143.0160 N   0  0  0  0  0  0  0  0  0  0  0  0
  181.7700  178.6700  141.7790 C   0  0  0  0  0  3  0  0  0  0  0  0
  183.7590  178.9960  143.6190 N   0  0  0  0  0  0  0  0  0  0  0  0
  182.4800  179.3210  143.9320 C   0  0  0  0  0  3  0  0  0  0  0  0
  184.0860  178.5030  142.3930 C   0  0  0  0  0  0  0  0  0  0  0  0
  183.0780  178.3250  141.4200 C   0  0  0  0  0  0  0  0  0  0  0  0
  185.4450  178.1490  142.1130 N   0  0  0  0  0  2  0  0  0  0  0  0
  183.2370  174.9630  137.7500 C   0  0  0  0  0  1  0  0  0  0  0  0
  184.3110  179.9490  139.0970 N   0  0  0  0  0  1  0  0  0  0  0  0
  183.3650  177.8190  140.0510 C   0  0  0  0  0  0  0  0  0  0  0  0
  183.4360  176.2840  138.4030 C   0  0  0  0  0  0  0  0  0  0  0  0
  183.9500  178.5730  139.0280 C   0  0  0  0  0  0  0  0  0  0  0  0
  184.1070  177.6280  137.6500 S   0  0  0  0  0  0  0  0  0  0  0  0
  183.0880  176.5380  139.6840 N   0  0  0  0  0  0  0  0  0  0  0  0
  190.0980  177.2200  143.1950 C   0  0  0  0  0  0  0  0  0  0  0  0
  190.6970  178.4130  143.1980 C   0  0  0  0  0  2  0  0  0  0  0  0
  190.9280  175.9790  143.2000 C   0  0  0  0  0  2  0  0  0  0  0  0
  192.0440  176.1550  144.0210 O   0  0  0  0  0  0  0  0  0  0  0  0
  191.7240  175.4830  145.2010 C   0  0  0  0  0  2  0  0  0  0  0  0
  191.7780  176.4520  146.3630 C   0  0  0  0  0  1  0  0  0  0  0  0
  187.9560  178.2420  140.9490 C   0  0  0  0  0  0  0  0  0  0  0  0
  187.2740  179.0070  140.2810 O   0  0  0  0  0  0  0  0  0  0  0  0
  189.8940  177.8550  139.6570 O   0  0  0  0  0  1  0  0  0  0  0  0
  188.8110  177.2270  140.2720 C   0  0  0  0  0  2  0  0  0  0  0  0
  1  4  1  0  0  0  0
  2 21  1  1  0  0  0
  2  1  1  0  0  0  0
  3 27  1  6  0  0  0
  3  2  1  0  0  0  0
  3  5  1  0  0  0  0
  5 13  1  6  0  0  0
  5  6  1  0  0  0  0
  6  1  1  0  0  0  0
  7 10  2  0  0  0  0
  8  7  1  0  0  0  0
  9 10  1  0  0  0  0
 11  9  2  0  0  0  0
 12  8  2  0  0  0  0
 12 11  1  0  0  0  0
 13 11  1  0  0  0  0
 14 17  1  0  0  0  0
 16 12  1  0  0  0  0
 17 20  2  0  0  0  0
 18 15  1  0  0  0  0
 18 16  2  0  0  0  0
 19 17  1  0  0  0  0
 19 18  1  0  0  0  0
 20 16  1  0  0  0  0
 21 22  2  0  0  0  0
 21 23  1  0  0  0  0
 23 24  1  0  0  0  0
 24 25  1  0  0  0  0
 25 26  1  0  0  0  0
 28 27  2  0  0  0  0
 29 30  1  0  0  0  0
 30 27  1  0  0  0  0
M  END
>  <MODEL>
7

>  <REMARK>
 VINA RESULT:      -7.2      3.660      6.444
  Name = 
  8 active torsions:
  status: ('A' for Active; 'I' for Inactive)
    1  A    between atoms: C_5  and  C_6
    2  A    between atoms: C_6  and  C_16
    3  A    between atoms: C_7  and  C_12
    4  A    between atoms: C_12  and  C_26
    5  A    between atoms: C_13  and  O_17
    6  A    between atoms: C_16  and  O_17
    7  A    between atoms: C_18  and  C_19
    8  A    between atoms: C_20  and  N_24
                            x       y       z     vdW  Elec       q    Type
                         _______ _______ _______ _____ _____    ______ ____

>  <TORSDO>
F 8

$$$$
=
 OpenBabel11062413273D

 30 32  0  0  1  0  0  0  0  0999 V2000
  186.0930  178.0050  142.8690 N   0  0  0  0  0  0  0  0  0  0  0  0
  187.3330  177.4470  143.4150 C   0  0  1  0  0  3  0  0  0  0  0  0
  188.5040  178.0290  142.6490 C   0  0  2  0  0  3  0  0  0  0  0  0
  185.8560  179.2190  143.4270 O   0  0  0  0  0  1  0  0  0  0  0  0
  187.8910  178.5370  141.3430 C   0  0  2  0  0  3  0  0  0  0  0  0
  186.3990  178.2530  141.4660 C   0  0  0  0  0  2  0  0  0  0  0  0
  186.4070  177.8760  136.5070 N   0  0  0  0  0  0  0  0  0  0  0  0
  187.5990  177.2320  136.5840 C   0  0  0  0  0  3  0  0  0  0  0  0
  186.5670  178.5110  138.7630 N   0  0  0  0  0  0  0  0  0  0  0  0
  185.8920  178.5130  137.5870 C   0  0  0  0  0  3  0  0  0  0  0  0
  187.7650  177.8790  138.8920 C   0  0  0  0  0  0  0  0  0  0  0  0
  188.3250  177.2100  137.7810 C   0  0  0  0  0  0  0  0  0  0  0  0
  188.4330  177.8800  140.1580 N   0  0  0  0  0  2  0  0  0  0  0  0
  193.1810  176.7540  138.7820 C   0  0  0  0  0  1  0  0  0  0  0  0
  188.9190  174.3260  136.8440 N   0  0  0  0  0  1  0  0  0  0  0  0
  189.6430  176.5220  137.8390 C   0  0  0  0  0  0  0  0  0  0  0  0
  191.8420  176.3350  138.2930 C   0  0  0  0  0  0  0  0  0  0  0  0
  189.8860  175.2240  137.3800 C   0  0  0  0  0  0  0  0  0  0  0  0
  191.5000  174.8320  137.6220 S   0  0  0  0  0  0  0  0  0  0  0  0
  190.7520  177.1310  138.3430 N   0  0  0  0  0  0  0  0  0  0  0  0
  187.4660  177.5320  144.9160 C   0  0  0  0  0  0  0  0  0  0  0  0
  186.4100  177.4190  145.7240 C   0  0  0  0  0  2  0  0  0  0  0  0
  188.8010  177.8740  145.4920 C   0  0  0  0  0  2  0  0  0  0  0  0
  189.3540  176.7520  146.1130 O   0  0  0  0  0  0  0  0  0  0  0  0
  190.0420  177.2620  147.2140 C   0  0  0  0  0  2  0  0  0  0  0  0
  189.0560  177.8770  148.1850 C   0  0  0  0  0  1  0  0  0  0  0  0
  189.6200  177.0280  142.5100 C   0  0  0  0  0  0  0  0  0  0  0  0
  189.3970  175.8280  142.5910 O   0  0  0  0  0  0  0  0  0  0  0  0
  191.2980  178.5310  143.2180 O   0  0  0  0  0  1  0  0  0  0  0  0
  191.0150  177.5120  142.3090 C   0  0  0  0  0  2  0  0  0  0  0  0
  1  2  1  0  0  0  0
  1  4  1  0  0  0  0
  2 21  1  1  0  0  0
  3 27  1  6  0  0  0
  3  2  1  0  0  0  0
  5 13  1  6  0  0  0
  5  6  1  0  0  0  0
  5  3  1  0  0  0  0
  6  1  1  0  0  0  0
  7  8  1  0  0  0  0
  7 10  2  0  0  0  0
  8 12  2  0  0  0  0
  9 11  2  0  0  0  0
 10  9  1  0  0  0  0
 11 13  1  0  0  0  0
 12 16  1  0  0  0  0
 12 11  1  0  0  0  0
 15 18  1  0  0  0  0
 16 20  1  0  0  0  0
 17 20  2  0  0  0  0
 17 14  1  0  0  0  0
 18 19  1  0  0  0  0
 18 16  2  0  0  0  0
 19 17  1  0  0  0  0
 21 23  1  0  0  0  0
 21 22  2  0  0  0  0
 23 24  1  0  0  0  0
 24 25  1  0  0  0  0
 25 26  1  0  0  0  0
 27 28  2  0  0  0  0
 30 27  1  0  0  0  0
 30 29  1  0  0  0  0
M  END
>  <MODEL>
8

>  <REMARK>
 VINA RESULT:      -7.0      3.003      7.143
  Name = 
  8 active torsions:
  status: ('A' for Active; 'I' for Inactive)
    1  A    between atoms: C_5  and  C_6
    2  A    between atoms: C_6  and  C_16
    3  A    between atoms: C_7  and  C_12
    4  A    between atoms: C_12  and  C_26
    5  A    between atoms: C_13  and  O_17
    6  A    between atoms: C_16  and  O_17
    7  A    between atoms: C_18  and  C_19
    8  A    between atoms: C_20  and  N_24
                            x       y       z     vdW  Elec       q    Type
                         _______ _______ _______ _____ _____    ______ ____

>  <TORSDO>
F 8

$$$$
=
 OpenBabel11062413273D

 30 32  0  0  1  0  0  0  0  0999 V2000
  189.0890  178.5860  140.0890 N   0  0  0  0  0  0  0  0  0  0  0  0
  190.0680  177.7300  140.7640 C   0  0  1  0  0  3  0  0  0  0  0  0
  189.3220  176.7150  141.6080 C   0  0  2  0  0  3  0  0  0  0  0  0
  188.6480  177.9720  138.9620 O   0  0  0  0  0  1  0  0  0  0  0  0
  187.9310  177.3210  141.7920 C   0  0  2  0  0  3  0  0  0  0  0  0
  187.9550  178.6240  141.0040 C   0  0  0  0  0  2  0  0  0  0  0  0
  183.7710  178.7710  144.3660 N   0  0  0  0  0  0  0  0  0  0  0  0
  184.7280  178.6400  145.3190 C   0  0  0  0  0  3  0  0  0  0  0  0
  185.2950  178.1200  142.7010 N   0  0  0  0  0  0  0  0  0  0  0  0
  184.0490  178.5120  143.0640 C   0  0  0  0  0  3  0  0  0  0  0  0
  186.2900  177.9750  143.6190 C   0  0  0  0  0  0  0  0  0  0  0  0
  186.0250  178.2360  144.9810 C   0  0  0  0  0  0  0  0  0  0  0  0
  187.5970  177.5830  143.1890 N   0  0  0  0  0  2  0  0  0  0  0  0
  190.1700  176.4240  147.0640 C   0  0  0  0  0  1  0  0  0  0  0  0
  186.0580  179.6610  147.7230 N   0  0  0  0  0  1  0  0  0  0  0  0
  187.0540  178.0720  146.0430 C   0  0  0  0  0  0  0  0  0  0  0  0
  188.9290  177.2370  146.9740 C   0  0  0  0  0  0  0  0  0  0  0  0
  187.0250  178.7110  147.2870 C   0  0  0  0  0  0  0  0  0  0  0  0
  188.3620  178.2480  148.1910 S   0  0  0  0  0  0  0  0  0  0  0  0
  188.1250  177.2460  145.8880 N   0  0  0  0  0  0  0  0  0  0  0  0
  191.1260  177.1370  139.8660 C   0  0  0  0  0  0  0  0  0  0  0  0
  192.4070  177.5030  139.9510 C   0  0  0  0  0  2  0  0  0  0  0  0
  190.6950  176.2080  138.7790 C   0  0  0  0  0  2  0  0  0  0  0  0
  191.5850  176.2850  137.7050 O   0  0  0  0  0  0  0  0  0  0  0  0
  191.8370  174.9570  137.3600 C   0  0  0  0  0  2  0  0  0  0  0  0
  193.3000  174.6450  137.5940 C   0  0  0  0  0  1  0  0  0  0  0  0
  190.0770  176.3920  142.8700 C   0  0  0  0  0  0  0  0  0  0  0  0
  189.7880  175.4070  143.5360 O   0  0  0  0  0  0  0  0  0  0  0  0
  190.6130  178.3760  144.0310 O   0  0  0  0  0  1  0  0  0  0  0  0
  191.1620  177.3050  143.3270 C   0  0  0  0  0  2  0  0  0  0  0  0
  1  2  1  0  0  0  0
  1  6  1  0  0  0  0
  2 21  1  6  0  0  0
  2  3  1  0  0  0  0
  3  5  1  0  0  0  0
  3 27  1  1  0  0  0
  4  1  1  0  0  0  0
  5 13  1  1  0  0  0
  6  5  1  0  0  0  0
  7  8  1  0  0  0  0
  9 10  1  0  0  0  0
  9 11  2  0  0  0  0
 10  7  2  0  0  0  0
 11 12  1  0  0  0  0
 12  8  2  0  0  0  0
 12 16  1  0  0  0  0
 13 11  1  0  0  0  0
 16 18  2  0  0  0  0
 17 14  1  0  0  0  0
 17 19  1  0  0  0  0
 18 15  1  0  0  0  0
 18 19  1  0  0  0  0
 20 16  1  0  0  0  0
 20 17  2  0  0  0  0
 21 22  2  0  0  0  0
 23 21  1  0  0  0  0
 24 23  1  0  0  0  0
 25 26  1  0  0  0  0
 25 24  1  0  0  0  0
 27 30  1  0  0  0  0
 27 28  2  0  0  0  0
 30 29  1  0  0  0  0
M  END
>  <MODEL>
9

>  <REMARK>
 VINA RESULT:      -6.9      1.603      1.916
  Name = 
  8 active torsions:
  status: ('A' for Active; 'I' for Inactive)
    1  A    between atoms: C_5  and  C_6
    2  A    between atoms: C_6  and  C_16
    3  A    between atoms: C_7  and  C_12
    4  A    between atoms: C_12  and  C_26
    5  A    between atoms: C_13  and  O_17
    6  A    between atoms: C_16  and  O_17
    7  A    between atoms: C_18  and  C_19
    8  A    between atoms: C_20  and  N_24
                            x       y       z     vdW  Elec       q    Type
                         _______ _______ _______ _____ _____    ______ ____

>  <TORSDO>
F 8

$$$$
