=
 OpenBabel11062413433D

 35 37  0  0  1  0  0  0  0  0999 V2000
  184.7190  178.9690  140.6230 C   0  0  0  0  0  0  0  0  0  0  0  0
  183.0430  178.9840  142.3670 C   0  0  0  0  0  3  0  0  0  0  0  0
  186.0480  178.9410  140.2190 O   0  0  0  0  0  1  0  0  0  0  0  0
  183.7080  179.0210  139.6610 C   0  0  0  0  0  3  0  0  0  0  0  0
  182.0250  179.0390  141.4040 C   0  0  0  0  0  0  0  0  0  0  0  0
  182.3560  179.0550  140.0360 C   0  0  0  0  0  0  0  0  0  0  0  0
  184.3850  178.9450  141.9850 C   0  0  0  0  0  0  0  0  0  0  0  0
  180.5900  179.0710  141.8400 C   0  0  2  0  0  3  0  0  0  0  0  0
  180.1290  180.3880  141.9010 O   0  0  0  0  0  1  0  0  0  0  0  0
  180.4270  178.4070  143.1710 C   0  0  0  0  0  3  0  0  0  0  0  0
  179.3180  178.2800  143.6630 O   0  0  0  0  0  0  0  0  0  0  0  0
  185.4400  178.9080  143.0390 C   0  0  0  0  0  2  0  0  0  0  0  0
  185.9170  177.4810  143.2440 C   0  0  0  0  0  2  0  0  0  0  0  0
  187.3880  177.3580  142.8820 C   0  0  0  0  0  2  0  0  0  0  0  0
  189.9270  177.5620  148.0560 O   0  0  0  0  0  0  0  0  0  0  0  0
  191.3440  177.7420  144.8470 C   0  0  0  0  0  2  0  0  0  0  0  0
  189.8040  177.3480  146.8190 C   0  0  0  0  0  0  0  0  0  0  0  0
  192.1140  176.7270  146.8610 O   0  0  0  0  0  1  0  0  0  0  0  0
  190.9940  176.8500  146.0360 C   0  0  2  0  0  3  0  0  0  0  0  0
  188.4220  178.0120  144.9400 O   0  0  0  0  0  0  0  0  0  0  0  0
  188.2110  176.9160  144.0840 C   0  0  2  0  0  3  0  0  0  0  0  0
  188.5130  177.5120  146.2000 N   0  0  0  0  0  0  0  0  0  0  0  0
  190.9700  177.8330  142.5230 O   0  0  0  0  0  0  0  0  0  0  0  0
  189.5320  176.3110  143.6000 C   0  0  0  0  0  2  0  0  0  0  0  0
  190.6500  177.3170  143.5810 C   0  0  0  0  0  0  0  0  0  0  0  0
  187.3040  177.4890  147.0200 C   0  0  0  0  0  2  0  0  0  0  0  0
  184.9960  178.3900  146.6720 C   0  0  0  0  0  1  0  0  0  0  0  0
  186.4660  178.7400  146.7940 C   0  0  0  0  0  2  0  0  0  0  0  0
  181.3040  179.1030  139.0560 N   0  0  0  0  0  2  0  0  0  0  0  0
  180.7470  179.7720  136.7250 C   0  0  0  0  0  3  0  0  0  0  0  0
  180.5130  180.7780  135.7820 C   0  0  0  0  0  3  0  0  0  0  0  0
  181.1190  181.4500  138.4250 C   0  0  0  0  0  3  0  0  0  0  0  0
  180.8840  182.4570  137.4840 C   0  0  0  0  0  3  0  0  0  0  0  0
  181.0520  180.1020  138.0550 C   0  0  0  0  0  0  0  0  0  0  0  0
  180.5810  182.1200  136.1620 C   0  0  0  0  0  3  0  0  0  0  0  0
  1  7  1  0  0  0  0
  3  1  1  0  0  0  0
  4  6  1  0  0  0  0
  4  1  2  0  0  0  0
  5  8  1  0  0  0  0
  5  2  1  0  0  0  0
  6  5  2  0  0  0  0
  7  2  2  0  0  0  0
  7 12  1  0  0  0  0
  8  9  1  1  0  0  0
  8 10  1  0  0  0  0
 10 11  2  0  0  0  0
 12 13  1  0  0  0  0
 14 13  1  0  0  0  0
 16 19  1  0  0  0  0
 17 15  2  0  0  0  0
 19 17  1  0  0  0  0
 19 18  1  1  0  0  0
 20 22  1  0  0  0  0
 21 14  1  6  0  0  0
 21 20  1  0  0  0  0
 22 17  1  0  0  0  0
 22 26  1  0  0  0  0
 23 25  2  0  0  0  0
 24 21  1  0  0  0  0
 25 24  1  0  0  0  0
 25 16  1  0  0  0  0
 27 28  1  0  0  0  0
 28 26  1  0  0  0  0
 29  6  1  0  0  0  0
 30 34  1  0  0  0  0
 31 35  1  0  0  0  0
 31 30  2  0  0  0  0
 33 32  1  0  0  0  0
 34 32  2  0  0  0  0
 34 29  1  0  0  0  0
 35 33  2  0  0  0  0
M  END
>  <MODEL>
1

>  <REMARK>
 VINA RESULT:      -8.3      0.000      0.000
  Name = 
  10 active torsions:
  status: ('A' for Active; 'I' for Inactive)
    1  A    between atoms: C_1  and  C_5
    2  A    between atoms: C_5  and  C_25
    3  A    between atoms: C_6  and  C_18
    4  A    between atoms: C_6  and  C_35
    5  A    between atoms: C_7  and  C_18
    6  A    between atoms: C_7  and  C_21
    7  A    between atoms: C_9  and  N_22
    8  A    between atoms: C_9  and  C_29
    9  A    between atoms: N_26  and  C_31
   10  A    between atoms: N_26  and  C_32
                            x       y       z     vdW  Elec       q    Type
                         _______ _______ _______ _____ _____    ______ ____

>  <TORSDO>
F 10

$$$$
=
 OpenBabel11062413433D

 35 37  0  0  1  0  0  0  0  0999 V2000
  181.8770  178.9370  142.7400 C   0  0  0  0  0  0  0  0  0  0  0  0
  183.9120  178.4610  141.5230 C   0  0  0  0  0  3  0  0  0  0  0  0
  181.1970  179.1390  143.9360 O   0  0  0  0  0  1  0  0  0  0  0  0
  181.1780  178.9990  141.5330 C   0  0  0  0  0  3  0  0  0  0  0  0
  183.2140  178.5200  140.3090 C   0  0  0  0  0  0  0  0  0  0  0  0
  181.8320  178.7950  140.3090 C   0  0  0  0  0  0  0  0  0  0  0  0
  183.2530  178.6710  142.7370 C   0  0  0  0  0  0  0  0  0  0  0  0
  183.9460  178.3000  139.0180 C   0  0  2  0  0  3  0  0  0  0  0  0
  183.7500  176.9940  138.5650 O   0  0  0  0  0  1  0  0  0  0  0  0
  185.4080  178.5720  139.1870 C   0  0  0  0  0  3  0  0  0  0  0  0
  186.1130  178.7680  138.2120 O   0  0  0  0  0  0  0  0  0  0  0  0
  184.0270  178.5800  144.0080 C   0  0  0  0  0  2  0  0  0  0  0  0
  185.4020  177.9970  143.7370 C   0  0  0  0  0  2  0  0  0  0  0  0
  186.3040  178.1820  144.9470 C   0  0  0  0  0  2  0  0  0  0  0  0
  191.7990  176.5720  145.6300 O   0  0  0  0  0  0  0  0  0  0  0  0
  190.1690  177.8620  142.7990 C   0  0  0  0  0  2  0  0  0  0  0  0
  190.7110  176.8020  145.0350 C   0  0  0  0  0  0  0  0  0  0  0  0
  191.8700  176.2090  143.0290 O   0  0  0  0  0  1  0  0  0  0  0  0
  190.6350  176.6110  143.5400 C   0  0  2  0  0  3  0  0  0  0  0  0
  188.6670  178.0790  145.3120 O   0  0  0  0  0  0  0  0  0  0  0  0
  187.5710  177.3500  144.8160 C   0  0  2  0  0  3  0  0  0  0  0  0
  189.5500  177.1710  145.8050 N   0  0  0  0  0  0  0  0  0  0  0  0
  188.1870  178.7570  141.8950 O   0  0  0  0  0  0  0  0  0  0  0  0
  187.7700  176.9530  143.3510 C   0  0  0  0  0  2  0  0  0  0  0  0
  188.6750  177.9040  142.6170 C   0  0  0  0  0  0  0  0  0  0  0  0
  189.4940  176.8620  147.2320 C   0  0  0  0  0  2  0  0  0  0  0  0
  187.8520  177.9640  148.7650 C   0  0  0  0  0  1  0  0  0  0  0  0
  189.1820  178.1070  148.0500 C   0  0  0  0  0  2  0  0  0  0  0  0
  181.1270  178.8610  139.0560 N   0  0  0  0  0  2  0  0  0  0  0  0
  180.7250  179.8260  136.7990 C   0  0  0  0  0  3  0  0  0  0  0  0
  180.5810  180.9460  135.9740 C   0  0  0  0  0  3  0  0  0  0  0  0
  181.0650  181.2720  138.7050 C   0  0  0  0  0  3  0  0  0  0  0  0
  180.9210  182.3930  137.8830 C   0  0  0  0  0  3  0  0  0  0  0  0
  180.9690  179.9820  138.1730 C   0  0  0  0  0  0  0  0  0  0  0  0
  180.6790  182.2290  136.5160 C   0  0  0  0  0  3  0  0  0  0  0  0
  1  3  1  0  0  0  0
  2  7  2  0  0  0  0
  4  1  2  0  0  0  0
  5  6  2  0  0  0  0
  5  2  1  0  0  0  0
  6  4  1  0  0  0  0
  7  1  1  0  0  0  0
  7 12  1  0  0  0  0
  8  9  1  1  0  0  0
  8 10  1  0  0  0  0
  8  5  1  0  0  0  0
 11 10  2  0  0  0  0
 13 12  1  0  0  0  0
 13 14  1  0  0  0  0
 16 19  1  0  0  0  0
 17 15  2  0  0  0  0
 17 22  1  0  0  0  0
 19 18  1  6  0  0  0
 19 17  1  0  0  0  0
 20 22  1  0  0  0  0
 21 14  1  6  0  0  0
 21 20  1  0  0  0  0
 22 26  1  0  0  0  0
 23 25  2  0  0  0  0
 24 21  1  0  0  0  0
 25 16  1  0  0  0  0
 25 24  1  0  0  0  0
 26 28  1  0  0  0  0
 28 27  1  0  0  0  0
 29  6  1  0  0  0  0
 30 34  1  0  0  0  0
 31 35  1  0  0  0  0
 31 30  2  0  0  0  0
 33 32  1  0  0  0  0
 34 32  2  0  0  0  0
 34 29  1  0  0  0  0
 35 33  2  0  0  0  0
M  END
>  <MODEL>
2

>  <REMARK>
 VINA RESULT:      -8.1      1.346      3.113
  Name = 
  10 active torsions:
  status: ('A' for Active; 'I' for Inactive)
    1  A    between atoms: C_1  and  C_5
    2  A    between atoms: C_5  and  C_25
    3  A    between atoms: C_6  and  C_18
    4  A    between atoms: C_6  and  C_35
    5  A    between atoms: C_7  and  C_18
    6  A    between atoms: C_7  and  C_21
    7  A    between atoms: C_9  and  N_22
    8  A    between atoms: C_9  and  C_29
    9  A    between atoms: N_26  and  C_31
   10  A    between atoms: N_26  and  C_32
                            x       y       z     vdW  Elec       q    Type
                         _______ _______ _______ _____ _____    ______ ____

>  <TORSDO>
F 10

$$$$
=
 OpenBabel11062413433D

 35 37  0  0  1  0  0  0  0  0999 V2000
  184.4580  178.7920  140.7380 C   0  0  0  0  0  0  0  0  0  0  0  0
  183.0180  178.7240  142.6800 C   0  0  0  0  0  3  0  0  0  0  0  0
  185.7180  178.7000  140.1590 O   0  0  0  0  0  1  0  0  0  0  0  0
  183.3490  179.0600  139.9340 C   0  0  0  0  0  3  0  0  0  0  0  0
  181.9020  178.9960  141.8770 C   0  0  0  0  0  0  0  0  0  0  0  0
  182.0640  179.1640  140.4880 C   0  0  0  0  0  0  0  0  0  0  0  0
  184.2930  178.6170  142.1200 C   0  0  0  0  0  0  0  0  0  0  0  0
  180.5420  179.0960  142.5020 C   0  0  2  0  0  3  0  0  0  0  0  0
  180.2560  180.4230  142.8320 O   0  0  0  0  0  1  0  0  0  0  0  0
  180.4560  178.2340  143.7210 C   0  0  0  0  0  3  0  0  0  0  0  0
  179.4400  178.2220  144.3960 O   0  0  0  0  0  0  0  0  0  0  0  0
  185.4580  178.3470  143.0110 C   0  0  0  0  0  2  0  0  0  0  0  0
  185.1300  178.7640  144.4330 C   0  0  0  0  0  2  0  0  0  0  0  0
  185.8590  177.8740  145.4270 C   0  0  0  0  0  2  0  0  0  0  0  0
  191.1480  176.1390  143.9170 O   0  0  0  0  0  0  0  0  0  0  0  0
  189.7710  176.6420  147.1090 C   0  0  0  0  0  2  0  0  0  0  0  0
  190.2440  176.6680  144.6210 C   0  0  0  0  0  0  0  0  0  0  0  0
  191.9570  177.0420  146.2480 O   0  0  0  0  0  1  0  0  0  0  0  0
  190.6020  177.2340  145.9730 C   0  0  2  0  0  3  0  0  0  0  0  0
  187.8360  176.6300  144.9020 O   0  0  0  0  0  0  0  0  0  0  0  0
  187.3630  177.9200  145.2000 C   0  0  2  0  0  3  0  0  0  0  0  0
  188.9110  176.7850  144.0870 N   0  0  0  0  0  0  0  0  0  0  0  0
  187.8590  177.1750  148.3760 O   0  0  0  0  0  0  0  0  0  0  0  0
  188.0460  178.5030  146.4400 C   0  0  0  0  0  2  0  0  0  0  0  0
  188.5230  177.4350  147.3870 C   0  0  0  0  0  0  0  0  0  0  0  0
  188.6960  176.7130  142.6430 C   0  0  0  0  0  2  0  0  0  0  0  0
  189.0450  177.8950  140.4660 C   0  0  0  0  0  1  0  0  0  0  0  0
  189.0140  178.0430  141.9750 C   0  0  0  0  0  2  0  0  0  0  0  0
  180.9110  179.4340  139.6710 N   0  0  0  0  0  2  0  0  0  0  0  0
  180.7540  179.7450  137.2080 C   0  0  0  0  0  3  0  0  0  0  0  0
  180.6590  180.5980  136.1040 C   0  0  0  0  0  3  0  0  0  0  0  0
  180.7670  181.6580  138.6860 C   0  0  0  0  0  3  0  0  0  0  0  0
  180.6710  182.5120  137.5830 C   0  0  0  0  0  3  0  0  0  0  0  0
  180.8080  180.2710  138.5090 C   0  0  0  0  0  0  0  0  0  0  0  0
  180.6170  181.9810  136.2910 C   0  0  0  0  0  3  0  0  0  0  0  0
  1  7  1  0  0  0  0
  3  1  1  0  0  0  0
  4  6  1  0  0  0  0
  4  1  2  0  0  0  0
  5  8  1  0  0  0  0
  5  2  1  0  0  0  0
  6  5  2  0  0  0  0
  7  2  2  0  0  0  0
  7 12  1  0  0  0  0
  8  9  1  1  0  0  0
  8 10  1  0  0  0  0
 10 11  2  0  0  0  0
 12 13  1  0  0  0  0
 13 14  1  0  0  0  0
 15 17  2  0  0  0  0
 16 25  1  0  0  0  0
 17 19  1  0  0  0  0
 19 18  1  1  0  0  0
 19 16  1  0  0  0  0
 20 21  1  0  0  0  0
 21 14  1  1  0  0  0
 21 24  1  0  0  0  0
 22 17  1  0  0  0  0
 22 20  1  0  0  0  0
 24 25  1  0  0  0  0
 25 23  2  0  0  0  0
 26 22  1  0  0  0  0
 27 28  1  0  0  0  0
 28 26  1  0  0  0  0
 29  6  1  0  0  0  0
 30 34  1  0  0  0  0
 31 35  1  0  0  0  0
 31 30  2  0  0  0  0
 33 32  1  0  0  0  0
 34 32  2  0  0  0  0
 34 29  1  0  0  0  0
 35 33  2  0  0  0  0
M  END
>  <MODEL>
3

>  <REMARK>
 VINA RESULT:      -8.1      1.208      2.672
  Name = 
  10 active torsions:
  status: ('A' for Active; 'I' for Inactive)
    1  A    between atoms: C_1  and  C_5
    2  A    between atoms: C_5  and  C_25
    3  A    between atoms: C_6  and  C_18
    4  A    between atoms: C_6  and  C_35
    5  A    between atoms: C_7  and  C_18
    6  A    between atoms: C_7  and  C_21
    7  A    between atoms: C_9  and  N_22
    8  A    between atoms: C_9  and  C_29
    9  A    between atoms: N_26  and  C_31
   10  A    between atoms: N_26  and  C_32
                            x       y       z     vdW  Elec       q    Type
                         _______ _______ _______ _____ _____    ______ ____

>  <TORSDO>
F 10

$$$$
=
 OpenBabel11062413433D

 35 37  0  0  1  0  0  0  0  0999 V2000
  183.8620  178.4590  141.4310 C   0  0  0  0  0  0  0  0  0  0  0  0
  182.4150  179.2070  143.2180 C   0  0  0  0  0  3  0  0  0  0  0  0
  185.1310  178.2160  140.9180 O   0  0  0  0  0  1  0  0  0  0  0  0
  182.7400  178.1960  140.6430 C   0  0  0  0  0  3  0  0  0  0  0  0
  181.2860  178.9470  142.4290 C   0  0  0  0  0  0  0  0  0  0  0  0
  181.4450  178.4330  141.1280 C   0  0  0  0  0  0  0  0  0  0  0  0
  183.7000  178.9620  142.7290 C   0  0  0  0  0  0  0  0  0  0  0  0
  179.9160  179.2100  142.9820 C   0  0  2  0  0  3  0  0  0  0  0  0
  179.7170  180.5810  143.1540 O   0  0  0  0  0  1  0  0  0  0  0  0
  179.7240  178.4950  144.2810 C   0  0  0  0  0  3  0  0  0  0  0  0
  179.7510  177.2760  144.3220 O   0  0  0  0  0  0  0  0  0  0  0  0
  184.8770  179.2710  143.5920 C   0  0  0  0  0  2  0  0  0  0  0  0
  185.4970  177.9830  144.1020 C   0  0  0  0  0  2  0  0  0  0  0  0
  186.4810  178.2770  145.2220 C   0  0  0  0  0  2  0  0  0  0  0  0
  191.9220  176.4870  145.8970 O   0  0  0  0  0  0  0  0  0  0  0  0
  190.2900  177.6900  143.0290 C   0  0  0  0  0  2  0  0  0  0  0  0
  190.8330  176.7290  145.3090 C   0  0  0  0  0  0  0  0  0  0  0  0
  191.9290  175.9850  143.3180 O   0  0  0  0  0  1  0  0  0  0  0  0
  190.7200  176.4620  143.8280 C   0  0  2  0  0  3  0  0  0  0  0  0
  188.8460  178.0990  145.5520 O   0  0  0  0  0  0  0  0  0  0  0  0
  187.7130  177.3900  145.1150 C   0  0  2  0  0  3  0  0  0  0  0  0
  189.7020  177.1840  146.0780 N   0  0  0  0  0  0  0  0  0  0  0  0
  188.3270  178.6150  142.1130 O   0  0  0  0  0  0  0  0  0  0  0  0
  187.8680  176.9080  143.6700 C   0  0  0  0  0  2  0  0  0  0  0  0
  188.7960  177.7830  142.8710 C   0  0  0  0  0  0  0  0  0  0  0  0
  189.6610  176.9540  147.5200 C   0  0  0  0  0  2  0  0  0  0  0  0
  187.9020  178.1260  148.8570 C   0  0  0  0  0  1  0  0  0  0  0  0
  189.2950  178.2280  148.2680 C   0  0  0  0  0  2  0  0  0  0  0  0
  180.2790  178.1620  140.3290 N   0  0  0  0  0  2  0  0  0  0  0  0
  179.3430  175.8700  140.5700 C   0  0  0  0  0  3  0  0  0  0  0  0
  178.9310  174.6680  139.9860 C   0  0  0  0  0  3  0  0  0  0  0  0
  179.9210  176.7340  138.3870 C   0  0  0  0  0  3  0  0  0  0  0  0
  179.5090  175.5340  137.8020 C   0  0  0  0  0  3  0  0  0  0  0  0
  179.8410  176.9130  139.7730 C   0  0  0  0  0  0  0  0  0  0  0  0
  179.0140  174.5000  138.6020 C   0  0  0  0  0  3  0  0  0  0  0  0
  1  7  1  0  0  0  0
  3  1  1  0  0  0  0
  4  6  1  0  0  0  0
  4  1  2  0  0  0  0
  5  8  1  0  0  0  0
  5  2  1  0  0  0  0
  6  5  2  0  0  0  0
  7  2  2  0  0  0  0
  7 12  1  0  0  0  0
  8  9  1  1  0  0  0
  8 10  1  0  0  0  0
 10 11  2  0  0  0  0
 12 13  1  0  0  0  0
 13 14  1  0  0  0  0
 16 19  1  0  0  0  0
 17 15  2  0  0  0  0
 17 22  1  0  0  0  0
 19 18  1  6  0  0  0
 19 17  1  0  0  0  0
 20 22  1  0  0  0  0
 21 14  1  6  0  0  0
 21 20  1  0  0  0  0
 22 26  1  0  0  0  0
 23 25  2  0  0  0  0
 24 21  1  0  0  0  0
 25 16  1  0  0  0  0
 25 24  1  0  0  0  0
 26 28  1  0  0  0  0
 28 27  1  0  0  0  0
 29  6  1  0  0  0  0
 31 30  1  0  0  0  0
 32 34  1  0  0  0  0
 33 32  2  0  0  0  0
 33 35  1  0  0  0  0
 34 29  1  0  0  0  0
 34 30  2  0  0  0  0
 35 31  2  0  0  0  0
M  END
>  <MODEL>
4

>  <REMARK>
 VINA RESULT:      -7.9      2.281      3.210
  Name = 
  10 active torsions:
  status: ('A' for Active; 'I' for Inactive)
    1  A    between atoms: C_1  and  C_5
    2  A    between atoms: C_5  and  C_25
    3  A    between atoms: C_6  and  C_18
    4  A    between atoms: C_6  and  C_35
    5  A    between atoms: C_7  and  C_18
    6  A    between atoms: C_7  and  C_21
    7  A    between atoms: C_9  and  N_22
    8  A    between atoms: C_9  and  C_29
    9  A    between atoms: N_26  and  C_31
   10  A    between atoms: N_26  and  C_32
                            x       y       z     vdW  Elec       q    Type
                         _______ _______ _______ _____ _____    ______ ____

>  <TORSDO>
F 10

$$$$
=
 OpenBabel11062413433D

 35 37  0  0  1  0  0  0  0  0999 V2000
  182.9300  178.6510  142.9660 C   0  0  0  0  0  0  0  0  0  0  0  0
  184.5560  178.2320  141.2260 C   0  0  0  0  0  3  0  0  0  0  0  0
  182.5850  178.7310  144.3100 O   0  0  0  0  0  1  0  0  0  0  0  0
  181.9650  178.9100  141.9920 C   0  0  0  0  0  3  0  0  0  0  0  0
  183.5890  178.4890  140.2440 C   0  0  0  0  0  0  0  0  0  0  0  0
  182.2790  178.8340  140.6260 C   0  0  0  0  0  0  0  0  0  0  0  0
  184.2360  178.3150  142.5830 C   0  0  0  0  0  0  0  0  0  0  0  0
  183.9610  178.4010  138.7930 C   0  0  2  0  0  3  0  0  0  0  0  0
  183.3050  177.3280  138.1870 O   0  0  0  0  0  1  0  0  0  0  0  0
  185.4410  178.2540  138.6350 C   0  0  0  0  0  3  0  0  0  0  0  0
  186.0580  179.0030  137.8950 O   0  0  0  0  0  0  0  0  0  0  0  0
  185.2880  178.0150  143.5970 C   0  0  0  0  0  2  0  0  0  0  0  0
  186.6550  178.3900  143.0530 C   0  0  0  0  0  2  0  0  0  0  0  0
  187.4860  177.1430  142.8030 C   0  0  0  0  0  2  0  0  0  0  0  0
  189.8000  177.5340  148.0710 O   0  0  0  0  0  0  0  0  0  0  0  0
  191.3420  177.7000  144.9200 C   0  0  0  0  0  2  0  0  0  0  0  0
  189.7360  177.2920  146.8350 C   0  0  0  0  0  0  0  0  0  0  0  0
  192.0610  176.7510  146.9840 O   0  0  0  0  0  1  0  0  0  0  0  0
  190.9730  176.8200  146.1110 C   0  0  2  0  0  3  0  0  0  0  0  0
  188.4120  177.8710  144.8870 O   0  0  0  0  0  0  0  0  0  0  0  0
  188.2730  176.7530  144.0460 C   0  0  2  0  0  3  0  0  0  0  0  0
  188.4670  177.4000  146.1600 N   0  0  0  0  0  0  0  0  0  0  0  0
  191.0620  177.7320  142.5810 O   0  0  0  0  0  0  0  0  0  0  0  0
  189.6320  176.1840  143.6300 C   0  0  0  0  0  2  0  0  0  0  0  0
  190.7160  177.2270  143.6350 C   0  0  0  0  0  0  0  0  0  0  0  0
  187.2260  177.3520  146.9300 C   0  0  0  0  0  2  0  0  0  0  0  0
  185.0630  178.6110  146.9200 C   0  0  0  0  0  1  0  0  0  0  0  0
  186.5730  178.7250  147.0030 C   0  0  0  0  0  2  0  0  0  0  0  0
  181.2960  179.1040  139.6110 N   0  0  0  0  0  2  0  0  0  0  0  0
  181.3080  181.0010  138.0010 C   0  0  0  0  0  3  0  0  0  0  0  0
  180.8010  182.2380  137.5910 C   0  0  0  0  0  3  0  0  0  0  0  0
  179.7870  180.9980  139.8800 C   0  0  0  0  0  3  0  0  0  0  0  0
  179.2790  182.2340  139.4720 C   0  0  0  0  0  3  0  0  0  0  0  0
  180.8030  180.3710  139.1500 C   0  0  0  0  0  0  0  0  0  0  0  0
  179.7860  182.8550  138.3260 C   0  0  0  0  0  3  0  0  0  0  0  0
  1  3  1  0  0  0  0
  2  7  2  0  0  0  0
  4  1  2  0  0  0  0
  5  6  2  0  0  0  0
  5  2  1  0  0  0  0
  6  4  1  0  0  0  0
  7  1  1  0  0  0  0
  7 12  1  0  0  0  0
  8  9  1  1  0  0  0
  8  5  1  0  0  0  0
 10  8  1  0  0  0  0
 11 10  2  0  0  0  0
 13 12  1  0  0  0  0
 14 13  1  0  0  0  0
 16 19  1  0  0  0  0
 17 15  2  0  0  0  0
 19 17  1  0  0  0  0
 19 18  1  1  0  0  0
 20 22  1  0  0  0  0
 21 14  1  6  0  0  0
 21 20  1  0  0  0  0
 22 17  1  0  0  0  0
 22 26  1  0  0  0  0
 23 25  2  0  0  0  0
 24 25  1  0  0  0  0
 24 21  1  0  0  0  0
 25 16  1  0  0  0  0
 26 28  1  0  0  0  0
 27 28  1  0  0  0  0
 29  6  1  0  0  0  0
 30 34  1  0  0  0  0
 31 30  2  0  0  0  0
 31 35  1  0  0  0  0
 33 32  1  0  0  0  0
 34 29  1  0  0  0  0
 34 32  2  0  0  0  0
 35 33  2  0  0  0  0
M  END
>  <MODEL>
5

>  <REMARK>
 VINA RESULT:      -7.8      1.270      2.751
  Name = 
  10 active torsions:
  status: ('A' for Active; 'I' for Inactive)
    1  A    between atoms: C_1  and  C_5
    2  A    between atoms: C_5  and  C_25
    3  A    between atoms: C_6  and  C_18
    4  A    between atoms: C_6  and  C_35
    5  A    between atoms: C_7  and  C_18
    6  A    between atoms: C_7  and  C_21
    7  A    between atoms: C_9  and  N_22
    8  A    between atoms: C_9  and  C_29
    9  A    between atoms: N_26  and  C_31
   10  A    between atoms: N_26  and  C_32
                            x       y       z     vdW  Elec       q    Type
                         _______ _______ _______ _____ _____    ______ ____

>  <TORSDO>
F 10

$$$$
=
 OpenBabel11062413433D

 35 37  0  0  1  0  0  0  0  0999 V2000
  184.4940  178.7460  140.1640 C   0  0  0  0  0  0  0  0  0  0  0  0
  183.2050  178.9880  142.1970 C   0  0  0  0  0  3  0  0  0  0  0  0
  185.7130  178.7100  139.4980 O   0  0  0  0  0  1  0  0  0  0  0  0
  183.3110  178.5790  139.4430 C   0  0  0  0  0  3  0  0  0  0  0  0
  182.0140  178.8230  141.4750 C   0  0  0  0  0  0  0  0  0  0  0  0
  182.0630  178.6140  140.0830 C   0  0  0  0  0  0  0  0  0  0  0  0
  184.4430  178.9460  141.5510 C   0  0  0  0  0  0  0  0  0  0  0  0
  180.6980  178.8630  142.1940 C   0  0  2  0  0  3  0  0  0  0  0  0
  180.1910  180.1640  142.2080 O   0  0  0  0  0  1  0  0  0  0  0  0
  180.8440  178.3520  143.5920 C   0  0  0  0  0  3  0  0  0  0  0  0
  179.9340  178.4880  144.3940 O   0  0  0  0  0  0  0  0  0  0  0  0
  185.6860  179.1450  142.3510 C   0  0  0  0  0  2  0  0  0  0  0  0
  186.1040  177.8350  142.9940 C   0  0  0  0  0  2  0  0  0  0  0  0
  187.5500  177.5150  142.6520 C   0  0  0  0  0  2  0  0  0  0  0  0
  189.7940  177.4670  147.9640 O   0  0  0  0  0  0  0  0  0  0  0  0
  191.3890  177.7880  144.8520 C   0  0  0  0  0  2  0  0  0  0  0  0
  189.7400  177.3110  146.7140 C   0  0  0  0  0  0  0  0  0  0  0  0
  192.0420  176.6760  146.8570 O   0  0  0  0  0  1  0  0  0  0  0  0
  190.9710  176.8430  145.9760 C   0  0  2  0  0  3  0  0  0  0  0  0
  188.4680  178.0680  144.7920 O   0  0  0  0  0  0  0  0  0  0  0  0
  188.3030  177.0140  143.8760 C   0  0  2  0  0  3  0  0  0  0  0  0
  188.4870  177.5100  146.0310 N   0  0  0  0  0  0  0  0  0  0  0  0
  191.1480  177.9870  142.5180 O   0  0  0  0  0  0  0  0  0  0  0  0
  189.6470  176.4250  143.4400 C   0  0  0  0  0  2  0  0  0  0  0  0
  190.7670  177.4250  143.5300 C   0  0  0  0  0  0  0  0  0  0  0  0
  187.2330  177.4560  146.7800 C   0  0  0  0  0  2  0  0  0  0  0  0
  184.9890  178.4660  146.3250 C   0  0  0  0  0  1  0  0  0  0  0  0
  186.4470  178.7510  146.6270 C   0  0  0  0  0  2  0  0  0  0  0  0
  180.8350  178.4380  139.3540 N   0  0  0  0  0  2  0  0  0  0  0  0
  179.5400  177.0970  137.7070 C   0  0  0  0  0  3  0  0  0  0  0  0
  178.9340  175.8890  137.3450 C   0  0  0  0  0  3  0  0  0  0  0  0
  180.2480  176.1150  139.7990 C   0  0  0  0  0  3  0  0  0  0  0  0
  179.6440  174.9080  139.4390 C   0  0  0  0  0  3  0  0  0  0  0  0
  180.2030  177.2180  138.9390 C   0  0  0  0  0  0  0  0  0  0  0  0
  178.9860  174.7950  138.2110 C   0  0  0  0  0  3  0  0  0  0  0  0
  1  7  1  0  0  0  0
  3  1  1  0  0  0  0
  4  6  1  0  0  0  0
  4  1  2  0  0  0  0
  5  8  1  0  0  0  0
  5  2  1  0  0  0  0
  6  5  2  0  0  0  0
  7  2  2  0  0  0  0
  7 12  1  0  0  0  0
  8  9  1  1  0  0  0
  8 10  1  0  0  0  0
 10 11  2  0  0  0  0
 12 13  1  0  0  0  0
 14 13  1  0  0  0  0
 16 19  1  0  0  0  0
 17 15  2  0  0  0  0
 19 17  1  0  0  0  0
 19 18  1  1  0  0  0
 20 22  1  0  0  0  0
 21 14  1  6  0  0  0
 21 20  1  0  0  0  0
 22 17  1  0  0  0  0
 22 26  1  0  0  0  0
 23 25  2  0  0  0  0
 24 25  1  0  0  0  0
 24 21  1  0  0  0  0
 25 16  1  0  0  0  0
 27 28  1  0  0  0  0
 28 26  1  0  0  0  0
 29  6  1  0  0  0  0
 30 34  1  0  0  0  0
 31 30  2  0  0  0  0
 31 35  1  0  0  0  0
 33 32  1  0  0  0  0
 34 29  1  0  0  0  0
 34 32  2  0  0  0  0
 35 33  2  0  0  0  0
M  END
>  <MODEL>
6

>  <REMARK>
 VINA RESULT:      -7.7      1.776      2.437
  Name = 
  10 active torsions:
  status: ('A' for Active; 'I' for Inactive)
    1  A    between atoms: C_1  and  C_5
    2  A    between atoms: C_5  and  C_25
    3  A    between atoms: C_6  and  C_18
    4  A    between atoms: C_6  and  C_35
    5  A    between atoms: C_7  and  C_18
    6  A    between atoms: C_7  and  C_21
    7  A    between atoms: C_9  and  N_22
    8  A    between atoms: C_9  and  C_29
    9  A    between atoms: N_26  and  C_31
   10  A    between atoms: N_26  and  C_32
                            x       y       z     vdW  Elec       q    Type
                         _______ _______ _______ _____ _____    ______ ____

>  <TORSDO>
F 10

$$$$
=
 OpenBabel11062413433D

 35 37  0  0  1  0  0  0  0  0999 V2000
  189.2060  177.6630  141.6930 C   0  0  0  0  0  0  0  0  0  0  0  0
  186.9500  178.3800  141.1930 C   0  0  0  0  0  3  0  0  0  0  0  0
  190.5280  177.4660  141.3150 O   0  0  0  0  0  1  0  0  0  0  0  0
  188.8020  177.3230  142.9860 C   0  0  0  0  0  3  0  0  0  0  0  0
  186.5410  178.0370  142.4890 C   0  0  0  0  0  0  0  0  0  0  0  0
  187.4740  177.5050  143.4000 C   0  0  0  0  0  0  0  0  0  0  0  0
  188.2760  178.2000  140.7920 C   0  0  0  0  0  0  0  0  0  0  0  0
  185.1130  178.2480  142.8980 C   0  0  2  0  0  3  0  0  0  0  0  0
  184.2650  178.0890  141.8000 O   0  0  0  0  0  1  0  0  0  0  0  0
  184.9300  179.6070  143.4960 C   0  0  0  0  0  3  0  0  0  0  0  0
  184.6610  179.7270  144.6790 O   0  0  0  0  0  0  0  0  0  0  0  0
  188.6680  178.5590  139.3980 C   0  0  0  0  0  2  0  0  0  0  0  0
  187.7400  177.8780  138.4070 C   0  0  0  0  0  2  0  0  0  0  0  0
  188.2480  178.0710  136.9880 C   0  0  0  0  0  2  0  0  0  0  0  0
  188.6820  172.3740  136.1980 O   0  0  0  0  0  0  0  0  0  0  0  0
  191.0270  174.6520  137.4820 C   0  0  0  0  0  2  0  0  0  0  0  0
  189.0570  173.5740  136.3110 C   0  0  0  0  0  0  0  0  0  0  0  0
  191.2840  172.7270  136.1000 O   0  0  0  0  0  1  0  0  0  0  0  0
  190.5310  173.8920  136.2540 C   0  0  2  0  0  3  0  0  0  0  0  0
  188.2940  175.6890  137.2200 O   0  0  0  0  0  0  0  0  0  0  0  0
  188.6860  176.7460  136.3800 C   0  0  2  0  0  3  0  0  0  0  0  0
  188.0670  174.6150  136.4190 N   0  0  0  0  0  0  0  0  0  0  0  0
  191.4760  176.8690  138.1380 O   0  0  0  0  0  0  0  0  0  0  0  0
  190.2020  176.7640  136.1610 C   0  0  0  0  0  2  0  0  0  0  0  0
  190.9540  176.1450  137.3070 C   0  0  0  0  0  0  0  0  0  0  0  0
  186.6980  174.3690  135.9710 C   0  0  0  0  0  2  0  0  0  0  0  0
  185.3730  173.0030  137.5950 C   0  0  0  0  0  1  0  0  0  0  0  0
  185.7240  174.4060  137.1390 C   0  0  0  0  0  2  0  0  0  0  0  0
  187.0450  177.1640  144.7300 N   0  0  0  0  0  2  0  0  0  0  0  0
  188.9860  177.1480  146.2860 C   0  0  0  0  0  3  0  0  0  0  0  0
  189.5420  177.4870  147.5230 C   0  0  0  0  0  3  0  0  0  0  0  0
  186.9010  178.1830  146.9390 C   0  0  0  0  0  3  0  0  0  0  0  0
  187.4560  178.5230  148.1760 C   0  0  0  0  0  3  0  0  0  0  0  0
  187.6590  177.4950  145.9850 C   0  0  0  0  0  0  0  0  0  0  0  0
  188.7770  178.1750  148.4680 C   0  0  0  0  0  3  0  0  0  0  0  0
  1  4  1  0  0  0  0
  2  5  2  0  0  0  0
  3  1  1  0  0  0  0
  4  6  2  0  0  0  0
  5  8  1  0  0  0  0
  5  6  1  0  0  0  0
  6 29  1  0  0  0  0
  7  2  1  0  0  0  0
  7  1  2  0  0  0  0
  8  9  1  6  0  0  0
  8 10  1  0  0  0  0
 10 11  2  0  0  0  0
 12  7  1  0  0  0  0
 13 12  1  0  0  0  0
 14 13  1  0  0  0  0
 15 17  2  0  0  0  0
 17 22  1  0  0  0  0
 19 18  1  1  0  0  0
 19 17  1  0  0  0  0
 19 16  1  0  0  0  0
 21 14  1  1  0  0  0
 21 20  1  0  0  0  0
 22 20  1  0  0  0  0
 24 21  1  0  0  0  0
 24 25  1  0  0  0  0
 25 16  1  0  0  0  0
 25 23  2  0  0  0  0
 26 22  1  0  0  0  0
 26 28  1  0  0  0  0
 28 27  1  0  0  0  0
 29 34  1  0  0  0  0
 30 31  1  0  0  0  0
 31 35  2  0  0  0  0
 32 33  2  0  0  0  0
 33 35  1  0  0  0  0
 34 30  2  0  0  0  0
 34 32  1  0  0  0  0
M  END
>  <MODEL>
7

>  <REMARK>
 VINA RESULT:      -7.6      4.732      8.893
  Name = 
  10 active torsions:
  status: ('A' for Active; 'I' for Inactive)
    1  A    between atoms: C_1  and  C_5
    2  A    between atoms: C_5  and  C_25
    3  A    between atoms: C_6  and  C_18
    4  A    between atoms: C_6  and  C_35
    5  A    between atoms: C_7  and  C_18
    6  A    between atoms: C_7  and  C_21
    7  A    between atoms: C_9  and  N_22
    8  A    between atoms: C_9  and  C_29
    9  A    between atoms: N_26  and  C_31
   10  A    between atoms: N_26  and  C_32
                            x       y       z     vdW  Elec       q    Type
                         _______ _______ _______ _____ _____    ______ ____

>  <TORSDO>
F 10

$$$$
=
 OpenBabel11062413433D

 35 37  0  0  1  0  0  0  0  0999 V2000
  185.1540  178.3220  145.7210 C   0  0  0  0  0  0  0  0  0  0  0  0
  184.9580  178.5610  143.3220 C   0  0  0  0  0  3  0  0  0  0  0  0
  184.6000  178.3780  146.9950 O   0  0  0  0  0  1  0  0  0  0  0  0
  186.4960  177.9700  145.5690 C   0  0  0  0  0  3  0  0  0  0  0  0
  186.3070  178.2100  143.1660 C   0  0  0  0  0  0  0  0  0  0  0  0
  187.0870  177.9080  144.2980 C   0  0  0  0  0  0  0  0  0  0  0  0
  184.3770  178.6150  144.5910 C   0  0  0  0  0  0  0  0  0  0  0  0
  186.9050  178.1510  141.7910 C   0  0  2  0  0  3  0  0  0  0  0  0
  188.1280  178.8230  141.7640 O   0  0  0  0  0  1  0  0  0  0  0  0
  185.9710  178.7430  140.7830 C   0  0  0  0  0  3  0  0  0  0  0  0
  186.2000  178.6270  139.5910 O   0  0  0  0  0  0  0  0  0  0  0  0
  182.9450  179.0110  144.7180 C   0  0  0  0  0  2  0  0  0  0  0  0
  182.3840  179.3720  143.3540 C   0  0  0  0  0  2  0  0  0  0  0  0
  181.0740  178.6420  143.1100 C   0  0  0  0  0  2  0  0  0  0  0  0
  182.0150  178.6820  137.4200 O   0  0  0  0  0  0  0  0  0  0  0  0
  180.0850  180.8520  139.3960 C   0  0  0  0  0  2  0  0  0  0  0  0
  181.4120  178.8850  138.5100 C   0  0  0  0  0  0  0  0  0  0  0  0
  179.7520  179.9980  137.1960 O   0  0  0  0  0  1  0  0  0  0  0  0
  180.0930  179.6190  138.4960 C   0  0  2  0  0  3  0  0  0  0  0  0
  181.8610  179.0530  140.8870 O   0  0  0  0  0  0  0  0  0  0  0  0
  180.8050  178.4830  141.6210 C   0  0  2  0  0  3  0  0  0  0  0  0
  181.9600  178.3490  139.7300 N   0  0  0  0  0  0  0  0  0  0  0  0
  179.3940  181.4650  141.5630 O   0  0  0  0  0  0  0  0  0  0  0  0
  179.4610  179.1290  141.2750 C   0  0  0  0  0  2  0  0  0  0  0  0
  179.6130  180.5460  140.7930 C   0  0  0  0  0  0  0  0  0  0  0  0
  182.9160  177.2450  139.6760 C   0  0  0  0  0  2  0  0  0  0  0  0
  182.5990  175.2530  138.1950 C   0  0  0  0  0  1  0  0  0  0  0  0
  182.2040  175.9110  139.5030 C   0  0  0  0  0  2  0  0  0  0  0  0
  188.4680  177.5420  144.1260 N   0  0  0  0  0  2  0  0  0  0  0  0
  189.1170  177.1290  146.4910 C   0  0  0  0  0  3  0  0  0  0  0  0
  190.0820  176.7440  147.4270 C   0  0  0  0  0  3  0  0  0  0  0  0
  190.7090  176.7820  144.7060 C   0  0  0  0  0  3  0  0  0  0  0  0
  191.6750  176.3970  145.6400 C   0  0  0  0  0  3  0  0  0  0  0  0
  189.4250  177.1500  145.1210 C   0  0  0  0  0  0  0  0  0  0  0  0
  191.3610  176.3780  147.0020 C   0  0  0  0  0  3  0  0  0  0  0  0
  1  3  1  0  0  0  0
  2  7  1  0  0  0  0
  4  1  1  0  0  0  0
  5  2  2  0  0  0  0
  5  6  1  0  0  0  0
  6  4  2  0  0  0  0
  7 12  1  0  0  0  0
  7  1  2  0  0  0  0
  8  9  1  1  0  0  0
  8  5  1  0  0  0  0
 10  8  1  0  0  0  0
 11 10  2  0  0  0  0
 13 12  1  0  0  0  0
 14 13  1  0  0  0  0
 15 17  2  0  0  0  0
 16 25  1  0  0  0  0
 17 22  1  0  0  0  0
 19 18  1  6  0  0  0
 19 17  1  0  0  0  0
 19 16  1  0  0  0  0
 20 21  1  0  0  0  0
 21 14  1  1  0  0  0
 22 20  1  0  0  0  0
 24 21  1  0  0  0  0
 25 24  1  0  0  0  0
 25 23  2  0  0  0  0
 26 22  1  0  0  0  0
 27 28  1  0  0  0  0
 28 26  1  0  0  0  0
 29  6  1  0  0  0  0
 29 34  1  0  0  0  0
 30 31  1  0  0  0  0
 32 34  1  0  0  0  0
 32 33  2  0  0  0  0
 33 35  1  0  0  0  0
 34 30  2  0  0  0  0
 35 31  2  0  0  0  0
M  END
>  <MODEL>
8

>  <REMARK>
 VINA RESULT:      -7.6      2.320     10.014
  Name = 
  10 active torsions:
  status: ('A' for Active; 'I' for Inactive)
    1  A    between atoms: C_1  and  C_5
    2  A    between atoms: C_5  and  C_25
    3  A    between atoms: C_6  and  C_18
    4  A    between atoms: C_6  and  C_35
    5  A    between atoms: C_7  and  C_18
    6  A    between atoms: C_7  and  C_21
    7  A    between atoms: C_9  and  N_22
    8  A    between atoms: C_9  and  C_29
    9  A    between atoms: N_26  and  C_31
   10  A    between atoms: N_26  and  C_32
                            x       y       z     vdW  Elec       q    Type
                         _______ _______ _______ _____ _____    ______ ____

>  <TORSDO>
F 10

$$$$
=
 OpenBabel11062413433D

 35 37  0  0  1  0  0  0  0  0999 V2000
  187.3440  178.0380  138.9910 C   0  0  0  0  0  0  0  0  0  0  0  0
  189.6520  177.3750  139.2800 C   0  0  0  0  0  3  0  0  0  0  0  0
  186.2210  178.7400  139.4120 O   0  0  0  0  0  1  0  0  0  0  0  0
  187.2750  177.2650  137.8300 C   0  0  0  0  0  3  0  0  0  0  0  0
  189.5870  176.5970  138.1160 C   0  0  0  0  0  0  0  0  0  0  0  0
  188.3880  176.5400  137.3780 C   0  0  0  0  0  0  0  0  0  0  0  0
  188.5400  178.0980  139.7180 C   0  0  0  0  0  0  0  0  0  0  0  0
  190.7970  175.8360  137.6610 C   0  0  2  0  0  3  0  0  0  0  0  0
  190.6630  174.4810  137.9660 O   0  0  0  0  0  1  0  0  0  0  0  0
  192.0350  176.3860  138.2950 C   0  0  0  0  0  3  0  0  0  0  0  0
  192.9700  176.7530  137.6030 O   0  0  0  0  0  0  0  0  0  0  0  0
  188.6430  178.8990  140.9730 C   0  0  0  0  0  2  0  0  0  0  0  0
  187.8650  178.2210  142.0860 C   0  0  0  0  0  2  0  0  0  0  0  0
  188.2920  176.7690  142.2220 C   0  0  0  0  0  2  0  0  0  0  0  0
  189.5690  177.5940  147.7850 O   0  0  0  0  0  0  0  0  0  0  0  0
  191.6790  177.5390  144.9780 C   0  0  0  0  0  2  0  0  0  0  0  0
  189.7390  177.2570  146.5820 C   0  0  0  0  0  0  0  0  0  0  0  0
  191.9930  176.7600  147.2080 O   0  0  0  0  0  1  0  0  0  0  0  0
  191.0900  176.7480  146.1430 C   0  0  2  0  0  3  0  0  0  0  0  0
  188.8080  177.6670  144.3800 O   0  0  0  0  0  0  0  0  0  0  0  0
  188.8290  176.4860  143.6180 C   0  0  2  0  0  3  0  0  0  0  0  0
  188.6210  177.2960  145.6730 N   0  0  0  0  0  0  0  0  0  0  0  0
  191.8470  177.3880  142.6330 O   0  0  0  0  0  0  0  0  0  0  0  0
  190.2420  175.9050  143.5110 C   0  0  0  0  0  2  0  0  0  0  0  0
  191.3070  176.9600  143.6390 C   0  0  0  0  0  0  0  0  0  0  0  0
  187.2560  177.2900  146.1970 C   0  0  0  0  0  2  0  0  0  0  0  0
  185.1300  178.6080  146.2200 C   0  0  0  0  0  1  0  0  0  0  0  0
  186.3680  178.2520  145.4200 C   0  0  0  0  0  2  0  0  0  0  0  0
  188.3350  175.7440  136.1810 N   0  0  0  0  0  2  0  0  0  0  0  0
  186.7000  173.9210  136.6180 C   0  0  0  0  0  3  0  0  0  0  0  0
  186.2950  172.5950  136.4370 C   0  0  0  0  0  3  0  0  0  0  0  0
  188.6440  173.5180  135.2400 C   0  0  0  0  0  3  0  0  0  0  0  0
  188.2410  172.1920  135.0570 C   0  0  0  0  0  3  0  0  0  0  0  0
  187.8790  174.3930  136.0190 C   0  0  0  0  0  0  0  0  0  0  0  0
  187.0650  171.7300  135.6570 C   0  0  0  0  0  3  0  0  0  0  0  0
  1  3  1  0  0  0  0
  1  7  1  0  0  0  0
  2  7  2  0  0  0  0
  4  1  2  0  0  0  0
  5  2  1  0  0  0  0
  6  4  1  0  0  0  0
  6  5  2  0  0  0  0
  7 12  1  0  0  0  0
  8  9  1  1  0  0  0
  8  5  1  0  0  0  0
  8 10  1  0  0  0  0
 11 10  2  0  0  0  0
 12 13  1  0  0  0  0
 13 14  1  0  0  0  0
 16 19  1  0  0  0  0
 17 15  2  0  0  0  0
 19 17  1  0  0  0  0
 19 18  1  1  0  0  0
 20 22  1  0  0  0  0
 21 14  1  6  0  0  0
 21 20  1  0  0  0  0
 22 26  1  0  0  0  0
 22 17  1  0  0  0  0
 23 25  2  0  0  0  0
 24 21  1  0  0  0  0
 24 25  1  0  0  0  0
 25 16  1  0  0  0  0
 28 26  1  0  0  0  0
 28 27  1  0  0  0  0
 29  6  1  0  0  0  0
 31 30  1  0  0  0  0
 32 34  1  0  0  0  0
 33 32  2  0  0  0  0
 33 35  1  0  0  0  0
 34 29  1  0  0  0  0
 34 30  2  0  0  0  0
 35 31  2  0  0  0  0
M  END
>  <MODEL>
9

>  <REMARK>
 VINA RESULT:      -7.6      4.578      6.994
  Name = 
  10 active torsions:
  status: ('A' for Active; 'I' for Inactive)
    1  A    between atoms: C_1  and  C_5
    2  A    between atoms: C_5  and  C_25
    3  A    between atoms: C_6  and  C_18
    4  A    between atoms: C_6  and  C_35
    5  A    between atoms: C_7  and  C_18
    6  A    between atoms: C_7  and  C_21
    7  A    between atoms: C_9  and  N_22
    8  A    between atoms: C_9  and  C_29
    9  A    between atoms: N_26  and  C_31
   10  A    between atoms: N_26  and  C_32
                            x       y       z     vdW  Elec       q    Type
                         _______ _______ _______ _____ _____    ______ ____

>  <TORSDO>
F 10

$$$$
