=
 OpenBabel11062415343D

 35 37  0  0  1  0  0  0  0  0999 V2000
  184.6040  178.8130  145.0030 C   0  0  0  0  0  0  0  0  0  0  0  0
  186.3800  177.6020  144.1900 C   0  0  0  0  0  3  0  0  0  0  0  0
  185.0380  178.1080  143.7640 C   0  0  2  0  0  3  0  0  0  0  0  0
  183.3830  179.4590  145.1430 O   0  0  0  0  0  1  0  0  0  0  0  0
  186.6260  177.9910  145.4340 C   0  0  0  0  0  0  0  0  0  0  0  0
  185.5110  178.7620  145.9610 C   0  0  0  0  0  3  0  0  0  0  0  0
  187.8630  177.7140  146.1850 C   0  0  0  0  0  0  0  0  0  0  0  0
  189.1700  177.7930  145.7440 C   0  0  0  0  0  0  0  0  0  0  0  0
  189.1800  177.1900  147.7770 C   0  0  0  0  0  3  0  0  0  0  0  0
  187.8700  177.3250  147.4750 N   0  0  0  0  0  0  0  0  0  0  0  0
  189.9480  177.4690  146.7450 O   0  0  0  0  0  0  0  0  0  0  0  0
  189.6770  178.1530  144.3830 C   0  0  0  0  0  2  0  0  0  0  0  0
  191.1970  178.1030  144.2930 C   0  0  2  0  0  3  0  0  0  0  0  0
  191.6780  179.3990  144.1220 O   0  0  0  0  0  1  0  0  0  0  0  0
  191.6620  177.2450  143.1260 C   0  0  0  0  0  2  0  0  0  0  0  0
  192.0990  175.0400  144.2110 O   0  0  0  0  0  1  0  0  0  0  0  0
  190.3180  175.3060  142.7920 O   0  0  0  0  0  0  0  0  0  0  0  0
  191.3170  175.8150  143.3640 C   0  0  0  0  0  0  0  0  0  0  0  0
  185.1840  179.1230  142.6360 C   0  0  0  0  0  2  0  0  0  0  0  0
  184.8870  178.4900  141.2850 C   0  0  1  0  0  3  0  0  0  0  0  0
  181.5370  178.7820  139.6550 O   0  0  0  0  0  0  0  0  0  0  0  0
  181.8780  180.7820  138.4080 C   0  0  0  0  0  1  0  0  0  0  0  0
  182.3500  178.3790  140.7330 C   0  0  2  0  0  0  0  0  0  0  0  0
  182.5580  176.8690  140.6460 C   0  0  0  0  0  1  0  0  0  0  0  0
  181.7000  178.6780  141.9300 O   0  0  0  0  0  1  0  0  0  0  0  0
  182.3690  179.3680  138.6740 C   0  0  1  0  0  0  0  0  0  0  0  0
  183.6530  179.1660  140.6550 C   0  0  2  0  0  3  0  0  0  0  0  0
  183.7960  179.4160  139.1880 C   0  0  0  0  0  2  0  0  0  0  0  0
  182.2880  178.5310  137.3970 C   0  0  0  0  0  2  0  0  0  0  0  0
  183.7140  177.4090  137.1840 S   0  0  0  0  0  1  0  0  0  0  0  0
  186.1210  178.6690  140.4090 C   0  0  0  0  0  2  0  0  0  0  0  0
  187.3550  178.8850  141.2680 C   0  0  0  0  0  2  0  0  0  0  0  0
  188.4400  177.8880  140.8970 C   0  0  0  0  0  2  0  0  0  0  0  0
  188.7520  177.1640  138.6410 O   0  0  0  0  0  1  0  0  0  0  0  0
  189.0260  178.2030  139.5310 C   0  0  0  0  0  2  0  0  0  0  0  0
  1  4  1  0  0  0  0
  1  6  2  0  0  0  0
  2  5  2  0  0  0  0
  3 19  1  6  0  0  0
  3  2  1  0  0  0  0
  3  1  1  0  0  0  0
  5  6  1  0  0  0  0
  5  7  1  0  0  0  0
  7 10  1  0  0  0  0
  8  7  2  0  0  0  0
  8 11  1  0  0  0  0
 10  9  2  0  0  0  0
 11  9  1  0  0  0  0
 12  8  1  0  0  0  0
 13 14  1  6  0  0  0
 13 12  1  0  0  0  0
 15 18  1  0  0  0  0
 15 13  1  0  0  0  0
 17 18  2  0  0  0  0
 18 16  1  0  0  0  0
 20 31  1  6  0  0  0
 20 19  1  0  0  0  0
 21 23  1  0  0  0  0
 23 24  1  6  0  0  0
 23 25  1  0  0  0  0
 26 22  1  6  0  0  0
 26 28  1  0  0  0  0
 26 21  1  0  0  0  0
 27 23  1  0  0  0  0
 27 20  1  6  0  0  0
 28 27  1  0  0  0  0
 29 26  1  0  0  0  0
 30 29  1  0  0  0  0
 31 32  1  0  0  0  0
 33 32  1  0  0  0  0
 34 35  1  0  0  0  0
 35 33  1  0  0  0  0
M  END
>  <MODEL>
1

>  <REMARK>
 VINA RESULT:      -7.7      0.000      0.000
  Name = 
  13 active torsions:
  status: ('A' for Active; 'I' for Inactive)
    1  A    between atoms: C_1  and  C_21
    2  A    between atoms: C_2  and  C_16
    3  A    between atoms: C_2  and  C_19
    4  A    between atoms: C_3  and  C_20
    5  A    between atoms: C_3  and  C_26
    6  A    between atoms: C_5  and  C_24
    7  A    between atoms: C_13  and  C_18
    8  A    between atoms: C_14  and  C_30
    9  A    between atoms: C_16  and  C_30
   10  A    between atoms: C_18  and  C_29
   11  A    between atoms: C_20  and  C_28
   12  A    between atoms: C_23  and  C_29
   13  A    between atoms: C_26  and  C_29
                            x       y       z     vdW  Elec       q    Type
                         _______ _______ _______ _____ _____    ______ ____

>  <TORSDO>
F 13

$$$$
=
 OpenBabel11062415343D

 35 37  0  0  1  0  0  0  0  0999 V2000
  184.1840  179.0470  144.4810 C   0  0  0  0  0  0  0  0  0  0  0  0
  186.0660  177.7560  144.2140 C   0  0  0  0  0  3  0  0  0  0  0  0
  184.8650  178.2150  143.4500 C   0  0  2  0  0  3  0  0  0  0  0  0
  182.9780  179.7050  144.2790 O   0  0  0  0  0  1  0  0  0  0  0  0
  186.0410  178.2750  145.4340 C   0  0  0  0  0  0  0  0  0  0  0  0
  184.8550  179.0980  145.6170 C   0  0  0  0  0  3  0  0  0  0  0  0
  187.0740  178.0790  146.4650 C   0  0  0  0  0  0  0  0  0  0  0  0
  188.4050  177.7490  146.2950 C   0  0  0  0  0  0  0  0  0  0  0  0
  188.0240  177.9570  148.3700 C   0  0  0  0  0  3  0  0  0  0  0  0
  186.8310  178.2050  147.7840 N   0  0  0  0  0  0  0  0  0  0  0  0
  188.9550  177.6870  147.4800 O   0  0  0  0  0  0  0  0  0  0  0  0
  189.1440  177.4780  145.0230 C   0  0  0  0  0  2  0  0  0  0  0  0
  190.6100  177.8850  145.1000 C   0  0  2  0  0  3  0  0  0  0  0  0
  190.8820  178.7760  144.0630 O   0  0  0  0  0  1  0  0  0  0  0  0
  191.5350  176.6840  144.9730 C   0  0  0  0  0  2  0  0  0  0  0  0
  192.4040  174.9080  146.4970 O   0  0  0  0  0  0  0  0  0  0  0  0
  191.9120  176.9960  147.3050 O   0  0  0  0  0  1  0  0  0  0  0  0
  191.9600  176.2130  146.3220 C   0  0  0  0  0  0  0  0  0  0  0  0
  185.2790  179.1040  142.2840 C   0  0  0  0  0  2  0  0  0  0  0  0
  184.9240  178.4660  140.9500 C   0  0  1  0  0  3  0  0  0  0  0  0
  181.5360  178.6970  139.3890 O   0  0  0  0  0  0  0  0  0  0  0  0
  181.7550  180.7930  138.2800 C   0  0  0  0  0  1  0  0  0  0  0  0
  182.3860  178.2630  140.4260 C   0  0  2  0  0  0  0  0  0  0  0  0
  182.6680  176.7750  140.2310 C   0  0  0  0  0  1  0  0  0  0  0  0
  181.7430  178.4450  141.6500 O   0  0  0  0  0  1  0  0  0  0  0  0
  182.3210  179.3910  138.4410 C   0  0  1  0  0  0  0  0  0  0  0  0
  183.6470  179.1190  140.3860 C   0  0  2  0  0  3  0  0  0  0  0  0
  183.7520  179.4770  138.9370 C   0  0  0  0  0  2  0  0  0  0  0  0
  182.2600  178.6420  137.1090 C   0  0  0  0  0  2  0  0  0  0  0  0
  180.9060  179.2160  136.0270 S   0  0  0  0  0  1  0  0  0  0  0  0
  186.1070  178.6640  140.0110 C   0  0  0  0  0  2  0  0  0  0  0  0
  187.4150  178.4560  140.7540 C   0  0  0  0  0  2  0  0  0  0  0  0
  188.5660  178.3210  139.7700 C   0  0  0  0  0  2  0  0  0  0  0  0
  188.5890  179.2500  137.5690 O   0  0  0  0  0  1  0  0  0  0  0  0
  188.0540  178.2200  138.3430 C   0  0  0  0  0  2  0  0  0  0  0  0
  1  6  2  0  0  0  0
  2  5  2  0  0  0  0
  3 19  1  6  0  0  0
  3  2  1  0  0  0  0
  3  1  1  0  0  0  0
  4  1  1  0  0  0  0
  5  6  1  0  0  0  0
  5  7  1  0  0  0  0
  7 10  1  0  0  0  0
  8  7  2  0  0  0  0
  8 11  1  0  0  0  0
 10  9  2  0  0  0  0
 11  9  1  0  0  0  0
 12 13  1  0  0  0  0
 12  8  1  0  0  0  0
 13 14  1  6  0  0  0
 15 13  1  0  0  0  0
 15 18  1  0  0  0  0
 18 16  2  0  0  0  0
 18 17  1  0  0  0  0
 20 31  1  6  0  0  0
 20 19  1  0  0  0  0
 21 23  1  0  0  0  0
 23 24  1  6  0  0  0
 23 25  1  0  0  0  0
 26 22  1  6  0  0  0
 26 28  1  0  0  0  0
 26 21  1  0  0  0  0
 27 23  1  0  0  0  0
 27 20  1  6  0  0  0
 28 27  1  0  0  0  0
 29 26  1  0  0  0  0
 30 29  1  0  0  0  0
 31 32  1  0  0  0  0
 33 32  1  0  0  0  0
 34 35  1  0  0  0  0
 35 33  1  0  0  0  0
M  END
>  <MODEL>
2

>  <REMARK>
 VINA RESULT:      -7.4      1.316      1.524
  Name = 
  13 active torsions:
  status: ('A' for Active; 'I' for Inactive)
    1  A    between atoms: C_1  and  C_21
    2  A    between atoms: C_2  and  C_16
    3  A    between atoms: C_2  and  C_19
    4  A    between atoms: C_3  and  C_20
    5  A    between atoms: C_3  and  C_26
    6  A    between atoms: C_5  and  C_24
    7  A    between atoms: C_13  and  C_18
    8  A    between atoms: C_14  and  C_30
    9  A    between atoms: C_16  and  C_30
   10  A    between atoms: C_18  and  C_29
   11  A    between atoms: C_20  and  C_28
   12  A    between atoms: C_23  and  C_29
   13  A    between atoms: C_26  and  C_29
                            x       y       z     vdW  Elec       q    Type
                         _______ _______ _______ _____ _____    ______ ____

>  <TORSDO>
F 13

$$$$
=
 OpenBabel11062415343D

 35 37  0  0  1  0  0  0  0  0999 V2000
  184.9990  178.6820  144.9540 C   0  0  0  0  0  0  0  0  0  0  0  0
  186.4200  177.5990  143.5090 C   0  0  0  0  0  3  0  0  0  0  0  0
  185.0210  178.1250  143.5720 C   0  0  2  0  0  3  0  0  0  0  0  0
  183.8900  179.2870  145.5310 O   0  0  0  0  0  1  0  0  0  0  0  0
  187.0420  177.8550  144.6520 C   0  0  0  0  0  0  0  0  0  0  0  0
  186.1550  178.5430  145.5760 C   0  0  0  0  0  3  0  0  0  0  0  0
  188.4450  177.5200  144.9520 C   0  0  0  0  0  0  0  0  0  0  0  0
  189.5540  177.6620  144.1410 C   0  0  0  0  0  0  0  0  0  0  0  0
  190.1790  176.8550  145.9990 C   0  0  0  0  0  3  0  0  0  0  0  0
  188.8420  177.0010  146.1300 N   0  0  0  0  0  0  0  0  0  0  0  0
  190.5960  177.2490  144.8140 O   0  0  0  0  0  0  0  0  0  0  0  0
  189.6230  178.1670  142.7340 C   0  0  0  0  0  2  0  0  0  0  0  0
  189.3870  177.0670  141.7060 C   0  0  2  0  0  3  0  0  0  0  0  0
  190.1260  175.9450  142.0750 O   0  0  0  0  0  1  0  0  0  0  0  0
  189.8130  177.5020  140.3110 C   0  0  0  0  0  2  0  0  0  0  0  0
  187.4720  178.3590  140.1830 O   0  0  0  0  0  1  0  0  0  0  0  0
  189.0800  179.1480  138.7520 O   0  0  0  0  0  0  0  0  0  0  0  0
  188.7760  178.3830  139.7040 C   0  0  0  0  0  0  0  0  0  0  0  0
  184.8300  179.2580  142.5720 C   0  0  0  0  0  2  0  0  0  0  0  0
  183.5440  179.0830  141.7790 C   0  0  1  0  0  3  0  0  0  0  0  0
  183.3530  178.2710  138.1370 O   0  0  0  0  0  0  0  0  0  0  0  0
  183.7990  175.9330  138.2300 C   0  0  0  0  0  1  0  0  0  0  0  0
  183.6410  179.1690  139.1830 C   0  0  2  0  0  0  0  0  0  0  0  0
  182.4930  180.1700  139.2940 C   0  0  0  0  0  1  0  0  0  0  0  0
  184.8150  179.8590  138.8830 O   0  0  0  0  0  1  0  0  0  0  0  0
  182.8990  177.0620  138.7090 C   0  0  1  0  0  0  0  0  0  0  0  0
  183.8460  178.3540  140.4550 C   0  0  2  0  0  3  0  0  0  0  0  0
  182.9750  177.1610  140.2210 C   0  0  0  0  0  2  0  0  0  0  0  0
  181.4580  176.8150  138.2600 C   0  0  0  0  0  2  0  0  0  0  0  0
  180.2450  177.0100  139.6110 S   0  0  0  0  0  1  0  0  0  0  0  0
  182.5730  178.2850  142.6400 C   0  0  0  0  0  2  0  0  0  0  0  0
  181.5110  179.1970  143.2290 C   0  0  0  0  0  2  0  0  0  0  0  0
  180.1300  178.5900  143.0430 C   0  0  0  0  0  2  0  0  0  0  0  0
  179.7600  180.8780  142.4610 O   0  0  0  0  0  1  0  0  0  0  0  0
  179.1280  179.6410  142.5940 C   0  0  0  0  0  2  0  0  0  0  0  0
  1  4  1  0  0  0  0
  1  6  2  0  0  0  0
  2  3  1  0  0  0  0
  2  5  2  0  0  0  0
  3 19  1  6  0  0  0
  3  1  1  0  0  0  0
  5  7  1  0  0  0  0
  5  6  1  0  0  0  0
  7 10  1  0  0  0  0
  8 11  1  0  0  0  0
  8  7  2  0  0  0  0
  9 10  2  0  0  0  0
 11  9  1  0  0  0  0
 12  8  1  0  0  0  0
 13 14  1  1  0  0  0
 13 12  1  0  0  0  0
 15 13  1  0  0  0  0
 17 18  2  0  0  0  0
 18 16  1  0  0  0  0
 18 15  1  0  0  0  0
 20 19  1  1  0  0  0
 20 31  1  0  0  0  0
 21 26  1  0  0  0  0
 21 23  1  0  0  0  0
 23 24  1  1  0  0  0
 23 27  1  0  0  0  0
 25 23  1  0  0  0  0
 26 22  1  6  0  0  0
 26 28  1  0  0  0  0
 27 20  1  1  0  0  0
 28 27  1  0  0  0  0
 29 26  1  0  0  0  0
 29 30  1  0  0  0  0
 31 32  1  0  0  0  0
 33 32  1  0  0  0  0
 34 35  1  0  0  0  0
 35 33  1  0  0  0  0
M  END
>  <MODEL>
3

>  <REMARK>
 VINA RESULT:      -7.4      1.948      4.235
  Name = 
  13 active torsions:
  status: ('A' for Active; 'I' for Inactive)
    1  A    between atoms: C_1  and  C_21
    2  A    between atoms: C_2  and  C_16
    3  A    between atoms: C_2  and  C_19
    4  A    between atoms: C_3  and  C_20
    5  A    between atoms: C_3  and  C_26
    6  A    between atoms: C_5  and  C_24
    7  A    between atoms: C_13  and  C_18
    8  A    between atoms: C_14  and  C_30
    9  A    between atoms: C_16  and  C_30
   10  A    between atoms: C_18  and  C_29
   11  A    between atoms: C_20  and  C_28
   12  A    between atoms: C_23  and  C_29
   13  A    between atoms: C_26  and  C_29
                            x       y       z     vdW  Elec       q    Type
                         _______ _______ _______ _____ _____    ______ ____

>  <TORSDO>
F 13

$$$$
=
 OpenBabel11062415343D

 35 37  0  0  1  0  0  0  0  0999 V2000
  184.9010  179.0840  141.3000 C   0  0  0  0  0  0  0  0  0  0  0  0
  183.6240  178.6280  143.1550 C   0  0  0  0  0  3  0  0  0  0  0  0
  183.4810  178.8480  141.6820 C   0  0  2  0  0  3  0  0  0  0  0  0
  185.3230  179.3650  140.0070 O   0  0  0  0  0  1  0  0  0  0  0  0
  184.9040  178.7090  143.4930 C   0  0  0  0  0  0  0  0  0  0  0  0
  185.7250  178.9960  142.3270 C   0  0  0  0  0  3  0  0  0  0  0  0
  185.4400  178.5130  144.8510 C   0  0  0  0  0  0  0  0  0  0  0  0
  186.5810  177.8330  145.2330 C   0  0  0  0  0  0  0  0  0  0  0  0
  185.6500  178.6160  146.9690 C   0  0  0  0  0  3  0  0  0  0  0  0
  184.8470  179.0050  145.9550 N   0  0  0  0  0  0  0  0  0  0  0  0
  186.6790  177.9200  146.5340 O   0  0  0  0  0  0  0  0  0  0  0  0
  187.5580  177.0930  144.3750 C   0  0  0  0  0  2  0  0  0  0  0  0
  188.9300  177.7570  144.3450 C   0  0  2  0  0  3  0  0  0  0  0  0
  189.1590  178.2520  143.0630 O   0  0  0  0  0  1  0  0  0  0  0  0
  190.0360  176.7760  144.7010 C   0  0  0  0  0  2  0  0  0  0  0  0
  189.7440  177.3490  147.1130 O   0  0  0  0  0  1  0  0  0  0  0  0
  191.8420  177.1270  146.2160 O   0  0  0  0  0  0  0  0  0  0  0  0
  190.5960  177.0900  146.0460 C   0  0  0  0  0  0  0  0  0  0  0  0
  182.9830  177.5810  140.9980 C   0  0  0  0  0  2  0  0  0  0  0  0
  181.6840  177.8330  140.2470 C   0  0  1  0  0  3  0  0  0  0  0  0
  179.9320  181.0920  139.7230 O   0  0  0  0  0  0  0  0  0  0  0  0
  181.5370  182.1850  138.3430 C   0  0  0  0  0  1  0  0  0  0  0  0
  180.2150  179.9610  140.5130 C   0  0  2  0  0  0  0  0  0  0  0  0
  179.0270  179.0040  140.4330 C   0  0  0  0  0  1  0  0  0  0  0  0
  180.3850  180.3610  141.8380 O   0  0  0  0  0  1  0  0  0  0  0  0
  180.6430  180.9660  138.5080 C   0  0  1  0  0  0  0  0  0  0  0  0
  181.5130  179.3450  140.0010 C   0  0  2  0  0  3  0  0  0  0  0  0
  181.4980  179.7140  138.5520 C   0  0  0  0  0  2  0  0  0  0  0  0
  179.6390  180.8890  137.3560 C   0  0  0  0  0  2  0  0  0  0  0  0
  180.4300  180.9640  135.7120 S   0  0  0  0  0  1  0  0  0  0  0  0
  181.7510  177.0640  138.9330 C   0  0  0  0  0  2  0  0  0  0  0  0
  182.8350  176.0030  138.9940 C   0  0  0  0  0  2  0  0  0  0  0  0
  183.5460  175.8940  137.6550 C   0  0  0  0  0  2  0  0  0  0  0  0
  185.5830  177.1410  137.5800 O   0  0  0  0  0  1  0  0  0  0  0  0
  184.2200  177.2060  137.2870 C   0  0  0  0  0  2  0  0  0  0  0  0
  1  3  1  0  0  0  0
  1  6  2  0  0  0  0
  2  5  2  0  0  0  0
  3 19  1  6  0  0  0
  3  2  1  0  0  0  0
  4  1  1  0  0  0  0
  5  7  1  0  0  0  0
  6  5  1  0  0  0  0
  7  8  2  0  0  0  0
  7 10  1  0  0  0  0
  8 11  1  0  0  0  0
 10  9  2  0  0  0  0
 11  9  1  0  0  0  0
 12  8  1  0  0  0  0
 13 14  1  6  0  0  0
 13 12  1  0  0  0  0
 13 15  1  0  0  0  0
 15 18  1  0  0  0  0
 18 17  2  0  0  0  0
 18 16  1  0  0  0  0
 20 31  1  6  0  0  0
 20 19  1  0  0  0  0
 21 23  1  0  0  0  0
 23 24  1  6  0  0  0
 23 25  1  0  0  0  0
 26 22  1  6  0  0  0
 26 28  1  0  0  0  0
 26 21  1  0  0  0  0
 27 20  1  6  0  0  0
 27 23  1  0  0  0  0
 28 27  1  0  0  0  0
 29 26  1  0  0  0  0
 30 29  1  0  0  0  0
 31 32  1  0  0  0  0
 33 32  1  0  0  0  0
 35 34  1  0  0  0  0
 35 33  1  0  0  0  0
M  END
>  <MODEL>
4

>  <REMARK>
 VINA RESULT:      -7.0      2.295      3.624
  Name = 
  13 active torsions:
  status: ('A' for Active; 'I' for Inactive)
    1  A    between atoms: C_1  and  C_21
    2  A    between atoms: C_2  and  C_16
    3  A    between atoms: C_2  and  C_19
    4  A    between atoms: C_3  and  C_20
    5  A    between atoms: C_3  and  C_26
    6  A    between atoms: C_5  and  C_24
    7  A    between atoms: C_13  and  C_18
    8  A    between atoms: C_14  and  C_30
    9  A    between atoms: C_16  and  C_30
   10  A    between atoms: C_18  and  C_29
   11  A    between atoms: C_20  and  C_28
   12  A    between atoms: C_23  and  C_29
   13  A    between atoms: C_26  and  C_29
                            x       y       z     vdW  Elec       q    Type
                         _______ _______ _______ _____ _____    ______ ____

>  <TORSDO>
F 13

$$$$
=
 OpenBabel11062415343D

 35 37  0  0  1  0  0  0  0  0999 V2000
  185.0930  178.8810  141.1730 C   0  0  0  0  0  0  0  0  0  0  0  0
  183.7130  178.6150  142.9910 C   0  0  0  0  0  3  0  0  0  0  0  0
  183.6460  178.7610  141.5030 C   0  0  2  0  0  3  0  0  0  0  0  0
  185.5860  179.0600  139.8870 O   0  0  0  0  0  1  0  0  0  0  0  0
  184.9810  178.6300  143.3810 C   0  0  0  0  0  0  0  0  0  0  0  0
  185.8670  178.7950  142.2390 C   0  0  0  0  0  3  0  0  0  0  0  0
  185.4470  178.4750  144.7690 C   0  0  0  0  0  0  0  0  0  0  0  0
  186.5740  177.8200  145.2280 C   0  0  0  0  0  0  0  0  0  0  0  0
  185.5430  178.6330  146.8930 C   0  0  0  0  0  3  0  0  0  0  0  0
  184.7900  178.9860  145.8280 N   0  0  0  0  0  0  0  0  0  0  0  0
  186.6020  177.9400  146.5300 O   0  0  0  0  0  0  0  0  0  0  0  0
  187.6050  177.0730  144.4420 C   0  0  0  0  0  2  0  0  0  0  0  0
  188.9790  177.7290  144.5060 C   0  0  2  0  0  3  0  0  0  0  0  0
  189.2650  178.2880  143.2630 O   0  0  0  0  0  1  0  0  0  0  0  0
  190.0650  176.7240  144.8580 C   0  0  0  0  0  2  0  0  0  0  0  0
  189.7850  177.3180  147.2670 O   0  0  0  0  0  1  0  0  0  0  0  0
  191.8770  177.0120  146.3790 O   0  0  0  0  0  0  0  0  0  0  0  0
  190.6310  177.0220  146.2050 C   0  0  0  0  0  0  0  0  0  0  0  0
  183.0900  177.4940  140.8660 C   0  0  0  0  0  2  0  0  0  0  0  0
  181.7690  177.7650  140.1610 C   0  0  1  0  0  3  0  0  0  0  0  0
  180.0210  181.0360  139.7110 O   0  0  0  0  0  0  0  0  0  0  0  0
  181.6130  182.1470  138.3310 C   0  0  0  0  0  1  0  0  0  0  0  0
  180.3090  179.8920  140.4790 C   0  0  2  0  0  0  0  0  0  0  0  0
  179.1180  178.9390  140.3980 C   0  0  0  0  0  1  0  0  0  0  0  0
  180.4960  180.2690  141.8090 O   0  0  0  0  0  1  0  0  0  0  0  0
  180.7170  180.9280  138.4860 C   0  0  1  0  0  0  0  0  0  0  0  0
  181.5990  179.2810  139.9420 C   0  0  2  0  0  3  0  0  0  0  0  0
  181.5680  179.6730  138.4990 C   0  0  0  0  0  2  0  0  0  0  0  0
  179.7000  180.8730  137.3450 C   0  0  0  0  0  2  0  0  0  0  0  0
  180.3360  181.5760  135.7840 S   0  0  0  0  0  1  0  0  0  0  0  0
  181.7890  177.0140  138.8360 C   0  0  0  0  0  2  0  0  0  0  0  0
  181.4060  175.5590  139.0440 C   0  0  0  0  0  2  0  0  0  0  0  0
  180.2670  175.4500  140.0450 C   0  0  0  0  0  2  0  0  0  0  0  0
  179.9280  173.3850  138.8910 O   0  0  0  0  0  1  0  0  0  0  0  0
  179.2780  174.3730  139.6310 C   0  0  0  0  0  2  0  0  0  0  0  0
  1  3  1  0  0  0  0
  1  6  2  0  0  0  0
  2  5  2  0  0  0  0
  3 19  1  6  0  0  0
  3  2  1  0  0  0  0
  4  1  1  0  0  0  0
  5  7  1  0  0  0  0
  6  5  1  0  0  0  0
  7  8  2  0  0  0  0
  7 10  1  0  0  0  0
  8 11  1  0  0  0  0
 10  9  2  0  0  0  0
 11  9  1  0  0  0  0
 12 13  1  0  0  0  0
 12  8  1  0  0  0  0
 13 14  1  6  0  0  0
 13 15  1  0  0  0  0
 15 18  1  0  0  0  0
 18 17  2  0  0  0  0
 18 16  1  0  0  0  0
 20 31  1  6  0  0  0
 20 19  1  0  0  0  0
 21 23  1  0  0  0  0
 23 24  1  6  0  0  0
 23 25  1  0  0  0  0
 26 22  1  6  0  0  0
 26 28  1  0  0  0  0
 26 21  1  0  0  0  0
 27 20  1  6  0  0  0
 27 23  1  0  0  0  0
 28 27  1  0  0  0  0
 29 26  1  0  0  0  0
 30 29  1  0  0  0  0
 31 32  1  0  0  0  0
 32 33  1  0  0  0  0
 34 35  1  0  0  0  0
 35 33  1  0  0  0  0
M  END
>  <MODEL>
5

>  <REMARK>
 VINA RESULT:      -6.9      2.443      4.417
  Name = 
  13 active torsions:
  status: ('A' for Active; 'I' for Inactive)
    1  A    between atoms: C_1  and  C_21
    2  A    between atoms: C_2  and  C_16
    3  A    between atoms: C_2  and  C_19
    4  A    between atoms: C_3  and  C_20
    5  A    between atoms: C_3  and  C_26
    6  A    between atoms: C_5  and  C_24
    7  A    between atoms: C_13  and  C_18
    8  A    between atoms: C_14  and  C_30
    9  A    between atoms: C_16  and  C_30
   10  A    between atoms: C_18  and  C_29
   11  A    between atoms: C_20  and  C_28
   12  A    between atoms: C_23  and  C_29
   13  A    between atoms: C_26  and  C_29
                            x       y       z     vdW  Elec       q    Type
                         _______ _______ _______ _____ _____    ______ ____

>  <TORSDO>
F 13

$$$$
=
 OpenBabel11062415343D

 35 37  0  0  1  0  0  0  0  0999 V2000
  185.4260  178.7010  140.9850 C   0  0  0  0  0  0  0  0  0  0  0  0
  183.9690  177.9030  142.5730 C   0  0  0  0  0  3  0  0  0  0  0  0
  185.4160  177.8390  142.2000 C   0  0  2  0  0  3  0  0  0  0  0  0
  186.5580  178.9600  140.2230 O   0  0  0  0  0  1  0  0  0  0  0  0
  183.3240  178.6850  141.7170 C   0  0  0  0  0  0  0  0  0  0  0  0
  184.2360  179.1990  140.7060 C   0  0  0  0  0  3  0  0  0  0  0  0
  181.8910  179.0190  141.7800 C   0  0  0  0  0  0  0  0  0  0  0  0
  180.9150  178.7960  140.8270 C   0  0  0  0  0  0  0  0  0  0  0  0
  180.0180  179.7340  142.5040 C   0  0  0  0  0  3  0  0  0  0  0  0
  181.3210  179.6200  142.8420 N   0  0  0  0  0  0  0  0  0  0  0  0
  179.7830  179.2430  141.3050 O   0  0  0  0  0  0  0  0  0  0  0  0
  181.0580  178.1840  139.4700 C   0  0  0  0  0  2  0  0  0  0  0  0
  180.7050  179.1550  138.3500 C   0  0  2  0  0  3  0  0  0  0  0  0
  180.7840  178.4810  137.1320 O   0  0  0  0  0  1  0  0  0  0  0  0
  181.6520  180.3450  138.3190 C   0  0  0  0  0  2  0  0  0  0  0  0
  181.5560  182.8140  137.9690 O   0  0  0  0  0  1  0  0  0  0  0  0
  179.7150  181.5100  137.5650 O   0  0  0  0  0  0  0  0  0  0  0  0
  180.9180  181.5810  137.9280 C   0  0  0  0  0  0  0  0  0  0  0  0
  186.2760  178.4850  143.2790 C   0  0  0  0  0  2  0  0  0  0  0  0
  187.2680  177.4910  143.8630 C   0  0  1  0  0  3  0  0  0  0  0  0
  190.9130  177.3170  143.0610 O   0  0  0  0  0  0  0  0  0  0  0  0
  191.6860  179.1770  144.3330 C   0  0  0  0  0  1  0  0  0  0  0  0
  189.5650  177.1110  142.7080 C   0  0  2  0  0  0  0  0  0  0  0  0
  189.2500  175.6230  142.8420 C   0  0  0  0  0  1  0  0  0  0  0  0
  189.3770  177.4960  141.3810 O   0  0  0  0  0  1  0  0  0  0  0  0
  190.9470  177.8480  144.3700 C   0  0  1  0  0  0  0  0  0  0  0  0
  188.7060  177.9860  143.6150 C   0  0  2  0  0  3  0  0  0  0  0  0
  189.5290  178.0720  144.8600 C   0  0  0  0  0  2  0  0  0  0  0  0
  191.6800  176.8630  145.2820 C   0  0  0  0  0  2  0  0  0  0  0  0
  190.9480  176.7540  146.9520 S   0  0  0  0  0  1  0  0  0  0  0  0
  186.9760  177.3670  145.3530 C   0  0  0  0  0  2  0  0  0  0  0  0
  186.1080  178.5210  145.8220 C   0  0  0  0  0  2  0  0  0  0  0  0
  186.2610  178.7240  147.3210 C   0  0  0  0  0  2  0  0  0  0  0  0
  188.3130  178.6270  148.5420 O   0  0  0  0  0  1  0  0  0  0  0  0
  187.3670  177.8430  147.8800 C   0  0  0  0  0  2  0  0  0  0  0  0
  1  3  1  0  0  0  0
  3  2  1  0  0  0  0
  3 19  1  1  0  0  0
  4  1  1  0  0  0  0
  5  7  1  0  0  0  0
  5  2  2  0  0  0  0
  6  1  2  0  0  0  0
  6  5  1  0  0  0  0
  7 10  1  0  0  0  0
  8 11  1  0  0  0  0
  8  7  2  0  0  0  0
  9 10  2  0  0  0  0
 11  9  1  0  0  0  0
 12  8  1  0  0  0  0
 13 14  1  6  0  0  0
 13 12  1  0  0  0  0
 15 13  1  0  0  0  0
 17 18  2  0  0  0  0
 18 16  1  0  0  0  0
 18 15  1  0  0  0  0
 20 19  1  1  0  0  0
 20 31  1  0  0  0  0
 21 26  1  0  0  0  0
 23 24  1  1  0  0  0
 23 21  1  0  0  0  0
 23 27  1  0  0  0  0
 25 23  1  0  0  0  0
 26 22  1  6  0  0  0
 26 28  1  0  0  0  0
 26 29  1  0  0  0  0
 27 20  1  1  0  0  0
 27 28  1  0  0  0  0
 29 30  1  0  0  0  0
 31 32  1  0  0  0  0
 32 33  1  0  0  0  0
 33 35  1  0  0  0  0
 35 34  1  0  0  0  0
M  END
>  <MODEL>
6

>  <REMARK>
 VINA RESULT:      -6.7      3.158      9.100
  Name = 
  13 active torsions:
  status: ('A' for Active; 'I' for Inactive)
    1  A    between atoms: C_1  and  C_21
    2  A    between atoms: C_2  and  C_16
    3  A    between atoms: C_2  and  C_19
    4  A    between atoms: C_3  and  C_20
    5  A    between atoms: C_3  and  C_26
    6  A    between atoms: C_5  and  C_24
    7  A    between atoms: C_13  and  C_18
    8  A    between atoms: C_14  and  C_30
    9  A    between atoms: C_16  and  C_30
   10  A    between atoms: C_18  and  C_29
   11  A    between atoms: C_20  and  C_28
   12  A    between atoms: C_23  and  C_29
   13  A    between atoms: C_26  and  C_29
                            x       y       z     vdW  Elec       q    Type
                         _______ _______ _______ _____ _____    ______ ____

>  <TORSDO>
F 13

$$$$
=
 OpenBabel11062415343D

 35 37  0  0  1  0  0  0  0  0999 V2000
  184.8240  179.1680  141.2330 C   0  0  0  0  0  0  0  0  0  0  0  0
  183.5330  178.8580  143.1090 C   0  0  0  0  0  3  0  0  0  0  0  0
  183.3930  179.1190  141.6420 C   0  0  2  0  0  3  0  0  0  0  0  0
  185.2550  179.4100  139.9350 O   0  0  0  0  0  1  0  0  0  0  0  0
  184.8190  178.7610  143.4210 C   0  0  0  0  0  0  0  0  0  0  0  0
  185.6490  178.9530  142.2420 C   0  0  0  0  0  3  0  0  0  0  0  0
  185.3500  178.4730  144.7640 C   0  0  0  0  0  0  0  0  0  0  0  0
  186.4280  177.6800  145.1090 C   0  0  0  0  0  0  0  0  0  0  0  0
  185.5920  178.4870  146.8820 C   0  0  0  0  0  3  0  0  0  0  0  0
  184.8170  178.9810  145.8920 N   0  0  0  0  0  0  0  0  0  0  0  0
  186.5470  177.7150  146.4110 O   0  0  0  0  0  0  0  0  0  0  0  0
  187.3230  176.8810  144.2150 C   0  0  0  0  0  2  0  0  0  0  0  0
  188.5070  177.6900  143.6990 C   0  0  2  0  0  3  0  0  0  0  0  0
  188.8390  177.2350  142.4250 O   0  0  0  0  0  1  0  0  0  0  0  0
  189.7200  177.5500  144.6060 C   0  0  0  0  0  2  0  0  0  0  0  0
  191.9490  177.5090  143.4820 O   0  0  0  0  0  0  0  0  0  0  0  0
  190.9390  179.5030  143.9890 O   0  0  0  0  0  1  0  0  0  0  0  0
  190.8960  178.2460  144.0100 C   0  0  0  0  0  0  0  0  0  0  0  0
  182.7150  177.9420  140.9520 C   0  0  0  0  0  2  0  0  0  0  0  0
  181.4250  178.3710  140.2690 C   0  0  1  0  0  3  0  0  0  0  0  0
  181.2490  180.2340  137.0350 O   0  0  0  0  0  0  0  0  0  0  0  0
  181.5610  178.4220  135.5190 C   0  0  0  0  0  1  0  0  0  0  0  0
  181.5700  180.1760  138.4050 C   0  0  2  0  0  0  0  0  0  0  0  0
  180.4790  180.9010  139.1900 C   0  0  0  0  0  1  0  0  0  0  0  0
  182.7860  180.8250  138.6170 O   0  0  0  0  0  1  0  0  0  0  0  0
  180.7190  178.9800  136.6560 C   0  0  1  0  0  0  0  0  0  0  0  0
  181.7080  178.7080  138.7920 C   0  0  2  0  0  3  0  0  0  0  0  0
  180.7750  178.0310  137.8390 C   0  0  0  0  0  2  0  0  0  0  0  0
  179.2740  179.1760  136.1950 C   0  0  0  0  0  2  0  0  0  0  0  0
  178.9390  180.8660  135.5900 S   0  0  0  0  0  1  0  0  0  0  0  0
  180.4310  177.2230  140.3930 C   0  0  0  0  0  2  0  0  0  0  0  0
  179.6250  177.3550  141.6730 C   0  0  0  0  0  2  0  0  0  0  0  0
  179.0980  178.7730  141.8220 C   0  0  0  0  0  2  0  0  0  0  0  0
  180.1680  180.6140  142.9070 O   0  0  0  0  0  1  0  0  0  0  0  0
  179.5460  179.3860  143.1380 C   0  0  0  0  0  2  0  0  0  0  0  0
  1  3  1  0  0  0  0
  1  6  2  0  0  0  0
  2  5  2  0  0  0  0
  3 19  1  6  0  0  0
  3  2  1  0  0  0  0
  4  1  1  0  0  0  0
  5  7  1  0  0  0  0
  6  5  1  0  0  0  0
  7  8  2  0  0  0  0
  7 10  1  0  0  0  0
  8 11  1  0  0  0  0
 10  9  2  0  0  0  0
 11  9  1  0  0  0  0
 12  8  1  0  0  0  0
 13 14  1  6  0  0  0
 13 12  1  0  0  0  0
 13 15  1  0  0  0  0
 16 18  2  0  0  0  0
 17 18  1  0  0  0  0
 18 15  1  0  0  0  0
 20 31  1  6  0  0  0
 20 19  1  0  0  0  0
 21 23  1  0  0  0  0
 23 25  1  0  0  0  0
 23 27  1  0  0  0  0
 23 24  1  1  0  0  0
 26 22  1  6  0  0  0
 26 21  1  0  0  0  0
 26 28  1  0  0  0  0
 27 20  1  1  0  0  0
 28 27  1  0  0  0  0
 29 26  1  0  0  0  0
 30 29  1  0  0  0  0
 31 32  1  0  0  0  0
 32 33  1  0  0  0  0
 33 35  1  0  0  0  0
 34 35  1  0  0  0  0
M  END
>  <MODEL>
7

>  <REMARK>
 VINA RESULT:      -6.7      2.345      4.715
  Name = 
  13 active torsions:
  status: ('A' for Active; 'I' for Inactive)
    1  A    between atoms: C_1  and  C_21
    2  A    between atoms: C_2  and  C_16
    3  A    between atoms: C_2  and  C_19
    4  A    between atoms: C_3  and  C_20
    5  A    between atoms: C_3  and  C_26
    6  A    between atoms: C_5  and  C_24
    7  A    between atoms: C_13  and  C_18
    8  A    between atoms: C_14  and  C_30
    9  A    between atoms: C_16  and  C_30
   10  A    between atoms: C_18  and  C_29
   11  A    between atoms: C_20  and  C_28
   12  A    between atoms: C_23  and  C_29
   13  A    between atoms: C_26  and  C_29
                            x       y       z     vdW  Elec       q    Type
                         _______ _______ _______ _____ _____    ______ ____

>  <TORSDO>
F 13

$$$$
=
 OpenBabel11062415343D

 35 37  0  0  1  0  0  0  0  0999 V2000
  187.1160  178.2460  139.4560 C   0  0  0  0  0  0  0  0  0  0  0  0
  187.9770  178.6200  141.5540 C   0  0  0  0  0  3  0  0  0  0  0  0
  186.7310  178.8550  140.7600 C   0  0  2  0  0  3  0  0  0  0  0  0
  186.2930  178.2180  138.3380 O   0  0  0  0  0  1  0  0  0  0  0  0
  188.8640  177.9750  140.8060 C   0  0  0  0  0  0  0  0  0  0  0  0
  188.3300  177.7290  139.4750 C   0  0  0  0  0  3  0  0  0  0  0  0
  190.1970  177.5360  141.2530 C   0  0  0  0  0  0  0  0  0  0  0  0
  190.5710  177.0540  142.4930 C   0  0  0  0  0  0  0  0  0  0  0  0
  192.2770  177.0720  141.2340 C   0  0  0  0  0  3  0  0  0  0  0  0
  191.2830  177.5520  140.4560 N   0  0  0  0  0  0  0  0  0  0  0  0
  191.8480  176.7770  142.4430 O   0  0  0  0  0  0  0  0  0  0  0  0
  189.7300  176.8750  143.7170 C   0  0  0  0  0  2  0  0  0  0  0  0
  190.1870  177.7560  144.8740 C   0  0  2  0  0  3  0  0  0  0  0  0
  190.5330  179.0090  144.3710 O   0  0  0  0  0  1  0  0  0  0  0  0
  191.3890  177.1620  145.5920 C   0  0  0  0  0  2  0  0  0  0  0  0
  189.6700  176.6850  147.3380 O   0  0  0  0  0  0  0  0  0  0  0  0
  191.8980  176.3820  147.7860 O   0  0  0  0  0  1  0  0  0  0  0  0
  191.0070  176.7200  146.9630 C   0  0  0  0  0  0  0  0  0  0  0  0
  185.5650  178.0740  141.3520 C   0  0  0  0  0  2  0  0  0  0  0  0
  184.4120  178.9980  141.7190 C   0  0  1  0  0  3  0  0  0  0  0  0
  181.3450  178.4040  139.6700 O   0  0  0  0  0  0  0  0  0  0  0  0
  179.8680  177.6500  141.3810 C   0  0  0  0  0  1  0  0  0  0  0  0
  182.7460  178.4430  139.8030 C   0  0  2  0  0  0  0  0  0  0  0  0
  183.2600  179.7240  139.1490 C   0  0  0  0  0  1  0  0  0  0  0  0
  183.2980  177.3460  139.1430 O   0  0  0  0  0  1  0  0  0  0  0  0
  180.7770  178.7750  140.9100 C   0  0  1  0  0  0  0  0  0  0  0  0
  183.0780  178.3580  141.2890 C   0  0  2  0  0  3  0  0  0  0  0  0
  181.8820  178.9910  141.9260 C   0  0  0  0  0  2  0  0  0  0  0  0
  179.9690  180.0590  140.7160 C   0  0  0  0  0  2  0  0  0  0  0  0
  179.0260  180.5430  142.2040 S   0  0  0  0  0  1  0  0  0  0  0  0
  184.4580  179.2200  143.2260 C   0  0  0  0  0  2  0  0  0  0  0  0
  185.0890  178.0250  143.9190 C   0  0  0  0  0  2  0  0  0  0  0  0
  185.9250  178.4830  145.1040 C   0  0  0  0  0  2  0  0  0  0  0  0
  185.7250  179.4230  147.2920 O   0  0  0  0  0  1  0  0  0  0  0  0
  185.0680  178.6280  146.3510 C   0  0  0  0  0  2  0  0  0  0  0  0
  1  6  2  0  0  0  0
  1  3  1  0  0  0  0
  3 19  1  1  0  0  0
  3  2  1  0  0  0  0
  4  1  1  0  0  0  0
  5  7  1  0  0  0  0
  5  2  2  0  0  0  0
  6  5  1  0  0  0  0
  7  8  2  0  0  0  0
  8 12  1  0  0  0  0
  9 11  1  0  0  0  0
 10  9  2  0  0  0  0
 10  7  1  0  0  0  0
 11  8  1  0  0  0  0
 12 13  1  0  0  0  0
 13 14  1  6  0  0  0
 13 15  1  0  0  0  0
 15 18  1  0  0  0  0
 18 16  2  0  0  0  0
 18 17  1  0  0  0  0
 20 19  1  1  0  0  0
 20 31  1  0  0  0  0
 21 23  1  0  0  0  0
 21 26  1  0  0  0  0
 23 24  1  6  0  0  0
 23 27  1  0  0  0  0
 25 23  1  0  0  0  0
 26 22  1  1  0  0  0
 26 28  1  0  0  0  0
 27 20  1  6  0  0  0
 27 28  1  0  0  0  0
 29 26  1  0  0  0  0
 29 30  1  0  0  0  0
 31 32  1  0  0  0  0
 32 33  1  0  0  0  0
 33 35  1  0  0  0  0
 35 34  1  0  0  0  0
M  END
>  <MODEL>
8

>  <REMARK>
 VINA RESULT:      -6.7      2.407      4.756
  Name = 
  13 active torsions:
  status: ('A' for Active; 'I' for Inactive)
    1  A    between atoms: C_1  and  C_21
    2  A    between atoms: C_2  and  C_16
    3  A    between atoms: C_2  and  C_19
    4  A    between atoms: C_3  and  C_20
    5  A    between atoms: C_3  and  C_26
    6  A    between atoms: C_5  and  C_24
    7  A    between atoms: C_13  and  C_18
    8  A    between atoms: C_14  and  C_30
    9  A    between atoms: C_16  and  C_30
   10  A    between atoms: C_18  and  C_29
   11  A    between atoms: C_20  and  C_28
   12  A    between atoms: C_23  and  C_29
   13  A    between atoms: C_26  and  C_29
                            x       y       z     vdW  Elec       q    Type
                         _______ _______ _______ _____ _____    ______ ____

>  <TORSDO>
F 13

$$$$
=
 OpenBabel11062415343D

 35 37  0  0  1  0  0  0  0  0999 V2000
  185.4360  178.7250  141.0480 C   0  0  0  0  0  0  0  0  0  0  0  0
  183.9540  177.9130  142.6050 C   0  0  0  0  0  3  0  0  0  0  0  0
  185.4050  177.8420  142.2470 C   0  0  2  0  0  3  0  0  0  0  0  0
  186.5790  178.9870  140.3030 O   0  0  0  0  0  1  0  0  0  0  0  0
  183.3270  178.7160  141.7550 C   0  0  0  0  0  0  0  0  0  0  0  0
  184.2540  179.2400  140.7640 C   0  0  0  0  0  3  0  0  0  0  0  0
  181.8960  179.0620  141.8080 C   0  0  0  0  0  0  0  0  0  0  0  0
  180.9630  179.0100  140.7910 C   0  0  0  0  0  0  0  0  0  0  0  0
  180.0000  179.6880  142.5540 C   0  0  0  0  0  3  0  0  0  0  0  0
  181.2850  179.4990  142.9260 N   0  0  0  0  0  0  0  0  0  0  0  0
  179.8150  179.3960  141.2840 O   0  0  0  0  0  0  0  0  0  0  0  0
  181.1600  178.6160  139.3610 C   0  0  0  0  0  2  0  0  0  0  0  0
  181.1230  177.1050  139.1610 C   0  0  2  0  0  3  0  0  0  0  0  0
  181.7750  176.7960  137.9690 O   0  0  0  0  0  1  0  0  0  0  0  0
  179.6960  176.5830  139.0920 C   0  0  0  0  0  2  0  0  0  0  0  0
  179.2950  176.0690  141.5010 O   0  0  0  0  0  1  0  0  0  0  0  0
  179.3720  174.3840  139.9490 O   0  0  0  0  0  0  0  0  0  0  0  0
  179.4440  175.6150  140.1970 C   0  0  0  0  0  0  0  0  0  0  0  0
  186.2580  178.4620  143.3470 C   0  0  0  0  0  2  0  0  0  0  0  0
  187.2850  177.4710  143.8730 C   0  0  1  0  0  3  0  0  0  0  0  0
  190.9330  177.4220  143.0660 O   0  0  0  0  0  0  0  0  0  0  0  0
  191.6460  179.2990  144.3470 C   0  0  0  0  0  1  0  0  0  0  0  0
  189.5920  177.1740  142.7140 C   0  0  2  0  0  0  0  0  0  0  0  0
  189.3270  175.6750  142.8390 C   0  0  0  0  0  1  0  0  0  0  0  0
  189.3900  177.5600  141.3890 O   0  0  0  0  0  1  0  0  0  0  0  0
  190.9520  177.9460  144.3780 C   0  0  1  0  0  0  0  0  0  0  0  0
  188.7060  178.0150  143.6260 C   0  0  2  0  0  3  0  0  0  0  0  0
  189.5280  178.1200  144.8710 C   0  0  0  0  0  2  0  0  0  0  0  0
  191.7170  176.9810  145.2840 C   0  0  0  0  0  2  0  0  0  0  0  0
  190.9270  176.7490  146.9140 S   0  0  0  0  0  1  0  0  0  0  0  0
  187.0200  177.2750  145.3610 C   0  0  0  0  0  2  0  0  0  0  0  0
  186.0550  178.3310  145.8710 C   0  0  0  0  0  2  0  0  0  0  0  0
  186.3980  178.7130  147.3020 C   0  0  0  0  0  2  0  0  0  0  0  0
  188.3040  178.5870  148.7370 O   0  0  0  0  0  1  0  0  0  0  0  0
  187.5280  177.8520  147.8410 C   0  0  0  0  0  2  0  0  0  0  0  0
  1  3  1  0  0  0  0
  3  2  1  0  0  0  0
  3 19  1  1  0  0  0
  4  1  1  0  0  0  0
  5  7  1  0  0  0  0
  5  2  2  0  0  0  0
  6  1  2  0  0  0  0
  6  5  1  0  0  0  0
  7 10  1  0  0  0  0
  8 11  1  0  0  0  0
  8  7  2  0  0  0  0
  9 10  2  0  0  0  0
 11  9  1  0  0  0  0
 12  8  1  0  0  0  0
 13 14  1  6  0  0  0
 13 12  1  0  0  0  0
 15 13  1  0  0  0  0
 15 18  1  0  0  0  0
 17 18  2  0  0  0  0
 18 16  1  0  0  0  0
 20 19  1  1  0  0  0
 20 31  1  0  0  0  0
 21 26  1  0  0  0  0
 23 24  1  1  0  0  0
 23 21  1  0  0  0  0
 23 27  1  0  0  0  0
 25 23  1  0  0  0  0
 26 22  1  6  0  0  0
 26 28  1  0  0  0  0
 26 29  1  0  0  0  0
 27 20  1  1  0  0  0
 27 28  1  0  0  0  0
 29 30  1  0  0  0  0
 31 32  1  0  0  0  0
 32 33  1  0  0  0  0
 33 35  1  0  0  0  0
 35 34  1  0  0  0  0
M  END
>  <MODEL>
9

>  <REMARK>
 VINA RESULT:      -6.6      3.247      8.902
  Name = 
  13 active torsions:
  status: ('A' for Active; 'I' for Inactive)
    1  A    between atoms: C_1  and  C_21
    2  A    between atoms: C_2  and  C_16
    3  A    between atoms: C_2  and  C_19
    4  A    between atoms: C_3  and  C_20
    5  A    between atoms: C_3  and  C_26
    6  A    between atoms: C_5  and  C_24
    7  A    between atoms: C_13  and  C_18
    8  A    between atoms: C_14  and  C_30
    9  A    between atoms: C_16  and  C_30
   10  A    between atoms: C_18  and  C_29
   11  A    between atoms: C_20  and  C_28
   12  A    between atoms: C_23  and  C_29
   13  A    between atoms: C_26  and  C_29
                            x       y       z     vdW  Elec       q    Type
                         _______ _______ _______ _____ _____    ______ ____

>  <TORSDO>
F 13

$$$$
