=
 OpenBabel11062416343D

 29 31  0  0  1  0  0  0  0  0999 V2000
  188.7070  177.8970  138.4230 C   0  0  2  0  0  3  0  0  0  0  0  0
  187.3740  178.4370  138.6060 N   0  0  0  0  0  0  0  0  0  0  0  0
  186.7940  176.5870  137.2470 C   0  0  0  0  0  2  0  0  0  0  0  0
  186.4230  177.7960  138.0180 C   0  0  0  0  0  0  0  0  0  0  0  0
  188.5620  176.2950  137.5610 S   0  0  0  0  0  0  0  0  0  0  0  0
  185.0640  178.2260  138.1070 N   0  0  0  0  0  2  0  0  0  0  0  0
  189.3870  177.7330  139.7460 C   0  0  0  0  0  0  0  0  0  0  0  0
  190.5990  177.5960  139.8080 O   0  0  0  0  0  0  0  0  0  0  0  0
  188.5700  177.7020  140.9920 C   0  0  0  0  0  2  0  0  0  0  0  0
  189.4230  177.9340  142.1480 N   0  0  0  0  0  2  0  0  0  0  0  0
  189.4210  176.4880  143.0990 S   0  0  0  0  0  0  0  0  0  0  0  0
  188.0340  175.9100  143.1420 O   0  0  0  0  0  0  0  0  0  0  0  0
  190.3590  175.4820  142.4910 O   0  0  0  0  0  0  0  0  0  0  0  0
  189.4020  178.1950  145.2210 C   0  0  0  0  0  1  0  0  0  0  0  0
  189.9510  176.8550  144.7650 C   0  0  2  0  0  3  0  0  0  0  0  0
  191.4690  176.8050  144.8990 C   0  0  0  0  0  2  0  0  0  0  0  0
  191.8680  177.0430  146.2160 O   0  0  0  0  0  1  0  0  0  0  0  0
  184.6760  179.4030  138.8670 C   0  0  0  0  0  2  0  0  0  0  0  0
  184.1140  178.4340  141.0230 N   0  0  0  0  0  0  0  0  0  0  0  0
  183.5010  177.5970  139.9820 C   0  0  0  0  0  2  0  0  0  0  0  0
  183.5470  179.0430  139.8100 C   0  0  2  0  0  3  0  0  0  0  0  0
  183.1210  178.5940  142.0690 C   0  0  0  0  0  2  0  0  0  0  0  0
  183.0730  178.9900  144.5410 C   0  0  0  0  0  3  0  0  0  0  0  0
  183.7900  178.6230  143.3990 C   0  0  0  0  0  0  0  0  0  0  0  0
  185.0190  178.7440  145.8800 C   0  0  0  0  0  0  0  0  0  0  0  0
  185.7710  178.3800  144.7600 C   0  0  0  0  0  3  0  0  0  0  0  0
  185.1480  178.3220  143.5110 C   0  0  0  0  0  3  0  0  0  0  0  0
  185.6380  178.8060  147.1580 N   0  0  0  0  0  1  0  0  0  0  0  0
  183.6980  179.0400  145.7490 N   0  0  0  0  0  0  0  0  0  0  0  0
  1  2  1  0  0  0  0
  1  7  1  1  0  0  0
  3  5  1  0  0  0  0
  3  4  1  0  0  0  0
  4  6  1  0  0  0  0
  4  2  2  0  0  0  0
  5  1  1  0  0  0  0
  6 18  1  0  0  0  0
  7  8  2  0  0  0  0
  7  9  1  0  0  0  0
  9 10  1  0  0  0  0
 10 11  1  0  0  0  0
 11 12  2  0  0  0  0
 11 15  1  0  0  0  0
 13 11  2  0  0  0  0
 15 16  1  0  0  0  0
 15 14  1  6  0  0  0
 16 17  1  0  0  0  0
 19 22  1  0  0  0  0
 20 19  1  0  0  0  0
 21 18  1  6  0  0  0
 21 20  1  0  0  0  0
 21 19  1  0  0  0  0
 22 24  1  0  0  0  0
 23 29  1  0  0  0  0
 24 27  1  0  0  0  0
 24 23  2  0  0  0  0
 25 28  1  0  0  0  0
 26 25  1  0  0  0  0
 27 26  2  0  0  0  0
 29 25  2  0  0  0  0
M  END
>  <MODEL>
1

>  <REMARK>
 VINA RESULT:      -7.7      0.000      0.000
  Name = 
  10 active torsions:
  status: ('A' for Active; 'I' for Inactive)
    1  A    between atoms: C_1  and  C_22
    2  A    between atoms: C_2  and  C_8
    3  A    between atoms: C_2  and  N_12
    4  A    between atoms: S_3  and  C_22
    5  A    between atoms: S_3  and  N_23
    6  A    between atoms: C_5  and  C_15
    7  A    between atoms: C_5  and  N_23
    8  A    between atoms: C_6  and  C_15
    9  A    between atoms: C_21  and  C_25
   10  A    between atoms: C_21  and  N_26
                            x       y       z     vdW  Elec       q    Type
                         _______ _______ _______ _____ _____    ______ ____

>  <TORSDO>
F 10

$$$$
=
 OpenBabel11062416343D

 29 31  0  0  1  0  0  0  0  0999 V2000
  188.9290  177.0990  139.2190 C   0  0  2  0  0  3  0  0  0  0  0  0
  189.6210  177.4920  140.4300 N   0  0  0  0  0  0  0  0  0  0  0  0
  191.4300  176.4040  139.3590 C   0  0  0  0  0  2  0  0  0  0  0  0
  190.8590  177.1430  140.5080 C   0  0  0  0  0  0  0  0  0  0  0  0
  190.1540  176.3960  138.0630 S   0  0  0  0  0  0  0  0  0  0  0  0
  191.6540  177.4570  141.6520 N   0  0  0  0  0  2  0  0  0  0  0  0
  188.2340  178.2760  138.6120 C   0  0  0  0  0  0  0  0  0  0  0  0
  188.8780  179.1970  138.1320 O   0  0  0  0  0  0  0  0  0  0  0  0
  186.7450  178.3380  138.6250 C   0  0  0  0  0  2  0  0  0  0  0  0
  186.2750  178.6620  139.9630 N   0  0  0  0  0  2  0  0  0  0  0  0
  184.5720  178.9580  139.8620 S   0  0  0  0  0  0  0  0  0  0  0  0
  183.9930  179.0620  141.2460 O   0  0  0  0  0  0  0  0  0  0  0  0
  184.3250  180.2440  139.1230 O   0  0  0  0  0  0  0  0  0  0  0  0
  183.0590  178.1280  137.7550 C   0  0  0  0  0  1  0  0  0  0  0  0
  183.7720  177.6170  138.9940 C   0  0  2  0  0  3  0  0  0  0  0  0
  182.8200  176.8460  139.9020 C   0  0  0  0  0  2  0  0  0  0  0  0
  182.4610  175.6210  139.3330 O   0  0  0  0  0  1  0  0  0  0  0  0
  191.1180  178.1910  142.7860 C   0  0  0  0  0  2  0  0  0  0  0  0
  190.0210  177.9660  144.9420 N   0  0  0  0  0  0  0  0  0  0  0  0
  191.3820  177.4260  145.0730 C   0  0  0  0  0  2  0  0  0  0  0  0
  190.6380  177.2140  143.8380 C   0  0  2  0  0  3  0  0  0  0  0  0
  189.1370  177.0410  145.6290 C   0  0  0  0  0  2  0  0  0  0  0  0
  187.1480  177.9430  146.8530 C   0  0  0  0  0  3  0  0  0  0  0  0
  187.7520  177.5860  145.6450 C   0  0  0  0  0  0  0  0  0  0  0  0
  185.1540  178.5480  145.7150 C   0  0  0  0  0  0  0  0  0  0  0  0
  185.7210  178.1940  144.4880 C   0  0  0  0  0  3  0  0  0  0  0  0
  187.0290  177.7080  144.4570 C   0  0  0  0  0  3  0  0  0  0  0  0
  183.8230  179.0450  145.7630 N   0  0  0  0  0  1  0  0  0  0  0  0
  185.8710  178.4140  146.8630 N   0  0  0  0  0  0  0  0  0  0  0  0
  1  7  1  6  0  0  0
  1  2  1  0  0  0  0
  2  4  2  0  0  0  0
  3  4  1  0  0  0  0
  4  6  1  0  0  0  0
  5  1  1  0  0  0  0
  5  3  1  0  0  0  0
  6 18  1  0  0  0  0
  7  9  1  0  0  0  0
  8  7  2  0  0  0  0
  9 10  1  0  0  0  0
 11 10  1  0  0  0  0
 11 12  2  0  0  0  0
 13 11  2  0  0  0  0
 15 14  1  6  0  0  0
 15 11  1  0  0  0  0
 15 16  1  0  0  0  0
 17 16  1  0  0  0  0
 19 20  1  0  0  0  0
 19 22  1  0  0  0  0
 21 18  1  6  0  0  0
 21 19  1  0  0  0  0
 21 20  1  0  0  0  0
 22 24  1  0  0  0  0
 23 29  1  0  0  0  0
 24 23  2  0  0  0  0
 25 28  1  0  0  0  0
 25 29  2  0  0  0  0
 26 25  1  0  0  0  0
 27 26  2  0  0  0  0
 27 24  1  0  0  0  0
M  END
>  <MODEL>
2

>  <REMARK>
 VINA RESULT:      -7.5      2.880      6.113
  Name = 
  10 active torsions:
  status: ('A' for Active; 'I' for Inactive)
    1  A    between atoms: C_1  and  C_22
    2  A    between atoms: C_2  and  C_8
    3  A    between atoms: C_2  and  N_12
    4  A    between atoms: S_3  and  C_22
    5  A    between atoms: S_3  and  N_23
    6  A    between atoms: C_5  and  C_15
    7  A    between atoms: C_5  and  N_23
    8  A    between atoms: C_6  and  C_15
    9  A    between atoms: C_21  and  C_25
   10  A    between atoms: C_21  and  N_26
                            x       y       z     vdW  Elec       q    Type
                         _______ _______ _______ _____ _____    ______ ____

>  <TORSDO>
F 10

$$$$
=
 OpenBabel11062416343D

 29 31  0  0  1  0  0  0  0  0999 V2000
  191.2100  176.8030  138.3660 C   0  0  2  0  0  3  0  0  0  0  0  0
  191.1830  177.0790  139.7890 N   0  0  0  0  0  0  0  0  0  0  0  0
  188.8580  177.2520  139.3780 C   0  0  0  0  0  2  0  0  0  0  0  0
  190.0200  177.3110  140.2930 C   0  0  0  0  0  0  0  0  0  0  0  0
  189.4890  176.6560  137.7790 S   0  0  0  0  0  0  0  0  0  0  0  0
  189.8530  177.6070  141.6810 N   0  0  0  0  0  2  0  0  0  0  0  0
  191.9760  175.5470  138.0950 C   0  0  0  0  0  0  0  0  0  0  0  0
  191.3930  174.4830  137.9500 O   0  0  0  0  0  0  0  0  0  0  0  0
  193.4650  175.5920  138.0370 C   0  0  0  0  0  2  0  0  0  0  0  0
  193.9760  174.3560  137.4660 N   0  0  0  0  0  2  0  0  0  0  0  0
  195.4270  173.9460  138.3170 S   0  0  0  0  0  0  0  0  0  0  0  0
  195.8180  175.0780  139.2260 O   0  0  0  0  0  0  0  0  0  0  0  0
  195.2000  172.7070  139.1360 O   0  0  0  0  0  0  0  0  0  0  0  0
  197.1980  172.1990  137.2090 C   0  0  0  0  0  1  0  0  0  0  0  0
  196.7500  173.6490  137.1540 C   0  0  2  0  0  3  0  0  0  0  0  0
  197.9220  174.5980  137.3770 C   0  0  0  0  0  2  0  0  0  0  0  0
  197.7990  175.7450  136.5890 O   0  0  0  0  0  1  0  0  0  0  0  0
  190.9770  177.6590  142.6000 C   0  0  0  0  0  2  0  0  0  0  0  0
  190.0910  177.8360  144.8550 N   0  0  0  0  0  0  0  0  0  0  0  0
  191.4770  177.3590  144.9550 C   0  0  0  0  0  2  0  0  0  0  0  0
  190.6320  176.8960  143.8610 C   0  0  2  0  0  3  0  0  0  0  0  0
  189.3090  177.0460  145.7890 C   0  0  0  0  0  2  0  0  0  0  0  0
  187.3720  178.0020  147.0560 C   0  0  0  0  0  3  0  0  0  0  0  0
  187.9150  177.5650  145.8450 C   0  0  0  0  0  0  0  0  0  0  0  0
  185.3040  178.4820  145.9940 C   0  0  0  0  0  0  0  0  0  0  0  0
  185.8080  178.0460  144.7660 C   0  0  0  0  0  3  0  0  0  0  0  0
  187.1230  177.5830  144.6950 C   0  0  0  0  0  3  0  0  0  0  0  0
  183.9670  178.9580  146.0820 N   0  0  0  0  0  1  0  0  0  0  0  0
  186.0890  178.4500  147.1050 N   0  0  0  0  0  0  0  0  0  0  0  0
  1  7  1  1  0  0  0
  1  2  1  0  0  0  0
  2  4  2  0  0  0  0
  3  4  1  0  0  0  0
  4  6  1  0  0  0  0
  5  1  1  0  0  0  0
  5  3  1  0  0  0  0
  6 18  1  0  0  0  0
  8  7  2  0  0  0  0
  9  7  1  0  0  0  0
 10  9  1  0  0  0  0
 10 11  1  0  0  0  0
 11 13  2  0  0  0  0
 11 12  2  0  0  0  0
 15 14  1  1  0  0  0
 15 16  1  0  0  0  0
 15 11  1  0  0  0  0
 17 16  1  0  0  0  0
 19 20  1  0  0  0  0
 19 22  1  0  0  0  0
 21 18  1  6  0  0  0
 21 19  1  0  0  0  0
 21 20  1  0  0  0  0
 22 24  1  0  0  0  0
 23 29  1  0  0  0  0
 24 23  2  0  0  0  0
 25 28  1  0  0  0  0
 25 29  2  0  0  0  0
 26 25  1  0  0  0  0
 27 26  2  0  0  0  0
 27 24  1  0  0  0  0
M  END
>  <MODEL>
3

>  <REMARK>
 VINA RESULT:      -7.3      4.609      6.676
  Name = 
  10 active torsions:
  status: ('A' for Active; 'I' for Inactive)
    1  A    between atoms: C_1  and  C_22
    2  A    between atoms: C_2  and  C_8
    3  A    between atoms: C_2  and  N_12
    4  A    between atoms: S_3  and  C_22
    5  A    between atoms: S_3  and  N_23
    6  A    between atoms: C_5  and  C_15
    7  A    between atoms: C_5  and  N_23
    8  A    between atoms: C_6  and  C_15
    9  A    between atoms: C_21  and  C_25
   10  A    between atoms: C_21  and  N_26
                            x       y       z     vdW  Elec       q    Type
                         _______ _______ _______ _____ _____    ______ ____

>  <TORSDO>
F 10

$$$$
=
 OpenBabel11062416343D

 29 31  0  0  1  0  0  0  0  0999 V2000
  188.6270  176.9240  138.6310 C   0  0  2  0  0  3  0  0  0  0  0  0
  189.5800  177.2980  139.6580 N   0  0  0  0  0  0  0  0  0  0  0  0
  191.0140  175.9280  138.3660 C   0  0  0  0  0  2  0  0  0  0  0  0
  190.7620  176.8000  139.5360 C   0  0  0  0  0  0  0  0  0  0  0  0
  189.5190  176.0050  137.3320 S   0  0  0  0  0  0  0  0  0  0  0  0
  191.7920  177.0790  140.4840 N   0  0  0  0  0  2  0  0  0  0  0  0
  187.9660  178.1410  138.0680 C   0  0  0  0  0  0  0  0  0  0  0  0
  188.6360  179.0810  137.6650 O   0  0  0  0  0  0  0  0  0  0  0  0
  186.4780  178.2190  138.0300 C   0  0  0  0  0  2  0  0  0  0  0  0
  185.9740  178.6670  139.3190 N   0  0  0  0  0  2  0  0  0  0  0  0
  184.2920  179.0300  139.1260 S   0  0  0  0  0  0  0  0  0  0  0  0
  184.1080  180.5150  138.9760 O   0  0  0  0  0  0  0  0  0  0  0  0
  183.7630  178.3380  137.9010 O   0  0  0  0  0  0  0  0  0  0  0  0
  184.3120  178.2550  141.7370 C   0  0  0  0  0  1  0  0  0  0  0  0
  183.3810  178.4710  140.5570 C   0  0  2  0  0  3  0  0  0  0  0  0
  182.5690  177.2160  140.2550 C   0  0  0  0  0  2  0  0  0  0  0  0
  181.2490  177.5350  139.9300 O   0  0  0  0  0  1  0  0  0  0  0  0
  191.5710  177.9410  141.6330 C   0  0  0  0  0  2  0  0  0  0  0  0
  190.2310  177.7520  143.6500 N   0  0  0  0  0  0  0  0  0  0  0  0
  191.6410  177.8270  144.0550 C   0  0  0  0  0  2  0  0  0  0  0  0
  191.2750  177.0920  142.8510 C   0  0  2  0  0  3  0  0  0  0  0  0
  189.6170  176.7180  144.4630 C   0  0  0  0  0  2  0  0  0  0  0  0
  188.3400  177.4730  146.4810 C   0  0  0  0  0  3  0  0  0  0  0  0
  188.3800  177.2460  145.1030 C   0  0  0  0  0  0  0  0  0  0  0  0
  186.0770  178.1740  146.3320 C   0  0  0  0  0  0  0  0  0  0  0  0
  186.0750  177.9530  144.9530 C   0  0  0  0  0  3  0  0  0  0  0  0
  187.2370  177.4830  144.3380 C   0  0  0  0  0  3  0  0  0  0  0  0
  184.9020  178.6540  146.9740 N   0  0  0  0  0  1  0  0  0  0  0  0
  187.1990  177.9310  147.0620 N   0  0  0  0  0  0  0  0  0  0  0  0
  1  7  1  6  0  0  0
  1  2  1  0  0  0  0
  3  4  1  0  0  0  0
  4  2  2  0  0  0  0
  4  6  1  0  0  0  0
  5  3  1  0  0  0  0
  5  1  1  0  0  0  0
  6 18  1  0  0  0  0
  8  7  2  0  0  0  0
  9  7  1  0  0  0  0
  9 10  1  0  0  0  0
 11 10  1  0  0  0  0
 11 15  1  0  0  0  0
 12 11  2  0  0  0  0
 13 11  2  0  0  0  0
 15 14  1  1  0  0  0
 16 15  1  0  0  0  0
 17 16  1  0  0  0  0
 19 20  1  0  0  0  0
 19 22  1  0  0  0  0
 21 18  1  6  0  0  0
 21 19  1  0  0  0  0
 21 20  1  0  0  0  0
 22 24  1  0  0  0  0
 23 29  1  0  0  0  0
 24 23  2  0  0  0  0
 25 28  1  0  0  0  0
 25 29  2  0  0  0  0
 26 25  1  0  0  0  0
 27 26  2  0  0  0  0
 27 24  1  0  0  0  0
M  END
>  <MODEL>
4

>  <REMARK>
 VINA RESULT:      -7.3      3.078      6.090
  Name = 
  10 active torsions:
  status: ('A' for Active; 'I' for Inactive)
    1  A    between atoms: C_1  and  C_22
    2  A    between atoms: C_2  and  C_8
    3  A    between atoms: C_2  and  N_12
    4  A    between atoms: S_3  and  C_22
    5  A    between atoms: S_3  and  N_23
    6  A    between atoms: C_5  and  C_15
    7  A    between atoms: C_5  and  N_23
    8  A    between atoms: C_6  and  C_15
    9  A    between atoms: C_21  and  C_25
   10  A    between atoms: C_21  and  N_26
                            x       y       z     vdW  Elec       q    Type
                         _______ _______ _______ _____ _____    ______ ____

>  <TORSDO>
F 10

$$$$
=
 OpenBabel11062416343D

 29 31  0  0  1  0  0  0  0  0999 V2000
  188.5360  178.2920  138.8730 C   0  0  2  0  0  3  0  0  0  0  0  0
  187.1620  177.8320  138.8170 N   0  0  0  0  0  0  0  0  0  0  0  0
  187.2750  178.7880  136.6550 C   0  0  0  0  0  2  0  0  0  0  0  0
  186.5300  178.0840  137.7230 C   0  0  0  0  0  0  0  0  0  0  0  0
  188.9990  178.9100  137.2200 S   0  0  0  0  0  0  0  0  0  0  0  0
  185.1680  177.6950  137.5400 N   0  0  0  0  0  2  0  0  0  0  0  0
  189.4390  177.1790  139.3010 C   0  0  0  0  0  0  0  0  0  0  0  0
  189.5810  176.1900  138.5980 O   0  0  0  0  0  0  0  0  0  0  0  0
  190.1430  177.2670  140.6110 C   0  0  0  0  0  2  0  0  0  0  0  0
  189.2170  177.7120  141.6410 N   0  0  0  0  0  2  0  0  0  0  0  0
  189.3160  176.5900  142.9560 S   0  0  0  0  0  0  0  0  0  0  0  0
  187.9710  175.9580  143.1860 O   0  0  0  0  0  0  0  0  0  0  0  0
  190.3190  175.5180  142.6310 O   0  0  0  0  0  0  0  0  0  0  0  0
  191.2590  177.0940  144.7970 C   0  0  0  0  0  1  0  0  0  0  0  0
  189.8230  177.4390  144.4440 C   0  0  2  0  0  3  0  0  0  0  0  0
  188.8820  177.1490  145.6080 C   0  0  0  0  0  2  0  0  0  0  0  0
  189.3750  177.6840  146.8010 O   0  0  0  0  0  1  0  0  0  0  0  0
  184.4210  176.9920  138.5690 C   0  0  0  0  0  2  0  0  0  0  0  0
  183.5640  177.6220  140.7530 N   0  0  0  0  0  0  0  0  0  0  0  0
  182.4160  177.2760  139.9040 C   0  0  0  0  0  2  0  0  0  0  0  0
  183.5550  177.9760  139.3260 C   0  0  2  0  0  3  0  0  0  0  0  0
  183.1990  178.8240  141.4800 C   0  0  0  0  0  2  0  0  0  0  0  0
  182.9690  179.1640  143.9500 C   0  0  0  0  0  3  0  0  0  0  0  0
  183.7490  178.7650  142.8620 C   0  0  0  0  0  0  0  0  0  0  0  0
  184.7630  178.7210  145.4410 C   0  0  0  0  0  0  0  0  0  0  0  0
  185.5760  178.3210  144.3780 C   0  0  0  0  0  3  0  0  0  0  0  0
  185.0630  178.3460  143.0810 C   0  0  0  0  0  3  0  0  0  0  0  0
  185.2710  178.7000  146.7690 N   0  0  0  0  0  1  0  0  0  0  0  0
  183.4870  179.1330  145.2080 N   0  0  0  0  0  0  0  0  0  0  0  0
  1  7  1  6  0  0  0
  2  1  1  0  0  0  0
  3  5  1  0  0  0  0
  3  4  1  0  0  0  0
  4  2  2  0  0  0  0
  5  1  1  0  0  0  0
  6  4  1  0  0  0  0
  6 18  1  0  0  0  0
  7  9  1  0  0  0  0
  8  7  2  0  0  0  0
  9 10  1  0  0  0  0
 10 11  1  0  0  0  0
 11 12  2  0  0  0  0
 11 15  1  0  0  0  0
 13 11  2  0  0  0  0
 15 14  1  1  0  0  0
 15 16  1  0  0  0  0
 16 17  1  0  0  0  0
 19 22  1  0  0  0  0
 20 19  1  0  0  0  0
 21 18  1  6  0  0  0
 21 20  1  0  0  0  0
 21 19  1  0  0  0  0
 22 24  1  0  0  0  0
 23 29  1  0  0  0  0
 24 27  1  0  0  0  0
 24 23  2  0  0  0  0
 25 28  1  0  0  0  0
 26 25  1  0  0  0  0
 27 26  2  0  0  0  0
 29 25  2  0  0  0  0
M  END
>  <MODEL>
5

>  <REMARK>
 VINA RESULT:      -7.2      1.135      1.365
  Name = 
  10 active torsions:
  status: ('A' for Active; 'I' for Inactive)
    1  A    between atoms: C_1  and  C_22
    2  A    between atoms: C_2  and  C_8
    3  A    between atoms: C_2  and  N_12
    4  A    between atoms: S_3  and  C_22
    5  A    between atoms: S_3  and  N_23
    6  A    between atoms: C_5  and  C_15
    7  A    between atoms: C_5  and  N_23
    8  A    between atoms: C_6  and  C_15
    9  A    between atoms: C_21  and  C_25
   10  A    between atoms: C_21  and  N_26
                            x       y       z     vdW  Elec       q    Type
                         _______ _______ _______ _____ _____    ______ ____

>  <TORSDO>
F 10

$$$$
=
 OpenBabel11062416343D

 29 31  0  0  1  0  0  0  0  0999 V2000
  184.1870  178.5000  138.3690 C   0  0  2  0  0  3  0  0  0  0  0  0
  184.5290  178.7490  139.7560 N   0  0  0  0  0  0  0  0  0  0  0  0
  182.2790  178.0940  140.0880 C   0  0  0  0  0  2  0  0  0  0  0  0
  183.5840  178.5580  140.6100 C   0  0  0  0  0  0  0  0  0  0  0  0
  182.5210  177.7570  138.3170 S   0  0  0  0  0  0  0  0  0  0  0  0
  183.7840  178.7780  142.0080 N   0  0  0  0  0  2  0  0  0  0  0  0
  185.1970  177.5930  137.7400 C   0  0  0  0  0  0  0  0  0  0  0  0
  184.9170  176.4300  137.4900 O   0  0  0  0  0  0  0  0  0  0  0  0
  186.5650  178.1070  137.4490 C   0  0  0  0  0  2  0  0  0  0  0  0
  187.5600  177.2330  138.0490 N   0  0  0  0  0  2  0  0  0  0  0  0
  188.6480  178.2250  138.9600 S   0  0  0  0  0  0  0  0  0  0  0  0
  189.0210  179.4390  138.1550 O   0  0  0  0  0  0  0  0  0  0  0  0
  187.9870  178.6610  140.2370 O   0  0  0  0  0  0  0  0  0  0  0  0
  190.3050  176.1390  138.3910 C   0  0  0  0  0  1  0  0  0  0  0  0
  190.1300  177.3060  139.3470 C   0  0  2  0  0  3  0  0  0  0  0  0
  190.1410  176.8370  140.7980 C   0  0  0  0  0  2  0  0  0  0  0  0
  191.0380  177.5860  141.5640 O   0  0  0  0  0  1  0  0  0  0  0  0
  185.0600  179.2210  142.5440 C   0  0  0  0  0  2  0  0  0  0  0  0
  185.2460  178.2850  144.7780 N   0  0  0  0  0  0  0  0  0  0  0  0
  183.8450  178.6780  144.5720 C   0  0  0  0  0  2  0  0  0  0  0  0
  184.9130  179.5030  144.0240 C   0  0  2  0  0  3  0  0  0  0  0  0
  185.6070  178.7120  146.1180 C   0  0  0  0  0  2  0  0  0  0  0  0
  187.7730  177.6270  145.4850 C   0  0  0  0  0  3  0  0  0  0  0  0
  186.9520  178.1810  146.4710 C   0  0  0  0  0  0  0  0  0  0  0  0
  189.4380  177.1310  147.1040 C   0  0  0  0  0  0  0  0  0  0  0  0
  188.6430  177.6700  148.1180 C   0  0  0  0  0  3  0  0  0  0  0  0
  187.3910  178.1960  147.7960 C   0  0  0  0  0  3  0  0  0  0  0  0
  190.7160  176.5930  147.4160 N   0  0  0  0  0  1  0  0  0  0  0  0
  188.9900  177.1190  145.8190 N   0  0  0  0  0  0  0  0  0  0  0  0
  1  7  1  1  0  0  0
  1  2  1  0  0  0  0
  2  4  2  0  0  0  0
  3  4  1  0  0  0  0
  4  6  1  0  0  0  0
  5  1  1  0  0  0  0
  5  3  1  0  0  0  0
  6 18  1  0  0  0  0
  8  7  2  0  0  0  0
  9  7  1  0  0  0  0
  9 10  1  0  0  0  0
 10 11  1  0  0  0  0
 11 15  1  0  0  0  0
 11 13  2  0  0  0  0
 12 11  2  0  0  0  0
 15 14  1  6  0  0  0
 15 16  1  0  0  0  0
 16 17  1  0  0  0  0
 19 22  1  0  0  0  0
 20 19  1  0  0  0  0
 21 18  1  6  0  0  0
 21 20  1  0  0  0  0
 21 19  1  0  0  0  0
 22 24  1  0  0  0  0
 23 29  2  0  0  0  0
 23 24  1  0  0  0  0
 24 27  2  0  0  0  0
 25 28  1  0  0  0  0
 25 26  2  0  0  0  0
 27 26  1  0  0  0  0
 29 25  1  0  0  0  0
M  END
>  <MODEL>
6

>  <REMARK>
 VINA RESULT:      -7.1      2.677      4.917
  Name = 
  10 active torsions:
  status: ('A' for Active; 'I' for Inactive)
    1  A    between atoms: C_1  and  C_22
    2  A    between atoms: C_2  and  C_8
    3  A    between atoms: C_2  and  N_12
    4  A    between atoms: S_3  and  C_22
    5  A    between atoms: S_3  and  N_23
    6  A    between atoms: C_5  and  C_15
    7  A    between atoms: C_5  and  N_23
    8  A    between atoms: C_6  and  C_15
    9  A    between atoms: C_21  and  C_25
   10  A    between atoms: C_21  and  N_26
                            x       y       z     vdW  Elec       q    Type
                         _______ _______ _______ _____ _____    ______ ____

>  <TORSDO>
F 10

$$$$
=
 OpenBabel11062416343D

 29 31  0  0  1  0  0  0  0  0999 V2000
  189.3560  177.1070  145.2350 C   0  0  2  0  0  3  0  0  0  0  0  0
  188.1410  177.8890  145.3510 N   0  0  0  0  0  0  0  0  0  0  0  0
  188.3130  177.2150  147.6130 C   0  0  0  0  0  2  0  0  0  0  0  0
  187.6160  177.9380  146.5270 C   0  0  0  0  0  0  0  0  0  0  0  0
  189.8780  176.6090  146.9110 S   0  0  0  0  0  0  0  0  0  0  0  0
  186.4120  178.6650  146.7770 N   0  0  0  0  0  2  0  0  0  0  0  0
  190.4250  177.9050  144.5570 C   0  0  0  0  0  0  0  0  0  0  0  0
  190.4580  179.1210  144.6720 O   0  0  0  0  0  0  0  0  0  0  0  0
  191.4340  177.2110  143.7080 C   0  0  0  0  0  2  0  0  0  0  0  0
  191.4450  177.7940  142.3760 N   0  0  0  0  0  2  0  0  0  0  0  0
  190.3230  176.9020  141.4040 S   0  0  0  0  0  0  0  0  0  0  0  0
  191.0280  176.3460  140.1980 O   0  0  0  0  0  0  0  0  0  0  0  0
  189.7450  175.7710  142.2070 O   0  0  0  0  0  0  0  0  0  0  0  0
  187.8350  177.9240  141.8330 C   0  0  0  0  0  1  0  0  0  0  0  0
  189.0010  177.9750  140.8620 C   0  0  2  0  0  3  0  0  0  0  0  0
  188.5540  177.6470  139.4420 C   0  0  0  0  0  2  0  0  0  0  0  0
  187.5270  178.4990  139.0270 O   0  0  0  0  0  1  0  0  0  0  0  0
  185.7160  179.3920  145.7290 C   0  0  0  0  0  2  0  0  0  0  0  0
  184.5360  179.0810  143.6280 N   0  0  0  0  0  0  0  0  0  0  0  0
  183.5610  178.9260  144.7170 C   0  0  0  0  0  2  0  0  0  0  0  0
  184.9180  178.4210  144.8860 C   0  0  2  0  0  3  0  0  0  0  0  0
  184.2650  178.0230  142.6710 C   0  0  0  0  0  2  0  0  0  0  0  0
  182.2500  178.6150  141.3080 C   0  0  0  0  0  3  0  0  0  0  0  0
  183.6400  178.5980  141.4480 C   0  0  0  0  0  0  0  0  0  0  0  0
  182.4470  179.6070  139.1590 C   0  0  0  0  0  0  0  0  0  0  0  0
  183.8400  179.6000  139.2600 C   0  0  0  0  0  3  0  0  0  0  0  0
  184.4370  179.0890  140.4130 C   0  0  0  0  0  3  0  0  0  0  0  0
  181.8230  180.1250  137.9920 N   0  0  0  0  0  1  0  0  0  0  0  0
  181.6860  179.1170  140.1760 N   0  0  0  0  0  0  0  0  0  0  0  0
  1  7  1  1  0  0  0
  1  2  1  0  0  0  0
  1  5  1  0  0  0  0
  2  4  2  0  0  0  0
  4  6  1  0  0  0  0
  4  3  1  0  0  0  0
  5  3  1  0  0  0  0
  7  8  2  0  0  0  0
  9  7  1  0  0  0  0
 10  9  1  0  0  0  0
 11 13  2  0  0  0  0
 11 10  1  0  0  0  0
 12 11  2  0  0  0  0
 15 11  1  0  0  0  0
 15 14  1  1  0  0  0
 16 15  1  0  0  0  0
 17 16  1  0  0  0  0
 18  6  1  0  0  0  0
 19 20  1  0  0  0  0
 19 21  1  0  0  0  0
 20 21  1  0  0  0  0
 21 18  1  1  0  0  0
 22 19  1  0  0  0  0
 23 24  1  0  0  0  0
 24 22  1  0  0  0  0
 25 26  2  0  0  0  0
 25 29  1  0  0  0  0
 26 27  1  0  0  0  0
 27 24  2  0  0  0  0
 28 25  1  0  0  0  0
 29 23  2  0  0  0  0
M  END
>  <MODEL>
7

>  <REMARK>
 VINA RESULT:      -6.8      2.124      5.985
  Name = 
  10 active torsions:
  status: ('A' for Active; 'I' for Inactive)
    1  A    between atoms: C_1  and  C_22
    2  A    between atoms: C_2  and  C_8
    3  A    between atoms: C_2  and  N_12
    4  A    between atoms: S_3  and  C_22
    5  A    between atoms: S_3  and  N_23
    6  A    between atoms: C_5  and  C_15
    7  A    between atoms: C_5  and  N_23
    8  A    between atoms: C_6  and  C_15
    9  A    between atoms: C_21  and  C_25
   10  A    between atoms: C_21  and  N_26
                            x       y       z     vdW  Elec       q    Type
                         _______ _______ _______ _____ _____    ______ ____

>  <TORSDO>
F 10

$$$$
=
 OpenBabel11062416343D

 29 31  0  0  1  0  0  0  0  0999 V2000
  183.4780  178.9670  139.7850 C   0  0  2  0  0  3  0  0  0  0  0  0
  184.0380  178.7330  141.1020 N   0  0  0  0  0  0  0  0  0  0  0  0
  181.7610  178.8700  141.7330 C   0  0  0  0  0  2  0  0  0  0  0  0
  183.1910  178.6940  142.0720 C   0  0  0  0  0  0  0  0  0  0  0  0
  181.6590  178.9080  139.9170 S   0  0  0  0  0  0  0  0  0  0  0  0
  183.6090  178.4820  143.4210 N   0  0  0  0  0  2  0  0  0  0  0  0
  183.9780  177.9390  138.8190 C   0  0  0  0  0  0  0  0  0  0  0  0
  183.3600  176.8990  138.6440 O   0  0  0  0  0  0  0  0  0  0  0  0
  185.2570  178.1750  138.0920 C   0  0  0  0  0  2  0  0  0  0  0  0
  186.2790  178.6250  139.0230 N   0  0  0  0  0  2  0  0  0  0  0  0
  187.7710  177.8720  138.5680 S   0  0  0  0  0  0  0  0  0  0  0  0
  187.4890  176.6470  137.7430 O   0  0  0  0  0  0  0  0  0  0  0  0
  188.5980  178.8340  137.7610 O   0  0  0  0  0  0  0  0  0  0  0  0
  188.2970  178.2660  141.2110 C   0  0  0  0  0  1  0  0  0  0  0  0
  188.6820  177.3950  140.0280 C   0  0  2  0  0  3  0  0  0  0  0  0
  190.1870  177.4210  139.7890 C   0  0  0  0  0  2  0  0  0  0  0  0
  190.6210  176.2450  139.1710 O   0  0  0  0  0  1  0  0  0  0  0  0
  185.0060  178.2940  143.7760 C   0  0  0  0  0  2  0  0  0  0  0  0
  185.6820  177.9520  146.0840 N   0  0  0  0  0  0  0  0  0  0  0  0
  184.3230  178.5120  146.0930 C   0  0  0  0  0  2  0  0  0  0  0  0
  185.2860  178.9720  145.1000 C   0  0  2  0  0  3  0  0  0  0  0  0
  186.4260  178.6440  147.1200 C   0  0  0  0  0  2  0  0  0  0  0  0
  188.5410  178.1730  148.3750 C   0  0  0  0  0  3  0  0  0  0  0  0
  187.8160  178.1150  147.1820 C   0  0  0  0  0  0  0  0  0  0  0  0
  190.4260  177.1930  147.3140 C   0  0  0  0  0  0  0  0  0  0  0  0
  189.7360  177.1250  146.1010 C   0  0  0  0  0  3  0  0  0  0  0  0
  188.4230  177.5930  146.0380 C   0  0  0  0  0  3  0  0  0  0  0  0
  191.7640  176.7200  147.3960 N   0  0  0  0  0  1  0  0  0  0  0  0
  189.8210  177.7130  148.4160 N   0  0  0  0  0  0  0  0  0  0  0  0
  1  7  1  6  0  0  0
  1  5  1  0  0  0  0
  1  2  1  0  0  0  0
  2  4  2  0  0  0  0
  3  4  1  0  0  0  0
  4  6  1  0  0  0  0
  5  3  1  0  0  0  0
  6 18  1  0  0  0  0
  8  7  2  0  0  0  0
  9  7  1  0  0  0  0
  9 10  1  0  0  0  0
 11 10  1  0  0  0  0
 11 15  1  0  0  0  0
 12 11  2  0  0  0  0
 13 11  2  0  0  0  0
 15 14  1  1  0  0  0
 16 15  1  0  0  0  0
 17 16  1  0  0  0  0
 19 20  1  0  0  0  0
 19 22  1  0  0  0  0
 21 18  1  6  0  0  0
 21 19  1  0  0  0  0
 21 20  1  0  0  0  0
 22 24  1  0  0  0  0
 23 29  1  0  0  0  0
 24 23  2  0  0  0  0
 25 28  1  0  0  0  0
 25 29  2  0  0  0  0
 26 25  1  0  0  0  0
 27 26  2  0  0  0  0
 27 24  1  0  0  0  0
M  END
>  <MODEL>
8

>  <REMARK>
 VINA RESULT:      -6.8      2.861      5.721
  Name = 
  10 active torsions:
  status: ('A' for Active; 'I' for Inactive)
    1  A    between atoms: C_1  and  C_22
    2  A    between atoms: C_2  and  C_8
    3  A    between atoms: C_2  and  N_12
    4  A    between atoms: S_3  and  C_22
    5  A    between atoms: S_3  and  N_23
    6  A    between atoms: C_5  and  C_15
    7  A    between atoms: C_5  and  N_23
    8  A    between atoms: C_6  and  C_15
    9  A    between atoms: C_21  and  C_25
   10  A    between atoms: C_21  and  N_26
                            x       y       z     vdW  Elec       q    Type
                         _______ _______ _______ _____ _____    ______ ____

>  <TORSDO>
F 10

$$$$
=
 OpenBabel11062416343D

 29 31  0  0  1  0  0  0  0  0999 V2000
  190.6590  175.0070  137.4900 C   0  0  2  0  0  3  0  0  0  0  0  0
  190.4400  175.7830  138.6960 N   0  0  0  0  0  0  0  0  0  0  0  0
  192.6520  176.4950  138.2460 C   0  0  0  0  0  2  0  0  0  0  0  0
  191.4290  176.5150  139.0790 C   0  0  0  0  0  0  0  0  0  0  0  0
  192.2550  175.5140  136.7660 S   0  0  0  0  0  0  0  0  0  0  0  0
  191.3500  177.3200  140.2560 N   0  0  0  0  0  2  0  0  0  0  0  0
  189.5390  175.2250  136.5230 C   0  0  0  0  0  0  0  0  0  0  0  0
  189.6400  174.8530  135.3630 O   0  0  0  0  0  0  0  0  0  0  0  0
  188.3060  175.9310  136.9720 C   0  0  0  0  0  2  0  0  0  0  0  0
  188.1860  177.2050  136.2810 N   0  0  0  0  0  2  0  0  0  0  0  0
  187.4110  178.3150  137.3610 S   0  0  0  0  0  0  0  0  0  0  0  0
  188.2350  178.4690  138.6090 O   0  0  0  0  0  0  0  0  0  0  0  0
  187.2680  179.6540  136.6930 O   0  0  0  0  0  0  0  0  0  0  0  0
  185.0450  177.2190  136.5720 C   0  0  0  0  0  1  0  0  0  0  0  0
  185.7920  177.7030  137.8030 C   0  0  2  0  0  3  0  0  0  0  0  0
  184.9820  178.7450  138.5660 C   0  0  0  0  0  2  0  0  0  0  0  0
  185.5380  178.9940  139.8240 O   0  0  0  0  0  1  0  0  0  0  0  0
  190.1550  177.3650  141.0820 C   0  0  0  0  0  2  0  0  0  0  0  0
  190.0120  177.7640  143.4740 N   0  0  0  0  0  0  0  0  0  0  0  0
  191.4350  177.6730  143.1200 C   0  0  0  0  0  2  0  0  0  0  0  0
  190.4700  176.8080  142.4540 C   0  0  2  0  0  3  0  0  0  0  0  0
  189.8380  177.0080  144.7020 C   0  0  0  0  0  2  0  0  0  0  0  0
  187.3860  177.5010  144.5840 C   0  0  0  0  0  3  0  0  0  0  0  0
  188.5500  177.3840  145.3470 C   0  0  0  0  0  0  0  0  0  0  0  0
  186.1500  178.1390  146.5070 C   0  0  0  0  0  0  0  0  0  0  0  0
  187.2940  178.0410  147.3030 C   0  0  0  0  0  3  0  0  0  0  0  0
  188.5020  177.6620  146.7140 C   0  0  0  0  0  3  0  0  0  0  0  0
  184.9120  178.5220  147.0920 N   0  0  0  0  0  1  0  0  0  0  0  0
  186.2180  177.8710  145.1750 N   0  0  0  0  0  0  0  0  0  0  0  0
  1  7  1  6  0  0  0
  1  2  1  0  0  0  0
  2  4  2  0  0  0  0
  3  4  1  0  0  0  0
  4  6  1  0  0  0  0
  5  1  1  0  0  0  0
  5  3  1  0  0  0  0
  6 18  1  0  0  0  0
  7  9  1  0  0  0  0
  8  7  2  0  0  0  0
 10  9  1  0  0  0  0
 10 11  1  0  0  0  0
 11 15  1  0  0  0  0
 11 12  2  0  0  0  0
 13 11  2  0  0  0  0
 15 14  1  6  0  0  0
 15 16  1  0  0  0  0
 16 17  1  0  0  0  0
 19 22  1  0  0  0  0
 20 19  1  0  0  0  0
 21 18  1  6  0  0  0
 21 20  1  0  0  0  0
 21 19  1  0  0  0  0
 22 24  1  0  0  0  0
 23 29  2  0  0  0  0
 23 24  1  0  0  0  0
 24 27  2  0  0  0  0
 25 28  1  0  0  0  0
 25 26  2  0  0  0  0
 27 26  1  0  0  0  0
 29 25  1  0  0  0  0
M  END
>  <MODEL>
9

>  <REMARK>
 VINA RESULT:      -6.7      3.309      6.077
  Name = 
  10 active torsions:
  status: ('A' for Active; 'I' for Inactive)
    1  A    between atoms: C_1  and  C_22
    2  A    between atoms: C_2  and  C_8
    3  A    between atoms: C_2  and  N_12
    4  A    between atoms: S_3  and  C_22
    5  A    between atoms: S_3  and  N_23
    6  A    between atoms: C_5  and  C_15
    7  A    between atoms: C_5  and  N_23
    8  A    between atoms: C_6  and  C_15
    9  A    between atoms: C_21  and  C_25
   10  A    between atoms: C_21  and  N_26
                            x       y       z     vdW  Elec       q    Type
                         _______ _______ _______ _____ _____    ______ ____

>  <TORSDO>
F 10

$$$$
