=
 OpenBabel11062415183D

 41 45  0  0  1  0  0  0  0  0999 V2000
  186.7100  178.1600  142.0350 C   0  0  1  0  0  3  0  0  0  0  0  0
  187.3460  178.4840  139.9130 N   0  0  0  0  0  0  0  0  0  0  0  0
  185.1960  179.4230  139.4230 N   0  0  0  0  0  2  0  0  0  0  0  0
  190.0180  177.6180  141.3100 O   0  0  0  0  0  0  0  0  0  0  0  0
  185.9030  178.2370  139.8850 C   0  0  2  0  0  3  0  0  0  0  0  0
  188.7000  175.5840  143.1170 C   0  0  0  0  0  1  0  0  0  0  0  0
  188.4630  177.0890  143.1460 C   0  0  2  0  0  0  0  0  0  0  0  0
  187.0200  177.3530  143.1690 N   0  0  0  0  0  2  0  0  0  0  0  0
  187.7340  178.3930  141.2750 C   0  0  2  0  0  3  0  0  0  0  0  0
  185.5180  178.0510  141.2690 N   0  0  2  0  0  0  0  0  0  0  0  0
  184.1070  179.6240  140.3010 N   0  0  0  0  0  2  0  0  0  0  0  0
  188.8840  177.7210  141.8490 C   0  0  0  0  0  0  0  0  0  0  0  0
  184.3960  178.9070  141.5390 C   0  0  0  0  0  2  0  0  0  0  0  0
  189.2730  176.8630  146.5560 C   0  0  0  0  0  2  0  0  0  0  0  0
  189.1360  177.7640  144.3570 C   0  0  2  0  0  3  0  0  0  0  0  0
  189.9290  176.7760  145.2120 C   0  0  1  0  0  3  0  0  0  0  0  0
  188.5430  178.1800  146.4880 C   0  0  1  0  0  3  0  0  0  0  0  0
  188.1700  178.4070  145.1550 O   0  0  0  0  0  0  0  0  0  0  0  0
  191.4090  177.1680  145.2960 C   0  0  0  0  0  0  0  0  0  0  0  0
  191.6000  178.4200  144.7450 F   0  0  0  0  0  0  0  0  0  0  0  0
  192.1660  176.2530  144.5870 F   0  0  0  0  0  0  0  0  0  0  0  0
  191.8410  177.1900  146.6120 F   0  0  0  0  0  0  0  0  0  0  0  0
  187.3170  178.1430  147.3870 C   0  0  0  0  0  2  0  0  0  0  0  0
  186.0740  177.7810  146.5910 C   0  0  0  0  0  2  0  0  0  0  0  0
  185.1090  178.8660  146.6520 N   0  0  0  0  0  2  0  0  0  0  0  0
  183.3450  178.9240  144.9970 C   0  0  0  0  0  1  0  0  0  0  0  0
  184.8000  179.2310  145.2830 C   0  0  0  0  0  2  0  0  0  0  0  0
  188.2270  178.2530  138.7770 C   0  0  0  0  0  2  0  0  0  0  0  0
  187.4560  177.6420  137.6210 C   0  0  0  0  0  2  0  0  0  0  0  0
  187.8520  176.1750  137.4620 C   0  0  1  0  0  3  0  0  0  0  0  0
  185.1880  173.7490  137.0960 C   0  0  0  0  0  2  0  0  0  0  0  0
  186.8560  175.4320  136.6700 N   0  0  0  0  0  0  0  0  0  0  0  0
  185.5560  176.0870  136.7880 C   0  0  0  0  0  2  0  0  0  0  0  0
  186.6440  174.1240  137.2810 C   0  0  0  0  0  2  0  0  0  0  0  0
  184.5020  175.0150  136.6520 C   0  0  0  0  0  2  0  0  0  0  0  0
  189.1750  175.9520  135.4400 O   0  0  0  0  0  1  0  0  0  0  0  0
  189.2510  176.1360  136.8250 C   0  0  2  0  0  3  0  0  0  0  0  0
  190.1240  175.0660  137.4630 C   0  0  0  0  0  2  0  0  0  0  0  0
  190.6830  175.5530  138.6460 O   0  0  0  0  0  0  0  0  0  0  0  0
  191.5370  176.5770  138.2380 C   0  0  0  0  0  2  0  0  0  0  0  0
  192.9100  176.0040  137.9530 C   0  0  0  0  0  1  0  0  0  0  0  0
  1  8  1  6  0  0  0
  2  9  1  0  0  0  0
  3 11  1  0  0  0  0
  4 12  2  0  0  0  0
  5  3  1  1  0  0  0
  5  2  1  0  0  0  0
  5 10  1  0  0  0  0
  7  6  1  6  0  0  0
  7  8  1  0  0  0  0
  7 15  1  0  0  0  0
  9 12  1  6  0  0  0
  9  1  1  0  0  0  0
 10 13  1  1  0  0  0
 10  1  1  0  0  0  0
 11 13  1  0  0  0  0
 12  7  1  0  0  0  0
 15 18  1  1  0  0  0
 15 16  1  0  0  0  0
 16 19  1  1  0  0  0
 16 14  1  0  0  0  0
 17 14  1  0  0  0  0
 17 23  1  1  0  0  0
 18 17  1  0  0  0  0
 19 22  1  0  0  0  0
 20 19  1  0  0  0  0
 21 19  1  0  0  0  0
 24 25  1  0  0  0  0
 24 23  1  0  0  0  0
 26 27  1  0  0  0  0
 27 25  1  0  0  0  0
 28  2  1  0  0  0  0
 29 28  1  0  0  0  0
 30 29  1  6  0  0  0
 31 34  1  0  0  0  0
 32 33  1  0  0  0  0
 32 34  1  0  0  0  0
 32 30  1  0  0  0  0
 35 33  1  0  0  0  0
 35 31  1  0  0  0  0
 37 36  1  6  0  0  0
 37 30  1  0  0  0  0
 37 38  1  0  0  0  0
 38 39  1  0  0  0  0
 40 39  1  0  0  0  0
 41 40  1  0  0  0  0
M  END
>  <MODEL>
1

>  <REMARK>
 VINA RESULT:      -7.4      0.000      0.000
  Name = 
  14 active torsions:
  status: ('A' for Active; 'I' for Inactive)
    1  A    between atoms: C_2  and  C_30
    2  A    between atoms: C_2  and  C_37
    3  A    between atoms: N_3  and  C_35
    4  A    between atoms: C_4  and  O_14
    5  A    between atoms: C_4  and  C_39
    6  A    between atoms: C_9  and  C_16
    7  A    between atoms: C_9  and  C_35
    8  A    between atoms: C_12  and  C_23
    9  A    between atoms: O_14  and  C_15
   10  A    between atoms: C_16  and  N_20
   11  A    between atoms: C_16  and  C_39
   12  A    between atoms: C_18  and  C_19
   13  A    between atoms: C_25  and  N_27
   14  A    between atoms: N_27  and  C_37
                            x       y       z     vdW  Elec       q    Type
                         _______ _______ _______ _____ _____    ______ ____

>  <TORSDO>
F 14

$$$$
=
 OpenBabel11062415183D

 41 45  0  0  1  0  0  0  0  0999 V2000
  186.7930  178.1190  142.1990 C   0  0  1  0  0  3  0  0  0  0  0  0
  187.5190  178.5660  140.1300 N   0  0  0  0  0  0  0  0  0  0  0  0
  185.3580  179.4400  139.5720 N   0  0  0  0  0  2  0  0  0  0  0  0
  190.1530  177.7430  141.6220 O   0  0  0  0  0  0  0  0  0  0  0  0
  186.0910  178.2630  140.0160 C   0  0  2  0  0  3  0  0  0  0  0  0
  188.8340  175.5760  143.2660 C   0  0  0  0  0  1  0  0  0  0  0  0
  188.5330  177.0680  143.3500 C   0  0  2  0  0  0  0  0  0  0  0  0
  187.0810  177.2720  143.3100 N   0  0  0  0  0  2  0  0  0  0  0  0
  187.8430  178.4270  141.5040 C   0  0  2  0  0  3  0  0  0  0  0  0
  185.6470  177.9980  141.3700 N   0  0  2  0  0  0  0  0  0  0  0  0
  184.2200  179.5570  140.4020 N   0  0  0  0  0  2  0  0  0  0  0  0
  188.9910  177.7750  142.1060 C   0  0  0  0  0  0  0  0  0  0  0  0
  184.4780  178.7950  141.6200 C   0  0  0  0  0  2  0  0  0  0  0  0
  189.0920  176.7570  146.8040 C   0  0  0  0  0  2  0  0  0  0  0  0
  189.1170  177.7110  144.6230 C   0  0  2  0  0  3  0  0  0  0  0  0
  189.8450  176.7010  145.5090 C   0  0  1  0  0  3  0  0  0  0  0  0
  188.3700  178.0780  146.7150 C   0  0  1  0  0  3  0  0  0  0  0  0
  188.0950  178.3370  145.3630 O   0  0  0  0  0  0  0  0  0  0  0  0
  191.3150  177.0870  145.7110 C   0  0  0  0  0  0  0  0  0  0  0  0
  192.1370  176.0710  145.2630 F   0  0  0  0  0  0  0  0  0  0  0  0
  191.5560  177.2870  147.0580 F   0  0  0  0  0  0  0  0  0  0  0  0
  191.6210  178.2470  145.0180 F   0  0  0  0  0  0  0  0  0  0  0  0
  187.0820  178.0220  147.5210 C   0  0  0  0  0  2  0  0  0  0  0  0
  186.1410  179.1450  147.1140 C   0  0  0  0  0  2  0  0  0  0  0  0
  184.8590  178.5980  146.7050 N   0  0  0  0  0  2  0  0  0  0  0  0
  183.1920  178.9000  144.9770 C   0  0  0  0  0  1  0  0  0  0  0  0
  184.6660  178.9740  145.3180 C   0  0  0  0  0  2  0  0  0  0  0  0
  188.4640  178.4240  139.0310 C   0  0  0  0  0  2  0  0  0  0  0  0
  188.3430  177.0490  138.3990 C   0  0  0  0  0  2  0  0  0  0  0  0
  188.6500  177.1450  136.9050 C   0  0  1  0  0  3  0  0  0  0  0  0
  190.3530  173.9480  136.8790 C   0  0  0  0  0  2  0  0  0  0  0  0
  189.7640  176.2560  136.5280 N   0  0  0  0  0  0  0  0  0  0  0  0
  189.3960  175.4970  135.3350 C   0  0  0  0  0  2  0  0  0  0  0  0
  189.9230  175.2330  137.5560 C   0  0  0  0  0  2  0  0  0  0  0  0
  190.1200  174.1740  135.4070 C   0  0  0  0  0  2  0  0  0  0  0  0
  186.8130  177.9610  135.5460 O   0  0  0  0  0  1  0  0  0  0  0  0
  187.3580  176.8170  136.1410 C   0  0  2  0  0  3  0  0  0  0  0  0
  186.3340  176.1400  137.0400 C   0  0  0  0  0  2  0  0  0  0  0  0
  185.8810  174.9630  136.4400 O   0  0  0  0  0  0  0  0  0  0  0  0
  186.4830  173.9400  137.1710 C   0  0  0  0  0  2  0  0  0  0  0  0
  185.4250  172.9510  137.6170 C   0  0  0  0  0  1  0  0  0  0  0  0
  1  8  1  6  0  0  0
  2  9  1  0  0  0  0
  3 11  1  0  0  0  0
  4 12  2  0  0  0  0
  5  3  1  1  0  0  0
  5  2  1  0  0  0  0
  5 10  1  0  0  0  0
  7  6  1  6  0  0  0
  7 15  1  0  0  0  0
  8  7  1  0  0  0  0
  9 12  1  6  0  0  0
  9  1  1  0  0  0  0
 10 13  1  1  0  0  0
 10  1  1  0  0  0  0
 11 13  1  0  0  0  0
 12  7  1  0  0  0  0
 15 18  1  1  0  0  0
 15 16  1  0  0  0  0
 16 19  1  1  0  0  0
 16 14  1  0  0  0  0
 17 14  1  0  0  0  0
 17 23  1  1  0  0  0
 18 17  1  0  0  0  0
 19 21  1  0  0  0  0
 20 19  1  0  0  0  0
 22 19  1  0  0  0  0
 24 23  1  0  0  0  0
 25 24  1  0  0  0  0
 26 27  1  0  0  0  0
 27 25  1  0  0  0  0
 28  2  1  0  0  0  0
 29 28  1  0  0  0  0
 30 29  1  1  0  0  0
 31 34  1  0  0  0  0
 32 30  1  0  0  0  0
 32 34  1  0  0  0  0
 33 35  1  0  0  0  0
 33 32  1  0  0  0  0
 35 31  1  0  0  0  0
 37 36  1  1  0  0  0
 37 30  1  0  0  0  0
 37 38  1  0  0  0  0
 39 38  1  0  0  0  0
 39 40  1  0  0  0  0
 40 41  1  0  0  0  0
M  END
>  <MODEL>
2

>  <REMARK>
 VINA RESULT:      -7.3      1.244      2.618
  Name = 
  14 active torsions:
  status: ('A' for Active; 'I' for Inactive)
    1  A    between atoms: C_2  and  C_30
    2  A    between atoms: C_2  and  C_37
    3  A    between atoms: N_3  and  C_35
    4  A    between atoms: C_4  and  O_14
    5  A    between atoms: C_4  and  C_39
    6  A    between atoms: C_9  and  C_16
    7  A    between atoms: C_9  and  C_35
    8  A    between atoms: C_12  and  C_23
    9  A    between atoms: O_14  and  C_15
   10  A    between atoms: C_16  and  N_20
   11  A    between atoms: C_16  and  C_39
   12  A    between atoms: C_18  and  C_19
   13  A    between atoms: C_25  and  N_27
   14  A    between atoms: N_27  and  C_37
                            x       y       z     vdW  Elec       q    Type
                         _______ _______ _______ _____ _____    ______ ____

>  <TORSDO>
F 14

$$$$
=
 OpenBabel11062415183D

 41 45  0  0  1  0  0  0  0  0999 V2000
  189.1140  177.4960  140.7340 C   0  0  1  0  0  3  0  0  0  0  0  0
  190.8800  177.5920  139.3620 N   0  0  0  0  0  0  0  0  0  0  0  0
  189.4560  178.3740  137.6000 N   0  0  0  0  0  2  0  0  0  0  0  0
  192.2000  177.0120  142.1490 O   0  0  0  0  0  0  0  0  0  0  0  0
  189.7180  177.2830  138.5270 C   0  0  2  0  0  3  0  0  0  0  0  0
  190.0040  175.1530  143.0760 C   0  0  0  0  0  1  0  0  0  0  0  0
  189.8480  176.6400  142.7790 C   0  0  2  0  0  0  0  0  0  0  0  0
  188.6750  176.8430  141.9230 N   0  0  0  0  0  2  0  0  0  0  0  0
  190.3960  177.6800  140.6940 C   0  0  2  0  0  3  0  0  0  0  0  0
  188.5910  177.2460  139.4370 N   0  0  2  0  0  0  0  0  0  0  0  0
  188.0670  178.6320  137.6450 N   0  0  0  0  0  2  0  0  0  0  0  0
  190.9700  177.1300  141.9070 C   0  0  0  0  0  0  0  0  0  0  0  0
  187.5530  178.0800  138.8950 C   0  0  0  0  0  2  0  0  0  0  0  0
  188.7650  176.7420  146.1180 C   0  0  0  0  0  2  0  0  0  0  0  0
  189.7110  177.4810  144.0620 C   0  0  2  0  0  3  0  0  0  0  0  0
  190.0340  176.6820  145.3240 C   0  0  1  0  0  3  0  0  0  0  0  0
  188.0470  177.9210  145.5140 C   0  0  1  0  0  3  0  0  0  0  0  0
  188.4080  178.0090  144.1610 O   0  0  0  0  0  0  0  0  0  0  0  0
  191.2000  177.3070  146.1010 C   0  0  0  0  0  0  0  0  0  0  0  0
  190.7570  177.7750  147.3230 F   0  0  0  0  0  0  0  0  0  0  0  0
  191.7130  178.3700  145.3810 F   0  0  0  0  0  0  0  0  0  0  0  0
  192.2040  176.3780  146.3170 F   0  0  0  0  0  0  0  0  0  0  0  0
  186.5430  177.7430  145.6550 C   0  0  0  0  0  2  0  0  0  0  0  0
  185.9440  178.8540  146.5010 C   0  0  0  0  0  2  0  0  0  0  0  0
  184.5180  178.9600  146.2480 N   0  0  0  0  0  2  0  0  0  0  0  0
  182.9600  178.8300  144.4000 C   0  0  0  0  0  1  0  0  0  0  0  0
  184.3610  179.2140  144.8280 C   0  0  0  0  0  2  0  0  0  0  0  0
  192.2500  177.2660  138.9920 C   0  0  0  0  0  2  0  0  0  0  0  0
  192.2960  175.9600  138.2200 C   0  0  0  0  0  2  0  0  0  0  0  0
  193.0290  176.1750  136.8970 C   0  0  1  0  0  3  0  0  0  0  0  0
  195.7030  173.7930  137.4370 C   0  0  0  0  0  2  0  0  0  0  0  0
  194.4510  175.8030  137.0040 N   0  0  0  0  0  0  0  0  0  0  0  0
  194.9080  175.2570  135.7280 C   0  0  0  0  0  2  0  0  0  0  0  0
  194.5790  174.6820  137.9290 C   0  0  0  0  0  2  0  0  0  0  0  0
  195.9970  174.2580  136.0350 C   0  0  0  0  0  2  0  0  0  0  0  0
  191.6560  176.2010  134.8960 O   0  0  0  0  0  1  0  0  0  0  0  0
  192.2940  175.3640  135.8180 C   0  0  2  0  0  3  0  0  0  0  0  0
  191.3020  174.3880  136.4340 C   0  0  0  0  0  2  0  0  0  0  0  0
  191.1500  173.2770  135.6010 O   0  0  0  0  0  0  0  0  0  0  0  0
  189.8080  172.9230  135.7250 C   0  0  0  0  0  2  0  0  0  0  0  0
  189.1720  173.7390  136.8320 C   0  0  0  0  0  1  0  0  0  0  0  0
  1  8  1  1  0  0  0
  2  9  1  0  0  0  0
  3 11  1  0  0  0  0
  5  3  1  6  0  0  0
  5  2  1  0  0  0  0
  5 10  1  0  0  0  0
  7  6  1  1  0  0  0
  7 15  1  0  0  0  0
  8  7  1  0  0  0  0
  9  1  1  0  0  0  0
  9 12  1  1  0  0  0
 10 13  1  6  0  0  0
 10  1  1  0  0  0  0
 11 13  1  0  0  0  0
 12  4  2  0  0  0  0
 12  7  1  0  0  0  0
 15 18  1  1  0  0  0
 15 16  1  0  0  0  0
 16 19  1  1  0  0  0
 16 14  1  0  0  0  0
 17 23  1  6  0  0  0
 17 14  1  0  0  0  0
 18 17  1  0  0  0  0
 19 22  1  0  0  0  0
 19 20  1  0  0  0  0
 21 19  1  0  0  0  0
 23 24  1  0  0  0  0
 25 24  1  0  0  0  0
 26 27  1  0  0  0  0
 27 25  1  0  0  0  0
 28  2  1  0  0  0  0
 29 28  1  0  0  0  0
 30 32  1  0  0  0  0
 30 29  1  1  0  0  0
 31 34  1  0  0  0  0
 32 34  1  0  0  0  0
 33 35  1  0  0  0  0
 33 32  1  0  0  0  0
 35 31  1  0  0  0  0
 37 36  1  6  0  0  0
 37 38  1  0  0  0  0
 37 30  1  0  0  0  0
 39 40  1  0  0  0  0
 39 38  1  0  0  0  0
 40 41  1  0  0  0  0
M  END
>  <MODEL>
3

>  <REMARK>
 VINA RESULT:      -6.8      2.291      4.338
  Name = 
  14 active torsions:
  status: ('A' for Active; 'I' for Inactive)
    1  A    between atoms: C_2  and  C_30
    2  A    between atoms: C_2  and  C_37
    3  A    between atoms: N_3  and  C_35
    4  A    between atoms: C_4  and  O_14
    5  A    between atoms: C_4  and  C_39
    6  A    between atoms: C_9  and  C_16
    7  A    between atoms: C_9  and  C_35
    8  A    between atoms: C_12  and  C_23
    9  A    between atoms: O_14  and  C_15
   10  A    between atoms: C_16  and  N_20
   11  A    between atoms: C_16  and  C_39
   12  A    between atoms: C_18  and  C_19
   13  A    between atoms: C_25  and  N_27
   14  A    between atoms: N_27  and  C_37
                            x       y       z     vdW  Elec       q    Type
                         _______ _______ _______ _____ _____    ______ ____

>  <TORSDO>
F 14

$$$$
=
 OpenBabel11062415183D

 41 45  0  0  1  0  0  0  0  0999 V2000
  186.6290  178.1620  139.3350 C   0  0  1  0  0  3  0  0  0  0  0  0
  187.6540  178.1340  141.3250 N   0  0  0  0  0  0  0  0  0  0  0  0
  185.5200  178.2290  142.4130 N   0  0  0  0  0  2  0  0  0  0  0  0
  190.0060  177.5600  139.3300 O   0  0  0  0  0  0  0  0  0  0  0  0
  186.4250  178.9100  141.4980 C   0  0  2  0  0  3  0  0  0  0  0  0
  188.9870  179.4520  137.2020 C   0  0  0  0  0  1  0  0  0  0  0  0
  188.2830  178.1890  137.6850 C   0  0  2  0  0  0  0  0  0  0  0  0
  186.8780  178.4970  137.9710 N   0  0  0  0  0  2  0  0  0  0  0  0
  187.6850  177.7440  139.9610 C   0  0  2  0  0  3  0  0  0  0  0  0
  185.7760  178.8950  140.2020 N   0  0  2  0  0  0  0  0  0  0  0  0
  184.2370  178.2550  141.8230 N   0  0  0  0  0  2  0  0  0  0  0  0
  188.8000  177.7720  139.0330 C   0  0  0  0  0  0  0  0  0  0  0  0
  184.4100  178.4920  140.3930 C   0  0  0  0  0  2  0  0  0  0  0  0
  189.4170  174.9340  137.0100 C   0  0  0  0  0  2  0  0  0  0  0  0
  188.3690  177.0430  136.6590 C   0  0  2  0  0  3  0  0  0  0  0  0
  188.1430  175.6710  137.2930 C   0  0  1  0  0  3  0  0  0  0  0  0
  190.0140  175.7220  135.8730 C   0  0  1  0  0  3  0  0  0  0  0  0
  189.6200  177.0620  136.0130 O   0  0  0  0  0  0  0  0  0  0  0  0
  186.9410  174.9530  136.6660 C   0  0  0  0  0  0  0  0  0  0  0  0
  186.1860  175.8470  135.9310 F   0  0  0  0  0  0  0  0  0  0  0  0
  186.1480  174.4260  137.6690 F   0  0  0  0  0  0  0  0  0  0  0  0
  187.3580  173.9290  135.8320 F   0  0  0  0  0  0  0  0  0  0  0  0
  191.5300  175.6060  135.8980 C   0  0  0  0  0  2  0  0  0  0  0  0
  192.0070  175.0430  137.2270 C   0  0  0  0  0  2  0  0  0  0  0  0
  192.8970  175.9880  137.8780 N   0  0  0  0  0  2  0  0  0  0  0  0
  194.0040  173.8430  137.7070 C   0  0  0  0  0  1  0  0  0  0  0  0
  194.1540  175.3000  138.0960 C   0  0  0  0  0  2  0  0  0  0  0  0
  188.8250  178.2750  142.1800 C   0  0  0  0  0  2  0  0  0  0  0  0
  188.7790  177.2690  143.3150 C   0  0  0  0  0  2  0  0  0  0  0  0
  189.1060  177.9700  144.6320 C   0  0  1  0  0  3  0  0  0  0  0  0
  187.5580  178.2630  147.8940 C   0  0  0  0  0  2  0  0  0  0  0  0
  188.2620  177.4700  145.7320 N   0  0  0  0  0  0  0  0  0  0  0  0
  186.9180  178.0290  145.6060 C   0  0  0  0  0  2  0  0  0  0  0  0
  188.7510  178.0190  146.9920 C   0  0  0  0  0  2  0  0  0  0  0  0
  186.3510  178.1460  147.0000 C   0  0  0  0  0  2  0  0  0  0  0  0
  191.3780  178.7390  144.2640 O   0  0  0  0  0  1  0  0  0  0  0  0
  190.6050  177.7680  144.9090 C   0  0  2  0  0  3  0  0  0  0  0  0
  191.0610  176.3710  144.5160 C   0  0  0  0  0  2  0  0  0  0  0  0
  192.0880  175.9510  145.3630 O   0  0  0  0  0  0  0  0  0  0  0  0
  191.6890  176.3630  146.6330 C   0  0  0  0  0  2  0  0  0  0  0  0
  192.4850  175.6120  147.6800 C   0  0  0  0  0  1  0  0  0  0  0  0
  1  8  1  6  0  0  0
  1  9  1  0  0  0  0
  1 10  1  0  0  0  0
  2  5  1  0  0  0  0
  2 28  1  0  0  0  0
  5  3  1  1  0  0  0
  7  6  1  6  0  0  0
  7  8  1  0  0  0  0
  7 12  1  0  0  0  0
  9 12  1  6  0  0  0
  9  2  1  0  0  0  0
 10 13  1  1  0  0  0
 10  5  1  0  0  0  0
 11  3  1  0  0  0  0
 12  4  2  0  0  0  0
 13 11  1  0  0  0  0
 14 16  1  0  0  0  0
 15 18  1  1  0  0  0
 15 16  1  0  0  0  0
 15  7  1  0  0  0  0
 16 19  1  6  0  0  0
 17 23  1  1  0  0  0
 17 18  1  0  0  0  0
 17 14  1  0  0  0  0
 19 21  1  0  0  0  0
 20 19  1  0  0  0  0
 22 19  1  0  0  0  0
 23 24  1  0  0  0  0
 24 25  1  0  0  0  0
 25 27  1  0  0  0  0
 26 27  1  0  0  0  0
 28 29  1  0  0  0  0
 30 29  1  6  0  0  0
 30 37  1  0  0  0  0
 30 32  1  0  0  0  0
 32 34  1  0  0  0  0
 33 32  1  0  0  0  0
 33 35  1  0  0  0  0
 34 31  1  0  0  0  0
 35 31  1  0  0  0  0
 37 36  1  6  0  0  0
 38 37  1  0  0  0  0
 38 39  1  0  0  0  0
 39 40  1  0  0  0  0
 40 41  1  0  0  0  0
M  END
>  <MODEL>
4

>  <REMARK>
 VINA RESULT:      -6.6      3.307      8.393
  Name = 
  14 active torsions:
  status: ('A' for Active; 'I' for Inactive)
    1  A    between atoms: C_2  and  C_30
    2  A    between atoms: C_2  and  C_37
    3  A    between atoms: N_3  and  C_35
    4  A    between atoms: C_4  and  O_14
    5  A    between atoms: C_4  and  C_39
    6  A    between atoms: C_9  and  C_16
    7  A    between atoms: C_9  and  C_35
    8  A    between atoms: C_12  and  C_23
    9  A    between atoms: O_14  and  C_15
   10  A    between atoms: C_16  and  N_20
   11  A    between atoms: C_16  and  C_39
   12  A    between atoms: C_18  and  C_19
   13  A    between atoms: C_25  and  N_27
   14  A    between atoms: N_27  and  C_37
                            x       y       z     vdW  Elec       q    Type
                         _______ _______ _______ _____ _____    ______ ____

>  <TORSDO>
F 14

$$$$
=
 OpenBabel11062415183D

 41 45  0  0  1  0  0  0  0  0999 V2000
  187.3630  175.3510  137.1330 C   0  0  1  0  0  3  0  0  0  0  0  0
  185.3010  176.2150  137.2320 N   0  0  0  0  0  0  0  0  0  0  0  0
  184.4060  174.0160  137.5620 N   0  0  0  0  0  2  0  0  0  0  0  0
  187.1220  178.7700  137.2450 O   0  0  0  0  0  0  0  0  0  0  0  0
  185.1650  174.8740  136.6630 C   0  0  2  0  0  3  0  0  0  0  0  0
  189.1390  177.6390  135.2960 C   0  0  0  0  0  1  0  0  0  0  0  0
  188.8460  177.1000  136.6920 C   0  0  2  0  0  0  0  0  0  0  0  0
  188.6600  175.6470  136.6200 N   0  0  0  0  0  2  0  0  0  0  0  0
  186.6880  176.4070  137.4620 C   0  0  2  0  0  3  0  0  0  0  0  0
  186.5090  174.3340  136.6290 N   0  0  2  0  0  0  0  0  0  0  0  0
  185.1040  172.7910  137.6550 N   0  0  0  0  0  2  0  0  0  0  0  0
  187.5040  177.5720  137.1750 C   0  0  0  0  0  0  0  0  0  0  0  0
  186.4830  173.0330  137.2410 C   0  0  0  0  0  2  0  0  0  0  0  0
  190.4240  176.2610  139.7150 C   0  0  0  0  0  2  0  0  0  0  0  0
  189.9670  177.4350  137.6950 C   0  0  2  0  0  3  0  0  0  0  0  0
  190.6600  176.1850  138.2370 C   0  0  1  0  0  3  0  0  0  0  0  0
  190.0830  177.7140  139.9260 C   0  0  1  0  0  3  0  0  0  0  0  0
  189.4500  178.1890  138.7670 O   0  0  0  0  0  0  0  0  0  0  0  0
  192.1600  176.1920  137.9180 C   0  0  0  0  0  0  0  0  0  0  0  0
  192.8260  177.0340  138.7890 F   0  0  0  0  0  0  0  0  0  0  0  0
  192.3520  176.6510  136.6280 F   0  0  0  0  0  0  0  0  0  0  0  0
  192.6950  174.9190  138.0310 F   0  0  0  0  0  0  0  0  0  0  0  0
  189.1690  177.8640  141.1330 C   0  0  0  0  0  2  0  0  0  0  0  0
  189.9680  177.8150  142.4240 C   0  0  0  0  0  2  0  0  0  0  0  0
  189.5800  176.6540  143.2070 N   0  0  0  0  0  2  0  0  0  0  0  0
  187.6040  177.1210  144.5250 C   0  0  0  0  0  1  0  0  0  0  0  0
  188.1300  176.6100  143.2000 C   0  0  0  0  0  2  0  0  0  0  0  0
  184.3340  177.2840  137.0210 C   0  0  0  0  0  2  0  0  0  0  0  0
  183.4470  177.4480  138.2410 C   0  0  0  0  0  2  0  0  0  0  0  0
  182.8190  178.8410  138.2310 C   0  0  1  0  0  3  0  0  0  0  0  0
  179.7570  177.7860  139.8550 C   0  0  0  0  0  2  0  0  0  0  0  0
  181.3500  178.7690  138.3400 N   0  0  0  0  0  0  0  0  0  0  0  0
  180.8800  179.8050  139.2550 C   0  0  0  0  0  2  0  0  0  0  0  0
  180.9860  177.5230  139.0070 C   0  0  0  0  0  2  0  0  0  0  0  0
  179.6230  179.2850  139.9100 C   0  0  0  0  0  2  0  0  0  0  0  0
  184.2570  180.6800  138.8920 O   0  0  0  0  0  1  0  0  0  0  0  0
  183.4500  179.6460  139.3780 C   0  0  2  0  0  3  0  0  0  0  0  0
  184.2350  178.7490  140.3230 C   0  0  0  0  0  2  0  0  0  0  0  0
  185.4730  179.3300  140.6080 O   0  0  0  0  0  0  0  0  0  0  0  0
  185.5920  179.2450  141.9950 C   0  0  0  0  0  2  0  0  0  0  0  0
  184.5970  178.2320  142.5240 C   0  0  0  0  0  1  0  0  0  0  0  0
  1  8  1  6  0  0  0
  1  9  1  0  0  0  0
  2  9  1  0  0  0  0
  3 11  1  0  0  0  0
  5  2  1  0  0  0  0
  5  3  1  1  0  0  0
  7  6  1  6  0  0  0
  7 12  1  0  0  0  0
  7 15  1  0  0  0  0
  8  7  1  0  0  0  0
  9 12  1  6  0  0  0
 10  5  1  0  0  0  0
 10  1  1  0  0  0  0
 10 13  1  1  0  0  0
 12  4  2  0  0  0  0
 13 11  1  0  0  0  0
 14 17  1  0  0  0  0
 15 16  1  0  0  0  0
 15 18  1  1  0  0  0
 16 19  1  1  0  0  0
 16 14  1  0  0  0  0
 17 23  1  1  0  0  0
 18 17  1  0  0  0  0
 19 22  1  0  0  0  0
 19 20  1  0  0  0  0
 21 19  1  0  0  0  0
 23 24  1  0  0  0  0
 24 25  1  0  0  0  0
 27 25  1  0  0  0  0
 27 26  1  0  0  0  0
 28  2  1  0  0  0  0
 28 29  1  0  0  0  0
 30 29  1  1  0  0  0
 30 32  1  0  0  0  0
 30 37  1  0  0  0  0
 31 35  1  0  0  0  0
 32 34  1  0  0  0  0
 32 33  1  0  0  0  0
 33 35  1  0  0  0  0
 34 31  1  0  0  0  0
 37 36  1  6  0  0  0
 37 38  1  0  0  0  0
 38 39  1  0  0  0  0
 39 40  1  0  0  0  0
 40 41  1  0  0  0  0
M  END
>  <MODEL>
5

>  <REMARK>
 VINA RESULT:      -6.6      3.268      6.579
  Name = 
  14 active torsions:
  status: ('A' for Active; 'I' for Inactive)
    1  A    between atoms: C_2  and  C_30
    2  A    between atoms: C_2  and  C_37
    3  A    between atoms: N_3  and  C_35
    4  A    between atoms: C_4  and  O_14
    5  A    between atoms: C_4  and  C_39
    6  A    between atoms: C_9  and  C_16
    7  A    between atoms: C_9  and  C_35
    8  A    between atoms: C_12  and  C_23
    9  A    between atoms: O_14  and  C_15
   10  A    between atoms: C_16  and  N_20
   11  A    between atoms: C_16  and  C_39
   12  A    between atoms: C_18  and  C_19
   13  A    between atoms: C_25  and  N_27
   14  A    between atoms: N_27  and  C_37
                            x       y       z     vdW  Elec       q    Type
                         _______ _______ _______ _____ _____    ______ ____

>  <TORSDO>
F 14

$$$$
=
 OpenBabel11062415183D

 41 45  0  0  1  0  0  0  0  0999 V2000
  186.4470  178.0320  144.2240 C   0  0  1  0  0  3  0  0  0  0  0  0
  185.1690  178.7100  142.5160 N   0  0  0  0  0  0  0  0  0  0  0  0
  183.4940  179.4340  144.0700 N   0  0  0  0  0  2  0  0  0  0  0  0
  187.8830  178.0020  141.1100 O   0  0  0  0  0  0  0  0  0  0  0  0
  184.2560  178.2940  143.5820 C   0  0  2  0  0  3  0  0  0  0  0  0
  188.4430  175.5990  142.8570 C   0  0  0  0  0  1  0  0  0  0  0  0
  188.3660  177.0470  143.3280 C   0  0  2  0  0  0  0  0  0  0  0  0
  187.5090  177.1250  144.5160 N   0  0  0  0  0  2  0  0  0  0  0  0
  186.4810  178.4880  143.0110 C   0  0  2  0  0  3  0  0  0  0  0  0
  185.1090  177.8790  144.6770 N   0  0  2  0  0  0  0  0  0  0  0  0
  183.5280  179.3810  145.4820 N   0  0  0  0  0  2  0  0  0  0  0  0
  187.6180  177.8920  142.3360 C   0  0  0  0  0  0  0  0  0  0  0  0
  184.6620  178.5470  145.8680 C   0  0  0  0  0  2  0  0  0  0  0  0
  191.6890  176.3810  144.2510 C   0  0  0  0  0  2  0  0  0  0  0  0
  189.7550  177.6320  143.6470 C   0  0  2  0  0  3  0  0  0  0  0  0
  190.8920  176.8010  143.0530 C   0  0  1  0  0  3  0  0  0  0  0  0
  191.2580  177.3700  145.3030 C   0  0  1  0  0  3  0  0  0  0  0  0
  189.9290  177.7390  145.0410 O   0  0  0  0  0  0  0  0  0  0  0  0
  191.7460  177.6280  142.0850 C   0  0  0  0  0  0  0  0  0  0  0  0
  192.9240  176.9620  141.8060 F   0  0  0  0  0  0  0  0  0  0  0  0
  192.0550  178.8430  142.6700 F   0  0  0  0  0  0  0  0  0  0  0  0
  191.0700  177.8550  140.8980 F   0  0  0  0  0  0  0  0  0  0  0  0
  191.3750  176.7450  146.6850 C   0  0  0  0  0  2  0  0  0  0  0  0
  190.0380  176.7730  147.4060 C   0  0  0  0  0  2  0  0  0  0  0  0
  190.0110  177.8660  148.3630 N   0  0  0  0  0  2  0  0  0  0  0  0
  187.7340  177.2010  147.8840 C   0  0  0  0  0  1  0  0  0  0  0  0
  188.6210  178.2480  148.5250 C   0  0  0  0  0  2  0  0  0  0  0  0
  184.8040  178.7430  141.1070 C   0  0  0  0  0  2  0  0  0  0  0  0
  183.4470  178.0960  140.8930 C   0  0  0  0  0  2  0  0  0  0  0  0
  182.8100  178.6550  139.6220 C   0  0  1  0  0  3  0  0  0  0  0  0
  184.4320  176.1710  137.5440 C   0  0  0  0  0  2  0  0  0  0  0  0
  182.8200  177.6600  138.5340 N   0  0  0  0  0  0  0  0  0  0  0  0
  182.6240  176.3260  139.0950 C   0  0  0  0  0  2  0  0  0  0  0  0
  184.1580  177.6030  137.9570 C   0  0  0  0  0  2  0  0  0  0  0  0
  183.3460  175.3530  138.1950 C   0  0  0  0  0  2  0  0  0  0  0  0
  181.0640  180.3150  139.3310 O   0  0  0  0  0  1  0  0  0  0  0  0
  181.3880  179.1170  139.9780 C   0  0  2  0  0  3  0  0  0  0  0  0
  181.2040  179.2510  141.4820 C   0  0  0  0  0  2  0  0  0  0  0  0
  179.8830  179.6010  141.7690 O   0  0  0  0  0  0  0  0  0  0  0  0
  179.3760  178.5130  142.4780 C   0  0  0  0  0  2  0  0  0  0  0  0
  179.8510  178.5840  143.9150 C   0  0  0  0  0  1  0  0  0  0  0  0
  1  8  1  6  0  0  0
  1 10  1  0  0  0  0
  2  9  1  0  0  0  0
  2  5  1  0  0  0  0
  3 11  1  0  0  0  0
  4 12  2  0  0  0  0
  5  3  1  1  0  0  0
  5 10  1  0  0  0  0
  7  6  1  6  0  0  0
  7 15  1  0  0  0  0
  7  8  1  0  0  0  0
  9 12  1  6  0  0  0
  9  1  1  0  0  0  0
 10 13  1  1  0  0  0
 11 13  1  0  0  0  0
 12  7  1  0  0  0  0
 14 17  1  0  0  0  0
 15 18  1  1  0  0  0
 16 19  1  6  0  0  0
 16 15  1  0  0  0  0
 16 14  1  0  0  0  0
 17 23  1  1  0  0  0
 18 17  1  0  0  0  0
 19 21  1  0  0  0  0
 20 19  1  0  0  0  0
 22 19  1  0  0  0  0
 23 24  1  0  0  0  0
 24 25  1  0  0  0  0
 25 27  1  0  0  0  0
 26 27  1  0  0  0  0
 28  2  1  0  0  0  0
 29 28  1  0  0  0  0
 30 37  1  0  0  0  0
 30 29  1  1  0  0  0
 31 34  1  0  0  0  0
 31 35  1  0  0  0  0
 32 33  1  0  0  0  0
 32 30  1  0  0  0  0
 34 32  1  0  0  0  0
 35 33  1  0  0  0  0
 37 36  1  6  0  0  0
 37 38  1  0  0  0  0
 38 39  1  0  0  0  0
 39 40  1  0  0  0  0
 40 41  1  0  0  0  0
M  END
>  <MODEL>
6

>  <REMARK>
 VINA RESULT:      -6.5      3.086      5.664
  Name = 
  14 active torsions:
  status: ('A' for Active; 'I' for Inactive)
    1  A    between atoms: C_2  and  C_30
    2  A    between atoms: C_2  and  C_37
    3  A    between atoms: N_3  and  C_35
    4  A    between atoms: C_4  and  O_14
    5  A    between atoms: C_4  and  C_39
    6  A    between atoms: C_9  and  C_16
    7  A    between atoms: C_9  and  C_35
    8  A    between atoms: C_12  and  C_23
    9  A    between atoms: O_14  and  C_15
   10  A    between atoms: C_16  and  N_20
   11  A    between atoms: C_16  and  C_39
   12  A    between atoms: C_18  and  C_19
   13  A    between atoms: C_25  and  N_27
   14  A    between atoms: N_27  and  C_37
                            x       y       z     vdW  Elec       q    Type
                         _______ _______ _______ _____ _____    ______ ____

>  <TORSDO>
F 14

$$$$
=
 OpenBabel11062415183D

 41 45  0  0  1  0  0  0  0  0999 V2000
  185.6470  178.6820  138.6930 C   0  0  1  0  0  3  0  0  0  0  0  0
  187.3220  178.1520  140.0800 N   0  0  0  0  0  0  0  0  0  0  0  0
  188.9040  178.7860  138.3960 N   0  0  0  0  0  2  0  0  0  0  0  0
  184.7990  177.9520  141.9350 O   0  0  0  0  0  0  0  0  0  0  0  0
  187.8040  177.8900  138.7230 C   0  0  2  0  0  3  0  0  0  0  0  0
  183.0160  176.7760  139.7940 C   0  0  0  0  0  1  0  0  0  0  0  0
  183.6400  178.1660  139.7710 C   0  0  2  0  0  0  0  0  0  0  0  0
  184.2690  178.3940  138.4660 N   0  0  0  0  0  2  0  0  0  0  0  0
  185.9860  178.6130  139.9420 C   0  0  2  0  0  3  0  0  0  0  0  0
  186.7090  178.2600  137.8490 N   0  0  2  0  0  0  0  0  0  0  0  0
  188.6500  179.3000  137.1040 N   0  0  0  0  0  2  0  0  0  0  0  0
  184.8130  178.2400  140.7090 C   0  0  0  0  0  0  0  0  0  0  0  0
  187.2250  179.1350  136.8330 C   0  0  0  0  0  2  0  0  0  0  0  0
  180.3650  179.3260  139.2630 C   0  0  0  0  0  2  0  0  0  0  0  0
  182.6090  179.2750  140.0550 C   0  0  2  0  0  3  0  0  0  0  0  0
  181.2140  178.7190  140.3380 C   0  0  1  0  0  3  0  0  0  0  0  0
  181.1930  180.4980  138.8030 C   0  0  1  0  0  3  0  0  0  0  0  0
  182.5470  180.1710  138.9700 O   0  0  0  0  0  0  0  0  0  0  0  0
  180.7160  179.1290  141.7290 C   0  0  0  0  0  0  0  0  0  0  0  0
  180.0570  180.3410  141.6580 F   0  0  0  0  0  0  0  0  0  0  0  0
  181.7980  179.2650  142.5800 F   0  0  0  0  0  0  0  0  0  0  0  0
  179.8510  178.1790  142.2440 F   0  0  0  0  0  0  0  0  0  0  0  0
  180.8940  180.8080  137.3450 C   0  0  0  0  0  2  0  0  0  0  0  0
  180.8140  182.3080  137.1160 C   0  0  0  0  0  2  0  0  0  0  0  0
  180.4630  182.5830  135.7330 N   0  0  0  0  0  2  0  0  0  0  0  0
  181.2550  184.6300  136.7530 C   0  0  0  0  0  1  0  0  0  0  0  0
  180.8890  183.9410  135.4550 C   0  0  0  0  0  2  0  0  0  0  0  0
  187.8630  177.5050  141.2680 C   0  0  0  0  0  2  0  0  0  0  0  0
  188.2170  178.5380  142.3210 C   0  0  0  0  0  2  0  0  0  0  0  0
  189.2120  177.9350  143.3120 C   0  0  1  0  0  3  0  0  0  0  0  0
  188.1050  177.6230  146.7460 C   0  0  0  0  0  2  0  0  0  0  0  0
  188.5210  177.2320  144.4070 N   0  0  0  0  0  0  0  0  0  0  0  0
  187.1710  177.7710  144.5540 C   0  0  0  0  0  2  0  0  0  0  0  0
  189.1700  177.5680  145.6700 C   0  0  0  0  0  2  0  0  0  0  0  0
  186.7910  177.6310  146.0080 C   0  0  0  0  0  2  0  0  0  0  0  0
  190.1080  175.6990  143.0180 O   0  0  0  0  0  1  0  0  0  0  0  0
  190.1510  177.0080  142.5230 C   0  0  2  0  0  3  0  0  0  0  0  0
  191.5790  177.5330  142.5160 C   0  0  0  0  0  2  0  0  0  0  0  0
  192.2510  177.0620  141.3870 O   0  0  0  0  0  0  0  0  0  0  0  0
  191.5100  177.5440  140.3080 C   0  0  0  0  0  2  0  0  0  0  0  0
  191.5800  176.5510  139.1660 C   0  0  0  0  0  1  0  0  0  0  0  0
  1  8  1  1  0  0  0
  1  9  1  0  0  0  0
  2 28  1  0  0  0  0
  5  3  1  6  0  0  0
  5  2  1  0  0  0  0
  7  6  1  1  0  0  0
  7 15  1  0  0  0  0
  7 12  1  0  0  0  0
  8  7  1  0  0  0  0
  9  2  1  0  0  0  0
  9 12  1  1  0  0  0
 10 13  1  6  0  0  0
 10  1  1  0  0  0  0
 10  5  1  0  0  0  0
 11  3  1  0  0  0  0
 12  4  2  0  0  0  0
 13 11  1  0  0  0  0
 14 16  1  0  0  0  0
 15 18  1  6  0  0  0
 15 16  1  0  0  0  0
 16 19  1  1  0  0  0
 17 23  1  6  0  0  0
 17 18  1  0  0  0  0
 17 14  1  0  0  0  0
 19 22  1  0  0  0  0
 19 21  1  0  0  0  0
 20 19  1  0  0  0  0
 24 23  1  0  0  0  0
 25 24  1  0  0  0  0
 27 25  1  0  0  0  0
 27 26  1  0  0  0  0
 28 29  1  0  0  0  0
 30 29  1  6  0  0  0
 30 32  1  0  0  0  0
 32 33  1  0  0  0  0
 32 34  1  0  0  0  0
 33 35  1  0  0  0  0
 34 31  1  0  0  0  0
 35 31  1  0  0  0  0
 37 36  1  1  0  0  0
 37 30  1  0  0  0  0
 38 37  1  0  0  0  0
 39 38  1  0  0  0  0
 40 39  1  0  0  0  0
 41 40  1  0  0  0  0
M  END
>  <MODEL>
7

>  <REMARK>
 VINA RESULT:      -6.4      4.686      8.058
  Name = 
  14 active torsions:
  status: ('A' for Active; 'I' for Inactive)
    1  A    between atoms: C_2  and  C_30
    2  A    between atoms: C_2  and  C_37
    3  A    between atoms: N_3  and  C_35
    4  A    between atoms: C_4  and  O_14
    5  A    between atoms: C_4  and  C_39
    6  A    between atoms: C_9  and  C_16
    7  A    between atoms: C_9  and  C_35
    8  A    between atoms: C_12  and  C_23
    9  A    between atoms: O_14  and  C_15
   10  A    between atoms: C_16  and  N_20
   11  A    between atoms: C_16  and  C_39
   12  A    between atoms: C_18  and  C_19
   13  A    between atoms: C_25  and  N_27
   14  A    between atoms: N_27  and  C_37
                            x       y       z     vdW  Elec       q    Type
                         _______ _______ _______ _____ _____    ______ ____

>  <TORSDO>
F 14

$$$$
=
 OpenBabel11062415183D

 41 45  0  0  1  0  0  0  0  0999 V2000
  188.9630  177.5430  140.9100 C   0  0  1  0  0  3  0  0  0  0  0  0
  190.6800  177.5030  139.4740 N   0  0  0  0  0  0  0  0  0  0  0  0
  189.2580  178.4000  137.7650 N   0  0  0  0  0  2  0  0  0  0  0  0
  192.0510  176.8140  142.2110 O   0  0  0  0  0  0  0  0  0  0  0  0
  189.4670  177.2880  138.6830 C   0  0  2  0  0  3  0  0  0  0  0  0
  189.7510  175.1310  143.2180 C   0  0  0  0  0  1  0  0  0  0  0  0
  189.7020  176.6260  142.9270 C   0  0  2  0  0  0  0  0  0  0  0  0
  188.5180  176.9230  142.1150 N   0  0  0  0  0  2  0  0  0  0  0  0
  190.2530  177.6260  140.8230 C   0  0  2  0  0  3  0  0  0  0  0  0
  188.3750  177.3380  139.6330 N   0  0  2  0  0  0  0  0  0  0  0  0
  187.8970  178.7660  137.8610 N   0  0  0  0  0  2  0  0  0  0  0  0
  190.8260  177.0290  142.0140 C   0  0  0  0  0  0  0  0  0  0  0  0
  187.3870  178.2530  139.1300 C   0  0  0  0  0  2  0  0  0  0  0  0
  188.6950  176.8310  146.2850 C   0  0  0  0  0  2  0  0  0  0  0  0
  189.6790  177.4720  144.2140 C   0  0  2  0  0  3  0  0  0  0  0  0
  189.9360  176.6380  145.4690 C   0  0  1  0  0  3  0  0  0  0  0  0
  188.0970  178.0830  145.6960 C   0  0  1  0  0  3  0  0  0  0  0  0
  188.4420  178.1360  144.3370 O   0  0  0  0  0  0  0  0  0  0  0  0
  191.1760  177.1310  146.2260 C   0  0  0  0  0  0  0  0  0  0  0  0
  190.8280  177.5030  147.5110 F   0  0  0  0  0  0  0  0  0  0  0  0
  191.7020  178.2330  145.5750 F   0  0  0  0  0  0  0  0  0  0  0  0
  192.1400  176.1400  146.2930 F   0  0  0  0  0  0  0  0  0  0  0  0
  186.5860  178.0670  145.8640 C   0  0  0  0  0  2  0  0  0  0  0  0
  185.8920  178.2070  144.5190 C   0  0  0  0  0  2  0  0  0  0  0  0
  184.9260  179.2920  144.5670 N   0  0  0  0  0  2  0  0  0  0  0  0
  183.8890  178.6280  142.4840 C   0  0  0  0  0  1  0  0  0  0  0  0
  183.7000  178.7890  143.9780 C   0  0  0  0  0  2  0  0  0  0  0  0
  192.0050  177.0710  139.0540 C   0  0  0  0  0  2  0  0  0  0  0  0
  192.0160  176.7530  137.5700 C   0  0  0  0  0  2  0  0  0  0  0  0
  192.4310  175.2970  137.3640 C   0  0  1  0  0  3  0  0  0  0  0  0
  189.2140  173.8940  136.4650 C   0  0  0  0  0  2  0  0  0  0  0  0
  191.5150  174.6030  136.4400 N   0  0  0  0  0  0  0  0  0  0  0  0
  190.7180  175.5890  135.7150 C   0  0  0  0  0  2  0  0  0  0  0  0
  190.5290  173.8620  137.2180 C   0  0  0  0  0  2  0  0  0  0  0  0
  189.3900  174.9450  135.4000 C   0  0  0  0  0  2  0  0  0  0  0  0
  193.9840  174.6810  135.6040 O   0  0  0  0  0  1  0  0  0  0  0  0
  193.8830  175.2930  136.8580 C   0  0  2  0  0  3  0  0  0  0  0  0
  194.8190  174.6290  137.8570 C   0  0  0  0  0  2  0  0  0  0  0  0
  196.1460  174.8310  137.4690 O   0  0  0  0  0  0  0  0  0  0  0  0
  196.9000  174.4380  138.5740 C   0  0  0  0  0  2  0  0  0  0  0  0
  196.2000  174.8770  139.8440 C   0  0  0  0  0  1  0  0  0  0  0  0
  1  8  1  1  0  0  0
  2  9  1  0  0  0  0
  3 11  1  0  0  0  0
  5  3  1  6  0  0  0
  5  2  1  0  0  0  0
  5 10  1  0  0  0  0
  7  6  1  1  0  0  0
  7 15  1  0  0  0  0
  8  7  1  0  0  0  0
  9  1  1  0  0  0  0
  9 12  1  1  0  0  0
 10 13  1  6  0  0  0
 10  1  1  0  0  0  0
 11 13  1  0  0  0  0
 12  4  2  0  0  0  0
 12  7  1  0  0  0  0
 15 18  1  1  0  0  0
 15 16  1  0  0  0  0
 16 19  1  1  0  0  0
 16 14  1  0  0  0  0
 17 23  1  6  0  0  0
 17 14  1  0  0  0  0
 18 17  1  0  0  0  0
 19 22  1  0  0  0  0
 19 20  1  0  0  0  0
 21 19  1  0  0  0  0
 24 25  1  0  0  0  0
 24 23  1  0  0  0  0
 26 27  1  0  0  0  0
 27 25  1  0  0  0  0
 28  2  1  0  0  0  0
 29 28  1  0  0  0  0
 30 29  1  6  0  0  0
 31 34  1  0  0  0  0
 32 34  1  0  0  0  0
 32 30  1  0  0  0  0
 33 32  1  0  0  0  0
 35 33  1  0  0  0  0
 35 31  1  0  0  0  0
 37 36  1  6  0  0  0
 37 30  1  0  0  0  0
 37 38  1  0  0  0  0
 39 38  1  0  0  0  0
 39 40  1  0  0  0  0
 40 41  1  0  0  0  0
M  END
>  <MODEL>
8

>  <REMARK>
 VINA RESULT:      -6.4      2.321      3.433
  Name = 
  14 active torsions:
  status: ('A' for Active; 'I' for Inactive)
    1  A    between atoms: C_2  and  C_30
    2  A    between atoms: C_2  and  C_37
    3  A    between atoms: N_3  and  C_35
    4  A    between atoms: C_4  and  O_14
    5  A    between atoms: C_4  and  C_39
    6  A    between atoms: C_9  and  C_16
    7  A    between atoms: C_9  and  C_35
    8  A    between atoms: C_12  and  C_23
    9  A    between atoms: O_14  and  C_15
   10  A    between atoms: C_16  and  N_20
   11  A    between atoms: C_16  and  C_39
   12  A    between atoms: C_18  and  C_19
   13  A    between atoms: C_25  and  N_27
   14  A    between atoms: N_27  and  C_37
                            x       y       z     vdW  Elec       q    Type
                         _______ _______ _______ _____ _____    ______ ____

>  <TORSDO>
F 14

$$$$
=
 OpenBabel11062415183D

 41 45  0  0  1  0  0  0  0  0999 V2000
  185.4990  178.2360  138.7100 C   0  0  1  0  0  3  0  0  0  0  0  0
  186.7000  178.7320  140.5320 N   0  0  0  0  0  0  0  0  0  0  0  0
  188.6430  179.0250  139.1590 N   0  0  0  0  0  2  0  0  0  0  0  0
  183.7650  178.6550  141.6390 O   0  0  0  0  0  0  0  0  0  0  0  0
  187.6160  178.0870  139.5900 C   0  0  2  0  0  3  0  0  0  0  0  0
  182.9140  176.3260  139.9090 C   0  0  0  0  0  1  0  0  0  0  0  0
  183.3350  177.7030  139.4080 C   0  0  2  0  0  0  0  0  0  0  0  0
  184.3110  177.5470  138.3250 N   0  0  0  0  0  2  0  0  0  0  0  0
  185.4310  178.7520  139.8970 C   0  0  2  0  0  3  0  0  0  0  0  0
  186.8170  177.7960  138.4160 N   0  0  2  0  0  0  0  0  0  0  0  0
  188.7490  178.9080  137.7550 N   0  0  0  0  0  2  0  0  0  0  0  0
  184.1310  178.4310  140.4550 C   0  0  0  0  0  0  0  0  0  0  0  0
  187.5150  178.2990  137.2660 C   0  0  0  0  0  2  0  0  0  0  0  0
  180.6630  179.8040  140.2920 C   0  0  0  0  0  2  0  0  0  0  0  0
  182.1370  178.5370  138.9170 C   0  0  2  0  0  3  0  0  0  0  0  0
  182.0140  179.8740  139.6470 C   0  0  1  0  0  3  0  0  0  0  0  0
  179.9710  178.7230  139.5030 C   0  0  1  0  0  3  0  0  0  0  0  0
  180.9410  177.8070  139.0680 O   0  0  0  0  0  0  0  0  0  0  0  0
  182.0990  181.0560  138.6740 C   0  0  0  0  0  0  0  0  0  0  0  0
  181.8040  180.6350  137.3910 F   0  0  0  0  0  0  0  0  0  0  0  0
  183.3840  181.5670  138.6850 F   0  0  0  0  0  0  0  0  0  0  0  0
  181.2100  182.0560  139.0310 F   0  0  0  0  0  0  0  0  0  0  0  0
  178.9330  178.0280  140.3710 C   0  0  0  0  0  2  0  0  0  0  0  0
  178.9560  178.5800  141.7870 C   0  0  0  0  0  2  0  0  0  0  0  0
  179.4770  177.5790  142.7030 N   0  0  0  0  0  2  0  0  0  0  0  0
  179.0020  179.3070  144.3290 C   0  0  0  0  0  1  0  0  0  0  0  0
  180.0180  178.2950  143.8420 C   0  0  0  0  0  2  0  0  0  0  0  0
  186.9130  178.7630  141.9720 C   0  0  0  0  0  2  0  0  0  0  0  0
  186.9520  177.3540  142.5350 C   0  0  0  0  0  2  0  0  0  0  0  0
  188.2030  177.1820  143.3940 C   0  0  1  0  0  3  0  0  0  0  0  0
  191.6220  178.3760  143.4690 C   0  0  0  0  0  2  0  0  0  0  0  0
  189.3530  177.9020  142.8180 N   0  0  0  0  0  0  0  0  0  0  0  0
  190.2360  176.9500  142.1490 C   0  0  0  0  0  2  0  0  0  0  0  0
  190.1720  178.4340  143.9030 C   0  0  0  0  0  2  0  0  0  0  0  0
  191.6390  177.5000  142.2430 C   0  0  0  0  0  2  0  0  0  0  0  0
  188.6850  177.0550  145.7690 O   0  0  0  0  0  1  0  0  0  0  0  0
  187.8650  177.6650  144.8140 C   0  0  2  0  0  3  0  0  0  0  0  0
  186.3970  177.4410  145.1440 C   0  0  0  0  0  2  0  0  0  0  0  0
  185.9500  178.4360  146.0160 O   0  0  0  0  0  0  0  0  0  0  0  0
  185.2980  179.3570  145.1960 C   0  0  0  0  0  2  0  0  0  0  0  0
  183.8280  179.0030  145.1100 C   0  0  0  0  0  1  0  0  0  0  0  0
  1  8  1  1  0  0  0
  1  9  1  0  0  0  0
  2 28  1  0  0  0  0
  5  3  1  6  0  0  0
  5  2  1  0  0  0  0
  7  6  1  1  0  0  0
  7 12  1  0  0  0  0
  8  7  1  0  0  0  0
  9 12  1  1  0  0  0
  9  2  1  0  0  0  0
 10 13  1  6  0  0  0
 10  1  1  0  0  0  0
 10  5  1  0  0  0  0
 11  3  1  0  0  0  0
 12  4  2  0  0  0  0
 13 11  1  0  0  0  0
 15 18  1  1  0  0  0
 15  7  1  0  0  0  0
 15 16  1  0  0  0  0
 16 19  1  6  0  0  0
 16 14  1  0  0  0  0
 17 14  1  0  0  0  0
 17 23  1  1  0  0  0
 18 17  1  0  0  0  0
 19 21  1  0  0  0  0
 19 22  1  0  0  0  0
 20 19  1  0  0  0  0
 23 24  1  0  0  0  0
 24 25  1  0  0  0  0
 25 27  1  0  0  0  0
 27 26  1  0  0  0  0
 28 29  1  0  0  0  0
 30 29  1  6  0  0  0
 30 37  1  0  0  0  0
 31 34  1  0  0  0  0
 32 30  1  0  0  0  0
 32 34  1  0  0  0  0
 33 35  1  0  0  0  0
 33 32  1  0  0  0  0
 35 31  1  0  0  0  0
 37 38  1  0  0  0  0
 37 36  1  1  0  0  0
 38 39  1  0  0  0  0
 40 39  1  0  0  0  0
 41 40  1  0  0  0  0
M  END
>  <MODEL>
9

>  <REMARK>
 VINA RESULT:      -6.3      4.484      8.178
  Name = 
  14 active torsions:
  status: ('A' for Active; 'I' for Inactive)
    1  A    between atoms: C_2  and  C_30
    2  A    between atoms: C_2  and  C_37
    3  A    between atoms: N_3  and  C_35
    4  A    between atoms: C_4  and  O_14
    5  A    between atoms: C_4  and  C_39
    6  A    between atoms: C_9  and  C_16
    7  A    between atoms: C_9  and  C_35
    8  A    between atoms: C_12  and  C_23
    9  A    between atoms: O_14  and  C_15
   10  A    between atoms: C_16  and  N_20
   11  A    between atoms: C_16  and  C_39
   12  A    between atoms: C_18  and  C_19
   13  A    between atoms: C_25  and  N_27
   14  A    between atoms: N_27  and  C_37
                            x       y       z     vdW  Elec       q    Type
                         _______ _______ _______ _____ _____    ______ ____

>  <TORSDO>
F 14

$$$$
