=
 OpenBabel11062412513D

 50 53  0  0  1  0  0  0  0  0999 V2000
  190.3520  175.9970  140.3370 O   0  0  0  0  0  1  0  0  0  0  0  0
  190.4220  177.3920  140.3020 C   0  0  1  0  0  3  0  0  0  0  0  0
  189.6050  177.8620  139.2720 O   0  0  0  0  0  0  0  0  0  0  0  0
  189.1990  176.7090  138.5910 C   0  0  0  0  0  2  0  0  0  0  0  0
  190.1060  176.9010  136.2520 C   0  0  0  0  0  2  0  0  0  0  0  0
  190.1550  174.3810  136.6800 C   0  0  2  0  0  3  0  0  0  0  0  0
  186.8030  178.3780  137.2200 C   0  0  0  0  0  2  0  0  0  0  0  0
  186.4410  176.9010  137.2230 C   0  0  2  0  0  3  0  0  0  0  0  0
  188.7440  173.8500  136.4680 C   0  0  0  0  0  2  0  0  0  0  0  0
  190.4200  175.5080  135.6920 C   0  0  0  0  0  2  0  0  0  0  0  0
  188.8410  177.0190  137.1260 C   0  0  2  0  0  0  0  0  0  0  0  0
  187.6830  174.7160  137.1490 C   0  0  0  0  0  2  0  0  0  0  0  0
  188.3180  178.4490  137.0650 C   0  0  0  0  0  2  0  0  0  0  0  0
  187.6460  176.1660  136.6370 C   0  0  1  0  0  0  0  0  0  0  0  0
  191.0670  173.3520  136.4480 O   0  0  0  0  0  1  0  0  0  0  0  0
  187.5720  176.1780  135.2360 O   0  0  0  0  0  1  0  0  0  0  0  0
  185.1390  176.6270  136.5340 C   0  0  0  0  0  0  0  0  0  0  0  0
  184.2950  175.5540  136.9780 N   0  0  0  0  0  2  0  0  0  0  0  0
  184.7850  177.3660  135.5760 O   0  0  0  0  0  0  0  0  0  0  0  0
  182.9970  175.2220  136.4000 C   0  0  0  0  0  0  0  0  0  0  0  0
  182.0670  176.4280  136.4410 C   0  0  0  0  0  2  0  0  0  0  0  0
  181.2970  174.8380  138.0800 C   0  0  0  0  0  2  0  0  0  0  0  0
  182.3400  174.1400  137.2370 C   0  0  0  0  0  2  0  0  0  0  0  0
  180.8560  176.0250  137.2560 C   0  0  0  0  0  2  0  0  0  0  0  0
  183.1600  174.7220  134.9740 C   0  0  0  0  0  1  0  0  0  0  0  0
  189.9750  177.9720  141.6520 C   0  0  1  0  0  3  0  0  0  0  0  0
  187.6260  176.0870  143.5670 O   0  0  0  0  0  0  0  0  0  0  0  0
  188.5020  177.7790  141.8800 C   0  0  0  0  0  0  0  0  0  0  0  0
  187.5380  178.6030  141.1070 C   0  0  0  0  0  1  0  0  0  0  0  0
  188.0510  176.9100  142.7450 C   0  0  0  0  0  0  0  0  0  0  0  0
  190.9330  177.3060  143.0160 S   0  0  0  0  0  0  0  0  0  0  0  0
  192.3970  177.4120  142.6940 O   0  0  0  0  0  0  0  0  0  0  0  0
  190.5720  175.8640  143.2350 O   0  0  0  0  0  0  0  0  0  0  0  0
  190.5980  178.2340  144.5030 C   0  0  0  0  0  2  0  0  0  0  0  0
  191.7320  176.7730  146.0650 C   0  0  0  0  0  3  0  0  0  0  0  0
  191.8820  175.7750  147.1630 C   0  0  0  0  0  1  0  0  0  0  0  0
  190.5780  177.3340  145.6890 C   0  0  0  0  0  0  0  0  0  0  0  0
  189.3130  177.0450  146.3050 N   0  0  0  0  0  2  0  0  0  0  0  0
  188.8160  177.9130  148.5100 C   0  0  0  0  0  1  0  0  0  0  0  0
  188.4880  177.9990  147.0320 C   0  0  2  0  0  3  0  0  0  0  0  0
  186.2160  178.7110  147.3060 O   0  0  0  0  0  0  0  0  0  0  0  0
  187.0210  177.6610  146.8250 C   0  0  1  0  0  3  0  0  0  0  0  0
  186.4010  178.6460  145.9130 C   0  0  1  0  0  3  0  0  0  0  0  0
  185.1740  178.0370  145.2620 C   0  0  0  0  0  2  0  0  0  0  0  0
  184.3560  179.1180  144.5690 C   0  0  2  0  0  3  0  0  0  0  0  0
  183.0960  179.2200  145.1670 O   0  0  0  0  0  1  0  0  0  0  0  0
  184.7600  177.5890  142.7870 F   0  0  0  0  0  0  0  0  0  0  0  0
  182.8690  178.8210  142.7200 F   0  0  0  0  0  0  0  0  0  0  0  0
  184.2070  178.8240  143.0800 C   0  0  0  0  0  0  0  0  0  0  0  0
  184.8710  179.7920  142.3490 F   0  0  0  0  0  0  0  0  0  0  0  0
  2  1  1  1  0  0  0
  2 26  1  0  0  0  0
  3  2  1  0  0  0  0
  4  3  1  0  0  0  0
  5 11  1  0  0  0  0
  6 15  1  6  0  0  0
  7  8  1  0  0  0  0
  8 17  1  6  0  0  0
  9  6  1  0  0  0  0
  9 12  1  0  0  0  0
 10  5  1  0  0  0  0
 10  6  1  0  0  0  0
 11  4  1  1  0  0  0
 13 11  1  0  0  0  0
 13  7  1  0  0  0  0
 14 16  1  6  0  0  0
 14 11  1  0  0  0  0
 14 12  1  0  0  0  0
 14  8  1  0  0  0  0
 17 18  1  0  0  0  0
 19 17  2  0  0  0  0
 20 21  1  0  0  0  0
 20 18  1  0  0  0  0
 20 23  1  0  0  0  0
 21 24  1  0  0  0  0
 23 22  1  0  0  0  0
 24 22  1  0  0  0  0
 25 20  1  0  0  0  0
 26 28  1  1  0  0  0
 26 31  1  0  0  0  0
 28 30  2  0  0  0  0
 29 28  1  0  0  0  0
 30 27  2  0  0  0  0
 31 33  2  0  0  0  0
 31 34  1  0  0  0  0
 32 31  2  0  0  0  0
 34 37  1  0  0  0  0
 35 36  1  0  0  0  0
 37 35  2  0  0  0  0
 37 38  1  0  0  0  0
 38 40  1  0  0  0  0
 40 39  1  1  0  0  0
 42 40  1  1  0  0  0
 42 41  1  0  0  0  0
 43 44  1  6  0  0  0
 43 42  1  0  0  0  0
 43 41  1  0  0  0  0
 45 46  1  1  0  0  0
 45 44  1  0  0  0  0
 47 49  1  0  0  0  0
 48 49  1  0  0  0  0
 49 45  1  0  0  0  0
 50 49  1  0  0  0  0
M  END
>  <MODEL>
1

>  <REMARK>
 VINA RESULT:      -8.0      0.000      0.000
  Name = 
  16 active torsions:
  status: ('A' for Active; 'I' for Inactive)
    1  A    between atoms: C_2  and  C_8
    2  A    between atoms: S_7  and  C_17
    3  A    between atoms: S_7  and  C_48
    4  A    between atoms: N_9  and  C_12
    5  A    between atoms: C_10  and  C_20
    6  A    between atoms: C_10  and  O_23
    7  A    between atoms: C_14  and  C_38
    8  A    between atoms: C_15  and  C_17
    9  A    between atoms: C_15  and  O_23
   10  A    between atoms: C_17  and  C_34
   11  A    between atoms: C_18  and  C_29
   12  A    between atoms: C_18  and  C_44
   13  A    between atoms: C_29  and  C_45
   14  A    between atoms: C_38  and  N_40
   15  A    between atoms: N_40  and  C_42
   16  A    between atoms: C_42  and  C_48
                            x       y       z     vdW  Elec       q    Type
                         _______ _______ _______ _____ _____    ______ ____

>  <TORSDO>
F 16

$$$$
=
 OpenBabel11062412513D

 50 53  0  0  1  0  0  0  0  0999 V2000
  190.3830  175.9790  140.5870 O   0  0  0  0  0  1  0  0  0  0  0  0
  190.5670  177.3620  140.5270 C   0  0  1  0  0  3  0  0  0  0  0  0
  189.9220  177.8580  139.3920 O   0  0  0  0  0  0  0  0  0  0  0  0
  189.4430  176.7190  138.7340 C   0  0  0  0  0  2  0  0  0  0  0  0
  190.4070  176.8910  136.4160 C   0  0  0  0  0  2  0  0  0  0  0  0
  190.4440  174.3740  136.8670 C   0  0  2  0  0  3  0  0  0  0  0  0
  187.0830  178.3780  137.2910 C   0  0  0  0  0  2  0  0  0  0  0  0
  186.7200  176.9010  137.2980 C   0  0  2  0  0  3  0  0  0  0  0  0
  189.0380  173.8420  136.6250 C   0  0  0  0  0  2  0  0  0  0  0  0
  190.7340  175.4930  135.8770 C   0  0  0  0  0  2  0  0  0  0  0  0
  189.1220  177.0170  137.2580 C   0  0  2  0  0  0  0  0  0  0  0  0
  187.9610  174.7140  137.2720 C   0  0  0  0  0  2  0  0  0  0  0  0
  188.6010  178.4470  137.1730 C   0  0  0  0  0  2  0  0  0  0  0  0
  187.9380  176.1600  136.7480 C   0  0  1  0  0  0  0  0  0  0  0  0
  191.3610  173.3430  136.6660 O   0  0  0  0  0  1  0  0  0  0  0  0
  187.8980  176.1600  135.3450 O   0  0  0  0  0  1  0  0  0  0  0  0
  185.4340  176.6220  136.5790 C   0  0  0  0  0  0  0  0  0  0  0  0
  184.5980  175.5290  136.9880 N   0  0  0  0  0  2  0  0  0  0  0  0
  185.0880  177.3740  135.6290 O   0  0  0  0  0  0  0  0  0  0  0  0
  183.3160  175.1900  136.3790 C   0  0  0  0  0  0  0  0  0  0  0  0
  182.6380  174.0640  137.1500 C   0  0  0  0  0  2  0  0  0  0  0  0
  183.4190  173.1650  135.0550 C   0  0  0  0  0  2  0  0  0  0  0  0
  183.5540  174.6690  134.9740 C   0  0  0  0  0  2  0  0  0  0  0  0
  182.4400  172.9190  136.1790 C   0  0  0  0  0  2  0  0  0  0  0  0
  182.4150  176.4110  136.3140 C   0  0  0  0  0  1  0  0  0  0  0  0
  190.0070  178.0210  141.7960 C   0  0  1  0  0  3  0  0  0  0  0  0
  187.7710  175.7550  143.4100 O   0  0  0  0  0  0  0  0  0  0  0  0
  188.5480  177.7150  141.9850 C   0  0  0  0  0  0  0  0  0  0  0  0
  187.5380  178.5840  141.3290 C   0  0  0  0  0  1  0  0  0  0  0  0
  188.1480  176.7080  142.7150 C   0  0  0  0  0  0  0  0  0  0  0  0
  190.9550  177.5760  143.2540 S   0  0  0  0  0  0  0  0  0  0  0  0
  192.3340  178.1650  143.1500 O   0  0  0  0  0  0  0  0  0  0  0  0
  191.0570  176.0800  143.3580 O   0  0  0  0  0  0  0  0  0  0  0  0
  190.1580  178.2180  144.7160 C   0  0  0  0  0  2  0  0  0  0  0  0
  191.6520  176.8430  146.0350 C   0  0  0  0  0  3  0  0  0  0  0  0
  192.0660  175.8690  147.0860 C   0  0  0  0  0  1  0  0  0  0  0  0
  190.4160  177.3330  145.8860 C   0  0  0  0  0  0  0  0  0  0  0  0
  189.3110  176.9820  146.7320 N   0  0  0  0  0  2  0  0  0  0  0  0
  188.2440  177.8280  148.7340 C   0  0  0  0  0  1  0  0  0  0  0  0
  188.2930  177.9010  147.2210 C   0  0  2  0  0  3  0  0  0  0  0  0
  185.9560  178.4140  147.0870 O   0  0  0  0  0  0  0  0  0  0  0  0
  186.9400  177.5030  146.6570 C   0  0  1  0  0  3  0  0  0  0  0  0
  186.4280  178.5720  145.7720 C   0  0  1  0  0  3  0  0  0  0  0  0
  185.4260  177.9880  144.7950 C   0  0  0  0  0  2  0  0  0  0  0  0
  184.5050  179.0820  144.2710 C   0  0  2  0  0  3  0  0  0  0  0  0
  183.3760  179.1890  145.0880 O   0  0  0  0  0  1  0  0  0  0  0  0
  184.6230  179.7640  141.9910 F   0  0  0  0  0  0  0  0  0  0  0  0
  184.5260  177.5520  142.4340 F   0  0  0  0  0  0  0  0  0  0  0  0
  184.0850  178.8040  142.8310 C   0  0  0  0  0  0  0  0  0  0  0  0
  182.7070  178.8520  142.7350 F   0  0  0  0  0  0  0  0  0  0  0  0
  2  1  1  1  0  0  0
  2 26  1  0  0  0  0
  3  2  1  0  0  0  0
  4  3  1  0  0  0  0
  5 11  1  0  0  0  0
  6 15  1  6  0  0  0
  7  8  1  0  0  0  0
  8 17  1  6  0  0  0
  9  6  1  0  0  0  0
  9 12  1  0  0  0  0
 10  5  1  0  0  0  0
 10  6  1  0  0  0  0
 11  4  1  1  0  0  0
 13 11  1  0  0  0  0
 13  7  1  0  0  0  0
 14 16  1  6  0  0  0
 14 11  1  0  0  0  0
 14 12  1  0  0  0  0
 14  8  1  0  0  0  0
 17 18  1  0  0  0  0
 19 17  2  0  0  0  0
 20 18  1  0  0  0  0
 20 21  1  0  0  0  0
 22 24  1  0  0  0  0
 23 22  1  0  0  0  0
 23 20  1  0  0  0  0
 24 21  1  0  0  0  0
 25 20  1  0  0  0  0
 26 28  1  1  0  0  0
 26 31  1  0  0  0  0
 28 30  2  0  0  0  0
 29 28  1  0  0  0  0
 30 27  2  0  0  0  0
 31 33  2  0  0  0  0
 31 34  1  0  0  0  0
 32 31  2  0  0  0  0
 34 37  1  0  0  0  0
 35 36  1  0  0  0  0
 37 35  2  0  0  0  0
 37 38  1  0  0  0  0
 38 40  1  0  0  0  0
 40 39  1  1  0  0  0
 42 41  1  0  0  0  0
 42 40  1  1  0  0  0
 43 44  1  6  0  0  0
 43 42  1  0  0  0  0
 43 41  1  0  0  0  0
 45 44  1  0  0  0  0
 45 46  1  1  0  0  0
 47 49  1  0  0  0  0
 48 49  1  0  0  0  0
 49 45  1  0  0  0  0
 50 49  1  0  0  0  0
M  END
>  <MODEL>
2

>  <REMARK>
 VINA RESULT:      -7.9      0.508      1.176
  Name = 
  16 active torsions:
  status: ('A' for Active; 'I' for Inactive)
    1  A    between atoms: C_2  and  C_8
    2  A    between atoms: S_7  and  C_17
    3  A    between atoms: S_7  and  C_48
    4  A    between atoms: N_9  and  C_12
    5  A    between atoms: C_10  and  C_20
    6  A    between atoms: C_10  and  O_23
    7  A    between atoms: C_14  and  C_38
    8  A    between atoms: C_15  and  C_17
    9  A    between atoms: C_15  and  O_23
   10  A    between atoms: C_17  and  C_34
   11  A    between atoms: C_18  and  C_29
   12  A    between atoms: C_18  and  C_44
   13  A    between atoms: C_29  and  C_45
   14  A    between atoms: C_38  and  N_40
   15  A    between atoms: N_40  and  C_42
   16  A    between atoms: C_42  and  C_48
                            x       y       z     vdW  Elec       q    Type
                         _______ _______ _______ _____ _____    ______ ____

>  <TORSDO>
F 16

$$$$
=
 OpenBabel11062412513D

 50 53  0  0  1  0  0  0  0  0999 V2000
  191.5850  176.6410  139.9770 O   0  0  0  0  0  1  0  0  0  0  0  0
  190.5080  177.2670  140.6100 C   0  0  1  0  0  3  0  0  0  0  0  0
  189.3960  177.2210  139.7670 O   0  0  0  0  0  0  0  0  0  0  0  0
  189.6760  176.1840  138.8720 C   0  0  0  0  0  2  0  0  0  0  0  0
  190.4880  176.9470  136.6150 C   0  0  0  0  0  2  0  0  0  0  0  0
  191.3370  174.5390  136.7440 C   0  0  2  0  0  3  0  0  0  0  0  0
  186.8810  177.1700  137.6000 C   0  0  0  0  0  2  0  0  0  0  0  0
  187.0100  175.6660  137.4120 C   0  0  2  0  0  3  0  0  0  0  0  0
  190.1700  173.6200  136.4060 C   0  0  0  0  0  2  0  0  0  0  0  0
  191.2330  175.8070  135.9100 C   0  0  0  0  0  2  0  0  0  0  0  0
  189.2470  176.5480  137.4380 C   0  0  2  0  0  0  0  0  0  0  0  0
  188.8840  174.0130  137.1360 C   0  0  0  0  0  2  0  0  0  0  0  0
  188.2950  177.7350  137.5240 C   0  0  0  0  0  2  0  0  0  0  0  0
  188.3890  175.4300  136.7990 C   0  0  1  0  0  0  0  0  0  0  0  0
  192.5310  173.8880  136.4340 O   0  0  0  0  0  1  0  0  0  0  0  0
  188.3230  175.5950  135.4060 O   0  0  0  0  0  1  0  0  0  0  0  0
  185.8660  175.0850  136.6360 C   0  0  0  0  0  0  0  0  0  0  0  0
  185.2950  173.8250  137.0210 N   0  0  0  0  0  2  0  0  0  0  0  0
  185.4000  175.7270  135.6570 O   0  0  0  0  0  0  0  0  0  0  0  0
  184.1640  173.1860  136.3560 C   0  0  0  0  0  0  0  0  0  0  0  0
  183.7810  171.8960  137.0720 C   0  0  0  0  0  2  0  0  0  0  0  0
  184.8300  171.3060  134.9840 C   0  0  0  0  0  2  0  0  0  0  0  0
  184.5700  172.7950  134.9480 C   0  0  0  0  0  2  0  0  0  0  0  0
  183.9170  170.7740  136.0640 C   0  0  0  0  0  2  0  0  0  0  0  0
  182.9780  174.1320  136.2920 C   0  0  0  0  0  1  0  0  0  0  0  0
  190.2050  176.5670  141.9420 C   0  0  1  0  0  3  0  0  0  0  0  0
  192.1730  174.8210  144.3540 O   0  0  0  0  0  0  0  0  0  0  0  0
  191.3170  176.7530  142.9360 C   0  0  0  0  0  0  0  0  0  0  0  0
  191.9330  178.0960  143.0860 C   0  0  0  0  0  1  0  0  0  0  0  0
  191.7570  175.7620  143.6650 C   0  0  0  0  0  0  0  0  0  0  0  0
  188.6310  177.0900  142.6290 S   0  0  0  0  0  0  0  0  0  0  0  0
  187.9010  175.8910  143.1690 O   0  0  0  0  0  0  0  0  0  0  0  0
  187.8000  177.7410  141.5600 O   0  0  0  0  0  0  0  0  0  0  0  0
  188.9030  178.2500  143.9580 C   0  0  0  0  0  2  0  0  0  0  0  0
  189.0870  177.3630  146.2030 C   0  0  0  0  0  3  0  0  0  0  0  0
  188.6370  176.7580  147.4900 C   0  0  0  0  0  1  0  0  0  0  0  0
  188.2760  177.7610  145.2170 C   0  0  0  0  0  0  0  0  0  0  0  0
  186.8450  177.6580  145.2710 N   0  0  0  0  0  2  0  0  0  0  0  0
  185.4480  179.0050  146.7170 C   0  0  0  0  0  1  0  0  0  0  0  0
  185.9150  178.7780  145.2930 C   0  0  2  0  0  3  0  0  0  0  0  0
  184.0760  179.6510  144.0290 O   0  0  0  0  0  0  0  0  0  0  0  0
  184.7150  178.4580  144.4180 C   0  0  1  0  0  3  0  0  0  0  0  0
  184.9040  179.0390  143.0720 C   0  0  1  0  0  3  0  0  0  0  0  0
  184.0540  178.2840  142.0670 C   0  0  0  0  0  2  0  0  0  0  0  0
  184.6200  178.4580  140.6640 C   0  0  2  0  0  3  0  0  0  0  0  0
  185.2090  179.7200  140.5400 O   0  0  0  0  0  1  0  0  0  0  0  0
  183.3190  176.9320  139.3760 F   0  0  0  0  0  0  0  0  0  0  0  0
  182.3500  178.8640  140.0300 F   0  0  0  0  0  0  0  0  0  0  0  0
  183.5340  178.2810  139.6080 C   0  0  0  0  0  0  0  0  0  0  0  0
  183.9370  178.8750  138.4270 F   0  0  0  0  0  0  0  0  0  0  0  0
  2  1  1  6  0  0  0
  2 26  1  0  0  0  0
  3  2  1  0  0  0  0
  4  3  1  0  0  0  0
  5 11  1  0  0  0  0
  6 15  1  6  0  0  0
  8 17  1  6  0  0  0
  8  7  1  0  0  0  0
  9  6  1  0  0  0  0
  9 12  1  0  0  0  0
 10  5  1  0  0  0  0
 10  6  1  0  0  0  0
 11 13  1  0  0  0  0
 11  4  1  1  0  0  0
 13  7  1  0  0  0  0
 14 16  1  6  0  0  0
 14 12  1  0  0  0  0
 14  8  1  0  0  0  0
 14 11  1  0  0  0  0
 17 18  1  0  0  0  0
 19 17  2  0  0  0  0
 20 18  1  0  0  0  0
 20 21  1  0  0  0  0
 22 24  1  0  0  0  0
 23 22  1  0  0  0  0
 23 20  1  0  0  0  0
 24 21  1  0  0  0  0
 25 20  1  0  0  0  0
 26 31  1  0  0  0  0
 26 28  1  1  0  0  0
 28 29  1  0  0  0  0
 28 30  2  0  0  0  0
 30 27  2  0  0  0  0
 31 32  2  0  0  0  0
 31 34  1  0  0  0  0
 33 31  2  0  0  0  0
 34 37  1  0  0  0  0
 35 36  1  0  0  0  0
 37 38  1  0  0  0  0
 37 35  2  0  0  0  0
 38 40  1  0  0  0  0
 40 39  1  1  0  0  0
 41 42  1  0  0  0  0
 42 40  1  1  0  0  0
 43 44  1  6  0  0  0
 43 41  1  0  0  0  0
 43 42  1  0  0  0  0
 45 46  1  1  0  0  0
 45 44  1  0  0  0  0
 47 49  1  0  0  0  0
 49 48  1  0  0  0  0
 49 45  1  0  0  0  0
 50 49  1  0  0  0  0
M  END
>  <MODEL>
3

>  <REMARK>
 VINA RESULT:      -7.6      2.073      3.056
  Name = 
  16 active torsions:
  status: ('A' for Active; 'I' for Inactive)
    1  A    between atoms: C_2  and  C_8
    2  A    between atoms: S_7  and  C_17
    3  A    between atoms: S_7  and  C_48
    4  A    between atoms: N_9  and  C_12
    5  A    between atoms: C_10  and  C_20
    6  A    between atoms: C_10  and  O_23
    7  A    between atoms: C_14  and  C_38
    8  A    between atoms: C_15  and  C_17
    9  A    between atoms: C_15  and  O_23
   10  A    between atoms: C_17  and  C_34
   11  A    between atoms: C_18  and  C_29
   12  A    between atoms: C_18  and  C_44
   13  A    between atoms: C_29  and  C_45
   14  A    between atoms: C_38  and  N_40
   15  A    between atoms: N_40  and  C_42
   16  A    between atoms: C_42  and  C_48
                            x       y       z     vdW  Elec       q    Type
                         _______ _______ _______ _____ _____    ______ ____

>  <TORSDO>
F 16

$$$$
=
 OpenBabel11062412513D

 50 53  0  0  1  0  0  0  0  0999 V2000
  190.9690  177.3730  140.0350 O   0  0  0  0  0  1  0  0  0  0  0  0
  189.7340  177.7880  140.5400 C   0  0  1  0  0  3  0  0  0  0  0  0
  188.7310  177.4320  139.6370 O   0  0  0  0  0  0  0  0  0  0  0  0
  189.3750  176.6180  138.6980 C   0  0  0  0  0  2  0  0  0  0  0  0
  190.1680  176.8100  136.3170 C   0  0  0  0  0  2  0  0  0  0  0  0
  190.0870  174.2820  136.6910 C   0  0  2  0  0  3  0  0  0  0  0  0
  187.0160  178.4580  137.4920 C   0  0  0  0  0  2  0  0  0  0  0  0
  186.5660  177.0050  137.4860 C   0  0  2  0  0  3  0  0  0  0  0  0
  188.6370  173.8410  136.5460 C   0  0  0  0  0  2  0  0  0  0  0  0
  190.3670  175.4140  135.7140 C   0  0  0  0  0  2  0  0  0  0  0  0
  188.9600  176.9830  137.2610 C   0  0  2  0  0  0  0  0  0  0  0  0
  187.6680  174.7520  137.3000 C   0  0  0  0  0  2  0  0  0  0  0  0
  188.5220  178.4420  137.2570 C   0  0  0  0  0  2  0  0  0  0  0  0
  187.6910  176.2140  136.8210 C   0  0  1  0  0  0  0  0  0  0  0  0
  190.9220  173.2060  136.3900 O   0  0  0  0  0  1  0  0  0  0  0  0
  187.5440  176.2620  135.4260 O   0  0  0  0  0  1  0  0  0  0  0  0
  185.2150  176.8250  136.8620 C   0  0  0  0  0  0  0  0  0  0  0  0
  184.2190  176.0200  137.5110 N   0  0  0  0  0  2  0  0  0  0  0  0
  184.9580  177.4080  135.7750 O   0  0  0  0  0  0  0  0  0  0  0  0
  182.8660  175.8040  137.0080 C   0  0  0  0  0  0  0  0  0  0  0  0
  182.1080  177.1230  136.9260 C   0  0  0  0  0  2  0  0  0  0  0  0
  181.1980  175.8560  138.7630 C   0  0  0  0  0  2  0  0  0  0  0  0
  182.1040  174.9280  137.9860 C   0  0  0  0  0  2  0  0  0  0  0  0
  180.8880  176.9890  137.8130 C   0  0  0  0  0  2  0  0  0  0  0  0
  182.9020  175.1240  135.6500 C   0  0  0  0  0  1  0  0  0  0  0  0
  189.4830  177.1370  141.9080 C   0  0  1  0  0  3  0  0  0  0  0  0
  191.7730  175.2220  143.8650 O   0  0  0  0  0  0  0  0  0  0  0  0
  190.6770  177.2640  142.8120 C   0  0  0  0  0  0  0  0  0  0  0  0
  191.2320  178.6130  143.0910 C   0  0  0  0  0  1  0  0  0  0  0  0
  191.2400  176.2160  143.3540 C   0  0  0  0  0  0  0  0  0  0  0  0
  188.0060  177.7840  142.6950 S   0  0  0  0  0  0  0  0  0  0  0  0
  188.3990  178.6030  143.8930 O   0  0  0  0  0  0  0  0  0  0  0  0
  187.1240  176.6490  143.1340 O   0  0  0  0  0  0  0  0  0  0  0  0
  187.1120  178.8220  141.5510 C   0  0  0  0  0  2  0  0  0  0  0  0
  184.8960  178.1450  140.8490 C   0  0  0  0  0  3  0  0  0  0  0  0
  183.4080  178.0490  140.8760 C   0  0  0  0  0  1  0  0  0  0  0  0
  185.6460  178.7260  141.7920 C   0  0  0  0  0  0  0  0  0  0  0  0
  185.1060  179.3400  142.9730 N   0  0  0  0  0  2  0  0  0  0  0  0
  183.1100  178.8650  144.2570 C   0  0  0  0  0  1  0  0  0  0  0  0
  184.6030  178.6320  144.1410 C   0  0  2  0  0  3  0  0  0  0  0  0
  184.6360  178.6760  146.5370 O   0  0  0  0  0  0  0  0  0  0  0  0
  185.2910  179.1610  145.3880 C   0  0  1  0  0  3  0  0  0  0  0  0
  185.8350  178.0360  146.1790 C   0  0  1  0  0  3  0  0  0  0  0  0
  186.9630  178.5330  147.0630 C   0  0  0  0  0  2  0  0  0  0  0  0
  187.7350  177.3540  147.6410 C   0  0  2  0  0  3  0  0  0  0  0  0
  187.9700  177.5610  149.0040 O   0  0  0  0  0  1  0  0  0  0  0  0
  189.9230  176.4130  147.6970 F   0  0  0  0  0  0  0  0  0  0  0  0
  188.8470  176.4780  145.7140 F   0  0  0  0  0  0  0  0  0  0  0  0
  189.0570  177.1490  146.9070 C   0  0  0  0  0  0  0  0  0  0  0  0
  189.6330  178.3770  146.6420 F   0  0  0  0  0  0  0  0  0  0  0  0
  2  1  1  6  0  0  0
  2 26  1  0  0  0  0
  3  2  1  0  0  0  0
  4  3  1  0  0  0  0
  5 11  1  0  0  0  0
  6 15  1  6  0  0  0
  8 17  1  6  0  0  0
  8  7  1  0  0  0  0
  9  6  1  0  0  0  0
  9 12  1  0  0  0  0
 10  5  1  0  0  0  0
 10  6  1  0  0  0  0
 11  4  1  1  0  0  0
 13 11  1  0  0  0  0
 13  7  1  0  0  0  0
 14 16  1  6  0  0  0
 14 11  1  0  0  0  0
 14 12  1  0  0  0  0
 14  8  1  0  0  0  0
 17 18  1  0  0  0  0
 19 17  2  0  0  0  0
 20 18  1  0  0  0  0
 20 23  1  0  0  0  0
 21 20  1  0  0  0  0
 21 24  1  0  0  0  0
 23 22  1  0  0  0  0
 24 22  1  0  0  0  0
 25 20  1  0  0  0  0
 26 31  1  0  0  0  0
 26 28  1  1  0  0  0
 28 29  1  0  0  0  0
 28 30  2  0  0  0  0
 30 27  2  0  0  0  0
 31 33  2  0  0  0  0
 31 32  2  0  0  0  0
 34 37  1  0  0  0  0
 34 31  1  0  0  0  0
 35 36  1  0  0  0  0
 35 37  2  0  0  0  0
 37 38  1  0  0  0  0
 38 40  1  0  0  0  0
 40 39  1  1  0  0  0
 42 40  1  6  0  0  0
 42 43  1  0  0  0  0
 42 41  1  0  0  0  0
 43 41  1  0  0  0  0
 43 44  1  1  0  0  0
 44 45  1  0  0  0  0
 45 46  1  1  0  0  0
 48 49  1  0  0  0  0
 49 45  1  0  0  0  0
 49 47  1  0  0  0  0
 50 49  1  0  0  0  0
M  END
>  <MODEL>
4

>  <REMARK>
 VINA RESULT:      -7.6      2.133      3.845
  Name = 
  16 active torsions:
  status: ('A' for Active; 'I' for Inactive)
    1  A    between atoms: C_2  and  C_8
    2  A    between atoms: S_7  and  C_17
    3  A    between atoms: S_7  and  C_48
    4  A    between atoms: N_9  and  C_12
    5  A    between atoms: C_10  and  C_20
    6  A    between atoms: C_10  and  O_23
    7  A    between atoms: C_14  and  C_38
    8  A    between atoms: C_15  and  C_17
    9  A    between atoms: C_15  and  O_23
   10  A    between atoms: C_17  and  C_34
   11  A    between atoms: C_18  and  C_29
   12  A    between atoms: C_18  and  C_44
   13  A    between atoms: C_29  and  C_45
   14  A    between atoms: C_38  and  N_40
   15  A    between atoms: N_40  and  C_42
   16  A    between atoms: C_42  and  C_48
                            x       y       z     vdW  Elec       q    Type
                         _______ _______ _______ _____ _____    ______ ____

>  <TORSDO>
F 16

$$$$
=
 OpenBabel11062412513D

 50 53  0  0  1  0  0  0  0  0999 V2000
  190.7530  176.1470  139.6010 O   0  0  0  0  0  1  0  0  0  0  0  0
  190.0660  177.0620  140.4020 C   0  0  1  0  0  3  0  0  0  0  0  0
  188.8040  177.2910  139.8510 O   0  0  0  0  0  0  0  0  0  0  0  0
  188.7720  176.4940  138.7010 C   0  0  0  0  0  2  0  0  0  0  0  0
  189.4550  177.7420  136.6250 C   0  0  0  0  0  2  0  0  0  0  0  0
  189.9330  175.3060  136.0120 C   0  0  2  0  0  3  0  0  0  0  0  0
  186.0450  178.1190  138.1290 C   0  0  0  0  0  2  0  0  0  0  0  0
  185.9220  176.7200  137.5450 C   0  0  2  0  0  3  0  0  0  0  0  0
  188.6110  174.6620  135.6170 C   0  0  0  0  0  2  0  0  0  0  0  0
  189.9400  176.7570  135.5540 C   0  0  0  0  0  2  0  0  0  0  0  0
  188.2590  177.2850  137.4840 C   0  0  2  0  0  0  0  0  0  0  0  0
  187.4820  174.9920  136.5960 C   0  0  0  0  0  2  0  0  0  0  0  0
  187.5130  178.5090  138.0030 C   0  0  0  0  0  2  0  0  0  0  0  0
  187.1780  176.4960  136.7060 C   0  0  1  0  0  0  0  0  0  0  0  0
  190.9750  174.6260  135.3820 O   0  0  0  0  0  1  0  0  0  0  0  0
  186.9950  177.0420  135.4250 O   0  0  0  0  0  1  0  0  0  0  0  0
  184.6290  176.5140  136.8150 C   0  0  0  0  0  0  0  0  0  0  0  0
  183.8080  175.3720  137.1020 N   0  0  0  0  0  2  0  0  0  0  0  0
  184.2630  177.3680  135.9640 O   0  0  0  0  0  0  0  0  0  0  0  0
  182.5210  175.0930  136.4730 C   0  0  0  0  0  0  0  0  0  0  0  0
  181.5390  176.2280  136.7350 C   0  0  0  0  0  2  0  0  0  0  0  0
  180.8540  174.3320  138.0560 C   0  0  0  0  0  2  0  0  0  0  0  0
  181.9200  173.8490  137.0980 C   0  0  0  0  0  2  0  0  0  0  0  0
  180.3540  175.6290  137.4630 C   0  0  0  0  0  2  0  0  0  0  0  0
  182.6930  174.8710  134.9800 C   0  0  0  0  0  1  0  0  0  0  0  0
  189.9390  176.5150  141.8310 C   0  0  1  0  0  3  0  0  0  0  0  0
  191.9770  175.1470  144.4220 O   0  0  0  0  0  0  0  0  0  0  0  0
  191.1780  176.7780  142.6400 C   0  0  0  0  0  0  0  0  0  0  0  0
  191.9550  178.0180  142.3860 C   0  0  0  0  0  1  0  0  0  0  0  0
  191.5890  175.9420  143.5560 C   0  0  0  0  0  0  0  0  0  0  0  0
  188.4790  177.1460  142.6620 S   0  0  0  0  0  0  0  0  0  0  0  0
  187.7180  176.0010  143.2680 O   0  0  0  0  0  0  0  0  0  0  0  0
  187.6010  177.8630  141.6740 O   0  0  0  0  0  0  0  0  0  0  0  0
  188.9570  178.2760  143.9580 C   0  0  0  0  0  2  0  0  0  0  0  0
  189.5800  177.3280  146.0970 C   0  0  0  0  0  3  0  0  0  0  0  0
  189.3950  176.6690  147.4220 C   0  0  0  0  0  1  0  0  0  0  0  0
  188.5890  177.7280  145.2930 C   0  0  0  0  0  0  0  0  0  0  0  0
  187.1960  177.5740  145.6060 N   0  0  0  0  0  2  0  0  0  0  0  0
  186.2800  179.1100  147.2370 C   0  0  0  0  0  1  0  0  0  0  0  0
  186.2440  178.6600  145.7900 C   0  0  2  0  0  3  0  0  0  0  0  0
  183.8890  178.9850  146.0870 O   0  0  0  0  0  0  0  0  0  0  0  0
  184.8460  178.1710  145.4520 C   0  0  1  0  0  3  0  0  0  0  0  0
  184.1080  179.2210  144.7180 C   0  0  1  0  0  3  0  0  0  0  0  0
  182.9950  178.5890  143.9050 C   0  0  0  0  0  2  0  0  0  0  0  0
  182.9180  179.2350  142.5290 C   0  0  2  0  0  3  0  0  0  0  0  0
  181.6900  178.9380  141.9300 O   0  0  0  0  0  1  0  0  0  0  0  0
  185.1330  179.6380  141.7460 F   0  0  0  0  0  0  0  0  0  0  0  0
  184.4720  177.4950  142.0050 F   0  0  0  0  0  0  0  0  0  0  0  0
  184.0630  178.7660  141.6360 C   0  0  0  0  0  0  0  0  0  0  0  0
  183.6430  178.7430  140.3200 F   0  0  0  0  0  0  0  0  0  0  0  0
  2  1  1  6  0  0  0
  2 26  1  0  0  0  0
  3  2  1  0  0  0  0
  4  3  1  0  0  0  0
  5 11  1  0  0  0  0
  6 15  1  6  0  0  0
  8 17  1  6  0  0  0
  8  7  1  0  0  0  0
  9  6  1  0  0  0  0
  9 12  1  0  0  0  0
 10  6  1  0  0  0  0
 10  5  1  0  0  0  0
 11 13  1  0  0  0  0
 11  4  1  1  0  0  0
 12 14  1  0  0  0  0
 13  7  1  0  0  0  0
 14 16  1  6  0  0  0
 14 11  1  0  0  0  0
 14  8  1  0  0  0  0
 17 18  1  0  0  0  0
 19 17  2  0  0  0  0
 20 21  1  0  0  0  0
 20 23  1  0  0  0  0
 20 18  1  0  0  0  0
 21 24  1  0  0  0  0
 23 22  1  0  0  0  0
 24 22  1  0  0  0  0
 25 20  1  0  0  0  0
 26 28  1  1  0  0  0
 26 31  1  0  0  0  0
 28 30  2  0  0  0  0
 29 28  1  0  0  0  0
 30 27  2  0  0  0  0
 31 32  2  0  0  0  0
 31 34  1  0  0  0  0
 33 31  2  0  0  0  0
 34 37  1  0  0  0  0
 35 36  1  0  0  0  0
 37 38  1  0  0  0  0
 37 35  2  0  0  0  0
 38 40  1  0  0  0  0
 40 39  1  1  0  0  0
 42 40  1  1  0  0  0
 42 41  1  0  0  0  0
 43 44  1  6  0  0  0
 43 42  1  0  0  0  0
 43 41  1  0  0  0  0
 45 46  1  6  0  0  0
 45 44  1  0  0  0  0
 49 47  1  0  0  0  0
 49 48  1  0  0  0  0
 49 45  1  0  0  0  0
 50 49  1  0  0  0  0
M  END
>  <MODEL>
5

>  <REMARK>
 VINA RESULT:      -7.1      1.427      2.188
  Name = 
  16 active torsions:
  status: ('A' for Active; 'I' for Inactive)
    1  A    between atoms: C_2  and  C_8
    2  A    between atoms: S_7  and  C_17
    3  A    between atoms: S_7  and  C_48
    4  A    between atoms: N_9  and  C_12
    5  A    between atoms: C_10  and  C_20
    6  A    between atoms: C_10  and  O_23
    7  A    between atoms: C_14  and  C_38
    8  A    between atoms: C_15  and  C_17
    9  A    between atoms: C_15  and  O_23
   10  A    between atoms: C_17  and  C_34
   11  A    between atoms: C_18  and  C_29
   12  A    between atoms: C_18  and  C_44
   13  A    between atoms: C_29  and  C_45
   14  A    between atoms: C_38  and  N_40
   15  A    between atoms: N_40  and  C_42
   16  A    between atoms: C_42  and  C_48
                            x       y       z     vdW  Elec       q    Type
                         _______ _______ _______ _____ _____    ______ ____

>  <TORSDO>
F 16

$$$$
=
 OpenBabel11062412513D

 50 53  0  0  1  0  0  0  0  0999 V2000
  186.7380  176.9100  145.0180 O   0  0  0  0  0  1  0  0  0  0  0  0
  186.4680  177.8780  144.0480 C   0  0  1  0  0  3  0  0  0  0  0  0
  187.0670  177.4960  142.8460 O   0  0  0  0  0  0  0  0  0  0  0  0
  188.3310  177.0250  143.2160 C   0  0  0  0  0  2  0  0  0  0  0  0
  190.0210  178.8100  143.7570 C   0  0  0  0  0  2  0  0  0  0  0  0
  190.9800  176.7430  144.9170 C   0  0  2  0  0  3  0  0  0  0  0  0
  189.0130  178.0420  140.2320 C   0  0  0  0  0  2  0  0  0  0  0  0
  189.8490  176.8100  140.5410 C   0  0  2  0  0  3  0  0  0  0  0  0
  191.6820  175.9030  143.8580 C   0  0  0  0  0  2  0  0  0  0  0  0
  191.1640  178.2180  144.5910 C   0  0  0  0  0  2  0  0  0  0  0  0
  189.4510  177.9120  142.6410 C   0  0  2  0  0  0  0  0  0  0  0  0
  190.8440  175.7420  142.5880 C   0  0  0  0  0  2  0  0  0  0  0  0
  188.8410  178.7860  141.5510 C   0  0  0  0  0  2  0  0  0  0  0  0
  190.5140  177.0730  141.8910 C   0  0  1  0  0  0  0  0  0  0  0  0
  191.5550  176.4790  146.1600 O   0  0  0  0  0  1  0  0  0  0  0  0
  191.6880  177.8190  141.7030 O   0  0  0  0  0  1  0  0  0  0  0  0
  190.7940  176.4640  139.4290 C   0  0  0  0  0  0  0  0  0  0  0  0
  190.4740  175.4100  138.5080 N   0  0  0  0  0  2  0  0  0  0  0  0
  191.8580  177.1260  139.3010 O   0  0  0  0  0  0  0  0  0  0  0  0
  191.3060  175.0130  137.3760 C   0  0  0  0  0  0  0  0  0  0  0  0
  191.2740  176.0790  136.2880 C   0  0  0  0  0  2  0  0  0  0  0  0
  190.0070  174.1830  135.5090 C   0  0  0  0  0  2  0  0  0  0  0  0
  190.7380  173.7490  136.7600 C   0  0  0  0  0  2  0  0  0  0  0  0
  190.7370  175.4180  135.0360 C   0  0  0  0  0  2  0  0  0  0  0  0
  192.7330  174.7540  137.8270 C   0  0  0  0  0  1  0  0  0  0  0  0
  184.9510  178.0320  143.8690 C   0  0  1  0  0  3  0  0  0  0  0  0
  185.6800  179.3740  147.0950 O   0  0  0  0  0  0  0  0  0  0  0  0
  184.3060  178.6350  145.0850 C   0  0  0  0  0  0  0  0  0  0  0  0
  182.8310  178.8080  145.1080 C   0  0  0  0  0  1  0  0  0  0  0  0
  185.0100  179.0140  146.1190 C   0  0  0  0  0  0  0  0  0  0  0  0
  184.5430  178.9660  142.3920 S   0  0  0  0  0  0  0  0  0  0  0  0
  185.5930  180.0170  142.1620 O   0  0  0  0  0  0  0  0  0  0  0  0
  183.2030  179.6260  142.5610 O   0  0  0  0  0  0  0  0  0  0  0  0
  184.4930  177.8770  140.9790 C   0  0  0  0  0  2  0  0  0  0  0  0
  183.5020  179.3740  139.3550 C   0  0  0  0  0  3  0  0  0  0  0  0
  182.4480  179.9510  138.4710 C   0  0  0  0  0  1  0  0  0  0  0  0
  183.3750  178.2500  140.0690 C   0  0  0  0  0  0  0  0  0  0  0  0
  182.1900  177.4390  140.0750 N   0  0  0  0  0  2  0  0  0  0  0  0
  180.8380  175.4810  139.6280 C   0  0  0  0  0  1  0  0  0  0  0  0
  181.8140  176.4820  139.0430 C   0  0  2  0  0  3  0  0  0  0  0  0
  182.7270  174.9380  137.4540 O   0  0  0  0  0  0  0  0  0  0  0  0
  183.0530  175.7480  138.5590 C   0  0  1  0  0  3  0  0  0  0  0  0
  183.3720  176.1560  137.1740 C   0  0  1  0  0  3  0  0  0  0  0  0
  184.8410  175.9040  136.8940 C   0  0  0  0  0  2  0  0  0  0  0  0
  185.4740  177.1370  136.2630 C   0  0  2  0  0  3  0  0  0  0  0  0
  185.8350  176.8640  134.9400 O   0  0  0  0  0  1  0  0  0  0  0  0
  186.3220  177.9190  138.3480 F   0  0  0  0  0  0  0  0  0  0  0  0
  187.6480  176.5890  137.0950 F   0  0  0  0  0  0  0  0  0  0  0  0
  186.6950  177.5940  137.0550 C   0  0  0  0  0  0  0  0  0  0  0  0
  187.2410  178.7140  136.4560 F   0  0  0  0  0  0  0  0  0  0  0  0
  2  1  1  1  0  0  0
  3  4  1  0  0  0  0
  3  2  1  0  0  0  0
  5 10  1  0  0  0  0
  6 15  1  1  0  0  0
  7  8  1  0  0  0  0
  7 13  1  0  0  0  0
  8 17  1  6  0  0  0
  8 14  1  0  0  0  0
  9  6  1  0  0  0  0
 10  6  1  0  0  0  0
 11  4  1  1  0  0  0
 11  5  1  0  0  0  0
 12  9  1  0  0  0  0
 13 11  1  0  0  0  0
 14 16  1  6  0  0  0
 14 12  1  0  0  0  0
 14 11  1  0  0  0  0
 18 17  1  0  0  0  0
 19 17  2  0  0  0  0
 20 25  1  0  0  0  0
 20 18  1  0  0  0  0
 21 20  1  0  0  0  0
 22 23  1  0  0  0  0
 23 20  1  0  0  0  0
 24 22  1  0  0  0  0
 24 21  1  0  0  0  0
 26  2  1  0  0  0  0
 26 28  1  1  0  0  0
 28 29  1  0  0  0  0
 28 30  2  0  0  0  0
 30 27  2  0  0  0  0
 31 33  2  0  0  0  0
 31 26  1  0  0  0  0
 32 31  2  0  0  0  0
 34 31  1  0  0  0  0
 35 37  2  0  0  0  0
 36 35  1  0  0  0  0
 37 38  1  0  0  0  0
 37 34  1  0  0  0  0
 40 39  1  1  0  0  0
 40 38  1  0  0  0  0
 41 42  1  0  0  0  0
 42 40  1  6  0  0  0
 43 44  1  1  0  0  0
 43 41  1  0  0  0  0
 43 42  1  0  0  0  0
 45 46  1  6  0  0  0
 45 44  1  0  0  0  0
 45 49  1  0  0  0  0
 49 48  1  0  0  0  0
 49 47  1  0  0  0  0
 50 49  1  0  0  0  0
M  END
>  <MODEL>
6

>  <REMARK>
 VINA RESULT:      -7.1      2.749      8.026
  Name = 
  16 active torsions:
  status: ('A' for Active; 'I' for Inactive)
    1  A    between atoms: C_2  and  C_8
    2  A    between atoms: S_7  and  C_17
    3  A    between atoms: S_7  and  C_48
    4  A    between atoms: N_9  and  C_12
    5  A    between atoms: C_10  and  C_20
    6  A    between atoms: C_10  and  O_23
    7  A    between atoms: C_14  and  C_38
    8  A    between atoms: C_15  and  C_17
    9  A    between atoms: C_15  and  O_23
   10  A    between atoms: C_17  and  C_34
   11  A    between atoms: C_18  and  C_29
   12  A    between atoms: C_18  and  C_44
   13  A    between atoms: C_29  and  C_45
   14  A    between atoms: C_38  and  N_40
   15  A    between atoms: N_40  and  C_42
   16  A    between atoms: C_42  and  C_48
                            x       y       z     vdW  Elec       q    Type
                         _______ _______ _______ _____ _____    ______ ____

>  <TORSDO>
F 16

$$$$
=
 OpenBabel11062412513D

 50 53  0  0  1  0  0  0  0  0999 V2000
  191.0950  176.1430  139.9360 O   0  0  0  0  0  1  0  0  0  0  0  0
  190.2150  177.1540  140.3290 C   0  0  1  0  0  3  0  0  0  0  0  0
  189.0610  177.0820  139.5470 O   0  0  0  0  0  0  0  0  0  0  0  0
  189.3020  176.0280  138.6590 C   0  0  0  0  0  2  0  0  0  0  0  0
  190.0730  176.8820  136.4210 C   0  0  0  0  0  2  0  0  0  0  0  0
  191.0860  174.5360  136.5180 C   0  0  2  0  0  3  0  0  0  0  0  0
  186.4530  176.8380  137.3830 C   0  0  0  0  0  2  0  0  0  0  0  0
  186.6880  175.3500  137.1720 C   0  0  2  0  0  3  0  0  0  0  0  0
  189.9880  173.5450  136.1570 C   0  0  0  0  0  2  0  0  0  0  0  0
  190.9000  175.8080  135.7040 C   0  0  0  0  0  2  0  0  0  0  0  0
  188.8580  176.3840  137.2290 C   0  0  2  0  0  0  0  0  0  0  0  0
  188.6740  173.8360  136.8840 C   0  0  0  0  0  2  0  0  0  0  0  0
  187.8250  177.5010  137.3260 C   0  0  0  0  0  2  0  0  0  0  0  0
  188.0830  175.2200  136.5650 C   0  0  1  0  0  0  0  0  0  0  0  0
  192.3250  173.9760  136.2070 O   0  0  0  0  0  1  0  0  0  0  0  0
  188.0150  175.4030  135.1750 O   0  0  0  0  0  1  0  0  0  0  0  0
  185.5920  174.7030  136.3790 C   0  0  0  0  0  0  0  0  0  0  0  0
  185.1520  173.3750  136.7000 N   0  0  0  0  0  2  0  0  0  0  0  0
  185.0490  175.3490  135.4430 O   0  0  0  0  0  0  0  0  0  0  0  0
  184.0760  172.6660  136.0140 C   0  0  0  0  0  0  0  0  0  0  0  0
  183.5350  171.5400  136.8860 C   0  0  0  0  0  2  0  0  0  0  0  0
  184.7970  170.5470  135.0890 C   0  0  0  0  0  2  0  0  0  0  0  0
  184.6290  172.0140  134.7610 C   0  0  0  0  0  2  0  0  0  0  0  0
  183.7290  170.2510  136.1160 C   0  0  0  0  0  2  0  0  0  0  0  0
  182.9630  173.6260  135.6300 C   0  0  0  0  0  1  0  0  0  0  0  0
  189.8680  176.9960  141.8160 C   0  0  1  0  0  3  0  0  0  0  0  0
  191.8300  175.0060  144.0380 O   0  0  0  0  0  0  0  0  0  0  0  0
  191.0970  177.0310  142.6810 C   0  0  0  0  0  0  0  0  0  0  0  0
  191.9040  178.2760  142.7380 C   0  0  0  0  0  1  0  0  0  0  0  0
  191.4740  175.9920  143.3790 C   0  0  0  0  0  0  0  0  0  0  0  0
  188.6640  178.2130  142.3560 S   0  0  0  0  0  0  0  0  0  0  0  0
  188.5240  179.2750  141.3010 O   0  0  0  0  0  0  0  0  0  0  0  0
  189.1170  178.8420  143.6430 O   0  0  0  0  0  0  0  0  0  0  0  0
  187.0790  177.4300  142.6040 C   0  0  0  0  0  2  0  0  0  0  0  0
  185.8790  178.4220  140.7510 C   0  0  0  0  0  3  0  0  0  0  0  0
  184.9080  179.3140  140.0530 C   0  0  0  0  0  1  0  0  0  0  0  0
  185.9820  178.2890  142.0780 C   0  0  0  0  0  0  0  0  0  0  0  0
  185.1590  178.9970  143.0170 N   0  0  0  0  0  2  0  0  0  0  0  0
  183.2240  178.8340  144.4620 C   0  0  0  0  0  1  0  0  0  0  0  0
  184.6850  178.4720  144.2900 C   0  0  2  0  0  3  0  0  0  0  0  0
  184.9170  178.7410  146.6600 O   0  0  0  0  0  0  0  0  0  0  0  0
  185.4900  179.0890  145.4220 C   0  0  1  0  0  3  0  0  0  0  0  0
  186.0630  178.0240  146.2720 C   0  0  1  0  0  3  0  0  0  0  0  0
  187.2750  178.5570  147.0110 C   0  0  0  0  0  2  0  0  0  0  0  0
  187.9580  177.4340  147.7800 C   0  0  2  0  0  3  0  0  0  0  0  0
  187.8150  177.6420  149.1550 O   0  0  0  0  0  1  0  0  0  0  0  0
  189.8150  176.0100  147.3320 F   0  0  0  0  0  0  0  0  0  0  0  0
  189.6740  177.9570  146.1990 F   0  0  0  0  0  0  0  0  0  0  0  0
  189.4370  177.3390  147.4150 C   0  0  0  0  0  0  0  0  0  0  0  0
  190.1940  177.9550  148.3940 F   0  0  0  0  0  0  0  0  0  0  0  0
  2  1  1  6  0  0  0
  2 26  1  0  0  0  0
  3  2  1  0  0  0  0
  4  3  1  0  0  0  0
  5 11  1  0  0  0  0
  6 15  1  6  0  0  0
  8 17  1  6  0  0  0
  8  7  1  0  0  0  0
  9  6  1  0  0  0  0
  9 12  1  0  0  0  0
 10  5  1  0  0  0  0
 10  6  1  0  0  0  0
 11 13  1  0  0  0  0
 11  4  1  1  0  0  0
 13  7  1  0  0  0  0
 14 16  1  6  0  0  0
 14 12  1  0  0  0  0
 14  8  1  0  0  0  0
 14 11  1  0  0  0  0
 17 18  1  0  0  0  0
 19 17  2  0  0  0  0
 20 18  1  0  0  0  0
 20 21  1  0  0  0  0
 22 24  1  0  0  0  0
 23 22  1  0  0  0  0
 23 20  1  0  0  0  0
 24 21  1  0  0  0  0
 25 20  1  0  0  0  0
 26 31  1  0  0  0  0
 26 28  1  1  0  0  0
 28 29  1  0  0  0  0
 28 30  2  0  0  0  0
 30 27  2  0  0  0  0
 31 34  1  0  0  0  0
 31 33  2  0  0  0  0
 32 31  2  0  0  0  0
 35 37  2  0  0  0  0
 36 35  1  0  0  0  0
 37 34  1  0  0  0  0
 37 38  1  0  0  0  0
 38 40  1  0  0  0  0
 40 39  1  1  0  0  0
 42 40  1  6  0  0  0
 42 43  1  0  0  0  0
 42 41  1  0  0  0  0
 43 41  1  0  0  0  0
 43 44  1  1  0  0  0
 44 45  1  0  0  0  0
 45 46  1  1  0  0  0
 47 49  1  0  0  0  0
 48 49  1  0  0  0  0
 49 45  1  0  0  0  0
 49 50  1  0  0  0  0
M  END
>  <MODEL>
7

>  <REMARK>
 VINA RESULT:      -6.8      2.616      4.256
  Name = 
  16 active torsions:
  status: ('A' for Active; 'I' for Inactive)
    1  A    between atoms: C_2  and  C_8
    2  A    between atoms: S_7  and  C_17
    3  A    between atoms: S_7  and  C_48
    4  A    between atoms: N_9  and  C_12
    5  A    between atoms: C_10  and  C_20
    6  A    between atoms: C_10  and  O_23
    7  A    between atoms: C_14  and  C_38
    8  A    between atoms: C_15  and  C_17
    9  A    between atoms: C_15  and  O_23
   10  A    between atoms: C_17  and  C_34
   11  A    between atoms: C_18  and  C_29
   12  A    between atoms: C_18  and  C_44
   13  A    between atoms: C_29  and  C_45
   14  A    between atoms: C_38  and  N_40
   15  A    between atoms: N_40  and  C_42
   16  A    between atoms: C_42  and  C_48
                            x       y       z     vdW  Elec       q    Type
                         _______ _______ _______ _____ _____    ______ ____

>  <TORSDO>
F 16

$$$$
=
 OpenBabel11062412513D

 50 53  0  0  1  0  0  0  0  0999 V2000
  188.6730  179.0500  141.3070 O   0  0  0  0  0  1  0  0  0  0  0  0
  188.8510  177.7860  140.7380 C   0  0  1  0  0  3  0  0  0  0  0  0
  189.4020  177.9340  139.4640 O   0  0  0  0  0  0  0  0  0  0  0  0
  189.0330  176.7680  138.7840 C   0  0  0  0  0  2  0  0  0  0  0  0
  190.1160  177.0070  136.5240 C   0  0  0  0  0  2  0  0  0  0  0  0
  190.2960  174.4980  136.9820 C   0  0  2  0  0  3  0  0  0  0  0  0
  186.6550  178.2670  137.2020 C   0  0  0  0  0  2  0  0  0  0  0  0
  186.3920  176.7690  137.1920 C   0  0  2  0  0  3  0  0  0  0  0  0
  188.9450  173.8730  136.6610 C   0  0  0  0  0  2  0  0  0  0  0  0
  190.5670  175.6350  136.0080 C   0  0  0  0  0  2  0  0  0  0  0  0
  188.7790  177.0460  137.2910 C   0  0  2  0  0  0  0  0  0  0  0  0
  187.7760  174.6710  137.2440 C   0  0  0  0  0  2  0  0  0  0  0  0
  188.1690  178.4380  137.1720 C   0  0  0  0  0  2  0  0  0  0  0  0
  187.6860  176.1130  136.7150 C   0  0  1  0  0  0  0  0  0  0  0  0
  191.2900  173.5310  136.8380 O   0  0  0  0  0  1  0  0  0  0  0  0
  187.7280  176.1110  135.3120 O   0  0  0  0  0  1  0  0  0  0  0  0
  185.1710  176.4060  136.4010 C   0  0  0  0  0  0  0  0  0  0  0  0
  184.3390  175.3120  136.8150 N   0  0  0  0  0  2  0  0  0  0  0  0
  184.8740  177.0880  135.3840 O   0  0  0  0  0  0  0  0  0  0  0  0
  183.1160  174.8940  136.1370 C   0  0  0  0  0  0  0  0  0  0  0  0
  182.2700  174.0160  137.0500 C   0  0  0  0  0  2  0  0  0  0  0  0
  183.2230  172.6100  135.3410 C   0  0  0  0  0  2  0  0  0  0  0  0
  183.4780  174.0440  134.9340 C   0  0  0  0  0  2  0  0  0  0  0  0
  182.1040  172.6820  136.3520 C   0  0  0  0  0  2  0  0  0  0  0  0
  182.3210  176.1030  135.6750 C   0  0  0  0  0  1  0  0  0  0  0  0
  189.7700  176.9370  141.6270 C   0  0  1  0  0  3  0  0  0  0  0  0
  191.6570  178.8540  143.9740 O   0  0  0  0  0  0  0  0  0  0  0  0
  191.1070  177.5930  141.8330 C   0  0  0  0  0  0  0  0  0  0  0  0
  192.1310  177.4950  140.7620 C   0  0  0  0  0  1  0  0  0  0  0  0
  191.3900  178.2420  142.9320 C   0  0  0  0  0  0  0  0  0  0  0  0
  188.9990  176.5370  143.1980 S   0  0  0  0  0  0  0  0  0  0  0  0
  190.0400  176.0030  144.1420 O   0  0  0  0  0  0  0  0  0  0  0  0
  187.9330  175.4980  142.9910 O   0  0  0  0  0  0  0  0  0  0  0  0
  188.2690  178.0030  143.9080 C   0  0  0  0  0  2  0  0  0  0  0  0
  185.9420  178.2960  143.3080 C   0  0  0  0  0  3  0  0  0  0  0  0
  184.4600  178.2630  143.4690 C   0  0  0  0  0  1  0  0  0  0  0  0
  186.8210  177.7880  144.1800 C   0  0  0  0  0  0  0  0  0  0  0  0
  186.4450  177.1330  145.4010 N   0  0  0  0  0  2  0  0  0  0  0  0
  185.6060  178.8120  146.9290 C   0  0  0  0  0  1  0  0  0  0  0  0
  186.6010  177.6850  146.7390 C   0  0  2  0  0  3  0  0  0  0  0  0
  188.3640  178.2390  148.2650 O   0  0  0  0  0  0  0  0  0  0  0  0
  188.0100  178.2280  146.9020 C   0  0  1  0  0  3  0  0  0  0  0  0
  188.8860  177.1910  147.4870 C   0  0  1  0  0  3  0  0  0  0  0  0
  190.3310  177.4860  147.1350 C   0  0  0  0  0  2  0  0  0  0  0  0
  191.2650  176.7560  148.0910 C   0  0  2  0  0  3  0  0  0  0  0  0
  192.0750  177.6760  148.7630 O   0  0  0  0  0  1  0  0  0  0  0  0
  191.5120  174.5030  147.3570 F   0  0  0  0  0  0  0  0  0  0  0  0
  192.3250  176.1440  146.0370 F   0  0  0  0  0  0  0  0  0  0  0  0
  192.1290  175.7420  147.3480 C   0  0  0  0  0  0  0  0  0  0  0  0
  193.3550  175.6310  147.9780 F   0  0  0  0  0  0  0  0  0  0  0  0
  2  1  1  1  0  0  0
  2 26  1  0  0  0  0
  3  2  1  0  0  0  0
  4  3  1  0  0  0  0
  5 11  1  0  0  0  0
  6 15  1  6  0  0  0
  8 17  1  6  0  0  0
  8  7  1  0  0  0  0
  9  6  1  0  0  0  0
  9 12  1  0  0  0  0
 10  5  1  0  0  0  0
 10  6  1  0  0  0  0
 11  4  1  1  0  0  0
 13  7  1  0  0  0  0
 13 11  1  0  0  0  0
 14 16  1  6  0  0  0
 14  8  1  0  0  0  0
 14 12  1  0  0  0  0
 14 11  1  0  0  0  0
 17 18  1  0  0  0  0
 19 17  2  0  0  0  0
 20 18  1  0  0  0  0
 20 21  1  0  0  0  0
 22 24  1  0  0  0  0
 23 22  1  0  0  0  0
 23 20  1  0  0  0  0
 24 21  1  0  0  0  0
 25 20  1  0  0  0  0
 26 28  1  1  0  0  0
 26 31  1  0  0  0  0
 28 30  2  0  0  0  0
 29 28  1  0  0  0  0
 30 27  2  0  0  0  0
 31 34  1  0  0  0  0
 31 32  2  0  0  0  0
 33 31  2  0  0  0  0
 34 37  1  0  0  0  0
 35 36  1  0  0  0  0
 35 37  2  0  0  0  0
 37 38  1  0  0  0  0
 38 40  1  0  0  0  0
 40 39  1  6  0  0  0
 42 40  1  1  0  0  0
 42 43  1  0  0  0  0
 42 41  1  0  0  0  0
 43 44  1  6  0  0  0
 43 41  1  0  0  0  0
 44 45  1  0  0  0  0
 45 46  1  6  0  0  0
 48 49  1  0  0  0  0
 49 47  1  0  0  0  0
 49 50  1  0  0  0  0
 49 45  1  0  0  0  0
M  END
>  <MODEL>
8

>  <REMARK>
 VINA RESULT:      -6.7      2.710      4.298
  Name = 
  16 active torsions:
  status: ('A' for Active; 'I' for Inactive)
    1  A    between atoms: C_2  and  C_8
    2  A    between atoms: S_7  and  C_17
    3  A    between atoms: S_7  and  C_48
    4  A    between atoms: N_9  and  C_12
    5  A    between atoms: C_10  and  C_20
    6  A    between atoms: C_10  and  O_23
    7  A    between atoms: C_14  and  C_38
    8  A    between atoms: C_15  and  C_17
    9  A    between atoms: C_15  and  O_23
   10  A    between atoms: C_17  and  C_34
   11  A    between atoms: C_18  and  C_29
   12  A    between atoms: C_18  and  C_44
   13  A    between atoms: C_29  and  C_45
   14  A    between atoms: C_38  and  N_40
   15  A    between atoms: N_40  and  C_42
   16  A    between atoms: C_42  and  C_48
                            x       y       z     vdW  Elec       q    Type
                         _______ _______ _______ _____ _____    ______ ____

>  <TORSDO>
F 16

$$$$
=
 OpenBabel11062412513D

 50 53  0  0  1  0  0  0  0  0999 V2000
  183.4020  180.8690  138.7410 O   0  0  0  0  0  1  0  0  0  0  0  0
  182.1590  180.3700  138.3440 C   0  0  1  0  0  3  0  0  0  0  0  0
  182.0890  179.0140  138.6700 O   0  0  0  0  0  0  0  0  0  0  0  0
  182.6750  178.3600  137.5800 C   0  0  0  0  0  2  0  0  0  0  0  0
  182.7820  176.1020  138.6870 C   0  0  0  0  0  2  0  0  0  0  0  0
  181.7480  175.5740  136.4090 C   0  0  2  0  0  3  0  0  0  0  0  0
  185.8100  178.2770  138.3320 C   0  0  0  0  0  2  0  0  0  0  0  0
  185.6330  177.8350  136.8870 C   0  0  2  0  0  3  0  0  0  0  0  0
  182.8790  175.5210  135.3900 C   0  0  0  0  0  2  0  0  0  0  0  0
  182.2440  175.0240  137.7380 C   0  0  0  0  0  2  0  0  0  0  0  0
  183.6130  177.2300  138.0420 C   0  0  2  0  0  0  0  0  0  0  0  0
  183.8500  176.6950  135.5310 C   0  0  0  0  0  2  0  0  0  0  0  0
  184.5670  177.8100  139.0790 C   0  0  0  0  0  2  0  0  0  0  0  0
  184.5470  176.7610  136.9000 C   0  0  1  0  0  0  0  0  0  0  0  0
  180.6920  174.7830  135.9570 O   0  0  0  0  0  1  0  0  0  0  0  0
  185.1160  175.5160  137.2080 O   0  0  0  0  0  1  0  0  0  0  0  0
  186.9260  177.4180  136.2520 C   0  0  0  0  0  0  0  0  0  0  0  0
  187.8190  176.5310  136.9420 N   0  0  0  0  0  2  0  0  0  0  0  0
  187.2050  177.8370  135.0970 O   0  0  0  0  0  0  0  0  0  0  0  0
  189.0840  176.0390  136.4040 C   0  0  0  0  0  0  0  0  0  0  0  0
  189.5860  174.8520  137.2160 C   0  0  0  0  0  2  0  0  0  0  0  0
  190.9920  176.7450  137.7170 C   0  0  0  0  0  2  0  0  0  0  0  0
  190.1350  177.1260  136.5310 C   0  0  0  0  0  2  0  0  0  0  0  0
  190.9440  175.2350  137.7670 C   0  0  0  0  0  2  0  0  0  0  0  0
  188.9310  175.6590  134.9420 C   0  0  0  0  0  1  0  0  0  0  0  0
  181.0350  181.1500  139.0400 C   0  0  1  0  0  3  0  0  0  0  0  0
  179.5680  180.4800  135.8560 O   0  0  0  0  0  0  0  0  0  0  0  0
  180.0290  181.6750  138.0550 C   0  0  0  0  0  0  0  0  0  0  0  0
  179.2820  182.9170  138.3790 C   0  0  0  0  0  1  0  0  0  0  0  0
  179.7920  181.0630  136.9250 C   0  0  0  0  0  0  0  0  0  0  0  0
  180.2380  180.1760  140.3200 S   0  0  0  0  0  0  0  0  0  0  0  0
  179.0690  179.4380  139.7290 O   0  0  0  0  0  0  0  0  0  0  0  0
  179.7540  181.0790  141.4200 O   0  0  0  0  0  0  0  0  0  0  0  0
  181.3930  178.9920  140.9900 C   0  0  0  0  0  2  0  0  0  0  0  0
  180.0680  178.3630  142.9170 C   0  0  0  0  0  3  0  0  0  0  0  0
  179.6850  178.2580  144.3550 C   0  0  0  0  0  1  0  0  0  0  0  0
  181.2210  178.8690  142.4650 C   0  0  0  0  0  0  0  0  0  0  0  0
  182.2560  179.3810  143.3170 N   0  0  0  0  0  2  0  0  0  0  0  0
  183.5100  178.7700  145.2960 C   0  0  0  0  0  1  0  0  0  0  0  0
  183.4110  178.6310  143.7900 C   0  0  2  0  0  3  0  0  0  0  0  0
  185.7390  179.1290  144.0700 O   0  0  0  0  0  0  0  0  0  0  0  0
  184.6730  179.1900  143.1530 C   0  0  1  0  0  3  0  0  0  0  0  0
  185.7070  178.1360  143.0750 C   0  0  1  0  0  3  0  0  0  0  0  0
  186.7010  178.4770  141.9810 C   0  0  0  0  0  2  0  0  0  0  0  0
  187.9320  177.5880  142.0940 C   0  0  2  0  0  3  0  0  0  0  0  0
  188.6200  177.8730  143.2770 O   0  0  0  0  0  1  0  0  0  0  0  0
  188.6390  176.7610  139.9740 F   0  0  0  0  0  0  0  0  0  0  0  0
  188.6190  178.9960  140.2870 F   0  0  0  0  0  0  0  0  0  0  0  0
  188.8550  177.7740  140.8930 C   0  0  0  0  0  0  0  0  0  0  0  0
  190.1720  177.7200  141.3110 F   0  0  0  0  0  0  0  0  0  0  0  0
  2  3  1  0  0  0  0
  2  1  1  1  0  0  0
  2 26  1  0  0  0  0
  4  3  1  0  0  0  0
  6 15  1  6  0  0  0
  6 10  1  0  0  0  0
  7 13  1  0  0  0  0
  8 17  1  1  0  0  0
  8 14  1  0  0  0  0
  8  7  1  0  0  0  0
  9 12  1  0  0  0  0
  9  6  1  0  0  0  0
 10  5  1  0  0  0  0
 11  4  1  6  0  0  0
 11  5  1  0  0  0  0
 11 13  1  0  0  0  0
 12 14  1  0  0  0  0
 14 16  1  1  0  0  0
 14 11  1  0  0  0  0
 17 18  1  0  0  0  0
 19 17  2  0  0  0  0
 20 23  1  0  0  0  0
 20 18  1  0  0  0  0
 20 21  1  0  0  0  0
 21 24  1  0  0  0  0
 22 24  1  0  0  0  0
 23 22  1  0  0  0  0
 25 20  1  0  0  0  0
 26 28  1  6  0  0  0
 26 31  1  0  0  0  0
 27 30  2  0  0  0  0
 28 29  1  0  0  0  0
 30 28  2  0  0  0  0
 31 34  1  0  0  0  0
 31 33  2  0  0  0  0
 32 31  2  0  0  0  0
 34 37  1  0  0  0  0
 35 36  1  0  0  0  0
 37 35  2  0  0  0  0
 37 38  1  0  0  0  0
 38 40  1  0  0  0  0
 40 39  1  1  0  0  0
 42 40  1  1  0  0  0
 42 41  1  0  0  0  0
 43 44  1  6  0  0  0
 43 42  1  0  0  0  0
 43 41  1  0  0  0  0
 44 45  1  0  0  0  0
 45 46  1  1  0  0  0
 47 49  1  0  0  0  0
 48 49  1  0  0  0  0
 49 50  1  0  0  0  0
 49 45  1  0  0  0  0
M  END
>  <MODEL>
9

>  <REMARK>
 VINA RESULT:      -6.5      3.875      7.795
  Name = 
  16 active torsions:
  status: ('A' for Active; 'I' for Inactive)
    1  A    between atoms: C_2  and  C_8
    2  A    between atoms: S_7  and  C_17
    3  A    between atoms: S_7  and  C_48
    4  A    between atoms: N_9  and  C_12
    5  A    between atoms: C_10  and  C_20
    6  A    between atoms: C_10  and  O_23
    7  A    between atoms: C_14  and  C_38
    8  A    between atoms: C_15  and  C_17
    9  A    between atoms: C_15  and  O_23
   10  A    between atoms: C_17  and  C_34
   11  A    between atoms: C_18  and  C_29
   12  A    between atoms: C_18  and  C_44
   13  A    between atoms: C_29  and  C_45
   14  A    between atoms: C_38  and  N_40
   15  A    between atoms: N_40  and  C_42
   16  A    between atoms: C_42  and  C_48
                            x       y       z     vdW  Elec       q    Type
                         _______ _______ _______ _____ _____    ______ ____

>  <TORSDO>
F 16

$$$$
