=
 OpenBabel11062412253D

 37 39  0  0  1  0  0  0  0  0999 V2000
  186.2290  178.6440  145.5330 C   0  0  0  0  0  0  0  0  0  0  0  0
  185.1970  178.6920  144.6270 C   0  0  0  0  0  0  0  0  0  0  0  0
  185.1540  178.6750  143.2350 C   0  0  0  0  0  3  0  0  0  0  0  0
  184.0690  178.7310  145.3930 C   0  0  0  0  0  0  0  0  0  0  0  0
  184.4030  178.7240  146.6580 O   0  0  0  0  0  0  0  0  0  0  0  0
  182.7090  178.7510  143.4270 C   0  0  0  0  0  3  0  0  0  0  0  0
  185.7050  178.6640  146.7830 N   0  0  0  0  0  0  0  0  0  0  0  0
  183.8770  178.7050  142.6290 C   0  0  0  0  0  0  0  0  0  0  0  0
  182.7960  178.7690  144.8340 C   0  0  0  0  0  3  0  0  0  0  0  0
  187.6910  178.5330  145.2250 C   0  0  0  0  0  2  0  0  0  0  0  0
  188.1930  177.0950  145.0330 C   0  0  2  0  0  3  0  0  0  0  0  0
  188.6460  176.8100  147.9290 O   0  0  0  0  0  0  0  0  0  0  0  0
  189.6330  176.7020  147.1440 C   0  0  0  0  0  0  0  0  0  0  0  0
  189.4600  176.8500  145.7290 N   0  0  0  0  0  2  0  0  0  0  0  0
  191.9680  176.0150  146.8080 C   0  0  0  0  0  1  0  0  0  0  0  0
  190.9090  176.4420  147.6460 O   0  0  0  0  0  0  0  0  0  0  0  0
  188.2300  176.6210  143.5830 C   0  0  0  0  0  2  0  0  0  0  0  0
  189.0780  177.5490  142.7270 C   0  0  1  0  0  3  0  0  0  0  0  0
  190.3680  176.9220  142.4750 N   0  0  0  0  0  2  0  0  0  0  0  0
  189.4070  177.2150  140.4050 C   0  0  0  0  0  2  0  0  0  0  0  0
  188.4150  177.7770  141.3900 C   0  0  0  0  0  2  0  0  0  0  0  0
  190.3330  176.3940  141.1680 N   0  0  0  0  0  2  0  0  0  0  0  0
  183.7380  178.6980  141.1410 C   0  0  0  0  0  2  0  0  0  0  0  0
  185.0610  178.9880  140.4440 C   0  0  0  0  0  2  0  0  0  0  0  0
  184.8410  179.7120  139.2700 O   0  0  0  0  0  0  0  0  0  0  0  0
  184.1380  178.8380  138.4350 C   0  0  0  0  0  2  0  0  0  0  0  0
  185.0320  177.6680  137.9940 C   0  0  1  0  0  3  0  0  0  0  0  0
  183.1080  176.1230  138.4630 C   0  0  0  0  0  1  0  0  0  0  0  0
  184.2170  176.4750  137.4800 C   0  0  1  0  0  3  0  0  0  0  0  0
  184.3240  176.1880  135.0950 O   0  0  0  0  0  0  0  0  0  0  0  0
  182.4920  177.3180  135.8830 O   0  0  0  0  0  1  0  0  0  0  0  0
  183.6970  176.6590  136.0820 C   0  0  0  0  0  0  0  0  0  0  0  0
  185.9460  178.0900  137.0180 O   0  0  0  0  0  0  0  0  0  0  0  0
  187.2080  177.8050  137.5530 C   0  0  2  0  0  3  0  0  0  0  0  0
  187.9420  178.9860  137.6860 O   0  0  0  0  0  1  0  0  0  0  0  0
  187.9570  176.8500  136.6390 C   0  0  0  0  0  2  0  0  0  0  0  0
  188.3500  175.7180  137.3540 O   0  0  0  0  0  1  0  0  0  0  0  0
  1  7  2  0  0  0  0
  2  4  1  0  0  0  0
  2  1  1  0  0  0  0
  3  2  2  0  0  0  0
  4  5  1  0  0  0  0
  5  7  1  0  0  0  0
  6  9  1  0  0  0  0
  8  3  1  0  0  0  0
  8  6  2  0  0  0  0
  9  4  2  0  0  0  0
 10  1  1  0  0  0  0
 11 17  1  6  0  0  0
 11 10  1  0  0  0  0
 11 14  1  0  0  0  0
 13 16  1  0  0  0  0
 13 12  2  0  0  0  0
 14 13  1  0  0  0  0
 15 16  1  0  0  0  0
 18 17  1  1  0  0  0
 19 18  1  0  0  0  0
 20 22  1  0  0  0  0
 20 21  1  0  0  0  0
 21 18  1  0  0  0  0
 22 19  1  0  0  0  0
 23  8  1  0  0  0  0
 24 23  1  0  0  0  0
 25 24  1  0  0  0  0
 26 25  1  0  0  0  0
 27 26  1  6  0  0  0
 29 27  1  0  0  0  0
 29 28  1  1  0  0  0
 30 32  2  0  0  0  0
 31 32  1  0  0  0  0
 32 29  1  0  0  0  0
 33 34  1  0  0  0  0
 33 27  1  0  0  0  0
 34 35  1  6  0  0  0
 36 37  1  0  0  0  0
 36 34  1  0  0  0  0
M  END
>  <MODEL>
1

>  <REMARK>
 VINA RESULT:      -7.2      0.000      0.000
  Name = 
  16 active torsions:
  status: ('A' for Active; 'I' for Inactive)
    1  A    between atoms: C_1  and  C_24
    2  A    between atoms: C_2  and  C_22
    3  A    between atoms: C_2  and  O_33
    4  A    between atoms: C_4  and  C_21
    5  A    between atoms: C_4  and  C_34
    6  A    between atoms: C_6  and  C_11
    7  A    between atoms: C_8  and  C_18
    8  A    between atoms: C_11  and  C_27
    9  A    between atoms: C_15  and  O_23
   10  A    between atoms: C_18  and  O_29
   11  A    between atoms: C_21  and  O_33
   12  A    between atoms: C_22  and  O_29
   13  A    between atoms: C_22  and  C_30
   14  A    between atoms: C_24  and  C_27
   15  A    between atoms: C_27  and  N_32
   16  A    between atoms: C_30  and  C_35
                            x       y       z     vdW  Elec       q    Type
                         _______ _______ _______ _____ _____    ______ ____

>  <TORSDO>
F 16

$$$$
=
 OpenBabel11062412253D

 37 39  0  0  1  0  0  0  0  0999 V2000
  186.4970  177.5880  144.6820 C   0  0  0  0  0  0  0  0  0  0  0  0
  185.3590  178.0720  144.0840 C   0  0  0  0  0  0  0  0  0  0  0  0
  184.9250  178.1150  142.7600 C   0  0  0  0  0  3  0  0  0  0  0  0
  184.5990  178.5390  145.1160 C   0  0  0  0  0  0  0  0  0  0  0  0
  185.2420  178.3620  146.2420 O   0  0  0  0  0  0  0  0  0  0  0  0
  182.8670  179.1600  143.5910 C   0  0  0  0  0  3  0  0  0  0  0  0
  186.3940  177.7810  146.0200 N   0  0  0  0  0  0  0  0  0  0  0  0
  183.6500  178.6720  142.5160 C   0  0  0  0  0  0  0  0  0  0  0  0
  183.3430  179.1000  144.9160 C   0  0  0  0  0  3  0  0  0  0  0  0
  187.6480  176.9100  144.0060 C   0  0  0  0  0  2  0  0  0  0  0  0
  188.7870  177.8510  143.5890 C   0  0  2  0  0  3  0  0  0  0  0  0
  187.8180  178.6210  140.9160 O   0  0  0  0  0  0  0  0  0  0  0  0
  188.8580  177.9050  141.0060 C   0  0  0  0  0  0  0  0  0  0  0  0
  189.3550  177.4950  142.2860 N   0  0  0  0  0  2  0  0  0  0  0  0
  190.9300  177.2420  139.8620 C   0  0  0  0  0  1  0  0  0  0  0  0
  189.5370  177.5000  139.8550 O   0  0  0  0  0  0  0  0  0  0  0  0
  189.8630  178.0610  144.6500 C   0  0  0  0  0  2  0  0  0  0  0  0
  190.0720  176.7970  145.4720 C   0  0  1  0  0  3  0  0  0  0  0  0
  191.4610  176.3760  145.3560 N   0  0  0  0  0  2  0  0  0  0  0  0
  191.1270  176.8020  147.5930 C   0  0  0  0  0  2  0  0  0  0  0  0
  189.8010  177.0730  146.9310 C   0  0  0  0  0  2  0  0  0  0  0  0
  192.1240  176.7770  146.5330 N   0  0  0  0  0  2  0  0  0  0  0  0
  183.1100  178.7640  141.1260 C   0  0  0  0  0  2  0  0  0  0  0  0
  184.2090  179.0250  140.1040 C   0  0  0  0  0  2  0  0  0  0  0  0
  183.6620  179.5340  138.9240 O   0  0  0  0  0  0  0  0  0  0  0  0
  183.1770  178.4140  138.2410 C   0  0  0  0  0  2  0  0  0  0  0  0
  184.2800  177.3570  138.0760 C   0  0  1  0  0  3  0  0  0  0  0  0
  182.5650  175.7700  138.9970 C   0  0  0  0  0  1  0  0  0  0  0  0
  183.7160  175.9310  138.0130 C   0  0  1  0  0  3  0  0  0  0  0  0
  182.2640  175.8790  136.0980 O   0  0  0  0  0  1  0  0  0  0  0  0
  184.2150  174.6910  135.9040 O   0  0  0  0  0  0  0  0  0  0  0  0
  183.3420  175.4940  136.6260 C   0  0  0  0  0  0  0  0  0  0  0  0
  185.0510  177.6250  136.9360 O   0  0  0  0  0  0  0  0  0  0  0  0
  186.3810  177.5320  137.3640 C   0  0  2  0  0  3  0  0  0  0  0  0
  186.8660  178.8020  137.6810 O   0  0  0  0  0  1  0  0  0  0  0  0
  187.2390  176.9270  136.2660 C   0  0  0  0  0  2  0  0  0  0  0  0
  187.9400  177.9330  135.6010 O   0  0  0  0  0  1  0  0  0  0  0  0
  1  7  2  0  0  0  0
  2  1  1  0  0  0  0
  2  4  1  0  0  0  0
  3  2  2  0  0  0  0
  4  5  1  0  0  0  0
  6  9  1  0  0  0  0
  7  5  1  0  0  0  0
  8  3  1  0  0  0  0
  8  6  2  0  0  0  0
  9  4  2  0  0  0  0
 10  1  1  0  0  0  0
 11 10  1  1  0  0  0
 11 17  1  0  0  0  0
 12 13  2  0  0  0  0
 13 14  1  0  0  0  0
 14 11  1  0  0  0  0
 16 15  1  0  0  0  0
 16 13  1  0  0  0  0
 18 17  1  6  0  0  0
 18 21  1  0  0  0  0
 19 18  1  0  0  0  0
 19 22  1  0  0  0  0
 21 20  1  0  0  0  0
 22 20  1  0  0  0  0
 23  8  1  0  0  0  0
 24 23  1  0  0  0  0
 25 24  1  0  0  0  0
 26 25  1  0  0  0  0
 27 26  1  6  0  0  0
 29 27  1  0  0  0  0
 29 28  1  1  0  0  0
 30 32  1  0  0  0  0
 31 32  2  0  0  0  0
 32 29  1  0  0  0  0
 33 34  1  0  0  0  0
 33 27  1  0  0  0  0
 34 35  1  6  0  0  0
 36 34  1  0  0  0  0
 37 36  1  0  0  0  0
M  END
>  <MODEL>
2

>  <REMARK>
 VINA RESULT:      -7.1      1.682      3.344
  Name = 
  16 active torsions:
  status: ('A' for Active; 'I' for Inactive)
    1  A    between atoms: C_1  and  C_24
    2  A    between atoms: C_2  and  C_22
    3  A    between atoms: C_2  and  O_33
    4  A    between atoms: C_4  and  C_21
    5  A    between atoms: C_4  and  C_34
    6  A    between atoms: C_6  and  C_11
    7  A    between atoms: C_8  and  C_18
    8  A    between atoms: C_11  and  C_27
    9  A    between atoms: C_15  and  O_23
   10  A    between atoms: C_18  and  O_29
   11  A    between atoms: C_21  and  O_33
   12  A    between atoms: C_22  and  O_29
   13  A    between atoms: C_22  and  C_30
   14  A    between atoms: C_24  and  C_27
   15  A    between atoms: C_27  and  N_32
   16  A    between atoms: C_30  and  C_35
                            x       y       z     vdW  Elec       q    Type
                         _______ _______ _______ _____ _____    ______ ____

>  <TORSDO>
F 16

$$$$
=
 OpenBabel11062412253D

 37 39  0  0  1  0  0  0  0  0999 V2000
  186.8390  177.7700  144.7350 C   0  0  0  0  0  0  0  0  0  0  0  0
  185.7660  178.0930  143.9410 C   0  0  0  0  0  0  0  0  0  0  0  0
  185.4840  177.8850  142.5930 C   0  0  0  0  0  3  0  0  0  0  0  0
  184.8840  178.7020  144.7860 C   0  0  0  0  0  0  0  0  0  0  0  0
  185.4000  178.7520  145.9880 O   0  0  0  0  0  0  0  0  0  0  0  0
  183.3230  178.9730  142.9970 C   0  0  0  0  0  3  0  0  0  0  0  0
  186.5820  178.1900  145.9980 N   0  0  0  0  0  0  0  0  0  0  0  0
  184.2320  178.3370  142.1180 C   0  0  0  0  0  0  0  0  0  0  0  0
  183.6470  179.1660  144.3550 C   0  0  0  0  0  3  0  0  0  0  0  0
  188.0740  177.0310  144.3190 C   0  0  0  0  0  2  0  0  0  0  0  0
  189.2390  177.9320  143.8840 C   0  0  2  0  0  3  0  0  0  0  0  0
  190.1960  175.3850  142.7580 O   0  0  0  0  0  0  0  0  0  0  0  0
  190.1180  176.3960  142.0010 C   0  0  0  0  0  0  0  0  0  0  0  0
  189.6720  177.6590  142.5110 N   0  0  0  0  0  2  0  0  0  0  0  0
  191.0840  177.3700  139.9610 C   0  0  0  0  0  1  0  0  0  0  0  0
  190.4700  176.2970  140.6530 O   0  0  0  0  0  0  0  0  0  0  0  0
  190.4100  177.9770  144.8610 C   0  0  0  0  0  2  0  0  0  0  0  0
  190.3760  176.7870  145.8080 C   0  0  1  0  0  3  0  0  0  0  0  0
  191.6740  176.1260  145.7920 N   0  0  0  0  0  2  0  0  0  0  0  0
  191.3640  176.8280  147.9610 C   0  0  0  0  0  2  0  0  0  0  0  0
  190.1220  177.2520  147.2220 C   0  0  0  0  0  2  0  0  0  0  0  0
  192.3670  176.5270  146.9520 N   0  0  0  0  0  2  0  0  0  0  0  0
  183.8510  178.1610  140.6840 C   0  0  0  0  0  2  0  0  0  0  0  0
  183.9310  179.4700  139.9090 C   0  0  0  0  0  2  0  0  0  0  0  0
  185.0310  179.4570  139.0490 O   0  0  0  0  0  0  0  0  0  0  0  0
  185.2150  178.1100  138.7200 C   0  0  0  0  0  2  0  0  0  0  0  0
  185.9590  177.9720  137.3820 C   0  0  1  0  0  3  0  0  0  0  0  0
  187.3810  176.0180  136.6980 C   0  0  0  0  0  1  0  0  0  0  0  0
  187.3210  177.2860  137.5410 C   0  0  1  0  0  3  0  0  0  0  0  0
  188.4090  179.4290  137.5260 O   0  0  0  0  0  1  0  0  0  0  0  0
  189.6760  177.6630  136.8000 O   0  0  0  0  0  0  0  0  0  0  0  0
  188.4870  178.1960  137.2790 C   0  0  0  0  0  0  0  0  0  0  0  0
  185.1710  177.2800  136.4510 O   0  0  0  0  0  0  0  0  0  0  0  0
  184.0010  176.9420  137.1420 C   0  0  2  0  0  3  0  0  0  0  0  0
  183.8830  175.5530  137.2200 O   0  0  0  0  0  1  0  0  0  0  0  0
  182.7900  177.5090  136.4220 C   0  0  0  0  0  2  0  0  0  0  0  0
  182.0000  178.2330  137.3160 O   0  0  0  0  0  1  0  0  0  0  0  0
  1  7  2  0  0  0  0
  2  1  1  0  0  0  0
  2  4  1  0  0  0  0
  3  2  2  0  0  0  0
  4  5  1  0  0  0  0
  5  7  1  0  0  0  0
  6  9  1  0  0  0  0
  8  3  1  0  0  0  0
  8  6  2  0  0  0  0
  9  4  2  0  0  0  0
 10  1  1  0  0  0  0
 11 10  1  1  0  0  0
 11 17  1  0  0  0  0
 13 14  1  0  0  0  0
 13 12  2  0  0  0  0
 14 11  1  0  0  0  0
 15 16  1  0  0  0  0
 16 13  1  0  0  0  0
 18 17  1  6  0  0  0
 18 21  1  0  0  0  0
 19 18  1  0  0  0  0
 19 22  1  0  0  0  0
 21 20  1  0  0  0  0
 22 20  1  0  0  0  0
 23  8  1  0  0  0  0
 24 23  1  0  0  0  0
 25 24  1  0  0  0  0
 26 25  1  0  0  0  0
 27 29  1  0  0  0  0
 27 26  1  1  0  0  0
 29 28  1  6  0  0  0
 31 32  2  0  0  0  0
 32 30  1  0  0  0  0
 32 29  1  0  0  0  0
 33 34  1  0  0  0  0
 33 27  1  0  0  0  0
 34 35  1  6  0  0  0
 36 34  1  0  0  0  0
 36 37  1  0  0  0  0
M  END
>  <MODEL>
3

>  <REMARK>
 VINA RESULT:      -6.8      1.736      4.088
  Name = 
  16 active torsions:
  status: ('A' for Active; 'I' for Inactive)
    1  A    between atoms: C_1  and  C_24
    2  A    between atoms: C_2  and  C_22
    3  A    between atoms: C_2  and  O_33
    4  A    between atoms: C_4  and  C_21
    5  A    between atoms: C_4  and  C_34
    6  A    between atoms: C_6  and  C_11
    7  A    between atoms: C_8  and  C_18
    8  A    between atoms: C_11  and  C_27
    9  A    between atoms: C_15  and  O_23
   10  A    between atoms: C_18  and  O_29
   11  A    between atoms: C_21  and  O_33
   12  A    between atoms: C_22  and  O_29
   13  A    between atoms: C_22  and  C_30
   14  A    between atoms: C_24  and  C_27
   15  A    between atoms: C_27  and  N_32
   16  A    between atoms: C_30  and  C_35
                            x       y       z     vdW  Elec       q    Type
                         _______ _______ _______ _____ _____    ______ ____

>  <TORSDO>
F 16

$$$$
=
 OpenBabel11062412253D

 37 39  0  0  1  0  0  0  0  0999 V2000
  182.2340  178.2270  141.4310 C   0  0  0  0  0  0  0  0  0  0  0  0
  183.2440  178.3620  142.3520 C   0  0  0  0  0  0  0  0  0  0  0  0
  184.5610  177.9090  142.3920 C   0  0  0  0  0  3  0  0  0  0  0  0
  182.7090  179.1360  143.3400 C   0  0  0  0  0  0  0  0  0  0  0  0
  181.4690  179.4260  143.0390 O   0  0  0  0  0  0  0  0  0  0  0  0
  184.7760  179.0780  144.5380 C   0  0  0  0  0  3  0  0  0  0  0  0
  181.1470  178.8980  141.8850 N   0  0  0  0  0  0  0  0  0  0  0  0
  185.3380  178.2800  143.5120 C   0  0  0  0  0  0  0  0  0  0  0  0
  183.4390  179.5150  144.4610 C   0  0  0  0  0  3  0  0  0  0  0  0
  182.3060  177.5130  140.1170 C   0  0  0  0  0  2  0  0  0  0  0  0
  182.8670  178.3570  138.9640 C   0  0  2  0  0  3  0  0  0  0  0  0
  182.5420  181.2630  138.6140 O   0  0  0  0  0  0  0  0  0  0  0  0
  181.7040  180.4860  138.0710 C   0  0  0  0  0  0  0  0  0  0  0  0
  181.8150  179.0660  138.2290 N   0  0  0  0  0  2  0  0  0  0  0  0
  179.3030  180.6480  137.5680 C   0  0  0  0  0  1  0  0  0  0  0  0
  180.6510  181.0020  137.3130 O   0  0  0  0  0  0  0  0  0  0  0  0
  183.8190  177.6130  138.0330 C   0  0  0  0  0  2  0  0  0  0  0  0
  185.0590  178.4440  137.7420 C   0  0  1  0  0  3  0  0  0  0  0  0
  185.3860  179.2420  138.9160 N   0  0  0  0  0  2  0  0  0  0  0  0
  187.2090  177.8820  138.5640 C   0  0  0  0  0  2  0  0  0  0  0  0
  186.2390  177.5450  137.4620 C   0  0  0  0  0  2  0  0  0  0  0  0
  186.4540  178.6020  139.5780 N   0  0  0  0  0  2  0  0  0  0  0  0
  186.7580  177.8310  143.6390 C   0  0  0  0  0  2  0  0  0  0  0  0
  187.1710  177.6530  145.0950 C   0  0  0  0  0  2  0  0  0  0  0  0
  188.4340  178.2090  145.3110 O   0  0  0  0  0  0  0  0  0  0  0  0
  189.2340  177.1370  145.7190 C   0  0  0  0  0  2  0  0  0  0  0  0
  190.5330  177.0830  144.8990 C   0  0  1  0  0  3  0  0  0  0  0  0
  191.4340  179.2260  143.9490 C   0  0  0  0  0  1  0  0  0  0  0  0
  190.5070  178.0440  143.7030 C   0  0  1  0  0  3  0  0  0  0  0  0
  191.9470  177.3410  141.9110 O   0  0  0  0  0  1  0  0  0  0  0  0
  189.7430  176.7450  141.7110 O   0  0  0  0  0  0  0  0  0  0  0  0
  190.7800  177.3730  142.3870 C   0  0  0  0  0  0  0  0  0  0  0  0
  191.6400  177.3530  145.7150 O   0  0  0  0  0  0  0  0  0  0  0  0
  191.4320  176.5970  146.8750 C   0  0  2  0  0  3  0  0  0  0  0  0
  191.6630  177.3880  148.0020 O   0  0  0  0  0  1  0  0  0  0  0  0
  192.3750  175.4060  146.8960 C   0  0  0  0  0  2  0  0  0  0  0  0
  193.2150  175.4840  148.0070 O   0  0  0  0  0  1  0  0  0  0  0  0
  1  7  2  0  0  0  0
  1  2  1  0  0  0  0
  2  3  2  0  0  0  0
  2  4  1  0  0  0  0
  3  8  1  0  0  0  0
  4  9  2  0  0  0  0
  5  4  1  0  0  0  0
  7  5  1  0  0  0  0
  8 23  1  0  0  0  0
  8  6  2  0  0  0  0
  9  6  1  0  0  0  0
 10  1  1  0  0  0  0
 11 17  1  6  0  0  0
 11 10  1  0  0  0  0
 13 14  1  0  0  0  0
 13 12  2  0  0  0  0
 14 11  1  0  0  0  0
 16 15  1  0  0  0  0
 16 13  1  0  0  0  0
 18 17  1  1  0  0  0
 18 19  1  0  0  0  0
 19 22  1  0  0  0  0
 20 22  1  0  0  0  0
 21 18  1  0  0  0  0
 21 20  1  0  0  0  0
 23 24  1  0  0  0  0
 24 25  1  0  0  0  0
 25 26  1  0  0  0  0
 27 33  1  0  0  0  0
 27 26  1  1  0  0  0
 29 28  1  1  0  0  0
 29 27  1  0  0  0  0
 30 32  1  0  0  0  0
 31 32  2  0  0  0  0
 32 29  1  0  0  0  0
 33 34  1  0  0  0  0
 34 36  1  0  0  0  0
 34 35  1  1  0  0  0
 36 37  1  0  0  0  0
M  END
>  <MODEL>
4

>  <REMARK>
 VINA RESULT:      -6.8      3.302      8.527
  Name = 
  16 active torsions:
  status: ('A' for Active; 'I' for Inactive)
    1  A    between atoms: C_1  and  C_24
    2  A    between atoms: C_2  and  C_22
    3  A    between atoms: C_2  and  O_33
    4  A    between atoms: C_4  and  C_21
    5  A    between atoms: C_4  and  C_34
    6  A    between atoms: C_6  and  C_11
    7  A    between atoms: C_8  and  C_18
    8  A    between atoms: C_11  and  C_27
    9  A    between atoms: C_15  and  O_23
   10  A    between atoms: C_18  and  O_29
   11  A    between atoms: C_21  and  O_33
   12  A    between atoms: C_22  and  O_29
   13  A    between atoms: C_22  and  C_30
   14  A    between atoms: C_24  and  C_27
   15  A    between atoms: C_27  and  N_32
   16  A    between atoms: C_30  and  C_35
                            x       y       z     vdW  Elec       q    Type
                         _______ _______ _______ _____ _____    ______ ____

>  <TORSDO>
F 16

$$$$
=
 OpenBabel11062412253D

 37 39  0  0  1  0  0  0  0  0999 V2000
  183.3400  179.0370  140.5690 C   0  0  0  0  0  0  0  0  0  0  0  0
  183.4730  178.9960  141.9360 C   0  0  0  0  0  0  0  0  0  0  0  0
  184.5570  179.1810  142.7910 C   0  0  0  0  0  3  0  0  0  0  0  0
  182.2140  178.7460  142.3970 C   0  0  0  0  0  0  0  0  0  0  0  0
  181.3960  178.6310  141.3820 O   0  0  0  0  0  0  0  0  0  0  0  0
  182.9990  178.8310  144.6530 C   0  0  0  0  0  3  0  0  0  0  0  0
  182.0400  178.8080  140.2570 N   0  0  0  0  0  0  0  0  0  0  0  0
  184.3060  179.0960  144.1790 C   0  0  0  0  0  0  0  0  0  0  0  0
  181.9290  178.6480  143.7550 C   0  0  0  0  0  3  0  0  0  0  0  0
  184.4150  179.3350  139.5700 C   0  0  0  0  0  2  0  0  0  0  0  0
  185.1380  178.0950  139.0240 C   0  0  2  0  0  3  0  0  0  0  0  0
  187.4820  178.2340  140.8000 O   0  0  0  0  0  0  0  0  0  0  0  0
  187.6450  178.4190  139.5590 C   0  0  0  0  0  0  0  0  0  0  0  0
  186.5290  178.3760  138.6610 N   0  0  0  0  0  2  0  0  0  0  0  0
  189.1380  178.8630  137.6570 C   0  0  0  0  0  1  0  0  0  0  0  0
  188.9180  178.6740  139.0440 O   0  0  0  0  0  0  0  0  0  0  0  0
  184.3900  177.3570  137.9170 C   0  0  0  0  0  2  0  0  0  0  0  0
  185.3440  176.5190  137.0790 C   0  0  1  0  0  3  0  0  0  0  0  0
  184.9290  175.1240  137.1350 N   0  0  0  0  0  2  0  0  0  0  0  0
  184.7960  175.7210  134.9170 C   0  0  0  0  0  2  0  0  0  0  0  0
  185.2880  176.9510  135.6340 C   0  0  0  0  0  2  0  0  0  0  0  0
  184.2490  174.8360  135.9340 N   0  0  0  0  0  2  0  0  0  0  0  0
  185.4130  179.2730  145.1670 C   0  0  0  0  0  2  0  0  0  0  0  0
  185.9480  177.9380  145.6690 C   0  0  0  0  0  2  0  0  0  0  0  0
  187.3430  177.9690  145.7320 O   0  0  0  0  0  0  0  0  0  0  0  0
  187.7690  177.6110  144.4490 C   0  0  0  0  0  2  0  0  0  0  0  0
  189.2860  177.3650  144.4280 C   0  0  1  0  0  3  0  0  0  0  0  0
  190.9950  179.0430  143.6710 C   0  0  0  0  0  1  0  0  0  0  0  0
  189.9650  178.0180  143.2160 C   0  0  1  0  0  3  0  0  0  0  0  0
  191.1990  177.4170  141.2430 O   0  0  0  0  0  0  0  0  0  0  0  0
  190.3810  175.6680  142.4790 O   0  0  0  0  0  1  0  0  0  0  0  0
  190.5410  177.0270  142.2450 C   0  0  0  0  0  0  0  0  0  0  0  0
  189.8740  177.8190  145.6170 O   0  0  0  0  0  0  0  0  0  0  0  0
  190.2380  176.6590  146.3110 C   0  0  2  0  0  3  0  0  0  0  0  0
  189.7030  176.6920  147.6000 O   0  0  0  0  0  1  0  0  0  0  0  0
  191.7520  176.5590  146.3990 C   0  0  0  0  0  2  0  0  0  0  0  0
  192.1130  175.6980  147.4350 O   0  0  0  0  0  1  0  0  0  0  0  0
  1  2  1  0  0  0  0
  2  4  2  0  0  0  0
  2  3  1  0  0  0  0
  3  8  2  0  0  0  0
  4  9  1  0  0  0  0
  5  4  1  0  0  0  0
  7  1  2  0  0  0  0
  7  5  1  0  0  0  0
  8  6  1  0  0  0  0
  8 23  1  0  0  0  0
  9  6  2  0  0  0  0
 10  1  1  0  0  0  0
 11 17  1  6  0  0  0
 11 10  1  0  0  0  0
 13 12  2  0  0  0  0
 14 11  1  0  0  0  0
 14 13  1  0  0  0  0
 15 16  1  0  0  0  0
 16 13  1  0  0  0  0
 18 19  1  0  0  0  0
 18 17  1  1  0  0  0
 20 21  1  0  0  0  0
 20 22  1  0  0  0  0
 21 18  1  0  0  0  0
 22 19  1  0  0  0  0
 23 24  1  0  0  0  0
 24 25  1  0  0  0  0
 26 25  1  0  0  0  0
 27 26  1  1  0  0  0
 27 33  1  0  0  0  0
 29 28  1  1  0  0  0
 29 27  1  0  0  0  0
 30 32  2  0  0  0  0
 32 31  1  0  0  0  0
 32 29  1  0  0  0  0
 33 34  1  0  0  0  0
 34 36  1  0  0  0  0
 34 35  1  1  0  0  0
 36 37  1  0  0  0  0
M  END
>  <MODEL>
5

>  <REMARK>
 VINA RESULT:      -6.7      3.054      7.521
  Name = 
  16 active torsions:
  status: ('A' for Active; 'I' for Inactive)
    1  A    between atoms: C_1  and  C_24
    2  A    between atoms: C_2  and  C_22
    3  A    between atoms: C_2  and  O_33
    4  A    between atoms: C_4  and  C_21
    5  A    between atoms: C_4  and  C_34
    6  A    between atoms: C_6  and  C_11
    7  A    between atoms: C_8  and  C_18
    8  A    between atoms: C_11  and  C_27
    9  A    between atoms: C_15  and  O_23
   10  A    between atoms: C_18  and  O_29
   11  A    between atoms: C_21  and  O_33
   12  A    between atoms: C_22  and  O_29
   13  A    between atoms: C_22  and  C_30
   14  A    between atoms: C_24  and  C_27
   15  A    between atoms: C_27  and  N_32
   16  A    between atoms: C_30  and  C_35
                            x       y       z     vdW  Elec       q    Type
                         _______ _______ _______ _____ _____    ______ ____

>  <TORSDO>
F 16

$$$$
=
 OpenBabel11062412253D

 37 39  0  0  1  0  0  0  0  0999 V2000
  181.3930  178.9240  140.7330 C   0  0  0  0  0  0  0  0  0  0  0  0
  182.1490  178.8270  141.8760 C   0  0  0  0  0  0  0  0  0  0  0  0
  183.5190  178.7170  142.1020 C   0  0  0  0  0  3  0  0  0  0  0  0
  181.2440  178.8970  142.8940 C   0  0  0  0  0  0  0  0  0  0  0  0
  180.0400  179.0100  142.3960 O   0  0  0  0  0  0  0  0  0  0  0  0
  183.0070  178.7410  144.5010 C   0  0  0  0  0  3  0  0  0  0  0  0
  180.0900  179.0370  141.0880 N   0  0  0  0  0  0  0  0  0  0  0  0
  183.9500  178.6740  143.4480 C   0  0  0  0  0  0  0  0  0  0  0  0
  181.6280  178.8510  144.2300 C   0  0  0  0  0  3  0  0  0  0  0  0
  181.8970  178.9560  139.3230 C   0  0  0  0  0  2  0  0  0  0  0  0
  182.2650  177.5810  138.7470 C   0  0  2  0  0  3  0  0  0  0  0  0
  179.7630  176.5650  137.5720 O   0  0  0  0  0  0  0  0  0  0  0  0
  180.1930  176.0400  138.6400 C   0  0  0  0  0  0  0  0  0  0  0  0
  181.3980  176.5140  139.2540 N   0  0  0  0  0  2  0  0  0  0  0  0
  179.0220  173.8840  138.4920 C   0  0  0  0  0  1  0  0  0  0  0  0
  179.4960  174.9900  139.2400 O   0  0  0  0  0  0  0  0  0  0  0  0
  183.7440  177.2220  138.8510 C   0  0  0  0  0  2  0  0  0  0  0  0
  184.6070  178.2440  138.1250 C   0  0  1  0  0  3  0  0  0  0  0  0
  185.4040  178.9760  139.1010 N   0  0  0  0  0  2  0  0  0  0  0  0
  186.9200  177.9240  137.7260 C   0  0  0  0  0  2  0  0  0  0  0  0
  185.5640  177.5490  137.1880 C   0  0  0  0  0  2  0  0  0  0  0  0
  186.7070  178.4400  139.0700 N   0  0  0  0  0  2  0  0  0  0  0  0
  185.4010  178.5480  143.7820 C   0  0  0  0  0  2  0  0  0  0  0  0
  186.2060  177.9800  142.6200 C   0  0  0  0  0  2  0  0  0  0  0  0
  187.5740  178.1170  142.8660 O   0  0  0  0  0  0  0  0  0  0  0  0
  187.7710  177.5480  144.1280 C   0  0  0  0  0  2  0  0  0  0  0  0
  189.2700  177.4220  144.4400 C   0  0  1  0  0  3  0  0  0  0  0  0
  191.1080  179.0540  143.9270 C   0  0  0  0  0  1  0  0  0  0  0  0
  190.1480  178.0290  143.3380 C   0  0  1  0  0  3  0  0  0  0  0  0
  191.9380  177.2850  141.9160 O   0  0  0  0  0  0  0  0  0  0  0  0
  190.3370  175.7190  142.4080 O   0  0  0  0  0  1  0  0  0  0  0  0
  190.8580  177.0030  142.5010 C   0  0  0  0  0  0  0  0  0  0  0  0
  189.5660  178.0110  145.6780 O   0  0  0  0  0  0  0  0  0  0  0  0
  189.4850  176.9680  146.6080 C   0  0  2  0  0  3  0  0  0  0  0  0
  188.4130  177.1890  147.4740 O   0  0  0  0  0  1  0  0  0  0  0  0
  190.7720  176.8880  147.4120 C   0  0  0  0  0  2  0  0  0  0  0  0
  191.8710  176.8960  146.5530 O   0  0  0  0  0  1  0  0  0  0  0  0
  1  7  2  0  0  0  0
  1  2  1  0  0  0  0
  2  3  2  0  0  0  0
  2  4  1  0  0  0  0
  3  8  1  0  0  0  0
  4  9  2  0  0  0  0
  5  4  1  0  0  0  0
  7  5  1  0  0  0  0
  8 23  1  0  0  0  0
  8  6  2  0  0  0  0
  9  6  1  0  0  0  0
 10  1  1  0  0  0  0
 11 17  1  1  0  0  0
 11 14  1  0  0  0  0
 11 10  1  0  0  0  0
 12 13  2  0  0  0  0
 13 16  1  0  0  0  0
 13 14  1  0  0  0  0
 15 16  1  0  0  0  0
 18 17  1  1  0  0  0
 18 19  1  0  0  0  0
 20 22  1  0  0  0  0
 21 20  1  0  0  0  0
 21 18  1  0  0  0  0
 22 19  1  0  0  0  0
 24 25  1  0  0  0  0
 24 23  1  0  0  0  0
 25 26  1  0  0  0  0
 27 26  1  6  0  0  0
 27 33  1  0  0  0  0
 29 28  1  1  0  0  0
 29 27  1  0  0  0  0
 30 32  2  0  0  0  0
 31 32  1  0  0  0  0
 32 29  1  0  0  0  0
 33 34  1  0  0  0  0
 34 36  1  0  0  0  0
 34 35  1  1  0  0  0
 37 36  1  0  0  0  0
M  END
>  <MODEL>
6

>  <REMARK>
 VINA RESULT:      -6.6      3.460      8.284
  Name = 
  16 active torsions:
  status: ('A' for Active; 'I' for Inactive)
    1  A    between atoms: C_1  and  C_24
    2  A    between atoms: C_2  and  C_22
    3  A    between atoms: C_2  and  O_33
    4  A    between atoms: C_4  and  C_21
    5  A    between atoms: C_4  and  C_34
    6  A    between atoms: C_6  and  C_11
    7  A    between atoms: C_8  and  C_18
    8  A    between atoms: C_11  and  C_27
    9  A    between atoms: C_15  and  O_23
   10  A    between atoms: C_18  and  O_29
   11  A    between atoms: C_21  and  O_33
   12  A    between atoms: C_22  and  O_29
   13  A    between atoms: C_22  and  C_30
   14  A    between atoms: C_24  and  C_27
   15  A    between atoms: C_27  and  N_32
   16  A    between atoms: C_30  and  C_35
                            x       y       z     vdW  Elec       q    Type
                         _______ _______ _______ _____ _____    ______ ____

>  <TORSDO>
F 16

$$$$
=
 OpenBabel11062412253D

 37 39  0  0  1  0  0  0  0  0999 V2000
  181.8740  178.5360  140.4750 C   0  0  0  0  0  0  0  0  0  0  0  0
  182.4680  178.5960  141.7120 C   0  0  0  0  0  0  0  0  0  0  0  0
  183.7960  178.5700  142.1300 C   0  0  0  0  0  3  0  0  0  0  0  0
  181.4300  178.7360  142.5860 C   0  0  0  0  0  0  0  0  0  0  0  0
  180.3020  178.7420  141.9220 O   0  0  0  0  0  0  0  0  0  0  0  0
  182.9580  178.8320  144.4210 C   0  0  0  0  0  3  0  0  0  0  0  0
  180.5310  178.6300  140.6380 N   0  0  0  0  0  0  0  0  0  0  0  0
  184.0390  178.6920  143.5180 C   0  0  0  0  0  0  0  0  0  0  0  0
  181.6270  178.8520  143.9570 C   0  0  0  0  0  3  0  0  0  0  0  0
  182.5650  178.4370  139.1500 C   0  0  0  0  0  2  0  0  0  0  0  0
  183.5400  177.2580  139.0260 C   0  0  2  0  0  3  0  0  0  0  0  0
  186.0870  178.7350  139.0620 O   0  0  0  0  0  0  0  0  0  0  0  0
  185.7340  178.1530  137.9950 C   0  0  0  0  0  0  0  0  0  0  0  0
  184.4950  177.4360  137.9290 N   0  0  0  0  0  2  0  0  0  0  0  0
  187.9600  178.2310  136.9560 C   0  0  0  0  0  1  0  0  0  0  0  0
  186.5470  178.2040  136.8610 O   0  0  0  0  0  0  0  0  0  0  0  0
  182.8770  175.8830  138.9970 C   0  0  0  0  0  2  0  0  0  0  0  0
  181.8150  175.8130  137.9100 C   0  0  1  0  0  3  0  0  0  0  0  0
  182.1860  174.7870  136.9450 N   0  0  0  0  0  2  0  0  0  0  0  0
  180.1710  174.1090  137.8260 C   0  0  0  0  0  2  0  0  0  0  0  0
  180.4850  175.4170  138.5040 C   0  0  0  0  0  2  0  0  0  0  0  0
  181.4120  173.6430  137.2240 N   0  0  0  0  0  2  0  0  0  0  0  0
  185.4330  178.6670  144.0540 C   0  0  0  0  0  2  0  0  0  0  0  0
  186.3600  177.8200  143.1920 C   0  0  0  0  0  2  0  0  0  0  0  0
  187.0770  176.9230  143.9870 O   0  0  0  0  0  0  0  0  0  0  0  0
  187.7580  177.7250  144.9080 C   0  0  0  0  0  2  0  0  0  0  0  0
  189.2710  177.4650  144.8430 C   0  0  1  0  0  3  0  0  0  0  0  0
  191.0030  179.0320  143.9180 C   0  0  0  0  0  1  0  0  0  0  0  0
  189.9060  178.0350  143.5680 C   0  0  1  0  0  3  0  0  0  0  0  0
  191.0160  177.2970  141.5680 O   0  0  0  0  0  0  0  0  0  0  0  0
  190.1600  175.6420  142.9020 O   0  0  0  0  0  1  0  0  0  0  0  0
  190.3830  176.9810  142.6110 C   0  0  0  0  0  0  0  0  0  0  0  0
  189.9090  177.9860  145.9780 O   0  0  0  0  0  0  0  0  0  0  0  0
  189.7430  177.0120  146.9700 C   0  0  2  0  0  3  0  0  0  0  0  0
  189.1360  177.5780  148.0920 O   0  0  0  0  0  1  0  0  0  0  0  0
  191.0920  176.4370  147.3650 C   0  0  0  0  0  2  0  0  0  0  0  0
  192.0350  176.7110  146.3740 O   0  0  0  0  0  1  0  0  0  0  0  0
  1  7  2  0  0  0  0
  1  2  1  0  0  0  0
  2  3  2  0  0  0  0
  2  4  1  0  0  0  0
  3  8  1  0  0  0  0
  4  9  2  0  0  0  0
  5  4  1  0  0  0  0
  7  5  1  0  0  0  0
  8 23  1  0  0  0  0
  8  6  2  0  0  0  0
  9  6  1  0  0  0  0
 10  1  1  0  0  0  0
 11 17  1  6  0  0  0
 11 10  1  0  0  0  0
 13 12  2  0  0  0  0
 14 13  1  0  0  0  0
 14 11  1  0  0  0  0
 16 15  1  0  0  0  0
 16 13  1  0  0  0  0
 18 21  1  0  0  0  0
 18 17  1  1  0  0  0
 19 22  1  0  0  0  0
 19 18  1  0  0  0  0
 20 21  1  0  0  0  0
 22 20  1  0  0  0  0
 24 25  1  0  0  0  0
 24 23  1  0  0  0  0
 25 26  1  0  0  0  0
 27 26  1  1  0  0  0
 27 33  1  0  0  0  0
 29 28  1  1  0  0  0
 29 27  1  0  0  0  0
 30 32  2  0  0  0  0
 32 31  1  0  0  0  0
 32 29  1  0  0  0  0
 33 34  1  0  0  0  0
 34 36  1  0  0  0  0
 34 35  1  1  0  0  0
 37 36  1  0  0  0  0
M  END
>  <MODEL>
7

>  <REMARK>
 VINA RESULT:      -6.6      3.554      8.241
  Name = 
  16 active torsions:
  status: ('A' for Active; 'I' for Inactive)
    1  A    between atoms: C_1  and  C_24
    2  A    between atoms: C_2  and  C_22
    3  A    between atoms: C_2  and  O_33
    4  A    between atoms: C_4  and  C_21
    5  A    between atoms: C_4  and  C_34
    6  A    between atoms: C_6  and  C_11
    7  A    between atoms: C_8  and  C_18
    8  A    between atoms: C_11  and  C_27
    9  A    between atoms: C_15  and  O_23
   10  A    between atoms: C_18  and  O_29
   11  A    between atoms: C_21  and  O_33
   12  A    between atoms: C_22  and  O_29
   13  A    between atoms: C_22  and  C_30
   14  A    between atoms: C_24  and  C_27
   15  A    between atoms: C_27  and  N_32
   16  A    between atoms: C_30  and  C_35
                            x       y       z     vdW  Elec       q    Type
                         _______ _______ _______ _____ _____    ______ ____

>  <TORSDO>
F 16

$$$$
=
 OpenBabel11062412253D

 37 39  0  0  1  0  0  0  0  0999 V2000
  182.0830  178.5160  141.0090 C   0  0  0  0  0  0  0  0  0  0  0  0
  183.0030  178.5590  142.0290 C   0  0  0  0  0  0  0  0  0  0  0  0
  184.3590  178.2500  142.0980 C   0  0  0  0  0  3  0  0  0  0  0  0
  182.3090  179.0430  143.0980 C   0  0  0  0  0  0  0  0  0  0  0  0
  181.0660  179.2570  142.7470 O   0  0  0  0  0  0  0  0  0  0  0  0
  184.2790  178.9530  144.4470 C   0  0  0  0  0  3  0  0  0  0  0  0
  180.8930  178.9560  141.4850 N   0  0  0  0  0  0  0  0  0  0  0  0
  185.0060  178.4550  143.3380 C   0  0  0  0  0  0  0  0  0  0  0  0
  182.9070  179.2520  144.3360 C   0  0  0  0  0  3  0  0  0  0  0  0
  182.3340  178.1090  139.5890 C   0  0  0  0  0  2  0  0  0  0  0  0
  182.9630  179.2030  138.7150 C   0  0  2  0  0  3  0  0  0  0  0  0
  185.0200  177.4100  137.6090 O   0  0  0  0  0  0  0  0  0  0  0  0
  185.3850  178.3950  138.3140 C   0  0  0  0  0  0  0  0  0  0  0  0
  184.4170  179.2840  138.8850 N   0  0  0  0  0  2  0  0  0  0  0  0
  187.6660  177.5690  138.7080 C   0  0  0  0  0  1  0  0  0  0  0  0
  186.7410  178.6300  138.5510 O   0  0  0  0  0  0  0  0  0  0  0  0
  182.2920  180.5700  138.8230 C   0  0  0  0  0  2  0  0  0  0  0  0
  180.9190  180.5570  138.1680 C   0  0  1  0  0  3  0  0  0  0  0  0
  179.9420  181.1070  139.0960 N   0  0  0  0  0  2  0  0  0  0  0  0
  179.9060  182.4980  137.2640 C   0  0  0  0  0  2  0  0  0  0  0  0
  180.9190  181.4320  136.9370 C   0  0  0  0  0  2  0  0  0  0  0  0
  179.6820  182.4340  138.7000 N   0  0  0  0  0  2  0  0  0  0  0  0
  186.4580  178.1430  143.5040 C   0  0  0  0  0  2  0  0  0  0  0  0
  186.7800  177.6640  144.9140 C   0  0  0  0  0  2  0  0  0  0  0  0
  187.8280  176.7420  144.8840 O   0  0  0  0  0  0  0  0  0  0  0  0
  188.8450  177.3280  145.6450 C   0  0  0  0  0  2  0  0  0  0  0  0
  190.1840  177.2840  144.8920 C   0  0  1  0  0  3  0  0  0  0  0  0
  191.2910  179.2930  143.8700 C   0  0  0  0  0  1  0  0  0  0  0  0
  190.2080  178.2380  143.6910 C   0  0  1  0  0  3  0  0  0  0  0  0
  189.3030  176.9970  141.8410 O   0  0  0  0  0  1  0  0  0  0  0  0
  191.5310  177.5170  141.6990 O   0  0  0  0  0  0  0  0  0  0  0  0
  190.3140  177.5350  142.3670 C   0  0  0  0  0  0  0  0  0  0  0  0
  191.2460  177.5700  145.7610 O   0  0  0  0  0  0  0  0  0  0  0  0
  192.0560  176.4280  145.7370 C   0  0  2  0  0  3  0  0  0  0  0  0
  191.6000  175.5460  144.7550 O   0  0  0  0  0  1  0  0  0  0  0  0
  192.0190  175.7360  147.0890 C   0  0  0  0  0  2  0  0  0  0  0  0
  192.1220  176.6800  148.1100 O   0  0  0  0  0  1  0  0  0  0  0  0
  1  7  2  0  0  0  0
  1  2  1  0  0  0  0
  2  3  2  0  0  0  0
  2  4  1  0  0  0  0
  3  8  1  0  0  0  0
  4  9  2  0  0  0  0
  5  4  1  0  0  0  0
  7  5  1  0  0  0  0
  8 23  1  0  0  0  0
  8  6  2  0  0  0  0
  9  6  1  0  0  0  0
 10  1  1  0  0  0  0
 11 17  1  1  0  0  0
 11 14  1  0  0  0  0
 11 10  1  0  0  0  0
 12 13  2  0  0  0  0
 13 16  1  0  0  0  0
 13 14  1  0  0  0  0
 16 15  1  0  0  0  0
 18 17  1  1  0  0  0
 18 19  1  0  0  0  0
 20 22  1  0  0  0  0
 21 20  1  0  0  0  0
 21 18  1  0  0  0  0
 22 19  1  0  0  0  0
 23 24  1  0  0  0  0
 25 24  1  0  0  0  0
 25 26  1  0  0  0  0
 27 26  1  1  0  0  0
 27 33  1  0  0  0  0
 29 28  1  1  0  0  0
 29 27  1  0  0  0  0
 30 32  1  0  0  0  0
 31 32  2  0  0  0  0
 32 29  1  0  0  0  0
 34 35  1  6  0  0  0
 34 33  1  0  0  0  0
 34 36  1  0  0  0  0
 36 37  1  0  0  0  0
M  END
>  <MODEL>
8

>  <REMARK>
 VINA RESULT:      -6.6      3.804      8.492
  Name = 
  16 active torsions:
  status: ('A' for Active; 'I' for Inactive)
    1  A    between atoms: C_1  and  C_24
    2  A    between atoms: C_2  and  C_22
    3  A    between atoms: C_2  and  O_33
    4  A    between atoms: C_4  and  C_21
    5  A    between atoms: C_4  and  C_34
    6  A    between atoms: C_6  and  C_11
    7  A    between atoms: C_8  and  C_18
    8  A    between atoms: C_11  and  C_27
    9  A    between atoms: C_15  and  O_23
   10  A    between atoms: C_18  and  O_29
   11  A    between atoms: C_21  and  O_33
   12  A    between atoms: C_22  and  O_29
   13  A    between atoms: C_22  and  C_30
   14  A    between atoms: C_24  and  C_27
   15  A    between atoms: C_27  and  N_32
   16  A    between atoms: C_30  and  C_35
                            x       y       z     vdW  Elec       q    Type
                         _______ _______ _______ _____ _____    ______ ____

>  <TORSDO>
F 16

$$$$
=
 OpenBabel11062412253D

 37 39  0  0  1  0  0  0  0  0999 V2000
  189.5560  177.4590  142.1420 C   0  0  0  0  0  0  0  0  0  0  0  0
  188.9750  177.4620  143.3860 C   0  0  0  0  0  0  0  0  0  0  0  0
  187.6570  177.5950  143.8200 C   0  0  0  0  0  3  0  0  0  0  0  0
  190.0100  177.2580  144.2510 C   0  0  0  0  0  0  0  0  0  0  0  0
  191.1250  177.1560  143.5740 O   0  0  0  0  0  0  0  0  0  0  0  0
  188.5020  177.3050  146.1040 C   0  0  0  0  0  3  0  0  0  0  0  0
  190.8890  177.2660  142.2910 N   0  0  0  0  0  0  0  0  0  0  0  0
  187.4240  177.5120  145.2110 C   0  0  0  0  0  0  0  0  0  0  0  0
  189.8210  177.1780  145.6260 C   0  0  0  0  0  3  0  0  0  0  0  0
  188.8580  177.5900  140.8230 C   0  0  0  0  0  2  0  0  0  0  0  0
  189.4690  176.7490  139.6930 C   0  0  2  0  0  3  0  0  0  0  0  0
  191.4550  175.1270  138.2450 O   0  0  0  0  0  0  0  0  0  0  0  0
  191.8240  176.2180  138.7710 C   0  0  0  0  0  0  0  0  0  0  0  0
  190.8940  177.0300  139.4980 N   0  0  0  0  0  2  0  0  0  0  0  0
  193.8850  177.1070  139.7740 C   0  0  0  0  0  1  0  0  0  0  0  0
  193.1480  176.6450  138.6550 O   0  0  0  0  0  0  0  0  0  0  0  0
  188.6900  176.7810  138.3820 C   0  0  0  0  0  2  0  0  0  0  0  0
  187.6250  177.8670  138.4060 C   0  0  1  0  0  3  0  0  0  0  0  0
  188.0680  178.9890  137.5910 N   0  0  0  0  0  2  0  0  0  0  0  0
  186.1270  178.2410  136.6090 C   0  0  0  0  0  2  0  0  0  0  0  0
  186.3390  177.3510  137.8060 C   0  0  0  0  0  2  0  0  0  0  0  0
  187.3950  178.9080  136.3550 N   0  0  0  0  0  2  0  0  0  0  0  0
  186.0420  177.6510  145.7630 C   0  0  0  0  0  2  0  0  0  0  0  0
  185.2610  178.7610  145.0710 C   0  0  0  0  0  2  0  0  0  0  0  0
  184.5790  178.2550  143.9630 O   0  0  0  0  0  0  0  0  0  0  0  0
  183.5300  179.1540  143.7440 C   0  0  0  0  0  2  0  0  0  0  0  0
  182.9470  178.9780  142.3330 C   0  0  1  0  0  3  0  0  0  0  0  0
  183.1580  177.4050  140.3860 C   0  0  0  0  0  1  0  0  0  0  0  0
  183.9210  178.2640  141.3850 C   0  0  1  0  0  3  0  0  0  0  0  0
  186.0210  179.4210  141.2190 O   0  0  0  0  0  1  0  0  0  0  0  0
  184.5530  179.7670  139.4930 O   0  0  0  0  0  0  0  0  0  0  0  0
  184.8910  179.1920  140.7110 C   0  0  0  0  0  0  0  0  0  0  0  0
  181.7280  178.2880  142.3870 O   0  0  0  0  0  0  0  0  0  0  0  0
  180.8200  179.1950  142.9480 C   0  0  2  0  0  3  0  0  0  0  0  0
  180.0720  178.5600  143.9420 O   0  0  0  0  0  1  0  0  0  0  0  0
  179.8830  179.7230  141.8750 C   0  0  0  0  0  2  0  0  0  0  0  0
  179.6550  181.0850  142.0710 O   0  0  0  0  0  1  0  0  0  0  0  0
  1  7  2  0  0  0  0
  1  2  1  0  0  0  0
  2  3  2  0  0  0  0
  2  4  1  0  0  0  0
  3  8  1  0  0  0  0
  4  9  2  0  0  0  0
  5  4  1  0  0  0  0
  7  5  1  0  0  0  0
  8 23  1  0  0  0  0
  8  6  2  0  0  0  0
  9  6  1  0  0  0  0
 10  1  1  0  0  0  0
 11 17  1  6  0  0  0
 11 10  1  0  0  0  0
 12 13  2  0  0  0  0
 13 14  1  0  0  0  0
 14 11  1  0  0  0  0
 16 13  1  0  0  0  0
 16 15  1  0  0  0  0
 18 17  1  6  0  0  0
 19 18  1  0  0  0  0
 20 21  1  0  0  0  0
 21 18  1  0  0  0  0
 22 20  1  0  0  0  0
 22 19  1  0  0  0  0
 24 23  1  0  0  0  0
 25 24  1  0  0  0  0
 26 25  1  0  0  0  0
 27 33  1  0  0  0  0
 27 26  1  1  0  0  0
 29 28  1  6  0  0  0
 29 27  1  0  0  0  0
 31 32  2  0  0  0  0
 32 30  1  0  0  0  0
 32 29  1  0  0  0  0
 33 34  1  0  0  0  0
 34 35  1  1  0  0  0
 36 37  1  0  0  0  0
 36 34  1  0  0  0  0
M  END
>  <MODEL>
9

>  <REMARK>
 VINA RESULT:      -6.5      2.791      6.550
  Name = 
  16 active torsions:
  status: ('A' for Active; 'I' for Inactive)
    1  A    between atoms: C_1  and  C_24
    2  A    between atoms: C_2  and  C_22
    3  A    between atoms: C_2  and  O_33
    4  A    between atoms: C_4  and  C_21
    5  A    between atoms: C_4  and  C_34
    6  A    between atoms: C_6  and  C_11
    7  A    between atoms: C_8  and  C_18
    8  A    between atoms: C_11  and  C_27
    9  A    between atoms: C_15  and  O_23
   10  A    between atoms: C_18  and  O_29
   11  A    between atoms: C_21  and  O_33
   12  A    between atoms: C_22  and  O_29
   13  A    between atoms: C_22  and  C_30
   14  A    between atoms: C_24  and  C_27
   15  A    between atoms: C_27  and  N_32
   16  A    between atoms: C_30  and  C_35
                            x       y       z     vdW  Elec       q    Type
                         _______ _______ _______ _____ _____    ______ ____

>  <TORSDO>
F 16

$$$$
