=
 OpenBabel11062416103D

 59 67  0  0  1  0  0  0  0  0999 V2000
  187.4080  177.5510  144.1370 C   0  0  0  0  0  2  0  0  0  0  0  0
  188.5900  177.0780  143.3500 C   0  0  1  0  0  3  0  0  0  0  0  0
  186.4100  177.7750  143.0200 C   0  0  2  0  0  3  0  0  0  0  0  0
  187.1080  178.1980  141.8650 O   0  0  0  0  0  0  0  0  0  0  0  0
  188.4550  177.8340  142.0530 C   0  0  2  0  0  3  0  0  0  0  0  0
  189.9820  177.2790  143.9630 C   0  0  2  0  0  3  0  0  0  0  0  0
  192.0090  176.4430  142.9110 F   0  0  0  0  0  0  0  0  0  0  0  0
  190.1500  175.1260  142.8990 F   0  0  0  0  0  0  0  0  0  0  0  0
  190.8600  176.0780  143.6010 C   0  0  0  0  0  3  0  0  0  0  0  0
  189.9890  177.5910  145.4590 C   0  0  0  0  0  2  0  0  0  0  0  0
  191.1370  176.3500  147.2150 C   0  0  0  0  0  3  0  0  0  0  0  0
  192.3640  175.8370  147.8850 C   0  0  0  0  0  1  0  0  0  0  0  0
  191.2350  177.0770  146.1120 C   0  0  0  0  0  3  0  0  0  0  0  0
  185.3140  178.7890  143.4000 C   0  0  2  0  0  3  0  0  0  0  0  0
  185.3370  179.1500  144.7720 O   0  0  0  0  0  0  0  0  0  0  0  0
  184.0720  178.9100  145.3390 C   0  0  0  0  0  1  0  0  0  0  0  0
  183.9320  178.3110  142.9290 C   0  0  0  0  0  2  0  0  0  0  0  0
  183.7400  178.4870  141.4320 C   0  0  0  0  0  2  0  0  0  0  0  0
  182.2860  178.7820  141.1290 C   0  0  0  0  0  2  0  0  0  0  0  0
  182.1930  179.3100  138.5170 C   0  0  1  0  0  0  0  0  0  0  0  0
  180.3540  178.5150  139.6400 C   0  0  0  0  0  2  0  0  0  0  0  0
  180.0930  179.8620  139.1080 N   0  0  1  0  0  0  0  0  0  0  0  0
  181.4340  180.4420  139.1250 C   0  0  2  0  0  3  0  0  0  0  0  0
  179.7900  179.6010  137.7010 C   0  0  0  0  0  2  0  0  0  0  0  0
  181.5460  181.7590  138.3560 C   0  0  0  0  0  1  0  0  0  0  0  0
  183.2610  178.3050  138.9810 C   0  0  1  0  0  0  0  0  0  0  0  0
  181.8840  178.3480  139.7040 C   0  0  2  0  0  0  0  0  0  0  0  0
  181.2950  178.9170  136.9280 S   0  0  0  0  0  0  0  0  0  0  0  0
  183.2970  176.8690  138.5900 N   0  0  0  0  0  0  0  0  0  0  0  0
  183.7220  177.8580  137.7620 O   0  0  0  0  0  0  0  0  0  0  0  0
  182.1370  176.4160  138.0270 O   0  0  0  0  0  0  0  0  0  0  0  0
  181.9520  175.0730  138.4360 C   0  0  2  0  0  3  0  0  0  0  0  0
  182.1370  174.0520  137.2990 C   0  0  0  0  0  2  0  0  0  0  0  0
  180.5310  174.9200  138.9810 C   0  0  0  0  0  2  0  0  0  0  0  0
  179.5010  175.1990  137.8830 C   0  0  0  0  0  2  0  0  0  0  0  0
  179.7020  174.2980  136.6550 C   0  0  1  0  0  3  0  0  0  0  0  0
  181.1560  174.3160  136.1600 C   0  0  0  0  0  2  0  0  0  0  0  0
  179.2010  172.8770  136.9310 C   0  0  0  0  0  2  0  0  0  0  0  0
  179.4810  171.9950  135.8190 N   0  0  0  0  0  0  0  0  0  0  0  0
  180.0210  170.8410  136.0070 C   0  0  0  0  0  2  0  0  0  0  0  0
  188.8940  177.0120  140.9820 O   0  0  0  0  0  0  0  0  0  0  0  0
  189.8490  177.3940  140.0350 C   0  0  0  0  0  0  0  0  0  0  0  0
  190.9770  177.7590  140.4580 O   0  0  0  0  0  0  0  0  0  0  0  0
  189.6180  177.3070  138.5380 C   0  0  2  0  0  3  0  0  0  0  0  0
  188.1440  177.2520  138.2230 C   0  0  2  0  0  3  0  0  0  0  0  0
  189.1040  175.2600  137.3750 O   0  0  0  0  0  0  0  0  0  0  0  0
  188.0340  176.1560  137.1880 C   0  0  1  0  0  3  0  0  0  0  0  0
  187.7110  178.4580  137.6950 F   0  0  0  0  0  0  0  0  0  0  0  0
  190.1580  176.0170  137.9220 C   0  0  1  0  0  3  0  0  0  0  0  0
  192.4710  176.5340  137.4740 O   0  0  0  0  0  1  0  0  0  0  0  0
  191.2320  176.3030  136.8710 C   0  0  0  0  0  2  0  0  0  0  0  0
  186.8190  175.4820  137.3370 O   0  0  0  0  0  0  0  0  0  0  0  0
  185.2090  174.3350  135.2210 C   0  0  0  0  0  2  0  0  0  0  0  0
  185.4560  173.0840  136.0400 C   0  0  2  0  0  0  0  0  0  0  0  0
  187.0760  174.1570  136.9590 C   0  0  1  0  0  3  0  0  0  0  0  0
  185.9640  173.2600  137.4570 C   0  0  0  0  0  2  0  0  0  0  0  0
  186.6340  173.9090  135.5190 C   0  0  2  0  0  3  0  0  0  0  0  0
  185.5510  171.7330  135.3670 C   0  0  0  0  0  2  0  0  0  0  0  0
  184.4210  170.9090  135.7650 N   0  0  0  0  0  1  0  0  0  0  0  0
  2  6  1  1  0  0  0
  2  1  1  0  0  0  0
  3 14  1  1  0  0  0
  3  1  1  0  0  0  0
  4  5  1  0  0  0  0
  4  3  1  0  0  0  0
  5 41  1  6  0  0  0
  5  2  1  0  0  0  0
  6 10  1  1  0  0  0
  7  9  1  0  0  0  0
  8  9  1  0  0  0  0
  9  6  1  0  0  0  0
 10 13  1  0  0  0  0
 11 12  1  0  0  0  0
 13 11  2  0  0  0  0
 14 17  1  1  0  0  0
 14 15  1  0  0  0  0
 15 16  1  0  0  0  0
 18 17  1  0  0  0  0
 19 18  1  0  0  0  0
 20 28  1  6  0  0  0
 20 26  1  0  0  0  0
 20 23  1  0  0  0  0
 20 27  1  0  0  0  0
 21 27  1  0  0  0  0
 22 24  1  6  0  0  0
 22 23  1  0  0  0  0
 22 21  1  0  0  0  0
 23 25  1  6  0  0  0
 26 30  1  1  0  0  0
 26 27  1  0  0  0  0
 27 19  1  1  0  0  0
 28 24  1  0  0  0  0
 29 26  1  0  0  0  0
 30 29  1  0  0  0  0
 31 29  1  0  0  0  0
 32 31  1  6  0  0  0
 32 34  1  0  0  0  0
 33 32  1  0  0  0  0
 35 34  1  0  0  0  0
 36 38  1  1  0  0  0
 36 35  1  0  0  0  0
 37 36  1  0  0  0  0
 37 33  1  0  0  0  0
 39 40  2  0  0  0  0
 39 38  1  0  0  0  0
 42 43  2  0  0  0  0
 42 41  1  0  0  0  0
 44 42  1  1  0  0  0
 45 48  1  6  0  0  0
 45 44  1  0  0  0  0
 46 49  1  0  0  0  0
 47 52  1  1  0  0  0
 47 46  1  0  0  0  0
 47 45  1  0  0  0  0
 49 51  1  6  0  0  0
 49 44  1  0  0  0  0
 51 50  1  0  0  0  0
 53 54  1  0  0  0  0
 54 58  1  6  0  0  0
 54 56  1  0  0  0  0
 55 52  1  1  0  0  0
 55 56  1  0  0  0  0
 57 53  1  1  0  0  0
 57 54  1  0  0  0  0
 57 55  1  0  0  0  0
 58 59  1  0  0  0  0
M  END
>  <MODEL>
1

>  <REMARK>
 VINA RESULT:      -7.5      0.000      0.000
  Name = 
  21 active torsions:
  status: ('A' for Active; 'I' for Inactive)
    1  A    between atoms: C_1  and  C_3
    2  A    between atoms: C_1  and  C_24
    3  A    between atoms: C_3  and  C_36
    4  A    between atoms: C_4  and  C_37
    5  A    between atoms: N_6  and  C_30
    6  A    between atoms: C_7  and  C_27
    7  A    between atoms: O_8  and  C_29
    8  A    between atoms: O_8  and  C_32
    9  A    between atoms: C_9  and  O_34
   10  A    between atoms: O_22  and  C_36
   11  A    between atoms: C_24  and  C_51
   12  A    between atoms: C_27  and  C_28
   13  A    between atoms: C_27  and  C_40
   14  A    between atoms: C_30  and  C_55
   15  A    between atoms: C_31  and  C_43
   16  A    between atoms: O_34  and  N_58
   17  A    between atoms: C_36  and  C_47
   18  A    between atoms: C_37  and  O_46
   19  A    between atoms: C_40  and  C_53
   20  A    between atoms: C_44  and  C_50
   21  A    between atoms: O_46  and  C_54
                            x       y       z     vdW  Elec       q    Type
                         _______ _______ _______ _____ _____    ______ ____

>  <TORSDO>
F 21

$$$$
=
 OpenBabel11062416103D

 59 67  0  0  1  0  0  0  0  0999 V2000
  187.7640  177.5870  144.5230 C   0  0  0  0  0  2  0  0  0  0  0  0
  188.8800  177.0480  143.6840 C   0  0  1  0  0  3  0  0  0  0  0  0
  186.6620  177.6740  143.4880 C   0  0  2  0  0  3  0  0  0  0  0  0
  187.2400  177.9770  142.2330 O   0  0  0  0  0  0  0  0  0  0  0  0
  188.6080  177.6550  142.3320 C   0  0  2  0  0  3  0  0  0  0  0  0
  190.3170  177.3350  144.1390 C   0  0  2  0  0  3  0  0  0  0  0  0
  192.0260  178.5310  142.8870 F   0  0  0  0  0  0  0  0  0  0  0  0
  190.7860  179.6800  144.4140 F   0  0  0  0  0  0  0  0  0  0  0  0
  190.7850  178.6460  143.5010 C   0  0  0  0  0  3  0  0  0  0  0  0
  191.3020  176.1860  143.9260 C   0  0  0  0  0  2  0  0  0  0  0  0
  191.6930  176.4040  146.3220 C   0  0  0  0  0  3  0  0  0  0  0  0
  192.1960  175.9010  147.6300 C   0  0  0  0  0  1  0  0  0  0  0  0
  191.8070  175.6580  145.2330 C   0  0  0  0  0  3  0  0  0  0  0  0
  185.5810  178.7070  143.8580 C   0  0  2  0  0  3  0  0  0  0  0  0
  185.6240  179.0980  145.2200 O   0  0  0  0  0  0  0  0  0  0  0  0
  184.4320  178.7050  145.8570 C   0  0  0  0  0  1  0  0  0  0  0  0
  184.1890  178.2330  143.4130 C   0  0  0  0  0  2  0  0  0  0  0  0
  183.7990  178.7810  142.0510 C   0  0  0  0  0  2  0  0  0  0  0  0
  182.2920  178.8040  141.9150 C   0  0  0  0  0  2  0  0  0  0  0  0
  181.2090  179.7990  139.6900 C   0  0  1  0  0  0  0  0  0  0  0  0
  180.5240  177.7830  140.5530 C   0  0  0  0  0  2  0  0  0  0  0  0
  179.4190  178.7560  140.5700 N   0  0  1  0  0  0  0  0  0  0  0  0
  180.1480  180.0140  140.7170 C   0  0  2  0  0  3  0  0  0  0  0  0
  178.9440  178.7300  139.1870 C   0  0  0  0  0  2  0  0  0  0  0  0
  179.2870  181.2550  140.4800 C   0  0  0  0  0  1  0  0  0  0  0  0
  182.7340  179.5970  139.6860 C   0  0  1  0  0  0  0  0  0  0  0  0
  181.8310  178.5920  140.4570 C   0  0  2  0  0  0  0  0  0  0  0  0
  180.2930  179.3510  138.1260 S   0  0  0  0  0  0  0  0  0  0  0  0
  183.4600  178.6530  138.7940 N   0  0  0  0  0  0  0  0  0  0  0  0
  183.0120  179.8600  138.3630 O   0  0  0  0  0  0  0  0  0  0  0  0
  182.6530  177.7390  138.1760 O   0  0  0  0  0  0  0  0  0  0  0  0
  183.3490  177.2370  137.0500 C   0  0  2  0  0  3  0  0  0  0  0  0
  182.4240  176.6790  135.9530 C   0  0  0  0  0  2  0  0  0  0  0  0
  184.2720  176.1070  137.5090 C   0  0  0  0  0  2  0  0  0  0  0  0
  183.4550  174.9470  138.0840 C   0  0  0  0  0  2  0  0  0  0  0  0
  182.4170  174.4150  137.0850 C   0  0  1  0  0  3  0  0  0  0  0  0
  181.5590  175.5430  136.4920 C   0  0  0  0  0  2  0  0  0  0  0  0
  183.0870  173.5650  136.0000 C   0  0  0  0  0  2  0  0  0  0  0  0
  183.9960  172.5980  136.5770 N   0  0  0  0  0  0  0  0  0  0  0  0
  183.6210  171.3880  136.8040 C   0  0  0  0  0  2  0  0  0  0  0  0
  188.9670  176.7270  141.3190 O   0  0  0  0  0  0  0  0  0  0  0  0
  189.6190  177.0700  140.1310 C   0  0  0  0  0  0  0  0  0  0  0  0
  190.7580  177.5960  140.2220 O   0  0  0  0  0  0  0  0  0  0  0  0
  189.0590  176.7610  138.7550 C   0  0  2  0  0  3  0  0  0  0  0  0
  189.9980  175.8730  137.9780 C   0  0  2  0  0  3  0  0  0  0  0  0
  189.7610  177.8780  136.7380 O   0  0  0  0  0  0  0  0  0  0  0  0
  190.0410  176.5040  136.6050 C   0  0  1  0  0  3  0  0  0  0  0  0
  189.4990  174.5830  137.8990 F   0  0  0  0  0  0  0  0  0  0  0  0
  188.9310  178.0000  137.8690 C   0  0  1  0  0  3  0  0  0  0  0  0
  186.7240  178.7000  138.5460 O   0  0  0  0  0  1  0  0  0  0  0  0
  187.4780  178.2500  137.4590 C   0  0  0  0  0  2  0  0  0  0  0  0
  191.3100  176.3310  136.0430 O   0  0  0  0  0  0  0  0  0  0  0  0
  194.1910  176.4880  135.8080 C   0  0  0  0  0  2  0  0  0  0  0  0
  194.0790  175.1400  136.4930 C   0  0  2  0  0  0  0  0  0  0  0  0
  192.0840  175.7270  137.0410 C   0  0  1  0  0  3  0  0  0  0  0  0
  192.7220  174.4660  136.5000 C   0  0  0  0  0  2  0  0  0  0  0  0
  193.4590  176.3840  137.1320 C   0  0  2  0  0  3  0  0  0  0  0  0
  195.1600  174.6670  137.4390 C   0  0  0  0  0  2  0  0  0  0  0  0
  196.4590  175.1000  136.9510 N   0  0  0  0  0  1  0  0  0  0  0  0
  2  6  1  1  0  0  0
  2  1  1  0  0  0  0
  3 14  1  1  0  0  0
  3  1  1  0  0  0  0
  4  5  1  0  0  0  0
  4  3  1  0  0  0  0
  5 41  1  6  0  0  0
  5  2  1  0  0  0  0
  6 10  1  6  0  0  0
  7  9  1  0  0  0  0
  9  6  1  0  0  0  0
  9  8  1  0  0  0  0
 10 13  1  0  0  0  0
 11 12  1  0  0  0  0
 13 11  2  0  0  0  0
 14 17  1  1  0  0  0
 14 15  1  0  0  0  0
 15 16  1  0  0  0  0
 18 17  1  0  0  0  0
 19 18  1  0  0  0  0
 20 28  1  6  0  0  0
 20 27  1  0  0  0  0
 20 23  1  0  0  0  0
 21 22  1  0  0  0  0
 22 24  1  6  0  0  0
 22 23  1  0  0  0  0
 23 25  1  6  0  0  0
 26 30  1  1  0  0  0
 26 20  1  0  0  0  0
 26 27  1  0  0  0  0
 27 21  1  0  0  0  0
 27 19  1  1  0  0  0
 28 24  1  0  0  0  0
 29 26  1  0  0  0  0
 30 29  1  0  0  0  0
 31 29  1  0  0  0  0
 32 34  1  0  0  0  0
 32 31  1  1  0  0  0
 33 37  1  0  0  0  0
 33 32  1  0  0  0  0
 34 35  1  0  0  0  0
 36 38  1  6  0  0  0
 36 35  1  0  0  0  0
 37 36  1  0  0  0  0
 38 39  1  0  0  0  0
 39 40  2  0  0  0  0
 42 43  2  0  0  0  0
 42 41  1  0  0  0  0
 44 42  1  1  0  0  0
 45 48  1  6  0  0  0
 45 44  1  0  0  0  0
 46 49  1  0  0  0  0
 47 52  1  1  0  0  0
 47 46  1  0  0  0  0
 47 45  1  0  0  0  0
 49 51  1  6  0  0  0
 49 44  1  0  0  0  0
 51 50  1  0  0  0  0
 53 54  1  0  0  0  0
 54 56  1  0  0  0  0
 54 57  1  0  0  0  0
 54 58  1  1  0  0  0
 55 52  1  6  0  0  0
 55 57  1  0  0  0  0
 56 55  1  0  0  0  0
 57 53  1  6  0  0  0
 59 58  1  0  0  0  0
M  END
>  <MODEL>
2

>  <REMARK>
 VINA RESULT:      -7.4      2.464      3.880
  Name = 
  21 active torsions:
  status: ('A' for Active; 'I' for Inactive)
    1  A    between atoms: C_1  and  C_3
    2  A    between atoms: C_1  and  C_24
    3  A    between atoms: C_3  and  C_36
    4  A    between atoms: C_4  and  C_37
    5  A    between atoms: N_6  and  C_30
    6  A    between atoms: C_7  and  C_27
    7  A    between atoms: O_8  and  C_29
    8  A    between atoms: O_8  and  C_32
    9  A    between atoms: C_9  and  O_34
   10  A    between atoms: O_22  and  C_36
   11  A    between atoms: C_24  and  C_51
   12  A    between atoms: C_27  and  C_28
   13  A    between atoms: C_27  and  C_40
   14  A    between atoms: C_30  and  C_55
   15  A    between atoms: C_31  and  C_43
   16  A    between atoms: O_34  and  N_58
   17  A    between atoms: C_36  and  C_47
   18  A    between atoms: C_37  and  O_46
   19  A    between atoms: C_40  and  C_53
   20  A    between atoms: C_44  and  C_50
   21  A    between atoms: O_46  and  C_54
                            x       y       z     vdW  Elec       q    Type
                         _______ _______ _______ _____ _____    ______ ____

>  <TORSDO>
F 21

$$$$
=
 OpenBabel11062416103D

 59 67  0  0  1  0  0  0  0  0999 V2000
  189.5230  177.0830  136.8410 C   0  0  0  0  0  2  0  0  0  0  0  0
  190.4220  176.9120  138.0250 C   0  0  1  0  0  3  0  0  0  0  0  0
  188.4450  177.9620  137.4420 C   0  0  2  0  0  3  0  0  0  0  0  0
  188.2910  177.6230  138.8060 O   0  0  0  0  0  0  0  0  0  0  0  0
  189.4600  176.9340  139.1840 C   0  0  2  0  0  3  0  0  0  0  0  0
  191.3120  175.6640  138.0700 C   0  0  2  0  0  3  0  0  0  0  0  0
  193.1520  177.1760  137.5760 F   0  0  0  0  0  0  0  0  0  0  0  0
  193.6330  175.0410  138.2100 F   0  0  0  0  0  0  0  0  0  0  0  0
  192.7540  176.0940  138.3520 C   0  0  0  0  0  3  0  0  0  0  0  0
  191.1930  174.7420  136.8570 C   0  0  0  0  0  2  0  0  0  0  0  0
  189.0030  173.6810  136.7320 C   0  0  0  0  0  3  0  0  0  0  0  0
  188.0580  172.5630  137.0040 C   0  0  0  0  0  1  0  0  0  0  0  0
  190.2620  173.6020  137.1330 C   0  0  0  0  0  3  0  0  0  0  0  0
  187.1030  177.8500  136.6940 C   0  0  2  0  0  3  0  0  0  0  0  0
  187.2310  178.0050  135.2900 O   0  0  0  0  0  0  0  0  0  0  0  0
  186.7130  176.8670  134.6450 C   0  0  0  0  0  1  0  0  0  0  0  0
  186.0490  178.7840  137.3070 C   0  0  0  0  0  2  0  0  0  0  0  0
  185.0420  178.0350  138.1640 C   0  0  0  0  0  2  0  0  0  0  0  0
  184.5530  176.8050  137.4300 C   0  0  0  0  0  2  0  0  0  0  0  0
  182.4330  175.1920  137.5660 C   0  0  1  0  0  0  0  0  0  0  0  0
  182.4830  176.9790  136.1240 C   0  0  0  0  0  2  0  0  0  0  0  0
  182.3950  175.7130  135.3770 N   0  0  1  0  0  0  0  0  0  0  0  0
  183.0850  174.7980  136.2830 C   0  0  2  0  0  3  0  0  0  0  0  0
  180.9750  175.3770  135.4770 C   0  0  0  0  0  2  0  0  0  0  0  0
  182.9130  173.3230  135.9180 C   0  0  0  0  0  1  0  0  0  0  0  0
  182.8660  175.8770  138.8740 C   0  0  1  0  0  0  0  0  0  0  0  0
  183.0220  176.6360  137.5250 C   0  0  2  0  0  0  0  0  0  0  0  0
  180.5990  175.0790  137.2380 S   0  0  0  0  0  0  0  0  0  0  0  0
  182.0420  176.8620  139.6260 N   0  0  0  0  0  0  0  0  0  0  0  0
  181.8160  175.5260  139.6940 O   0  0  0  0  0  0  0  0  0  0  0  0
  180.9850  177.3610  138.9170 O   0  0  0  0  0  0  0  0  0  0  0  0
  180.4660  178.4680  139.6300 C   0  0  2  0  0  3  0  0  0  0  0  0
  179.1960  179.0680  138.9990 C   0  0  0  0  0  2  0  0  0  0  0  0
  181.5330  179.5630  139.6770 C   0  0  0  0  0  2  0  0  0  0  0  0
  181.8590  180.0550  138.2640 C   0  0  0  0  0  2  0  0  0  0  0  0
  180.6120  180.5560  137.5200 C   0  0  1  0  0  3  0  0  0  0  0  0
  179.4640  179.5360  137.5720 C   0  0  0  0  0  2  0  0  0  0  0  0
  180.1870  181.9350  138.0330 C   0  0  0  0  0  2  0  0  0  0  0  0
  181.1820  182.9400  137.7250 N   0  0  0  0  0  0  0  0  0  0  0  0
  181.0470  183.7180  136.7080 C   0  0  0  0  0  2  0  0  0  0  0  0
  190.0720  177.5790  140.2910 O   0  0  0  0  0  0  0  0  0  0  0  0
  189.4230  177.8630  141.4970 C   0  0  0  0  0  0  0  0  0  0  0  0
  188.5000  178.7170  141.4750 O   0  0  0  0  0  0  0  0  0  0  0  0
  189.7200  177.1340  142.7940 C   0  0  2  0  0  3  0  0  0  0  0  0
  188.4590  176.5630  143.3920 C   0  0  2  0  0  3  0  0  0  0  0  0
  189.3500  178.0780  144.9800 O   0  0  0  0  0  0  0  0  0  0  0  0
  188.5580  176.9200  144.8570 C   0  0  1  0  0  3  0  0  0  0  0  0
  188.4210  175.1870  143.2330 F   0  0  0  0  0  0  0  0  0  0  0  0
  190.2450  178.0570  143.8930 C   0  0  1  0  0  3  0  0  0  0  0  0
  191.7090  177.5270  145.7350 O   0  0  0  0  0  1  0  0  0  0  0  0
  191.6490  177.6500  144.3450 C   0  0  0  0  0  2  0  0  0  0  0  0
  187.2820  177.1610  145.3750 O   0  0  0  0  0  0  0  0  0  0  0  0
  184.7410  178.2840  146.1910 C   0  0  0  0  0  2  0  0  0  0  0  0
  184.6560  178.5530  144.7020 C   0  0  2  0  0  0  0  0  0  0  0  0
  186.7850  178.2540  144.6550 C   0  0  1  0  0  3  0  0  0  0  0  0
  185.6190  177.8120  143.7970 C   0  0  0  0  0  2  0  0  0  0  0  0
  185.8370  179.0850  145.5160 C   0  0  2  0  0  3  0  0  0  0  0  0
  183.9150  179.7660  144.1830 C   0  0  0  0  0  2  0  0  0  0  0  0
  182.6200  179.3610  143.6610 N   0  0  0  0  0  1  0  0  0  0  0  0
  1  3  1  0  0  0  0
  1  2  1  0  0  0  0
  2  6  1  6  0  0  0
  2  5  1  0  0  0  0
  3 14  1  6  0  0  0
  3  4  1  0  0  0  0
  4  5  1  0  0  0  0
  5 41  1  1  0  0  0
  6 10  1  6  0  0  0
  6  9  1  0  0  0  0
  7  9  1  0  0  0  0
  8  9  1  0  0  0  0
 10 13  1  0  0  0  0
 11 12  1  0  0  0  0
 11 13  2  0  0  0  0
 14 17  1  1  0  0  0
 15 14  1  0  0  0  0
 16 15  1  0  0  0  0
 17 18  1  0  0  0  0
 19 18  1  0  0  0  0
 20 28  1  6  0  0  0
 20 26  1  0  0  0  0
 21 27  1  0  0  0  0
 22 24  1  1  0  0  0
 22 21  1  0  0  0  0
 22 23  1  0  0  0  0
 23 25  1  6  0  0  0
 23 20  1  0  0  0  0
 24 28  1  0  0  0  0
 26 29  1  0  0  0  0
 26 30  1  1  0  0  0
 27 19  1  6  0  0  0
 27 20  1  0  0  0  0
 27 26  1  0  0  0  0
 29 30  1  0  0  0  0
 31 29  1  0  0  0  0
 32 31  1  6  0  0  0
 32 34  1  0  0  0  0
 33 32  1  0  0  0  0
 35 34  1  0  0  0  0
 36 37  1  0  0  0  0
 36 38  1  1  0  0  0
 36 35  1  0  0  0  0
 37 33  1  0  0  0  0
 39 38  1  0  0  0  0
 40 39  2  0  0  0  0
 41 42  1  0  0  0  0
 43 42  2  0  0  0  0
 44 42  1  6  0  0  0
 44 45  1  0  0  0  0
 44 49  1  0  0  0  0
 45 48  1  1  0  0  0
 45 47  1  0  0  0  0
 47 46  1  0  0  0  0
 47 52  1  6  0  0  0
 49 51  1  1  0  0  0
 49 46  1  0  0  0  0
 51 50  1  0  0  0  0
 54 58  1  6  0  0  0
 54 57  1  0  0  0  0
 54 53  1  0  0  0  0
 55 52  1  1  0  0  0
 55 57  1  0  0  0  0
 56 55  1  0  0  0  0
 56 54  1  0  0  0  0
 57 53  1  1  0  0  0
 59 58  1  0  0  0  0
M  END
>  <MODEL>
3

>  <REMARK>
 VINA RESULT:      -6.9      2.430      7.296
  Name = 
  21 active torsions:
  status: ('A' for Active; 'I' for Inactive)
    1  A    between atoms: C_1  and  C_3
    2  A    between atoms: C_1  and  C_24
    3  A    between atoms: C_3  and  C_36
    4  A    between atoms: C_4  and  C_37
    5  A    between atoms: N_6  and  C_30
    6  A    between atoms: C_7  and  C_27
    7  A    between atoms: O_8  and  C_29
    8  A    between atoms: O_8  and  C_32
    9  A    between atoms: C_9  and  O_34
   10  A    between atoms: O_22  and  C_36
   11  A    between atoms: C_24  and  C_51
   12  A    between atoms: C_27  and  C_28
   13  A    between atoms: C_27  and  C_40
   14  A    between atoms: C_30  and  C_55
   15  A    between atoms: C_31  and  C_43
   16  A    between atoms: O_34  and  N_58
   17  A    between atoms: C_36  and  C_47
   18  A    between atoms: C_37  and  O_46
   19  A    between atoms: C_40  and  C_53
   20  A    between atoms: C_44  and  C_50
   21  A    between atoms: O_46  and  C_54
                            x       y       z     vdW  Elec       q    Type
                         _______ _______ _______ _____ _____    ______ ____

>  <TORSDO>
F 21

$$$$
=
 OpenBabel11062416103D

 59 67  0  0  1  0  0  0  0  0999 V2000
  187.8840  178.0000  143.0150 C   0  0  0  0  0  2  0  0  0  0  0  0
  186.5530  178.4200  143.5530 C   0  0  1  0  0  3  0  0  0  0  0  0
  187.7290  178.4010  141.5630 C   0  0  2  0  0  3  0  0  0  0  0  0
  186.3750  178.2400  141.1890 O   0  0  0  0  0  0  0  0  0  0  0  0
  185.6300  178.1950  142.3830 C   0  0  2  0  0  3  0  0  0  0  0  0
  186.0340  177.7070  144.8090 C   0  0  2  0  0  3  0  0  0  0  0  0
  183.8940  178.3700  145.7560 F   0  0  0  0  0  0  0  0  0  0  0  0
  185.3840  179.9950  145.1810 F   0  0  0  0  0  0  0  0  0  0  0  0
  185.2380  178.7070  145.6520 C   0  0  0  0  0  3  0  0  0  0  0  0
  187.0990  176.9650  145.6160 C   0  0  0  0  0  2  0  0  0  0  0  0
  188.3220  177.3290  147.6930 C   0  0  0  0  0  3  0  0  0  0  0  0
  188.9460  178.2050  148.7230 C   0  0  0  0  0  1  0  0  0  0  0  0
  187.7280  177.8630  146.6360 C   0  0  0  0  0  3  0  0  0  0  0  0
  188.6560  177.6030  140.6250 C   0  0  2  0  0  3  0  0  0  0  0  0
  189.5790  176.7800  141.3190 O   0  0  0  0  0  0  0  0  0  0  0  0
  190.8330  176.8490  140.6850 C   0  0  0  0  0  1  0  0  0  0  0  0
  189.3280  178.5250  139.5980 C   0  0  0  0  0  2  0  0  0  0  0  0
  188.5990  178.5340  138.2650 C   0  0  0  0  0  2  0  0  0  0  0  0
  187.8270  177.2430  138.0890 C   0  0  0  0  0  2  0  0  0  0  0  0
  187.8960  176.2440  135.6180 C   0  0  1  0  0  0  0  0  0  0  0  0
  188.0460  174.8810  137.4610 C   0  0  0  0  0  2  0  0  0  0  0  0
  186.8290  174.5770  136.6900 N   0  0  1  0  0  0  0  0  0  0  0  0
  186.5320  175.8810  136.0990 C   0  0  2  0  0  3  0  0  0  0  0  0
  187.3380  173.7520  135.5950 C   0  0  0  0  0  2  0  0  0  0  0  0
  185.4700  175.8310  135.0000 C   0  0  0  0  0  1  0  0  0  0  0  0
  188.9580  177.3020  135.9650 C   0  0  1  0  0  0  0  0  0  0  0  0
  188.4870  176.3020  137.0600 C   0  0  2  0  0  0  0  0  0  0  0  0
  188.4580  174.7880  134.5940 S   0  0  0  0  0  0  0  0  0  0  0  0
  190.4240  177.0480  136.0040 N   0  0  0  0  0  0  0  0  0  0  0  0
  189.7500  177.2330  134.8400 O   0  0  0  0  0  0  0  0  0  0  0  0
  190.7600  175.7230  136.0070 O   0  0  0  0  0  0  0  0  0  0  0  0
  192.0340  175.5970  135.4040 C   0  0  2  0  0  3  0  0  0  0  0  0
  192.4500  174.1370  135.1420 C   0  0  0  0  0  2  0  0  0  0  0  0
  193.0770  176.2270  136.3280 C   0  0  0  0  0  2  0  0  0  0  0  0
  193.1370  175.4750  137.6610 C   0  0  0  0  0  2  0  0  0  0  0  0
  193.4250  173.9780  137.4730 C   0  0  1  0  0  3  0  0  0  0  0  0
  192.4840  173.3370  136.4410 C   0  0  0  0  0  2  0  0  0  0  0  0
  194.9010  173.7430  137.1360 C   0  0  0  0  0  2  0  0  0  0  0  0
  195.7540  174.6880  137.8250 N   0  0  0  0  0  0  0  0  0  0  0  0
  196.3430  174.3700  138.9250 C   0  0  0  0  0  2  0  0  0  0  0  0
  184.6290  179.2030  142.3740 O   0  0  0  0  0  0  0  0  0  0  0  0
  183.2650  178.9570  142.1920 C   0  0  0  0  0  0  0  0  0  0  0  0
  182.5640  178.7700  143.2200 O   0  0  0  0  0  0  0  0  0  0  0  0
  182.5870  178.9900  140.8350 C   0  0  2  0  0  3  0  0  0  0  0  0
  181.2560  178.2810  140.8810 C   0  0  2  0  0  3  0  0  0  0  0  0
  182.5890  177.1420  139.2890 O   0  0  0  0  0  0  0  0  0  0  0  0
  181.2540  177.4320  139.6310 C   0  0  1  0  0  3  0  0  0  0  0  0
  180.2140  179.1940  140.8440 F   0  0  0  0  0  0  0  0  0  0  0  0
  183.3580  178.2220  139.7620 C   0  0  1  0  0  3  0  0  0  0  0  0
  184.1150  180.4100  139.0860 O   0  0  0  0  0  1  0  0  0  0  0  0
  183.7840  179.1380  138.6130 C   0  0  0  0  0  2  0  0  0  0  0  0
  180.5560  176.2430  139.8650 O   0  0  0  0  0  0  0  0  0  0  0  0
  178.9310  173.8510  139.7250 C   0  0  0  0  0  2  0  0  0  0  0  0
  179.7540  173.6560  138.4680 C   0  0  2  0  0  0  0  0  0  0  0  0
  180.2160  175.7520  138.5970 C   0  0  1  0  0  3  0  0  0  0  0  0
  181.0070  174.4940  138.3090 C   0  0  0  0  0  2  0  0  0  0  0  0
  178.9310  174.9310  138.6610 C   0  0  2  0  0  3  0  0  0  0  0  0
  179.1660  172.9470  137.2680 C   0  0  0  0  0  2  0  0  0  0  0  0
  180.2310  172.3300  136.4940 N   0  0  0  0  0  1  0  0  0  0  0  0
  1  2  1  0  0  0  0
  2  6  1  1  0  0  0
  3 14  1  6  0  0  0
  3  1  1  0  0  0  0
  4  3  1  0  0  0  0
  4  5  1  0  0  0  0
  5 41  1  6  0  0  0
  5  2  1  0  0  0  0
  6 10  1  1  0  0  0
  6  9  1  0  0  0  0
  8  9  1  0  0  0  0
  9  7  1  0  0  0  0
 10 13  1  0  0  0  0
 11 12  1  0  0  0  0
 13 11  2  0  0  0  0
 14 17  1  1  0  0  0
 14 15  1  0  0  0  0
 16 15  1  0  0  0  0
 18 17  1  0  0  0  0
 19 18  1  0  0  0  0
 20 28  1  6  0  0  0
 20 26  1  0  0  0  0
 20 23  1  0  0  0  0
 20 27  1  0  0  0  0
 22 24  1  6  0  0  0
 22 21  1  0  0  0  0
 23 25  1  6  0  0  0
 23 22  1  0  0  0  0
 26 30  1  1  0  0  0
 26 29  1  0  0  0  0
 26 27  1  0  0  0  0
 27 21  1  0  0  0  0
 27 19  1  1  0  0  0
 28 24  1  0  0  0  0
 29 31  1  0  0  0  0
 30 29  1  0  0  0  0
 32 31  1  1  0  0  0
 32 34  1  0  0  0  0
 33 32  1  0  0  0  0
 33 37  1  0  0  0  0
 34 35  1  0  0  0  0
 36 38  1  6  0  0  0
 36 35  1  0  0  0  0
 37 36  1  0  0  0  0
 38 39  1  0  0  0  0
 39 40  2  0  0  0  0
 42 41  1  0  0  0  0
 42 43  2  0  0  0  0
 44 45  1  0  0  0  0
 44 42  1  1  0  0  0
 45 48  1  6  0  0  0
 46 47  1  0  0  0  0
 46 49  1  0  0  0  0
 47 52  1  1  0  0  0
 47 45  1  0  0  0  0
 49 51  1  6  0  0  0
 49 44  1  0  0  0  0
 51 50  1  0  0  0  0
 54 58  1  6  0  0  0
 54 57  1  0  0  0  0
 54 53  1  0  0  0  0
 55 57  1  0  0  0  0
 55 52  1  1  0  0  0
 56 54  1  0  0  0  0
 56 55  1  0  0  0  0
 57 53  1  1  0  0  0
 59 58  1  0  0  0  0
M  END
>  <MODEL>
4

>  <REMARK>
 VINA RESULT:      -6.7      3.432      8.219
  Name = 
  21 active torsions:
  status: ('A' for Active; 'I' for Inactive)
    1  A    between atoms: C_1  and  C_3
    2  A    between atoms: C_1  and  C_24
    3  A    between atoms: C_3  and  C_36
    4  A    between atoms: C_4  and  C_37
    5  A    between atoms: N_6  and  C_30
    6  A    between atoms: C_7  and  C_27
    7  A    between atoms: O_8  and  C_29
    8  A    between atoms: O_8  and  C_32
    9  A    between atoms: C_9  and  O_34
   10  A    between atoms: O_22  and  C_36
   11  A    between atoms: C_24  and  C_51
   12  A    between atoms: C_27  and  C_28
   13  A    between atoms: C_27  and  C_40
   14  A    between atoms: C_30  and  C_55
   15  A    between atoms: C_31  and  C_43
   16  A    between atoms: O_34  and  N_58
   17  A    between atoms: C_36  and  C_47
   18  A    between atoms: C_37  and  O_46
   19  A    between atoms: C_40  and  C_53
   20  A    between atoms: C_44  and  C_50
   21  A    between atoms: O_46  and  C_54
                            x       y       z     vdW  Elec       q    Type
                         _______ _______ _______ _____ _____    ______ ____

>  <TORSDO>
F 21

$$$$
=
 OpenBabel11062416103D

 59 67  0  0  1  0  0  0  0  0999 V2000
  188.4160  177.6120  143.7140 C   0  0  0  0  0  2  0  0  0  0  0  0
  187.0630  178.2450  143.6380 C   0  0  1  0  0  3  0  0  0  0  0  0
  188.8600  177.7430  142.2720 C   0  0  2  0  0  3  0  0  0  0  0  0
  187.7240  177.6370  141.4360 O   0  0  0  0  0  0  0  0  0  0  0  0
  186.6020  177.8870  142.2490 C   0  0  2  0  0  3  0  0  0  0  0  0
  186.0230  177.8330  144.6870 C   0  0  2  0  0  3  0  0  0  0  0  0
  184.4320  179.5760  144.0960 F   0  0  0  0  0  0  0  0  0  0  0  0
  186.0640  180.0560  145.6120 F   0  0  0  0  0  0  0  0  0  0  0  0
  185.2330  179.0730  145.1140 C   0  0  0  0  0  3  0  0  0  0  0  0
  186.5790  177.0460  145.8740 C   0  0  0  0  0  2  0  0  0  0  0  0
  187.9760  177.4900  147.8210 C   0  0  0  0  0  3  0  0  0  0  0  0
  189.0340  178.2490  148.5430 C   0  0  0  0  0  1  0  0  0  0  0  0
  187.6520  177.8160  146.5780 C   0  0  0  0  0  3  0  0  0  0  0  0
  189.9260  176.7010  141.8830 C   0  0  2  0  0  3  0  0  0  0  0  0
  190.1710  175.7440  142.9010 O   0  0  0  0  0  0  0  0  0  0  0  0
  191.4060  176.0210  143.5140 C   0  0  0  0  0  1  0  0  0  0  0  0
  191.2070  177.3830  141.3800 C   0  0  0  0  0  2  0  0  0  0  0  0
  191.2490  177.4900  139.8650 C   0  0  0  0  0  2  0  0  0  0  0  0
  190.6320  176.2560  139.2430 C   0  0  0  0  0  2  0  0  0  0  0  0
  191.6620  176.3540  136.7860 C   0  0  1  0  0  0  0  0  0  0  0  0
  190.7530  174.4180  137.6220 C   0  0  0  0  0  2  0  0  0  0  0  0
  189.9880  174.8870  136.4550 N   0  0  1  0  0  0  0  0  0  0  0  0
  190.1910  176.3310  136.5420 C   0  0  2  0  0  3  0  0  0  0  0  0
  190.8070  174.4370  135.3290 C   0  0  0  0  0  2  0  0  0  0  0  0
  189.7490  177.0920  135.2910 C   0  0  0  0  0  1  0  0  0  0  0  0
  192.5960  176.7470  137.9430 C   0  0  1  0  0  0  0  0  0  0  0  0
  191.5360  175.6300  138.1600 C   0  0  2  0  0  0  0  0  0  0  0  0
  192.4010  175.3220  135.4160 S   0  0  0  0  0  0  0  0  0  0  0  0
  193.8280  176.0050  138.3250 N   0  0  0  0  0  0  0  0  0  0  0  0
  193.7920  176.8550  137.2670 O   0  0  0  0  0  0  0  0  0  0  0  0
  193.9230  174.7590  137.7700 O   0  0  0  0  0  0  0  0  0  0  0  0
  195.1460  174.1860  138.1930 C   0  0  2  0  0  3  0  0  0  0  0  0
  196.3430  174.5550  137.2970 C   0  0  0  0  0  2  0  0  0  0  0  0
  195.0010  172.6640  138.1850 C   0  0  0  0  0  2  0  0  0  0  0  0
  194.7390  172.1570  136.7640 C   0  0  0  0  0  2  0  0  0  0  0  0
  195.8330  172.5950  135.7790 C   0  0  1  0  0  3  0  0  0  0  0  0
  196.1080  174.1040  135.8580 C   0  0  0  0  0  2  0  0  0  0  0  0
  197.1060  171.7640  135.9700 C   0  0  0  0  0  2  0  0  0  0  0  0
  197.2670  170.7980  134.9040 N   0  0  0  0  0  0  0  0  0  0  0  0
  196.7330  169.6290  134.9820 C   0  0  0  0  0  2  0  0  0  0  0  0
  185.8410  178.9610  141.7150 O   0  0  0  0  0  0  0  0  0  0  0  0
  184.6990  178.8020  140.9240 C   0  0  0  0  0  0  0  0  0  0  0  0
  183.6050  178.6030  141.5130 O   0  0  0  0  0  0  0  0  0  0  0  0
  184.7070  178.9420  139.4130 C   0  0  2  0  0  3  0  0  0  0  0  0
  183.3050  178.8760  138.8590 C   0  0  2  0  0  3  0  0  0  0  0  0
  184.5140  177.0830  137.8930 O   0  0  0  0  0  0  0  0  0  0  0  0
  183.4290  177.9520  137.6700 C   0  0  1  0  0  3  0  0  0  0  0  0
  182.8810  180.1300  138.4520 F   0  0  0  0  0  0  0  0  0  0  0  0
  185.4190  177.7870  138.7090 C   0  0  1  0  0  3  0  0  0  0  0  0
  186.4910  177.9310  136.5540 O   0  0  0  0  0  1  0  0  0  0  0  0
  186.6210  178.2790  137.9000 C   0  0  0  0  0  2  0  0  0  0  0  0
  182.2530  177.2120  137.5180 O   0  0  0  0  0  0  0  0  0  0  0  0
  180.5520  175.6720  135.7510 C   0  0  0  0  0  2  0  0  0  0  0  0
  181.1230  174.5410  136.5820 C   0  0  2  0  0  0  0  0  0  0  0  0
  182.6640  175.9190  137.1710 C   0  0  1  0  0  3  0  0  0  0  0  0
  181.8040  174.9000  137.8870 C   0  0  0  0  0  2  0  0  0  0  0  0
  182.0560  175.4960  135.8370 C   0  0  2  0  0  3  0  0  0  0  0  0
  181.3370  173.1730  135.9730 C   0  0  0  0  0  2  0  0  0  0  0  0
  182.0940  172.3400  136.8940 N   0  0  0  0  0  1  0  0  0  0  0  0
  2  1  1  0  0  0  0
  2  6  1  1  0  0  0
  3 14  1  6  0  0  0
  3  1  1  0  0  0  0
  4  5  1  0  0  0  0
  4  3  1  0  0  0  0
  5 41  1  6  0  0  0
  5  2  1  0  0  0  0
  6  9  1  0  0  0  0
  6 10  1  1  0  0  0
  7  9  1  0  0  0  0
  9  8  1  0  0  0  0
 10 13  1  0  0  0  0
 11 12  1  0  0  0  0
 13 11  2  0  0  0  0
 14 17  1  1  0  0  0
 14 15  1  0  0  0  0
 15 16  1  0  0  0  0
 18 17  1  0  0  0  0
 19 18  1  0  0  0  0
 20 28  1  6  0  0  0
 20 26  1  0  0  0  0
 20 27  1  0  0  0  0
 21 27  1  0  0  0  0
 22 24  1  6  0  0  0
 22 23  1  0  0  0  0
 22 21  1  0  0  0  0
 23 25  1  6  0  0  0
 23 20  1  0  0  0  0
 24 28  1  0  0  0  0
 26 30  1  1  0  0  0
 26 27  1  0  0  0  0
 26 29  1  0  0  0  0
 27 19  1  1  0  0  0
 30 29  1  0  0  0  0
 31 29  1  0  0  0  0
 32 31  1  6  0  0  0
 33 32  1  0  0  0  0
 34 32  1  0  0  0  0
 35 34  1  0  0  0  0
 36 37  1  0  0  0  0
 36 38  1  1  0  0  0
 36 35  1  0  0  0  0
 37 33  1  0  0  0  0
 39 40  2  0  0  0  0
 39 38  1  0  0  0  0
 42 43  2  0  0  0  0
 42 41  1  0  0  0  0
 44 42  1  1  0  0  0
 45 48  1  6  0  0  0
 45 44  1  0  0  0  0
 46 49  1  0  0  0  0
 47 52  1  1  0  0  0
 47 46  1  0  0  0  0
 47 45  1  0  0  0  0
 49 51  1  6  0  0  0
 49 44  1  0  0  0  0
 50 51  1  0  0  0  0
 53 54  1  0  0  0  0
 54 58  1  6  0  0  0
 54 56  1  0  0  0  0
 55 52  1  1  0  0  0
 55 56  1  0  0  0  0
 57 53  1  1  0  0  0
 57 54  1  0  0  0  0
 57 55  1  0  0  0  0
 58 59  1  0  0  0  0
M  END
>  <MODEL>
5

>  <REMARK>
 VINA RESULT:      -6.2      4.198      8.930
  Name = 
  21 active torsions:
  status: ('A' for Active; 'I' for Inactive)
    1  A    between atoms: C_1  and  C_3
    2  A    between atoms: C_1  and  C_24
    3  A    between atoms: C_3  and  C_36
    4  A    between atoms: C_4  and  C_37
    5  A    between atoms: N_6  and  C_30
    6  A    between atoms: C_7  and  C_27
    7  A    between atoms: O_8  and  C_29
    8  A    between atoms: O_8  and  C_32
    9  A    between atoms: C_9  and  O_34
   10  A    between atoms: O_22  and  C_36
   11  A    between atoms: C_24  and  C_51
   12  A    between atoms: C_27  and  C_28
   13  A    between atoms: C_27  and  C_40
   14  A    between atoms: C_30  and  C_55
   15  A    between atoms: C_31  and  C_43
   16  A    between atoms: O_34  and  N_58
   17  A    between atoms: C_36  and  C_47
   18  A    between atoms: C_37  and  O_46
   19  A    between atoms: C_40  and  C_53
   20  A    between atoms: C_44  and  C_50
   21  A    between atoms: O_46  and  C_54
                            x       y       z     vdW  Elec       q    Type
                         _______ _______ _______ _____ _____    ______ ____

>  <TORSDO>
F 21

$$$$
=
 OpenBabel11062416103D

 59 67  0  0  1  0  0  0  0  0999 V2000
  189.0870  177.1290  136.6760 C   0  0  0  0  0  2  0  0  0  0  0  0
  190.1820  177.3910  137.6620 C   0  0  1  0  0  3  0  0  0  0  0  0
  187.8720  177.3550  137.5520 C   0  0  2  0  0  3  0  0  0  0  0  0
  188.1830  176.9510  138.8710 O   0  0  0  0  0  0  0  0  0  0  0  0
  189.5870  176.9110  138.9600 C   0  0  2  0  0  3  0  0  0  0  0  0
  191.5450  176.7350  137.4040 C   0  0  2  0  0  3  0  0  0  0  0  0
  191.2020  176.0620  135.0920 F   0  0  0  0  0  0  0  0  0  0  0  0
  190.3260  174.7650  136.7480 F   0  0  0  0  0  0  0  0  0  0  0  0
  191.3650  175.6000  136.3920 C   0  0  0  0  0  3  0  0  0  0  0  0
  192.2990  176.2970  138.6600 C   0  0  0  0  0  2  0  0  0  0  0  0
  194.0430  174.6910  138.1000 C   0  0  0  0  0  3  0  0  0  0  0  0
  195.4540  174.3250  137.7920 C   0  0  0  0  0  1  0  0  0  0  0  0
  193.7210  175.9520  138.3450 C   0  0  0  0  0  3  0  0  0  0  0  0
  186.6220  176.6200  137.0330 C   0  0  2  0  0  3  0  0  0  0  0  0
  186.8700  175.8480  135.8700 O   0  0  0  0  0  0  0  0  0  0  0  0
  186.5440  174.5030  136.1250 C   0  0  0  0  0  1  0  0  0  0  0  0
  185.4410  177.5880  136.8700 C   0  0  0  0  0  2  0  0  0  0  0  0
  184.4500  177.4900  138.0180 C   0  0  0  0  0  2  0  0  0  0  0  0
  183.6540  176.2080  137.9060 C   0  0  0  0  0  2  0  0  0  0  0  0
  181.1840  175.2390  138.1730 C   0  0  1  0  0  0  0  0  0  0  0  0
  181.7160  176.7030  136.4850 C   0  0  0  0  0  2  0  0  0  0  0  0
  181.3060  175.4020  135.9310 N   0  0  1  0  0  0  0  0  0  0  0  0
  181.7220  174.4940  136.9970 C   0  0  2  0  0  3  0  0  0  0  0  0
  179.8460  175.4640  136.0080 C   0  0  0  0  0  2  0  0  0  0  0  0
  181.1720  173.0750  136.8470 C   0  0  0  0  0  1  0  0  0  0  0  0
  181.7690  175.9850  139.3840 C   0  0  1  0  0  0  0  0  0  0  0  0
  182.1320  176.4570  137.9470 C   0  0  2  0  0  0  0  0  0  0  0  0
  179.3880  175.5530  137.7720 S   0  0  0  0  0  0  0  0  0  0  0  0
  181.2250  177.2550  139.9380 N   0  0  0  0  0  0  0  0  0  0  0  0
  180.6550  176.0500  140.1930 O   0  0  0  0  0  0  0  0  0  0  0  0
  180.3440  177.8920  139.1100 O   0  0  0  0  0  0  0  0  0  0  0  0
  180.0070  179.1320  139.7050 C   0  0  2  0  0  3  0  0  0  0  0  0
  178.9690  179.9380  138.9030 C   0  0  0  0  0  2  0  0  0  0  0  0
  181.2760  179.9780  139.8220 C   0  0  0  0  0  2  0  0  0  0  0  0
  181.8440  180.2880  138.4340 C   0  0  0  0  0  2  0  0  0  0  0  0
  180.8180  180.9850  137.5270 C   0  0  1  0  0  3  0  0  0  0  0  0
  179.4780  180.2360  137.4950 C   0  0  0  0  0  2  0  0  0  0  0  0
  180.6520  182.4560  137.9200 C   0  0  0  0  0  2  0  0  0  0  0  0
  181.2390  183.3340  136.9310 N   0  0  0  0  0  0  0  0  0  0  0  0
  181.3580  184.5970  137.1520 C   0  0  0  0  0  2  0  0  0  0  0  0
  190.0350  177.7470  140.0190 O   0  0  0  0  0  0  0  0  0  0  0  0
  189.3400  177.9420  141.2160 C   0  0  0  0  0  0  0  0  0  0  0  0
  188.2640  178.5910  141.1670 O   0  0  0  0  0  0  0  0  0  0  0  0
  189.7770  177.3410  142.5390 C   0  0  2  0  0  3  0  0  0  0  0  0
  188.6210  176.6590  143.2280 C   0  0  2  0  0  3  0  0  0  0  0  0
  189.3760  178.3720  144.6800 O   0  0  0  0  0  0  0  0  0  0  0  0
  188.7320  177.1200  144.6630 C   0  0  1  0  0  3  0  0  0  0  0  0
  188.7510  175.2810  143.1540 F   0  0  0  0  0  0  0  0  0  0  0  0
  190.2240  178.3910  143.5560 C   0  0  1  0  0  3  0  0  0  0  0  0
  191.7720  177.4880  145.1700 O   0  0  0  0  0  1  0  0  0  0  0  0
  191.6840  178.1900  143.9660 C   0  0  0  0  0  2  0  0  0  0  0  0
  187.4570  177.2350  145.2250 O   0  0  0  0  0  0  0  0  0  0  0  0
  184.9220  178.1870  146.2510 C   0  0  0  0  0  2  0  0  0  0  0  0
  184.7390  178.5440  144.7890 C   0  0  2  0  0  0  0  0  0  0  0  0
  186.8720  178.3470  144.6050 C   0  0  1  0  0  3  0  0  0  0  0  0
  185.6790  177.9050  143.7860 C   0  0  0  0  0  2  0  0  0  0  0  0
  185.9420  179.0780  145.5690 C   0  0  2  0  0  3  0  0  0  0  0  0
  183.9190  179.7510  144.3910 C   0  0  0  0  0  2  0  0  0  0  0  0
  182.6360  179.3170  143.8630 N   0  0  0  0  0  1  0  0  0  0  0  0
  1  3  1  0  0  0  0
  1  2  1  0  0  0  0
  2  6  1  6  0  0  0
  2  5  1  0  0  0  0
  3 14  1  6  0  0  0
  3  4  1  0  0  0  0
  4  5  1  0  0  0  0
  5 41  1  1  0  0  0
  6 10  1  1  0  0  0
  7  9  1  0  0  0  0
  9  8  1  0  0  0  0
  9  6  1  0  0  0  0
 11 13  2  0  0  0  0
 12 11  1  0  0  0  0
 13 10  1  0  0  0  0
 14 17  1  6  0  0  0
 15 16  1  0  0  0  0
 15 14  1  0  0  0  0
 17 18  1  0  0  0  0
 19 18  1  0  0  0  0
 20 28  1  6  0  0  0
 20 26  1  0  0  0  0
 21 27  1  0  0  0  0
 22 24  1  1  0  0  0
 22 21  1  0  0  0  0
 22 23  1  0  0  0  0
 23 25  1  6  0  0  0
 23 20  1  0  0  0  0
 24 28  1  0  0  0  0
 26 29  1  0  0  0  0
 26 30  1  1  0  0  0
 27 19  1  6  0  0  0
 27 20  1  0  0  0  0
 27 26  1  0  0  0  0
 29 30  1  0  0  0  0
 31 29  1  0  0  0  0
 32 31  1  6  0  0  0
 32 34  1  0  0  0  0
 33 32  1  0  0  0  0
 35 34  1  0  0  0  0
 36 38  1  1  0  0  0
 36 35  1  0  0  0  0
 37 36  1  0  0  0  0
 37 33  1  0  0  0  0
 39 40  2  0  0  0  0
 39 38  1  0  0  0  0
 41 42  1  0  0  0  0
 43 42  2  0  0  0  0
 44 42  1  6  0  0  0
 44 45  1  0  0  0  0
 44 49  1  0  0  0  0
 45 48  1  1  0  0  0
 45 47  1  0  0  0  0
 47 46  1  0  0  0  0
 47 52  1  6  0  0  0
 49 51  1  1  0  0  0
 49 46  1  0  0  0  0
 51 50  1  0  0  0  0
 54 58  1  6  0  0  0
 54 57  1  0  0  0  0
 54 53  1  0  0  0  0
 55 52  1  1  0  0  0
 55 57  1  0  0  0  0
 56 55  1  0  0  0  0
 56 54  1  0  0  0  0
 57 53  1  1  0  0  0
 59 58  1  0  0  0  0
M  END
>  <MODEL>
6

>  <REMARK>
 VINA RESULT:      -6.0      2.347      7.280
  Name = 
  21 active torsions:
  status: ('A' for Active; 'I' for Inactive)
    1  A    between atoms: C_1  and  C_3
    2  A    between atoms: C_1  and  C_24
    3  A    between atoms: C_3  and  C_36
    4  A    between atoms: C_4  and  C_37
    5  A    between atoms: N_6  and  C_30
    6  A    between atoms: C_7  and  C_27
    7  A    between atoms: O_8  and  C_29
    8  A    between atoms: O_8  and  C_32
    9  A    between atoms: C_9  and  O_34
   10  A    between atoms: O_22  and  C_36
   11  A    between atoms: C_24  and  C_51
   12  A    between atoms: C_27  and  C_28
   13  A    between atoms: C_27  and  C_40
   14  A    between atoms: C_30  and  C_55
   15  A    between atoms: C_31  and  C_43
   16  A    between atoms: O_34  and  N_58
   17  A    between atoms: C_36  and  C_47
   18  A    between atoms: C_37  and  O_46
   19  A    between atoms: C_40  and  C_53
   20  A    between atoms: C_44  and  C_50
   21  A    between atoms: O_46  and  C_54
                            x       y       z     vdW  Elec       q    Type
                         _______ _______ _______ _____ _____    ______ ____

>  <TORSDO>
F 21

$$$$
=
 OpenBabel11062416103D

 59 67  0  0  1  0  0  0  0  0999 V2000
  187.9320  178.2610  139.8620 C   0  0  0  0  0  2  0  0  0  0  0  0
  189.1400  177.3800  139.8180 C   0  0  1  0  0  3  0  0  0  0  0  0
  187.8340  178.5130  141.3530 C   0  0  2  0  0  3  0  0  0  0  0  0
  188.2910  177.3640  142.0380 O   0  0  0  0  0  0  0  0  0  0  0  0
  189.0510  176.6200  141.1160 C   0  0  2  0  0  3  0  0  0  0  0  0
  189.2800  176.4220  138.6270 C   0  0  2  0  0  3  0  0  0  0  0  0
  191.6500  176.9580  138.7390 F   0  0  0  0  0  0  0  0  0  0  0  0
  190.4160  177.8170  137.0270 F   0  0  0  0  0  0  0  0  0  0  0  0
  190.5770  176.7460  137.8810 C   0  0  0  0  0  3  0  0  0  0  0  0
  188.0640  176.3580  137.7030 C   0  0  0  0  0  2  0  0  0  0  0  0
  188.0780  174.0600  136.8910 C   0  0  0  0  0  3  0  0  0  0  0  0
  188.2780  173.0340  135.8300 C   0  0  0  0  0  1  0  0  0  0  0  0
  188.2610  175.3430  136.6200 C   0  0  0  0  0  3  0  0  0  0  0  0
  186.4080  178.8880  141.7980 C   0  0  2  0  0  3  0  0  0  0  0  0
  185.7790  177.8760  142.5690 O   0  0  0  0  0  0  0  0  0  0  0  0
  185.3440  178.4230  143.7900 C   0  0  0  0  0  1  0  0  0  0  0  0
  185.5590  179.3470  140.6040 C   0  0  0  0  0  2  0  0  0  0  0  0
  184.2660  178.5590  140.4770 C   0  0  0  0  0  2  0  0  0  0  0  0
  183.2210  179.3910  139.7640 C   0  0  0  0  0  2  0  0  0  0  0  0
  180.6720  179.0610  139.0570 C   0  0  1  0  0  0  0  0  0  0  0  0
  181.8490  177.3830  140.0930 C   0  0  0  0  0  2  0  0  0  0  0  0
  180.7250  177.8230  140.9350 N   0  0  1  0  0  0  0  0  0  0  0  0
  180.6010  179.2240  140.5380 C   0  0  2  0  0  3  0  0  0  0  0  0
  179.5820  177.1360  140.3340 C   0  0  0  0  0  2  0  0  0  0  0  0
  179.3190  179.8940  141.0360 C   0  0  0  0  0  1  0  0  0  0  0  0
  181.6550  179.4430  137.9370 C   0  0  1  0  0  0  0  0  0  0  0  0
  182.1340  178.5230  139.0960 C   0  0  2  0  0  0  0  0  0  0  0  0
  179.3730  177.7860  138.6420 S   0  0  0  0  0  0  0  0  0  0  0  0
  181.9880  178.5790  136.7730 N   0  0  0  0  0  0  0  0  0  0  0  0
  180.8400  179.3000  136.8360 O   0  0  0  0  0  0  0  0  0  0  0  0
  181.5920  177.2780  136.9130 O   0  0  0  0  0  0  0  0  0  0  0  0
  182.2410  176.5150  135.9130 C   0  0  2  0  0  3  0  0  0  0  0  0
  181.8100  175.0370  135.8880 C   0  0  0  0  0  2  0  0  0  0  0  0
  183.7490  176.5640  136.1620 C   0  0  0  0  0  2  0  0  0  0  0  0
  184.0920  175.9180  137.5080 C   0  0  0  0  0  2  0  0  0  0  0  0
  183.5800  174.4730  137.6070 C   0  0  1  0  0  3  0  0  0  0  0  0
  182.0960  174.3610  137.2260 C   0  0  0  0  0  2  0  0  0  0  0  0
  184.4620  173.5240  136.7910 C   0  0  0  0  0  2  0  0  0  0  0  0
  184.0730  172.1440  136.9890 N   0  0  0  0  0  0  0  0  0  0  0  0
  184.3830  171.2370  136.1290 C   0  0  0  0  0  2  0  0  0  0  0  0
  190.3590  176.4010  141.6230 O   0  0  0  0  0  0  0  0  0  0  0  0
  190.6370  175.8460  142.8760 C   0  0  0  0  0  0  0  0  0  0  0  0
  190.2560  174.6660  143.0880 O   0  0  0  0  0  0  0  0  0  0  0  0
  191.4400  176.5640  143.9450 C   0  0  2  0  0  3  0  0  0  0  0  0
  191.1360  176.0060  145.3130 C   0  0  2  0  0  3  0  0  0  0  0  0
  190.5470  178.2990  145.3570 O   0  0  0  0  0  0  0  0  0  0  0  0
  190.9680  177.2350  146.1760 C   0  0  1  0  0  3  0  0  0  0  0  0
  192.1920  175.2350  145.7720 F   0  0  0  0  0  0  0  0  0  0  0  0
  191.0740  178.0420  144.0780 C   0  0  1  0  0  3  0  0  0  0  0  0
  192.0980  180.2080  144.3580 O   0  0  0  0  0  1  0  0  0  0  0  0
  192.2730  178.9460  143.7860 C   0  0  0  0  0  2  0  0  0  0  0  0
  190.0120  176.9920  147.1670 O   0  0  0  0  0  0  0  0  0  0  0  0
  187.4550  176.8070  148.5130 C   0  0  0  0  0  2  0  0  0  0  0  0
  187.0870  177.8040  147.4320 C   0  0  2  0  0  0  0  0  0  0  0  0
  189.1980  178.1320  147.1910 C   0  0  1  0  0  3  0  0  0  0  0  0
  188.0270  177.9410  146.2510 C   0  0  0  0  0  2  0  0  0  0  0  0
  188.2480  178.0940  148.3850 C   0  0  2  0  0  3  0  0  0  0  0  0
  186.0440  178.8690  147.6930 C   0  0  0  0  0  2  0  0  0  0  0  0
  184.8190  178.5370  146.9850 N   0  0  0  0  0  1  0  0  0  0  0  0
  1  3  1  0  0  0  0
  2  6  1  6  0  0  0
  2  1  1  0  0  0  0
  2  5  1  0  0  0  0
  3 14  1  1  0  0  0
  3  4  1  0  0  0  0
  5 41  1  1  0  0  0
  5  4  1  0  0  0  0
  6 10  1  6  0  0  0
  8  9  1  0  0  0  0
  9  6  1  0  0  0  0
  9  7  1  0  0  0  0
 12 11  1  0  0  0  0
 13 11  2  0  0  0  0
 13 10  1  0  0  0  0
 14 17  1  6  0  0  0
 14 15  1  0  0  0  0
 15 16  1  0  0  0  0
 18 17  1  0  0  0  0
 19 18  1  0  0  0  0
 20 28  1  6  0  0  0
 20 27  1  0  0  0  0
 20 23  1  0  0  0  0
 22 21  1  6  0  0  0
 23 22  1  0  0  0  0
 23 25  1  6  0  0  0
 24 22  1  0  0  0  0
 26 30  1  6  0  0  0
 26 20  1  0  0  0  0
 26 27  1  0  0  0  0
 27 19  1  1  0  0  0
 27 21  1  0  0  0  0
 28 24  1  0  0  0  0
 29 30  1  0  0  0  0
 29 31  1  0  0  0  0
 29 26  1  0  0  0  0
 32 34  1  0  0  0  0
 32 31  1  1  0  0  0
 33 32  1  0  0  0  0
 33 37  1  0  0  0  0
 34 35  1  0  0  0  0
 35 36  1  0  0  0  0
 36 38  1  6  0  0  0
 37 36  1  0  0  0  0
 38 39  1  0  0  0  0
 40 39  2  0  0  0  0
 41 42  1  0  0  0  0
 42 43  2  0  0  0  0
 44 42  1  6  0  0  0
 44 49  1  0  0  0  0
 44 45  1  0  0  0  0
 45 48  1  1  0  0  0
 45 47  1  0  0  0  0
 46 47  1  0  0  0  0
 47 52  1  1  0  0  0
 49 51  1  1  0  0  0
 49 46  1  0  0  0  0
 51 50  1  0  0  0  0
 54 58  1  1  0  0  0
 54 57  1  0  0  0  0
 54 53  1  0  0  0  0
 55 52  1  1  0  0  0
 55 57  1  0  0  0  0
 56 55  1  0  0  0  0
 56 54  1  0  0  0  0
 57 53  1  1  0  0  0
 59 58  1  0  0  0  0
M  END
>  <MODEL>
7

>  <REMARK>
 VINA RESULT:      -5.9      2.551      6.733
  Name = 
  21 active torsions:
  status: ('A' for Active; 'I' for Inactive)
    1  A    between atoms: C_1  and  C_3
    2  A    between atoms: C_1  and  C_24
    3  A    between atoms: C_3  and  C_36
    4  A    between atoms: C_4  and  C_37
    5  A    between atoms: N_6  and  C_30
    6  A    between atoms: C_7  and  C_27
    7  A    between atoms: O_8  and  C_29
    8  A    between atoms: O_8  and  C_32
    9  A    between atoms: C_9  and  O_34
   10  A    between atoms: O_22  and  C_36
   11  A    between atoms: C_24  and  C_51
   12  A    between atoms: C_27  and  C_28
   13  A    between atoms: C_27  and  C_40
   14  A    between atoms: C_30  and  C_55
   15  A    between atoms: C_31  and  C_43
   16  A    between atoms: O_34  and  N_58
   17  A    between atoms: C_36  and  C_47
   18  A    between atoms: C_37  and  O_46
   19  A    between atoms: C_40  and  C_53
   20  A    between atoms: C_44  and  C_50
   21  A    between atoms: O_46  and  C_54
                            x       y       z     vdW  Elec       q    Type
                         _______ _______ _______ _____ _____    ______ ____

>  <TORSDO>
F 21

$$$$
=
 OpenBabel11062416103D

 59 67  0  0  1  0  0  0  0  0999 V2000
  189.4170  178.1640  142.0390 C   0  0  0  0  0  2  0  0  0  0  0  0
  188.2270  178.4720  142.8920 C   0  0  1  0  0  3  0  0  0  0  0  0
  188.8510  178.4590  140.6650 C   0  0  2  0  0  3  0  0  0  0  0  0
  187.4750  178.1330  140.6610 O   0  0  0  0  0  0  0  0  0  0  0  0
  187.0700  178.0810  142.0090 C   0  0  2  0  0  3  0  0  0  0  0  0
  188.1330  177.7850  144.2600 C   0  0  2  0  0  3  0  0  0  0  0  0
  186.4430  179.1320  145.3760 F   0  0  0  0  0  0  0  0  0  0  0  0
  186.3780  176.8690  145.6300 F   0  0  0  0  0  0  0  0  0  0  0  0
  186.6970  177.9040  144.7770 C   0  0  0  0  0  3  0  0  0  0  0  0
  189.1720  178.2410  145.2840 C   0  0  0  0  0  2  0  0  0  0  0  0
  190.6110  177.1360  146.9120 C   0  0  0  0  0  3  0  0  0  0  0  0
  191.4860  176.0170  147.3580 C   0  0  0  0  0  1  0  0  0  0  0  0
  190.0420  177.1010  145.7170 C   0  0  0  0  0  3  0  0  0  0  0  0
  189.5950  177.7090  139.5440 C   0  0  2  0  0  3  0  0  0  0  0  0
  188.7560  177.3490  138.4590 O   0  0  0  0  0  0  0  0  0  0  0  0
  187.9630  178.4530  138.0960 C   0  0  0  0  0  1  0  0  0  0  0  0
  190.3910  176.5220  140.1070 C   0  0  0  0  0  2  0  0  0  0  0  0
  191.8260  176.4980  139.6060 C   0  0  0  0  0  2  0  0  0  0  0  0
  191.8590  176.7850  138.1200 C   0  0  0  0  0  2  0  0  0  0  0  0
  192.2260  175.5030  135.8110 C   0  0  1  0  0  0  0  0  0  0  0  0
  191.8990  174.3560  137.7740 C   0  0  0  0  0  2  0  0  0  0  0  0
  190.8030  174.0870  136.8290 N   0  0  1  0  0  0  0  0  0  0  0  0
  190.7660  175.3350  136.0710 C   0  0  2  0  0  3  0  0  0  0  0  0
  191.3880  173.0920  135.9300 C   0  0  0  0  0  2  0  0  0  0  0  0
  189.9070  175.2640  134.8080 C   0  0  0  0  0  1  0  0  0  0  0  0
  193.3310  176.4830  136.2410 C   0  0  1  0  0  0  0  0  0  0  0  0
  192.5670  175.6680  137.3240 C   0  0  2  0  0  0  0  0  0  0  0  0
  192.7760  173.8880  135.0520 S   0  0  0  0  0  0  0  0  0  0  0  0
  194.7290  176.0910  136.5680 N   0  0  0  0  0  0  0  0  0  0  0  0
  194.2880  176.2050  135.2890 O   0  0  0  0  0  0  0  0  0  0  0  0
  194.9000  174.7480  136.7600 O   0  0  0  0  0  0  0  0  0  0  0  0
  196.1210  174.5610  137.4520 C   0  0  2  0  0  3  0  0  0  0  0  0
  197.3350  174.3820  136.5220 C   0  0  0  0  0  2  0  0  0  0  0  0
  196.0020  173.3080  138.3220 C   0  0  0  0  0  2  0  0  0  0  0  0
  195.7880  172.0680  137.4500 C   0  0  0  0  0  2  0  0  0  0  0  0
  196.9020  171.8910  136.4060 C   0  0  1  0  0  3  0  0  0  0  0  0
  197.1480  173.1770  135.6040 C   0  0  0  0  0  2  0  0  0  0  0  0
  198.1820  171.3600  137.0580 C   0  0  0  0  0  2  0  0  0  0  0  0
  199.1560  170.9690  136.0610 N   0  0  0  0  0  0  0  0  0  0  0  0
  199.1710  169.7740  135.5810 C   0  0  0  0  0  2  0  0  0  0  0  0
  185.9880  178.9740  142.2290 O   0  0  0  0  0  0  0  0  0  0  0  0
  184.8580  179.0620  141.4100 C   0  0  0  0  0  0  0  0  0  0  0  0
  184.9430  179.7720  140.3750 O   0  0  0  0  0  0  0  0  0  0  0  0
  183.5820  178.2810  141.6640 C   0  0  2  0  0  3  0  0  0  0  0  0
  182.9910  177.7790  140.3700 C   0  0  2  0  0  3  0  0  0  0  0  0
  181.3710  179.1900  141.3670 O   0  0  0  0  0  0  0  0  0  0  0  0
  181.5180  178.0900  140.5000 C   0  0  1  0  0  3  0  0  0  0  0  0
  183.1850  176.4130  140.2410 F   0  0  0  0  0  0  0  0  0  0  0  0
  182.4630  179.1380  142.2530 C   0  0  1  0  0  3  0  0  0  0  0  0
  182.8850  179.1020  144.6280 O   0  0  0  0  0  1  0  0  0  0  0  0
  182.0300  178.6280  143.6300 C   0  0  0  0  0  2  0  0  0  0  0  0
  180.9860  178.4010  139.2450 O   0  0  0  0  0  0  0  0  0  0  0  0
  179.0940  179.4820  137.3390 C   0  0  0  0  0  2  0  0  0  0  0  0
  180.0280  180.6700  137.4500 C   0  0  2  0  0  0  0  0  0  0  0  0
  180.7390  179.7800  139.2730 C   0  0  1  0  0  3  0  0  0  0  0  0
  181.3890  180.4390  138.0760 C   0  0  0  0  0  2  0  0  0  0  0  0
  179.3600  180.0950  138.7000 C   0  0  2  0  0  3  0  0  0  0  0  0
  179.5000  182.0790  137.2940 C   0  0  0  0  0  2  0  0  0  0  0  0
  180.6030  182.9870  137.0210 N   0  0  0  0  0  1  0  0  0  0  0  0
  1  2  1  0  0  0  0
  2  6  1  1  0  0  0
  3 14  1  6  0  0  0
  3  1  1  0  0  0  0
  4  3  1  0  0  0  0
  4  5  1  0  0  0  0
  5 41  1  6  0  0  0
  5  2  1  0  0  0  0
  6  9  1  0  0  0  0
  6 10  1  1  0  0  0
  9  7  1  0  0  0  0
  9  8  1  0  0  0  0
 10 13  1  0  0  0  0
 11 12  1  0  0  0  0
 13 11  2  0  0  0  0
 14 17  1  1  0  0  0
 15 14  1  0  0  0  0
 16 15  1  0  0  0  0
 18 17  1  0  0  0  0
 19 18  1  0  0  0  0
 20 28  1  6  0  0  0
 20 23  1  0  0  0  0
 20 26  1  0  0  0  0
 20 27  1  0  0  0  0
 22 24  1  6  0  0  0
 22 21  1  0  0  0  0
 23 25  1  6  0  0  0
 23 22  1  0  0  0  0
 26 30  1  6  0  0  0
 26 29  1  0  0  0  0
 26 27  1  0  0  0  0
 27 21  1  0  0  0  0
 27 19  1  1  0  0  0
 28 24  1  0  0  0  0
 29 31  1  0  0  0  0
 30 29  1  0  0  0  0
 32 31  1  6  0  0  0
 32 34  1  0  0  0  0
 33 32  1  0  0  0  0
 35 34  1  0  0  0  0
 36 38  1  1  0  0  0
 36 35  1  0  0  0  0
 37 36  1  0  0  0  0
 37 33  1  0  0  0  0
 39 38  1  0  0  0  0
 40 39  2  0  0  0  0
 42 41  1  0  0  0  0
 43 42  2  0  0  0  0
 44 42  1  6  0  0  0
 44 49  1  0  0  0  0
 45 48  1  1  0  0  0
 45 47  1  0  0  0  0
 45 44  1  0  0  0  0
 46 49  1  0  0  0  0
 47 52  1  6  0  0  0
 47 46  1  0  0  0  0
 49 51  1  1  0  0  0
 51 50  1  0  0  0  0
 53 54  1  0  0  0  0
 54 58  1  6  0  0  0
 54 56  1  0  0  0  0
 54 57  1  0  0  0  0
 55 52  1  6  0  0  0
 56 55  1  0  0  0  0
 57 53  1  6  0  0  0
 57 55  1  0  0  0  0
 59 58  1  0  0  0  0
M  END
>  <MODEL>
8

>  <REMARK>
 VINA RESULT:      -5.6      4.574     10.335
  Name = 
  21 active torsions:
  status: ('A' for Active; 'I' for Inactive)
    1  A    between atoms: C_1  and  C_3
    2  A    between atoms: C_1  and  C_24
    3  A    between atoms: C_3  and  C_36
    4  A    between atoms: C_4  and  C_37
    5  A    between atoms: N_6  and  C_30
    6  A    between atoms: C_7  and  C_27
    7  A    between atoms: O_8  and  C_29
    8  A    between atoms: O_8  and  C_32
    9  A    between atoms: C_9  and  O_34
   10  A    between atoms: O_22  and  C_36
   11  A    between atoms: C_24  and  C_51
   12  A    between atoms: C_27  and  C_28
   13  A    between atoms: C_27  and  C_40
   14  A    between atoms: C_30  and  C_55
   15  A    between atoms: C_31  and  C_43
   16  A    between atoms: O_34  and  N_58
   17  A    between atoms: C_36  and  C_47
   18  A    between atoms: C_37  and  O_46
   19  A    between atoms: C_40  and  C_53
   20  A    between atoms: C_44  and  C_50
   21  A    between atoms: O_46  and  C_54
                            x       y       z     vdW  Elec       q    Type
                         _______ _______ _______ _____ _____    ______ ____

>  <TORSDO>
F 21

$$$$
=
 OpenBabel11062416103D

 59 67  0  0  1  0  0  0  0  0999 V2000
  189.7630  178.6920  142.2660 C   0  0  0  0  0  2  0  0  0  0  0  0
  189.1760  178.2170  143.5580 C   0  0  1  0  0  3  0  0  0  0  0  0
  188.8200  178.0340  141.2800 C   0  0  2  0  0  3  0  0  0  0  0  0
  188.3900  176.7990  141.8180 O   0  0  0  0  0  0  0  0  0  0  0  0
  188.6400  176.8540  143.2030 C   0  0  2  0  0  3  0  0  0  0  0  0
  190.1020  178.1440  144.7780 C   0  0  2  0  0  3  0  0  0  0  0  0
  191.3490  180.1700  144.2700 F   0  0  0  0  0  0  0  0  0  0  0  0
  192.0020  178.2140  143.3010 F   0  0  0  0  0  0  0  0  0  0  0  0
  191.4430  178.7920  144.4220 C   0  0  0  0  0  3  0  0  0  0  0  0
  190.2590  176.7510  145.3880 C   0  0  0  0  0  2  0  0  0  0  0  0
  191.8610  175.6850  146.8840 C   0  0  0  0  0  3  0  0  0  0  0  0
  192.7770  175.6870  148.0580 C   0  0  0  0  0  1  0  0  0  0  0  0
  191.1820  176.7770  146.5660 C   0  0  0  0  0  3  0  0  0  0  0  0
  189.4580  177.8350  139.8920 C   0  0  2  0  0  3  0  0  0  0  0  0
  188.5930  177.2010  138.9640 O   0  0  0  0  0  0  0  0  0  0  0  0
  188.2490  178.1130  137.9490 C   0  0  0  0  0  1  0  0  0  0  0  0
  190.8250  177.1440  140.0060 C   0  0  0  0  0  2  0  0  0  0  0  0
  191.0500  176.1220  138.9040 C   0  0  0  0  0  2  0  0  0  0  0  0
  191.8630  176.7380  137.7860 C   0  0  0  0  0  2  0  0  0  0  0  0
  192.2810  175.4150  135.5090 C   0  0  1  0  0  0  0  0  0  0  0  0
  192.1900  174.3200  137.5270 C   0  0  0  0  0  2  0  0  0  0  0  0
  191.0940  173.8790  136.6480 N   0  0  1  0  0  0  0  0  0  0  0  0
  190.8670  175.0800  135.8480 C   0  0  2  0  0  3  0  0  0  0  0  0
  191.7570  172.9270  135.7570 C   0  0  0  0  0  2  0  0  0  0  0  0
  189.9670  174.8500  134.6330 C   0  0  0  0  0  1  0  0  0  0  0  0
  193.2740  176.5400  135.8460 C   0  0  1  0  0  0  0  0  0  0  0  0
  192.6670  175.6850  136.9950 C   0  0  2  0  0  0  0  0  0  0  0  0
  192.9930  173.8500  134.7820 S   0  0  0  0  0  0  0  0  0  0  0  0
  194.7230  176.3370  136.1170 N   0  0  0  0  0  0  0  0  0  0  0  0
  194.2140  176.3420  134.8590 O   0  0  0  0  0  0  0  0  0  0  0  0
  195.0690  175.0350  136.3490 O   0  0  0  0  0  0  0  0  0  0  0  0
  196.3610  174.8260  135.8100 C   0  0  2  0  0  3  0  0  0  0  0  0
  196.5070  173.4900  135.0600 C   0  0  0  0  0  2  0  0  0  0  0  0
  197.3760  174.8390  136.9550 C   0  0  0  0  0  2  0  0  0  0  0  0
  197.1050  173.6860  137.9250 C   0  0  0  0  0  2  0  0  0  0  0  0
  197.1090  172.3200  137.2220 C   0  0  1  0  0  3  0  0  0  0  0  0
  196.2060  172.3100  135.9800 C   0  0  0  0  0  2  0  0  0  0  0  0
  198.5400  171.8750  136.9030 C   0  0  0  0  0  2  0  0  0  0  0  0
  198.5520  170.8090  135.9230 N   0  0  0  0  0  0  0  0  0  0  0  0
  198.1340  169.6290  136.2220 C   0  0  0  0  0  2  0  0  0  0  0  0
  187.4410  176.6180  143.9260 O   0  0  0  0  0  0  0  0  0  0  0  0
  186.6000  177.6250  144.4090 C   0  0  0  0  0  0  0  0  0  0  0  0
  186.5840  177.8270  145.6510 O   0  0  0  0  0  0  0  0  0  0  0  0
  185.7810  178.5290  143.5060 C   0  0  2  0  0  3  0  0  0  0  0  0
  184.5890  179.0890  144.2420 C   0  0  2  0  0  3  0  0  0  0  0  0
  183.7460  177.8460  142.4110 O   0  0  0  0  0  0  0  0  0  0  0  0
  183.4490  178.9260  143.2640 C   0  0  1  0  0  3  0  0  0  0  0  0
  184.7820  180.4290  144.5380 F   0  0  0  0  0  0  0  0  0  0  0  0
  185.1500  177.7870  142.3280 C   0  0  1  0  0  3  0  0  0  0  0  0
  185.6160  179.7330  140.9810 O   0  0  0  0  0  1  0  0  0  0  0  0
  185.6450  178.3360  140.9890 C   0  0  0  0  0  2  0  0  0  0  0  0
  182.2620  178.6720  143.9560 O   0  0  0  0  0  0  0  0  0  0  0  0
  180.0310  177.4210  142.5970 C   0  0  0  0  0  2  0  0  0  0  0  0
  180.1630  178.6680  141.7460 C   0  0  2  0  0  0  0  0  0  0  0  0
  181.2990  179.5040  143.3690 C   0  0  1  0  0  3  0  0  0  0  0  0
  181.4450  179.4680  141.8630 C   0  0  0  0  0  2  0  0  0  0  0  0
  179.9570  178.7850  143.2570 C   0  0  2  0  0  3  0  0  0  0  0  0
  178.9440  179.2890  141.1010 C   0  0  0  0  0  2  0  0  0  0  0  0
  179.3530  180.3790  140.2300 N   0  0  0  0  0  1  0  0  0  0  0  0
  1  2  1  0  0  0  0
  2  6  1  1  0  0  0
  3 14  1  6  0  0  0
  3  4  1  0  0  0  0
  3  1  1  0  0  0  0
  4  5  1  0  0  0  0
  5  2  1  0  0  0  0
  5 41  1  1  0  0  0
  6 10  1  6  0  0  0
  7  9  1  0  0  0  0
  8  9  1  0  0  0  0
  9  6  1  0  0  0  0
 10 13  1  0  0  0  0
 11 12  1  0  0  0  0
 13 11  2  0  0  0  0
 14 17  1  1  0  0  0
 15 14  1  0  0  0  0
 16 15  1  0  0  0  0
 18 17  1  0  0  0  0
 19 18  1  0  0  0  0
 20 28  1  6  0  0  0
 20 26  1  0  0  0  0
 20 23  1  0  0  0  0
 20 27  1  0  0  0  0
 22 24  1  6  0  0  0
 22 21  1  0  0  0  0
 23 25  1  6  0  0  0
 23 22  1  0  0  0  0
 26 30  1  6  0  0  0
 26 29  1  0  0  0  0
 26 27  1  0  0  0  0
 27 21  1  0  0  0  0
 27 19  1  1  0  0  0
 28 24  1  0  0  0  0
 29 31  1  0  0  0  0
 30 29  1  0  0  0  0
 32 31  1  1  0  0  0
 32 34  1  0  0  0  0
 33 32  1  0  0  0  0
 33 37  1  0  0  0  0
 34 35  1  0  0  0  0
 36 38  1  6  0  0  0
 36 35  1  0  0  0  0
 37 36  1  0  0  0  0
 39 40  2  0  0  0  0
 39 38  1  0  0  0  0
 41 42  1  0  0  0  0
 42 43  2  0  0  0  0
 44 45  1  0  0  0  0
 44 42  1  1  0  0  0
 45 48  1  6  0  0  0
 46 47  1  0  0  0  0
 47 52  1  1  0  0  0
 47 45  1  0  0  0  0
 49 51  1  6  0  0  0
 49 46  1  0  0  0  0
 49 44  1  0  0  0  0
 50 51  1  0  0  0  0
 54 58  1  6  0  0  0
 54 56  1  0  0  0  0
 54 53  1  0  0  0  0
 54 57  1  0  0  0  0
 55 52  1  1  0  0  0
 56 55  1  0  0  0  0
 57 53  1  1  0  0  0
 57 55  1  0  0  0  0
 59 58  1  0  0  0  0
M  END
>  <MODEL>
9

>  <REMARK>
 VINA RESULT:      -5.5      4.534     10.250
  Name = 
  21 active torsions:
  status: ('A' for Active; 'I' for Inactive)
    1  A    between atoms: C_1  and  C_3
    2  A    between atoms: C_1  and  C_24
    3  A    between atoms: C_3  and  C_36
    4  A    between atoms: C_4  and  C_37
    5  A    between atoms: N_6  and  C_30
    6  A    between atoms: C_7  and  C_27
    7  A    between atoms: O_8  and  C_29
    8  A    between atoms: O_8  and  C_32
    9  A    between atoms: C_9  and  O_34
   10  A    between atoms: O_22  and  C_36
   11  A    between atoms: C_24  and  C_51
   12  A    between atoms: C_27  and  C_28
   13  A    between atoms: C_27  and  C_40
   14  A    between atoms: C_30  and  C_55
   15  A    between atoms: C_31  and  C_43
   16  A    between atoms: O_34  and  N_58
   17  A    between atoms: C_36  and  C_47
   18  A    between atoms: C_37  and  O_46
   19  A    between atoms: C_40  and  C_53
   20  A    between atoms: C_44  and  C_50
   21  A    between atoms: O_46  and  C_54
                            x       y       z     vdW  Elec       q    Type
                         _______ _______ _______ _____ _____    ______ ____

>  <TORSDO>
F 21

$$$$
