=
 OpenBabel11062415043D

 31 36  0  0  1  0  0  0  0  0999 V2000
  189.2740  177.7970  146.8190 N   0  0  0  0  0  0  0  0  0  0  0  0
  189.8200  177.4830  145.6220 C   0  0  0  0  0  3  0  0  0  0  0  0
  187.6300  177.5250  145.4090 C   0  0  0  0  0  0  0  0  0  0  0  0
  187.0810  178.1470  147.7150 N   0  0  0  0  0  1  0  0  0  0  0  0
  188.7940  177.3070  144.7020 C   0  0  0  0  0  0  0  0  0  0  0  0
  187.9600  177.8180  146.6780 N   0  0  0  0  0  0  0  0  0  0  0  0
  188.5770  175.8320  142.8570 O   0  0  0  0  0  0  0  0  0  0  0  0
  188.9380  176.9630  143.2770 C   0  0  0  0  0  0  0  0  0  0  0  0
  189.4960  177.9580  142.3110 C   0  0  0  0  0  2  0  0  0  0  0  0
  191.5510  177.2610  141.0840 C   0  0  0  0  0  2  0  0  0  0  0  0
  191.3030  176.5360  138.7430 N   0  0  2  0  0  0  0  0  0  0  0  0
  190.0200  177.2410  138.5360 C   0  0  2  0  0  3  0  0  0  0  0  0
  190.0210  177.2680  141.0610 C   0  0  2  0  0  3  0  0  0  0  0  0
  189.5020  177.9540  139.7970 C   0  0  0  0  0  2  0  0  0  0  0  0
  188.9600  176.2560  138.0720 C   0  0  0  0  0  1  0  0  0  0  0  0
  192.1470  177.2890  139.6740 C   0  0  0  0  0  2  0  0  0  0  0  0
  192.0080  176.5190  137.4630 C   0  0  1  0  0  3  0  0  0  0  0  0
  194.2560  176.3930  136.5870 O   0  0  0  0  0  1  0  0  0  0  0  0
  193.4930  174.5440  137.9350 C   0  0  0  0  0  2  0  0  0  0  0  0
  193.4330  176.0280  137.6510 C   0  0  1  0  0  0  0  0  0  0  0  0
  192.3720  175.0940  137.0830 C   0  0  2  0  0  3  0  0  0  0  0  0
  186.3040  177.4720  144.8700 N   0  0  0  0  0  2  0  0  0  0  0  0
  185.2440  178.3660  142.9060 C   0  0  0  0  0  0  0  0  0  0  0  0
  183.2460  178.6380  143.9270 N   0  0  0  0  0  0  0  0  0  0  0  0
  183.5230  178.8360  141.4470 N   0  0  0  0  0  0  0  0  0  0  0  0
  184.6380  179.0400  140.5320 C   0  0  0  0  0  3  0  0  0  0  0  0
  184.2140  178.7510  145.0090 C   0  0  0  0  0  2  0  0  0  0  0  0
  183.9640  178.4340  142.7290 C   0  0  0  0  0  0  0  0  0  0  0  0
  182.0590  179.2870  143.9560 O   0  0  0  0  0  1  0  0  0  0  0  0
  186.2050  178.7900  141.4680 S   0  0  0  0  0  0  0  0  0  0  0  0
  185.5920  178.6200  144.3310 C   0  0  1  0  0  3  0  0  0  0  0  0
  2  1  2  0  0  0  0
  3  6  1  0  0  0  0
  5  3  2  0  0  0  0
  5  2  1  0  0  0  0
  6  1  1  0  0  0  0
  6  4  1  0  0  0  0
  7  8  2  0  0  0  0
  8  5  1  0  0  0  0
  9  8  1  0  0  0  0
 11 16  1  1  0  0  0
 12 15  1  1  0  0  0
 12 11  1  0  0  0  0
 12 14  1  0  0  0  0
 13 10  1  0  0  0  0
 13  9  1  1  0  0  0
 14 13  1  0  0  0  0
 16 10  1  0  0  0  0
 17 20  1  0  0  0  0
 17 11  1  1  0  0  0
 20 18  1  6  0  0  0
 20 19  1  0  0  0  0
 21 17  1  0  0  0  0
 21 20  1  0  0  0  0
 21 19  1  1  0  0  0
 22  3  1  0  0  0  0
 23 31  1  0  0  0  0
 24 29  1  0  0  0  0
 24 27  1  0  0  0  0
 25 28  1  0  0  0  0
 26 25  2  0  0  0  0
 26 30  1  0  0  0  0
 28 23  2  0  0  0  0
 28 24  1  0  0  0  0
 30 23  1  0  0  0  0
 31 22  1  1  0  0  0
 31 27  1  0  0  0  0
M  END
>  <MODEL>
1

>  <REMARK>
 VINA RESULT:      -8.3      0.000      0.000
  Name = 
  6 active torsions:
  status: ('A' for Active; 'I' for Inactive)
    1  A    between atoms: C_1  and  N_7
    2  A    between atoms: C_12  and  C_13
    3  A    between atoms: C_12  and  C_31
    4  A    between atoms: C_17  and  N_22
    5  A    between atoms: N_22  and  C_30
    6  A    between atoms: C_25  and  C_31
                            x       y       z     vdW  Elec       q    Type
                         _______ _______ _______ _____ _____    ______ ____

>  <TORSDO>
F 6

$$$$
=
 OpenBabel11062415043D

 31 36  0  0  1  0  0  0  0  0999 V2000
  187.2640  178.1820  146.8940 N   0  0  0  0  0  0  0  0  0  0  0  0
  188.1840  177.7810  145.9880 C   0  0  0  0  0  3  0  0  0  0  0  0
  186.2090  177.8190  145.0170 C   0  0  0  0  0  0  0  0  0  0  0  0
  184.9070  178.6040  146.9400 N   0  0  0  0  0  1  0  0  0  0  0  0
  187.5390  177.5460  144.7790 C   0  0  0  0  0  0  0  0  0  0  0  0
  186.0830  178.1990  146.3000 N   0  0  0  0  0  0  0  0  0  0  0  0
  188.0340  175.9100  143.1340 O   0  0  0  0  0  0  0  0  0  0  0  0
  188.1620  177.1020  143.5210 C   0  0  0  0  0  0  0  0  0  0  0  0
  188.9370  178.0640  142.6790 C   0  0  0  0  0  2  0  0  0  0  0  0
  190.7150  177.0850  141.2330 C   0  0  0  0  0  2  0  0  0  0  0  0
  190.2300  176.8210  138.8320 N   0  0  2  0  0  0  0  0  0  0  0  0
  189.1630  177.8440  138.8140 C   0  0  2  0  0  3  0  0  0  0  0  0
  189.2370  177.4720  141.3100 C   0  0  2  0  0  3  0  0  0  0  0  0
  188.8760  178.4550  140.1970 C   0  0  0  0  0  2  0  0  0  0  0  0
  187.8760  177.2360  138.2810 C   0  0  0  0  0  1  0  0  0  0  0  0
  191.2620  177.1870  139.8060 C   0  0  0  0  0  2  0  0  0  0  0  0
  190.8730  176.8320  137.5200 C   0  0  1  0  0  3  0  0  0  0  0  0
  192.9400  176.1610  136.4640 O   0  0  0  0  0  1  0  0  0  0  0  0
  191.6200  174.4300  137.5020 C   0  0  0  0  0  2  0  0  0  0  0  0
  192.0550  175.8780  137.5030 C   0  0  1  0  0  0  0  0  0  0  0  0
  190.7370  175.4730  136.8560 C   0  0  2  0  0  3  0  0  0  0  0  0
  185.1530  177.7350  144.0530 N   0  0  0  0  0  2  0  0  0  0  0  0
  184.1570  178.5820  142.0350 C   0  0  0  0  0  0  0  0  0  0  0  0
  182.1610  178.9870  143.0160 N   0  0  0  0  0  0  0  0  0  0  0  0
  182.4750  179.0590  140.5330 N   0  0  0  0  0  0  0  0  0  0  0  0
  183.6080  179.1720  139.6260 C   0  0  0  0  0  3  0  0  0  0  0  0
  183.1200  179.1080  144.1040 C   0  0  0  0  0  2  0  0  0  0  0  0
  182.8830  178.6980  141.8380 C   0  0  0  0  0  0  0  0  0  0  0  0
  181.0040  179.6880  143.0000 O   0  0  0  0  0  1  0  0  0  0  0  0
  185.1520  178.8980  140.5930 S   0  0  0  0  0  0  0  0  0  0  0  0
  184.4990  178.8870  143.4520 C   0  0  1  0  0  3  0  0  0  0  0  0
  2  1  2  0  0  0  0
  3  6  1  0  0  0  0
  5  3  2  0  0  0  0
  5  2  1  0  0  0  0
  6  1  1  0  0  0  0
  6  4  1  0  0  0  0
  7  8  2  0  0  0  0
  8  5  1  0  0  0  0
  9  8  1  0  0  0  0
 10 13  1  0  0  0  0
 11 16  1  1  0  0  0
 12 15  1  1  0  0  0
 12 11  1  0  0  0  0
 12 14  1  0  0  0  0
 13  9  1  1  0  0  0
 14 13  1  0  0  0  0
 16 10  1  0  0  0  0
 17 11  1  1  0  0  0
 19 20  1  0  0  0  0
 20 18  1  6  0  0  0
 20 17  1  0  0  0  0
 21 19  1  1  0  0  0
 21 20  1  0  0  0  0
 21 17  1  0  0  0  0
 22  3  1  0  0  0  0
 23 31  1  0  0  0  0
 24 27  1  0  0  0  0
 25 28  1  0  0  0  0
 26 25  2  0  0  0  0
 26 30  1  0  0  0  0
 28 23  2  0  0  0  0
 28 24  1  0  0  0  0
 29 24  1  0  0  0  0
 30 23  1  0  0  0  0
 31 22  1  1  0  0  0
 31 27  1  0  0  0  0
M  END
>  <MODEL>
2

>  <REMARK>
 VINA RESULT:      -8.2      1.216      1.410
  Name = 
  6 active torsions:
  status: ('A' for Active; 'I' for Inactive)
    1  A    between atoms: C_1  and  N_7
    2  A    between atoms: C_12  and  C_13
    3  A    between atoms: C_12  and  C_31
    4  A    between atoms: C_17  and  N_22
    5  A    between atoms: N_22  and  C_30
    6  A    between atoms: C_25  and  C_31
                            x       y       z     vdW  Elec       q    Type
                         _______ _______ _______ _____ _____    ______ ____

>  <TORSDO>
F 6

$$$$
=
 OpenBabel11062415043D

 31 36  0  0  1  0  0  0  0  0999 V2000
  180.0740  178.3420  143.3400 N   0  0  0  0  0  0  0  0  0  0  0  0
  181.0020  178.6240  144.2820 C   0  0  0  0  0  3  0  0  0  0  0  0
  181.9250  178.8400  142.2960 C   0  0  0  0  0  0  0  0  0  0  0  0
  179.9520  178.2920  140.9490 N   0  0  0  0  0  1  0  0  0  0  0  0
  182.1930  178.9490  143.6440 C   0  0  0  0  0  0  0  0  0  0  0  0
  180.6410  178.4740  142.1530 N   0  0  0  0  0  0  0  0  0  0  0  0
  184.1260  180.3080  143.8590 O   0  0  0  0  0  0  0  0  0  0  0  0
  183.4620  179.3280  144.2890 C   0  0  0  0  0  0  0  0  0  0  0  0
  183.9660  178.5660  145.4720 C   0  0  0  0  0  2  0  0  0  0  0  0
  185.9610  177.9980  144.0900 C   0  0  0  0  0  2  0  0  0  0  0  0
  188.1280  177.7630  145.2380 N   0  0  2  0  0  0  0  0  0  0  0  0
  187.5310  177.4980  146.5640 C   0  0  2  0  0  3  0  0  0  0  0  0
  185.4850  178.4840  145.4610 C   0  0  2  0  0  3  0  0  0  0  0  0
  185.9940  177.5620  146.5680 C   0  0  0  0  0  2  0  0  0  0  0  0
  188.0560  178.5030  147.5760 C   0  0  0  0  0  1  0  0  0  0  0  0
  187.2730  177.2140  144.1810 C   0  0  0  0  0  2  0  0  0  0  0  0
  189.3930  177.0350  145.1700 C   0  0  1  0  0  3  0  0  0  0  0  0
  190.9720  176.2120  143.5370 O   0  0  0  0  0  1  0  0  0  0  0  0
  190.5810  178.5920  143.5910 C   0  0  0  0  0  2  0  0  0  0  0  0
  190.0250  177.2010  143.7990 C   0  0  1  0  0  0  0  0  0  0  0  0
  190.5470  178.0040  144.9830 C   0  0  2  0  0  3  0  0  0  0  0  0
  182.8550  179.0980  141.2370 N   0  0  0  0  0  2  0  0  0  0  0  0
  183.3970  177.5170  139.5080 C   0  0  0  0  0  0  0  0  0  0  0  0
  185.3160  178.5690  138.9440 N   0  0  0  0  0  0  0  0  0  0  0  0
  184.3160  176.7560  137.5370 N   0  0  0  0  0  0  0  0  0  0  0  0
  183.3380  175.6960  137.7380 C   0  0  0  0  0  3  0  0  0  0  0  0
  185.1340  178.8980  140.3500 C   0  0  0  0  0  2  0  0  0  0  0  0
  184.2470  177.7330  138.5570 C   0  0  0  0  0  0  0  0  0  0  0  0
  186.5430  178.4780  138.3820 O   0  0  0  0  0  1  0  0  0  0  0  0
  182.4640  176.0110  139.3290 S   0  0  0  0  0  0  0  0  0  0  0  0
  183.8560  178.1490  140.7770 C   0  0  1  0  0  3  0  0  0  0  0  0
  1  2  2  0  0  0  0
  3  5  2  0  0  0  0
  4  6  1  0  0  0  0
  5  2  1  0  0  0  0
  5  8  1  0  0  0  0
  6  3  1  0  0  0  0
  6  1  1  0  0  0  0
  7  8  2  0  0  0  0
  8  9  1  0  0  0  0
 10 16  1  0  0  0  0
 10 13  1  0  0  0  0
 11 16  1  6  0  0  0
 11 12  1  0  0  0  0
 12 14  1  0  0  0  0
 12 15  1  1  0  0  0
 13  9  1  6  0  0  0
 13 14  1  0  0  0  0
 17 11  1  6  0  0  0
 19 20  1  0  0  0  0
 20 18  1  6  0  0  0
 20 21  1  0  0  0  0
 20 17  1  0  0  0  0
 21 19  1  6  0  0  0
 21 17  1  0  0  0  0
 22  3  1  0  0  0  0
 23 31  1  0  0  0  0
 24 27  1  0  0  0  0
 25 26  2  0  0  0  0
 25 28  1  0  0  0  0
 26 30  1  0  0  0  0
 27 31  1  0  0  0  0
 28 24  1  0  0  0  0
 28 23  2  0  0  0  0
 29 24  1  0  0  0  0
 30 23  1  0  0  0  0
 31 22  1  6  0  0  0
M  END
>  <MODEL>
3

>  <REMARK>
 VINA RESULT:      -8.0      3.946      7.001
  Name = 
  6 active torsions:
  status: ('A' for Active; 'I' for Inactive)
    1  A    between atoms: C_1  and  N_7
    2  A    between atoms: C_12  and  C_13
    3  A    between atoms: C_12  and  C_31
    4  A    between atoms: C_17  and  N_22
    5  A    between atoms: N_22  and  C_30
    6  A    between atoms: C_25  and  C_31
                            x       y       z     vdW  Elec       q    Type
                         _______ _______ _______ _____ _____    ______ ____

>  <TORSDO>
F 6

$$$$
=
 OpenBabel11062415043D

 31 36  0  0  1  0  0  0  0  0999 V2000
  193.2460  177.2370  139.3520 N   0  0  0  0  0  0  0  0  0  0  0  0
  192.4590  177.5560  140.4040 C   0  0  0  0  0  3  0  0  0  0  0  0
  191.2580  176.4310  138.9420 C   0  0  0  0  0  0  0  0  0  0  0  0
  193.0240  176.0440  137.2870 N   0  0  0  0  0  1  0  0  0  0  0  0
  191.1860  177.0520  140.1720 C   0  0  0  0  0  0  0  0  0  0  0  0
  192.5140  176.5630  138.4810 N   0  0  0  0  0  0  0  0  0  0  0  0
  189.1020  177.9910  140.8100 O   0  0  0  0  0  0  0  0  0  0  0  0
  190.0180  177.1640  141.0630 C   0  0  0  0  0  0  0  0  0  0  0  0
  189.8970  176.2840  142.2650 C   0  0  0  0  0  2  0  0  0  0  0  0
  189.9970  176.9380  144.6690 C   0  0  0  0  0  2  0  0  0  0  0  0
  187.9280  177.7570  145.7250 N   0  0  2  0  0  0  0  0  0  0  0  0
  187.0310  177.1150  144.7420 C   0  0  2  0  0  3  0  0  0  0  0  0
  189.1590  176.9960  143.3890 C   0  0  2  0  0  3  0  0  0  0  0  0
  187.7800  176.3790  143.6170 C   0  0  0  0  0  2  0  0  0  0  0  0
  186.1250  178.1590  144.1110 C   0  0  0  0  0  1  0  0  0  0  0  0
  189.1250  176.9360  145.9270 C   0  0  0  0  0  2  0  0  0  0  0  0
  187.2260  177.7920  147.0060 C   0  0  1  0  0  3  0  0  0  0  0  0
  187.4530  176.9690  149.2670 O   0  0  0  0  0  1  0  0  0  0  0  0
  189.1940  178.4200  148.4410 C   0  0  0  0  0  2  0  0  0  0  0  0
  188.1550  177.3670  148.1300 C   0  0  1  0  0  0  0  0  0  0  0  0
  187.8410  178.8410  147.9150 C   0  0  2  0  0  3  0  0  0  0  0  0
  190.1840  175.7450  138.2880 N   0  0  0  0  0  2  0  0  0  0  0  0
  187.9320  176.0790  137.5170 C   0  0  0  0  0  0  0  0  0  0  0  0
  188.1230  178.3310  137.4750 N   0  0  0  0  0  0  0  0  0  0  0  0
  185.9180  177.1670  137.2420 N   0  0  0  0  0  0  0  0  0  0  0  0
  185.4780  175.8190  136.9110 C   0  0  0  0  0  3  0  0  0  0  0  0
  189.4810  177.8580  137.2550 C   0  0  0  0  0  2  0  0  0  0  0  0
  187.2880  177.1990  137.5940 C   0  0  0  0  0  0  0  0  0  0  0  0
  187.6810  179.5040  136.9650 O   0  0  0  0  0  1  0  0  0  0  0  0
  186.9400  174.7000  136.9830 S   0  0  0  0  0  0  0  0  0  0  0  0
  189.3730  176.3200  137.2270 C   0  0  1  0  0  3  0  0  0  0  0  0
  1  2  2  0  0  0  0
  3  5  2  0  0  0  0
  4  6  1  0  0  0  0
  5  2  1  0  0  0  0
  5  8  1  0  0  0  0
  6  3  1  0  0  0  0
  6  1  1  0  0  0  0
  7  8  2  0  0  0  0
  8  9  1  0  0  0  0
 10 16  1  0  0  0  0
 11 16  1  1  0  0  0
 12 15  1  6  0  0  0
 12 11  1  0  0  0  0
 13  9  1  6  0  0  0
 13 14  1  0  0  0  0
 13 10  1  0  0  0  0
 14 12  1  0  0  0  0
 17 11  1  6  0  0  0
 17 21  1  0  0  0  0
 17 20  1  0  0  0  0
 20 19  1  0  0  0  0
 20 18  1  1  0  0  0
 21 20  1  0  0  0  0
 21 19  1  6  0  0  0
 22  3  1  0  0  0  0
 23 28  2  0  0  0  0
 24 28  1  0  0  0  0
 25 28  1  0  0  0  0
 26 30  1  0  0  0  0
 26 25  2  0  0  0  0
 27 24  1  0  0  0  0
 29 24  1  0  0  0  0
 30 23  1  0  0  0  0
 31 27  1  0  0  0  0
 31 23  1  0  0  0  0
 31 22  1  1  0  0  0
M  END
>  <MODEL>
4

>  <REMARK>
 VINA RESULT:      -7.9      3.054      8.001
  Name = 
  6 active torsions:
  status: ('A' for Active; 'I' for Inactive)
    1  A    between atoms: C_1  and  N_7
    2  A    between atoms: C_12  and  C_13
    3  A    between atoms: C_12  and  C_31
    4  A    between atoms: C_17  and  N_22
    5  A    between atoms: N_22  and  C_30
    6  A    between atoms: C_25  and  C_31
                            x       y       z     vdW  Elec       q    Type
                         _______ _______ _______ _____ _____    ______ ____

>  <TORSDO>
F 6

$$$$
=
 OpenBabel11062415043D

 31 36  0  0  1  0  0  0  0  0999 V2000
  188.6800  177.7230  147.4450 N   0  0  0  0  0  0  0  0  0  0  0  0
  187.3710  178.0600  147.4120 C   0  0  0  0  0  3  0  0  0  0  0  0
  188.0200  177.5570  145.3710 C   0  0  0  0  0  0  0  0  0  0  0  0
  190.3480  176.9930  145.8900 N   0  0  0  0  0  1  0  0  0  0  0  0
  186.9220  177.9610  146.1010 C   0  0  0  0  0  0  0  0  0  0  0  0
  189.0570  177.4240  146.2140 N   0  0  0  0  0  0  0  0  0  0  0  0
  184.5600  177.7880  146.2400 O   0  0  0  0  0  0  0  0  0  0  0  0
  185.5590  178.2310  145.6140 C   0  0  0  0  0  0  0  0  0  0  0  0
  185.3440  179.0500  144.3810 C   0  0  0  0  0  2  0  0  0  0  0  0
  184.4180  178.3730  142.1680 C   0  0  0  0  0  2  0  0  0  0  0  0
  181.9690  178.2670  141.9300 N   0  0  2  0  0  0  0  0  0  0  0  0
  181.7000  179.1790  143.0620 C   0  0  2  0  0  3  0  0  0  0  0  0
  184.0890  178.6080  143.6450 C   0  0  2  0  0  3  0  0  0  0  0  0
  182.9730  179.6400  143.7930 C   0  0  0  0  0  2  0  0  0  0  0  0
  180.7890  178.4970  144.0680 C   0  0  0  0  0  1  0  0  0  0  0  0
  183.2160  178.6480  141.2610 C   0  0  0  0  0  2  0  0  0  0  0  0
  180.8990  178.4510  140.9520 C   0  0  1  0  0  3  0  0  0  0  0  0
  180.4850  178.1840  138.5860 O   0  0  0  0  0  1  0  0  0  0  0  0
  181.0940  176.2090  139.8280 C   0  0  0  0  0  2  0  0  0  0  0  0
  181.2230  177.7070  139.6680 C   0  0  1  0  0  0  0  0  0  0  0  0
  180.2220  177.1240  140.6570 C   0  0  2  0  0  3  0  0  0  0  0  0
  188.0370  177.3020  143.9610 N   0  0  0  0  0  2  0  0  0  0  0  0
  189.7490  177.4800  142.2830 C   0  0  0  0  0  0  0  0  0  0  0  0
  188.2860  177.9710  140.6320 N   0  0  0  0  0  0  0  0  0  0  0  0
  190.6770  177.3880  140.1750 N   0  0  0  0  0  0  0  0  0  0  0  0
  191.9090  177.3420  140.9510 C   0  0  0  0  0  3  0  0  0  0  0  0
  187.6360  178.4630  141.8370 C   0  0  0  0  0  2  0  0  0  0  0  0
  189.5350  177.4320  141.0070 C   0  0  0  0  0  0  0  0  0  0  0  0
  188.0810  178.5420  139.4220 O   0  0  0  0  0  1  0  0  0  0  0  0
  191.4710  177.4710  142.7360 S   0  0  0  0  0  0  0  0  0  0  0  0
  188.6370  178.1880  142.9760 C   0  0  1  0  0  3  0  0  0  0  0  0
  2  1  2  0  0  0  0
  3  5  2  0  0  0  0
  3  6  1  0  0  0  0
  4  6  1  0  0  0  0
  5  2  1  0  0  0  0
  6  1  1  0  0  0  0
  8  5  1  0  0  0  0
  8  7  2  0  0  0  0
  9  8  1  0  0  0  0
 10 13  1  0  0  0  0
 11 16  1  6  0  0  0
 11 12  1  0  0  0  0
 12 14  1  0  0  0  0
 12 15  1  1  0  0  0
 13 14  1  0  0  0  0
 13  9  1  1  0  0  0
 16 10  1  0  0  0  0
 17 11  1  1  0  0  0
 20 18  1  6  0  0  0
 20 19  1  0  0  0  0
 20 21  1  0  0  0  0
 20 17  1  0  0  0  0
 21 19  1  1  0  0  0
 21 17  1  0  0  0  0
 22  3  1  0  0  0  0
 23 30  1  0  0  0  0
 23 31  1  0  0  0  0
 24 28  1  0  0  0  0
 24 27  1  0  0  0  0
 25 26  2  0  0  0  0
 25 28  1  0  0  0  0
 26 30  1  0  0  0  0
 27 31  1  0  0  0  0
 28 23  2  0  0  0  0
 29 24  1  0  0  0  0
 31 22  1  1  0  0  0
M  END
>  <MODEL>
5

>  <REMARK>
 VINA RESULT:      -7.8      2.761      7.612
  Name = 
  6 active torsions:
  status: ('A' for Active; 'I' for Inactive)
    1  A    between atoms: C_1  and  N_7
    2  A    between atoms: C_12  and  C_13
    3  A    between atoms: C_12  and  C_31
    4  A    between atoms: C_17  and  N_22
    5  A    between atoms: N_22  and  C_30
    6  A    between atoms: C_25  and  C_31
                            x       y       z     vdW  Elec       q    Type
                         _______ _______ _______ _____ _____    ______ ____

>  <TORSDO>
F 6

$$$$
=
 OpenBabel11062415043D

 31 36  0  0  1  0  0  0  0  0999 V2000
  181.4410  178.6410  142.4150 N   0  0  0  0  0  0  0  0  0  0  0  0
  182.0040  179.1560  143.5310 C   0  0  0  0  0  3  0  0  0  0  0  0
  183.6020  178.3940  142.2240 C   0  0  0  0  0  0  0  0  0  0  0  0
  182.1840  177.6190  140.3800 N   0  0  0  0  0  1  0  0  0  0  0  0
  183.3830  179.0150  143.4360 C   0  0  0  0  0  0  0  0  0  0  0  0
  182.4100  178.1870  141.6390 N   0  0  0  0  0  0  0  0  0  0  0  0
  184.9330  180.5730  144.3280 O   0  0  0  0  0  0  0  0  0  0  0  0
  184.3830  179.4450  144.4270 C   0  0  0  0  0  0  0  0  0  0  0  0
  184.7420  178.5550  145.5740 C   0  0  0  0  0  2  0  0  0  0  0  0
  186.8210  177.8580  144.3890 C   0  0  0  0  0  2  0  0  0  0  0  0
  188.8680  177.5700  145.7290 N   0  0  2  0  0  0  0  0  0  0  0  0
  188.1480  177.3740  147.0050 C   0  0  2  0  0  3  0  0  0  0  0  0
  186.2510  178.4090  145.6980 C   0  0  2  0  0  3  0  0  0  0  0  0
  186.6200  177.5030  146.8720 C   0  0  0  0  0  2  0  0  0  0  0  0
  188.6280  178.3880  148.0290 C   0  0  0  0  0  1  0  0  0  0  0  0
  188.0840  177.0230  144.6180 C   0  0  0  0  0  2  0  0  0  0  0  0
  190.1000  176.7870  145.7940 C   0  0  1  0  0  3  0  0  0  0  0  0
  191.6810  175.6960  144.3280 O   0  0  0  0  0  1  0  0  0  0  0  0
  191.3980  178.0760  144.0660 C   0  0  0  0  0  2  0  0  0  0  0  0
  190.7740  176.7480  144.4330 C   0  0  1  0  0  0  0  0  0  0  0  0
  191.3020  177.6750  145.5210 C   0  0  2  0  0  3  0  0  0  0  0  0
  184.8820  178.0550  141.6790 N   0  0  0  0  0  2  0  0  0  0  0  0
  186.9560  178.2750  140.4820 C   0  0  0  0  0  0  0  0  0  0  0  0
  185.9440  178.4870  138.4720 N   0  0  0  0  0  0  0  0  0  0  0  0
  188.4090  178.1140  138.7000 N   0  0  0  0  0  0  0  0  0  0  0  0
  189.3930  178.2520  139.7650 C   0  0  0  0  0  3  0  0  0  0  0  0
  184.9640  179.0030  139.4170 C   0  0  0  0  0  2  0  0  0  0  0  0
  187.0880  178.1070  139.2060 C   0  0  0  0  0  0  0  0  0  0  0  0
  186.0200  178.9400  137.1990 O   0  0  0  0  0  1  0  0  0  0  0  0
  188.4940  178.4740  141.3580 S   0  0  0  0  0  0  0  0  0  0  0  0
  185.6500  178.9180  140.7950 C   0  0  1  0  0  3  0  0  0  0  0  0
  1  2  2  0  0  0  0
  3  5  2  0  0  0  0
  4  6  1  0  0  0  0
  5  2  1  0  0  0  0
  5  8  1  0  0  0  0
  6  3  1  0  0  0  0
  6  1  1  0  0  0  0
  7  8  2  0  0  0  0
  8  9  1  0  0  0  0
 10 16  1  0  0  0  0
 10 13  1  0  0  0  0
 11 16  1  6  0  0  0
 11 12  1  0  0  0  0
 12 15  1  1  0  0  0
 13  9  1  6  0  0  0
 13 14  1  0  0  0  0
 14 12  1  0  0  0  0
 17 11  1  6  0  0  0
 19 20  1  0  0  0  0
 20 18  1  6  0  0  0
 20 21  1  0  0  0  0
 20 17  1  0  0  0  0
 21 19  1  6  0  0  0
 21 17  1  0  0  0  0
 22  3  1  0  0  0  0
 23 31  1  0  0  0  0
 23 30  1  0  0  0  0
 24 28  1  0  0  0  0
 24 27  1  0  0  0  0
 25 28  1  0  0  0  0
 25 26  2  0  0  0  0
 26 30  1  0  0  0  0
 27 31  1  0  0  0  0
 28 23  2  0  0  0  0
 29 24  1  0  0  0  0
 31 22  1  1  0  0  0
M  END
>  <MODEL>
6

>  <REMARK>
 VINA RESULT:      -7.7      3.000      6.780
  Name = 
  6 active torsions:
  status: ('A' for Active; 'I' for Inactive)
    1  A    between atoms: C_1  and  N_7
    2  A    between atoms: C_12  and  C_13
    3  A    between atoms: C_12  and  C_31
    4  A    between atoms: C_17  and  N_22
    5  A    between atoms: N_22  and  C_30
    6  A    between atoms: C_25  and  C_31
                            x       y       z     vdW  Elec       q    Type
                         _______ _______ _______ _____ _____    ______ ____

>  <TORSDO>
F 6

$$$$
=
 OpenBabel11062415043D

 31 36  0  0  1  0  0  0  0  0999 V2000
  186.9830  178.1110  147.3130 N   0  0  0  0  0  0  0  0  0  0  0  0
  185.9280  178.7960  146.8170 C   0  0  0  0  0  3  0  0  0  0  0  0
  187.0350  177.8970  145.1410 C   0  0  0  0  0  0  0  0  0  0  0  0
  188.7700  176.7670  146.4540 N   0  0  0  0  0  1  0  0  0  0  0  0
  185.9340  178.6740  145.4330 C   0  0  0  0  0  0  0  0  0  0  0  0
  187.6400  177.5770  146.2980 N   0  0  0  0  0  0  0  0  0  0  0  0
  185.2010  180.3570  143.9300 O   0  0  0  0  0  0  0  0  0  0  0  0
  184.9610  179.2570  144.4940 C   0  0  0  0  0  0  0  0  0  0  0  0
  183.6860  178.5400  144.1840 C   0  0  0  0  0  2  0  0  0  0  0  0
  181.6420  178.8440  142.7900 C   0  0  0  0  0  2  0  0  0  0  0  0
  181.9330  179.0660  140.3540 N   0  0  2  0  0  0  0  0  0  0  0  0
  183.2560  178.4060  140.3320 C   0  0  2  0  0  3  0  0  0  0  0  0
  183.1710  178.9170  142.8030 C   0  0  2  0  0  3  0  0  0  0  0  0
  183.7650  178.0080  141.7280 C   0  0  0  0  0  2  0  0  0  0  0  0
  184.2810  179.3270  139.6910 C   0  0  0  0  0  1  0  0  0  0  0  0
  181.0960  178.4820  141.4060 C   0  0  0  0  0  2  0  0  0  0  0  0
  181.2720  178.7710  139.0840 C   0  0  1  0  0  3  0  0  0  0  0  0
  179.3760  179.4900  137.7710 O   0  0  0  0  0  1  0  0  0  0  0  0
  181.0640  181.1410  138.2660 C   0  0  0  0  0  2  0  0  0  0  0  0
  180.3250  179.8970  138.7070 C   0  0  1  0  0  0  0  0  0  0  0  0
  181.6850  179.7820  138.0300 C   0  0  2  0  0  3  0  0  0  0  0  0
  187.4420  177.4850  143.8310 N   0  0  0  0  0  2  0  0  0  0  0  0
  189.3710  177.5800  142.3990 C   0  0  0  0  0  0  0  0  0  0  0  0
  188.1550  178.0100  140.5430 N   0  0  0  0  0  0  0  0  0  0  0  0
  190.5790  177.3910  140.4450 N   0  0  0  0  0  0  0  0  0  0  0  0
  191.6910  177.3700  141.3850 C   0  0  0  0  0  3  0  0  0  0  0  0
  187.3510  178.5580  141.6260 C   0  0  0  0  0  2  0  0  0  0  0  0
  189.3330  177.4780  141.1090 C   0  0  0  0  0  0  0  0  0  0  0  0
  188.1250  178.5300  139.2940 O   0  0  0  0  0  1  0  0  0  0  0  0
  191.0140  177.5790  143.0860 S   0  0  0  0  0  0  0  0  0  0  0  0
  188.1830  178.3240  142.9030 C   0  0  1  0  0  3  0  0  0  0  0  0
  2  1  2  0  0  0  0
  3  5  2  0  0  0  0
  3  6  1  0  0  0  0
  5  2  1  0  0  0  0
  6  4  1  0  0  0  0
  6  1  1  0  0  0  0
  7  8  2  0  0  0  0
  8  5  1  0  0  0  0
  9  8  1  0  0  0  0
 10 13  1  0  0  0  0
 11 16  1  1  0  0  0
 12 15  1  1  0  0  0
 12 11  1  0  0  0  0
 12 14  1  0  0  0  0
 13  9  1  1  0  0  0
 14 13  1  0  0  0  0
 16 10  1  0  0  0  0
 17 11  1  1  0  0  0
 19 20  1  0  0  0  0
 20 18  1  6  0  0  0
 20 17  1  0  0  0  0
 21 19  1  1  0  0  0
 21 20  1  0  0  0  0
 21 17  1  0  0  0  0
 22  3  1  0  0  0  0
 23 31  1  0  0  0  0
 23 30  1  0  0  0  0
 24 28  1  0  0  0  0
 24 27  1  0  0  0  0
 25 28  1  0  0  0  0
 25 26  2  0  0  0  0
 26 30  1  0  0  0  0
 27 31  1  0  0  0  0
 28 23  2  0  0  0  0
 29 24  1  0  0  0  0
 31 22  1  1  0  0  0
M  END
>  <MODEL>
7

>  <REMARK>
 VINA RESULT:      -7.7      2.906      7.673
  Name = 
  6 active torsions:
  status: ('A' for Active; 'I' for Inactive)
    1  A    between atoms: C_1  and  N_7
    2  A    between atoms: C_12  and  C_13
    3  A    between atoms: C_12  and  C_31
    4  A    between atoms: C_17  and  N_22
    5  A    between atoms: N_22  and  C_30
    6  A    between atoms: C_25  and  C_31
                            x       y       z     vdW  Elec       q    Type
                         _______ _______ _______ _____ _____    ______ ____

>  <TORSDO>
F 6

$$$$
=
 OpenBabel11062415043D

 31 36  0  0  1  0  0  0  0  0999 V2000
  190.7210  177.1660  146.4970 N   0  0  0  0  0  0  0  0  0  0  0  0
  191.1530  176.9210  145.2390 C   0  0  0  0  0  3  0  0  0  0  0  0
  188.9560  177.0540  145.2180 C   0  0  0  0  0  0  0  0  0  0  0  0
  188.6270  177.5250  147.6010 N   0  0  0  0  0  1  0  0  0  0  0  0
  190.0470  176.8470  144.4010 C   0  0  0  0  0  0  0  0  0  0  0  0
  189.4020  177.2430  146.4710 N   0  0  0  0  0  0  0  0  0  0  0  0
  190.0900  175.4250  142.5020 O   0  0  0  0  0  0  0  0  0  0  0  0
  190.0580  176.6020  142.9480 C   0  0  0  0  0  0  0  0  0  0  0  0
  190.0130  177.7470  141.9880 C   0  0  0  0  0  2  0  0  0  0  0  0
  191.0910  176.7350  139.9810 C   0  0  0  0  0  2  0  0  0  0  0  0
  189.8240  176.7420  137.8680 N   0  0  2  0  0  0  0  0  0  0  0  0
  188.9420  177.8610  138.2620 C   0  0  2  0  0  3  0  0  0  0  0  0
  189.7770  177.2570  140.5670 C   0  0  2  0  0  3  0  0  0  0  0  0
  189.1960  178.3670  139.6920 C   0  0  0  0  0  2  0  0  0  0  0  0
  187.4880  177.4330  138.1560 C   0  0  0  0  0  1  0  0  0  0  0  0
  191.1530  176.9140  138.4610 C   0  0  0  0  0  2  0  0  0  0  0  0
  190.0020  176.8100  136.4190 C   0  0  1  0  0  3  0  0  0  0  0  0
  191.5150  176.0390  134.7000 O   0  0  0  0  0  1  0  0  0  0  0  0
  190.3990  174.3580  136.0220 C   0  0  0  0  0  2  0  0  0  0  0  0
  190.9870  175.7500  135.9570 C   0  0  1  0  0  0  0  0  0  0  0  0
  189.4910  175.5390  135.7660 C   0  0  2  0  0  3  0  0  0  0  0  0
  187.5880  177.0850  144.7930 N   0  0  0  0  0  2  0  0  0  0  0  0
  185.9340  178.1640  143.4220 C   0  0  0  0  0  0  0  0  0  0  0  0
  184.4990  178.4750  145.1400 N   0  0  0  0  0  0  0  0  0  0  0  0
  183.8290  178.8230  142.7530 N   0  0  0  0  0  0  0  0  0  0  0  0
  184.5260  179.0260  141.4910 C   0  0  0  0  0  3  0  0  0  0  0  0
  185.8100  178.4640  145.7730 C   0  0  0  0  0  2  0  0  0  0  0  0
  184.6910  178.3130  143.7510 C   0  0  0  0  0  0  0  0  0  0  0  0
  183.4650  179.1850  145.6480 O   0  0  0  0  0  1  0  0  0  0  0  0
  186.3070  178.6300  141.7440 S   0  0  0  0  0  0  0  0  0  0  0  0
  186.8150  178.3040  144.6140 C   0  0  1  0  0  3  0  0  0  0  0  0
  2  1  2  0  0  0  0
  3  6  1  0  0  0  0
  5  3  2  0  0  0  0
  5  2  1  0  0  0  0
  6  1  1  0  0  0  0
  6  4  1  0  0  0  0
  7  8  2  0  0  0  0
  8  5  1  0  0  0  0
  9  8  1  0  0  0  0
 10 13  1  0  0  0  0
 11 12  1  0  0  0  0
 11 16  1  1  0  0  0
 12 15  1  1  0  0  0
 12 14  1  0  0  0  0
 13  9  1  1  0  0  0
 14 13  1  0  0  0  0
 16 10  1  0  0  0  0
 17 11  1  1  0  0  0
 20 18  1  6  0  0  0
 20 19  1  0  0  0  0
 20 17  1  0  0  0  0
 21 20  1  0  0  0  0
 21 19  1  1  0  0  0
 21 17  1  0  0  0  0
 22  3  1  0  0  0  0
 23 28  2  0  0  0  0
 23 31  1  0  0  0  0
 24 29  1  0  0  0  0
 24 27  1  0  0  0  0
 25 28  1  0  0  0  0
 26 30  1  0  0  0  0
 26 25  2  0  0  0  0
 28 24  1  0  0  0  0
 30 23  1  0  0  0  0
 31 22  1  1  0  0  0
 31 27  1  0  0  0  0
M  END
>  <MODEL>
8

>  <REMARK>
 VINA RESULT:      -7.6      1.553      1.798
  Name = 
  6 active torsions:
  status: ('A' for Active; 'I' for Inactive)
    1  A    between atoms: C_1  and  N_7
    2  A    between atoms: C_12  and  C_13
    3  A    between atoms: C_12  and  C_31
    4  A    between atoms: C_17  and  N_22
    5  A    between atoms: N_22  and  C_30
    6  A    between atoms: C_25  and  C_31
                            x       y       z     vdW  Elec       q    Type
                         _______ _______ _______ _____ _____    ______ ____

>  <TORSDO>
F 6

$$$$
=
 OpenBabel11062415043D

 31 36  0  0  1  0  0  0  0  0999 V2000
  183.9270  179.2910  145.4970 N   0  0  0  0  0  0  0  0  0  0  0  0
  183.7260  179.2720  144.1600 C   0  0  0  0  0  3  0  0  0  0  0  0
  185.6050  178.2170  144.6050 C   0  0  0  0  0  0  0  0  0  0  0  0
  185.5520  178.4560  147.0440 N   0  0  0  0  0  1  0  0  0  0  0  0
  184.7800  178.5890  143.5650 C   0  0  0  0  0  0  0  0  0  0  0  0
  185.0580  178.6560  145.7510 N   0  0  0  0  0  0  0  0  0  0  0  0
  184.1840  177.5430  141.5210 O   0  0  0  0  0  0  0  0  0  0  0  0
  184.9610  178.3280  142.1270 C   0  0  0  0  0  0  0  0  0  0  0  0
  186.0560  179.0040  141.3670 C   0  0  0  0  0  2  0  0  0  0  0  0
  187.9190  178.2530  139.8920 C   0  0  0  0  0  2  0  0  0  0  0  0
  187.3380  177.3390  137.6790 N   0  0  2  0  0  0  0  0  0  0  0  0
  186.0170  177.9990  137.6210 C   0  0  2  0  0  3  0  0  0  0  0  0
  186.4040  178.2280  140.1060 C   0  0  2  0  0  3  0  0  0  0  0  0
  185.6760  178.8000  138.8900 C   0  0  0  0  0  2  0  0  0  0  0  0
  184.9300  176.9600  137.4030 C   0  0  0  0  0  1  0  0  0  0  0  0
  188.2910  178.1810  138.4080 C   0  0  0  0  0  2  0  0  0  0  0  0
  187.8380  177.2330  136.3100 C   0  0  1  0  0  3  0  0  0  0  0  0
  189.9120  176.9000  135.1160 O   0  0  0  0  0  1  0  0  0  0  0  0
  189.2160  175.1520  136.6250 C   0  0  0  0  0  2  0  0  0  0  0  0
  189.2320  176.6290  136.3020 C   0  0  1  0  0  0  0  0  0  0  0  0
  188.0270  175.7750  135.9300 C   0  0  2  0  0  3  0  0  0  0  0  0
  186.8210  177.4690  144.4810 N   0  0  0  0  0  2  0  0  0  0  0  0
  188.9210  177.2130  145.6230 C   0  0  0  0  0  0  0  0  0  0  0  0
  190.1130  177.0710  143.7080 N   0  0  0  0  0  0  0  0  0  0  0  0
  191.0950  176.5180  145.9440 N   0  0  0  0  0  0  0  0  0  0  0  0
  190.7530  176.7930  147.3330 C   0  0  0  0  0  3  0  0  0  0  0  0
  188.9580  177.8770  143.3450 C   0  0  0  0  0  2  0  0  0  0  0  0
  190.0010  176.7530  145.0790 C   0  0  0  0  0  0  0  0  0  0  0  0
  191.3110  177.2190  143.0970 O   0  0  0  0  0  1  0  0  0  0  0  0
  189.0320  177.4510  147.3840 S   0  0  0  0  0  0  0  0  0  0  0  0
  188.1500  178.0350  144.6490 C   0  0  1  0  0  3  0  0  0  0  0  0
  1  6  1  0  0  0  0
  2  1  2  0  0  0  0
  3  6  1  0  0  0  0
  5  2  1  0  0  0  0
  5  3  2  0  0  0  0
  6  4  1  0  0  0  0
  7  8  2  0  0  0  0
  8  5  1  0  0  0  0
  9  8  1  0  0  0  0
 10 13  1  0  0  0  0
 11 16  1  1  0  0  0
 12 15  1  1  0  0  0
 12 11  1  0  0  0  0
 12 14  1  0  0  0  0
 13  9  1  1  0  0  0
 14 13  1  0  0  0  0
 16 10  1  0  0  0  0
 17 11  1  1  0  0  0
 20 18  1  6  0  0  0
 20 17  1  0  0  0  0
 20 19  1  0  0  0  0
 21 20  1  0  0  0  0
 21 17  1  0  0  0  0
 21 19  1  1  0  0  0
 22  3  1  0  0  0  0
 23 30  1  0  0  0  0
 24 28  1  0  0  0  0
 25 26  2  0  0  0  0
 26 30  1  0  0  0  0
 27 24  1  0  0  0  0
 27 31  1  0  0  0  0
 28 23  2  0  0  0  0
 28 25  1  0  0  0  0
 29 24  1  0  0  0  0
 31 22  1  6  0  0  0
 31 23  1  0  0  0  0
M  END
>  <MODEL>
9

>  <REMARK>
 VINA RESULT:      -7.6      2.887      5.217
  Name = 
  6 active torsions:
  status: ('A' for Active; 'I' for Inactive)
    1  A    between atoms: C_1  and  N_7
    2  A    between atoms: C_12  and  C_13
    3  A    between atoms: C_12  and  C_31
    4  A    between atoms: C_17  and  N_22
    5  A    between atoms: N_22  and  C_30
    6  A    between atoms: C_25  and  C_31
                            x       y       z     vdW  Elec       q    Type
                         _______ _______ _______ _____ _____    ______ ____

>  <TORSDO>
F 6

$$$$
