=
 OpenBabel11062414453D

 27 30  0  0  1  0  0  0  0  0999 V2000
  187.4110  177.9190  145.5420 C   0  0  1  0  0  3  0  0  0  0  0  0
  184.2900  178.5930  143.4430 C   0  0  0  0  0  0  0  0  0  0  0  0
  183.2090  179.1140  144.1290 C   0  0  0  0  0  0  0  0  0  0  0  0
  185.4060  178.6570  146.9140 C   0  0  0  0  0  2  0  0  0  0  0  0
  181.9700  179.5020  143.5460 N   0  0  0  0  0  1  0  0  0  0  0  0
  185.2450  178.3590  144.4050 C   0  0  0  0  0  0  0  0  0  0  0  0
  186.5660  177.6710  144.2800 C   0  0  0  0  0  2  0  0  0  0  0  0
  186.5860  177.6770  146.8140 C   0  0  0  0  0  2  0  0  0  0  0  0
  183.4690  179.1990  145.4170 O   0  0  0  0  0  0  0  0  0  0  0  0
  184.6860  178.7380  145.6050 C   0  0  0  0  0  0  0  0  0  0  0  0
  184.3670  178.2600  141.9910 C   0  0  0  0  0  2  0  0  0  0  0  0
  185.0550  179.2680  141.3120 O   0  0  0  0  0  0  0  0  0  0  0  0
  184.7430  178.9940  139.6700 P   0  0  0  0  0  0  0  0  0  0  0  0
  186.1740  178.5610  138.8760 O   0  0  0  0  0  0  0  0  0  0  0  0
  184.1970  180.2590  139.0510 O   0  0  0  0  0  1  0  0  0  0  0  0
  183.6050  177.7540  139.4940 O   0  0  0  0  0  1  0  0  0  0  0  0
  188.6330  177.0130  145.5470 C   0  0  0  0  0  2  0  0  0  0  0  0
  189.7410  177.5980  144.7330 C   0  0  0  0  0  0  0  0  0  0  0  0
  191.0040  177.7050  142.6860 C   0  0  0  0  0  0  0  0  0  0  0  0
  191.0140  177.1130  141.4030 N   0  0  0  0  0  0  0  0  0  0  0  0
  191.8680  178.6730  143.1980 C   0  0  0  0  0  3  0  0  0  0  0  0
  189.2500  176.2340  142.6610 N   0  0  0  0  0  0  0  0  0  0  0  0
  191.6540  179.1060  144.5190 C   0  0  0  0  0  3  0  0  0  0  0  0
  190.5970  178.5690  145.2840 C   0  0  0  0  0  3  0  0  0  0  0  0
  189.8850  176.1830  141.3360 C   0  0  0  0  0  3  0  0  0  0  0  0
  191.8020  177.5550  140.2660 C   0  0  0  0  0  1  0  0  0  0  0  0
  189.9820  177.1870  143.4200 C   0  0  0  0  0  0  0  0  0  0  0  0
  1 17  1  1  0  0  0
  1  8  1  0  0  0  0
  2  3  2  0  0  0  0
  2  6  1  0  0  0  0
  3  9  1  0  0  0  0
  5  3  1  0  0  0  0
  6 10  2  0  0  0  0
  7  6  1  0  0  0  0
  7  1  1  0  0  0  0
  8  4  1  0  0  0  0
  9 10  1  0  0  0  0
 10  4  1  0  0  0  0
 11  2  1  0  0  0  0
 12 11  1  0  0  0  0
 13 12  1  0  0  0  0
 14 13  2  0  0  0  0
 15 13  1  0  0  0  0
 16 13  1  0  0  0  0
 18 24  1  0  0  0  0
 18 17  1  0  0  0  0
 19 21  2  0  0  0  0
 19 27  1  0  0  0  0
 20 19  1  0  0  0  0
 21 23  1  0  0  0  0
 22 27  1  0  0  0  0
 23 24  2  0  0  0  0
 25 20  1  0  0  0  0
 25 22  2  0  0  0  0
 26 20  1  0  0  0  0
 27 18  2  0  0  0  0
M  END
>  <MODEL>
1

>  <REMARK>
 VINA RESULT:      -8.9      0.000      0.000
  Name = 
  5 active torsions:
  status: ('A' for Active; 'I' for Inactive)
    1  A    between atoms: C_1  and  C_5
    2  A    between atoms: C_2  and  C_5
    3  A    between atoms: C_3  and  C_6
    4  A    between atoms: C_3  and  O_11
    5  A    between atoms: P_4  and  O_11
                            x       y       z     vdW  Elec       q    Type
                         _______ _______ _______ _____ _____    ______ ____

>  <TORSDO>
F 5

$$$$
=
 OpenBabel11062414453D

 27 30  0  0  1  0  0  0  0  0999 V2000
  186.6820  178.0010  146.1420 C   0  0  1  0  0  3  0  0  0  0  0  0
  190.3930  177.2360  145.6480 C   0  0  0  0  0  0  0  0  0  0  0  0
  191.0190  176.6040  146.7060 C   0  0  0  0  0  0  0  0  0  0  0  0
  187.8060  177.0520  148.2120 C   0  0  0  0  0  2  0  0  0  0  0  0
  192.3730  176.1670  146.7220 N   0  0  0  0  0  1  0  0  0  0  0  0
  189.1110  177.4800  146.0850 C   0  0  0  0  0  0  0  0  0  0  0  0
  188.0190  178.2610  145.4290 C   0  0  0  0  0  2  0  0  0  0  0  0
  186.8390  178.1150  147.6660 C   0  0  0  0  0  2  0  0  0  0  0  0
  190.1940  176.4650  147.7230 O   0  0  0  0  0  0  0  0  0  0  0  0
  189.0440  176.9970  147.3730 C   0  0  0  0  0  0  0  0  0  0  0  0
  191.0020  177.6540  144.3530 C   0  0  0  0  0  2  0  0  0  0  0  0
  191.1320  176.5460  143.5130 O   0  0  0  0  0  0  0  0  0  0  0  0
  189.8980  176.7080  142.3640 P   0  0  0  0  0  0  0  0  0  0  0  0
  190.4450  176.1760  140.8530 O   0  0  0  0  0  0  0  0  0  0  0  0
  189.5020  178.1620  142.2630 O   0  0  0  0  0  1  0  0  0  0  0  0
  188.5500  175.7960  142.8280 O   0  0  0  0  0  1  0  0  0  0  0  0
  185.6250  178.9860  145.6650 C   0  0  0  0  0  2  0  0  0  0  0  0
  185.2560  178.7300  144.2400 C   0  0  0  0  0  0  0  0  0  0  0  0
  183.5910  178.5290  142.5120 C   0  0  0  0  0  0  0  0  0  0  0  0
  182.1930  178.6520  142.3540 N   0  0  0  0  0  0  0  0  0  0  0  0
  184.5450  178.2020  141.5470 C   0  0  0  0  0  3  0  0  0  0  0  0
  182.7770  179.1030  144.5730 N   0  0  0  0  0  0  0  0  0  0  0  0
  185.8900  178.1370  141.9540 C   0  0  0  0  0  3  0  0  0  0  0  0
  186.2430  178.3970  143.2950 C   0  0  0  0  0  3  0  0  0  0  0  0
  181.6350  179.0490  143.6490 C   0  0  0  0  0  3  0  0  0  0  0  0
  181.4760  178.6790  141.0910 C   0  0  0  0  0  1  0  0  0  0  0  0
  183.9290  178.7830  143.8050 C   0  0  0  0  0  0  0  0  0  0  0  0
  1 17  1  6  0  0  0
  1  8  1  0  0  0  0
  2  6  1  0  0  0  0
  2  3  2  0  0  0  0
  3  5  1  0  0  0  0
  3  9  1  0  0  0  0
  6 10  2  0  0  0  0
  7  6  1  0  0  0  0
  7  1  1  0  0  0  0
  8  4  1  0  0  0  0
 10  9  1  0  0  0  0
 10  4  1  0  0  0  0
 11  2  1  0  0  0  0
 12 11  1  0  0  0  0
 13 16  1  0  0  0  0
 13 12  1  0  0  0  0
 14 13  2  0  0  0  0
 15 13  1  0  0  0  0
 18 17  1  0  0  0  0
 19 27  2  0  0  0  0
 20 19  1  0  0  0  0
 20 25  1  0  0  0  0
 21 23  2  0  0  0  0
 21 19  1  0  0  0  0
 23 24  1  0  0  0  0
 24 18  2  0  0  0  0
 25 22  2  0  0  0  0
 26 20  1  0  0  0  0
 27 18  1  0  0  0  0
 27 22  1  0  0  0  0
M  END
>  <MODEL>
2

>  <REMARK>
 VINA RESULT:      -8.7      3.445      6.633
  Name = 
  5 active torsions:
  status: ('A' for Active; 'I' for Inactive)
    1  A    between atoms: C_1  and  C_5
    2  A    between atoms: C_2  and  C_5
    3  A    between atoms: C_3  and  C_6
    4  A    between atoms: C_3  and  O_11
    5  A    between atoms: P_4  and  O_11
                            x       y       z     vdW  Elec       q    Type
                         _______ _______ _______ _____ _____    ______ ____

>  <TORSDO>
F 5

$$$$
=
 OpenBabel11062414453D

 27 30  0  0  1  0  0  0  0  0999 V2000
  184.7800  178.3830  143.9740 C   0  0  1  0  0  3  0  0  0  0  0  0
  188.1940  177.1550  145.1730 C   0  0  0  0  0  0  0  0  0  0  0  0
  188.3870  177.1670  146.5420 C   0  0  0  0  0  0  0  0  0  0  0  0
  185.1340  178.6510  146.4740 C   0  0  0  0  0  2  0  0  0  0  0  0
  189.5480  176.6960  147.2150 N   0  0  0  0  0  1  0  0  0  0  0  0
  186.9500  177.7100  144.9820 C   0  0  0  0  0  0  0  0  0  0  0  0
  186.2650  178.0860  143.7080 C   0  0  0  0  0  2  0  0  0  0  0  0
  184.6120  179.3100  145.1870 C   0  0  0  0  0  2  0  0  0  0  0  0
  187.3450  177.6870  147.1570 O   0  0  0  0  0  0  0  0  0  0  0  0
  186.4740  178.0320  146.2340 C   0  0  0  0  0  0  0  0  0  0  0  0
  189.1650  176.7290  144.1240 C   0  0  0  0  0  2  0  0  0  0  0  0
  189.6730  177.8520  143.4670 O   0  0  0  0  0  0  0  0  0  0  0  0
  191.3570  177.7160  143.5880 P   0  0  0  0  0  0  0  0  0  0  0  0
  191.7600  176.4740  144.6640 O   0  0  0  0  0  1  0  0  0  0  0  0
  191.9240  179.0200  144.1010 O   0  0  0  0  0  1  0  0  0  0  0  0
  192.0220  177.3830  142.0680 O   0  0  0  0  0  0  0  0  0  0  0  0
  184.1400  179.0230  142.7510 C   0  0  0  0  0  2  0  0  0  0  0  0
  182.6700  178.7580  142.7120 C   0  0  0  0  0  0  0  0  0  0  0  0
  180.6520  178.3290  141.4710 C   0  0  0  0  0  0  0  0  0  0  0  0
  180.2370  178.1510  140.1330 N   0  0  0  0  0  0  0  0  0  0  0  0
  179.8740  178.2990  142.6290 C   0  0  0  0  0  3  0  0  0  0  0  0
  182.5460  178.5160  140.1980 N   0  0  0  0  0  0  0  0  0  0  0  0
  180.5240  178.5090  143.8580 C   0  0  0  0  0  3  0  0  0  0  0  0
  181.9150  178.7410  143.9000 C   0  0  0  0  0  3  0  0  0  0  0  0
  181.4280  178.2340  139.2850 C   0  0  0  0  0  3  0  0  0  0  0  0
  178.9340  177.6770  139.6990 C   0  0  0  0  0  1  0  0  0  0  0  0
  181.9940  178.5490  141.5070 C   0  0  0  0  0  0  0  0  0  0  0  0
  1 17  1  6  0  0  0
  1  8  1  0  0  0  0
  2  3  2  0  0  0  0
  3  9  1  0  0  0  0
  3  5  1  0  0  0  0
  6  2  1  0  0  0  0
  6 10  2  0  0  0  0
  7  1  1  0  0  0  0
  7  6  1  0  0  0  0
  8  4  1  0  0  0  0
 10  4  1  0  0  0  0
 10  9  1  0  0  0  0
 11  2  1  0  0  0  0
 12 13  1  0  0  0  0
 12 11  1  0  0  0  0
 13 15  1  0  0  0  0
 13 14  1  0  0  0  0
 16 13  2  0  0  0  0
 18 17  1  0  0  0  0
 18 24  1  0  0  0  0
 19 27  1  0  0  0  0
 19 21  2  0  0  0  0
 20 19  1  0  0  0  0
 21 23  1  0  0  0  0
 22 27  1  0  0  0  0
 23 24  2  0  0  0  0
 25 20  1  0  0  0  0
 25 22  2  0  0  0  0
 26 20  1  0  0  0  0
 27 18  2  0  0  0  0
M  END
>  <MODEL>
3

>  <REMARK>
 VINA RESULT:      -8.5      3.978      7.621
  Name = 
  5 active torsions:
  status: ('A' for Active; 'I' for Inactive)
    1  A    between atoms: C_1  and  C_5
    2  A    between atoms: C_2  and  C_5
    3  A    between atoms: C_3  and  C_6
    4  A    between atoms: C_3  and  O_11
    5  A    between atoms: P_4  and  O_11
                            x       y       z     vdW  Elec       q    Type
                         _______ _______ _______ _____ _____    ______ ____

>  <TORSDO>
F 5

$$$$
=
 OpenBabel11062414453D

 27 30  0  0  1  0  0  0  0  0999 V2000
  185.1670  178.3290  144.0150 C   0  0  1  0  0  3  0  0  0  0  0  0
  188.5680  177.1570  145.3050 C   0  0  0  0  0  0  0  0  0  0  0  0
  188.7420  177.2210  146.6750 C   0  0  0  0  0  0  0  0  0  0  0  0
  185.4870  178.6930  146.5080 C   0  0  0  0  0  2  0  0  0  0  0  0
  189.8960  176.7800  147.3810 N   0  0  0  0  0  1  0  0  0  0  0  0
  187.3240  177.7010  145.0770 C   0  0  0  0  0  0  0  0  0  0  0  0
  186.6560  178.0260  143.7800 C   0  0  0  0  0  2  0  0  0  0  0  0
  184.9810  179.3010  145.1900 C   0  0  0  0  0  2  0  0  0  0  0  0
  187.6910  177.7620  147.2560 O   0  0  0  0  0  0  0  0  0  0  0  0
  186.8320  178.0690  146.3090 C   0  0  0  0  0  0  0  0  0  0  0  0
  189.5530  176.6940  144.2860 C   0  0  0  0  0  2  0  0  0  0  0  0
  190.0780  177.7930  143.6040 O   0  0  0  0  0  0  0  0  0  0  0  0
  190.3560  177.2480  142.0240 P   0  0  0  0  0  0  0  0  0  0  0  0
  189.1930  177.8950  140.9780 O   0  0  0  0  0  0  0  0  0  0  0  0
  190.2640  175.7400  141.9960 O   0  0  0  0  0  1  0  0  0  0  0  0
  191.8990  177.7190  141.5110 O   0  0  0  0  0  1  0  0  0  0  0  0
  184.5410  178.9200  142.7610 C   0  0  0  0  0  2  0  0  0  0  0  0
  183.0570  178.7540  142.7690 C   0  0  0  0  0  0  0  0  0  0  0  0
  180.9740  178.4750  141.5940 C   0  0  0  0  0  0  0  0  0  0  0  0
  180.5030  178.3420  140.2690 N   0  0  0  0  0  0  0  0  0  0  0  0
  180.2350  178.4810  142.7770 C   0  0  0  0  0  3  0  0  0  0  0  0
  182.8320  178.5520  140.2580 N   0  0  0  0  0  0  0  0  0  0  0  0
  180.9390  178.6330  143.9860 C   0  0  0  0  0  3  0  0  0  0  0  0
  182.3430  178.7720  143.9820 C   0  0  0  0  0  3  0  0  0  0  0  0
  181.6680  178.3560  139.3820 C   0  0  0  0  0  3  0  0  0  0  0  0
  179.1580  177.9600  139.8750 C   0  0  0  0  0  1  0  0  0  0  0  0
  182.3280  178.6050  141.5860 C   0  0  0  0  0  0  0  0  0  0  0  0
  1 17  1  6  0  0  0
  1  8  1  0  0  0  0
  2  3  2  0  0  0  0
  3  9  1  0  0  0  0
  3  5  1  0  0  0  0
  6  2  1  0  0  0  0
  6 10  2  0  0  0  0
  7  1  1  0  0  0  0
  7  6  1  0  0  0  0
  8  4  1  0  0  0  0
 10  4  1  0  0  0  0
 10  9  1  0  0  0  0
 11  2  1  0  0  0  0
 12 11  1  0  0  0  0
 13 12  1  0  0  0  0
 14 13  2  0  0  0  0
 15 13  1  0  0  0  0
 16 13  1  0  0  0  0
 17 18  1  0  0  0  0
 18 24  1  0  0  0  0
 19 21  2  0  0  0  0
 20 19  1  0  0  0  0
 21 23  1  0  0  0  0
 22 27  1  0  0  0  0
 24 23  2  0  0  0  0
 25 22  2  0  0  0  0
 25 20  1  0  0  0  0
 26 20  1  0  0  0  0
 27 19  1  0  0  0  0
 27 18  2  0  0  0  0
M  END
>  <MODEL>
4

>  <REMARK>
 VINA RESULT:      -8.4      3.448      7.268
  Name = 
  5 active torsions:
  status: ('A' for Active; 'I' for Inactive)
    1  A    between atoms: C_1  and  C_5
    2  A    between atoms: C_2  and  C_5
    3  A    between atoms: C_3  and  C_6
    4  A    between atoms: C_3  and  O_11
    5  A    between atoms: P_4  and  O_11
                            x       y       z     vdW  Elec       q    Type
                         _______ _______ _______ _____ _____    ______ ____

>  <TORSDO>
F 5

$$$$
=
 OpenBabel11062414453D

 27 30  0  0  1  0  0  0  0  0999 V2000
  190.3410  176.8330  143.6050 C   0  0  1  0  0  3  0  0  0  0  0  0
  188.0070  177.5920  146.5340 C   0  0  0  0  0  0  0  0  0  0  0  0
  188.6240  177.7830  147.7560 C   0  0  0  0  0  0  0  0  0  0  0  0
  191.5290  176.9420  145.8470 C   0  0  0  0  0  2  0  0  0  0  0  0
  187.9660  178.1380  148.9660 N   0  0  0  0  0  1  0  0  0  0  0  0
  189.0230  177.2540  145.6700 C   0  0  0  0  0  0  0  0  0  0  0  0
  188.9450  176.7970  144.2490 C   0  0  0  0  0  2  0  0  0  0  0  0
  191.3870  176.1780  144.5210 C   0  0  0  0  0  2  0  0  0  0  0  0
  189.9220  177.5810  147.6620 O   0  0  0  0  0  0  0  0  0  0  0  0
  190.1800  177.2490  146.4170 C   0  0  0  0  0  0  0  0  0  0  0  0
  186.5460  177.6410  146.2380 C   0  0  0  0  0  2  0  0  0  0  0  0
  186.1350  178.9690  146.1110 O   0  0  0  0  0  0  0  0  0  0  0  0
  184.9710  178.9620  144.8800 P   0  0  0  0  0  0  0  0  0  0  0  0
  183.4220  178.8490  145.5530 O   0  0  0  0  0  1  0  0  0  0  0  0
  185.2090  177.7710  143.9800 O   0  0  0  0  0  1  0  0  0  0  0  0
  185.0850  180.3800  143.9650 O   0  0  0  0  0  0  0  0  0  0  0  0
  190.3240  176.1200  142.2610 C   0  0  0  0  0  2  0  0  0  0  0  0
  189.5800  176.9170  141.2390 C   0  0  0  0  0  0  0  0  0  0  0  0
  189.2690  177.6300  138.9610 C   0  0  0  0  0  0  0  0  0  0  0  0
  189.8320  177.4100  137.6840 N   0  0  0  0  0  0  0  0  0  0  0  0
  188.2000  178.4590  139.3030 C   0  0  0  0  0  3  0  0  0  0  0  0
  190.9650  176.1240  139.2760 N   0  0  0  0  0  0  0  0  0  0  0  0
  187.8220  178.5130  140.6560 C   0  0  0  0  0  3  0  0  0  0  0  0
  188.5110  177.7480  141.6210 C   0  0  0  0  0  3  0  0  0  0  0  0
  190.9060  176.4260  137.8390 C   0  0  0  0  0  3  0  0  0  0  0  0
  189.2690  177.8390  136.4170 C   0  0  0  0  0  1  0  0  0  0  0  0
  189.9330  176.8880  139.8880 C   0  0  0  0  0  0  0  0  0  0  0  0
  1 17  1  6  0  0  0
  1  7  1  0  0  0  0
  1  8  1  0  0  0  0
  2  3  2  0  0  0  0
  3  5  1  0  0  0  0
  4 10  1  0  0  0  0
  6 10  2  0  0  0  0
  6  2  1  0  0  0  0
  7  6  1  0  0  0  0
  8  4  1  0  0  0  0
  9  3  1  0  0  0  0
 10  9  1  0  0  0  0
 11  2  1  0  0  0  0
 12 11  1  0  0  0  0
 13 14  1  0  0  0  0
 13 12  1  0  0  0  0
 15 13  1  0  0  0  0
 16 13  2  0  0  0  0
 18 24  1  0  0  0  0
 18 17  1  0  0  0  0
 19 21  2  0  0  0  0
 19 27  1  0  0  0  0
 20 25  1  0  0  0  0
 20 19  1  0  0  0  0
 21 23  1  0  0  0  0
 22 27  1  0  0  0  0
 23 24  2  0  0  0  0
 25 22  2  0  0  0  0
 26 20  1  0  0  0  0
 27 18  2  0  0  0  0
M  END
>  <MODEL>
5

>  <REMARK>
 VINA RESULT:      -8.3      3.258      5.138
  Name = 
  5 active torsions:
  status: ('A' for Active; 'I' for Inactive)
    1  A    between atoms: C_1  and  C_5
    2  A    between atoms: C_2  and  C_5
    3  A    between atoms: C_3  and  C_6
    4  A    between atoms: C_3  and  O_11
    5  A    between atoms: P_4  and  O_11
                            x       y       z     vdW  Elec       q    Type
                         _______ _______ _______ _____ _____    ______ ____

>  <TORSDO>
F 5

$$$$
=
 OpenBabel11062414453D

 27 30  0  0  1  0  0  0  0  0999 V2000
  185.2910  178.6550  142.9570 C   0  0  1  0  0  3  0  0  0  0  0  0
  187.6680  177.5680  145.7460 C   0  0  0  0  0  0  0  0  0  0  0  0
  187.1420  177.5980  147.0240 C   0  0  0  0  0  0  0  0  0  0  0  0
  184.3270  178.9570  145.2870 C   0  0  0  0  0  2  0  0  0  0  0  0
  187.8180  177.1780  148.2040 N   0  0  0  0  0  1  0  0  0  0  0  0
  186.6740  178.0740  144.9390 C   0  0  0  0  0  0  0  0  0  0  0  0
  186.7160  178.4130  143.4840 C   0  0  0  0  0  2  0  0  0  0  0  0
  184.5070  179.5850  143.8950 C   0  0  0  0  0  2  0  0  0  0  0  0
  185.9180  178.0830  147.0160 O   0  0  0  0  0  0  0  0  0  0  0  0
  185.6220  178.3870  145.7720 C   0  0  0  0  0  0  0  0  0  0  0  0
  189.0470  177.1710  145.3410 C   0  0  0  0  0  2  0  0  0  0  0  0
  189.8620  178.3020  145.2730 O   0  0  0  0  0  0  0  0  0  0  0  0
  190.9390  178.0010  144.0000 P   0  0  0  0  0  0  0  0  0  0  0  0
  191.6410  176.4730  144.1890 O   0  0  0  0  0  1  0  0  0  0  0  0
  192.0260  179.0510  144.0120 O   0  0  0  0  0  1  0  0  0  0  0  0
  190.1210  178.0660  142.5200 O   0  0  0  0  0  0  0  0  0  0  0  0
  185.3380  179.2600  141.5620 C   0  0  0  0  0  2  0  0  0  0  0  0
  184.4750  178.4940  140.6140 C   0  0  0  0  0  0  0  0  0  0  0  0
  184.0870  177.5440  138.4360 C   0  0  0  0  0  0  0  0  0  0  0  0
  184.7460  177.4150  137.1930 N   0  0  0  0  0  0  0  0  0  0  0  0
  182.8230  177.0790  138.7960 C   0  0  0  0  0  3  0  0  0  0  0  0
  186.1180  178.5700  138.6930 N   0  0  0  0  0  0  0  0  0  0  0  0
  182.3810  177.3380  140.1060 C   0  0  0  0  0  3  0  0  0  0  0  0
  183.2010  178.0450  141.0100 C   0  0  0  0  0  3  0  0  0  0  0  0
  186.0660  178.0350  137.3250 C   0  0  0  0  0  3  0  0  0  0  0  0
  184.3270  176.5690  136.0880 C   0  0  0  0  0  1  0  0  0  0  0  0
  184.8830  178.2240  139.3050 C   0  0  0  0  0  0  0  0  0  0  0  0
  1 17  1  6  0  0  0
  1  7  1  0  0  0  0
  1  8  1  0  0  0  0
  2  3  2  0  0  0  0
  3  5  1  0  0  0  0
  4 10  1  0  0  0  0
  6  2  1  0  0  0  0
  6 10  2  0  0  0  0
  7  6  1  0  0  0  0
  8  4  1  0  0  0  0
  9  3  1  0  0  0  0
 10  9  1  0  0  0  0
 11  2  1  0  0  0  0
 12 11  1  0  0  0  0
 13 15  1  0  0  0  0
 13 14  1  0  0  0  0
 13 12  1  0  0  0  0
 16 13  2  0  0  0  0
 18 24  1  0  0  0  0
 18 17  1  0  0  0  0
 19 21  2  0  0  0  0
 19 27  1  0  0  0  0
 20 25  1  0  0  0  0
 20 19  1  0  0  0  0
 21 23  1  0  0  0  0
 22 27  1  0  0  0  0
 23 24  2  0  0  0  0
 25 22  2  0  0  0  0
 26 20  1  0  0  0  0
 27 18  2  0  0  0  0
M  END
>  <MODEL>
6

>  <REMARK>
 VINA RESULT:      -8.0      4.244      6.540
  Name = 
  5 active torsions:
  status: ('A' for Active; 'I' for Inactive)
    1  A    between atoms: C_1  and  C_5
    2  A    between atoms: C_2  and  C_5
    3  A    between atoms: C_3  and  C_6
    4  A    between atoms: C_3  and  O_11
    5  A    between atoms: P_4  and  O_11
                            x       y       z     vdW  Elec       q    Type
                         _______ _______ _______ _____ _____    ______ ____

>  <TORSDO>
F 5

$$$$
=
 OpenBabel11062414453D

 27 30  0  0  1  0  0  0  0  0999 V2000
  184.3690  178.4210  142.4590 C   0  0  1  0  0  3  0  0  0  0  0  0
  187.6800  177.4770  144.1180 C   0  0  0  0  0  0  0  0  0  0  0  0
  187.6840  177.5020  145.5000 C   0  0  0  0  0  0  0  0  0  0  0  0
  184.3600  178.7140  144.9820 C   0  0  0  0  0  2  0  0  0  0  0  0
  188.7790  177.1280  146.3280 N   0  0  0  0  0  1  0  0  0  0  0  0
  186.4310  177.9280  143.7570 C   0  0  0  0  0  0  0  0  0  0  0  0
  185.8960  178.2480  142.3980 C   0  0  0  0  0  2  0  0  0  0  0  0
  183.9640  179.3300  143.6300 C   0  0  0  0  0  2  0  0  0  0  0  0
  186.5300  177.9340  145.9640 O   0  0  0  0  0  0  0  0  0  0  0  0
  185.7660  178.2080  144.9300 C   0  0  0  0  0  0  0  0  0  0  0  0
  188.8140  177.1340  143.2130 C   0  0  0  0  0  2  0  0  0  0  0  0
  189.5970  178.2670  142.9880 O   0  0  0  0  0  0  0  0  0  0  0  0
  191.1950  177.7640  143.2360 P   0  0  0  0  0  0  0  0  0  0  0  0
  191.9650  177.5340  141.7470 O   0  0  0  0  0  0  0  0  0  0  0  0
  191.1920  176.4590  143.9990 O   0  0  0  0  0  1  0  0  0  0  0  0
  192.0370  178.9280  144.1320 O   0  0  0  0  0  1  0  0  0  0  0  0
  183.8500  179.0090  141.1560 C   0  0  0  0  0  2  0  0  0  0  0  0
  183.7100  177.9540  140.1080 C   0  0  0  0  0  0  0  0  0  0  0  0
  184.4260  176.9470  138.0410 C   0  0  0  0  0  0  0  0  0  0  0  0
  185.4220  177.1230  137.0540 N   0  0  0  0  0  0  0  0  0  0  0  0
  183.4220  175.9800  138.0930 C   0  0  0  0  0  3  0  0  0  0  0  0
  185.6720  178.7440  138.7210 N   0  0  0  0  0  0  0  0  0  0  0  0
  182.5390  176.0140  139.1880 C   0  0  0  0  0  3  0  0  0  0  0  0
  182.6800  176.9980  140.1890 C   0  0  0  0  0  3  0  0  0  0  0  0
  186.2610  178.2490  137.4680 C   0  0  0  0  0  3  0  0  0  0  0  0
  185.7430  176.1880  135.9900 C   0  0  0  0  0  1  0  0  0  0  0  0
  184.5680  177.8950  139.0060 C   0  0  0  0  0  0  0  0  0  0  0  0
  1 17  1  6  0  0  0
  1  8  1  0  0  0  0
  2  3  2  0  0  0  0
  3  9  1  0  0  0  0
  3  5  1  0  0  0  0
  6  2  1  0  0  0  0
  6 10  2  0  0  0  0
  7  1  1  0  0  0  0
  7  6  1  0  0  0  0
  8  4  1  0  0  0  0
 10  4  1  0  0  0  0
 10  9  1  0  0  0  0
 11  2  1  0  0  0  0
 12 11  1  0  0  0  0
 12 13  1  0  0  0  0
 13 15  1  0  0  0  0
 13 16  1  0  0  0  0
 14 13  2  0  0  0  0
 18 24  1  0  0  0  0
 18 17  1  0  0  0  0
 19 21  2  0  0  0  0
 19 27  1  0  0  0  0
 20 25  1  0  0  0  0
 20 19  1  0  0  0  0
 21 23  1  0  0  0  0
 22 27  1  0  0  0  0
 23 24  2  0  0  0  0
 25 22  2  0  0  0  0
 26 20  1  0  0  0  0
 27 18  2  0  0  0  0
M  END
>  <MODEL>
7

>  <REMARK>
 VINA RESULT:      -7.9      4.266      6.660
  Name = 
  5 active torsions:
  status: ('A' for Active; 'I' for Inactive)
    1  A    between atoms: C_1  and  C_5
    2  A    between atoms: C_2  and  C_5
    3  A    between atoms: C_3  and  C_6
    4  A    between atoms: C_3  and  O_11
    5  A    between atoms: P_4  and  O_11
                            x       y       z     vdW  Elec       q    Type
                         _______ _______ _______ _____ _____    ______ ____

>  <TORSDO>
F 5

$$$$
=
 OpenBabel11062414453D

 27 30  0  0  1  0  0  0  0  0999 V2000
  185.0520  178.4100  143.5620 C   0  0  1  0  0  3  0  0  0  0  0  0
  188.3410  177.5140  141.8360 C   0  0  0  0  0  0  0  0  0  0  0  0
  189.1720  176.6610  142.5390 C   0  0  0  0  0  0  0  0  0  0  0  0
  186.6150  177.0300  145.0120 C   0  0  0  0  0  2  0  0  0  0  0  0
  190.4110  176.1430  142.0690 N   0  0  0  0  0  1  0  0  0  0  0  0
  187.2810  177.7550  142.6800 C   0  0  0  0  0  0  0  0  0  0  0  0
  186.1430  178.7110  142.5210 C   0  0  0  0  0  2  0  0  0  0  0  0
  185.6600  178.2340  144.9620 C   0  0  0  0  0  2  0  0  0  0  0  0
  188.6700  176.3910  143.7260 O   0  0  0  0  0  0  0  0  0  0  0  0
  187.5380  177.0500  143.8350 C   0  0  0  0  0  0  0  0  0  0  0  0
  188.5890  178.1220  140.4980 C   0  0  0  0  0  2  0  0  0  0  0  0
  188.4180  177.1570  139.5030 O   0  0  0  0  0  0  0  0  0  0  0  0
  187.8960  178.0120  138.1360 P   0  0  0  0  0  0  0  0  0  0  0  0
  186.3190  178.5760  138.3780 O   0  0  0  0  0  1  0  0  0  0  0  0
  187.9140  177.0910  136.9380 O   0  0  0  0  0  0  0  0  0  0  0  0
  188.9240  179.3230  137.8440 O   0  0  0  0  0  1  0  0  0  0  0  0
  184.0240  179.5310  143.5920 C   0  0  0  0  0  2  0  0  0  0  0  0
  182.6680  179.0280  143.2180 C   0  0  0  0  0  0  0  0  0  0  0  0
  181.0720  178.3550  141.5470 C   0  0  0  0  0  0  0  0  0  0  0  0
  180.9900  178.2030  140.1440 N   0  0  0  0  0  0  0  0  0  0  0  0
  180.0820  178.1150  142.5000 C   0  0  0  0  0  3  0  0  0  0  0  0
  183.1290  178.9430  140.7330 N   0  0  0  0  0  0  0  0  0  0  0  0
  180.4070  178.3450  143.8500 C   0  0  0  0  0  3  0  0  0  0  0  0
  181.6920  178.8030  144.2070 C   0  0  0  0  0  3  0  0  0  0  0  0
  182.3010  178.5430  139.5860 C   0  0  0  0  0  3  0  0  0  0  0  0
  179.9170  177.5490  139.4170 C   0  0  0  0  0  1  0  0  0  0  0  0
  182.3140  178.7930  141.8870 C   0  0  0  0  0  0  0  0  0  0  0  0
  1 17  1  1  0  0  0
  1  8  1  0  0  0  0
  2  3  2  0  0  0  0
  2  6  1  0  0  0  0
  3  9  1  0  0  0  0
  5  3  1  0  0  0  0
  6 10  2  0  0  0  0
  7  6  1  0  0  0  0
  7  1  1  0  0  0  0
  8  4  1  0  0  0  0
  9 10  1  0  0  0  0
 10  4  1  0  0  0  0
 11  2  1  0  0  0  0
 12 11  1  0  0  0  0
 13 14  1  0  0  0  0
 13 12  1  0  0  0  0
 15 13  2  0  0  0  0
 16 13  1  0  0  0  0
 18 17  1  0  0  0  0
 18 24  1  0  0  0  0
 19 27  1  0  0  0  0
 19 21  2  0  0  0  0
 20 19  1  0  0  0  0
 21 23  1  0  0  0  0
 22 27  1  0  0  0  0
 23 24  2  0  0  0  0
 25 20  1  0  0  0  0
 25 22  2  0  0  0  0
 26 20  1  0  0  0  0
 27 18  2  0  0  0  0
M  END
>  <MODEL>
8

>  <REMARK>
 VINA RESULT:      -7.9      2.677      6.957
  Name = 
  5 active torsions:
  status: ('A' for Active; 'I' for Inactive)
    1  A    between atoms: C_1  and  C_5
    2  A    between atoms: C_2  and  C_5
    3  A    between atoms: C_3  and  C_6
    4  A    between atoms: C_3  and  O_11
    5  A    between atoms: P_4  and  O_11
                            x       y       z     vdW  Elec       q    Type
                         _______ _______ _______ _____ _____    ______ ____

>  <TORSDO>
F 5

$$$$
=
 OpenBabel11062414453D

 27 30  0  0  1  0  0  0  0  0999 V2000
  184.2090  178.3380  142.9620 C   0  0  1  0  0  3  0  0  0  0  0  0
  187.1060  177.9440  145.4230 C   0  0  0  0  0  0  0  0  0  0  0  0
  186.7860  178.1240  146.7560 C   0  0  0  0  0  0  0  0  0  0  0  0
  183.5890  178.9080  145.3580 C   0  0  0  0  0  2  0  0  0  0  0  0
  187.6830  177.9640  147.8490 N   0  0  0  0  0  1  0  0  0  0  0  0
  185.9440  178.2160  144.7380 C   0  0  0  0  0  0  0  0  0  0  0  0
  185.7170  178.3240  143.2640 C   0  0  0  0  0  2  0  0  0  0  0  0
  183.4720  179.3230  143.8820 C   0  0  0  0  0  2  0  0  0  0  0  0
  185.5250  178.4790  146.8920 O   0  0  0  0  0  0  0  0  0  0  0  0
  185.0040  178.5530  145.6870 C   0  0  0  0  0  0  0  0  0  0  0  0
  188.4430  177.6250  144.8470 C   0  0  0  0  0  2  0  0  0  0  0  0
  188.3620  176.4580  144.0850 O   0  0  0  0  0  0  0  0  0  0  0  0
  189.5360  176.6300  142.8760 P   0  0  0  0  0  0  0  0  0  0  0  0
  188.7940  176.9870  141.3980 O   0  0  0  0  0  0  0  0  0  0  0  0
  190.3060  175.3360  142.7440 O   0  0  0  0  0  1  0  0  0  0  0  0
  190.6100  177.8740  143.2820 O   0  0  0  0  0  1  0  0  0  0  0  0
  183.9630  178.7180  141.5090 C   0  0  0  0  0  2  0  0  0  0  0  0
  182.6050  178.2850  141.0630 C   0  0  0  0  0  0  0  0  0  0  0  0
  181.1970  176.9220  139.6640 C   0  0  0  0  0  0  0  0  0  0  0  0
  181.3190  175.9180  138.6770 N   0  0  0  0  0  0  0  0  0  0  0  0
  180.0320  177.4900  140.1790 C   0  0  0  0  0  3  0  0  0  0  0  0
  183.4440  176.5600  139.4130 N   0  0  0  0  0  0  0  0  0  0  0  0
  180.1700  178.4860  141.1630 C   0  0  0  0  0  3  0  0  0  0  0  0
  181.4510  178.8840  141.6000 C   0  0  0  0  0  3  0  0  0  0  0  0
  182.7460  175.6350  138.5080 C   0  0  0  0  0  3  0  0  0  0  0  0
  180.2380  175.1050  138.1480 C   0  0  0  0  0  1  0  0  0  0  0  0
  182.4340  177.3010  140.0850 C   0  0  0  0  0  0  0  0  0  0  0  0
  1 17  1  6  0  0  0
  1  7  1  0  0  0  0
  1  8  1  0  0  0  0
  2  3  2  0  0  0  0
  3  9  1  0  0  0  0
  3  5  1  0  0  0  0
  4 10  1  0  0  0  0
  6  2  1  0  0  0  0
  6 10  2  0  0  0  0
  7  6  1  0  0  0  0
  8  4  1  0  0  0  0
 10  9  1  0  0  0  0
 11  2  1  0  0  0  0
 12 11  1  0  0  0  0
 13 16  1  0  0  0  0
 13 12  1  0  0  0  0
 14 13  2  0  0  0  0
 15 13  1  0  0  0  0
 18 17  1  0  0  0  0
 18 24  1  0  0  0  0
 19 27  1  0  0  0  0
 19 21  2  0  0  0  0
 20 19  1  0  0  0  0
 21 23  1  0  0  0  0
 22 27  1  0  0  0  0
 23 24  2  0  0  0  0
 25 20  1  0  0  0  0
 25 22  2  0  0  0  0
 26 20  1  0  0  0  0
 27 18  2  0  0  0  0
M  END
>  <MODEL>
9

>  <REMARK>
 VINA RESULT:      -7.7      3.912      7.219
  Name = 
  5 active torsions:
  status: ('A' for Active; 'I' for Inactive)
    1  A    between atoms: C_1  and  C_5
    2  A    between atoms: C_2  and  C_5
    3  A    between atoms: C_3  and  C_6
    4  A    between atoms: C_3  and  O_11
    5  A    between atoms: P_4  and  O_11
                            x       y       z     vdW  Elec       q    Type
                         _______ _______ _______ _____ _____    ______ ____

>  <TORSDO>
F 5

$$$$
