=
 OpenBabel11062417403D

 39 45  0  0  1  0  0  0  0  0999 V2000
  188.3780  177.2910  143.6380 C   0  0  1  0  0  0  0  0  0  0  0  0
  187.1330  177.7880  142.9220 C   0  0  0  0  0  2  0  0  0  0  0  0
  188.6760  177.8850  145.0020 C   0  0  0  0  0  2  0  0  0  0  0  0
  187.2670  177.5680  145.4600 C   0  0  2  0  0  3  0  0  0  0  0  0
  186.9870  176.8850  144.1280 C   0  0  2  0  0  3  0  0  0  0  0  0
  189.0730  176.0010  143.2230 C   0  0  0  0  0  2  0  0  0  0  0  0
  191.3760  175.6820  143.6480 O   0  0  0  0  0  0  0  0  0  0  0  0
  190.5290  176.2360  142.9630 C   0  0  0  0  0  0  0  0  0  0  0  0
  190.9420  177.1120  141.8260 C   0  0  0  0  0  2  0  0  0  0  0  0
  190.6930  176.4550  140.5880 O   0  0  0  0  0  0  0  0  0  0  0  0
  188.3550  178.0420  137.4750 C   0  0  0  0  0  0  0  0  0  0  0  0
  189.6310  177.5480  137.2090 C   0  0  0  0  0  3  0  0  0  0  0  0
  187.5200  178.5750  136.3650 C   0  0  0  0  0  1  0  0  0  0  0  0
  190.4360  177.0580  138.2430 C   0  0  0  0  0  0  0  0  0  0  0  0
  188.6450  177.5240  139.8160 C   0  0  0  0  0  3  0  0  0  0  0  0
  187.8640  178.0360  138.7800 C   0  0  0  0  0  3  0  0  0  0  0  0
  189.9320  177.0220  139.5610 C   0  0  0  0  0  0  0  0  0  0  0  0
  192.0260  175.1900  137.5620 C   0  0  0  0  0  0  0  0  0  0  0  0
  191.7350  176.5440  137.9100 N   0  0  0  0  0  2  0  0  0  0  0  0
  191.1960  174.2710  137.7960 O   0  0  0  0  0  0  0  0  0  0  0  0
  194.3250  175.7030  137.5450 O   0  0  0  0  0  1  0  0  0  0  0  0
  193.3630  174.8490  137.0030 C   0  0  0  0  0  2  0  0  0  0  0  0
  186.5140  178.7680  145.5670 O   0  0  0  0  0  0  0  0  0  0  0  0
  184.0910  179.1210  145.5960 N   0  0  0  0  0  2  0  0  0  0  0  0
  185.3130  178.8300  146.2810 C   0  0  0  0  0  0  0  0  0  0  0  0
  185.3010  178.6570  147.5290 O   0  0  0  0  0  0  0  0  0  0  0  0
  184.0640  179.4200  144.1720 C   0  0  0  0  0  2  0  0  0  0  0  0
  183.7110  179.2050  139.5830 C   0  0  1  0  0  0  0  0  0  0  0  0
  181.7100  179.0520  141.6800 C   0  0  0  0  0  0  0  0  0  0  0  0
  182.9750  178.8060  141.9910 C   0  0  0  0  0  0  0  0  0  0  0  0
  184.0980  178.7400  140.9840 C   0  0  1  0  0  3  0  0  0  0  0  0
  180.9410  178.9520  142.8960 C   0  0  0  0  0  0  0  0  0  0  0  0
  181.1890  179.0900  140.2860 C   0  0  0  0  0  2  0  0  0  0  0  0
  183.7770  177.7590  139.8690 C   0  0  2  0  0  3  0  0  0  0  0  0
  183.1030  178.4760  143.4580 C   0  0  2  0  0  3  0  0  0  0  0  0
  181.7780  178.6530  143.9550 O   0  0  0  0  0  0  0  0  0  0  0  0
  182.2480  179.6320  139.3140 C   0  0  0  0  0  2  0  0  0  0  0  0
  184.2110  178.2770  138.5600 N   0  0  0  0  0  2  0  0  0  0  0  0
  179.6970  179.1350  142.9990 O   0  0  0  0  0  0  0  0  0  0  0  0
  1  6  1  6  0  0  0
  1  5  1  0  0  0  0
  1  3  1  0  0  0  0
  2  1  1  0  0  0  0
  3  4  1  0  0  0  0
  4 23  1  6  0  0  0
  5  2  1  6  0  0  0
  5  4  1  0  0  0  0
  8  6  1  0  0  0  0
  8  7  2  0  0  0  0
  9  8  1  0  0  0  0
 10  9  1  0  0  0  0
 11 16  1  0  0  0  0
 12 11  2  0  0  0  0
 12 14  1  0  0  0  0
 13 11  1  0  0  0  0
 14 17  2  0  0  0  0
 16 15  2  0  0  0  0
 17 15  1  0  0  0  0
 17 10  1  0  0  0  0
 18 20  2  0  0  0  0
 18 19  1  0  0  0  0
 19 14  1  0  0  0  0
 22 21  1  0  0  0  0
 22 18  1  0  0  0  0
 23 25  1  0  0  0  0
 24 25  1  0  0  0  0
 25 26  2  0  0  0  0
 27 24  1  0  0  0  0
 28 37  1  6  0  0  0
 28 34  1  0  0  0  0
 28 31  1  0  0  0  0
 29 30  2  0  0  0  0
 29 32  1  0  0  0  0
 30 35  1  0  0  0  0
 31 30  1  1  0  0  0
 32 39  2  0  0  0  0
 32 36  1  0  0  0  0
 33 29  1  0  0  0  0
 34 38  1  6  0  0  0
 34 31  1  0  0  0  0
 35 36  1  0  0  0  0
 35 27  1  1  0  0  0
 37 33  1  0  0  0  0
 38 28  1  0  0  0  0
M  END
>  <MODEL>
1

>  <REMARK>
 VINA RESULT:      -8.7      0.000      0.000
  Name = 
  11 active torsions:
  status: ('A' for Active; 'I' for Inactive)
    1  A    between atoms: C_1  and  C_5
    2  A    between atoms: C_5  and  C_26
    3  A    between atoms: C_6  and  C_37
    4  A    between atoms: C_14  and  N_22
    5  A    between atoms: O_17  and  C_19
    6  A    between atoms: O_17  and  C_34
    7  A    between atoms: N_18  and  C_24
    8  A    between atoms: C_21  and  C_24
    9  A    between atoms: C_26  and  C_33
   10  A    between atoms: C_32  and  O_39
   11  A    between atoms: C_33  and  O_39
                            x       y       z     vdW  Elec       q    Type
                         _______ _______ _______ _____ _____    ______ ____

>  <TORSDO>
F 11

$$$$
=
 OpenBabel11062417403D

 39 45  0  0  1  0  0  0  0  0999 V2000
  184.8990  178.9400  142.8660 C   0  0  1  0  0  0  0  0  0  0  0  0
  184.7780  180.1710  143.7480 C   0  0  0  0  0  2  0  0  0  0  0  0
  186.0130  177.9620  143.1890 C   0  0  0  0  0  2  0  0  0  0  0  0
  185.5640  177.9110  144.6350 C   0  0  2  0  0  3  0  0  0  0  0  0
  184.3860  178.8170  144.3020 C   0  0  2  0  0  3  0  0  0  0  0  0
  183.7530  178.4880  141.9690 C   0  0  0  0  0  2  0  0  0  0  0  0
  184.9280  179.6410  140.2720 O   0  0  0  0  0  0  0  0  0  0  0  0
  183.9570  178.9570  140.5610 C   0  0  0  0  0  0  0  0  0  0  0  0
  182.9920  178.5410  139.4990 C   0  0  0  0  0  2  0  0  0  0  0  0
  183.6970  178.1670  138.3200 O   0  0  0  0  0  0  0  0  0  0  0  0
  184.5650  174.1580  137.3950 C   0  0  0  0  0  0  0  0  0  0  0  0
  185.3980  175.1780  136.9370 C   0  0  0  0  0  3  0  0  0  0  0  0
  184.8940  172.7390  137.0900 C   0  0  0  0  0  1  0  0  0  0  0  0
  185.0960  176.5180  137.2000 C   0  0  0  0  0  0  0  0  0  0  0  0
  183.1290  175.8010  138.4310 C   0  0  0  0  0  3  0  0  0  0  0  0
  183.4270  174.4690  138.1370 C   0  0  0  0  0  3  0  0  0  0  0  0
  183.9610  176.8370  137.9770 C   0  0  0  0  0  0  0  0  0  0  0  0
  187.1310  178.0320  137.4300 C   0  0  0  0  0  0  0  0  0  0  0  0
  185.9980  177.5270  136.7200 N   0  0  0  0  0  2  0  0  0  0  0  0
  187.2610  177.8240  138.6660 O   0  0  0  0  0  0  0  0  0  0  0  0
  188.9210  179.5460  137.6520 O   0  0  0  0  0  1  0  0  0  0  0  0
  188.1160  178.8910  136.7190 C   0  0  0  0  0  2  0  0  0  0  0  0
  186.4990  178.5990  145.4540 O   0  0  0  0  0  0  0  0  0  0  0  0
  187.0700  177.9790  147.7530 N   0  0  0  0  0  2  0  0  0  0  0  0
  186.3060  178.7600  146.8290 C   0  0  0  0  0  0  0  0  0  0  0  0
  185.4450  179.5720  147.2630 O   0  0  0  0  0  0  0  0  0  0  0  0
  188.0100  176.9640  147.3020 C   0  0  0  0  0  2  0  0  0  0  0  0
  189.7640  176.6730  143.0510 C   0  0  1  0  0  0  0  0  0  0  0  0
  191.0220  176.5950  145.6660 C   0  0  0  0  0  0  0  0  0  0  0  0
  189.8140  177.1290  145.5600 C   0  0  0  0  0  0  0  0  0  0  0  0
  189.0920  177.3370  144.2500 C   0  0  1  0  0  3  0  0  0  0  0  0
  191.3920  176.6430  147.0600 C   0  0  0  0  0  0  0  0  0  0  0  0
  191.9150  176.3190  144.5070 C   0  0  0  0  0  2  0  0  0  0  0  0
  189.9490  178.1210  143.2700 C   0  0  2  0  0  3  0  0  0  0  0  0
  189.3300  177.6140  146.9050 C   0  0  2  0  0  3  0  0  0  0  0  0
  190.3670  177.2090  147.7960 O   0  0  0  0  0  0  0  0  0  0  0  0
  191.1020  175.9250  143.2650 C   0  0  0  0  0  2  0  0  0  0  0  0
  189.8220  177.5870  141.9030 N   0  0  0  0  0  2  0  0  0  0  0  0
  192.4720  176.2120  147.5510 O   0  0  0  0  0  0  0  0  0  0  0  0
  1  6  1  6  0  0  0
  1  3  1  0  0  0  0
  1  2  1  0  0  0  0
  1  5  1  0  0  0  0
  3  4  1  0  0  0  0
  4 23  1  1  0  0  0
  5  2  1  1  0  0  0
  5  4  1  0  0  0  0
  7  8  2  0  0  0  0
  8  6  1  0  0  0  0
  9  8  1  0  0  0  0
 10  9  1  0  0  0  0
 11 16  1  0  0  0  0
 12 14  1  0  0  0  0
 12 11  2  0  0  0  0
 13 11  1  0  0  0  0
 14 17  2  0  0  0  0
 16 15  2  0  0  0  0
 17 10  1  0  0  0  0
 17 15  1  0  0  0  0
 18 20  2  0  0  0  0
 19 14  1  0  0  0  0
 19 18  1  0  0  0  0
 22 18  1  0  0  0  0
 22 21  1  0  0  0  0
 23 25  1  0  0  0  0
 25 26  2  0  0  0  0
 25 24  1  0  0  0  0
 27 24  1  0  0  0  0
 28 37  1  1  0  0  0
 28 34  1  0  0  0  0
 28 31  1  0  0  0  0
 29 32  1  0  0  0  0
 30 29  2  0  0  0  0
 30 35  1  0  0  0  0
 31 30  1  1  0  0  0
 32 39  2  0  0  0  0
 32 36  1  0  0  0  0
 33 29  1  0  0  0  0
 34 38  1  6  0  0  0
 34 31  1  0  0  0  0
 35 27  1  1  0  0  0
 35 36  1  0  0  0  0
 37 33  1  0  0  0  0
 38 28  1  0  0  0  0
M  END
>  <MODEL>
2

>  <REMARK>
 VINA RESULT:      -8.5      3.062      6.934
  Name = 
  11 active torsions:
  status: ('A' for Active; 'I' for Inactive)
    1  A    between atoms: C_1  and  C_5
    2  A    between atoms: C_5  and  C_26
    3  A    between atoms: C_6  and  C_37
    4  A    between atoms: C_14  and  N_22
    5  A    between atoms: O_17  and  C_19
    6  A    between atoms: O_17  and  C_34
    7  A    between atoms: N_18  and  C_24
    8  A    between atoms: C_21  and  C_24
    9  A    between atoms: C_26  and  C_33
   10  A    between atoms: C_32  and  O_39
   11  A    between atoms: C_33  and  O_39
                            x       y       z     vdW  Elec       q    Type
                         _______ _______ _______ _____ _____    ______ ____

>  <TORSDO>
F 11

$$$$
=
 OpenBabel11062417403D

 39 45  0  0  1  0  0  0  0  0999 V2000
  188.0840  177.5350  138.3860 C   0  0  1  0  0  0  0  0  0  0  0  0
  188.8490  176.2640  138.0560 C   0  0  0  0  0  2  0  0  0  0  0  0
  188.3780  178.1930  139.7210 C   0  0  0  0  0  2  0  0  0  0  0  0
  189.8630  178.1670  139.4200 C   0  0  2  0  0  3  0  0  0  0  0  0
  189.5730  177.5940  138.0390 C   0  0  2  0  0  3  0  0  0  0  0  0
  187.3670  178.3350  137.3070 C   0  0  0  0  0  2  0  0  0  0  0  0
  185.6560  177.5090  135.9010 O   0  0  0  0  0  0  0  0  0  0  0  0
  186.0030  177.7760  137.0420 C   0  0  0  0  0  0  0  0  0  0  0  0
  185.0850  177.4990  138.1880 C   0  0  0  0  0  2  0  0  0  0  0  0
  184.7250  178.7180  138.8300 O   0  0  0  0  0  0  0  0  0  0  0  0
  183.7950  178.8400  142.9290 C   0  0  0  0  0  0  0  0  0  0  0  0
  182.7880  178.6280  141.9890 C   0  0  0  0  0  3  0  0  0  0  0  0
  183.4660  178.8520  144.3800 C   0  0  0  0  0  1  0  0  0  0  0  0
  183.0770  178.6290  140.6210 C   0  0  0  0  0  0  0  0  0  0  0  0
  185.4160  179.0160  141.1460 C   0  0  0  0  0  3  0  0  0  0  0  0
  185.1090  179.0400  142.5070 C   0  0  0  0  0  3  0  0  0  0  0  0
  184.4100  178.8010  140.1900 C   0  0  0  0  0  0  0  0  0  0  0  0
  181.5100  177.1020  139.3190 C   0  0  0  0  0  0  0  0  0  0  0  0
  182.0040  178.3880  139.6970 N   0  0  0  0  0  2  0  0  0  0  0  0
  182.1760  176.0590  139.5590 O   0  0  0  0  0  0  0  0  0  0  0  0
  179.3170  176.2410  139.2660 O   0  0  0  0  0  1  0  0  0  0  0  0
  180.2400  177.0030  138.5480 C   0  0  0  0  0  2  0  0  0  0  0  0
  190.5030  177.1950  140.2330 O   0  0  0  0  0  0  0  0  0  0  0  0
  191.5810  177.8790  142.3230 N   0  0  0  0  0  2  0  0  0  0  0  0
  191.6680  177.4770  140.9520 C   0  0  0  0  0  0  0  0  0  0  0  0
  192.7960  177.4040  140.3950 O   0  0  0  0  0  0  0  0  0  0  0  0
  190.2990  178.0670  142.9850 C   0  0  0  0  0  2  0  0  0  0  0  0
  187.1670  178.3660  146.3510 C   0  0  1  0  0  0  0  0  0  0  0  0
  189.8480  177.2550  146.3050 C   0  0  0  0  0  0  0  0  0  0  0  0
  189.2090  177.4170  145.1540 C   0  0  0  0  0  0  0  0  0  0  0  0
  187.7750  177.8760  145.0390 C   0  0  1  0  0  3  0  0  0  0  0  0
  191.1580  176.7340  145.9990 C   0  0  0  0  0  0  0  0  0  0  0  0
  189.1860  177.2990  147.6370 C   0  0  0  0  0  2  0  0  0  0  0  0
  186.8520  177.0040  145.8740 C   0  0  2  0  0  3  0  0  0  0  0  0
  190.0690  176.9560  144.0030 C   0  0  2  0  0  3  0  0  0  0  0  0
  191.2990  176.6000  144.6300 O   0  0  0  0  0  0  0  0  0  0  0  0
  188.0180  178.2970  147.6410 C   0  0  0  0  0  2  0  0  0  0  0  0
  185.8210  177.8110  146.5490 N   0  0  0  0  0  2  0  0  0  0  0  0
  192.0590  176.4640  146.8400 O   0  0  0  0  0  0  0  0  0  0  0  0
  1  6  1  6  0  0  0
  1  3  1  0  0  0  0
  2  1  1  0  0  0  0
  4  3  1  0  0  0  0
  4 23  1  1  0  0  0
  5  2  1  1  0  0  0
  5  1  1  0  0  0  0
  5  4  1  0  0  0  0
  7  8  2  0  0  0  0
  8  6  1  0  0  0  0
  8  9  1  0  0  0  0
  9 10  1  0  0  0  0
 10 17  1  0  0  0  0
 11 13  1  0  0  0  0
 12 11  2  0  0  0  0
 14 12  1  0  0  0  0
 15 16  2  0  0  0  0
 16 11  1  0  0  0  0
 17 14  2  0  0  0  0
 17 15  1  0  0  0  0
 18 20  2  0  0  0  0
 18 19  1  0  0  0  0
 19 14  1  0  0  0  0
 22 21  1  0  0  0  0
 22 18  1  0  0  0  0
 23 25  1  0  0  0  0
 24 27  1  0  0  0  0
 25 24  1  0  0  0  0
 26 25  2  0  0  0  0
 28 38  1  0  0  0  0
 28 37  1  1  0  0  0
 29 33  1  0  0  0  0
 30 29  2  0  0  0  0
 31 30  1  1  0  0  0
 31 34  1  0  0  0  0
 31 28  1  0  0  0  0
 32 29  1  0  0  0  0
 32 39  2  0  0  0  0
 33 37  1  0  0  0  0
 34 28  1  0  0  0  0
 34 38  1  6  0  0  0
 35 27  1  6  0  0  0
 35 36  1  0  0  0  0
 35 30  1  0  0  0  0
 36 32  1  0  0  0  0
M  END
>  <MODEL>
3

>  <REMARK>
 VINA RESULT:      -8.4      2.625      8.559
  Name = 
  11 active torsions:
  status: ('A' for Active; 'I' for Inactive)
    1  A    between atoms: C_1  and  C_5
    2  A    between atoms: C_5  and  C_26
    3  A    between atoms: C_6  and  C_37
    4  A    between atoms: C_14  and  N_22
    5  A    between atoms: O_17  and  C_19
    6  A    between atoms: O_17  and  C_34
    7  A    between atoms: N_18  and  C_24
    8  A    between atoms: C_21  and  C_24
    9  A    between atoms: C_26  and  C_33
   10  A    between atoms: C_32  and  O_39
   11  A    between atoms: C_33  and  O_39
                            x       y       z     vdW  Elec       q    Type
                         _______ _______ _______ _____ _____    ______ ____

>  <TORSDO>
F 11

$$$$
=
 OpenBabel11062417403D

 39 45  0  0  1  0  0  0  0  0999 V2000
  188.0090  178.1260  147.0360 C   0  0  1  0  0  0  0  0  0  0  0  0
  189.2020  178.2680  147.9650 C   0  0  0  0  0  2  0  0  0  0  0  0
  188.2990  177.9060  145.5630 C   0  0  0  0  0  2  0  0  0  0  0  0
  189.2310  176.7620  145.9060 C   0  0  2  0  0  3  0  0  0  0  0  0
  188.8740  176.9120  147.3790 C   0  0  2  0  0  3  0  0  0  0  0  0
  186.6160  177.8170  147.5700 C   0  0  0  0  0  2  0  0  0  0  0  0
  185.6810  179.9760  147.3550 O   0  0  0  0  0  0  0  0  0  0  0  0
  185.6110  178.7960  147.0470 C   0  0  0  0  0  0  0  0  0  0  0  0
  184.5510  178.3290  146.1030 C   0  0  0  0  0  2  0  0  0  0  0  0
  184.2790  179.3390  145.1370 O   0  0  0  0  0  0  0  0  0  0  0  0
  184.0570  178.6990  140.9870 C   0  0  0  0  0  0  0  0  0  0  0  0
  182.9080  178.6060  141.7720 C   0  0  0  0  0  3  0  0  0  0  0  0
  183.9670  178.5020  139.5150 C   0  0  0  0  0  1  0  0  0  0  0  0
  182.9770  178.7730  143.1590 C   0  0  0  0  0  0  0  0  0  0  0  0
  185.3640  179.1740  142.9620 C   0  0  0  0  0  3  0  0  0  0  0  0
  185.2860  178.9780  141.5830 C   0  0  0  0  0  3  0  0  0  0  0  0
  184.2140  179.0850  143.7630 C   0  0  0  0  0  0  0  0  0  0  0  0
  180.5410  179.3640  143.6100 C   0  0  0  0  0  0  0  0  0  0  0  0
  181.7600  178.6850  143.9170 N   0  0  0  0  0  2  0  0  0  0  0  0
  180.5270  180.3260  142.7960 O   0  0  0  0  0  0  0  0  0  0  0  0
  179.3320  177.6360  144.6590 O   0  0  0  0  0  1  0  0  0  0  0  0
  179.2950  178.9920  144.3320 C   0  0  0  0  0  2  0  0  0  0  0  0
  190.5780  177.1540  145.6830 O   0  0  0  0  0  0  0  0  0  0  0  0
  191.5630  175.7240  143.9560 N   0  0  0  0  0  2  0  0  0  0  0  0
  191.5620  176.2420  145.2900 C   0  0  0  0  0  0  0  0  0  0  0  0
  192.4380  175.8530  146.1090 O   0  0  0  0  0  0  0  0  0  0  0  0
  190.5210  176.0710  143.0010 C   0  0  0  0  0  2  0  0  0  0  0  0
  188.4280  177.2400  139.0660 C   0  0  1  0  0  0  0  0  0  0  0  0
  191.2300  177.2050  139.8230 C   0  0  0  0  0  0  0  0  0  0  0  0
  190.3150  177.2330  140.7810 C   0  0  0  0  0  0  0  0  0  0  0  0
  188.8310  177.3670  140.5320 C   0  0  1  0  0  3  0  0  0  0  0  0
  192.5220  177.1500  140.4640 C   0  0  0  0  0  0  0  0  0  0  0  0
  190.9470  177.5090  138.3930 C   0  0  0  0  0  2  0  0  0  0  0  0
  188.5270  178.5820  139.6720 C   0  0  2  0  0  3  0  0  0  0  0  0
  190.9730  177.2450  142.1400 C   0  0  2  0  0  3  0  0  0  0  0  0
  192.3610  177.1300  141.8370 O   0  0  0  0  0  0  0  0  0  0  0  0
  189.5350  177.0520  138.0000 C   0  0  0  0  0  2  0  0  0  0  0  0
  187.4720  178.2890  138.6870 N   0  0  0  0  0  2  0  0  0  0  0  0
  193.6360  177.0980  139.8740 O   0  0  0  0  0  0  0  0  0  0  0  0
  1  5  1  0  0  0  0
  1  6  1  1  0  0  0
  1  2  1  0  0  0  0
  3  4  1  0  0  0  0
  3  1  1  0  0  0  0
  4 23  1  1  0  0  0
  4  5  1  0  0  0  0
  5  2  1  1  0  0  0
  8  7  2  0  0  0  0
  8  6  1  0  0  0  0
  9  8  1  0  0  0  0
 10  9  1  0  0  0  0
 11 16  2  0  0  0  0
 11 12  1  0  0  0  0
 12 14  2  0  0  0  0
 13 11  1  0  0  0  0
 14 17  1  0  0  0  0
 14 19  1  0  0  0  0
 15 17  2  0  0  0  0
 16 15  1  0  0  0  0
 17 10  1  0  0  0  0
 18 19  1  0  0  0  0
 18 22  1  0  0  0  0
 20 18  2  0  0  0  0
 22 21  1  0  0  0  0
 24 25  1  0  0  0  0
 25 23  1  0  0  0  0
 25 26  2  0  0  0  0
 27 24  1  0  0  0  0
 28 37  1  6  0  0  0
 28 34  1  0  0  0  0
 28 31  1  0  0  0  0
 29 32  1  0  0  0  0
 29 30  2  0  0  0  0
 30 35  1  0  0  0  0
 31 30  1  6  0  0  0
 32 36  1  0  0  0  0
 33 29  1  0  0  0  0
 34 38  1  1  0  0  0
 34 31  1  0  0  0  0
 35 27  1  1  0  0  0
 36 35  1  0  0  0  0
 37 33  1  0  0  0  0
 38 28  1  0  0  0  0
 39 32  2  0  0  0  0
M  END
>  <MODEL>
4

>  <REMARK>
 VINA RESULT:      -8.3      2.053      8.576
  Name = 
  11 active torsions:
  status: ('A' for Active; 'I' for Inactive)
    1  A    between atoms: C_1  and  C_5
    2  A    between atoms: C_5  and  C_26
    3  A    between atoms: C_6  and  C_37
    4  A    between atoms: C_14  and  N_22
    5  A    between atoms: O_17  and  C_19
    6  A    between atoms: O_17  and  C_34
    7  A    between atoms: N_18  and  C_24
    8  A    between atoms: C_21  and  C_24
    9  A    between atoms: C_26  and  C_33
   10  A    between atoms: C_32  and  O_39
   11  A    between atoms: C_33  and  O_39
                            x       y       z     vdW  Elec       q    Type
                         _______ _______ _______ _____ _____    ______ ____

>  <TORSDO>
F 11

$$$$
=
 OpenBabel11062417403D

 39 45  0  0  1  0  0  0  0  0999 V2000
  184.1670  178.5750  143.7100 C   0  0  1  0  0  0  0  0  0  0  0  0
  183.6910  178.5790  145.1530 C   0  0  0  0  0  2  0  0  0  0  0  0
  183.1640  178.1580  142.6510 C   0  0  0  0  0  2  0  0  0  0  0  0
  182.1580  179.1520  143.1960 C   0  0  2  0  0  3  0  0  0  0  0  0
  183.1900  179.6450  144.2020 C   0  0  2  0  0  3  0  0  0  0  0  0
  185.4270  179.3170  143.2860 C   0  0  0  0  0  2  0  0  0  0  0  0
  186.7780  178.3350  141.6140 O   0  0  0  0  0  0  0  0  0  0  0  0
  186.4730  178.3630  142.7970 C   0  0  0  0  0  0  0  0  0  0  0  0
  187.1790  177.4800  143.7740 C   0  0  0  0  0  2  0  0  0  0  0  0
  188.1960  178.2140  144.4480 O   0  0  0  0  0  0  0  0  0  0  0  0
  191.1770  176.5160  146.8800 C   0  0  0  0  0  0  0  0  0  0  0  0
  191.4410  176.7930  145.5390 C   0  0  0  0  0  3  0  0  0  0  0  0
  192.2440  175.9430  147.7430 C   0  0  0  0  0  1  0  0  0  0  0  0
  190.4450  177.3160  144.7080 C   0  0  0  0  0  0  0  0  0  0  0  0
  188.9180  177.3260  146.5980 C   0  0  0  0  0  3  0  0  0  0  0  0
  189.9130  176.7770  147.4080 C   0  0  0  0  0  3  0  0  0  0  0  0
  189.1730  177.6100  145.2460 C   0  0  0  0  0  0  0  0  0  0  0  0
  190.5230  176.7350  142.2310 C   0  0  0  0  0  0  0  0  0  0  0  0
  190.7770  177.5990  143.3400 N   0  0  0  0  0  2  0  0  0  0  0  0
  190.2370  175.5210  142.4120 O   0  0  0  0  0  0  0  0  0  0  0  0
  190.5190  176.2120  139.9340 O   0  0  0  0  0  1  0  0  0  0  0  0
  190.6930  177.2540  140.8460 C   0  0  0  0  0  2  0  0  0  0  0  0
  181.1100  178.4620  143.8610 O   0  0  0  0  0  0  0  0  0  0  0  0
  179.0600  178.2320  142.5430 N   0  0  0  0  0  2  0  0  0  0  0  0
  179.7650  178.7820  143.6600 C   0  0  0  0  0  0  0  0  0  0  0  0
  179.1710  179.5720  144.4430 O   0  0  0  0  0  0  0  0  0  0  0  0
  179.7240  177.3900  141.5590 C   0  0  0  0  0  2  0  0  0  0  0  0
  183.5470  177.6520  139.0010 C   0  0  1  0  0  0  0  0  0  0  0  0
  181.4360  179.5760  139.5160 C   0  0  0  0  0  0  0  0  0  0  0  0
  181.1870  178.2910  139.7250 C   0  0  0  0  0  0  0  0  0  0  0  0
  182.1500  177.1760  139.3930 C   0  0  1  0  0  3  0  0  0  0  0  0
  180.2500  180.3090  139.8860 C   0  0  0  0  0  0  0  0  0  0  0  0
  182.6020  180.0820  138.7410 C   0  0  0  0  0  2  0  0  0  0  0  0
  182.5980  177.2530  137.9430 C   0  0  2  0  0  3  0  0  0  0  0  0
  179.7710  178.1000  140.2110 C   0  0  2  0  0  3  0  0  0  0  0  0
  179.2810  179.4330  140.3380 O   0  0  0  0  0  0  0  0  0  0  0  0
  183.8260  179.1720  138.9250 C   0  0  0  0  0  2  0  0  0  0  0  0
  184.0320  176.9430  137.8100 N   0  0  0  0  0  2  0  0  0  0  0  0
  180.1120  181.5630  139.8360 O   0  0  0  0  0  0  0  0  0  0  0  0
  1  6  1  6  0  0  0
  1  5  1  0  0  0  0
  1  2  1  0  0  0  0
  3  4  1  0  0  0  0
  3  1  1  0  0  0  0
  4 23  1  1  0  0  0
  4  5  1  0  0  0  0
  5  2  1  1  0  0  0
  7  8  2  0  0  0  0
  8  6  1  0  0  0  0
  8  9  1  0  0  0  0
  9 10  1  0  0  0  0
 10 17  1  0  0  0  0
 11 16  1  0  0  0  0
 11 13  1  0  0  0  0
 12 11  2  0  0  0  0
 14 17  2  0  0  0  0
 14 12  1  0  0  0  0
 15 16  2  0  0  0  0
 17 15  1  0  0  0  0
 18 20  2  0  0  0  0
 18 19  1  0  0  0  0
 19 14  1  0  0  0  0
 21 22  1  0  0  0  0
 22 18  1  0  0  0  0
 24 25  1  0  0  0  0
 25 23  1  0  0  0  0
 25 26  2  0  0  0  0
 27 24  1  0  0  0  0
 28 37  1  1  0  0  0
 28 31  1  0  0  0  0
 29 30  2  0  0  0  0
 29 32  1  0  0  0  0
 30 35  1  0  0  0  0
 31 30  1  6  0  0  0
 32 36  1  0  0  0  0
 33 37  1  0  0  0  0
 33 29  1  0  0  0  0
 34 38  1  1  0  0  0
 34 28  1  0  0  0  0
 34 31  1  0  0  0  0
 35 36  1  0  0  0  0
 35 27  1  1  0  0  0
 38 28  1  0  0  0  0
 39 32  2  0  0  0  0
M  END
>  <MODEL>
5

>  <REMARK>
 VINA RESULT:      -8.3      2.680      5.556
  Name = 
  11 active torsions:
  status: ('A' for Active; 'I' for Inactive)
    1  A    between atoms: C_1  and  C_5
    2  A    between atoms: C_5  and  C_26
    3  A    between atoms: C_6  and  C_37
    4  A    between atoms: C_14  and  N_22
    5  A    between atoms: O_17  and  C_19
    6  A    between atoms: O_17  and  C_34
    7  A    between atoms: N_18  and  C_24
    8  A    between atoms: C_21  and  C_24
    9  A    between atoms: C_26  and  C_33
   10  A    between atoms: C_32  and  O_39
   11  A    between atoms: C_33  and  O_39
                            x       y       z     vdW  Elec       q    Type
                         _______ _______ _______ _____ _____    ______ ____

>  <TORSDO>
F 11

$$$$
=
 OpenBabel11062417403D

 39 45  0  0  1  0  0  0  0  0999 V2000
  187.4730  177.9600  145.6080 C   0  0  1  0  0  0  0  0  0  0  0  0
  188.8080  178.0820  146.3230 C   0  0  0  0  0  2  0  0  0  0  0  0
  187.5030  177.8630  144.0940 C   0  0  0  0  0  2  0  0  0  0  0  0
  188.5130  176.7360  144.1760 C   0  0  2  0  0  3  0  0  0  0  0  0
  188.4180  176.7610  145.6950 C   0  0  2  0  0  3  0  0  0  0  0  0
  186.2060  177.5540  146.3510 C   0  0  0  0  0  2  0  0  0  0  0  0
  185.6750  179.6430  147.3220 O   0  0  0  0  0  0  0  0  0  0  0  0
  185.3180  178.7380  146.5830 C   0  0  0  0  0  0  0  0  0  0  0  0
  184.0110  178.8300  145.8640 C   0  0  0  0  0  2  0  0  0  0  0  0
  184.2250  178.7820  144.4570 O   0  0  0  0  0  0  0  0  0  0  0  0
  181.0700  178.6600  141.6790 C   0  0  0  0  0  0  0  0  0  0  0  0
  182.3740  178.3840  141.2700 C   0  0  0  0  0  3  0  0  0  0  0  0
  179.9540  178.5860  140.6990 C   0  0  0  0  0  1  0  0  0  0  0  0
  183.4380  178.4640  142.1740 C   0  0  0  0  0  0  0  0  0  0  0  0
  181.8640  179.0620  143.9250 C   0  0  0  0  0  3  0  0  0  0  0  0
  180.8160  179.0050  143.0060 C   0  0  0  0  0  3  0  0  0  0  0  0
  183.1810  178.7840  143.5250 C   0  0  0  0  0  0  0  0  0  0  0  0
  185.4940  178.9060  140.7380 C   0  0  0  0  0  0  0  0  0  0  0  0
  184.7580  178.1520  141.7030 N   0  0  0  0  0  2  0  0  0  0  0  0
  184.9160  179.7580  140.0100 O   0  0  0  0  0  0  0  0  0  0  0  0
  187.2170  178.6210  139.1580 O   0  0  0  0  0  1  0  0  0  0  0  0
  186.9370  178.6120  140.5250 C   0  0  0  0  0  2  0  0  0  0  0  0
  189.7870  177.1990  143.7530 O   0  0  0  0  0  0  0  0  0  0  0  0
  190.8140  176.1330  141.8030 N   0  0  0  0  0  2  0  0  0  0  0  0
  190.7500  176.3400  143.2170 C   0  0  0  0  0  0  0  0  0  0  0  0
  191.5500  175.7250  143.9740 O   0  0  0  0  0  0  0  0  0  0  0  0
  189.8560  176.7470  140.8960 C   0  0  0  0  0  2  0  0  0  0  0  0
  189.4280  175.3960  136.5120 C   0  0  1  0  0  0  0  0  0  0  0  0
  191.7210  176.3320  138.0260 C   0  0  0  0  0  0  0  0  0  0  0  0
  190.5060  176.6210  138.4720 C   0  0  0  0  0  0  0  0  0  0  0  0
  189.2320  176.2970  137.7290 C   0  0  1  0  0  3  0  0  0  0  0  0
  192.6650  176.8700  138.9740 C   0  0  0  0  0  0  0  0  0  0  0  0
  192.0070  175.8410  136.6500 C   0  0  0  0  0  2  0  0  0  0  0  0
  189.2670  176.8500  136.3140 C   0  0  2  0  0  3  0  0  0  0  0  0
  190.5880  177.4270  139.7450 C   0  0  2  0  0  3  0  0  0  0  0  0
  191.9880  177.4800  140.0140 O   0  0  0  0  0  0  0  0  0  0  0  0
  190.8620  174.9600  136.1280 C   0  0  0  0  0  2  0  0  0  0  0  0
  188.6770  175.9010  135.3540 N   0  0  0  0  0  2  0  0  0  0  0  0
  193.9220  176.7800  138.8960 O   0  0  0  0  0  0  0  0  0  0  0  0
  1  5  1  0  0  0  0
  1  2  1  0  0  0  0
  1  6  1  1  0  0  0
  3  4  1  0  0  0  0
  3  1  1  0  0  0  0
  4 23  1  1  0  0  0
  4  5  1  0  0  0  0
  5  2  1  1  0  0  0
  6  8  1  0  0  0  0
  8  7  2  0  0  0  0
  9  8  1  0  0  0  0
 10  9  1  0  0  0  0
 11 16  1  0  0  0  0
 12 11  2  0  0  0  0
 12 14  1  0  0  0  0
 13 11  1  0  0  0  0
 14 17  2  0  0  0  0
 16 15  2  0  0  0  0
 17 15  1  0  0  0  0
 17 10  1  0  0  0  0
 18 19  1  0  0  0  0
 19 14  1  0  0  0  0
 20 18  2  0  0  0  0
 21 22  1  0  0  0  0
 22 18  1  0  0  0  0
 24 25  1  0  0  0  0
 25 23  1  0  0  0  0
 25 26  2  0  0  0  0
 27 24  1  0  0  0  0
 28 37  1  6  0  0  0
 28 31  1  0  0  0  0
 29 30  2  0  0  0  0
 29 32  1  0  0  0  0
 30 35  1  0  0  0  0
 31 30  1  1  0  0  0
 32 36  1  0  0  0  0
 33 29  1  0  0  0  0
 34 38  1  6  0  0  0
 34 28  1  0  0  0  0
 34 31  1  0  0  0  0
 35 36  1  0  0  0  0
 35 27  1  1  0  0  0
 37 33  1  0  0  0  0
 38 28  1  0  0  0  0
 39 32  2  0  0  0  0
M  END
>  <MODEL>
6

>  <REMARK>
 VINA RESULT:      -8.0      1.980      8.074
  Name = 
  11 active torsions:
  status: ('A' for Active; 'I' for Inactive)
    1  A    between atoms: C_1  and  C_5
    2  A    between atoms: C_5  and  C_26
    3  A    between atoms: C_6  and  C_37
    4  A    between atoms: C_14  and  N_22
    5  A    between atoms: O_17  and  C_19
    6  A    between atoms: O_17  and  C_34
    7  A    between atoms: N_18  and  C_24
    8  A    between atoms: C_21  and  C_24
    9  A    between atoms: C_26  and  C_33
   10  A    between atoms: C_32  and  O_39
   11  A    between atoms: C_33  and  O_39
                            x       y       z     vdW  Elec       q    Type
                         _______ _______ _______ _____ _____    ______ ____

>  <TORSDO>
F 11

$$$$
=
 OpenBabel11062417403D

 39 45  0  0  1  0  0  0  0  0999 V2000
  184.6580  178.8520  143.1640 C   0  0  1  0  0  0  0  0  0  0  0  0
  184.6520  180.1420  143.9660 C   0  0  0  0  0  2  0  0  0  0  0  0
  185.7760  177.8650  143.4450 C   0  0  0  0  0  2  0  0  0  0  0  0
  185.4700  177.9250  144.9280 C   0  0  2  0  0  3  0  0  0  0  0  0
  184.2860  178.8410  144.6480 C   0  0  2  0  0  3  0  0  0  0  0  0
  183.4200  178.3750  142.4150 C   0  0  0  0  0  2  0  0  0  0  0  0
  183.1170  177.3300  140.3170 O   0  0  0  0  0  0  0  0  0  0  0  0
  183.7160  178.1790  140.9600 C   0  0  0  0  0  0  0  0  0  0  0  0
  184.7120  179.0650  140.2850 C   0  0  0  0  0  2  0  0  0  0  0  0
  184.7990  178.7370  138.9020 O   0  0  0  0  0  0  0  0  0  0  0  0
  188.1010  176.8220  137.1400 C   0  0  0  0  0  0  0  0  0  0  0  0
  186.8220  176.6280  136.6220 C   0  0  0  0  0  3  0  0  0  0  0  0
  189.2700  176.1660  136.4940 C   0  0  0  0  0  1  0  0  0  0  0  0
  185.7100  177.2240  137.2260 C   0  0  0  0  0  0  0  0  0  0  0  0
  187.1850  178.2530  138.8570 C   0  0  0  0  0  3  0  0  0  0  0  0
  188.2830  177.6300  138.2610 C   0  0  0  0  0  3  0  0  0  0  0  0
  185.8920  178.0670  138.3430 C   0  0  0  0  0  0  0  0  0  0  0  0
  183.4690  176.0250  137.0670 C   0  0  0  0  0  0  0  0  0  0  0  0
  184.4170  177.0050  136.6400 N   0  0  0  0  0  2  0  0  0  0  0  0
  183.8170  175.0780  137.8230 O   0  0  0  0  0  0  0  0  0  0  0  0
  181.1790  176.1850  137.5950 O   0  0  0  0  0  1  0  0  0  0  0  0
  182.0800  176.0700  136.5350 C   0  0  0  0  0  2  0  0  0  0  0  0
  186.4960  178.6380  145.6030 O   0  0  0  0  0  0  0  0  0  0  0  0
  187.2790  178.1040  147.8610 N   0  0  0  0  0  2  0  0  0  0  0  0
  186.4550  178.8740  146.9800 C   0  0  0  0  0  0  0  0  0  0  0  0
  185.6780  179.7450  147.4570 O   0  0  0  0  0  0  0  0  0  0  0  0
  188.1230  177.0250  147.3710 C   0  0  0  0  0  2  0  0  0  0  0  0
  189.5640  176.8060  143.0000 C   0  0  1  0  0  0  0  0  0  0  0  0
  190.9780  176.4870  145.5150 C   0  0  0  0  0  0  0  0  0  0  0  0
  189.8170  177.1270  145.5170 C   0  0  0  0  0  0  0  0  0  0  0  0
  189.0320  177.4620  144.2710 C   0  0  1  0  0  3  0  0  0  0  0  0
  191.4410  176.4320  146.8800 C   0  0  0  0  0  0  0  0  0  0  0  0
  191.7660  176.1970  144.2850 C   0  0  0  0  0  2  0  0  0  0  0  0
  189.8890  178.2200  143.2710 C   0  0  2  0  0  3  0  0  0  0  0  0
  189.4670  177.5800  146.9130 C   0  0  2  0  0  3  0  0  0  0  0  0
  190.5200  177.0440  147.7100 O   0  0  0  0  0  0  0  0  0  0  0  0
  190.8420  175.9370  143.0850 C   0  0  0  0  0  2  0  0  0  0  0  0
  189.6270  177.7690  141.8930 N   0  0  0  0  0  2  0  0  0  0  0  0
  192.5080  175.8870  147.2750 O   0  0  0  0  0  0  0  0  0  0  0  0
  1  6  1  6  0  0  0
  1  3  1  0  0  0  0
  1  2  1  0  0  0  0
  1  5  1  0  0  0  0
  3  4  1  0  0  0  0
  4 23  1  1  0  0  0
  5  2  1  1  0  0  0
  5  4  1  0  0  0  0
  7  8  2  0  0  0  0
  8  6  1  0  0  0  0
  9  8  1  0  0  0  0
 10  9  1  0  0  0  0
 11 16  1  0  0  0  0
 12 11  2  0  0  0  0
 12 14  1  0  0  0  0
 13 11  1  0  0  0  0
 14 17  2  0  0  0  0
 16 15  2  0  0  0  0
 17 15  1  0  0  0  0
 17 10  1  0  0  0  0
 18 20  2  0  0  0  0
 19 18  1  0  0  0  0
 19 14  1  0  0  0  0
 22 18  1  0  0  0  0
 22 21  1  0  0  0  0
 23 25  1  0  0  0  0
 25 26  2  0  0  0  0
 25 24  1  0  0  0  0
 27 24  1  0  0  0  0
 28 37  1  1  0  0  0
 28 34  1  0  0  0  0
 28 31  1  0  0  0  0
 29 30  2  0  0  0  0
 29 32  1  0  0  0  0
 30 35  1  0  0  0  0
 31 30  1  1  0  0  0
 32 39  2  0  0  0  0
 32 36  1  0  0  0  0
 33 29  1  0  0  0  0
 34 38  1  6  0  0  0
 34 31  1  0  0  0  0
 35 27  1  1  0  0  0
 35 36  1  0  0  0  0
 37 33  1  0  0  0  0
 38 28  1  0  0  0  0
M  END
>  <MODEL>
7

>  <REMARK>
 VINA RESULT:      -8.0      3.162      7.124
  Name = 
  11 active torsions:
  status: ('A' for Active; 'I' for Inactive)
    1  A    between atoms: C_1  and  C_5
    2  A    between atoms: C_5  and  C_26
    3  A    between atoms: C_6  and  C_37
    4  A    between atoms: C_14  and  N_22
    5  A    between atoms: O_17  and  C_19
    6  A    between atoms: O_17  and  C_34
    7  A    between atoms: N_18  and  C_24
    8  A    between atoms: C_21  and  C_24
    9  A    between atoms: C_26  and  C_33
   10  A    between atoms: C_32  and  O_39
   11  A    between atoms: C_33  and  O_39
                            x       y       z     vdW  Elec       q    Type
                         _______ _______ _______ _____ _____    ______ ____

>  <TORSDO>
F 11

$$$$
=
 OpenBabel11062417403D

 39 45  0  0  1  0  0  0  0  0999 V2000
  184.2970  179.0730  143.1860 C   0  0  1  0  0  0  0  0  0  0  0  0
  185.6780  179.3850  142.6350 C   0  0  0  0  0  2  0  0  0  0  0  0
  183.1290  179.1630  142.2220 C   0  0  0  0  0  2  0  0  0  0  0  0
  183.8570  178.2680  141.2400 C   0  0  2  0  0  3  0  0  0  0  0  0
  184.9930  178.0940  142.2390 C   0  0  2  0  0  3  0  0  0  0  0  0
  184.1150  178.3300  144.5030 C   0  0  0  0  0  2  0  0  0  0  0  0
  185.2650  179.7270  146.0230 O   0  0  0  0  0  0  0  0  0  0  0  0
  185.2270  178.6460  145.4560 C   0  0  0  0  0  0  0  0  0  0  0  0
  186.2630  177.6090  145.7470 C   0  0  0  0  0  2  0  0  0  0  0  0
  187.5620  178.1330  145.4880 O   0  0  0  0  0  0  0  0  0  0  0  0
  191.1450  176.3820  146.8210 C   0  0  0  0  0  0  0  0  0  0  0  0
  190.9890  176.7200  145.4780 C   0  0  0  0  0  3  0  0  0  0  0  0
  192.4260  175.7910  147.2930 C   0  0  0  0  0  1  0  0  0  0  0  0
  189.7860  177.2620  145.0130 C   0  0  0  0  0  0  0  0  0  0  0  0
  188.9060  177.1650  147.2750 C   0  0  0  0  0  3  0  0  0  0  0  0
  190.1010  176.6000  147.7190 C   0  0  0  0  0  3  0  0  0  0  0  0
  188.7370  177.5110  145.9240 C   0  0  0  0  0  0  0  0  0  0  0  0
  188.8790  176.9330  142.6570 C   0  0  0  0  0  0  0  0  0  0  0  0
  189.6860  177.6080  143.6230 N   0  0  0  0  0  2  0  0  0  0  0  0
  188.4030  175.7910  142.9000 O   0  0  0  0  0  0  0  0  0  0  0  0
  189.8810  177.5120  140.6050 O   0  0  0  0  0  1  0  0  0  0  0  0
  188.6790  177.5430  141.3150 C   0  0  0  0  0  2  0  0  0  0  0  0
  184.2930  179.0310  140.1250 O   0  0  0  0  0  0  0  0  0  0  0  0
  183.9140  178.1560  137.8700 N   0  0  0  0  0  2  0  0  0  0  0  0
  183.5810  179.0660  138.9230 C   0  0  0  0  0  0  0  0  0  0  0  0
  182.6600  179.9100  138.7490 O   0  0  0  0  0  0  0  0  0  0  0  0
  185.0270  177.2260  137.9860 C   0  0  0  0  0  2  0  0  0  0  0  0
  188.3710  174.3510  136.6530 C   0  0  1  0  0  0  0  0  0  0  0  0
  188.4180  177.1640  137.3670 C   0  0  0  0  0  0  0  0  0  0  0  0
  187.2620  176.6190  137.0120 C   0  0  0  0  0  0  0  0  0  0  0  0
  187.1130  175.2030  136.5090 C   0  0  1  0  0  3  0  0  0  0  0  0
  188.1560  178.5410  137.7080 C   0  0  0  0  0  0  0  0  0  0  0  0
  189.7440  176.5330  137.1250 C   0  0  0  0  0  2  0  0  0  0  0  0
  188.0430  174.9360  135.3370 C   0  0  2  0  0  3  0  0  0  0  0  0
  186.1580  177.6470  137.0550 C   0  0  2  0  0  3  0  0  0  0  0  0
  186.8080  178.8100  137.5630 O   0  0  0  0  0  0  0  0  0  0  0  0
  189.6540  175.0020  137.2220 C   0  0  0  0  0  2  0  0  0  0  0  0
  188.6390  173.5910  135.4240 N   0  0  0  0  0  2  0  0  0  0  0  0
  189.0130  179.3770  138.1070 O   0  0  0  0  0  0  0  0  0  0  0  0
  1  6  1  1  0  0  0
  2  1  1  0  0  0  0
  3  1  1  0  0  0  0
  4 23  1  6  0  0  0
  4  3  1  0  0  0  0
  4  5  1  0  0  0  0
  5  2  1  6  0  0  0
  5  1  1  0  0  0  0
  6  8  1  0  0  0  0
  8  9  1  0  0  0  0
  8  7  2  0  0  0  0
 10  9  1  0  0  0  0
 10 17  1  0  0  0  0
 11 13  1  0  0  0  0
 11 16  1  0  0  0  0
 12 11  2  0  0  0  0
 14 12  1  0  0  0  0
 14 17  2  0  0  0  0
 15 16  2  0  0  0  0
 17 15  1  0  0  0  0
 18 20  2  0  0  0  0
 18 19  1  0  0  0  0
 19 14  1  0  0  0  0
 21 22  1  0  0  0  0
 22 18  1  0  0  0  0
 24 27  1  0  0  0  0
 24 25  1  0  0  0  0
 25 23  1  0  0  0  0
 26 25  2  0  0  0  0
 28 37  1  1  0  0  0
 29 32  1  0  0  0  0
 30 35  1  0  0  0  0
 30 29  2  0  0  0  0
 31 28  1  0  0  0  0
 31 30  1  1  0  0  0
 32 39  2  0  0  0  0
 33 37  1  0  0  0  0
 33 29  1  0  0  0  0
 34 38  1  6  0  0  0
 34 31  1  0  0  0  0
 34 28  1  0  0  0  0
 35 36  1  0  0  0  0
 35 27  1  1  0  0  0
 36 32  1  0  0  0  0
 38 28  1  0  0  0  0
M  END
>  <MODEL>
8

>  <REMARK>
 VINA RESULT:      -7.9      2.801      7.376
  Name = 
  11 active torsions:
  status: ('A' for Active; 'I' for Inactive)
    1  A    between atoms: C_1  and  C_5
    2  A    between atoms: C_5  and  C_26
    3  A    between atoms: C_6  and  C_37
    4  A    between atoms: C_14  and  N_22
    5  A    between atoms: O_17  and  C_19
    6  A    between atoms: O_17  and  C_34
    7  A    between atoms: N_18  and  C_24
    8  A    between atoms: C_21  and  C_24
    9  A    between atoms: C_26  and  C_33
   10  A    between atoms: C_32  and  O_39
   11  A    between atoms: C_33  and  O_39
                            x       y       z     vdW  Elec       q    Type
                         _______ _______ _______ _____ _____    ______ ____

>  <TORSDO>
F 11

$$$$
=
 OpenBabel11062417403D

 39 45  0  0  1  0  0  0  0  0999 V2000
  184.3260  178.7220  144.1500 C   0  0  1  0  0  0  0  0  0  0  0  0
  182.8300  178.5410  144.3470 C   0  0  0  0  0  2  0  0  0  0  0  0
  184.9140  178.2520  142.8330 C   0  0  0  0  0  2  0  0  0  0  0  0
  183.8700  179.0430  142.0720 C   0  0  2  0  0  3  0  0  0  0  0  0
  183.3310  179.5970  143.3840 C   0  0  2  0  0  3  0  0  0  0  0  0
  185.1340  179.6700  145.0260 C   0  0  0  0  0  2  0  0  0  0  0  0
  185.6860  179.3640  147.3040 O   0  0  0  0  0  0  0  0  0  0  0  0
  185.7750  178.9350  146.1630 C   0  0  0  0  0  0  0  0  0  0  0  0
  186.4820  177.6460  145.9000 C   0  0  0  0  0  2  0  0  0  0  0  0
  187.7820  177.9000  145.3780 O   0  0  0  0  0  0  0  0  0  0  0  0
  191.3250  176.3820  147.0590 C   0  0  0  0  0  0  0  0  0  0  0  0
  191.2800  176.7150  145.7060 C   0  0  0  0  0  3  0  0  0  0  0  0
  192.5900  175.8740  147.6550 C   0  0  0  0  0  1  0  0  0  0  0  0
  190.0950  177.1790  145.1250 C   0  0  0  0  0  0  0  0  0  0  0  0
  189.0050  177.0150  147.2890 C   0  0  0  0  0  3  0  0  0  0  0  0
  190.1860  176.5270  147.8500 C   0  0  0  0  0  3  0  0  0  0  0  0
  188.9470  177.3550  145.9280 C   0  0  0  0  0  0  0  0  0  0  0  0
  189.9970  176.5990  142.6470 C   0  0  0  0  0  0  0  0  0  0  0  0
  190.1090  177.5230  143.7310 N   0  0  0  0  0  2  0  0  0  0  0  0
  190.1620  175.3630  142.8350 O   0  0  0  0  0  0  0  0  0  0  0  0
  190.5590  176.3800  140.3700 O   0  0  0  0  0  1  0  0  0  0  0  0
  189.7790  177.1110  141.2680 C   0  0  0  0  0  2  0  0  0  0  0  0
  182.9270  178.1580  141.4850 O   0  0  0  0  0  0  0  0  0  0  0  0
  182.4040  179.0070  139.2490 N   0  0  0  0  0  2  0  0  0  0  0  0
  181.9820  178.5910  140.5510 C   0  0  0  0  0  0  0  0  0  0  0  0
  180.7590  178.6410  140.8550 O   0  0  0  0  0  0  0  0  0  0  0  0
  183.8110  179.0560  138.8810 C   0  0  0  0  0  2  0  0  0  0  0  0
  187.9760  178.3220  137.0520 C   0  0  1  0  0  0  0  0  0  0  0  0
  185.3560  177.2820  136.3600 C   0  0  0  0  0  0  0  0  0  0  0  0
  185.5390  177.7820  137.5740 C   0  0  0  0  0  0  0  0  0  0  0  0
  186.8730  178.2510  138.1050 C   0  0  1  0  0  3  0  0  0  0  0  0
  183.9740  176.8800  136.2650 C   0  0  0  0  0  0  0  0  0  0  0  0
  186.4630  176.9230  135.4320 C   0  0  0  0  0  2  0  0  0  0  0  0
  187.9290  177.1670  137.9690 C   0  0  2  0  0  3  0  0  0  0  0  0
  184.2670  177.6900  138.3810 C   0  0  2  0  0  3  0  0  0  0  0  0
  183.3220  177.1640  137.4510 O   0  0  0  0  0  0  0  0  0  0  0  0
  187.6600  177.8710  135.6060 C   0  0  0  0  0  2  0  0  0  0  0  0
  189.2240  177.7310  137.5520 N   0  0  0  0  0  2  0  0  0  0  0  0
  183.4210  176.3720  135.2510 O   0  0  0  0  0  0  0  0  0  0  0  0
  1  2  1  0  0  0  0
  1  6  1  1  0  0  0
  3  1  1  0  0  0  0
  4 23  1  1  0  0  0
  4  3  1  0  0  0  0
  4  5  1  0  0  0  0
  5  1  1  0  0  0  0
  5  2  1  1  0  0  0
  6  8  1  0  0  0  0
  8  7  2  0  0  0  0
  9  8  1  0  0  0  0
 10  9  1  0  0  0  0
 10 17  1  0  0  0  0
 11 13  1  0  0  0  0
 11 16  1  0  0  0  0
 12 11  2  0  0  0  0
 14 12  1  0  0  0  0
 14 17  2  0  0  0  0
 15 16  2  0  0  0  0
 17 15  1  0  0  0  0
 18 20  2  0  0  0  0
 18 19  1  0  0  0  0
 19 14  1  0  0  0  0
 21 22  1  0  0  0  0
 22 18  1  0  0  0  0
 24 25  1  0  0  0  0
 25 26  2  0  0  0  0
 25 23  1  0  0  0  0
 27 24  1  0  0  0  0
 28 37  1  6  0  0  0
 28 38  1  0  0  0  0
 28 34  1  0  0  0  0
 28 31  1  0  0  0  0
 29 30  2  0  0  0  0
 30 35  1  0  0  0  0
 31 30  1  6  0  0  0
 32 29  1  0  0  0  0
 32 36  1  0  0  0  0
 33 37  1  0  0  0  0
 33 29  1  0  0  0  0
 34 38  1  1  0  0  0
 34 31  1  0  0  0  0
 35 27  1  6  0  0  0
 36 35  1  0  0  0  0
 39 32  2  0  0  0  0
M  END
>  <MODEL>
9

>  <REMARK>
 VINA RESULT:      -7.8      2.812      6.651
  Name = 
  11 active torsions:
  status: ('A' for Active; 'I' for Inactive)
    1  A    between atoms: C_1  and  C_5
    2  A    between atoms: C_5  and  C_26
    3  A    between atoms: C_6  and  C_37
    4  A    between atoms: C_14  and  N_22
    5  A    between atoms: O_17  and  C_19
    6  A    between atoms: O_17  and  C_34
    7  A    between atoms: N_18  and  C_24
    8  A    between atoms: C_21  and  C_24
    9  A    between atoms: C_26  and  C_33
   10  A    between atoms: C_32  and  O_39
   11  A    between atoms: C_33  and  O_39
                            x       y       z     vdW  Elec       q    Type
                         _______ _______ _______ _____ _____    ______ ____

>  <TORSDO>
F 11

$$$$
