=
 OpenBabel11062415023D

 31 36  0  0  1  0  0  0  0  0999 V2000
  189.3880  178.5100  143.8750 C   0  0  1  0  0  3  0  0  0  0  0  0
  191.9170  177.7160  142.9170 N   0  0  0  0  0  2  0  0  0  0  0  0
  190.6980  177.4180  142.1640 C   0  0  1  0  0  0  0  0  0  0  0  0
  190.7310  178.9230  144.5040 C   0  0  0  0  0  2  0  0  0  0  0  0
  190.8640  176.7600  140.8000 C   0  0  1  0  0  3  0  0  0  0  0  0
  190.4240  175.9410  142.0240 C   0  0  0  0  0  2  0  0  0  0  0  0
  191.7840  178.9940  143.4910 N   0  0  0  0  0  2  0  0  0  0  0  0
  189.5090  178.2370  142.4350 N   0  0  0  0  0  2  0  0  0  0  0  0
  186.5750  177.7620  144.0420 C   0  0  0  0  0  2  0  0  0  0  0  0
  188.4710  177.5920  146.0680 C   0  0  0  0  0  0  0  0  0  0  0  0
  187.1530  177.8860  146.4720 C   0  0  0  0  0  0  0  0  0  0  0  0
  186.0290  177.8330  145.4680 C   0  0  1  0  0  3  0  0  0  0  0  0
  186.8810  178.0990  147.8300 C   0  0  0  0  0  3  0  0  0  0  0  0
  188.7590  177.3130  144.6150 C   0  0  1  0  0  3  0  0  0  0  0  0
  189.5020  177.5580  147.0130 C   0  0  0  0  0  3  0  0  0  0  0  0
  187.6100  176.8070  143.9520 O   0  0  0  0  0  0  0  0  0  0  0  0
  185.1270  179.0470  145.5850 C   0  0  0  0  0  1  0  0  0  0  0  0
  187.9150  178.0640  148.7690 C   0  0  0  0  0  3  0  0  0  0  0  0
  189.2240  177.7990  148.3610 C   0  0  0  0  0  3  0  0  0  0  0  0
  188.4430  176.3880  137.7820 C   0  0  0  0  0  2  0  0  0  0  0  0
  189.7970  176.4190  138.4850 C   0  0  0  0  0  2  0  0  0  0  0  0
  189.7340  177.0700  139.8430 C   0  0  0  0  0  0  0  0  0  0  0  0
  187.5470  178.1900  139.2780 C   0  0  0  0  0  2  0  0  0  0  0  0
  188.7280  177.9130  140.1700 C   0  0  0  0  0  3  0  0  0  0  0  0
  187.8060  177.7840  137.8270 C   0  0  2  0  0  3  0  0  0  0  0  0
  184.0930  175.6950  135.9250 N   0  0  0  0  0  1  0  0  0  0  0  0
  185.4170  178.1860  137.8950 C   0  0  0  0  0  2  0  0  0  0  0  0
  184.9330  176.2150  136.9880 C   0  0  2  0  0  3  0  0  0  0  0  0
  184.3440  177.3540  137.5400 O   0  0  0  0  0  0  0  0  0  0  0  0
  186.5670  177.8980  137.0400 N   0  0  2  0  0  0  0  0  0  0  0  0
  186.2660  176.6240  136.4290 C   0  0  0  0  0  2  0  0  0  0  0  0
  1  4  1  1  0  0  0
  1 14  1  0  0  0  0
  2  7  1  0  0  0  0
  3  6  1  1  0  0  0
  3  8  1  0  0  0  0
  3  2  1  0  0  0  0
  5 22  1  6  0  0  0
  5  6  1  0  0  0  0
  5  3  1  0  0  0  0
  7  4  1  0  0  0  0
  8  1  1  0  0  0  0
  9 12  1  0  0  0  0
 10 11  2  0  0  0  0
 10 15  1  0  0  0  0
 11 13  1  0  0  0  0
 12 17  1  6  0  0  0
 12 11  1  0  0  0  0
 13 18  2  0  0  0  0
 14 16  1  6  0  0  0
 14 10  1  0  0  0  0
 15 19  2  0  0  0  0
 16  9  1  0  0  0  0
 19 18  1  0  0  0  0
 20 21  1  0  0  0  0
 21 22  1  0  0  0  0
 22 24  2  0  0  0  0
 23 24  1  0  0  0  0
 25 20  1  1  0  0  0
 25 23  1  0  0  0  0
 28 26  1  6  0  0  0
 28 29  1  0  0  0  0
 29 27  1  0  0  0  0
 30 31  1  1  0  0  0
 30 25  1  0  0  0  0
 30 27  1  0  0  0  0
 31 28  1  0  0  0  0
M  END
>  <MODEL>
1

>  <REMARK>
 VINA RESULT:      -9.7      0.000      0.000
  Name = 
  3 active torsions:
  status: ('A' for Active; 'I' for Inactive)
    1  A    between atoms: C_5  and  C_15
    2  A    between atoms: C_7  and  C_25
    3  A    between atoms: N_26  and  C_31
                            x       y       z     vdW  Elec       q    Type
                         _______ _______ _______ _____ _____    ______ ____

>  <TORSDO>
F 3

$$$$
=
 OpenBabel11062415023D

 31 36  0  0  1  0  0  0  0  0999 V2000
  189.2480  178.4840  143.4530 C   0  0  1  0  0  3  0  0  0  0  0  0
  192.0530  178.2120  143.4000 N   0  0  0  0  0  2  0  0  0  0  0  0
  191.2140  177.5610  142.3930 C   0  0  1  0  0  0  0  0  0  0  0  0
  190.2200  179.2630  144.3580 C   0  0  0  0  0  2  0  0  0  0  0  0
  191.9230  176.8250  141.2650 C   0  0  1  0  0  3  0  0  0  0  0  0
  191.2870  176.0550  142.4320 C   0  0  0  0  0  2  0  0  0  0  0  0
  191.5030  179.4750  143.6880 N   0  0  0  0  0  2  0  0  0  0  0  0
  189.8660  178.1020  142.1730 N   0  0  0  0  0  2  0  0  0  0  0  0
  186.4450  177.8010  143.8760 C   0  0  0  0  0  2  0  0  0  0  0  0
  188.5420  177.4380  145.6650 C   0  0  0  0  0  0  0  0  0  0  0  0
  187.2860  177.7370  146.2300 C   0  0  0  0  0  0  0  0  0  0  0  0
  186.0590  177.7860  145.3550 C   0  0  1  0  0  3  0  0  0  0  0  0
  187.1690  177.8610  147.6220 C   0  0  0  0  0  3  0  0  0  0  0  0
  188.6610  177.2540  144.1740 C   0  0  1  0  0  3  0  0  0  0  0  0
  189.6670  177.3090  146.4870 C   0  0  0  0  0  3  0  0  0  0  0  0
  187.4310  176.8280  143.6090 O   0  0  0  0  0  0  0  0  0  0  0  0
  185.2170  179.0120  145.6520 C   0  0  0  0  0  1  0  0  0  0  0  0
  188.2960  177.7320  148.4370 C   0  0  0  0  0  3  0  0  0  0  0  0
  189.5440  177.4610  147.8710 C   0  0  0  0  0  3  0  0  0  0  0  0
  191.0030  176.0350  137.5710 C   0  0  0  0  0  2  0  0  0  0  0  0
  191.8810  176.5540  138.7080 C   0  0  0  0  0  2  0  0  0  0  0  0
  191.1130  176.7610  139.9880 C   0  0  0  0  0  0  0  0  0  0  0  0
  188.9180  176.7820  138.7470 C   0  0  0  0  0  2  0  0  0  0  0  0
  189.7690  176.9130  139.9830 C   0  0  0  0  0  3  0  0  0  0  0  0
  189.7370  176.8980  137.4620 C   0  0  2  0  0  3  0  0  0  0  0  0
  185.7280  177.5130  135.1570 N   0  0  0  0  0  1  0  0  0  0  0  0
  189.1680  177.4830  135.1790 C   0  0  0  0  0  2  0  0  0  0  0  0
  187.0360  177.8660  135.6780 C   0  0  2  0  0  3  0  0  0  0  0  0
  187.9580  177.9320  134.6310 O   0  0  0  0  0  0  0  0  0  0  0  0
  188.8980  176.5780  136.2960 N   0  0  2  0  0  0  0  0  0  0  0  0
  187.5100  176.8020  136.6270 C   0  0  0  0  0  2  0  0  0  0  0  0
  1 14  1  0  0  0  0
  1  4  1  1  0  0  0
  2  7  1  0  0  0  0
  3  6  1  1  0  0  0
  3  2  1  0  0  0  0
  5 22  1  6  0  0  0
  5  3  1  0  0  0  0
  5  6  1  0  0  0  0
  7  4  1  0  0  0  0
  8  3  1  0  0  0  0
  8  1  1  0  0  0  0
  9 12  1  0  0  0  0
 10 11  2  0  0  0  0
 10 15  1  0  0  0  0
 11 13  1  0  0  0  0
 12 17  1  1  0  0  0
 12 11  1  0  0  0  0
 13 18  2  0  0  0  0
 14 16  1  6  0  0  0
 14 10  1  0  0  0  0
 15 19  2  0  0  0  0
 16  9  1  0  0  0  0
 19 18  1  0  0  0  0
 20 21  1  0  0  0  0
 21 22  1  0  0  0  0
 23 24  1  0  0  0  0
 24 22  2  0  0  0  0
 25 20  1  1  0  0  0
 25 23  1  0  0  0  0
 28 26  1  6  0  0  0
 28 31  1  0  0  0  0
 29 27  1  0  0  0  0
 29 28  1  0  0  0  0
 30 27  1  6  0  0  0
 30 31  1  0  0  0  0
 30 25  1  0  0  0  0
M  END
>  <MODEL>
2

>  <REMARK>
 VINA RESULT:      -8.5      1.459      1.787
  Name = 
  3 active torsions:
  status: ('A' for Active; 'I' for Inactive)
    1  A    between atoms: C_5  and  C_15
    2  A    between atoms: C_7  and  C_25
    3  A    between atoms: N_26  and  C_31
                            x       y       z     vdW  Elec       q    Type
                         _______ _______ _______ _____ _____    ______ ____

>  <TORSDO>
F 3

$$$$
=
 OpenBabel11062415023D

 31 36  0  0  1  0  0  0  0  0999 V2000
  186.6560  177.3410  145.1950 C   0  0  1  0  0  3  0  0  0  0  0  0
  184.6460  179.0200  146.2380 N   0  0  0  0  0  2  0  0  0  0  0  0
  184.8840  178.9350  144.7960 C   0  0  1  0  0  0  0  0  0  0  0  0
  186.2190  177.3710  146.6720 C   0  0  0  0  0  2  0  0  0  0  0  0
  183.9350  179.7040  143.8870 C   0  0  1  0  0  3  0  0  0  0  0  0
  185.3460  180.2340  144.1860 C   0  0  0  0  0  2  0  0  0  0  0  0
  184.8080  177.7360  146.7920 N   0  0  0  0  0  2  0  0  0  0  0  0
  185.5700  177.7400  144.2860 N   0  0  0  0  0  2  0  0  0  0  0  0
  188.5470  177.2020  142.9810 C   0  0  0  0  0  2  0  0  0  0  0  0
  189.1410  177.6580  145.6580 C   0  0  0  0  0  0  0  0  0  0  0  0
  190.1040  176.9410  144.9210 C   0  0  0  0  0  0  0  0  0  0  0  0
  189.9500  176.7900  143.4290 C   0  0  1  0  0  3  0  0  0  0  0  0
  191.2630  176.4840  145.5630 C   0  0  0  0  0  3  0  0  0  0  0  0
  187.9180  178.1950  144.9590 C   0  0  1  0  0  3  0  0  0  0  0  0
  189.3250  177.8720  147.0280 C   0  0  0  0  0  3  0  0  0  0  0  0
  188.1710  178.4210  143.5820 O   0  0  0  0  0  0  0  0  0  0  0  0
  190.2020  175.3590  142.9890 C   0  0  0  0  0  1  0  0  0  0  0  0
  191.4400  176.7000  146.9320 C   0  0  0  0  0  3  0  0  0  0  0  0
  190.4710  177.3890  147.6650 C   0  0  0  0  0  3  0  0  0  0  0  0
  182.2530  178.2860  140.6820 C   0  0  0  0  0  2  0  0  0  0  0  0
  182.4810  178.4410  142.1830 C   0  0  0  0  0  2  0  0  0  0  0  0
  183.7990  179.0940  142.5080 C   0  0  0  0  0  0  0  0  0  0  0  0
  184.6990  178.5750  140.2110 C   0  0  0  0  0  2  0  0  0  0  0  0
  184.8160  179.1030  141.6160 C   0  0  0  0  0  3  0  0  0  0  0  0
  183.4930  177.6530  140.0340 C   0  0  2  0  0  3  0  0  0  0  0  0
  185.4340  176.6500  135.9120 N   0  0  0  0  0  1  0  0  0  0  0  0
  183.2050  175.8730  138.4150 C   0  0  0  0  0  2  0  0  0  0  0  0
  185.0410  176.4280  137.2920 C   0  0  2  0  0  3  0  0  0  0  0  0
  184.0200  175.4770  137.3430 O   0  0  0  0  0  0  0  0  0  0  0  0
  183.3160  177.3170  138.6120 N   0  0  2  0  0  0  0  0  0  0  0  0
  184.4990  177.7010  137.8770 C   0  0  0  0  0  2  0  0  0  0  0  0
  1  4  1  1  0  0  0
  2  7  1  0  0  0  0
  3  6  1  6  0  0  0
  3  2  1  0  0  0  0
  4  7  1  0  0  0  0
  5 22  1  6  0  0  0
  5  6  1  0  0  0  0
  5  3  1  0  0  0  0
  8  3  1  0  0  0  0
  8  1  1  0  0  0  0
  9 12  1  0  0  0  0
  9 16  1  0  0  0  0
 10 15  1  0  0  0  0
 11 13  1  0  0  0  0
 11 10  2  0  0  0  0
 12 17  1  1  0  0  0
 12 11  1  0  0  0  0
 13 18  2  0  0  0  0
 14 16  1  6  0  0  0
 14  1  1  0  0  0  0
 14 10  1  0  0  0  0
 15 19  2  0  0  0  0
 18 19  1  0  0  0  0
 20 21  1  0  0  0  0
 21 22  1  0  0  0  0
 23 24  1  0  0  0  0
 24 22  2  0  0  0  0
 25 23  1  6  0  0  0
 25 20  1  0  0  0  0
 27 30  1  0  0  0  0
 28 26  1  6  0  0  0
 28 29  1  0  0  0  0
 28 31  1  0  0  0  0
 29 27  1  0  0  0  0
 30 31  1  6  0  0  0
 30 25  1  0  0  0  0
M  END
>  <MODEL>
3

>  <REMARK>
 VINA RESULT:      -8.4      2.740      4.868
  Name = 
  3 active torsions:
  status: ('A' for Active; 'I' for Inactive)
    1  A    between atoms: C_5  and  C_15
    2  A    between atoms: C_7  and  C_25
    3  A    between atoms: N_26  and  C_31
                            x       y       z     vdW  Elec       q    Type
                         _______ _______ _______ _____ _____    ______ ____

>  <TORSDO>
F 3

$$$$
=
 OpenBabel11062415023D

 31 36  0  0  1  0  0  0  0  0999 V2000
  188.5480  176.8820  143.6110 C   0  0  1  0  0  3  0  0  0  0  0  0
  186.6450  178.2770  142.0680 N   0  0  0  0  0  2  0  0  0  0  0  0
  187.9800  177.9880  141.5390 C   0  0  1  0  0  0  0  0  0  0  0  0
  187.0740  177.0820  144.0100 C   0  0  0  0  0  2  0  0  0  0  0  0
  188.2550  178.3780  140.0930 C   0  0  1  0  0  3  0  0  0  0  0  0
  188.7940  179.2260  141.2560 C   0  0  0  0  0  2  0  0  0  0  0  0
  186.2190  177.1710  142.8270 N   0  0  0  0  0  2  0  0  0  0  0  0
  188.7340  176.8870  142.1520 N   0  0  0  0  0  2  0  0  0  0  0  0
  191.3850  176.6480  144.2410 C   0  0  0  0  0  2  0  0  0  0  0  0
  189.4230  177.8580  145.7960 C   0  0  0  0  0  0  0  0  0  0  0  0
  190.4680  177.2230  146.4960 C   0  0  0  0  0  0  0  0  0  0  0  0
  191.6600  176.6860  145.7450 C   0  0  1  0  0  3  0  0  0  0  0  0
  190.4490  177.2100  147.8970 C   0  0  0  0  0  3  0  0  0  0  0  0
  189.4660  177.9180  144.2900 C   0  0  1  0  0  3  0  0  0  0  0  0
  188.3570  178.4310  146.4970 C   0  0  0  0  0  3  0  0  0  0  0  0
  190.8000  177.8580  143.8120 O   0  0  0  0  0  0  0  0  0  0  0  0
  192.0230  175.2880  146.2100 C   0  0  0  0  0  1  0  0  0  0  0  0
  189.3810  177.7830  148.5930 C   0  0  0  0  0  3  0  0  0  0  0  0
  188.3340  178.3890  147.8940 C   0  0  0  0  0  3  0  0  0  0  0  0
  189.9950  176.1580  137.4170 C   0  0  0  0  0  2  0  0  0  0  0  0
  188.8510  176.6110  138.3220 C   0  0  0  0  0  2  0  0  0  0  0  0
  189.3120  177.5190  139.4320 C   0  0  0  0  0  0  0  0  0  0  0  0
  191.6990  176.7570  139.1560 C   0  0  0  0  0  2  0  0  0  0  0  0
  190.6040  177.5370  139.8330 C   0  0  0  0  0  3  0  0  0  0  0  0
  191.1540  175.6320  138.2750 C   0  0  2  0  0  3  0  0  0  0  0  0
  194.0990  175.9140  134.6670 N   0  0  0  0  0  1  0  0  0  0  0  0
  193.5540  175.4010  138.0260 C   0  0  0  0  0  2  0  0  0  0  0  0
  193.5470  176.2440  135.9690 C   0  0  2  0  0  3  0  0  0  0  0  0
  194.4000  175.7830  136.9730 O   0  0  0  0  0  0  0  0  0  0  0  0
  192.2450  175.0260  137.4950 N   0  0  2  0  0  0  0  0  0  0  0  0
  192.2250  175.5540  136.1500 C   0  0  0  0  0  2  0  0  0  0  0  0
  1  4  1  6  0  0  0
  1 14  1  0  0  0  0
  2  7  1  0  0  0  0
  3  6  1  1  0  0  0
  3  2  1  0  0  0  0
  3  8  1  0  0  0  0
  5 22  1  1  0  0  0
  5  6  1  0  0  0  0
  5  3  1  0  0  0  0
  7  4  1  0  0  0  0
  8  1  1  0  0  0  0
  9 12  1  0  0  0  0
 10 11  2  0  0  0  0
 10 15  1  0  0  0  0
 11 13  1  0  0  0  0
 12 17  1  1  0  0  0
 12 11  1  0  0  0  0
 13 18  2  0  0  0  0
 14 16  1  6  0  0  0
 14 10  1  0  0  0  0
 15 19  2  0  0  0  0
 16  9  1  0  0  0  0
 19 18  1  0  0  0  0
 20 21  1  0  0  0  0
 21 22  1  0  0  0  0
 22 24  2  0  0  0  0
 23 24  1  0  0  0  0
 25 20  1  6  0  0  0
 25 23  1  0  0  0  0
 28 26  1  6  0  0  0
 28 31  1  0  0  0  0
 28 29  1  0  0  0  0
 29 27  1  0  0  0  0
 30 31  1  6  0  0  0
 30 27  1  0  0  0  0
 30 25  1  0  0  0  0
M  END
>  <MODEL>
4

>  <REMARK>
 VINA RESULT:      -8.3      3.259      4.945
  Name = 
  3 active torsions:
  status: ('A' for Active; 'I' for Inactive)
    1  A    between atoms: C_5  and  C_15
    2  A    between atoms: C_7  and  C_25
    3  A    between atoms: N_26  and  C_31
                            x       y       z     vdW  Elec       q    Type
                         _______ _______ _______ _____ _____    ______ ____

>  <TORSDO>
F 3

$$$$
=
 OpenBabel11062415023D

 31 36  0  0  1  0  0  0  0  0999 V2000
  189.2860  178.3900  143.7030 C   0  0  1  0  0  3  0  0  0  0  0  0
  191.8730  178.2200  142.5960 N   0  0  0  0  0  2  0  0  0  0  0  0
  190.7080  177.7100  141.8710 C   0  0  1  0  0  0  0  0  0  0  0  0
  190.5420  179.0460  144.3070 C   0  0  0  0  0  2  0  0  0  0  0  0
  190.9400  177.1850  140.4610 C   0  0  1  0  0  3  0  0  0  0  0  0
  190.7490  176.2200  141.6410 C   0  0  0  0  0  2  0  0  0  0  0  0
  191.5000  179.4030  143.2610 N   0  0  0  0  0  2  0  0  0  0  0  0
  189.3870  178.2350  142.2430 N   0  0  0  0  0  2  0  0  0  0  0  0
  187.4180  177.8570  145.8770 C   0  0  0  0  0  2  0  0  0  0  0  0
  189.9170  176.6980  145.5000 C   0  0  0  0  0  0  0  0  0  0  0  0
  189.5150  176.8900  146.8370 C   0  0  0  0  0  0  0  0  0  0  0  0
  188.1140  177.3560  147.1430 C   0  0  1  0  0  3  0  0  0  0  0  0
  190.3830  176.5250  147.8750 C   0  0  0  0  0  3  0  0  0  0  0  0
  188.9670  177.0430  144.3810 C   0  0  1  0  0  3  0  0  0  0  0  0
  191.1880  176.1860  145.2170 C   0  0  0  0  0  3  0  0  0  0  0  0
  187.6170  176.9570  144.8100 O   0  0  0  0  0  0  0  0  0  0  0  0
  188.1140  178.4690  148.1740 C   0  0  0  0  0  1  0  0  0  0  0  0
  191.6510  176.0150  147.5870 C   0  0  0  0  0  3  0  0  0  0  0  0
  192.0550  175.8500  146.2590 C   0  0  0  0  0  3  0  0  0  0  0  0
  188.2770  176.2350  137.7920 C   0  0  0  0  0  2  0  0  0  0  0  0
  189.6860  176.4140  138.3520 C   0  0  0  0  0  2  0  0  0  0  0  0
  189.7210  177.2990  139.5710 C   0  0  0  0  0  0  0  0  0  0  0  0
  187.4590  178.2640  139.0170 C   0  0  0  0  0  2  0  0  0  0  0  0
  188.7210  178.1720  139.8320 C   0  0  0  0  0  3  0  0  0  0  0  0
  187.6030  177.6060  137.6440 C   0  0  2  0  0  3  0  0  0  0  0  0
  183.8850  175.1040  136.3470 N   0  0  0  0  0  1  0  0  0  0  0  0
  185.2070  177.8850  137.8830 C   0  0  0  0  0  2  0  0  0  0  0  0
  184.7770  175.7940  137.2610 C   0  0  2  0  0  3  0  0  0  0  0  0
  184.1640  176.9590  137.7280 O   0  0  0  0  0  0  0  0  0  0  0  0
  186.2970  177.5570  136.9660 N   0  0  2  0  0  0  0  0  0  0  0  0
  186.0280  176.2030  136.5390 C   0  0  0  0  0  2  0  0  0  0  0  0
  1  4  1  1  0  0  0
  1 14  1  0  0  0  0
  2  7  1  0  0  0  0
  3  6  1  1  0  0  0
  3  8  1  0  0  0  0
  3  2  1  0  0  0  0
  5 22  1  6  0  0  0
  5  6  1  0  0  0  0
  5  3  1  0  0  0  0
  7  4  1  0  0  0  0
  8  1  1  0  0  0  0
  9 12  1  0  0  0  0
 10 11  1  0  0  0  0
 11 12  1  0  0  0  0
 11 13  2  0  0  0  0
 12 17  1  1  0  0  0
 14 16  1  1  0  0  0
 14 10  1  0  0  0  0
 15 10  2  0  0  0  0
 15 19  1  0  0  0  0
 16  9  1  0  0  0  0
 18 13  1  0  0  0  0
 19 18  2  0  0  0  0
 20 21  1  0  0  0  0
 21 22  1  0  0  0  0
 22 24  2  0  0  0  0
 23 24  1  0  0  0  0
 25 20  1  1  0  0  0
 25 23  1  0  0  0  0
 28 26  1  6  0  0  0
 28 29  1  0  0  0  0
 29 27  1  0  0  0  0
 30 31  1  1  0  0  0
 30 25  1  0  0  0  0
 30 27  1  0  0  0  0
 31 28  1  0  0  0  0
M  END
>  <MODEL>
5

>  <REMARK>
 VINA RESULT:      -8.2      1.101      1.802
  Name = 
  3 active torsions:
  status: ('A' for Active; 'I' for Inactive)
    1  A    between atoms: C_5  and  C_15
    2  A    between atoms: C_7  and  C_25
    3  A    between atoms: N_26  and  C_31
                            x       y       z     vdW  Elec       q    Type
                         _______ _______ _______ _____ _____    ______ ____

>  <TORSDO>
F 3

$$$$
=
 OpenBabel11062415023D

 31 36  0  0  1  0  0  0  0  0999 V2000
  183.7360  177.9190  141.9710 C   0  0  1  0  0  3  0  0  0  0  0  0
  181.9770  179.2320  140.2010 N   0  0  0  0  0  2  0  0  0  0  0  0
  183.2840  178.7520  139.7480 C   0  0  1  0  0  0  0  0  0  0  0  0
  182.2840  178.3050  142.3060 C   0  0  0  0  0  2  0  0  0  0  0  0
  183.6030  178.8980  138.2660 C   0  0  1  0  0  3  0  0  0  0  0  0
  184.2080  179.8580  139.3020 C   0  0  0  0  0  2  0  0  0  0  0  0
  181.4480  178.2920  141.1060 N   0  0  0  0  0  2  0  0  0  0  0  0
  183.9320  177.6910  140.5300 N   0  0  0  0  0  2  0  0  0  0  0  0
  186.6410  177.9310  141.7190 C   0  0  0  0  0  2  0  0  0  0  0  0
  185.1530  178.7070  143.9350 C   0  0  0  0  0  0  0  0  0  0  0  0
  186.4020  178.1120  144.2020 C   0  0  0  0  0  0  0  0  0  0  0  0
  187.3500  177.8110  143.0680 C   0  0  1  0  0  3  0  0  0  0  0  0
  186.8040  177.9210  145.5310 C   0  0  0  0  0  3  0  0  0  0  0  0
  184.7390  178.9590  142.5080 C   0  0  1  0  0  3  0  0  0  0  0  0
  184.3080  179.0640  144.9920 C   0  0  0  0  0  3  0  0  0  0  0  0
  185.8700  179.1110  141.6640 O   0  0  0  0  0  0  0  0  0  0  0  0
  187.9340  176.4160  143.1900 C   0  0  0  0  0  1  0  0  0  0  0  0
  185.9560  178.2790  146.5820 C   0  0  0  0  0  3  0  0  0  0  0  0
  184.7070  178.8450  146.3130 C   0  0  0  0  0  3  0  0  0  0  0  0
  184.9460  175.7500  136.4220 C   0  0  0  0  0  2  0  0  0  0  0  0
  184.0080  176.5350  137.3360 C   0  0  0  0  0  2  0  0  0  0  0  0
  184.5830  177.8620  137.7590 C   0  0  0  0  0  0  0  0  0  0  0  0
  186.9150  177.1230  137.1490 C   0  0  0  0  0  2  0  0  0  0  0  0
  185.9150  178.0960  137.7140 C   0  0  0  0  0  3  0  0  0  0  0  0
  186.3510  175.7060  137.0400 C   0  0  2  0  0  3  0  0  0  0  0  0
  190.7030  174.1020  136.5390 N   0  0  0  0  0  1  0  0  0  0  0  0
  187.3340  173.4960  136.8860 C   0  0  0  0  0  2  0  0  0  0  0  0
  189.4030  174.2610  137.1640 C   0  0  2  0  0  3  0  0  0  0  0  0
  188.6670  173.0820  137.0280 O   0  0  0  0  0  0  0  0  0  0  0  0
  187.2940  174.8400  136.3130 N   0  0  2  0  0  0  0  0  0  0  0  0
  188.6360  175.3510  136.4720 C   0  0  0  0  0  2  0  0  0  0  0  0
  1  4  1  6  0  0  0
  1 14  1  0  0  0  0
  2  7  1  0  0  0  0
  3  6  1  1  0  0  0
  3  2  1  0  0  0  0
  3  8  1  0  0  0  0
  5 22  1  1  0  0  0
  5  6  1  0  0  0  0
  5  3  1  0  0  0  0
  7  4  1  0  0  0  0
  8  1  1  0  0  0  0
  9 12  1  0  0  0  0
 10 11  2  0  0  0  0
 10 15  1  0  0  0  0
 11 13  1  0  0  0  0
 12 17  1  1  0  0  0
 12 11  1  0  0  0  0
 13 18  2  0  0  0  0
 14 16  1  6  0  0  0
 14 10  1  0  0  0  0
 15 19  2  0  0  0  0
 16  9  1  0  0  0  0
 19 18  1  0  0  0  0
 20 21  1  0  0  0  0
 21 22  1  0  0  0  0
 23 24  1  0  0  0  0
 24 22  2  0  0  0  0
 25 20  1  6  0  0  0
 25 23  1  0  0  0  0
 27 29  1  0  0  0  0
 28 26  1  6  0  0  0
 29 28  1  0  0  0  0
 30 31  1  1  0  0  0
 30 27  1  0  0  0  0
 30 25  1  0  0  0  0
 31 28  1  0  0  0  0
M  END
>  <MODEL>
6

>  <REMARK>
 VINA RESULT:      -8.1      3.381      5.630
  Name = 
  3 active torsions:
  status: ('A' for Active; 'I' for Inactive)
    1  A    between atoms: C_5  and  C_15
    2  A    between atoms: C_7  and  C_25
    3  A    between atoms: N_26  and  C_31
                            x       y       z     vdW  Elec       q    Type
                         _______ _______ _______ _____ _____    ______ ____

>  <TORSDO>
F 3

$$$$
=
 OpenBabel11062415023D

 31 36  0  0  1  0  0  0  0  0999 V2000
  188.1920  177.0750  143.3540 C   0  0  1  0  0  3  0  0  0  0  0  0
  186.4350  178.7650  141.9400 N   0  0  0  0  0  2  0  0  0  0  0  0
  187.6630  178.2670  141.3200 C   0  0  1  0  0  0  0  0  0  0  0  0
  186.8030  177.5090  143.8560 C   0  0  0  0  0  2  0  0  0  0  0  0
  187.8940  178.6130  139.8550 C   0  0  1  0  0  3  0  0  0  0  0  0
  188.6450  179.3580  140.9700 C   0  0  0  0  0  2  0  0  0  0  0  0
  185.8900  177.7390  142.7360 N   0  0  0  0  0  2  0  0  0  0  0  0
  188.2720  177.0550  141.8850 N   0  0  0  0  0  2  0  0  0  0  0  0
  191.0750  176.6530  143.2380 C   0  0  0  0  0  2  0  0  0  0  0  0
  189.6130  177.6160  145.3980 C   0  0  0  0  0  0  0  0  0  0  0  0
  190.7450  176.8370  145.7100 C   0  0  0  0  0  0  0  0  0  0  0  0
  191.6910  176.4120  144.6160 C   0  0  1  0  0  3  0  0  0  0  0  0
  191.0490  176.5720  147.0520 C   0  0  0  0  0  3  0  0  0  0  0  0
  189.3120  177.9460  143.9580 C   0  0  1  0  0  3  0  0  0  0  0  0
  188.7810  178.0830  146.4210 C   0  0  0  0  0  3  0  0  0  0  0  0
  190.4920  177.9360  143.1710 O   0  0  0  0  0  0  0  0  0  0  0  0
  192.0540  174.9440  144.7380 C   0  0  0  0  0  1  0  0  0  0  0  0
  190.2140  177.0400  148.0700 C   0  0  0  0  0  3  0  0  0  0  0  0
  189.0780  177.7900  147.7540 C   0  0  0  0  0  3  0  0  0  0  0  0
  190.9270  176.3220  139.0370 C   0  0  0  0  0  2  0  0  0  0  0  0
  190.2270  177.6260  139.4140 C   0  0  0  0  0  2  0  0  0  0  0  0
  188.7490  177.5980  139.1270 C   0  0  0  0  0  0  0  0  0  0  0  0
  189.0240  175.6520  137.5480 C   0  0  0  0  0  2  0  0  0  0  0  0
  188.2240  176.7250  138.2370 C   0  0  0  0  0  3  0  0  0  0  0  0
  190.5280  175.9160  137.6110 C   0  0  2  0  0  3  0  0  0  0  0  0
  190.5620  172.0780  134.9590 N   0  0  0  0  0  1  0  0  0  0  0  0
  191.9790  175.0820  135.8580 C   0  0  0  0  0  2  0  0  0  0  0  0
  190.5410  173.5000  135.2490 C   0  0  2  0  0  3  0  0  0  0  0  0
  191.7700  174.0690  134.9100 O   0  0  0  0  0  0  0  0  0  0  0  0
  191.2700  174.7550  137.0940 N   0  0  2  0  0  0  0  0  0  0  0  0
  190.3360  173.7160  136.7210 C   0  0  0  0  0  2  0  0  0  0  0  0
  1  4  1  6  0  0  0
  1 14  1  0  0  0  0
  2  7  1  0  0  0  0
  3  6  1  1  0  0  0
  3  8  1  0  0  0  0
  3  2  1  0  0  0  0
  5 22  1  6  0  0  0
  5  6  1  0  0  0  0
  5  3  1  0  0  0  0
  7  4  1  0  0  0  0
  8  1  1  0  0  0  0
  9 12  1  0  0  0  0
 10 11  2  0  0  0  0
 10 15  1  0  0  0  0
 11 13  1  0  0  0  0
 12 17  1  1  0  0  0
 12 11  1  0  0  0  0
 13 18  2  0  0  0  0
 14 16  1  6  0  0  0
 14 10  1  0  0  0  0
 15 19  2  0  0  0  0
 16  9  1  0  0  0  0
 19 18  1  0  0  0  0
 20 21  1  0  0  0  0
 22 21  1  0  0  0  0
 23 24  1  0  0  0  0
 24 22  2  0  0  0  0
 25 23  1  1  0  0  0
 25 20  1  0  0  0  0
 28 26  1  1  0  0  0
 28 31  1  0  0  0  0
 29 28  1  0  0  0  0
 29 27  1  0  0  0  0
 30 27  1  6  0  0  0
 30 25  1  0  0  0  0
 31 30  1  0  0  0  0
M  END
>  <MODEL>
7

>  <REMARK>
 VINA RESULT:      -7.9      3.033      4.533
  Name = 
  3 active torsions:
  status: ('A' for Active; 'I' for Inactive)
    1  A    between atoms: C_5  and  C_15
    2  A    between atoms: C_7  and  C_25
    3  A    between atoms: N_26  and  C_31
                            x       y       z     vdW  Elec       q    Type
                         _______ _______ _______ _____ _____    ______ ____

>  <TORSDO>
F 3

$$$$
=
 OpenBabel11062415023D

 31 36  0  0  1  0  0  0  0  0999 V2000
  186.8960  176.4870  137.2160 C   0  0  1  0  0  3  0  0  0  0  0  0
  189.5810  177.0140  136.5390 N   0  0  0  0  0  2  0  0  0  0  0  0
  189.0600  177.3460  137.8650 C   0  0  1  0  0  0  0  0  0  0  0  0
  187.5780  176.0220  135.9160 C   0  0  0  0  0  2  0  0  0  0  0  0
  190.0500  177.8860  138.8880 C   0  0  1  0  0  3  0  0  0  0  0  0
  189.0730  178.8250  138.1630 C   0  0  0  0  0  2  0  0  0  0  0  0
  189.0080  175.7960  136.1280 N   0  0  0  0  0  2  0  0  0  0  0  0
  187.8540  176.6410  138.3220 N   0  0  0  0  0  2  0  0  0  0  0  0
  185.2670  177.9430  139.1460 C   0  0  0  0  0  2  0  0  0  0  0  0
  184.7020  177.5340  136.4550 C   0  0  0  0  0  0  0  0  0  0  0  0
  183.5940  177.5840  137.3230 C   0  0  0  0  0  0  0  0  0  0  0  0
  183.7860  177.9670  138.7690 C   0  0  1  0  0  3  0  0  0  0  0  0
  182.3040  177.4010  136.8040 C   0  0  0  0  0  3  0  0  0  0  0  0
  186.0860  177.7800  137.0010 C   0  0  1  0  0  3  0  0  0  0  0  0
  184.5160  177.2620  135.0960 C   0  0  0  0  0  3  0  0  0  0  0  0
  186.0420  178.5940  138.1630 O   0  0  0  0  0  0  0  0  0  0  0  0
  183.0320  177.0300  139.6940 C   0  0  0  0  0  1  0  0  0  0  0  0
  182.1240  177.1280  135.4460 C   0  0  0  0  0  3  0  0  0  0  0  0
  183.2280  177.0540  134.5940 C   0  0  0  0  0  3  0  0  0  0  0  0
  187.8870  177.7590  142.1160 C   0  0  0  0  0  2  0  0  0  0  0  0
  188.5270  178.4110  140.8920 C   0  0  0  0  0  2  0  0  0  0  0  0
  189.6540  177.5920  140.3190 C   0  0  0  0  0  0  0  0  0  0  0  0
  189.8870  176.2870  142.4640 C   0  0  0  0  0  2  0  0  0  0  0  0
  190.2960  176.6630  141.0650 C   0  0  0  0  0  3  0  0  0  0  0  0
  188.9800  177.3370  143.1070 C   0  0  2  0  0  3  0  0  0  0  0  0
  189.0770  177.4930  147.7690 N   0  0  0  0  0  1  0  0  0  0  0  0
  187.2950  177.6060  144.8280 C   0  0  0  0  0  2  0  0  0  0  0  0
  188.8020  177.9620  146.4230 C   0  0  2  0  0  3  0  0  0  0  0  0
  187.4260  177.9330  146.1860 O   0  0  0  0  0  0  0  0  0  0  0  0
  188.4600  176.8390  144.3910 N   0  0  2  0  0  0  0  0  0  0  0  0
  189.4490  177.0470  145.4230 C   0  0  0  0  0  2  0  0  0  0  0  0
  1  4  1  6  0  0  0
  1  8  1  0  0  0  0
  2  3  1  0  0  0  0
  3  6  1  6  0  0  0
  3  8  1  0  0  0  0
  3  5  1  0  0  0  0
  4  7  1  0  0  0  0
  5 22  1  1  0  0  0
  6  5  1  0  0  0  0
  7  2  1  0  0  0  0
 10 11  1  0  0  0  0
 11 12  1  0  0  0  0
 12  9  1  0  0  0  0
 12 17  1  1  0  0  0
 13 11  2  0  0  0  0
 14 10  1  1  0  0  0
 14  1  1  0  0  0  0
 14 16  1  0  0  0  0
 15 10  2  0  0  0  0
 16  9  1  0  0  0  0
 18 13  1  0  0  0  0
 19 15  1  0  0  0  0
 19 18  2  0  0  0  0
 21 20  1  0  0  0  0
 22 21  1  0  0  0  0
 22 24  2  0  0  0  0
 23 25  1  0  0  0  0
 24 23  1  0  0  0  0
 25 20  1  6  0  0  0
 25 30  1  0  0  0  0
 27 29  1  0  0  0  0
 28 26  1  1  0  0  0
 29 28  1  0  0  0  0
 30 27  1  1  0  0  0
 30 31  1  0  0  0  0
 31 28  1  0  0  0  0
M  END
>  <MODEL>
8

>  <REMARK>
 VINA RESULT:      -7.8      2.194      8.351
  Name = 
  3 active torsions:
  status: ('A' for Active; 'I' for Inactive)
    1  A    between atoms: C_5  and  C_15
    2  A    between atoms: C_7  and  C_25
    3  A    between atoms: N_26  and  C_31
                            x       y       z     vdW  Elec       q    Type
                         _______ _______ _______ _____ _____    ______ ____

>  <TORSDO>
F 3

$$$$
=
 OpenBabel11062415023D

 31 36  0  0  1  0  0  0  0  0999 V2000
  187.0200  177.3980  142.9690 C   0  0  1  0  0  3  0  0  0  0  0  0
  186.0230  178.3450  145.4300 N   0  0  0  0  0  2  0  0  0  0  0  0
  185.3140  178.6100  144.1770 C   0  0  1  0  0  0  0  0  0  0  0  0
  187.5980  177.0280  144.3470 C   0  0  0  0  0  2  0  0  0  0  0  0
  183.9710  179.3210  144.2750 C   0  0  1  0  0  3  0  0  0  0  0  0
  185.2340  180.0760  143.8310 C   0  0  0  0  0  2  0  0  0  0  0  0
  186.5550  177.0430  145.3730 N   0  0  0  0  0  2  0  0  0  0  0  0
  185.5870  177.7260  143.0360 N   0  0  0  0  0  2  0  0  0  0  0  0
  187.0360  178.2020  140.1660 C   0  0  0  0  0  2  0  0  0  0  0  0
  189.2110  178.1320  141.8970 C   0  0  0  0  0  0  0  0  0  0  0  0
  189.4810  177.8380  140.5460 C   0  0  0  0  0  0  0  0  0  0  0  0
  188.4030  178.0130  139.5070 C   0  0  1  0  0  3  0  0  0  0  0  0
  190.7880  177.5070  140.1620 C   0  0  0  0  0  3  0  0  0  0  0  0
  187.8170  178.5380  142.3050 C   0  0  1  0  0  3  0  0  0  0  0  0
  190.2330  178.0520  142.8490 C   0  0  0  0  0  3  0  0  0  0  0  0
  187.1180  179.1330  141.2230 O   0  0  0  0  0  0  0  0  0  0  0  0
  188.3330  176.8180  138.5750 C   0  0  0  0  0  1  0  0  0  0  0  0
  191.8040  177.4270  141.1170 C   0  0  0  0  0  3  0  0  0  0  0  0
  191.5260  177.6950  142.4600 C   0  0  0  0  0  3  0  0  0  0  0  0
  182.7700  178.0940  140.7870 C   0  0  0  0  0  2  0  0  0  0  0  0
  183.6490  178.8720  141.7630 C   0  0  0  0  0  2  0  0  0  0  0  0
  183.0330  178.9910  143.1330 C   0  0  0  0  0  0  0  0  0  0  0  0
  180.7470  178.4380  142.2270 C   0  0  0  0  0  2  0  0  0  0  0  0
  181.7020  178.8390  143.3190 C   0  0  0  0  0  3  0  0  0  0  0  0
  181.3370  178.6430  140.8320 C   0  0  2  0  0  3  0  0  0  0  0  0
  180.0250  174.9210  138.3450 N   0  0  0  0  0  1  0  0  0  0  0  0
  179.2160  177.5490  140.4130 C   0  0  0  0  0  2  0  0  0  0  0  0
  180.1770  175.7520  139.5260 C   0  0  2  0  0  3  0  0  0  0  0  0
  178.9360  176.2750  139.8960 O   0  0  0  0  0  0  0  0  0  0  0  0
  180.4460  178.0650  139.8140 N   0  0  2  0  0  0  0  0  0  0  0  0
  181.0800  176.9110  139.2190 C   0  0  0  0  0  2  0  0  0  0  0  0
  1  8  1  0  0  0  0
  1  4  1  1  0  0  0
  3  6  1  6  0  0  0
  3  5  1  0  0  0  0
  3  2  1  0  0  0  0
  4  7  1  0  0  0  0
  5 22  1  6  0  0  0
  6  5  1  0  0  0  0
  7  2  1  0  0  0  0
  8  3  1  0  0  0  0
  9 16  1  0  0  0  0
 10 14  1  0  0  0  0
 10 15  1  0  0  0  0
 11 10  2  0  0  0  0
 12 17  1  6  0  0  0
 12  9  1  0  0  0  0
 12 11  1  0  0  0  0
 13 11  1  0  0  0  0
 13 18  2  0  0  0  0
 14 16  1  6  0  0  0
 14  1  1  0  0  0  0
 18 19  1  0  0  0  0
 19 15  2  0  0  0  0
 20 21  1  0  0  0  0
 21 22  1  0  0  0  0
 22 24  2  0  0  0  0
 23 24  1  0  0  0  0
 25 20  1  1  0  0  0
 25 23  1  0  0  0  0
 28 26  1  6  0  0  0
 28 29  1  0  0  0  0
 29 27  1  0  0  0  0
 30 31  1  1  0  0  0
 30 27  1  0  0  0  0
 30 25  1  0  0  0  0
 31 28  1  0  0  0  0
M  END
>  <MODEL>
9

>  <REMARK>
 VINA RESULT:      -7.8      3.585      6.239
  Name = 
  3 active torsions:
  status: ('A' for Active; 'I' for Inactive)
    1  A    between atoms: C_5  and  C_15
    2  A    between atoms: C_7  and  C_25
    3  A    between atoms: N_26  and  C_31
                            x       y       z     vdW  Elec       q    Type
                         _______ _______ _______ _____ _____    ______ ____

>  <TORSDO>
F 3

$$$$
