=
 OpenBabel11062415443D

 27 31  0  0  1  0  0  0  0  0999 V2000
  190.6030  178.1260  142.9050 C   0  0  1  0  0  3  0  0  0  0  0  0
  190.6920  176.4360  141.2530 N   0  0  0  0  0  0  0  0  0  0  0  0
  188.6280  177.5600  144.0910 C   0  0  1  0  0  3  0  0  0  0  0  0
  189.4520  177.5440  142.8610 C   0  0  2  0  0  3  0  0  0  0  0  0
  191.0470  178.8270  144.4740 S   0  0  0  0  0  0  0  0  0  0  0  0
  189.5630  178.0320  145.2120 C   0  0  2  0  0  3  0  0  0  0  0  0
  191.5140  177.4550  141.9340 C   0  0  0  0  0  2  0  0  0  0  0  0
  189.4460  176.5140  141.8980 N   0  0  0  0  0  2  0  0  0  0  0  0
  187.4750  178.5370  143.9140 C   0  0  0  0  0  2  0  0  0  0  0  0
  186.3210  177.8940  143.1590 C   0  0  1  0  0  3  0  0  0  0  0  0
  185.0960  177.9900  143.9320 N   0  0  0  0  0  0  0  0  0  0  0  0
  184.2850  178.9340  141.9200 C   0  0  0  0  0  2  0  0  0  0  0  0
  182.8270  178.6230  143.9940 N   0  0  0  0  0  2  0  0  0  0  0  0
  186.0630  178.7700  141.5820 S   0  0  0  0  0  0  0  0  0  0  0  0
  184.0820  178.4980  143.3240 C   0  0  0  0  0  0  0  0  0  0  0  0
  181.6550  179.1920  143.3480 C   0  0  0  0  0  2  0  0  0  0  0  0
  180.3960  178.7030  144.0380 C   0  0  0  0  0  2  0  0  0  0  0  0
  179.7190  177.8070  143.2100 O   0  0  0  0  0  1  0  0  0  0  0  0
  189.9720  176.8400  146.0640 C   0  0  0  0  0  2  0  0  0  0  0  0
  191.4840  176.7490  146.1800 C   0  0  0  0  0  2  0  0  0  0  0  0
  191.8760  176.8680  147.5140 O   0  0  0  0  0  1  0  0  0  0  0  0
  190.4910  176.8840  139.8830 C   0  0  0  0  0  2  0  0  0  0  0  0
  189.0150  177.1530  139.6380 C   0  0  2  0  0  3  0  0  0  0  0  0
  188.7280  177.1440  138.1530 C   0  0  1  0  0  0  0  0  0  0  0  0
  188.8390  178.4660  138.9070 C   0  0  2  0  0  3  0  0  0  0  0  0
  189.2590  178.3780  137.4570 C   0  0  0  0  0  2  0  0  0  0  0  0
  187.3760  176.9400  137.8870 O   0  0  0  0  0  1  0  0  0  0  0  0
  1  7  1  1  0  0  0
  1  5  1  0  0  0  0
  2  8  1  0  0  0  0
  2  7  1  0  0  0  0
  3  9  1  6  0  0  0
  3  6  1  0  0  0  0
  4  8  1  1  0  0  0
  4  1  1  0  0  0  0
  4  3  1  0  0  0  0
  5  6  1  0  0  0  0
  6 19  1  6  0  0  0
 10  9  1  1  0  0  0
 10 11  1  0  0  0  0
 12 15  1  0  0  0  0
 14 12  1  0  0  0  0
 14 10  1  0  0  0  0
 15 11  2  0  0  0  0
 15 13  1  0  0  0  0
 16 13  1  0  0  0  0
 16 17  1  0  0  0  0
 18 17  1  0  0  0  0
 19 20  1  0  0  0  0
 20 21  1  0  0  0  0
 22  2  1  0  0  0  0
 23 22  1  6  0  0  0
 24 27  1  6  0  0  0
 24 25  1  0  0  0  0
 24 23  1  0  0  0  0
 25 26  1  6  0  0  0
 25 23  1  0  0  0  0
 26 24  1  0  0  0  0
M  END
>  <MODEL>
1

>  <REMARK>
 VINA RESULT:      -6.7      0.000      0.000
  Name = 
  8 active torsions:
  status: ('A' for Active; 'I' for Inactive)
    1  A    between atoms: C_2  and  C_7
    2  A    between atoms: C_4  and  C_11
    3  A    between atoms: C_4  and  N_16
    4  A    between atoms: N_5  and  C_21
    5  A    between atoms: C_6  and  C_7
    6  A    between atoms: C_10  and  C_21
    7  A    between atoms: C_13  and  C_19
    8  A    between atoms: C_18  and  C_19
                            x       y       z     vdW  Elec       q    Type
                         _______ _______ _______ _____ _____    ______ ____

>  <TORSDO>
F 8

$$$$
=
 OpenBabel11062415443D

 27 31  0  0  1  0  0  0  0  0999 V2000
  189.3250  178.1320  139.3670 C   0  0  1  0  0  3  0  0  0  0  0  0
  188.8230  177.4070  141.5610 N   0  0  0  0  0  0  0  0  0  0  0  0
  190.6090  176.3240  138.5260 C   0  0  1  0  0  3  0  0  0  0  0  0
  190.0990  177.1390  139.6510 C   0  0  2  0  0  3  0  0  0  0  0  0
  188.9460  178.3380  137.6460 S   0  0  0  0  0  0  0  0  0  0  0  0
  189.7800  176.7360  137.3030 C   0  0  2  0  0  3  0  0  0  0  0  0
  188.4090  178.3670  140.5200 C   0  0  0  0  0  2  0  0  0  0  0  0
  189.8390  176.6540  140.9490 N   0  0  0  0  0  2  0  0  0  0  0  0
  192.0810  176.6360  138.3000 C   0  0  0  0  0  2  0  0  0  0  0  0
  192.5770  176.0340  136.9940 C   0  0  1  0  0  3  0  0  0  0  0  0
  193.9610  176.4050  136.7600 N   0  0  0  0  0  0  0  0  0  0  0  0
  194.2090  174.0650  136.5190 C   0  0  0  0  0  2  0  0  0  0  0  0
  196.1530  175.7000  136.2610 N   0  0  0  0  0  2  0  0  0  0  0  0
  192.4910  174.2160  137.0910 S   0  0  0  0  0  0  0  0  0  0  0  0
  194.7730  175.4380  136.5180 C   0  0  0  0  0  0  0  0  0  0  0  0
  197.1080  174.6390  135.9850 C   0  0  0  0  0  2  0  0  0  0  0  0
  197.9190  174.3370  137.2300 C   0  0  0  0  0  2  0  0  0  0  0  0
  198.0430  175.4890  138.0060 O   0  0  0  0  0  1  0  0  0  0  0  0
  188.7490  175.6580  137.0040 C   0  0  0  0  0  2  0  0  0  0  0  0
  187.3620  176.2600  136.8530 C   0  0  0  0  0  2  0  0  0  0  0  0
  186.3870  175.2760  137.0160 O   0  0  0  0  0  1  0  0  0  0  0  0
  189.4450  178.1690  142.6330 C   0  0  0  0  0  2  0  0  0  0  0  0
  189.0870  177.5570  143.9780 C   0  0  2  0  0  3  0  0  0  0  0  0
  189.9600  178.1490  145.0630 C   0  0  1  0  0  0  0  0  0  0  0  0
  190.2540  176.7570  144.5130 C   0  0  2  0  0  3  0  0  0  0  0  0
  191.3820  177.6390  145.0000 C   0  0  0  0  0  2  0  0  0  0  0  0
  189.4020  177.9770  146.3280 O   0  0  0  0  0  1  0  0  0  0  0  0
  1  4  1  0  0  0  0
  1  7  1  1  0  0  0
  2 22  1  0  0  0  0
  3  9  1  6  0  0  0
  3  4  1  0  0  0  0
  4  8  1  1  0  0  0
  5  1  1  0  0  0  0
  6 19  1  1  0  0  0
  6  5  1  0  0  0  0
  6  3  1  0  0  0  0
  7  2  1  0  0  0  0
  8  2  1  0  0  0  0
 10 14  1  0  0  0  0
 10  9  1  1  0  0  0
 11 10  1  0  0  0  0
 12 14  1  0  0  0  0
 13 15  1  0  0  0  0
 15 12  1  0  0  0  0
 15 11  2  0  0  0  0
 16 13  1  0  0  0  0
 16 17  1  0  0  0  0
 17 18  1  0  0  0  0
 20 19  1  0  0  0  0
 20 21  1  0  0  0  0
 23 22  1  6  0  0  0
 23 25  1  0  0  0  0
 23 24  1  0  0  0  0
 24 27  1  1  0  0  0
 25 26  1  6  0  0  0
 25 24  1  0  0  0  0
 26 24  1  0  0  0  0
M  END
>  <MODEL>
2

>  <REMARK>
 VINA RESULT:      -6.3      4.540     10.101
  Name = 
  8 active torsions:
  status: ('A' for Active; 'I' for Inactive)
    1  A    between atoms: C_2  and  C_7
    2  A    between atoms: C_4  and  C_11
    3  A    between atoms: C_4  and  N_16
    4  A    between atoms: N_5  and  C_21
    5  A    between atoms: C_6  and  C_7
    6  A    between atoms: C_10  and  C_21
    7  A    between atoms: C_13  and  C_19
    8  A    between atoms: C_18  and  C_19
                            x       y       z     vdW  Elec       q    Type
                         _______ _______ _______ _____ _____    ______ ____

>  <TORSDO>
F 8

$$$$
=
 OpenBabel11062415443D

 27 31  0  0  1  0  0  0  0  0999 V2000
  190.4870  175.5920  137.8380 C   0  0  1  0  0  3  0  0  0  0  0  0
  192.7540  175.6370  137.1680 N   0  0  0  0  0  0  0  0  0  0  0  0
  190.4410  177.2320  139.5520 C   0  0  1  0  0  3  0  0  0  0  0  0
  191.1610  176.2270  138.7380 C   0  0  2  0  0  3  0  0  0  0  0  0
  188.7840  176.0660  137.6820 S   0  0  0  0  0  0  0  0  0  0  0  0
  189.0960  177.4540  138.8470 C   0  0  2  0  0  3  0  0  0  0  0  0
  191.4120  175.2020  136.7360 C   0  0  0  0  0  2  0  0  0  0  0  0
  192.5250  176.2970  138.3880 N   0  0  0  0  0  2  0  0  0  0  0  0
  190.2220  176.6840  140.9540 C   0  0  0  0  0  2  0  0  0  0  0  0
  189.8560  177.7950  141.9280 C   0  0  1  0  0  3  0  0  0  0  0  0
  188.4430  177.7330  142.2570 N   0  0  0  0  0  0  0  0  0  0  0  0
  189.2890  177.7390  144.4650 C   0  0  0  0  0  2  0  0  0  0  0  0
  186.7920  177.6660  143.9370 N   0  0  0  0  0  2  0  0  0  0  0  0
  190.8020  177.5870  143.4700 S   0  0  0  0  0  0  0  0  0  0  0  0
  188.1540  177.7120  143.5100 C   0  0  0  0  0  0  0  0  0  0  0  0
  186.4190  177.6390  145.3420 C   0  0  0  0  0  2  0  0  0  0  0  0
  185.4510  178.7680  145.6410 C   0  0  0  0  0  2  0  0  0  0  0  0
  185.0680  178.7210  146.9820 O   0  0  0  0  0  1  0  0  0  0  0  0
  189.1320  178.7760  138.0950 C   0  0  0  0  0  2  0  0  0  0  0  0
  188.2540  178.7200  136.8570 C   0  0  0  0  0  2  0  0  0  0  0  0
  186.9470  179.0920  137.1730 O   0  0  0  0  0  1  0  0  0  0  0  0
  193.5240  174.4390  137.4710 C   0  0  0  0  0  2  0  0  0  0  0  0
  194.7720  174.8110  138.2550 C   0  0  2  0  0  3  0  0  0  0  0  0
  196.0030  174.3140  137.5300 C   0  0  1  0  0  0  0  0  0  0  0  0
  195.4700  173.5600  138.7450 C   0  0  2  0  0  3  0  0  0  0  0  0
  196.1630  172.8130  137.6280 C   0  0  0  0  0  2  0  0  0  0  0  0
  197.1520  174.9860  137.9410 O   0  0  0  0  0  1  0  0  0  0  0  0
  1  7  1  6  0  0  0
  1  4  1  0  0  0  0
  2 22  1  0  0  0  0
  2  8  1  0  0  0  0
  3  9  1  1  0  0  0
  4  8  1  6  0  0  0
  4  3  1  0  0  0  0
  5  1  1  0  0  0  0
  5  6  1  0  0  0  0
  6 19  1  6  0  0  0
  6  3  1  0  0  0  0
  7  2  1  0  0  0  0
 10  9  1  6  0  0  0
 10 11  1  0  0  0  0
 10 14  1  0  0  0  0
 11 15  2  0  0  0  0
 13 16  1  0  0  0  0
 14 12  1  0  0  0  0
 15 13  1  0  0  0  0
 15 12  1  0  0  0  0
 16 17  1  0  0  0  0
 17 18  1  0  0  0  0
 20 21  1  0  0  0  0
 20 19  1  0  0  0  0
 23 22  1  6  0  0  0
 23 25  1  0  0  0  0
 24 26  1  0  0  0  0
 24 27  1  1  0  0  0
 24 23  1  0  0  0  0
 24 25  1  0  0  0  0
 25 26  1  6  0  0  0
M  END
>  <MODEL>
3

>  <REMARK>
 VINA RESULT:      -6.2      4.027      6.584
  Name = 
  8 active torsions:
  status: ('A' for Active; 'I' for Inactive)
    1  A    between atoms: C_2  and  C_7
    2  A    between atoms: C_4  and  C_11
    3  A    between atoms: C_4  and  N_16
    4  A    between atoms: N_5  and  C_21
    5  A    between atoms: C_6  and  C_7
    6  A    between atoms: C_10  and  C_21
    7  A    between atoms: C_13  and  C_19
    8  A    between atoms: C_18  and  C_19
                            x       y       z     vdW  Elec       q    Type
                         _______ _______ _______ _____ _____    ______ ____

>  <TORSDO>
F 8

$$$$
=
 OpenBabel11062415443D

 27 31  0  0  1  0  0  0  0  0999 V2000
  188.2680  178.6510  140.4600 C   0  0  1  0  0  3  0  0  0  0  0  0
  186.6590  177.8860  142.0150 N   0  0  0  0  0  0  0  0  0  0  0  0
  190.1960  177.4200  141.0910 C   0  0  1  0  0  3  0  0  0  0  0  0
  188.8870  178.0340  141.4100 C   0  0  2  0  0  3  0  0  0  0  0  0
  189.0740  178.6260  138.8800 S   0  0  0  0  0  0  0  0  0  0  0  0
  190.3030  177.4400  139.5610 C   0  0  2  0  0  3  0  0  0  0  0  0
  186.8020  178.5750  140.7180 C   0  0  0  0  0  2  0  0  0  0  0  0
  187.9750  177.5420  142.3670 N   0  0  0  0  0  2  0  0  0  0  0  0
  191.3080  178.2510  141.7120 C   0  0  0  0  0  2  0  0  0  0  0  0
  191.6800  177.7290  143.0920 C   0  0  1  0  0  3  0  0  0  0  0  0
  190.9130  178.4160  144.1160 N   0  0  0  0  0  0  0  0  0  0  0  0
  190.3920  176.2000  144.7560 C   0  0  0  0  0  2  0  0  0  0  0  0
  189.5070  178.2470  145.9990 N   0  0  0  0  0  2  0  0  0  0  0  0
  191.2900  175.9520  143.1950 S   0  0  0  0  0  0  0  0  0  0  0  0
  190.2790  177.6670  144.9470 C   0  0  0  0  0  0  0  0  0  0  0  0
  188.7720  177.4400  146.9590 C   0  0  0  0  0  2  0  0  0  0  0  0
  189.0850  177.9020  148.3690 C   0  0  0  0  0  2  0  0  0  0  0  0
  187.8990  178.1620  149.0570 O   0  0  0  0  0  1  0  0  0  0  0  0
  190.0430  176.0420  139.0190 C   0  0  0  0  0  2  0  0  0  0  0  0
  191.2040  175.5690  138.1600 C   0  0  0  0  0  2  0  0  0  0  0  0
  191.9620  176.6570  137.7270 O   0  0  0  0  0  1  0  0  0  0  0  0
  186.2020  178.8710  142.9840 C   0  0  0  0  0  2  0  0  0  0  0  0
  185.0600  178.2970  143.8060 C   0  0  2  0  0  3  0  0  0  0  0  0
  184.7190  179.2360  144.9420 C   0  0  1  0  0  0  0  0  0  0  0  0
  185.5370  177.9740  145.2060 C   0  0  2  0  0  3  0  0  0  0  0  0
  185.7630  179.2170  146.0370 C   0  0  0  0  0  2  0  0  0  0  0  0
  183.4400  179.0020  145.4410 O   0  0  0  0  0  1  0  0  0  0  0  0
  1  7  1  6  0  0  0
  1  4  1  0  0  0  0
  2  8  1  0  0  0  0
  2 22  1  0  0  0  0
  3  4  1  0  0  0  0
  3  9  1  1  0  0  0
  4  8  1  6  0  0  0
  5  6  1  0  0  0  0
  5  1  1  0  0  0  0
  6 19  1  6  0  0  0
  6  3  1  0  0  0  0
  7  2  1  0  0  0  0
 10  9  1  6  0  0  0
 10 14  1  0  0  0  0
 10 11  1  0  0  0  0
 11 15  2  0  0  0  0
 12 15  1  0  0  0  0
 13 16  1  0  0  0  0
 14 12  1  0  0  0  0
 15 13  1  0  0  0  0
 16 17  1  0  0  0  0
 17 18  1  0  0  0  0
 20 19  1  0  0  0  0
 21 20  1  0  0  0  0
 23 22  1  6  0  0  0
 23 24  1  0  0  0  0
 23 25  1  0  0  0  0
 24 25  1  0  0  0  0
 24 27  1  1  0  0  0
 24 26  1  0  0  0  0
 25 26  1  6  0  0  0
M  END
>  <MODEL>
4

>  <REMARK>
 VINA RESULT:      -6.1      2.700      6.740
  Name = 
  8 active torsions:
  status: ('A' for Active; 'I' for Inactive)
    1  A    between atoms: C_2  and  C_7
    2  A    between atoms: C_4  and  C_11
    3  A    between atoms: C_4  and  N_16
    4  A    between atoms: N_5  and  C_21
    5  A    between atoms: C_6  and  C_7
    6  A    between atoms: C_10  and  C_21
    7  A    between atoms: C_13  and  C_19
    8  A    between atoms: C_18  and  C_19
                            x       y       z     vdW  Elec       q    Type
                         _______ _______ _______ _____ _____    ______ ____

>  <TORSDO>
F 8

$$$$
=
 OpenBabel11062415443D

 27 31  0  0  1  0  0  0  0  0999 V2000
  187.1870  177.4800  142.9140 C   0  0  1  0  0  3  0  0  0  0  0  0
  185.7010  179.1110  142.0650 N   0  0  0  0  0  0  0  0  0  0  0  0
  189.1680  177.9220  141.6870 C   0  0  1  0  0  3  0  0  0  0  0  0
  187.6950  177.9630  141.8310 C   0  0  2  0  0  3  0  0  0  0  0  0
  188.3570  176.8760  144.1040 S   0  0  0  0  0  0  0  0  0  0  0  0
  189.7130  177.5700  143.0760 C   0  0  2  0  0  3  0  0  0  0  0  0
  185.9070  178.1900  143.1980 C   0  0  0  0  0  2  0  0  0  0  0  0
  186.8560  178.9540  141.2800 N   0  0  0  0  0  2  0  0  0  0  0  0
  189.5470  176.8480  140.6790 C   0  0  0  0  0  2  0  0  0  0  0  0
  190.2500  177.4500  139.4710 C   0  0  1  0  0  3  0  0  0  0  0  0
  191.6600  177.1040  139.4820 N   0  0  0  0  0  0  0  0  0  0  0  0
  191.1630  176.3610  137.2920 C   0  0  0  0  0  2  0  0  0  0  0  0
  193.4980  176.2070  138.3120 N   0  0  0  0  0  2  0  0  0  0  0  0
  189.5180  176.7790  137.9440 S   0  0  0  0  0  0  0  0  0  0  0  0
  192.1210  176.5710  138.4060 C   0  0  0  0  0  0  0  0  0  0  0  0
  194.0620  175.6000  137.1170 C   0  0  0  0  0  2  0  0  0  0  0  0
  195.0490  174.5160  137.5040 C   0  0  0  0  0  2  0  0  0  0  0  0
  195.7560  174.9030  138.6430 O   0  0  0  0  0  1  0  0  0  0  0  0
  190.2810  178.8220  143.7280 C   0  0  0  0  0  2  0  0  0  0  0  0
  191.7060  178.5890  144.2020 C   0  0  0  0  0  2  0  0  0  0  0  0
  191.7340  177.5950  145.1800 O   0  0  0  0  0  1  0  0  0  0  0  0
  184.5840  178.5990  141.2850 C   0  0  0  0  0  2  0  0  0  0  0  0
  184.4470  179.3920  139.9950 C   0  0  2  0  0  3  0  0  0  0  0  0
  183.0450  179.2460  139.4460 C   0  0  1  0  0  0  0  0  0  0  0  0
  184.1980  178.4560  138.8320 C   0  0  2  0  0  3  0  0  0  0  0  0
  182.8000  177.8770  138.8490 C   0  0  0  0  0  2  0  0  0  0  0  0
  182.7300  180.2660  138.5510 O   0  0  0  0  0  1  0  0  0  0  0  0
  1  7  1  1  0  0  0
  1  5  1  0  0  0  0
  2  7  1  0  0  0  0
  3  9  1  6  0  0  0
  3  4  1  0  0  0  0
  3  6  1  0  0  0  0
  4  8  1  1  0  0  0
  4  1  1  0  0  0  0
  6 19  1  1  0  0  0
  6  5  1  0  0  0  0
  8  2  1  0  0  0  0
 10 11  1  0  0  0  0
 10  9  1  1  0  0  0
 12 14  1  0  0  0  0
 12 15  1  0  0  0  0
 13 15  1  0  0  0  0
 14 10  1  0  0  0  0
 15 11  2  0  0  0  0
 16 17  1  0  0  0  0
 16 13  1  0  0  0  0
 17 18  1  0  0  0  0
 19 20  1  0  0  0  0
 20 21  1  0  0  0  0
 22  2  1  0  0  0  0
 23 22  1  1  0  0  0
 24 27  1  6  0  0  0
 24 23  1  0  0  0  0
 25 26  1  1  0  0  0
 25 24  1  0  0  0  0
 25 23  1  0  0  0  0
 26 24  1  0  0  0  0
M  END
>  <MODEL>
5

>  <REMARK>
 VINA RESULT:      -6.1      3.365      7.626
  Name = 
  8 active torsions:
  status: ('A' for Active; 'I' for Inactive)
    1  A    between atoms: C_2  and  C_7
    2  A    between atoms: C_4  and  C_11
    3  A    between atoms: C_4  and  N_16
    4  A    between atoms: N_5  and  C_21
    5  A    between atoms: C_6  and  C_7
    6  A    between atoms: C_10  and  C_21
    7  A    between atoms: C_13  and  C_19
    8  A    between atoms: C_18  and  C_19
                            x       y       z     vdW  Elec       q    Type
                         _______ _______ _______ _____ _____    ______ ____

>  <TORSDO>
F 8

$$$$
=
 OpenBabel11062415443D

 27 31  0  0  1  0  0  0  0  0999 V2000
  190.2920  177.0750  141.9180 C   0  0  1  0  0  3  0  0  0  0  0  0
  191.4950  178.3610  143.4970 N   0  0  0  0  0  0  0  0  0  0  0  0
  188.3280  178.3710  141.6130 C   0  0  1  0  0  3  0  0  0  0  0  0
  189.4850  177.9430  142.4310 C   0  0  2  0  0  3  0  0  0  0  0  0
  189.9090  176.5590  140.2640 S   0  0  0  0  0  0  0  0  0  0  0  0
  188.6070  177.8550  140.1960 C   0  0  2  0  0  3  0  0  0  0  0  0
  191.6490  177.2850  142.4990 C   0  0  0  0  0  2  0  0  0  0  0  0
  190.1500  178.7510  143.3760 N   0  0  0  0  0  2  0  0  0  0  0  0
  187.0580  177.7440  142.1670 C   0  0  0  0  0  2  0  0  0  0  0  0
  186.0200  178.8060  142.4990 C   0  0  1  0  0  3  0  0  0  0  0  0
  184.9010  178.7240  141.5780 N   0  0  0  0  0  0  0  0  0  0  0  0
  183.6680  178.6290  143.5940 C   0  0  0  0  0  2  0  0  0  0  0  0
  182.5670  178.5720  141.2910 N   0  0  0  0  0  2  0  0  0  0  0  0
  185.3840  178.5290  144.1840 S   0  0  0  0  0  0  0  0  0  0  0  0
  183.7330  178.6430  142.1110 C   0  0  0  0  0  0  0  0  0  0  0  0
  181.2280  178.4780  141.8500 C   0  0  0  0  0  2  0  0  0  0  0  0
  180.4650  179.7600  141.5830 C   0  0  0  0  0  2  0  0  0  0  0  0
  180.2230  180.4280  142.7850 O   0  0  0  0  0  1  0  0  0  0  0  0
  189.0590  179.0110  139.3170 C   0  0  0  0  0  2  0  0  0  0  0  0
  189.0470  178.6160  137.8500 C   0  0  0  0  0  2  0  0  0  0  0  0
  188.1010  179.3670  137.1530 O   0  0  0  0  0  1  0  0  0  0  0  0
  191.6480  177.7590  144.8130 C   0  0  0  0  0  2  0  0  0  0  0  0
  190.3100  177.7500  145.5360 C   0  0  2  0  0  3  0  0  0  0  0  0
  190.5260  177.5350  147.0180 C   0  0  1  0  0  0  0  0  0  0  0  0
  190.0520  176.3840  146.1350 C   0  0  2  0  0  3  0  0  0  0  0  0
  190.9220  176.1110  147.3410 C   0  0  0  0  0  2  0  0  0  0  0  0
  189.4280  177.9510  147.7670 O   0  0  0  0  0  1  0  0  0  0  0  0
  1  4  1  0  0  0  0
  1  7  1  6  0  0  0
  2 22  1  0  0  0  0
  3  9  1  1  0  0  0
  3  4  1  0  0  0  0
  4  8  1  6  0  0  0
  5  1  1  0  0  0  0
  6 19  1  6  0  0  0
  6  5  1  0  0  0  0
  6  3  1  0  0  0  0
  7  2  1  0  0  0  0
  8  2  1  0  0  0  0
 10  9  1  6  0  0  0
 10 14  1  0  0  0  0
 11 15  2  0  0  0  0
 11 10  1  0  0  0  0
 12 14  1  0  0  0  0
 13 16  1  0  0  0  0
 13 15  1  0  0  0  0
 15 12  1  0  0  0  0
 17 16  1  0  0  0  0
 17 18  1  0  0  0  0
 20 19  1  0  0  0  0
 21 20  1  0  0  0  0
 23 22  1  6  0  0  0
 23 25  1  0  0  0  0
 23 24  1  0  0  0  0
 24 26  1  0  0  0  0
 24 27  1  1  0  0  0
 25 24  1  0  0  0  0
 25 26  1  6  0  0  0
M  END
>  <MODEL>
6

>  <REMARK>
 VINA RESULT:      -6.0      2.064      5.426
  Name = 
  8 active torsions:
  status: ('A' for Active; 'I' for Inactive)
    1  A    between atoms: C_2  and  C_7
    2  A    between atoms: C_4  and  C_11
    3  A    between atoms: C_4  and  N_16
    4  A    between atoms: N_5  and  C_21
    5  A    between atoms: C_6  and  C_7
    6  A    between atoms: C_10  and  C_21
    7  A    between atoms: C_13  and  C_19
    8  A    between atoms: C_18  and  C_19
                            x       y       z     vdW  Elec       q    Type
                         _______ _______ _______ _____ _____    ______ ____

>  <TORSDO>
F 8

$$$$
=
 OpenBabel11062415443D

 27 31  0  0  1  0  0  0  0  0999 V2000
  190.2670  177.9840  142.3900 C   0  0  1  0  0  3  0  0  0  0  0  0
  190.9960  176.5540  140.6540 N   0  0  0  0  0  0  0  0  0  0  0  0
  189.4460  176.4420  143.9950 C   0  0  1  0  0  3  0  0  0  0  0  0
  189.7710  176.8110  142.5990 C   0  0  2  0  0  3  0  0  0  0  0  0
  190.5330  178.9700  143.8410 S   0  0  0  0  0  0  0  0  0  0  0  0
  190.1110  177.5090  144.8730 C   0  0  2  0  0  3  0  0  0  0  0  0
  191.1300  177.9280  141.1750 C   0  0  0  0  0  2  0  0  0  0  0  0
  190.1810  175.9060  141.5980 N   0  0  0  0  0  2  0  0  0  0  0  0
  187.9370  176.4620  144.1860 C   0  0  0  0  0  2  0  0  0  0  0  0
  187.4450  177.8600  144.5300 C   0  0  1  0  0  3  0  0  0  0  0  0
  186.3640  178.2490  143.6430 N   0  0  0  0  0  0  0  0  0  0  0  0
  185.2680  178.6790  145.6940 C   0  0  0  0  0  2  0  0  0  0  0  0
  184.1690  179.0790  143.4240 N   0  0  0  0  0  2  0  0  0  0  0  0
  186.8060  177.8760  146.2360 S   0  0  0  0  0  0  0  0  0  0  0  0
  185.2860  178.6610  144.2100 C   0  0  0  0  0  0  0  0  0  0  0  0
  182.9310  179.5500  144.0220 C   0  0  0  0  0  2  0  0  0  0  0  0
  181.7440  179.0030  143.2520 C   0  0  0  0  0  2  0  0  0  0  0  0
  180.9120  180.0500  142.8560 O   0  0  0  0  0  1  0  0  0  0  0  0
  191.3670  176.9300  145.5070 C   0  0  0  0  0  2  0  0  0  0  0  0
  191.1620  176.6820  146.9920 C   0  0  0  0  0  2  0  0  0  0  0  0
  192.3440  176.2260  147.5750 O   0  0  0  0  0  1  0  0  0  0  0  0
  190.2360  176.6300  139.4150 C   0  0  0  0  0  2  0  0  0  0  0  0
  191.1850  176.7250  138.2310 C   0  0  2  0  0  3  0  0  0  0  0  0
  190.6140  175.9700  137.0510 C   0  0  1  0  0  0  0  0  0  0  0  0
  191.7310  175.3550  137.8910 C   0  0  2  0  0  3  0  0  0  0  0  0
  190.6950  174.4700  137.2340 C   0  0  0  0  0  2  0  0  0  0  0  0
  191.1880  176.3780  135.8490 O   0  0  0  0  0  1  0  0  0  0  0  0
  1  7  1  1  0  0  0
  1  4  1  0  0  0  0
  1  5  1  0  0  0  0
  2  7  1  0  0  0  0
  2  8  1  0  0  0  0
  3  9  1  6  0  0  0
  3  6  1  0  0  0  0
  4  8  1  1  0  0  0
  4  3  1  0  0  0  0
  5  6  1  0  0  0  0
  6 19  1  6  0  0  0
 10  9  1  6  0  0  0
 10 14  1  0  0  0  0
 11 15  2  0  0  0  0
 11 10  1  0  0  0  0
 12 14  1  0  0  0  0
 13 16  1  0  0  0  0
 13 15  1  0  0  0  0
 15 12  1  0  0  0  0
 17 16  1  0  0  0  0
 18 17  1  0  0  0  0
 19 20  1  0  0  0  0
 20 21  1  0  0  0  0
 22  2  1  0  0  0  0
 23 22  1  1  0  0  0
 24 27  1  6  0  0  0
 24 26  1  0  0  0  0
 24 25  1  0  0  0  0
 24 23  1  0  0  0  0
 25 26  1  1  0  0  0
 25 23  1  0  0  0  0
M  END
>  <MODEL>
7

>  <REMARK>
 VINA RESULT:      -5.9      1.959      2.301
  Name = 
  8 active torsions:
  status: ('A' for Active; 'I' for Inactive)
    1  A    between atoms: C_2  and  C_7
    2  A    between atoms: C_4  and  C_11
    3  A    between atoms: C_4  and  N_16
    4  A    between atoms: N_5  and  C_21
    5  A    between atoms: C_6  and  C_7
    6  A    between atoms: C_10  and  C_21
    7  A    between atoms: C_13  and  C_19
    8  A    between atoms: C_18  and  C_19
                            x       y       z     vdW  Elec       q    Type
                         _______ _______ _______ _____ _____    ______ ____

>  <TORSDO>
F 8

$$$$
=
 OpenBabel11062415443D

 27 31  0  0  1  0  0  0  0  0999 V2000
  185.5280  179.1100  144.6490 C   0  0  1  0  0  3  0  0  0  0  0  0
  185.8370  177.4670  146.3220 N   0  0  0  0  0  0  0  0  0  0  0  0
  186.1660  177.9460  142.6830 C   0  0  1  0  0  3  0  0  0  0  0  0
  186.2320  178.1510  144.1480 C   0  0  2  0  0  3  0  0  0  0  0  0
  184.5370  180.0180  143.4910 S   0  0  0  0  0  0  0  0  0  0  0  0
  184.9820  178.7900  142.1970 C   0  0  2  0  0  3  0  0  0  0  0  0
  185.1650  178.7520  146.0510 C   0  0  0  0  0  2  0  0  0  0  0  0
  186.4410  177.1310  145.0990 N   0  0  0  0  0  2  0  0  0  0  0  0
  187.4600  178.4300  142.0470 C   0  0  0  0  0  2  0  0  0  0  0  0
  188.5350  177.3540  142.0990 C   0  0  1  0  0  3  0  0  0  0  0  0
  189.0870  177.1270  140.7750 N   0  0  0  0  0  0  0  0  0  0  0  0
  191.1250  177.5010  141.9150 C   0  0  0  0  0  2  0  0  0  0  0  0
  191.0080  176.9680  139.4200 N   0  0  0  0  0  2  0  0  0  0  0  0
  189.8910  177.9010  143.1870 S   0  0  0  0  0  0  0  0  0  0  0  0
  190.3680  177.1900  140.6770 C   0  0  0  0  0  0  0  0  0  0  0  0
  192.4520  177.0320  139.2620 C   0  0  0  0  0  2  0  0  0  0  0  0
  192.8580  176.3770  137.9550 C   0  0  0  0  0  2  0  0  0  0  0  0
  194.1780  175.9340  138.0370 O   0  0  0  0  0  1  0  0  0  0  0  0
  183.7990  177.8780  141.9050 C   0  0  0  0  0  2  0  0  0  0  0  0
  182.6520  178.6590  141.2860 C   0  0  0  0  0  2  0  0  0  0  0  0
  181.5410  178.6400  142.1290 O   0  0  0  0  0  1  0  0  0  0  0  0
  186.9100  177.7280  147.2690 C   0  0  0  0  0  2  0  0  0  0  0  0
  188.2480  177.3590  146.6500 C   0  0  2  0  0  3  0  0  0  0  0  0
  189.2450  177.0230  147.7370 C   0  0  1  0  0  0  0  0  0  0  0  0
  189.2990  178.3770  147.0360 C   0  0  2  0  0  3  0  0  0  0  0  0
  189.7190  178.2510  148.4830 C   0  0  0  0  0  2  0  0  0  0  0  0
  190.3100  176.2700  147.2480 O   0  0  0  0  0  1  0  0  0  0  0  0
  1  7  1  1  0  0  0
  2 22  1  0  0  0  0
  3  9  1  6  0  0  0
  3  4  1  0  0  0  0
  4  1  1  0  0  0  0
  4  8  1  1  0  0  0
  5  1  1  0  0  0  0
  6 19  1  1  0  0  0
  6  3  1  0  0  0  0
  6  5  1  0  0  0  0
  7  2  1  0  0  0  0
  8  2  1  0  0  0  0
 10  9  1  6  0  0  0
 10 14  1  0  0  0  0
 11 10  1  0  0  0  0
 12 14  1  0  0  0  0
 13 15  1  0  0  0  0
 15 11  2  0  0  0  0
 15 12  1  0  0  0  0
 16 13  1  0  0  0  0
 17 18  1  0  0  0  0
 17 16  1  0  0  0  0
 20 19  1  0  0  0  0
 20 21  1  0  0  0  0
 23 25  1  0  0  0  0
 23 22  1  1  0  0  0
 23 24  1  0  0  0  0
 24 27  1  6  0  0  0
 24 26  1  0  0  0  0
 25 24  1  0  0  0  0
 25 26  1  1  0  0  0
M  END
>  <MODEL>
8

>  <REMARK>
 VINA RESULT:      -5.9      2.501      8.317
  Name = 
  8 active torsions:
  status: ('A' for Active; 'I' for Inactive)
    1  A    between atoms: C_2  and  C_7
    2  A    between atoms: C_4  and  C_11
    3  A    between atoms: C_4  and  N_16
    4  A    between atoms: N_5  and  C_21
    5  A    between atoms: C_6  and  C_7
    6  A    between atoms: C_10  and  C_21
    7  A    between atoms: C_13  and  C_19
    8  A    between atoms: C_18  and  C_19
                            x       y       z     vdW  Elec       q    Type
                         _______ _______ _______ _____ _____    ______ ____

>  <TORSDO>
F 8

$$$$
=
 OpenBabel11062415443D

 27 31  0  0  1  0  0  0  0  0999 V2000
  190.2420  177.0070  142.3360 C   0  0  1  0  0  3  0  0  0  0  0  0
  191.2840  178.3680  143.9650 N   0  0  0  0  0  0  0  0  0  0  0  0
  188.3880  178.3380  141.6860 C   0  0  1  0  0  3  0  0  0  0  0  0
  189.4120  177.9350  142.6770 C   0  0  2  0  0  3  0  0  0  0  0  0
  190.0530  176.3810  140.6860 S   0  0  0  0  0  0  0  0  0  0  0  0
  188.8250  177.7090  140.3570 C   0  0  2  0  0  3  0  0  0  0  0  0
  191.5210  177.2160  143.0740 C   0  0  0  0  0  2  0  0  0  0  0  0
  189.9830  178.7900  143.6420 N   0  0  0  0  0  2  0  0  0  0  0  0
  187.0320  177.7940  142.1110 C   0  0  0  0  0  2  0  0  0  0  0  0
  185.9610  178.8720  142.0400 C   0  0  1  0  0  3  0  0  0  0  0  0
  185.6340  179.1690  140.6570 N   0  0  0  0  0  0  0  0  0  0  0  0
  183.4370  178.7500  141.4260 C   0  0  0  0  0  2  0  0  0  0  0  0
  183.9610  179.4070  139.0150 N   0  0  0  0  0  2  0  0  0  0  0  0
  184.4470  178.2800  142.8620 S   0  0  0  0  0  0  0  0  0  0  0  0
  184.3870  179.1180  140.3470 C   0  0  0  0  0  0  0  0  0  0  0  0
  182.5630  179.3590  138.6180 C   0  0  0  0  0  2  0  0  0  0  0  0
  182.3440  178.2250  137.6340 C   0  0  0  0  0  2  0  0  0  0  0  0
  182.5880  177.0020  138.2590 O   0  0  0  0  0  1  0  0  0  0  0  0
  189.4330  178.7820  139.4670 C   0  0  0  0  0  2  0  0  0  0  0  0
  189.1990  178.4660  137.9990 C   0  0  0  0  0  2  0  0  0  0  0  0
  188.6550  179.5720  137.3460 O   0  0  0  0  0  1  0  0  0  0  0  0
  191.2420  177.8620  145.3290 C   0  0  0  0  0  2  0  0  0  0  0  0
  189.9390  177.1140  145.5620 C   0  0  2  0  0  3  0  0  0  0  0  0
  189.0520  177.9030  146.5000 C   0  0  1  0  0  0  0  0  0  0  0  0
  189.8320  176.6950  147.0130 C   0  0  2  0  0  3  0  0  0  0  0  0
  189.5470  177.8640  147.9290 C   0  0  0  0  0  2  0  0  0  0  0  0
  187.7190  177.5130  146.4030 O   0  0  0  0  0  1  0  0  0  0  0  0
  1  4  1  0  0  0  0
  1  7  1  6  0  0  0
  2 22  1  0  0  0  0
  3  9  1  1  0  0  0
  3  4  1  0  0  0  0
  4  8  1  6  0  0  0
  5  1  1  0  0  0  0
  6 19  1  6  0  0  0
  6  5  1  0  0  0  0
  6  3  1  0  0  0  0
  7  2  1  0  0  0  0
  8  2  1  0  0  0  0
 10  9  1  6  0  0  0
 10 14  1  0  0  0  0
 11 10  1  0  0  0  0
 12 14  1  0  0  0  0
 13 15  1  0  0  0  0
 15 11  2  0  0  0  0
 15 12  1  0  0  0  0
 16 13  1  0  0  0  0
 17 18  1  0  0  0  0
 17 16  1  0  0  0  0
 20 19  1  0  0  0  0
 21 20  1  0  0  0  0
 23 22  1  1  0  0  0
 23 24  1  0  0  0  0
 23 25  1  0  0  0  0
 24 27  1  6  0  0  0
 24 25  1  0  0  0  0
 24 26  1  0  0  0  0
 25 26  1  1  0  0  0
M  END
>  <MODEL>
9

>  <REMARK>
 VINA RESULT:      -5.9      2.703      5.680
  Name = 
  8 active torsions:
  status: ('A' for Active; 'I' for Inactive)
    1  A    between atoms: C_2  and  C_7
    2  A    between atoms: C_4  and  C_11
    3  A    between atoms: C_4  and  N_16
    4  A    between atoms: N_5  and  C_21
    5  A    between atoms: C_6  and  C_7
    6  A    between atoms: C_10  and  C_21
    7  A    between atoms: C_13  and  C_19
    8  A    between atoms: C_18  and  C_19
                            x       y       z     vdW  Elec       q    Type
                         _______ _______ _______ _____ _____    ______ ____

>  <TORSDO>
F 8

$$$$
