=
 OpenBabel11062413293D

 30 34  0  0  1  0  0  0  0  0999 V2000
  185.6480  178.8350  142.2720 C   0  0  0  0  0  0  0  0  0  0  0  0
  185.1270  179.2980  145.0520 C   0  0  0  0  0  2  0  0  0  0  0  0
  183.3000  179.1250  141.5290 C   0  0  2  0  0  3  0  0  0  0  0  0
  187.6110  177.9020  143.5260 C   0  0  2  0  0  3  0  0  0  0  0  0
  186.8720  178.4120  142.3280 C   0  0  0  0  0  0  0  0  0  0  0  0
  184.4080  179.0990  142.5630 C   0  0  0  0  0  0  0  0  0  0  0  0
  188.3120  177.0000  142.6560 C   0  0  1  0  0  3  0  0  0  0  0  0
  185.9620  178.0910  145.4370 C   0  0  0  0  0  0  0  0  0  0  0  0
  180.4170  178.2790  143.9520 C   0  0  0  0  0  1  0  0  0  0  0  0
  186.6200  177.1680  144.4360 C   0  0  0  0  0  2  0  0  0  0  0  0
  187.7150  177.5640  141.4640 N   0  0  0  0  0  2  0  0  0  0  0  0
  186.1780  177.8920  146.6250 O   0  0  0  0  0  0  0  0  0  0  0  0
  182.8440  178.8430  144.3750 N   0  0  0  0  0  0  0  0  0  0  0  0
  184.0670  179.0610  144.0050 C   0  0  0  0  0  0  0  0  0  0  0  0
  181.7670  178.6370  143.4420 C   0  0  0  0  0  0  0  0  0  0  0  0
  181.9630  178.7520  142.1220 C   0  0  0  0  0  3  0  0  0  0  0  0
  190.5860  176.0640  143.2910 C   0  0  0  0  0  2  0  0  0  0  0  0
  192.0810  176.5780  146.5780 N   0  0  0  0  0  2  0  0  0  0  0  0
  191.8440  178.2200  144.9620 O   0  0  0  0  0  0  0  0  0  0  0  0
  191.4850  178.6800  143.6620 C   0  0  0  0  0  2  0  0  0  0  0  0
  190.5450  176.0170  144.8180 C   0  0  0  0  0  2  0  0  0  0  0  0
  191.5380  176.9460  145.4640 C   0  0  0  0  0  0  0  0  0  0  0  0
  190.0570  178.5040  143.4520 N   0  0  0  0  0  2  0  0  0  0  0  0
  189.8150  177.2650  142.7090 C   0  0  2  0  0  3  0  0  0  0  0  0
  183.5980  178.3170  140.2920 C   0  0  0  0  0  0  0  0  0  0  0  0
  182.9430  177.0970  140.1070 C   0  0  0  0  0  3  0  0  0  0  0  0
  184.0240  176.8320  137.9580 C   0  0  0  0  0  3  0  0  0  0  0  0
  184.6750  178.0540  138.1350 C   0  0  0  0  0  3  0  0  0  0  0  0
  183.1590  176.3530  138.9460 C   0  0  0  0  0  3  0  0  0  0  0  0
  184.4590  178.7980  139.2920 C   0  0  0  0  0  3  0  0  0  0  0  0
  1  5  2  0  0  0  0
  1  6  2  0  0  0  0
  2  8  1  0  0  0  0
  3 25  1  6  0  0  0
  3 16  1  0  0  0  0
  3  6  1  0  0  0  0
  4 10  1  1  0  0  0
  5  4  1  0  0  0  0
  6 14  1  0  0  0  0
  7 11  1  6  0  0  0
  7 24  1  0  0  0  0
  7  4  1  0  0  0  0
  8 12  2  0  0  0  0
 10  8  1  0  0  0  0
 11  5  1  0  0  0  0
 14 13  2  0  0  0  0
 14  2  1  0  0  0  0
 15  9  1  0  0  0  0
 15 13  1  0  0  0  0
 16 15  2  0  0  0  0
 17 21  1  0  0  0  0
 19 22  1  0  0  0  0
 20 19  1  0  0  0  0
 21 22  1  0  0  0  0
 22 18  2  0  0  0  0
 23 20  1  0  0  0  0
 24 17  1  1  0  0  0
 24 23  1  0  0  0  0
 26 25  1  0  0  0  0
 27 28  2  0  0  0  0
 27 29  1  0  0  0  0
 28 30  1  0  0  0  0
 29 26  2  0  0  0  0
 30 25  2  0  0  0  0
M  END
>  <MODEL>
1

>  <REMARK>
 VINA RESULT:      -9.5      0.000      0.000
  Name = 
  2 active torsions:
  status: ('A' for Active; 'I' for Inactive)
    1  A    between atoms: C_3  and  C_5
    2  A    between atoms: C_13  and  C_30
                            x       y       z     vdW  Elec       q    Type
                         _______ _______ _______ _____ _____    ______ ____

>  <TORSDO>
F 2

$$$$
=
 OpenBabel11062413293D

 30 34  0  0  1  0  0  0  0  0999 V2000
  188.0830  178.4560  140.8740 C   0  0  0  0  0  0  0  0  0  0  0  0
  185.4190  179.2560  141.5600 C   0  0  0  0  0  2  0  0  0  0  0  0
  187.6400  178.1740  138.4510 C   0  0  2  0  0  3  0  0  0  0  0  0
  187.8600  178.1250  143.3510 C   0  0  2  0  0  3  0  0  0  0  0  0
  188.5900  178.2860  142.0550 C   0  0  0  0  0  0  0  0  0  0  0  0
  187.2540  178.5260  139.8740 C   0  0  0  0  0  0  0  0  0  0  0  0
  188.9070  177.2420  143.7830 C   0  0  1  0  0  3  0  0  0  0  0  0
  185.4090  178.3070  142.7440 C   0  0  0  0  0  0  0  0  0  0  0  0
  184.0990  177.2040  137.2610 C   0  0  0  0  0  1  0  0  0  0  0  0
  186.5490  177.3750  143.0840 C   0  0  0  0  0  2  0  0  0  0  0  0
  189.7020  177.4830  142.5980 N   0  0  0  0  0  2  0  0  0  0  0  0
  184.4560  178.3470  143.5110 O   0  0  0  0  0  0  0  0  0  0  0  0
  184.9080  178.2760  139.4030 N   0  0  0  0  0  0  0  0  0  0  0  0
  185.8230  178.6580  140.2360 C   0  0  0  0  0  0  0  0  0  0  0  0
  185.2060  177.7220  138.1080 C   0  0  0  0  0  0  0  0  0  0  0  0
  186.4650  177.6580  137.6570 C   0  0  0  0  0  3  0  0  0  0  0  0
  191.1220  177.7240  144.9280 C   0  0  0  0  0  2  0  0  0  0  0  0
  192.7650  175.3260  147.1300 N   0  0  0  0  0  2  0  0  0  0  0  0
  190.8390  176.5000  147.6550 O   0  0  0  0  0  0  0  0  0  0  0  0
  189.8300  177.4700  147.3880 C   0  0  0  0  0  2  0  0  0  0  0  0
  191.6780  176.3350  145.2410 C   0  0  0  0  0  2  0  0  0  0  0  0
  191.7870  176.0620  146.7170 C   0  0  0  0  0  0  0  0  0  0  0  0
  189.0710  177.0830  146.2100 N   0  0  0  0  0  2  0  0  0  0  0  0
  189.5860  177.7910  145.0350 C   0  0  2  0  0  3  0  0  0  0  0  0
  188.8250  177.2480  138.3470 C   0  0  0  0  0  0  0  0  0  0  0  0
  188.6630  176.0110  137.7200 C   0  0  0  0  0  3  0  0  0  0  0  0
  191.0160  175.5370  138.0250 C   0  0  0  0  0  3  0  0  0  0  0  0
  191.1850  176.7750  138.6460 C   0  0  0  0  0  3  0  0  0  0  0  0
  189.7530  175.1540  137.5630 C   0  0  0  0  0  3  0  0  0  0  0  0
  190.0970  177.6310  138.8010 C   0  0  0  0  0  3  0  0  0  0  0  0
  1  5  2  0  0  0  0
  2  8  1  0  0  0  0
  3 25  1  1  0  0  0
  3  6  1  0  0  0  0
  4 10  1  6  0  0  0
  4  7  1  0  0  0  0
  5 11  1  0  0  0  0
  5  4  1  0  0  0  0
  6 14  1  0  0  0  0
  6  1  2  0  0  0  0
  7 11  1  6  0  0  0
  7 24  1  0  0  0  0
  8 10  1  0  0  0  0
  8 12  2  0  0  0  0
  9 15  1  0  0  0  0
 13 14  2  0  0  0  0
 14  2  1  0  0  0  0
 15 13  1  0  0  0  0
 16 15  2  0  0  0  0
 16  3  1  0  0  0  0
 17 21  1  0  0  0  0
 20 19  1  0  0  0  0
 21 22  1  0  0  0  0
 22 18  2  0  0  0  0
 22 19  1  0  0  0  0
 23 20  1  0  0  0  0
 24 17  1  6  0  0  0
 24 23  1  0  0  0  0
 25 30  1  0  0  0  0
 26 25  2  0  0  0  0
 27 28  1  0  0  0  0
 28 30  2  0  0  0  0
 29 26  1  0  0  0  0
 29 27  2  0  0  0  0
M  END
>  <MODEL>
2

>  <REMARK>
 VINA RESULT:      -9.3      2.756      4.438
  Name = 
  2 active torsions:
  status: ('A' for Active; 'I' for Inactive)
    1  A    between atoms: C_3  and  C_5
    2  A    between atoms: C_13  and  C_30
                            x       y       z     vdW  Elec       q    Type
                         _______ _______ _______ _____ _____    ______ ____

>  <TORSDO>
F 2

$$$$
=
 OpenBabel11062413293D

 30 34  0  0  1  0  0  0  0  0999 V2000
  186.2250  178.8390  140.8540 C   0  0  0  0  0  0  0  0  0  0  0  0
  184.9790  179.3780  143.3780 C   0  0  0  0  0  2  0  0  0  0  0  0
  184.1300  178.8880  139.5290 C   0  0  2  0  0  3  0  0  0  0  0  0
  187.8660  178.1390  142.6180 C   0  0  2  0  0  3  0  0  0  0  0  0
  187.4220  178.5280  141.2430 C   0  0  0  0  0  0  0  0  0  0  0  0
  184.9360  179.0060  140.8070 C   0  0  0  0  0  0  0  0  0  0  0  0
  188.8310  177.2640  142.0120 C   0  0  1  0  0  3  0  0  0  0  0  0
  185.7740  178.2670  144.0380 C   0  0  0  0  0  0  0  0  0  0  0  0
  180.7940  177.9000  141.2010 C   0  0  0  0  0  1  0  0  0  0  0  0
  186.7320  177.3620  143.2970 C   0  0  0  0  0  2  0  0  0  0  0  0
  188.5170  177.7200  140.6750 N   0  0  0  0  0  2  0  0  0  0  0  0
  185.6940  178.1410  145.2530 O   0  0  0  0  0  0  0  0  0  0  0  0
  182.9840  178.6940  142.1810 N   0  0  0  0  0  0  0  0  0  0  0  0
  184.2410  179.0020  142.1170 C   0  0  0  0  0  0  0  0  0  0  0  0
  182.2000  178.3520  141.0230 C   0  0  0  0  0  0  0  0  0  0  0  0
  182.7170  178.4260  139.7910 C   0  0  0  0  0  3  0  0  0  0  0  0
  191.1140  176.4320  142.7490 C   0  0  0  0  0  2  0  0  0  0  0  0
  192.0210  176.0100  146.2560 N   0  0  0  0  0  2  0  0  0  0  0  0
  191.7490  178.0520  145.1960 O   0  0  0  0  0  0  0  0  0  0  0  0
  191.5080  178.8670  144.0530 C   0  0  0  0  0  2  0  0  0  0  0  0
  190.8650  175.8850  144.1550 C   0  0  0  0  0  2  0  0  0  0  0  0
  191.5890  176.6580  145.2240 C   0  0  0  0  0  0  0  0  0  0  0  0
  190.1720  178.6120  143.5370 N   0  0  0  0  0  2  0  0  0  0  0  0
  190.2460  177.6630  142.4230 C   0  0  2  0  0  3  0  0  0  0  0  0
  184.7910  178.0550  138.4610 C   0  0  0  0  0  0  0  0  0  0  0  0
  184.1640  176.8830  138.0310 C   0  0  0  0  0  3  0  0  0  0  0  0
  185.9180  176.5320  136.4010 C   0  0  0  0  0  3  0  0  0  0  0  0
  186.5450  177.7060  136.8210 C   0  0  0  0  0  3  0  0  0  0  0  0
  184.7280  176.1200  137.0080 C   0  0  0  0  0  3  0  0  0  0  0  0
  185.9820  178.4690  137.8420 C   0  0  0  0  0  3  0  0  0  0  0  0
  1  5  2  0  0  0  0
  2  8  1  0  0  0  0
  3 25  1  6  0  0  0
  3 16  1  0  0  0  0
  3  6  1  0  0  0  0
  4 10  1  1  0  0  0
  5  4  1  0  0  0  0
  6  1  2  0  0  0  0
  6 14  1  0  0  0  0
  7 11  1  6  0  0  0
  7 24  1  0  0  0  0
  7  4  1  0  0  0  0
  8 12  2  0  0  0  0
 10  8  1  0  0  0  0
 11  5  1  0  0  0  0
 14 13  2  0  0  0  0
 14  2  1  0  0  0  0
 15  9  1  0  0  0  0
 15 13  1  0  0  0  0
 16 15  2  0  0  0  0
 17 21  1  0  0  0  0
 19 22  1  0  0  0  0
 20 19  1  0  0  0  0
 21 22  1  0  0  0  0
 22 18  2  0  0  0  0
 23 20  1  0  0  0  0
 24 17  1  1  0  0  0
 24 23  1  0  0  0  0
 26 25  1  0  0  0  0
 27 28  2  0  0  0  0
 27 29  1  0  0  0  0
 28 30  1  0  0  0  0
 29 26  2  0  0  0  0
 30 25  2  0  0  0  0
M  END
>  <MODEL>
3

>  <REMARK>
 VINA RESULT:      -9.1      1.227      1.707
  Name = 
  2 active torsions:
  status: ('A' for Active; 'I' for Inactive)
    1  A    between atoms: C_3  and  C_5
    2  A    between atoms: C_13  and  C_30
                            x       y       z     vdW  Elec       q    Type
                         _______ _______ _______ _____ _____    ______ ____

>  <TORSDO>
F 2

$$$$
=
 OpenBabel11062413293D

 30 34  0  0  1  0  0  0  0  0999 V2000
  188.7720  178.2150  143.6800 C   0  0  0  0  0  0  0  0  0  0  0  0
  191.0500  177.1090  145.0230 C   0  0  0  0  0  2  0  0  0  0  0  0
  187.4060  178.5230  145.7260 C   0  0  2  0  0  3  0  0  0  0  0  0
  190.1320  177.0480  141.9240 C   0  0  2  0  0  3  0  0  0  0  0  0
  189.0960  177.9940  142.4450 C   0  0  0  0  0  0  0  0  0  0  0  0
  188.6580  178.1210  144.9730 C   0  0  0  0  0  0  0  0  0  0  0  0
  189.2920  176.8250  140.7800 C   0  0  1  0  0  3  0  0  0  0  0  0
  191.1540  176.0020  143.9910 C   0  0  0  0  0  0  0  0  0  0  0  0
  187.9310  176.1710  148.7410 C   0  0  0  0  0  1  0  0  0  0  0  0
  190.1830  175.8230  142.8460 C   0  0  0  0  0  2  0  0  0  0  0  0
  188.3380  177.8340  141.1890 N   0  0  0  0  0  2  0  0  0  0  0  0
  192.1210  175.2530  144.0410 O   0  0  0  0  0  0  0  0  0  0  0  0
  189.4370  176.7610  146.7990 N   0  0  0  0  0  0  0  0  0  0  0  0
  189.6910  177.3020  145.6500 C   0  0  0  0  0  0  0  0  0  0  0  0
  188.1780  176.9200  147.4800 C   0  0  0  0  0  0  0  0  0  0  0  0
  187.2240  177.7220  146.9920 C   0  0  0  0  0  3  0  0  0  0  0  0
  189.0520  177.8330  138.4620 C   0  0  0  0  0  2  0  0  0  0  0  0
  188.4420  175.8120  135.4870 N   0  0  0  0  0  2  0  0  0  0  0  0
  190.4450  175.8850  136.6500 O   0  0  0  0  0  0  0  0  0  0  0  0
  191.3030  176.3840  137.6720 C   0  0  0  0  0  2  0  0  0  0  0  0
  188.2750  176.7710  137.6830 C   0  0  0  0  0  2  0  0  0  0  0  0
  189.0720  176.1630  136.5610 C   0  0  0  0  0  0  0  0  0  0  0  0
  190.7500  176.0690  138.9790 N   0  0  0  0  0  2  0  0  0  0  0  0
  190.0180  177.2260  139.4990 C   0  0  2  0  0  3  0  0  0  0  0  0
  186.1550  178.5150  144.8860 C   0  0  0  0  0  0  0  0  0  0  0  0
  185.0560  179.2710  145.3010 C   0  0  0  0  0  3  0  0  0  0  0  0
  183.8480  178.6280  143.3050 C   0  0  0  0  0  3  0  0  0  0  0  0
  184.9460  177.8780  142.8820 C   0  0  0  0  0  3  0  0  0  0  0  0
  183.9020  179.3230  144.5170 C   0  0  0  0  0  3  0  0  0  0  0  0
  186.0970  177.8260  143.6640 C   0  0  0  0  0  3  0  0  0  0  0  0
  1  6  2  0  0  0  0
  2 14  1  0  0  0  0
  3 25  1  6  0  0  0
  3 16  1  0  0  0  0
  4  5  1  0  0  0  0
  4 10  1  1  0  0  0
  5  1  2  0  0  0  0
  6 14  1  0  0  0  0
  6  3  1  0  0  0  0
  7 11  1  1  0  0  0
  7  4  1  0  0  0  0
  8 12  2  0  0  0  0
  8  2  1  0  0  0  0
 10  8  1  0  0  0  0
 11  5  1  0  0  0  0
 13 15  1  0  0  0  0
 14 13  2  0  0  0  0
 15  9  1  0  0  0  0
 16 15  2  0  0  0  0
 18 22  2  0  0  0  0
 19 20  1  0  0  0  0
 20 23  1  0  0  0  0
 21 17  1  0  0  0  0
 22 19  1  0  0  0  0
 22 21  1  0  0  0  0
 23 24  1  0  0  0  0
 24 17  1  6  0  0  0
 24  7  1  0  0  0  0
 25 26  1  0  0  0  0
 27 29  1  0  0  0  0
 28 27  2  0  0  0  0
 28 30  1  0  0  0  0
 29 26  2  0  0  0  0
 30 25  2  0  0  0  0
M  END
>  <MODEL>
4

>  <REMARK>
 VINA RESULT:      -8.9      3.185      6.226
  Name = 
  2 active torsions:
  status: ('A' for Active; 'I' for Inactive)
    1  A    between atoms: C_3  and  C_5
    2  A    between atoms: C_13  and  C_30
                            x       y       z     vdW  Elec       q    Type
                         _______ _______ _______ _____ _____    ______ ____

>  <TORSDO>
F 2

$$$$
=
 OpenBabel11062413293D

 30 34  0  0  1  0  0  0  0  0999 V2000
  186.7720  177.1470  143.8450 C   0  0  0  0  0  0  0  0  0  0  0  0
  185.0110  177.6420  146.0510 C   0  0  0  0  0  2  0  0  0  0  0  0
  188.8120  176.8440  145.2210 C   0  0  2  0  0  3  0  0  0  0  0  0
  184.7320  178.2530  142.8890 C   0  0  2  0  0  3  0  0  0  0  0  0
  185.9980  177.4560  142.8510 C   0  0  0  0  0  0  0  0  0  0  0  0
  187.3320  177.1000  145.0180 C   0  0  0  0  0  0  0  0  0  0  0  0
  185.0660  178.7650  141.5900 C   0  0  1  0  0  3  0  0  0  0  0  0
  184.4000  178.8310  145.3320 C   0  0  0  0  0  0  0  0  0  0  0  0
  189.1150  178.6700  148.6070 C   0  0  0  0  0  1  0  0  0  0  0  0
  184.8620  179.3240  143.9790 C   0  0  0  0  0  2  0  0  0  0  0  0
  186.2240  177.9050  141.4650 N   0  0  0  0  0  2  0  0  0  0  0  0
  183.4300  179.3780  145.8390 O   0  0  0  0  0  0  0  0  0  0  0  0
  187.0980  178.0580  147.2130 N   0  0  0  0  0  0  0  0  0  0  0  0
  186.5170  177.6260  146.1390 C   0  0  0  0  0  0  0  0  0  0  0  0
  188.5270  178.0500  147.3900 C   0  0  0  0  0  0  0  0  0  0  0  0
  189.3350  177.5030  146.4740 C   0  0  0  0  0  3  0  0  0  0  0  0
  184.2500  179.0400  139.2010 C   0  0  0  0  0  2  0  0  0  0  0  0
  181.9310  181.6710  138.2010 N   0  0  0  0  0  2  0  0  0  0  0  0
  181.3650  179.8250  139.4800 O   0  0  0  0  0  0  0  0  0  0  0  0
  181.6510  178.5770  140.1060 C   0  0  0  0  0  2  0  0  0  0  0  0
  183.8100  180.5030  139.1340 C   0  0  0  0  0  2  0  0  0  0  0  0
  182.3310  180.6640  138.9050 C   0  0  0  0  0  0  0  0  0  0  0  0
  182.6740  178.7580  141.1240 N   0  0  0  0  0  2  0  0  0  0  0  0
  183.9840  178.3980  140.5770 C   0  0  2  0  0  3  0  0  0  0  0  0
  189.6630  177.1850  144.0240 C   0  0  0  0  0  0  0  0  0  0  0  0
  190.4710  178.3230  144.0710 C   0  0  0  0  0  3  0  0  0  0  0  0
  191.3490  177.8020  141.8770 C   0  0  0  0  0  3  0  0  0  0  0  0
  190.5490  176.6590  141.8280 C   0  0  0  0  0  3  0  0  0  0  0  0
  191.3090  178.6350  142.9990 C   0  0  0  0  0  3  0  0  0  0  0  0
  189.7150  176.3470  142.8990 C   0  0  0  0  0  3  0  0  0  0  0  0
  1  6  2  0  0  0  0
  2 14  1  0  0  0  0
  3 25  1  6  0  0  0
  3 16  1  0  0  0  0
  4 10  1  1  0  0  0
  5  4  1  0  0  0  0
  5  1  2  0  0  0  0
  6  3  1  0  0  0  0
  6 14  1  0  0  0  0
  7 11  1  6  0  0  0
  7  4  1  0  0  0  0
  8 12  2  0  0  0  0
  8  2  1  0  0  0  0
 10  8  1  0  0  0  0
 11  5  1  0  0  0  0
 13 15  1  0  0  0  0
 14 13  2  0  0  0  0
 15  9  1  0  0  0  0
 16 15  2  0  0  0  0
 18 22  2  0  0  0  0
 19 20  1  0  0  0  0
 20 23  1  0  0  0  0
 21 17  1  0  0  0  0
 22 21  1  0  0  0  0
 22 19  1  0  0  0  0
 24 17  1  6  0  0  0
 24 23  1  0  0  0  0
 24  7  1  0  0  0  0
 25 26  1  0  0  0  0
 27 29  1  0  0  0  0
 28 27  2  0  0  0  0
 28 30  1  0  0  0  0
 29 26  2  0  0  0  0
 30 25  2  0  0  0  0
M  END
>  <MODEL>
5

>  <REMARK>
 VINA RESULT:      -8.9      2.855      7.387
  Name = 
  2 active torsions:
  status: ('A' for Active; 'I' for Inactive)
    1  A    between atoms: C_3  and  C_5
    2  A    between atoms: C_13  and  C_30
                            x       y       z     vdW  Elec       q    Type
                         _______ _______ _______ _____ _____    ______ ____

>  <TORSDO>
F 2

$$$$
=
 OpenBabel11062413293D

 30 34  0  0  1  0  0  0  0  0999 V2000
  186.7860  177.4300  143.5270 C   0  0  0  0  0  0  0  0  0  0  0  0
  184.6630  177.8660  145.4010 C   0  0  0  0  0  2  0  0  0  0  0  0
  188.4860  176.8060  145.2210 C   0  0  2  0  0  3  0  0  0  0  0  0
  185.0620  178.8090  142.3360 C   0  0  2  0  0  3  0  0  0  0  0  0
  186.2500  177.9050  142.4470 C   0  0  0  0  0  0  0  0  0  0  0  0
  187.0980  177.2160  144.7720 C   0  0  0  0  0  0  0  0  0  0  0  0
  185.6830  179.4130  141.1900 C   0  0  1  0  0  3  0  0  0  0  0  0
  184.2930  179.1710  144.7210 C   0  0  0  0  0  0  0  0  0  0  0  0
  188.2400  178.2530  148.7910 C   0  0  0  0  0  1  0  0  0  0  0  0
  185.0480  179.7500  143.5460 C   0  0  0  0  0  2  0  0  0  0  0  0
  186.7780  178.4660  141.1900 N   0  0  0  0  0  2  0  0  0  0  0  0
  183.2840  179.7530  145.0930 O   0  0  0  0  0  0  0  0  0  0  0  0
  186.5020  177.9710  146.9780 N   0  0  0  0  0  0  0  0  0  0  0  0
  186.1160  177.7020  145.7710 C   0  0  0  0  0  0  0  0  0  0  0  0
  187.8620  177.8130  147.4210 C   0  0  0  0  0  0  0  0  0  0  0  0
  188.7950  177.2870  146.6180 C   0  0  0  0  0  3  0  0  0  0  0  0
  183.3320  178.9720  140.3360 C   0  0  0  0  0  2  0  0  0  0  0  0
  182.1050  175.6210  139.5860 N   0  0  0  0  0  2  0  0  0  0  0  0
  183.6680  176.7700  138.3220 O   0  0  0  0  0  0  0  0  0  0  0  0
  184.4490  177.9200  138.0050 C   0  0  0  0  0  2  0  0  0  0  0  0
  183.0820  177.5090  140.7030 C   0  0  0  0  0  2  0  0  0  0  0  0
  182.9210  176.6190  139.5000 C   0  0  0  0  0  0  0  0  0  0  0  0
  185.3670  178.2090  139.0950 N   0  0  0  0  0  2  0  0  0  0  0  0
  184.8000  179.2500  139.9560 C   0  0  2  0  0  3  0  0  0  0  0  0
  189.5800  177.1820  144.2550 C   0  0  0  0  0  0  0  0  0  0  0  0
  190.2610  178.3880  144.4410 C   0  0  0  0  0  3  0  0  0  0  0  0
  191.6960  177.8780  142.5610 C   0  0  0  0  0  3  0  0  0  0  0  0
  191.0240  176.6690  142.3750 C   0  0  0  0  0  3  0  0  0  0  0  0
  191.3130  178.7390  143.5930 C   0  0  0  0  0  3  0  0  0  0  0  0
  189.9750  176.3180  143.2220 C   0  0  0  0  0  3  0  0  0  0  0  0
  1  6  2  0  0  0  0
  2 14  1  0  0  0  0
  3 25  1  6  0  0  0
  3 16  1  0  0  0  0
  4  5  1  0  0  0  0
  4 10  1  1  0  0  0
  5  1  2  0  0  0  0
  6  3  1  0  0  0  0
  6 14  1  0  0  0  0
  7 11  1  6  0  0  0
  7  4  1  0  0  0  0
  8 12  2  0  0  0  0
  8  2  1  0  0  0  0
 10  8  1  0  0  0  0
 11  5  1  0  0  0  0
 13 15  1  0  0  0  0
 14 13  2  0  0  0  0
 15  9  1  0  0  0  0
 16 15  2  0  0  0  0
 17 21  1  0  0  0  0
 19 22  1  0  0  0  0
 20 19  1  0  0  0  0
 20 23  1  0  0  0  0
 22 18  2  0  0  0  0
 22 21  1  0  0  0  0
 23 24  1  0  0  0  0
 24 17  1  1  0  0  0
 24  7  1  0  0  0  0
 25 26  1  0  0  0  0
 27 29  1  0  0  0  0
 28 27  2  0  0  0  0
 28 30  1  0  0  0  0
 29 26  2  0  0  0  0
 30 25  2  0  0  0  0
M  END
>  <MODEL>
6

>  <REMARK>
 VINA RESULT:      -8.9      2.669      6.956
  Name = 
  2 active torsions:
  status: ('A' for Active; 'I' for Inactive)
    1  A    between atoms: C_3  and  C_5
    2  A    between atoms: C_13  and  C_30
                            x       y       z     vdW  Elec       q    Type
                         _______ _______ _______ _____ _____    ______ ____

>  <TORSDO>
F 2

$$$$
=
 OpenBabel11062413293D

 30 34  0  0  1  0  0  0  0  0999 V2000
  186.8730  177.3560  143.7270 C   0  0  0  0  0  0  0  0  0  0  0  0
  184.8120  177.6240  145.7000 C   0  0  0  0  0  2  0  0  0  0  0  0
  188.7020  176.9030  145.3390 C   0  0  2  0  0  3  0  0  0  0  0  0
  184.9770  178.5650  142.6120 C   0  0  2  0  0  3  0  0  0  0  0  0
  186.2450  177.7710  142.6710 C   0  0  0  0  0  0  0  0  0  0  0  0
  187.2620  177.1850  144.9560 C   0  0  0  0  0  0  0  0  0  0  0  0
  185.4860  179.2090  141.4340 C   0  0  1  0  0  3  0  0  0  0  0  0
  184.2960  178.8840  145.0300 C   0  0  0  0  0  0  0  0  0  0  0  0
  188.5010  178.3620  148.9070 C   0  0  0  0  0  1  0  0  0  0  0  0
  184.9390  179.5150  143.8160 C   0  0  0  0  0  2  0  0  0  0  0  0
  186.6600  178.3630  141.3860 N   0  0  0  0  0  2  0  0  0  0  0  0
  183.2580  179.3780  145.4480 O   0  0  0  0  0  0  0  0  0  0  0  0
  186.7090  177.9070  147.1840 N   0  0  0  0  0  0  0  0  0  0  0  0
  186.2910  177.5930  145.9990 C   0  0  0  0  0  0  0  0  0  0  0  0
  188.0980  177.8760  147.5610 C   0  0  0  0  0  0  0  0  0  0  0  0
  189.0340  177.4250  146.7160 C   0  0  0  0  0  3  0  0  0  0  0  0
  183.2290  179.7150  140.3870 C   0  0  0  0  0  2  0  0  0  0  0  0
  180.2800  177.6480  140.9680 N   0  0  0  0  0  2  0  0  0  0  0  0
  182.1060  177.0180  139.6890 O   0  0  0  0  0  0  0  0  0  0  0  0
  183.3660  177.2590  139.0680 C   0  0  0  0  0  2  0  0  0  0  0  0
  182.2360  179.0020  141.3050 C   0  0  0  0  0  2  0  0  0  0  0  0
  181.5040  177.8770  140.6220 C   0  0  0  0  0  0  0  0  0  0  0  0
  184.3760  177.5120  140.0830 N   0  0  0  0  0  2  0  0  0  0  0  0
  184.5630  178.9550  140.2450 C   0  0  2  0  0  3  0  0  0  0  0  0
  189.7100  177.3650  144.3180 C   0  0  0  0  0  0  0  0  0  0  0  0
  190.3330  178.6020  144.4950 C   0  0  0  0  0  3  0  0  0  0  0  0
  191.6720  178.2200  142.5160 C   0  0  0  0  0  3  0  0  0  0  0  0
  191.0580  176.9800  142.3380 C   0  0  0  0  0  3  0  0  0  0  0  0
  191.3080  179.0330  143.5930 C   0  0  0  0  0  3  0  0  0  0  0  0
  190.0850  176.5500  143.2390 C   0  0  0  0  0  3  0  0  0  0  0  0
  1  6  2  0  0  0  0
  2 14  1  0  0  0  0
  3 25  1  6  0  0  0
  3 16  1  0  0  0  0
  4  5  1  0  0  0  0
  4 10  1  1  0  0  0
  5  1  2  0  0  0  0
  6  3  1  0  0  0  0
  6 14  1  0  0  0  0
  7 11  1  6  0  0  0
  7  4  1  0  0  0  0
  8 12  2  0  0  0  0
  8  2  1  0  0  0  0
 10  8  1  0  0  0  0
 11  5  1  0  0  0  0
 13 15  1  0  0  0  0
 14 13  2  0  0  0  0
 15  9  1  0  0  0  0
 16 15  2  0  0  0  0
 17 21  1  0  0  0  0
 19 22  1  0  0  0  0
 20 19  1  0  0  0  0
 20 23  1  0  0  0  0
 22 18  2  0  0  0  0
 22 21  1  0  0  0  0
 23 24  1  0  0  0  0
 24 17  1  1  0  0  0
 24  7  1  0  0  0  0
 25 26  1  0  0  0  0
 27 29  1  0  0  0  0
 28 27  2  0  0  0  0
 28 30  1  0  0  0  0
 29 26  2  0  0  0  0
 30 25  2  0  0  0  0
M  END
>  <MODEL>
7

>  <REMARK>
 VINA RESULT:      -8.4      2.592      7.202
  Name = 
  2 active torsions:
  status: ('A' for Active; 'I' for Inactive)
    1  A    between atoms: C_3  and  C_5
    2  A    between atoms: C_13  and  C_30
                            x       y       z     vdW  Elec       q    Type
                         _______ _______ _______ _____ _____    ______ ____

>  <TORSDO>
F 2

$$$$
=
 OpenBabel11062413293D

 30 34  0  0  1  0  0  0  0  0999 V2000
  187.9470  176.8270  143.4690 C   0  0  0  0  0  0  0  0  0  0  0  0
  185.4290  178.0530  142.8580 C   0  0  0  0  0  2  0  0  0  0  0  0
  187.7560  177.0840  145.9280 C   0  0  2  0  0  3  0  0  0  0  0  0
  188.0420  177.4720  141.0460 C   0  0  2  0  0  3  0  0  0  0  0  0
  188.4610  176.7410  142.2820 C   0  0  0  0  0  0  0  0  0  0  0  0
  187.2600  177.2190  144.5020 C   0  0  0  0  0  0  0  0  0  0  0  0
  189.4190  177.4860  140.6390 C   0  0  1  0  0  3  0  0  0  0  0  0
  186.0700  178.8880  141.7650 C   0  0  0  0  0  0  0  0  0  0  0  0
  185.7140  180.0170  147.3850 C   0  0  0  0  0  1  0  0  0  0  0  0
  187.5480  178.8670  141.4480 C   0  0  0  0  0  2  0  0  0  0  0  0
  189.8350  176.6630  141.7540 N   0  0  0  0  0  2  0  0  0  0  0  0
  185.3410  179.5620  141.0500 O   0  0  0  0  0  0  0  0  0  0  0  0
  185.6530  178.9020  145.1180 N   0  0  0  0  0  0  0  0  0  0  0  0
  186.1040  178.0990  144.2070 C   0  0  0  0  0  0  0  0  0  0  0  0
  186.2190  178.9870  146.4390 C   0  0  0  0  0  0  0  0  0  0  0  0
  187.1990  178.1620  146.8260 C   0  0  0  0  0  3  0  0  0  0  0  0
  190.7720  175.7680  139.3470 C   0  0  0  0  0  2  0  0  0  0  0  0
  193.6570  176.6640  137.3030 N   0  0  0  0  0  2  0  0  0  0  0  0
  191.4550  177.1400  136.7640 O   0  0  0  0  0  0  0  0  0  0  0  0
  190.0490  177.0720  136.9880 C   0  0  0  0  0  2  0  0  0  0  0  0
  192.1230  176.4530  139.1390 C   0  0  0  0  0  2  0  0  0  0  0  0
  192.4260  176.7330  137.6920 C   0  0  0  0  0  0  0  0  0  0  0  0
  189.7130  177.7430  138.2330 N   0  0  0  0  0  2  0  0  0  0  0  0
  189.5890  176.7560  139.3080 C   0  0  2  0  0  3  0  0  0  0  0  0
  189.2550  176.9850  146.0490 C   0  0  0  0  0  0  0  0  0  0  0  0
  189.8020  176.2860  147.1280 C   0  0  0  0  0  3  0  0  0  0  0  0
  192.0270  176.6740  146.2620 C   0  0  0  0  0  3  0  0  0  0  0  0
  191.4860  177.3670  145.1780 C   0  0  0  0  0  3  0  0  0  0  0  0
  191.1850  176.1340  147.2380 C   0  0  0  0  0  3  0  0  0  0  0  0
  190.1060  177.5170  145.0680 C   0  0  0  0  0  3  0  0  0  0  0  0
  1  6  2  0  0  0  0
  2 14  1  0  0  0  0
  3 25  1  6  0  0  0
  3 16  1  0  0  0  0
  4 10  1  1  0  0  0
  4  5  1  0  0  0  0
  5  1  2  0  0  0  0
  6  3  1  0  0  0  0
  7  4  1  0  0  0  0
  7 11  1  1  0  0  0
  8  2  1  0  0  0  0
 10  8  1  0  0  0  0
 11  5  1  0  0  0  0
 12  8  2  0  0  0  0
 13 15  1  0  0  0  0
 14  6  1  0  0  0  0
 14 13  2  0  0  0  0
 15 16  2  0  0  0  0
 15  9  1  0  0  0  0
 18 22  2  0  0  0  0
 19 20  1  0  0  0  0
 19 22  1  0  0  0  0
 20 23  1  0  0  0  0
 21 17  1  0  0  0  0
 22 21  1  0  0  0  0
 23 24  1  0  0  0  0
 24 17  1  1  0  0  0
 24  7  1  0  0  0  0
 25 26  1  0  0  0  0
 26 29  2  0  0  0  0
 27 29  1  0  0  0  0
 28 27  2  0  0  0  0
 30 28  1  0  0  0  0
 30 25  2  0  0  0  0
M  END
>  <MODEL>
8

>  <REMARK>
 VINA RESULT:      -8.4      3.362      6.447
  Name = 
  2 active torsions:
  status: ('A' for Active; 'I' for Inactive)
    1  A    between atoms: C_3  and  C_5
    2  A    between atoms: C_13  and  C_30
                            x       y       z     vdW  Elec       q    Type
                         _______ _______ _______ _____ _____    ______ ____

>  <TORSDO>
F 2

$$$$
=
 OpenBabel11062413293D

 30 34  0  0  1  0  0  0  0  0999 V2000
  189.3150  178.6070  143.5050 C   0  0  0  0  0  0  0  0  0  0  0  0
  192.0530  177.8830  143.0640 C   0  0  0  0  0  2  0  0  0  0  0  0
  189.3560  178.2470  145.9570 C   0  0  2  0  0  3  0  0  0  0  0  0
  189.5280  178.0970  141.0570 C   0  0  2  0  0  3  0  0  0  0  0  0
  188.8880  178.6700  142.2820 C   0  0  0  0  0  0  0  0  0  0  0  0
  189.9790  178.2830  144.5760 C   0  0  0  0  0  0  0  0  0  0  0  0
  188.2130  177.8640  140.5310 C   0  0  1  0  0  3  0  0  0  0  0  0
  191.6610  177.0130  141.8840 C   0  0  0  0  0  0  0  0  0  0  0  0
  191.7740  175.6410  147.4600 C   0  0  0  0  0  1  0  0  0  0  0  0
  190.2330  176.7900  141.4400 C   0  0  0  0  0  2  0  0  0  0  0  0
  187.5680  178.5350  141.6390 N   0  0  0  0  0  2  0  0  0  0  0  0
  192.5530  176.5210  141.2070 O   0  0  0  0  0  0  0  0  0  0  0  0
  191.8100  176.8780  145.2570 N   0  0  0  0  0  0  0  0  0  0  0  0
  191.2940  177.6400  144.3450 C   0  0  0  0  0  0  0  0  0  0  0  0
  191.1660  176.6180  146.5180 C   0  0  0  0  0  0  0  0  0  0  0  0
  190.0260  177.2330  146.8540 C   0  0  0  0  0  3  0  0  0  0  0  0
  186.8240  178.0810  138.4150 C   0  0  0  0  0  2  0  0  0  0  0  0
  187.6640  176.3450  135.3200 N   0  0  0  0  0  2  0  0  0  0  0  0
  188.8450  178.1350  136.1950 O   0  0  0  0  0  0  0  0  0  0  0  0
  189.0540  179.1770  137.1440 C   0  0  0  0  0  2  0  0  0  0  0  0
  187.1730  176.8210  137.6220 C   0  0  0  0  0  2  0  0  0  0  0  0
  187.8890  177.1170  136.3320 C   0  0  0  0  0  0  0  0  0  0  0  0
  189.2700  178.6070  138.4640 N   0  0  0  0  0  2  0  0  0  0  0  0
  188.0180  178.6280  139.2230 C   0  0  2  0  0  3  0  0  0  0  0  0
  187.8590  178.0710  145.9520 C   0  0  0  0  0  0  0  0  0  0  0  0
  187.1070  178.6400  146.9820 C   0  0  0  0  0  3  0  0  0  0  0  0
  185.0680  177.8750  145.9290 C   0  0  0  0  0  3  0  0  0  0  0  0
  185.8130  177.3120  144.8930 C   0  0  0  0  0  3  0  0  0  0  0  0
  185.7150  178.5380  146.9750 C   0  0  0  0  0  3  0  0  0  0  0  0
  187.2020  177.4140  144.8990 C   0  0  0  0  0  3  0  0  0  0  0  0
  1  6  2  0  0  0  0
  2 14  1  0  0  0  0
  3 25  1  6  0  0  0
  3 16  1  0  0  0  0
  4 10  1  1  0  0  0
  4  5  1  0  0  0  0
  5  1  2  0  0  0  0
  6  3  1  0  0  0  0
  7  4  1  0  0  0  0
  7 11  1  1  0  0  0
  8  2  1  0  0  0  0
 10  8  1  0  0  0  0
 11  5  1  0  0  0  0
 12  8  2  0  0  0  0
 13 15  1  0  0  0  0
 14  6  1  0  0  0  0
 14 13  2  0  0  0  0
 15 16  2  0  0  0  0
 15  9  1  0  0  0  0
 18 22  2  0  0  0  0
 19 22  1  0  0  0  0
 19 20  1  0  0  0  0
 20 23  1  0  0  0  0
 21 17  1  0  0  0  0
 22 21  1  0  0  0  0
 23 24  1  0  0  0  0
 24 17  1  6  0  0  0
 24  7  1  0  0  0  0
 25 26  1  0  0  0  0
 27 29  1  0  0  0  0
 28 30  1  0  0  0  0
 28 27  2  0  0  0  0
 29 26  2  0  0  0  0
 30 25  2  0  0  0  0
M  END
>  <MODEL>
9

>  <REMARK>
 VINA RESULT:      -8.3      3.380      7.471
  Name = 
  2 active torsions:
  status: ('A' for Active; 'I' for Inactive)
    1  A    between atoms: C_3  and  C_5
    2  A    between atoms: C_13  and  C_30
                            x       y       z     vdW  Elec       q    Type
                         _______ _______ _______ _____ _____    ______ ____

>  <TORSDO>
F 2

$$$$
