=
 OpenBabel11062414523D

 33 36  0  0  1  0  0  0  0  0999 V2000
  187.9570  177.5180  144.5370 C   0  0  0  0  0  0  0  0  0  0  0  0
  185.7250  178.7880  147.2100 N   0  0  0  0  0  1  0  0  0  0  0  0
  189.5360  177.3340  145.9710 C   0  0  0  0  0  3  0  0  0  0  0  0
  187.5070  177.9330  145.7530 C   0  0  0  0  0  0  0  0  0  0  0  0
  185.8170  177.9540  143.5440 C   0  0  0  0  0  0  0  0  0  0  0  0
  185.3490  178.3850  144.8120 C   0  0  0  0  0  3  0  0  0  0  0  0
  186.1990  178.3760  145.9330 C   0  0  0  0  0  0  0  0  0  0  0  0
  187.1470  177.5090  143.4030 C   0  0  0  0  0  3  0  0  0  0  0  0
  188.4830  177.8310  146.6750 N   0  0  0  0  0  0  0  0  0  0  0  0
  189.2330  177.1380  144.6650 N   0  0  0  0  0  0  0  0  0  0  0  0
  189.7780  175.2020  142.9500 O   0  0  0  0  0  0  0  0  0  0  0  0
  190.2900  176.5290  143.4350 S   0  0  0  0  0  0  0  0  0  0  0  0
  191.6660  176.3370  144.0060 O   0  0  0  0  0  0  0  0  0  0  0  0
  190.3520  177.6690  142.0710 C   0  0  0  0  0  2  0  0  0  0  0  0
  191.1290  177.1320  141.0460 O   0  0  0  0  0  0  0  0  0  0  0  0
  190.2310  176.9130  140.0040 C   0  0  0  0  0  2  0  0  0  0  0  0
  188.8570  178.0950  140.1210 S   0  0  0  0  0  0  0  0  0  0  0  0
  188.1130  177.5100  138.5640 C   0  0  1  0  0  3  0  0  0  0  0  0
  187.0320  178.4330  138.1650 N   0  0  0  0  0  2  0  0  0  0  0  0
  189.0050  179.6320  137.6640 O   0  0  0  0  0  1  0  0  0  0  0  0
  188.3110  178.4380  137.4510 C   0  0  1  0  0  0  0  0  0  0  0  0
  188.1700  177.9330  136.0310 C   0  0  0  0  0  1  0  0  0  0  0  0
  185.0310  178.8440  141.2730 C   0  0  0  0  0  0  0  0  0  0  0  0
  184.9680  177.9470  142.3880 N   0  0  0  0  0  2  0  0  0  0  0  0
  185.8950  179.7620  141.2300 O   0  0  0  0  0  0  0  0  0  0  0  0
  184.1100  178.6940  140.2340 O   0  0  0  0  0  0  0  0  0  0  0  0
  181.7900  178.7800  140.9790 C   0  0  0  0  0  2  0  0  0  0  0  0
  179.6110  178.9610  139.7520 C   0  0  0  0  0  1  0  0  0  0  0  0
  181.7100  179.7380  138.6100 C   0  0  0  0  0  2  0  0  0  0  0  0
  182.9190  177.9270  140.3790 C   0  0  1  0  0  3  0  0  0  0  0  0
  182.1220  178.3920  137.9980 C   0  0  0  0  0  2  0  0  0  0  0  0
  182.5050  177.3280  139.0360 C   0  0  0  0  0  2  0  0  0  0  0  0
  180.9810  179.5830  139.9480 C   0  0  2  0  0  3  0  0  0  0  0  0
  1 10  1  0  0  0  0
  1  4  1  0  0  0  0
  3  9  2  0  0  0  0
  4  7  2  0  0  0  0
  4  9  1  0  0  0  0
  5  6  2  0  0  0  0
  6  7  1  0  0  0  0
  7  2  1  0  0  0  0
  8  5  1  0  0  0  0
  8  1  2  0  0  0  0
 10  3  1  0  0  0  0
 11 12  2  0  0  0  0
 12 13  2  0  0  0  0
 12 10  1  0  0  0  0
 14 12  1  0  0  0  0
 15 14  1  0  0  0  0
 16 17  1  0  0  0  0
 16 15  1  0  0  0  0
 18 17  1  1  0  0  0
 19 18  1  0  0  0  0
 21 22  1  6  0  0  0
 21 20  1  0  0  0  0
 21 19  1  0  0  0  0
 21 18  1  0  0  0  0
 23 24  1  0  0  0  0
 24  5  1  0  0  0  0
 25 23  2  0  0  0  0
 26 23  1  0  0  0  0
 29 33  1  0  0  0  0
 30 26  1  6  0  0  0
 30 27  1  0  0  0  0
 31 29  1  0  0  0  0
 31 32  1  0  0  0  0
 32 30  1  0  0  0  0
 33 28  1  6  0  0  0
 33 27  1  0  0  0  0
M  END
>  <MODEL>
1

>  <REMARK>
 VINA RESULT:      -8.1      0.000      0.000
  Name = 
  9 active torsions:
  status: ('A' for Active; 'I' for Inactive)
    1  A    between atoms: C_2  and  S_25
    2  A    between atoms: S_8  and  C_18
    3  A    between atoms: S_8  and  N_32
    4  A    between atoms: C_11  and  O_16
    5  A    between atoms: O_13  and  C_18
    6  A    between atoms: O_13  and  C_23
    7  A    between atoms: C_14  and  N_22
    8  A    between atoms: O_16  and  C_19
    9  A    between atoms: C_23  and  S_25
                            x       y       z     vdW  Elec       q    Type
                         _______ _______ _______ _____ _____    ______ ____

>  <TORSDO>
F 9

$$$$
=
 OpenBabel11062414523D

 33 36  0  0  1  0  0  0  0  0999 V2000
  188.3390  177.6410  145.8510 C   0  0  0  0  0  0  0  0  0  0  0  0
  191.7480  176.6970  146.9570 N   0  0  0  0  0  1  0  0  0  0  0  0
  187.8650  178.2070  147.8610 C   0  0  0  0  0  3  0  0  0  0  0  0
  189.4210  177.4170  146.6450 C   0  0  0  0  0  0  0  0  0  0  0  0
  189.5330  176.8640  143.9220 C   0  0  0  0  0  0  0  0  0  0  0  0
  190.6620  176.6310  144.7500 C   0  0  0  0  0  3  0  0  0  0  0  0
  190.6110  176.9100  146.1290 C   0  0  0  0  0  0  0  0  0  0  0  0
  188.3490  177.3810  144.4820 C   0  0  0  0  0  3  0  0  0  0  0  0
  189.1500  177.7620  147.9190 N   0  0  0  0  0  0  0  0  0  0  0  0
  187.3550  178.1400  146.6090 N   0  0  0  0  0  0  0  0  0  0  0  0
  185.5880  180.0820  146.2980 O   0  0  0  0  0  0  0  0  0  0  0  0
  185.7610  178.6010  146.1110 S   0  0  0  0  0  0  0  0  0  0  0  0
  184.7460  177.8860  146.9570 O   0  0  0  0  0  0  0  0  0  0  0  0
  185.5180  178.1930  144.3980 C   0  0  0  0  0  2  0  0  0  0  0  0
  184.1550  178.1740  144.1080 O   0  0  0  0  0  0  0  0  0  0  0  0
  184.0000  179.1170  143.0940 C   0  0  0  0  0  2  0  0  0  0  0  0
  185.4050  179.0180  141.9470 S   0  0  0  0  0  0  0  0  0  0  0  0
  184.3150  178.7950  140.5030 C   0  0  1  0  0  3  0  0  0  0  0  0
  184.5250  179.9090  139.5580 N   0  0  0  0  0  2  0  0  0  0  0  0
  186.4490  178.5670  139.2770 O   0  0  0  0  0  1  0  0  0  0  0  0
  185.0520  178.5750  139.2580 C   0  0  1  0  0  0  0  0  0  0  0  0
  184.3450  177.9380  138.0810 C   0  0  0  0  0  1  0  0  0  0  0  0
  189.2320  177.5080  141.4600 C   0  0  0  0  0  0  0  0  0  0  0  0
  189.5630  176.5950  142.5140 N   0  0  0  0  0  2  0  0  0  0  0  0
  188.8670  178.6880  141.7170 O   0  0  0  0  0  0  0  0  0  0  0  0
  189.3070  177.0670  140.1370 O   0  0  0  0  0  0  0  0  0  0  0  0
  191.4220  176.6400  139.0020 C   0  0  0  0  0  2  0  0  0  0  0  0
  191.9880  175.8840  136.6780 C   0  0  0  0  0  1  0  0  0  0  0  0
  189.7030  175.3760  137.5930 C   0  0  0  0  0  2  0  0  0  0  0  0
  190.2440  177.6050  139.2090 C   0  0  1  0  0  3  0  0  0  0  0  0
  189.0170  176.6820  137.1680 C   0  0  0  0  0  2  0  0  0  0  0  0
  189.5550  177.9290  137.8850 C   0  0  0  0  0  2  0  0  0  0  0  0
  191.1850  175.5670  137.9270 C   0  0  2  0  0  3  0  0  0  0  0  0
  1 10  1  0  0  0  0
  1  4  1  0  0  0  0
  3  9  2  0  0  0  0
  4  9  1  0  0  0  0
  5  8  1  0  0  0  0
  5  6  2  0  0  0  0
  6  7  1  0  0  0  0
  7  4  2  0  0  0  0
  7  2  1  0  0  0  0
  8  1  2  0  0  0  0
 10  3  1  0  0  0  0
 12 11  2  0  0  0  0
 12 10  1  0  0  0  0
 12 13  2  0  0  0  0
 14 12  1  0  0  0  0
 15 14  1  0  0  0  0
 16 15  1  0  0  0  0
 17 16  1  0  0  0  0
 18 17  1  1  0  0  0
 19 18  1  0  0  0  0
 21 22  1  6  0  0  0
 21 20  1  0  0  0  0
 21 19  1  0  0  0  0
 21 18  1  0  0  0  0
 23 25  2  0  0  0  0
 23 24  1  0  0  0  0
 24  5  1  0  0  0  0
 26 23  1  0  0  0  0
 27 30  1  0  0  0  0
 29 33  1  0  0  0  0
 30 26  1  1  0  0  0
 31 29  1  0  0  0  0
 31 32  1  0  0  0  0
 32 30  1  0  0  0  0
 33 28  1  6  0  0  0
 33 27  1  0  0  0  0
M  END
>  <MODEL>
2

>  <REMARK>
 VINA RESULT:      -7.9      2.715      6.109
  Name = 
  9 active torsions:
  status: ('A' for Active; 'I' for Inactive)
    1  A    between atoms: C_2  and  S_25
    2  A    between atoms: S_8  and  C_18
    3  A    between atoms: S_8  and  N_32
    4  A    between atoms: C_11  and  O_16
    5  A    between atoms: O_13  and  C_18
    6  A    between atoms: O_13  and  C_23
    7  A    between atoms: C_14  and  N_22
    8  A    between atoms: O_16  and  C_19
    9  A    between atoms: C_23  and  S_25
                            x       y       z     vdW  Elec       q    Type
                         _______ _______ _______ _____ _____    ______ ____

>  <TORSDO>
F 9

$$$$
=
 OpenBabel11062414523D

 33 36  0  0  1  0  0  0  0  0999 V2000
  189.7720  176.7630  138.2120 C   0  0  0  0  0  0  0  0  0  0  0  0
  193.3890  176.8780  139.0100 N   0  0  0  0  0  1  0  0  0  0  0  0
  190.2560  176.5440  136.1380 C   0  0  0  0  0  3  0  0  0  0  0  0
  191.1250  176.7720  138.0660 C   0  0  0  0  0  0  0  0  0  0  0  0
  189.9790  177.0050  140.5900 C   0  0  0  0  0  0  0  0  0  0  0  0
  191.3890  177.0120  140.4370 C   0  0  0  0  0  3  0  0  0  0  0  0
  191.9750  176.8930  139.1630 C   0  0  0  0  0  0  0  0  0  0  0  0
  189.1530  176.8760  139.4560 C   0  0  0  0  0  3  0  0  0  0  0  0
  191.4580  176.6370  136.7690 N   0  0  0  0  0  0  0  0  0  0  0  0
  189.2160  176.6190  137.0030 N   0  0  0  0  0  0  0  0  0  0  0  0
  186.9080  175.3650  137.2930 O   0  0  0  0  0  0  0  0  0  0  0  0
  187.5310  176.5490  136.6090 S   0  0  0  0  0  0  0  0  0  0  0  0
  187.3700  176.3890  135.1240 O   0  0  0  0  0  0  0  0  0  0  0  0
  186.7190  178.0350  137.1510 C   0  0  0  0  0  2  0  0  0  0  0  0
  186.0530  177.7940  138.3510 O   0  0  0  0  0  0  0  0  0  0  0  0
  184.7210  178.1000  138.0800 C   0  0  0  0  0  2  0  0  0  0  0  0
  184.0440  179.1270  139.4160 S   0  0  0  0  0  0  0  0  0  0  0  0
  185.3720  178.6470  140.5690 C   0  0  1  0  0  3  0  0  0  0  0  0
  185.6700  179.7790  141.4670 N   0  0  0  0  0  2  0  0  0  0  0  0
  183.6140  178.9470  142.2810 O   0  0  0  0  0  1  0  0  0  0  0  0
  184.9340  178.6150  141.9650 C   0  0  1  0  0  0  0  0  0  0  0  0
  185.7390  177.8250  142.9750 C   0  0  0  0  0  1  0  0  0  0  0  0
  189.5190  176.2230  142.9860 C   0  0  0  0  0  0  0  0  0  0  0  0
  189.3590  177.1160  141.8780 N   0  0  0  0  0  2  0  0  0  0  0  0
  190.2660  175.2100  142.8980 O   0  0  0  0  0  0  0  0  0  0  0  0
  188.8240  176.4840  144.1690 O   0  0  0  0  0  0  0  0  0  0  0  0
  187.9830  177.7630  146.0670 C   0  0  0  0  0  2  0  0  0  0  0  0
  188.9680  178.3540  148.2960 C   0  0  0  0  0  1  0  0  0  0  0  0
  189.8770  176.3630  147.0610 C   0  0  0  0  0  2  0  0  0  0  0  0
  188.8910  177.7450  144.8280 C   0  0  1  0  0  3  0  0  0  0  0  0
  190.9300  177.1030  146.2250 C   0  0  0  0  0  2  0  0  0  0  0  0
  190.3360  178.0760  145.1970 C   0  0  0  0  0  2  0  0  0  0  0  0
  188.6390  177.2170  147.3460 C   0  0  2  0  0  3  0  0  0  0  0  0
  1  8  1  0  0  0  0
  2  7  1  0  0  0  0
  3  9  2  0  0  0  0
  3 10  1  0  0  0  0
  4  1  2  0  0  0  0
  4  7  1  0  0  0  0
  5 24  1  0  0  0  0
  6  5  1  0  0  0  0
  7  6  2  0  0  0  0
  8  5  2  0  0  0  0
  9  4  1  0  0  0  0
 10  1  1  0  0  0  0
 12 10  1  0  0  0  0
 12 14  1  0  0  0  0
 12 11  2  0  0  0  0
 13 12  2  0  0  0  0
 14 15  1  0  0  0  0
 16 15  1  0  0  0  0
 16 17  1  0  0  0  0
 18 17  1  6  0  0  0
 18 19  1  0  0  0  0
 18 21  1  0  0  0  0
 19 21  1  0  0  0  0
 21 20  1  0  0  0  0
 21 22  1  1  0  0  0
 23 26  1  0  0  0  0
 24 23  1  0  0  0  0
 25 23  2  0  0  0  0
 27 33  1  0  0  0  0
 29 33  1  0  0  0  0
 30 26  1  1  0  0  0
 30 32  1  0  0  0  0
 30 27  1  0  0  0  0
 31 29  1  0  0  0  0
 32 31  1  0  0  0  0
 33 28  1  1  0  0  0
M  END
>  <MODEL>
3

>  <REMARK>
 VINA RESULT:      -7.9      3.039      8.011
  Name = 
  9 active torsions:
  status: ('A' for Active; 'I' for Inactive)
    1  A    between atoms: C_2  and  S_25
    2  A    between atoms: S_8  and  C_18
    3  A    between atoms: S_8  and  N_32
    4  A    between atoms: C_11  and  O_16
    5  A    between atoms: O_13  and  C_18
    6  A    between atoms: O_13  and  C_23
    7  A    between atoms: C_14  and  N_22
    8  A    between atoms: O_16  and  C_19
    9  A    between atoms: C_23  and  S_25
                            x       y       z     vdW  Elec       q    Type
                         _______ _______ _______ _____ _____    ______ ____

>  <TORSDO>
F 9

$$$$
=
 OpenBabel11062414523D

 33 36  0  0  1  0  0  0  0  0999 V2000
  187.6400  177.8830  139.1350 C   0  0  0  0  0  0  0  0  0  0  0  0
  190.3400  176.4220  137.0590 N   0  0  0  0  0  1  0  0  0  0  0  0
  186.4690  178.1810  137.3680 C   0  0  0  0  0  3  0  0  0  0  0  0
  188.3440  177.4490  138.0550 C   0  0  0  0  0  0  0  0  0  0  0  0
  189.4250  177.2570  140.6100 C   0  0  0  0  0  0  0  0  0  0  0  0
  190.1570  176.8030  139.4830 C   0  0  0  0  0  3  0  0  0  0  0  0
  189.6160  176.8970  138.1880 C   0  0  0  0  0  0  0  0  0  0  0  0
  188.1390  177.8050  140.4340 C   0  0  0  0  0  3  0  0  0  0  0  0
  187.6310  177.6270  136.9260 N   0  0  0  0  0  0  0  0  0  0  0  0
  186.4570  178.3440  138.7120 N   0  0  0  0  0  0  0  0  0  0  0  0
  184.5570  180.1690  138.9250 O   0  0  0  0  0  0  0  0  0  0  0  0
  185.1760  179.0170  139.6640 S   0  0  0  0  0  0  0  0  0  0  0  0
  185.7310  179.5210  140.9660 O   0  0  0  0  0  0  0  0  0  0  0  0
  183.9350  177.7810  139.9720 C   0  0  0  0  0  2  0  0  0  0  0  0
  183.6800  177.7030  141.3400 O   0  0  0  0  0  0  0  0  0  0  0  0
  182.4400  178.3190  141.5000 C   0  0  0  0  0  2  0  0  0  0  0  0
  182.3330  179.0560  143.1560 S   0  0  0  0  0  0  0  0  0  0  0  0
  184.0810  178.6910  143.5210 C   0  0  1  0  0  3  0  0  0  0  0  0
  184.7240  179.8960  144.0800 N   0  0  0  0  0  2  0  0  0  0  0  0
  183.3900  179.0980  145.8590 O   0  0  0  0  0  1  0  0  0  0  0  0
  184.3950  178.7630  144.9480 C   0  0  1  0  0  0  0  0  0  0  0  0
  185.6360  178.0700  145.4700 C   0  0  0  0  0  1  0  0  0  0  0  0
  189.4330  176.3730  143.0150 C   0  0  0  0  0  0  0  0  0  0  0  0
  189.9520  177.1650  141.9400 N   0  0  0  0  0  2  0  0  0  0  0  0
  188.4090  175.6550  142.8540 O   0  0  0  0  0  0  0  0  0  0  0  0
  190.0750  176.4150  144.2550 O   0  0  0  0  0  0  0  0  0  0  0  0
  188.9970  177.9370  145.8250 C   0  0  0  0  0  2  0  0  0  0  0  0
  189.2510  178.3030  148.2930 C   0  0  0  0  0  1  0  0  0  0  0  0
  189.9610  176.0990  147.3170 C   0  0  0  0  0  2  0  0  0  0  0  0
  190.2440  177.6280  144.9820 C   0  0  1  0  0  3  0  0  0  0  0  0
  191.4010  176.4890  146.9540 C   0  0  0  0  0  2  0  0  0  0  0  0
  191.4970  177.5560  145.8540 C   0  0  0  0  0  2  0  0  0  0  0  0
  188.9840  177.2720  147.2110 C   0  0  2  0  0  3  0  0  0  0  0  0
  1  8  1  0  0  0  0
  2  7  1  0  0  0  0
  3 10  1  0  0  0  0
  4  7  1  0  0  0  0
  4  1  2  0  0  0  0
  5 24  1  0  0  0  0
  6  5  1  0  0  0  0
  7  6  2  0  0  0  0
  8  5  2  0  0  0  0
  9  3  2  0  0  0  0
  9  4  1  0  0  0  0
 10  1  1  0  0  0  0
 10 12  1  0  0  0  0
 11 12  2  0  0  0  0
 12 14  1  0  0  0  0
 12 13  2  0  0  0  0
 14 15  1  0  0  0  0
 15 16  1  0  0  0  0
 16 17  1  0  0  0  0
 18 17  1  1  0  0  0
 18 19  1  0  0  0  0
 18 21  1  0  0  0  0
 19 21  1  0  0  0  0
 21 22  1  1  0  0  0
 21 20  1  0  0  0  0
 23 26  1  0  0  0  0
 24 23  1  0  0  0  0
 25 23  2  0  0  0  0
 27 33  1  0  0  0  0
 30 26  1  1  0  0  0
 30 27  1  0  0  0  0
 30 32  1  0  0  0  0
 31 29  1  0  0  0  0
 32 31  1  0  0  0  0
 33 29  1  0  0  0  0
 33 28  1  1  0  0  0
M  END
>  <MODEL>
4

>  <REMARK>
 VINA RESULT:      -7.8      2.618      8.482
  Name = 
  9 active torsions:
  status: ('A' for Active; 'I' for Inactive)
    1  A    between atoms: C_2  and  S_25
    2  A    between atoms: S_8  and  C_18
    3  A    between atoms: S_8  and  N_32
    4  A    between atoms: C_11  and  O_16
    5  A    between atoms: O_13  and  C_18
    6  A    between atoms: O_13  and  C_23
    7  A    between atoms: C_14  and  N_22
    8  A    between atoms: O_16  and  C_19
    9  A    between atoms: C_23  and  S_25
                            x       y       z     vdW  Elec       q    Type
                         _______ _______ _______ _____ _____    ______ ____

>  <TORSDO>
F 9

$$$$
=
 OpenBabel11062414523D

 33 36  0  0  1  0  0  0  0  0999 V2000
  188.2060  177.4210  144.6440 C   0  0  0  0  0  0  0  0  0  0  0  0
  186.1070  178.7610  147.3900 N   0  0  0  0  0  1  0  0  0  0  0  0
  189.8410  177.2310  146.0130 C   0  0  0  0  0  3  0  0  0  0  0  0
  187.8140  177.8590  145.8720 C   0  0  0  0  0  0  0  0  0  0  0  0
  186.0340  177.8770  143.7340 C   0  0  0  0  0  0  0  0  0  0  0  0
  185.6260  178.3320  145.0150 C   0  0  0  0  0  3  0  0  0  0  0  0
  186.5210  178.3250  146.1000 C   0  0  0  0  0  0  0  0  0  0  0  0
  187.3500  177.4100  143.5450 C   0  0  0  0  0  3  0  0  0  0  0  0
  188.8260  177.7540  146.7540 N   0  0  0  0  0  0  0  0  0  0  0  0
  189.4810  177.0230  144.7250 N   0  0  0  0  0  0  0  0  0  0  0  0
  189.8490  175.1280  142.9190 O   0  0  0  0  0  0  0  0  0  0  0  0
  190.4760  176.3810  143.4600 S   0  0  0  0  0  0  0  0  0  0  0  0
  191.8320  176.0430  144.0120 O   0  0  0  0  0  0  0  0  0  0  0  0
  190.6340  177.5730  142.1490 C   0  0  0  0  0  2  0  0  0  0  0  0
  190.5120  176.9330  140.9170 O   0  0  0  0  0  0  0  0  0  0  0  0
  189.4160  177.5440  140.3130 C   0  0  0  0  0  2  0  0  0  0  0  0
  189.3900  177.1410  138.5420 S   0  0  0  0  0  0  0  0  0  0  0  0
  191.1130  176.5480  138.5680 C   0  0  1  0  0  3  0  0  0  0  0  0
  191.1490  175.1400  138.1280 N   0  0  0  0  0  2  0  0  0  0  0  0
  190.7870  176.3430  136.1270 O   0  0  0  0  0  1  0  0  0  0  0  0
  191.6210  176.2050  137.2400 C   0  0  1  0  0  0  0  0  0  0  0  0
  193.1160  176.1350  137.0140 C   0  0  0  0  0  1  0  0  0  0  0  0
  185.1240  178.7920  141.5210 C   0  0  0  0  0  0  0  0  0  0  0  0
  185.1380  177.8670  142.6150 N   0  0  0  0  0  2  0  0  0  0  0  0
  185.9550  179.7390  141.4640 O   0  0  0  0  0  0  0  0  0  0  0  0
  184.1650  178.6340  140.5170 O   0  0  0  0  0  0  0  0  0  0  0  0
  185.2810  178.1920  138.3960 C   0  0  0  0  0  2  0  0  0  0  0  0
  184.4800  177.2640  136.2080 C   0  0  0  0  0  1  0  0  0  0  0  0
  183.1720  176.7510  138.2910 C   0  0  0  0  0  2  0  0  0  0  0  0
  184.3610  179.1260  139.1950 C   0  0  1  0  0  3  0  0  0  0  0  0
  182.2660  177.9910  138.2760 C   0  0  0  0  0  2  0  0  0  0  0  0
  183.0170  179.3120  138.4930 C   0  0  0  0  0  2  0  0  0  0  0  0
  184.5600  177.0240  137.7050 C   0  0  2  0  0  3  0  0  0  0  0  0
  1 10  1  0  0  0  0
  1  4  1  0  0  0  0
  3  9  2  0  0  0  0
  4  7  2  0  0  0  0
  4  9  1  0  0  0  0
  5  6  2  0  0  0  0
  6  7  1  0  0  0  0
  7  2  1  0  0  0  0
  8  5  1  0  0  0  0
  8  1  2  0  0  0  0
 10  3  1  0  0  0  0
 11 12  2  0  0  0  0
 12 13  2  0  0  0  0
 12 10  1  0  0  0  0
 14 12  1  0  0  0  0
 15 14  1  0  0  0  0
 16 15  1  0  0  0  0
 17 16  1  0  0  0  0
 18 17  1  6  0  0  0
 19 18  1  0  0  0  0
 20 21  1  0  0  0  0
 21 22  1  6  0  0  0
 21 19  1  0  0  0  0
 21 18  1  0  0  0  0
 23 24  1  0  0  0  0
 24  5  1  0  0  0  0
 25 23  2  0  0  0  0
 26 23  1  0  0  0  0
 27 30  1  0  0  0  0
 30 26  1  1  0  0  0
 31 29  1  0  0  0  0
 31 32  1  0  0  0  0
 32 30  1  0  0  0  0
 33 28  1  6  0  0  0
 33 29  1  0  0  0  0
 33 27  1  0  0  0  0
M  END
>  <MODEL>
5

>  <REMARK>
 VINA RESULT:      -7.7      1.867      2.518
  Name = 
  9 active torsions:
  status: ('A' for Active; 'I' for Inactive)
    1  A    between atoms: C_2  and  S_25
    2  A    between atoms: S_8  and  C_18
    3  A    between atoms: S_8  and  N_32
    4  A    between atoms: C_11  and  O_16
    5  A    between atoms: O_13  and  C_18
    6  A    between atoms: O_13  and  C_23
    7  A    between atoms: C_14  and  N_22
    8  A    between atoms: O_16  and  C_19
    9  A    between atoms: C_23  and  S_25
                            x       y       z     vdW  Elec       q    Type
                         _______ _______ _______ _____ _____    ______ ____

>  <TORSDO>
F 9

$$$$
=
 OpenBabel11062414523D

 33 36  0  0  1  0  0  0  0  0999 V2000
  188.2130  177.6520  145.2360 C   0  0  0  0  0  0  0  0  0  0  0  0
  185.3080  178.5870  147.3400 N   0  0  0  0  0  1  0  0  0  0  0  0
  189.4320  177.5620  146.9940 C   0  0  0  0  0  3  0  0  0  0  0  0
  187.4560  177.9710  146.3210 C   0  0  0  0  0  0  0  0  0  0  0  0
  186.3250  177.9190  143.7800 C   0  0  0  0  0  0  0  0  0  0  0  0
  185.5360  178.2500  144.9130 C   0  0  0  0  0  3  0  0  0  0  0  0
  186.1020  178.2770  146.2010 C   0  0  0  0  0  0  0  0  0  0  0  0
  187.6900  177.6120  143.9450 C   0  0  0  0  0  3  0  0  0  0  0  0
  188.2000  177.9250  147.4430 N   0  0  0  0  0  0  0  0  0  0  0  0
  189.4590  177.3930  145.6510 N   0  0  0  0  0  0  0  0  0  0  0  0
  191.7650  176.1090  145.5160 O   0  0  0  0  0  0  0  0  0  0  0  0
  190.8270  176.9410  144.6890 S   0  0  0  0  0  0  0  0  0  0  0  0
  191.5490  178.1770  144.2340 O   0  0  0  0  0  0  0  0  0  0  0  0
  190.2920  175.9980  143.2790 C   0  0  0  0  0  2  0  0  0  0  0  0
  190.8530  176.5290  142.1190 O   0  0  0  0  0  0  0  0  0  0  0  0
  189.7660  176.7600  141.2790 C   0  0  0  0  0  2  0  0  0  0  0  0
  190.3590  177.2270  139.6270 S   0  0  0  0  0  0  0  0  0  0  0  0
  188.7810  178.0290  139.1970 C   0  0  1  0  0  3  0  0  0  0  0  0
  189.0520  179.2440  138.4040 N   0  0  0  0  0  2  0  0  0  0  0  0
  189.4520  177.4830  136.8820 O   0  0  0  0  0  1  0  0  0  0  0  0
  188.5190  178.0430  137.7570 C   0  0  1  0  0  0  0  0  0  0  0  0
  187.1020  178.2470  137.2640 C   0  0  0  0  0  1  0  0  0  0  0  0
  185.6500  178.9750  141.5460 C   0  0  0  0  0  0  0  0  0  0  0  0
  185.7690  177.8780  142.4590 N   0  0  0  0  0  2  0  0  0  0  0  0
  186.0520  180.1280  141.8620 O   0  0  0  0  0  0  0  0  0  0  0  0
  185.0680  178.7510  140.2960 O   0  0  0  0  0  0  0  0  0  0  0  0
  183.6160  179.2790  138.4100 C   0  0  0  0  0  2  0  0  0  0  0  0
  181.5920  178.1530  137.4480 C   0  0  0  0  0  1  0  0  0  0  0  0
  183.1860  176.7960  138.8380 C   0  0  0  0  0  2  0  0  0  0  0  0
  183.8060  179.3030  139.9350 C   0  0  1  0  0  3  0  0  0  0  0  0
  182.5630  177.0890  140.2110 C   0  0  0  0  0  2  0  0  0  0  0  0
  182.6770  178.5570  140.6440 C   0  0  0  0  0  2  0  0  0  0  0  0
  183.0410  177.9640  137.8600 C   0  0  2  0  0  3  0  0  0  0  0  0
  1 10  1  0  0  0  0
  1  4  1  0  0  0  0
  3  9  2  0  0  0  0
  4  9  1  0  0  0  0
  5  8  1  0  0  0  0
  5  6  2  0  0  0  0
  6  7  1  0  0  0  0
  7  4  2  0  0  0  0
  7  2  1  0  0  0  0
  8  1  2  0  0  0  0
 10  3  1  0  0  0  0
 12 11  2  0  0  0  0
 12 10  1  0  0  0  0
 13 12  2  0  0  0  0
 14 12  1  0  0  0  0
 15 14  1  0  0  0  0
 16 15  1  0  0  0  0
 17 16  1  0  0  0  0
 18 17  1  6  0  0  0
 19 18  1  0  0  0  0
 20 21  1  0  0  0  0
 21 22  1  6  0  0  0
 21 19  1  0  0  0  0
 21 18  1  0  0  0  0
 23 25  2  0  0  0  0
 23 24  1  0  0  0  0
 24  5  1  0  0  0  0
 26 23  1  0  0  0  0
 27 30  1  0  0  0  0
 29 31  1  0  0  0  0
 30 26  1  6  0  0  0
 30 32  1  0  0  0  0
 31 32  1  0  0  0  0
 33 28  1  1  0  0  0
 33 27  1  0  0  0  0
 33 29  1  0  0  0  0
M  END
>  <MODEL>
6

>  <REMARK>
 VINA RESULT:      -7.6      1.343      1.791
  Name = 
  9 active torsions:
  status: ('A' for Active; 'I' for Inactive)
    1  A    between atoms: C_2  and  S_25
    2  A    between atoms: S_8  and  C_18
    3  A    between atoms: S_8  and  N_32
    4  A    between atoms: C_11  and  O_16
    5  A    between atoms: O_13  and  C_18
    6  A    between atoms: O_13  and  C_23
    7  A    between atoms: C_14  and  N_22
    8  A    between atoms: O_16  and  C_19
    9  A    between atoms: C_23  and  S_25
                            x       y       z     vdW  Elec       q    Type
                         _______ _______ _______ _____ _____    ______ ____

>  <TORSDO>
F 9

$$$$
=
 OpenBabel11062414523D

 33 36  0  0  1  0  0  0  0  0999 V2000
  182.3420  179.0030  141.3990 C   0  0  0  0  0  0  0  0  0  0  0  0
  180.1750  178.8400  144.4010 N   0  0  0  0  0  1  0  0  0  0  0  0
  180.6080  179.3390  140.1890 C   0  0  0  0  0  3  0  0  0  0  0  0
  181.2370  179.0020  142.1930 C   0  0  0  0  0  0  0  0  0  0  0  0
  183.7630  178.6270  143.2950 C   0  0  0  0  0  0  0  0  0  0  0  0
  182.6100  178.6280  144.1220 C   0  0  0  0  0  3  0  0  0  0  0  0
  181.3300  178.8180  143.5710 C   0  0  0  0  0  0  0  0  0  0  0  0
  183.6270  178.8210  141.9060 C   0  0  0  0  0  3  0  0  0  0  0  0
  180.1290  179.2090  141.4560 N   0  0  0  0  0  0  0  0  0  0  0  0
  181.9560  179.2160  140.1360 N   0  0  0  0  0  0  0  0  0  0  0  0
  184.1270  180.2040  138.9970 O   0  0  0  0  0  0  0  0  0  0  0  0
  182.9510  179.3100  138.7210 S   0  0  0  0  0  0  0  0  0  0  0  0
  182.1560  179.8930  137.5870 O   0  0  0  0  0  0  0  0  0  0  0  0
  183.5350  177.6890  138.2820 C   0  0  0  0  0  2  0  0  0  0  0  0
  184.9230  177.6420  138.4000 O   0  0  0  0  0  0  0  0  0  0  0  0
  185.3620  177.1480  137.1740 C   0  0  0  0  0  2  0  0  0  0  0  0
  186.8550  178.0410  136.6530 S   0  0  0  0  0  0  0  0  0  0  0  0
  187.8690  177.2750  137.9580 C   0  0  1  0  0  3  0  0  0  0  0  0
  189.2560  177.1320  137.4760 N   0  0  0  0  0  2  0  0  0  0  0  0
  189.0550  179.4430  137.9250 O   0  0  0  0  0  1  0  0  0  0  0  0
  188.9190  178.1600  138.4620 C   0  0  1  0  0  0  0  0  0  0  0  0
  189.5420  177.8770  139.8130 C   0  0  0  0  0  1  0  0  0  0  0  0
  185.4820  178.6350  145.1950 C   0  0  0  0  0  0  0  0  0  0  0  0
  185.0790  178.4430  143.8340 N   0  0  0  0  0  2  0  0  0  0  0  0
  184.6500  179.0030  146.0700 O   0  0  0  0  0  0  0  0  0  0  0  0
  186.8180  178.4180  145.5410 O   0  0  0  0  0  0  0  0  0  0  0  0
  187.5930  176.6730  144.0250 C   0  0  0  0  0  2  0  0  0  0  0  0
  189.8710  176.0030  143.2200 C   0  0  0  0  0  1  0  0  0  0  0  0
  189.5340  178.3350  144.0920 C   0  0  0  0  0  2  0  0  0  0  0  0
  187.4180  177.1280  145.4820 C   0  0  1  0  0  3  0  0  0  0  0  0
  189.8010  178.0410  145.5750 C   0  0  0  0  0  2  0  0  0  0  0  0
  188.7520  177.1280  146.2250 C   0  0  0  0  0  2  0  0  0  0  0  0
  188.8920  177.1540  143.3590 C   0  0  2  0  0  3  0  0  0  0  0  0
  1  8  2  0  0  0  0
  1  4  1  0  0  0  0
  3  9  2  0  0  0  0
  4  7  2  0  0  0  0
  5 24  1  0  0  0  0
  5  6  2  0  0  0  0
  7  6  1  0  0  0  0
  7  2  1  0  0  0  0
  8  5  1  0  0  0  0
  9  4  1  0  0  0  0
 10  3  1  0  0  0  0
 10  1  1  0  0  0  0
 12 11  2  0  0  0  0
 12 10  1  0  0  0  0
 13 12  2  0  0  0  0
 14 15  1  0  0  0  0
 14 12  1  0  0  0  0
 16 15  1  0  0  0  0
 17 16  1  0  0  0  0
 18 17  1  6  0  0  0
 18 21  1  0  0  0  0
 19 18  1  0  0  0  0
 19 21  1  0  0  0  0
 20 21  1  0  0  0  0
 21 22  1  1  0  0  0
 23 26  1  0  0  0  0
 23 25  2  0  0  0  0
 24 23  1  0  0  0  0
 27 30  1  0  0  0  0
 29 31  1  0  0  0  0
 30 26  1  6  0  0  0
 30 32  1  0  0  0  0
 31 32  1  0  0  0  0
 33 28  1  1  0  0  0
 33 27  1  0  0  0  0
 33 29  1  0  0  0  0
M  END
>  <MODEL>
7

>  <REMARK>
 VINA RESULT:      -7.4      2.808      7.068
  Name = 
  9 active torsions:
  status: ('A' for Active; 'I' for Inactive)
    1  A    between atoms: C_2  and  S_25
    2  A    between atoms: S_8  and  C_18
    3  A    between atoms: S_8  and  N_32
    4  A    between atoms: C_11  and  O_16
    5  A    between atoms: O_13  and  C_18
    6  A    between atoms: O_13  and  C_23
    7  A    between atoms: C_14  and  N_22
    8  A    between atoms: O_16  and  C_19
    9  A    between atoms: C_23  and  S_25
                            x       y       z     vdW  Elec       q    Type
                         _______ _______ _______ _____ _____    ______ ____

>  <TORSDO>
F 9

$$$$
=
 OpenBabel11062414523D

 33 36  0  0  1  0  0  0  0  0999 V2000
  190.3360  176.9380  138.3910 C   0  0  0  0  0  0  0  0  0  0  0  0
  186.9690  178.4770  138.5760 N   0  0  0  0  0  1  0  0  0  0  0  0
  190.1900  176.9220  136.2550 C   0  0  0  0  0  3  0  0  0  0  0  0
  189.1330  177.4570  138.0220 C   0  0  0  0  0  0  0  0  0  0  0  0
  189.8260  177.2790  140.7100 C   0  0  0  0  0  0  0  0  0  0  0  0
  188.5720  177.8210  140.3240 C   0  0  0  0  0  3  0  0  0  0  0  0
  188.2160  177.9140  138.9650 C   0  0  0  0  0  0  0  0  0  0  0  0
  190.7270  176.8310  139.7240 C   0  0  0  0  0  3  0  0  0  0  0  0
  189.0130  177.4560  136.6800 N   0  0  0  0  0  0  0  0  0  0  0  0
  191.0090  176.5990  137.2840 N   0  0  0  0  0  0  0  0  0  0  0  0
  192.5560  174.5100  137.7600 O   0  0  0  0  0  0  0  0  0  0  0  0
  192.5860  175.8930  137.1740 S   0  0  0  0  0  0  0  0  0  0  0  0
  193.5640  176.7270  137.9520 O   0  0  0  0  0  0  0  0  0  0  0  0
  193.0900  175.7990  135.4710 C   0  0  0  0  0  2  0  0  0  0  0  0
  194.0600  174.8090  135.3230 O   0  0  0  0  0  0  0  0  0  0  0  0
  195.1590  175.4730  134.7820 C   0  0  0  0  0  2  0  0  0  0  0  0
  196.6750  174.5420  135.1470 S   0  0  0  0  0  0  0  0  0  0  0  0
  195.9910  173.8760  136.6990 C   0  0  1  0  0  3  0  0  0  0  0  0
  197.0320  173.0930  137.3940 N   0  0  0  0  0  2  0  0  0  0  0  0
  197.6880  175.3350  137.7490 O   0  0  0  0  0  1  0  0  0  0  0  0
  196.6450  174.4150  137.8920 C   0  0  1  0  0  0  0  0  0  0  0  0
  195.9370  174.3330  139.2270 C   0  0  0  0  0  1  0  0  0  0  0  0
  189.6080  176.3580  143.0910 C   0  0  0  0  0  0  0  0  0  0  0  0
  190.2140  177.1800  142.0860 N   0  0  0  0  0  2  0  0  0  0  0  0
  188.6270  175.6150  142.8130 O   0  0  0  0  0  0  0  0  0  0  0  0
  190.1150  176.3980  144.3920 O   0  0  0  0  0  0  0  0  0  0  0  0
  188.9450  177.9080  145.9060 C   0  0  0  0  0  2  0  0  0  0  0  0
  189.0770  178.2800  148.3820 C   0  0  0  0  0  1  0  0  0  0  0  0
  189.8590  176.0840  147.4450 C   0  0  0  0  0  2  0  0  0  0  0  0
  190.2340  177.6140  145.1230 C   0  0  1  0  0  3  0  0  0  0  0  0
  191.3100  176.4910  147.1500 C   0  0  0  0  0  2  0  0  0  0  0  0
  191.4450  177.5570  146.0540 C   0  0  0  0  0  2  0  0  0  0  0  0
  188.8740  177.2450  147.2900 C   0  0  2  0  0  3  0  0  0  0  0  0
  1  8  1  0  0  0  0
  2  7  1  0  0  0  0
  3  9  2  0  0  0  0
  3 10  1  0  0  0  0
  4  1  2  0  0  0  0
  4  7  1  0  0  0  0
  5 24  1  0  0  0  0
  6  5  1  0  0  0  0
  7  6  2  0  0  0  0
  8  5  2  0  0  0  0
  9  4  1  0  0  0  0
 10  1  1  0  0  0  0
 12 10  1  0  0  0  0
 12 11  2  0  0  0  0
 12 13  2  0  0  0  0
 14 12  1  0  0  0  0
 15 14  1  0  0  0  0
 16 17  1  0  0  0  0
 16 15  1  0  0  0  0
 18 17  1  6  0  0  0
 18 19  1  0  0  0  0
 18 21  1  0  0  0  0
 19 21  1  0  0  0  0
 20 21  1  0  0  0  0
 21 22  1  1  0  0  0
 23 26  1  0  0  0  0
 24 23  1  0  0  0  0
 25 23  2  0  0  0  0
 27 33  1  0  0  0  0
 30 26  1  1  0  0  0
 30 27  1  0  0  0  0
 30 32  1  0  0  0  0
 31 29  1  0  0  0  0
 32 31  1  0  0  0  0
 33 29  1  0  0  0  0
 33 28  1  1  0  0  0
M  END
>  <MODEL>
8

>  <REMARK>
 VINA RESULT:      -7.3      4.612      8.630
  Name = 
  9 active torsions:
  status: ('A' for Active; 'I' for Inactive)
    1  A    between atoms: C_2  and  S_25
    2  A    between atoms: S_8  and  C_18
    3  A    between atoms: S_8  and  N_32
    4  A    between atoms: C_11  and  O_16
    5  A    between atoms: O_13  and  C_18
    6  A    between atoms: O_13  and  C_23
    7  A    between atoms: C_14  and  N_22
    8  A    between atoms: O_16  and  C_19
    9  A    between atoms: C_23  and  S_25
                            x       y       z     vdW  Elec       q    Type
                         _______ _______ _______ _____ _____    ______ ____

>  <TORSDO>
F 9

$$$$
=
 OpenBabel11062414523D

 33 36  0  0  1  0  0  0  0  0999 V2000
  182.9320  178.8160  141.6670 C   0  0  0  0  0  0  0  0  0  0  0  0
  180.3290  178.7580  144.3050 N   0  0  0  0  0  1  0  0  0  0  0  0
  181.3970  179.0010  140.1850 C   0  0  0  0  0  3  0  0  0  0  0  0
  181.7170  178.8200  142.2810 C   0  0  0  0  0  0  0  0  0  0  0  0
  184.0510  178.6230  143.7800 C   0  0  0  0  0  0  0  0  0  0  0  0
  182.7840  178.6290  144.4180 C   0  0  0  0  0  3  0  0  0  0  0  0
  181.6000  178.7290  143.6650 C   0  0  0  0  0  0  0  0  0  0  0  0
  184.1270  178.7200  142.3760 C   0  0  0  0  0  3  0  0  0  0  0  0
  180.7310  178.9330  141.3700 N   0  0  0  0  0  0  0  0  0  0  0  0
  182.7400  178.9300  140.3470 N   0  0  0  0  0  0  0  0  0  0  0  0
  184.2980  180.4020  138.8000 O   0  0  0  0  0  0  0  0  0  0  0  0
  183.9400  178.9730  139.0990 S   0  0  0  0  0  0  0  0  0  0  0  0
  183.3880  178.3430  137.8520 O   0  0  0  0  0  0  0  0  0  0  0  0
  185.3960  178.1000  139.6270 C   0  0  0  0  0  2  0  0  0  0  0  0
  186.4410  179.0030  139.8160 O   0  0  0  0  0  0  0  0  0  0  0  0
  187.1800  178.4670  140.8690 C   0  0  0  0  0  2  0  0  0  0  0  0
  188.8000  177.9150  140.2600 S   0  0  0  0  0  0  0  0  0  0  0  0
  189.4120  177.5850  141.9450 C   0  0  1  0  0  3  0  0  0  0  0  0
  190.0020  176.2330  141.9920 N   0  0  0  0  0  2  0  0  0  0  0  0
  191.6170  177.5060  140.8290 O   0  0  0  0  0  1  0  0  0  0  0  0
  190.8650  177.4170  142.0030 C   0  0  1  0  0  0  0  0  0  0  0  0
  191.5770  177.5870  143.3280 C   0  0  0  0  0  1  0  0  0  0  0  0
  185.4140  178.6040  145.9490 C   0  0  0  0  0  0  0  0  0  0  0  0
  185.2720  178.5290  144.5260 N   0  0  0  0  0  2  0  0  0  0  0  0
  184.4080  178.7690  146.6920 O   0  0  0  0  0  0  0  0  0  0  0  0
  186.6910  178.5030  146.5060 O   0  0  0  0  0  0  0  0  0  0  0  0
  188.7140  177.2900  145.8880 C   0  0  0  0  0  2  0  0  0  0  0  0
  190.8150  176.7290  147.1360 C   0  0  0  0  0  1  0  0  0  0  0  0
  189.4230  178.6680  147.9210 C   0  0  0  0  0  2  0  0  0  0  0  0
  187.3690  177.2560  146.6310 C   0  0  1  0  0  3  0  0  0  0  0  0
  188.4790  177.8830  148.8440 C   0  0  0  0  0  2  0  0  0  0  0  0
  187.5610  176.9010  148.1040 C   0  0  0  0  0  2  0  0  0  0  0  0
  189.8840  177.8500  146.7120 C   0  0  2  0  0  3  0  0  0  0  0  0
  1  4  2  0  0  0  0
  1  8  1  0  0  0  0
  3 10  1  0  0  0  0
  3  9  2  0  0  0  0
  4  7  1  0  0  0  0
  5  6  1  0  0  0  0
  5 24  1  0  0  0  0
  7  2  1  0  0  0  0
  7  6  2  0  0  0  0
  8  5  2  0  0  0  0
  9  4  1  0  0  0  0
 10  1  1  0  0  0  0
 11 12  2  0  0  0  0
 12 14  1  0  0  0  0
 12 10  1  0  0  0  0
 13 12  2  0  0  0  0
 14 15  1  0  0  0  0
 15 16  1  0  0  0  0
 17 16  1  0  0  0  0
 18 17  1  6  0  0  0
 18 19  1  0  0  0  0
 18 21  1  0  0  0  0
 19 21  1  0  0  0  0
 20 21  1  0  0  0  0
 21 22  1  1  0  0  0
 23 26  1  0  0  0  0
 23 25  2  0  0  0  0
 24 23  1  0  0  0  0
 27 30  1  0  0  0  0
 27 33  1  0  0  0  0
 29 31  1  0  0  0  0
 30 26  1  1  0  0  0
 30 32  1  0  0  0  0
 32 31  1  0  0  0  0
 33 28  1  1  0  0  0
 33 29  1  0  0  0  0
M  END
>  <MODEL>
9

>  <REMARK>
 VINA RESULT:      -7.2      2.683      7.520
  Name = 
  9 active torsions:
  status: ('A' for Active; 'I' for Inactive)
    1  A    between atoms: C_2  and  S_25
    2  A    between atoms: S_8  and  C_18
    3  A    between atoms: S_8  and  N_32
    4  A    between atoms: C_11  and  O_16
    5  A    between atoms: O_13  and  C_18
    6  A    between atoms: O_13  and  C_23
    7  A    between atoms: C_14  and  N_22
    8  A    between atoms: O_16  and  C_19
    9  A    between atoms: C_23  and  S_25
                            x       y       z     vdW  Elec       q    Type
                         _______ _______ _______ _____ _____    ______ ____

>  <TORSDO>
F 9

$$$$
