=
 OpenBabel11062417233D

 45 49  0  0  1  0  0  0  0  0999 V2000
  189.1850  175.5290  136.9000 C   0  0  1  0  0  3  0  0  0  0  0  0
  189.4910  177.7710  137.7120 N   0  0  0  0  0  2  0  0  0  0  0  0
  188.7380  178.0900  136.1490 S   0  0  0  0  0  0  0  0  0  0  0  0
  190.1430  176.4820  137.5800 C   0  0  1  0  0  3  0  0  0  0  0  0
  188.3520  176.3270  135.9090 C   0  0  2  0  0  3  0  0  0  0  0  0
  189.9620  174.4530  136.1660 C   0  0  0  0  0  1  0  0  0  0  0  0
  186.6740  175.3500  137.3140 O   0  0  0  0  0  1  0  0  0  0  0  0
  186.8630  176.0670  136.1300 C   0  0  1  0  0  3  0  0  0  0  0  0
  186.1020  177.3820  136.2260 C   0  0  0  0  0  2  0  0  0  0  0  0
  185.1450  177.3740  137.4080 C   0  0  2  0  0  3  0  0  0  0  0  0
  183.7550  176.9280  137.0240 C   0  0  0  0  0  0  0  0  0  0  0  0
  183.3160  177.3140  135.9090 O   0  0  0  0  0  0  0  0  0  0  0  0
  182.8950  176.1690  137.8400 O   0  0  0  0  0  0  0  0  0  0  0  0
  183.4760  173.9790  136.8820 C   0  0  0  0  0  1  0  0  0  0  0  0
  182.4670  174.8180  137.6490 C   0  0  2  0  0  3  0  0  0  0  0  0
  181.1470  174.7660  137.0380 N   0  0  0  0  0  2  0  0  0  0  0  0
  180.3450  173.9610  137.8560 N   0  0  0  0  0  2  0  0  0  0  0  0
  180.1800  171.4480  137.4050 N   0  0  0  0  0  0  0  0  0  0  0  0
  180.2550  172.5850  137.6100 C   0  0  0  0  0  0  0  0  0  0  0  0
  185.1950  178.6880  138.1670 C   0  0  0  0  0  2  0  0  0  0  0  0
  185.7300  178.4760  139.5000 N   0  0  0  0  0  2  0  0  0  0  0  0
  184.8180  178.3220  141.7330 C   0  0  0  0  0  2  0  0  0  0  0  0
  184.7950  179.0890  140.4270 C   0  0  0  0  0  3  0  0  0  0  0  0
  183.6920  178.1020  140.7470 C   0  0  0  0  0  2  0  0  0  0  0  0
  190.5870  175.8530  139.2270 S   0  0  0  0  0  0  0  0  0  0  0  0
  190.6140  177.5180  139.9550 C   0  0  1  0  0  3  0  0  0  0  0  0
  189.4770  177.6480  140.9500 C   0  0  0  0  0  2  0  0  0  0  0  0
  190.0980  177.7570  142.2530 N   0  0  0  0  0  0  0  0  0  0  0  0
  191.9120  177.7170  140.7310 C   0  0  0  0  0  3  0  0  0  0  0  0
  191.5450  177.7720  142.2040 C   0  0  0  0  0  3  0  0  0  0  0  0
  188.0860  177.8470  143.4360 O   0  0  0  0  0  0  0  0  0  0  0  0
  189.3470  177.8590  143.4680 C   0  0  0  0  0  0  0  0  0  0  0  0
  190.0350  178.0210  144.7810 C   0  0  0  0  0  2  0  0  0  0  0  0
  192.2790  175.9050  146.2430 O   0  0  0  0  0  0  0  0  0  0  0  0
  191.2670  176.8430  146.5920 C   0  0  2  0  0  0  0  0  0  0  0  0
  189.8060  176.3720  146.7320 C   0  0  2  0  0  3  0  0  0  0  0  0
  190.3510  176.6500  145.3710 C   0  0  1  0  0  3  0  0  0  0  0  0
  191.8180  175.8080  147.5330 C   0  0  0  0  0  2  0  0  0  0  0  0
  187.6050  177.6230  146.8250 N   0  0  0  0  0  2  0  0  0  0  0  0
  189.3620  178.1650  148.2660 O   0  0  0  0  0  0  0  0  0  0  0  0
  188.9350  177.4500  147.3170 C   0  0  0  0  0  0  0  0  0  0  0  0
  186.7240  178.6600  147.3390 C   0  0  0  0  0  2  0  0  0  0  0  0
  185.5100  178.7520  146.4830 C   0  0  0  0  0  0  0  0  0  0  0  0
  185.5990  179.3050  145.2110 O   0  0  0  0  0  0  0  0  0  0  0  0
  184.3970  178.3580  146.9190 O   0  0  0  0  0  1  0  0  0  0  0  0
  1  6  1  6  0  0  0
  1  4  1  0  0  0  0
  3  2  1  0  0  0  0
  4  2  1  0  0  0  0
  4 25  1  1  0  0  0
  5  8  1  1  0  0  0
  5  3  1  0  0  0  0
  5  1  1  0  0  0  0
  8  9  1  0  0  0  0
  8  7  1  1  0  0  0
 10  9  1  6  0  0  0
 10 20  1  0  0  0  0
 11 10  1  0  0  0  0
 11 13  1  0  0  0  0
 12 11  2  0  0  0  0
 15 14  1  6  0  0  0
 15 13  1  0  0  0  0
 16 15  1  0  0  0  0
 16 17  1  0  0  0  0
 18 19  3  0  0  0  0
 19 17  1  0  0  0  0
 20 21  1  0  0  0  0
 21 23  1  0  0  0  0
 23 24  1  0  0  0  0
 23 22  1  0  0  0  0
 24 22  1  0  0  0  0
 26 25  1  1  0  0  0
 26 29  1  0  0  0  0
 26 27  1  0  0  0  0
 27 28  1  0  0  0  0
 28 32  1  0  0  0  0
 29 30  2  0  0  0  0
 30 28  1  0  0  0  0
 31 32  2  0  0  0  0
 32 33  1  0  0  0  0
 34 35  1  0  0  0  0
 34 38  1  0  0  0  0
 35 36  1  0  0  0  0
 35 38  1  1  0  0  0
 36 41  1  1  0  0  0
 37 33  1  1  0  0  0
 37 35  1  0  0  0  0
 37 36  1  0  0  0  0
 39 41  1  0  0  0  0
 39 42  1  0  0  0  0
 41 40  2  0  0  0  0
 43 45  1  0  0  0  0
 43 42  1  0  0  0  0
 44 43  2  0  0  0  0
M  END
>  <MODEL>
1

>  <REMARK>
 VINA RESULT:      -6.3      0.000      0.000
  Name = 
  19 active torsions:
  status: ('A' for Active; 'I' for Inactive)
    1  A    between atoms: N_1  and  C_12
    2  A    between atoms: C_3  and  S_30
    3  A    between atoms: N_4  and  C_10
    4  A    between atoms: N_4  and  C_42
    5  A    between atoms: N_6  and  N_16
    6  A    between atoms: N_6  and  C_45
    7  A    between atoms: C_7  and  C_21
    8  A    between atoms: C_7  and  C_33
    9  A    between atoms: C_12  and  C_40
   10  A    between atoms: C_14  and  C_35
   11  A    between atoms: N_16  and  C_27
   12  A    between atoms: C_17  and  C_37
   13  A    between atoms: C_17  and  C_38
   14  A    between atoms: C_18  and  O_23
   15  A    between atoms: C_18  and  C_38
   16  A    between atoms: O_23  and  C_45
   17  A    between atoms: S_30  and  C_32
   18  A    between atoms: C_37  and  C_39
   19  A    between atoms: C_38  and  C_42
                            x       y       z     vdW  Elec       q    Type
                         _______ _______ _______ _____ _____    ______ ____

>  <TORSDO>
F 19

$$$$
=
 OpenBabel11062417233D

 45 49  0  0  1  0  0  0  0  0999 V2000
  188.7640  175.4300  137.2850 C   0  0  1  0  0  3  0  0  0  0  0  0
  189.9800  177.5050  137.2880 N   0  0  0  0  0  2  0  0  0  0  0  0
  188.9200  177.7490  135.8990 S   0  0  0  0  0  0  0  0  0  0  0  0
  190.1300  176.0680  137.4230 C   0  0  1  0  0  3  0  0  0  0  0  0
  187.9560  176.2570  136.2970 C   0  0  2  0  0  3  0  0  0  0  0  0
  188.9080  174.0110  136.7680 C   0  0  0  0  0  1  0  0  0  0  0  0
  185.9590  177.5630  136.0750 O   0  0  0  0  0  1  0  0  0  0  0  0
  186.6030  176.6350  136.8960 C   0  0  1  0  0  3  0  0  0  0  0  0
  185.7190  175.4020  137.0300 C   0  0  0  0  0  2  0  0  0  0  0  0
  184.6640  175.3650  135.9350 C   0  0  2  0  0  3  0  0  0  0  0  0
  183.2630  175.5120  136.4760 C   0  0  0  0  0  0  0  0  0  0  0  0
  182.3890  175.9660  135.6920 O   0  0  0  0  0  0  0  0  0  0  0  0
  182.8750  175.2380  137.8010 O   0  0  0  0  0  0  0  0  0  0  0  0
  181.5430  176.1060  139.6800 C   0  0  0  0  0  1  0  0  0  0  0  0
  182.8570  176.1370  138.9150 C   0  0  2  0  0  3  0  0  0  0  0  0
  183.2120  177.4870  138.5070 N   0  0  0  0  0  2  0  0  0  0  0  0
  183.1170  178.3000  139.6420 N   0  0  0  0  0  2  0  0  0  0  0  0
  185.2140  179.4180  140.5910 N   0  0  0  0  0  0  0  0  0  0  0  0
  184.2650  178.9120  140.1620 C   0  0  0  0  0  0  0  0  0  0  0  0
  184.8620  174.1700  135.0190 C   0  0  0  0  0  2  0  0  0  0  0  0
  183.7980  173.2040  135.2220 N   0  0  0  0  0  2  0  0  0  0  0  0
  183.4700  170.8520  135.6730 C   0  0  0  0  0  2  0  0  0  0  0  0
  184.4100  172.0310  135.8230 C   0  0  0  0  0  3  0  0  0  0  0  0
  183.5670  171.5780  136.9970 C   0  0  0  0  0  2  0  0  0  0  0  0
  190.8400  175.6790  139.0490 S   0  0  0  0  0  0  0  0  0  0  0  0
  190.5350  177.3540  139.6840 C   0  0  1  0  0  3  0  0  0  0  0  0
  189.3350  177.3280  140.6110 C   0  0  0  0  0  2  0  0  0  0  0  0
  189.8480  177.6040  141.9360 N   0  0  0  0  0  0  0  0  0  0  0  0
  191.7290  177.8140  140.5140 C   0  0  0  0  0  3  0  0  0  0  0  0
  191.2710  177.8710  141.9600 C   0  0  0  0  0  3  0  0  0  0  0  0
  187.7830  177.3930  143.0060 O   0  0  0  0  0  0  0  0  0  0  0  0
  189.0180  177.6290  143.1030 C   0  0  0  0  0  0  0  0  0  0  0  0
  189.5880  177.9700  144.4380 C   0  0  0  0  0  2  0  0  0  0  0  0
  192.0560  176.2220  146.0220 O   0  0  0  0  0  0  0  0  0  0  0  0
  190.9660  177.0910  146.3130 C   0  0  2  0  0  0  0  0  0  0  0  0
  189.5600  176.5000  146.5410 C   0  0  2  0  0  3  0  0  0  0  0  0
  190.0470  176.6970  145.1440 C   0  0  1  0  0  3  0  0  0  0  0  0
  191.6340  176.2080  147.3290 C   0  0  0  0  0  2  0  0  0  0  0  0
  187.2350  177.5010  146.6390 N   0  0  0  0  0  2  0  0  0  0  0  0
  188.9970  178.4220  147.8660 O   0  0  0  0  0  0  0  0  0  0  0  0
  188.6030  177.5440  147.0490 C   0  0  0  0  0  0  0  0  0  0  0  0
  186.2680  178.4920  147.0830 C   0  0  0  0  0  2  0  0  0  0  0  0
  185.2520  178.7100  146.0180 C   0  0  0  0  0  0  0  0  0  0  0  0
  185.6480  178.7890  144.6890 O   0  0  0  0  0  0  0  0  0  0  0  0
  184.0380  178.8520  146.3210 O   0  0  0  0  0  1  0  0  0  0  0  0
  1  6  1  6  0  0  0
  1  4  1  0  0  0  0
  2  4  1  0  0  0  0
  3  5  1  0  0  0  0
  3  2  1  0  0  0  0
  4 25  1  1  0  0  0
  5  8  1  1  0  0  0
  5  1  1  0  0  0  0
  8  7  1  6  0  0  0
  8  9  1  0  0  0  0
 10 20  1  1  0  0  0
 10 11  1  0  0  0  0
 10  9  1  0  0  0  0
 11 13  1  0  0  0  0
 12 11  2  0  0  0  0
 13 15  1  0  0  0  0
 15 14  1  6  0  0  0
 16 15  1  0  0  0  0
 16 17  1  0  0  0  0
 17 19  1  0  0  0  0
 19 18  3  0  0  0  0
 20 21  1  0  0  0  0
 21 23  1  0  0  0  0
 22 23  1  0  0  0  0
 22 24  1  0  0  0  0
 23 24  1  0  0  0  0
 26 25  1  1  0  0  0
 26 29  1  0  0  0  0
 26 27  1  0  0  0  0
 27 28  1  0  0  0  0
 28 30  1  0  0  0  0
 28 32  1  0  0  0  0
 29 30  2  0  0  0  0
 31 32  2  0  0  0  0
 32 33  1  0  0  0  0
 34 35  1  0  0  0  0
 34 38  1  0  0  0  0
 35 36  1  0  0  0  0
 35 38  1  1  0  0  0
 36 41  1  6  0  0  0
 37 33  1  6  0  0  0
 37 35  1  0  0  0  0
 37 36  1  0  0  0  0
 39 41  1  0  0  0  0
 39 42  1  0  0  0  0
 41 40  2  0  0  0  0
 43 45  1  0  0  0  0
 43 42  1  0  0  0  0
 44 43  2  0  0  0  0
M  END
>  <MODEL>
2

>  <REMARK>
 VINA RESULT:      -6.0      1.561      3.531
  Name = 
  19 active torsions:
  status: ('A' for Active; 'I' for Inactive)
    1  A    between atoms: N_1  and  C_12
    2  A    between atoms: C_3  and  S_30
    3  A    between atoms: N_4  and  C_10
    4  A    between atoms: N_4  and  C_42
    5  A    between atoms: N_6  and  N_16
    6  A    between atoms: N_6  and  C_45
    7  A    between atoms: C_7  and  C_21
    8  A    between atoms: C_7  and  C_33
    9  A    between atoms: C_12  and  C_40
   10  A    between atoms: C_14  and  C_35
   11  A    between atoms: N_16  and  C_27
   12  A    between atoms: C_17  and  C_37
   13  A    between atoms: C_17  and  C_38
   14  A    between atoms: C_18  and  O_23
   15  A    between atoms: C_18  and  C_38
   16  A    between atoms: O_23  and  C_45
   17  A    between atoms: S_30  and  C_32
   18  A    between atoms: C_37  and  C_39
   19  A    between atoms: C_38  and  C_42
                            x       y       z     vdW  Elec       q    Type
                         _______ _______ _______ _____ _____    ______ ____

>  <TORSDO>
F 19

$$$$
=
 OpenBabel11062417233D

 45 49  0  0  1  0  0  0  0  0999 V2000
  188.5550  176.6380  136.6070 C   0  0  1  0  0  3  0  0  0  0  0  0
  187.4200  178.7030  136.1320 N   0  0  0  0  0  2  0  0  0  0  0  0
  186.8210  177.6920  134.8170 S   0  0  0  0  0  0  0  0  0  0  0  0
  188.7020  178.1410  136.5100 C   0  0  1  0  0  3  0  0  0  0  0  0
  187.5460  176.1950  135.5580 C   0  0  2  0  0  3  0  0  0  0  0  0
  189.8920  175.9700  136.3460 C   0  0  0  0  0  1  0  0  0  0  0  0
  187.0440  174.3190  136.9620 O   0  0  0  0  0  1  0  0  0  0  0  0
  186.4600  175.3290  136.1930 C   0  0  1  0  0  3  0  0  0  0  0  0
  185.5630  176.1720  137.0890 C   0  0  0  0  0  2  0  0  0  0  0  0
  184.1300  176.1740  136.5790 C   0  0  2  0  0  3  0  0  0  0  0  0
  183.1290  176.4800  137.6670 C   0  0  0  0  0  0  0  0  0  0  0  0
  183.3720  176.0220  138.8150 O   0  0  0  0  0  0  0  0  0  0  0  0
  181.9230  177.1800  137.4830 O   0  0  0  0  0  0  0  0  0  0  0  0
  179.5120  177.0100  137.9440 C   0  0  0  0  0  1  0  0  0  0  0  0
  180.8890  177.4180  138.4430 C   0  0  2  0  0  3  0  0  0  0  0  0
  180.9080  178.7970  138.9060 N   0  0  0  0  0  2  0  0  0  0  0  0
  181.8650  179.4760  138.1420 N   0  0  0  0  0  2  0  0  0  0  0  0
  184.0570  180.2350  139.2220 N   0  0  0  0  0  0  0  0  0  0  0  0
  183.0650  179.8910  138.7340 C   0  0  0  0  0  0  0  0  0  0  0  0
  183.8260  174.9170  135.7820 C   0  0  0  0  0  2  0  0  0  0  0  0
  183.0780  173.9780  136.5970 N   0  0  0  0  0  2  0  0  0  0  0  0
  183.0200  171.6050  137.0530 C   0  0  0  0  0  2  0  0  0  0  0  0
  183.2650  172.6670  136.0000 C   0  0  0  0  0  3  0  0  0  0  0  0
  184.4360  171.9780  136.6700 C   0  0  0  0  0  2  0  0  0  0  0  0
  189.2170  178.8230  138.1140 S   0  0  0  0  0  0  0  0  0  0  0  0
  188.1870  177.6500  139.0450 C   0  0  1  0  0  3  0  0  0  0  0  0
  188.9340  177.2050  140.2880 C   0  0  0  0  0  2  0  0  0  0  0  0
  188.2050  177.7580  141.4100 N   0  0  0  0  0  0  0  0  0  0  0  0
  186.9140  178.3460  139.5150 C   0  0  0  0  0  3  0  0  0  0  0  0
  187.0100  178.4770  141.0250 C   0  0  0  0  0  3  0  0  0  0  0  0
  189.6730  176.9410  143.0330 O   0  0  0  0  0  0  0  0  0  0  0  0
  188.6230  177.5870  142.7700 C   0  0  0  0  0  0  0  0  0  0  0  0
  187.8080  178.1340  143.8930 C   0  0  0  0  0  2  0  0  0  0  0  0
  189.1020  176.9970  146.8400 O   0  0  0  0  0  0  0  0  0  0  0  0
  188.0880  177.8680  146.3500 C   0  0  2  0  0  0  0  0  0  0  0  0
  186.6840  177.3100  146.0470 C   0  0  2  0  0  3  0  0  0  0  0  0
  187.7700  177.1280  145.0400 C   0  0  1  0  0  3  0  0  0  0  0  0
  188.1310  177.3310  147.7530 C   0  0  0  0  0  2  0  0  0  0  0  0
  184.7590  178.2550  144.6970 N   0  0  0  0  0  2  0  0  0  0  0  0
  185.6920  179.4560  146.4700 O   0  0  0  0  0  0  0  0  0  0  0  0
  185.7050  178.4160  145.7560 C   0  0  0  0  0  0  0  0  0  0  0  0
  183.8020  179.2960  144.3570 C   0  0  0  0  0  2  0  0  0  0  0  0
  183.1260  178.9530  143.0770 C   0  0  0  0  0  0  0  0  0  0  0  0
  181.7840  179.2630  142.8960 O   0  0  0  0  0  1  0  0  0  0  0  0
  183.7600  178.3550  142.1680 O   0  0  0  0  0  0  0  0  0  0  0  0
  1  6  1  6  0  0  0
  2  4  1  0  0  0  0
  3  5  1  0  0  0  0
  3  2  1  0  0  0  0
  4  1  1  0  0  0  0
  4 25  1  1  0  0  0
  5  8  1  1  0  0  0
  5  1  1  0  0  0  0
  8  7  1  1  0  0  0
  8  9  1  0  0  0  0
 10 20  1  1  0  0  0
 10  9  1  0  0  0  0
 10 11  1  0  0  0  0
 11 12  2  0  0  0  0
 13 11  1  0  0  0  0
 13 15  1  0  0  0  0
 15 14  1  6  0  0  0
 15 16  1  0  0  0  0
 17 19  1  0  0  0  0
 17 16  1  0  0  0  0
 19 18  3  0  0  0  0
 20 21  1  0  0  0  0
 23 21  1  0  0  0  0
 23 24  1  0  0  0  0
 23 22  1  0  0  0  0
 24 22  1  0  0  0  0
 26 25  1  1  0  0  0
 26 29  1  0  0  0  0
 26 27  1  0  0  0  0
 27 28  1  0  0  0  0
 28 32  1  0  0  0  0
 29 30  2  0  0  0  0
 30 28  1  0  0  0  0
 32 31  2  0  0  0  0
 32 33  1  0  0  0  0
 34 38  1  0  0  0  0
 35 34  1  0  0  0  0
 35 38  1  6  0  0  0
 36 41  1  6  0  0  0
 36 35  1  0  0  0  0
 37 33  1  6  0  0  0
 37 36  1  0  0  0  0
 37 35  1  0  0  0  0
 39 41  1  0  0  0  0
 41 40  2  0  0  0  0
 42 39  1  0  0  0  0
 43 42  1  0  0  0  0
 44 43  1  0  0  0  0
 45 43  2  0  0  0  0
M  END
>  <MODEL>
3

>  <REMARK>
 VINA RESULT:      -5.9      2.267      4.219
  Name = 
  19 active torsions:
  status: ('A' for Active; 'I' for Inactive)
    1  A    between atoms: N_1  and  C_12
    2  A    between atoms: C_3  and  S_30
    3  A    between atoms: N_4  and  C_10
    4  A    between atoms: N_4  and  C_42
    5  A    between atoms: N_6  and  N_16
    6  A    between atoms: N_6  and  C_45
    7  A    between atoms: C_7  and  C_21
    8  A    between atoms: C_7  and  C_33
    9  A    between atoms: C_12  and  C_40
   10  A    between atoms: C_14  and  C_35
   11  A    between atoms: N_16  and  C_27
   12  A    between atoms: C_17  and  C_37
   13  A    between atoms: C_17  and  C_38
   14  A    between atoms: C_18  and  O_23
   15  A    between atoms: C_18  and  C_38
   16  A    between atoms: O_23  and  C_45
   17  A    between atoms: S_30  and  C_32
   18  A    between atoms: C_37  and  C_39
   19  A    between atoms: C_38  and  C_42
                            x       y       z     vdW  Elec       q    Type
                         _______ _______ _______ _____ _____    ______ ____

>  <TORSDO>
F 19

$$$$
=
 OpenBabel11062417233D

 45 49  0  0  1  0  0  0  0  0999 V2000
  183.1900  176.4560  137.9020 C   0  0  1  0  0  3  0  0  0  0  0  0
  182.6880  177.9030  136.0490 N   0  0  0  0  0  2  0  0  0  0  0  0
  181.6580  178.6030  137.2980 S   0  0  0  0  0  0  0  0  0  0  0  0
  182.8740  176.5140  136.4230 C   0  0  1  0  0  3  0  0  0  0  0  0
  182.4260  177.5780  138.5910 C   0  0  2  0  0  3  0  0  0  0  0  0
  182.7560  175.1180  138.4700 C   0  0  0  0  0  1  0  0  0  0  0  0
  182.9240  179.7380  139.5000 O   0  0  0  0  0  1  0  0  0  0  0  0
  183.3690  178.4150  139.4530 C   0  0  1  0  0  3  0  0  0  0  0  0
  183.4220  177.8640  140.8710 C   0  0  0  0  0  2  0  0  0  0  0  0
  184.1130  178.8410  141.8110 C   0  0  2  0  0  3  0  0  0  0  0  0
  185.5680  178.5020  142.0290 C   0  0  0  0  0  0  0  0  0  0  0  0
  186.4000  179.0020  141.2270 O   0  0  0  0  0  0  0  0  0  0  0  0
  186.0550  177.6250  143.0160 O   0  0  0  0  0  0  0  0  0  0  0  0
  188.2170  176.4660  143.2090 C   0  0  0  0  0  1  0  0  0  0  0  0
  187.3420  177.6320  143.6410 C   0  0  2  0  0  3  0  0  0  0  0  0
  187.2230  177.7090  145.0890 N   0  0  0  0  0  2  0  0  0  0  0  0
  188.4370  177.2650  145.6270 N   0  0  0  0  0  2  0  0  0  0  0  0
  188.9900  177.7280  148.0810 N   0  0  0  0  0  0  0  0  0  0  0  0
  188.7400  177.5190  146.9710 C   0  0  0  0  0  0  0  0  0  0  0  0
  183.3160  179.0350  143.0880 C   0  0  0  0  0  2  0  0  0  0  0  0
  182.0220  178.3880  142.9730 N   0  0  0  0  0  2  0  0  0  0  0  0
  179.8900  178.6760  144.0740 C   0  0  0  0  0  2  0  0  0  0  0  0
  181.0260  179.3740  143.3560 C   0  0  0  0  0  3  0  0  0  0  0  0
  179.7320  179.0830  142.6250 C   0  0  0  0  0  2  0  0  0  0  0  0
  184.2430  175.8020  135.4640 S   0  0  0  0  0  0  0  0  0  0  0  0
  185.4780  176.2600  136.7160 C   0  0  1  0  0  3  0  0  0  0  0  0
  186.3530  175.0590  137.0200 C   0  0  0  0  0  2  0  0  0  0  0  0
  187.6700  175.3880  136.5170 N   0  0  0  0  0  0  0  0  0  0  0  0
  186.3910  177.3490  136.1620 C   0  0  0  0  0  3  0  0  0  0  0  0
  187.7600  176.7230  135.9630 C   0  0  0  0  0  3  0  0  0  0  0  0
  188.6290  173.3360  137.0860 O   0  0  0  0  0  0  0  0  0  0  0  0
  188.7780  174.4820  136.5830 C   0  0  0  0  0  0  0  0  0  0  0  0
  190.1280  174.8900  136.0960 C   0  0  0  0  0  2  0  0  0  0  0  0
  192.9670  173.0980  135.4800 O   0  0  0  0  0  0  0  0  0  0  0  0
  192.5510  174.3320  136.0560 C   0  0  2  0  0  0  0  0  0  0  0  0
  192.1800  174.3890  137.5510 C   0  0  2  0  0  3  0  0  0  0  0  0
  191.1730  173.8850  136.5730 C   0  0  1  0  0  3  0  0  0  0  0  0
  193.8960  173.7050  136.2890 C   0  0  0  0  0  2  0  0  0  0  0  0
  191.0060  176.0910  139.0160 N   0  0  0  0  0  2  0  0  0  0  0  0
  192.7110  176.7310  137.5530 O   0  0  0  0  0  0  0  0  0  0  0  0
  191.9850  175.8070  138.0140 C   0  0  0  0  0  0  0  0  0  0  0  0
  190.7600  177.4430  139.4900 C   0  0  0  0  0  2  0  0  0  0  0  0
  189.3670  177.8440  139.1530 C   0  0  0  0  0  0  0  0  0  0  0  0
  188.3170  176.9650  139.3860 O   0  0  0  0  0  1  0  0  0  0  0  0
  189.1420  178.9660  138.6290 O   0  0  0  0  0  0  0  0  0  0  0  0
  1  6  1  1  0  0  0
  1  5  1  0  0  0  0
  2  4  1  0  0  0  0
  2  3  1  0  0  0  0
  3  5  1  0  0  0  0
  4 25  1  6  0  0  0
  4  1  1  0  0  0  0
  5  8  1  6  0  0  0
  8  7  1  1  0  0  0
  8  9  1  0  0  0  0
 10  9  1  1  0  0  0
 10 11  1  0  0  0  0
 10 20  1  0  0  0  0
 11 13  1  0  0  0  0
 12 11  2  0  0  0  0
 13 15  1  0  0  0  0
 15 14  1  1  0  0  0
 15 16  1  0  0  0  0
 16 17  1  0  0  0  0
 17 19  1  0  0  0  0
 19 18  3  0  0  0  0
 21 20  1  0  0  0  0
 21 23  1  0  0  0  0
 23 22  1  0  0  0  0
 24 23  1  0  0  0  0
 24 22  1  0  0  0  0
 26 25  1  6  0  0  0
 26 27  1  0  0  0  0
 28 32  1  0  0  0  0
 28 27  1  0  0  0  0
 29 26  1  0  0  0  0
 30 29  2  0  0  0  0
 30 28  1  0  0  0  0
 32 31  2  0  0  0  0
 33 32  1  0  0  0  0
 34 35  1  0  0  0  0
 34 38  1  0  0  0  0
 35 38  1  6  0  0  0
 35 37  1  0  0  0  0
 35 36  1  0  0  0  0
 36 41  1  6  0  0  0
 37 33  1  6  0  0  0
 37 36  1  0  0  0  0
 39 42  1  0  0  0  0
 40 41  2  0  0  0  0
 41 39  1  0  0  0  0
 43 44  1  0  0  0  0
 43 42  1  0  0  0  0
 45 43  2  0  0  0  0
M  END
>  <MODEL>
4

>  <REMARK>
 VINA RESULT:      -5.9      3.281      8.267
  Name = 
  19 active torsions:
  status: ('A' for Active; 'I' for Inactive)
    1  A    between atoms: N_1  and  C_12
    2  A    between atoms: C_3  and  S_30
    3  A    between atoms: N_4  and  C_10
    4  A    between atoms: N_4  and  C_42
    5  A    between atoms: N_6  and  N_16
    6  A    between atoms: N_6  and  C_45
    7  A    between atoms: C_7  and  C_21
    8  A    between atoms: C_7  and  C_33
    9  A    between atoms: C_12  and  C_40
   10  A    between atoms: C_14  and  C_35
   11  A    between atoms: N_16  and  C_27
   12  A    between atoms: C_17  and  C_37
   13  A    between atoms: C_17  and  C_38
   14  A    between atoms: C_18  and  O_23
   15  A    between atoms: C_18  and  C_38
   16  A    between atoms: O_23  and  C_45
   17  A    between atoms: S_30  and  C_32
   18  A    between atoms: C_37  and  C_39
   19  A    between atoms: C_38  and  C_42
                            x       y       z     vdW  Elec       q    Type
                         _______ _______ _______ _____ _____    ______ ____

>  <TORSDO>
F 19

$$$$
=
 OpenBabel11062417233D

 45 49  0  0  1  0  0  0  0  0999 V2000
  191.3140  177.6850  141.4180 C   0  0  1  0  0  3  0  0  0  0  0  0
  189.2430  176.4640  141.4020 N   0  0  0  0  0  2  0  0  0  0  0  0
  190.0910  175.6500  142.7170 S   0  0  0  0  0  0  0  0  0  0  0  0
  190.2760  177.0130  140.5450 C   0  0  1  0  0  3  0  0  0  0  0  0
  191.4130  176.9020  142.7190 C   0  0  2  0  0  3  0  0  0  0  0  0
  192.6580  177.6830  140.7160 C   0  0  0  0  0  1  0  0  0  0  0  0
  192.0520  178.9780  143.7320 O   0  0  0  0  0  1  0  0  0  0  0  0
  191.2670  177.8370  143.9180 C   0  0  1  0  0  3  0  0  0  0  0  0
  189.8150  178.2630  144.0870 C   0  0  0  0  0  2  0  0  0  0  0  0
  189.1130  177.4040  145.1280 C   0  0  2  0  0  3  0  0  0  0  0  0
  187.6100  177.5300  145.0630 C   0  0  0  0  0  0  0  0  0  0  0  0
  186.9620  176.5000  144.7420 O   0  0  0  0  0  0  0  0  0  0  0  0
  186.8880  178.7200  145.2730 O   0  0  0  0  0  0  0  0  0  0  0  0
  186.5220  178.9140  147.6980 C   0  0  0  0  0  1  0  0  0  0  0  0
  185.9320  178.9990  146.3000 C   0  0  2  0  0  3  0  0  0  0  0  0
  184.7520  178.1600  146.1610 N   0  0  0  0  0  2  0  0  0  0  0  0
  183.6810  179.0030  145.8400 N   0  0  0  0  0  2  0  0  0  0  0  0
  182.7010  178.9800  143.4770 N   0  0  0  0  0  0  0  0  0  0  0  0
  183.1450  178.9910  144.5460 C   0  0  0  0  0  0  0  0  0  0  0  0
  189.7020  177.6230  146.5110 C   0  0  0  0  0  2  0  0  0  0  0  0
  190.3040  176.3950  146.9970 N   0  0  0  0  0  2  0  0  0  0  0  0
  192.4110  175.2540  146.6790 C   0  0  0  0  0  2  0  0  0  0  0  0
  191.7430  176.5880  146.9450 C   0  0  0  0  0  3  0  0  0  0  0  0
  192.3880  175.8220  148.0820 C   0  0  0  0  0  2  0  0  0  0  0  0
  189.5430  178.2210  139.4030 S   0  0  0  0  0  0  0  0  0  0  0  0
  187.9560  177.3380  139.3440 C   0  0  1  0  0  3  0  0  0  0  0  0
  186.9760  178.0040  140.2900 C   0  0  0  0  0  2  0  0  0  0  0  0
  185.9540  178.5970  139.4530 N   0  0  0  0  0  0  0  0  0  0  0  0
  187.3630  177.4400  137.9420 C   0  0  0  0  0  3  0  0  0  0  0  0
  186.1370  178.3310  138.0420 C   0  0  0  0  0  3  0  0  0  0  0  0
  184.7590  179.5420  141.2230 O   0  0  0  0  0  0  0  0  0  0  0  0
  184.8600  179.3560  139.9800 C   0  0  0  0  0  0  0  0  0  0  0  0
  183.8050  179.9020  139.0780 C   0  0  0  0  0  2  0  0  0  0  0  0
  182.2890  176.8770  139.5310 O   0  0  0  0  0  0  0  0  0  0  0  0
  182.0060  178.2700  139.6130 C   0  0  2  0  0  0  0  0  0  0  0  0
  181.5040  179.0210  138.3640 C   0  0  2  0  0  3  0  0  0  0  0  0
  182.9650  178.7590  138.5140 C   0  0  1  0  0  3  0  0  0  0  0  0
  180.9540  177.1990  139.5400 C   0  0  0  0  0  2  0  0  0  0  0  0
  180.9380  181.3900  137.6680 N   0  0  0  0  0  2  0  0  0  0  0  0
  180.7390  180.7070  139.8930 O   0  0  0  0  0  0  0  0  0  0  0  0
  181.0540  180.4150  138.7060 C   0  0  0  0  0  0  0  0  0  0  0  0
  180.5250  182.7580  137.9400 C   0  0  0  0  0  2  0  0  0  0  0  0
  181.3220  183.6960  137.1030 C   0  0  0  0  0  0  0  0  0  0  0  0
  180.9930  183.8820  135.7660 O   0  0  0  0  0  0  0  0  0  0  0  0
  182.3120  184.2970  137.5950 O   0  0  0  0  0  1  0  0  0  0  0  0
  1  6  1  6  0  0  0
  1  5  1  0  0  0  0
  2  3  1  0  0  0  0
  3  5  1  0  0  0  0
  4 25  1  6  0  0  0
  4  2  1  0  0  0  0
  4  1  1  0  0  0  0
  5  8  1  1  0  0  0
  8  7  1  6  0  0  0
  8  9  1  0  0  0  0
 10  9  1  6  0  0  0
 10 20  1  0  0  0  0
 11 10  1  0  0  0  0
 11 13  1  0  0  0  0
 12 11  2  0  0  0  0
 13 15  1  0  0  0  0
 15 14  1  1  0  0  0
 16 15  1  0  0  0  0
 17 16  1  0  0  0  0
 18 19  3  0  0  0  0
 19 17  1  0  0  0  0
 20 21  1  0  0  0  0
 22 23  1  0  0  0  0
 22 24  1  0  0  0  0
 23 21  1  0  0  0  0
 23 24  1  0  0  0  0
 26 25  1  6  0  0  0
 26 27  1  0  0  0  0
 28 32  1  0  0  0  0
 28 27  1  0  0  0  0
 29 30  2  0  0  0  0
 29 26  1  0  0  0  0
 30 28  1  0  0  0  0
 32 31  2  0  0  0  0
 33 32  1  0  0  0  0
 34 38  1  0  0  0  0
 34 35  1  0  0  0  0
 35 38  1  1  0  0  0
 36 37  1  0  0  0  0
 36 41  1  1  0  0  0
 36 35  1  0  0  0  0
 37 33  1  1  0  0  0
 37 35  1  0  0  0  0
 39 42  1  0  0  0  0
 39 41  1  0  0  0  0
 41 40  2  0  0  0  0
 43 45  1  0  0  0  0
 43 42  1  0  0  0  0
 44 43  2  0  0  0  0
M  END
>  <MODEL>
5

>  <REMARK>
 VINA RESULT:      -5.8      3.217      9.264
  Name = 
  19 active torsions:
  status: ('A' for Active; 'I' for Inactive)
    1  A    between atoms: N_1  and  C_12
    2  A    between atoms: C_3  and  S_30
    3  A    between atoms: N_4  and  C_10
    4  A    between atoms: N_4  and  C_42
    5  A    between atoms: N_6  and  N_16
    6  A    between atoms: N_6  and  C_45
    7  A    between atoms: C_7  and  C_21
    8  A    between atoms: C_7  and  C_33
    9  A    between atoms: C_12  and  C_40
   10  A    between atoms: C_14  and  C_35
   11  A    between atoms: N_16  and  C_27
   12  A    between atoms: C_17  and  C_37
   13  A    between atoms: C_17  and  C_38
   14  A    between atoms: C_18  and  O_23
   15  A    between atoms: C_18  and  C_38
   16  A    between atoms: O_23  and  C_45
   17  A    between atoms: S_30  and  C_32
   18  A    between atoms: C_37  and  C_39
   19  A    between atoms: C_38  and  C_42
                            x       y       z     vdW  Elec       q    Type
                         _______ _______ _______ _____ _____    ______ ____

>  <TORSDO>
F 19

$$$$
=
 OpenBabel11062417233D

 45 49  0  0  1  0  0  0  0  0999 V2000
  191.0870  177.7140  141.5240 C   0  0  1  0  0  3  0  0  0  0  0  0
  189.0670  176.4150  141.6300 N   0  0  0  0  0  2  0  0  0  0  0  0
  190.0280  175.6270  142.8820 S   0  0  0  0  0  0  0  0  0  0  0  0
  190.0220  177.0070  140.7130 C   0  0  1  0  0  3  0  0  0  0  0  0
  191.2980  176.9290  142.8090 C   0  0  2  0  0  3  0  0  0  0  0  0
  192.3830  177.7670  140.7370 C   0  0  0  0  0  1  0  0  0  0  0  0
  191.9560  179.0040  143.8120 O   0  0  0  0  0  1  0  0  0  0  0  0
  191.1940  177.8520  144.0220 C   0  0  1  0  0  3  0  0  0  0  0  0
  189.7460  178.2560  144.2590 C   0  0  0  0  0  2  0  0  0  0  0  0
  189.1070  177.3920  145.3370 C   0  0  2  0  0  3  0  0  0  0  0  0
  187.6010  177.4930  145.3410 C   0  0  0  0  0  0  0  0  0  0  0  0
  187.0030  177.1900  144.2760 O   0  0  0  0  0  0  0  0  0  0  0  0
  186.8250  177.9570  146.4200 O   0  0  0  0  0  0  0  0  0  0  0  0
  184.4450  178.2620  146.9640 C   0  0  0  0  0  1  0  0  0  0  0  0
  185.7160  178.8590  146.3810 C   0  0  2  0  0  3  0  0  0  0  0  0
  185.5030  179.3730  145.0370 N   0  0  0  0  0  2  0  0  0  0  0  0
  184.1700  179.1100  144.7000 N   0  0  0  0  0  2  0  0  0  0  0  0
  183.5830  178.3130  142.3410 N   0  0  0  0  0  0  0  0  0  0  0  0
  183.8480  178.6730  143.4090 C   0  0  0  0  0  0  0  0  0  0  0  0
  189.7570  177.6270  146.6890 C   0  0  0  0  0  2  0  0  0  0  0  0
  190.3620  176.4000  147.1730 N   0  0  0  0  0  2  0  0  0  0  0  0
  192.4280  175.2600  146.6510 C   0  0  0  0  0  2  0  0  0  0  0  0
  191.8000  176.5750  147.0650 C   0  0  0  0  0  3  0  0  0  0  0  0
  192.4850  175.7020  148.0970 C   0  0  0  0  0  2  0  0  0  0  0  0
  189.1720  178.1930  139.6290 S   0  0  0  0  0  0  0  0  0  0  0  0
  189.9690  177.5350  138.1340 C   0  0  1  0  0  3  0  0  0  0  0  0
  189.6010  176.0720  137.9730 C   0  0  0  0  0  2  0  0  0  0  0  0
  188.7650  175.9990  136.7930 N   0  0  0  0  0  0  0  0  0  0  0  0
  189.4370  178.2660  136.9060 C   0  0  0  0  0  3  0  0  0  0  0  0
  188.5970  177.2720  136.1240 C   0  0  0  0  0  3  0  0  0  0  0  0
  188.3760  173.7020  136.9570 O   0  0  0  0  0  0  0  0  0  0  0  0
  188.1810  174.7770  136.3280 C   0  0  0  0  0  0  0  0  0  0  0  0
  187.3700  174.7460  135.0770 C   0  0  0  0  0  2  0  0  0  0  0  0
  185.5800  172.5510  136.9820 O   0  0  0  0  0  0  0  0  0  0  0  0
  185.7970  173.9500  136.8310 C   0  0  2  0  0  0  0  0  0  0  0  0
  184.9240  174.7560  135.8500 C   0  0  2  0  0  3  0  0  0  0  0  0
  186.0780  173.9720  135.3190 C   0  0  1  0  0  3  0  0  0  0  0  0
  184.6320  173.3530  137.5680 C   0  0  0  0  0  2  0  0  0  0  0  0
  185.3640  176.7870  137.2990 N   0  0  0  0  0  2  0  0  0  0  0  0
  185.2080  176.9740  134.9760 O   0  0  0  0  0  0  0  0  0  0  0  0
  185.1550  176.2350  135.9970 C   0  0  0  0  0  0  0  0  0  0  0  0
  185.5740  178.2110  137.5060 C   0  0  0  0  0  2  0  0  0  0  0  0
  184.8990  178.6370  138.7620 C   0  0  0  0  0  0  0  0  0  0  0  0
  183.5130  178.6100  138.8470 O   0  0  0  0  0  0  0  0  0  0  0  0
  185.5800  179.0510  139.7360 O   0  0  0  0  0  1  0  0  0  0  0  0
  1  6  1  6  0  0  0
  1  5  1  0  0  0  0
  2  3  1  0  0  0  0
  4 25  1  6  0  0  0
  4  1  1  0  0  0  0
  4  2  1  0  0  0  0
  5  3  1  0  0  0  0
  5  8  1  1  0  0  0
  8  7  1  6  0  0  0
  8  9  1  0  0  0  0
 10  9  1  6  0  0  0
 10 11  1  0  0  0  0
 10 20  1  0  0  0  0
 11 13  1  0  0  0  0
 12 11  2  0  0  0  0
 15 13  1  0  0  0  0
 15 14  1  6  0  0  0
 16 15  1  0  0  0  0
 17 16  1  0  0  0  0
 18 19  3  0  0  0  0
 19 17  1  0  0  0  0
 20 21  1  0  0  0  0
 22 23  1  0  0  0  0
 22 24  1  0  0  0  0
 23 21  1  0  0  0  0
 23 24  1  0  0  0  0
 26 25  1  1  0  0  0
 27 26  1  0  0  0  0
 28 27  1  0  0  0  0
 29 26  1  0  0  0  0
 30 28  1  0  0  0  0
 30 29  2  0  0  0  0
 32 28  1  0  0  0  0
 32 31  2  0  0  0  0
 33 32  1  0  0  0  0
 34 38  1  0  0  0  0
 35 34  1  0  0  0  0
 35 38  1  1  0  0  0
 36 41  1  1  0  0  0
 36 35  1  0  0  0  0
 37 33  1  1  0  0  0
 37 36  1  0  0  0  0
 37 35  1  0  0  0  0
 39 42  1  0  0  0  0
 40 41  2  0  0  0  0
 41 39  1  0  0  0  0
 42 43  1  0  0  0  0
 43 44  2  0  0  0  0
 43 45  1  0  0  0  0
M  END
>  <MODEL>
6

>  <REMARK>
 VINA RESULT:      -5.6      2.505      8.986
  Name = 
  19 active torsions:
  status: ('A' for Active; 'I' for Inactive)
    1  A    between atoms: N_1  and  C_12
    2  A    between atoms: C_3  and  S_30
    3  A    between atoms: N_4  and  C_10
    4  A    between atoms: N_4  and  C_42
    5  A    between atoms: N_6  and  N_16
    6  A    between atoms: N_6  and  C_45
    7  A    between atoms: C_7  and  C_21
    8  A    between atoms: C_7  and  C_33
    9  A    between atoms: C_12  and  C_40
   10  A    between atoms: C_14  and  C_35
   11  A    between atoms: N_16  and  C_27
   12  A    between atoms: C_17  and  C_37
   13  A    between atoms: C_17  and  C_38
   14  A    between atoms: C_18  and  O_23
   15  A    between atoms: C_18  and  C_38
   16  A    between atoms: O_23  and  C_45
   17  A    between atoms: S_30  and  C_32
   18  A    between atoms: C_37  and  C_39
   19  A    between atoms: C_38  and  C_42
                            x       y       z     vdW  Elec       q    Type
                         _______ _______ _______ _____ _____    ______ ____

>  <TORSDO>
F 19

$$$$
=
 OpenBabel11062417233D

 45 49  0  0  1  0  0  0  0  0999 V2000
  186.9390  177.2370  138.3470 C   0  0  1  0  0  3  0  0  0  0  0  0
  188.5700  176.6410  136.6840 N   0  0  0  0  0  2  0  0  0  0  0  0
  189.2890  178.1160  137.3330 S   0  0  0  0  0  0  0  0  0  0  0  0
  187.1450  176.7570  136.9260 C   0  0  1  0  0  3  0  0  0  0  0  0
  188.0860  178.1720  138.6980 C   0  0  2  0  0  3  0  0  0  0  0  0
  185.6210  177.9810  138.4540 C   0  0  0  0  0  1  0  0  0  0  0  0
  190.1280  177.8870  139.9210 O   0  0  0  0  0  1  0  0  0  0  0  0
  188.7410  177.7450  140.0110 C   0  0  1  0  0  3  0  0  0  0  0  0
  188.2330  178.6030  141.1620 C   0  0  0  0  0  2  0  0  0  0  0  0
  187.2990  177.8090  142.0620 C   0  0  2  0  0  3  0  0  0  0  0  0
  186.0260  178.5570  142.3770 C   0  0  0  0  0  0  0  0  0  0  0  0
  185.7580  179.5590  141.6640 O   0  0  0  0  0  0  0  0  0  0  0  0
  185.1540  178.2570  143.4410 O   0  0  0  0  0  0  0  0  0  0  0  0
  185.7100  178.6030  145.8120 C   0  0  0  0  0  1  0  0  0  0  0  0
  184.8910  179.0390  144.6090 C   0  0  2  0  0  3  0  0  0  0  0  0
  183.4670  179.0730  144.9090 N   0  0  0  0  0  2  0  0  0  0  0  0
  182.7890  179.1330  143.6860 N   0  0  0  0  0  2  0  0  0  0  0  0
  180.2820  178.6300  143.5920 N   0  0  0  0  0  0  0  0  0  0  0  0
  181.4160  178.8570  143.6340 C   0  0  0  0  0  0  0  0  0  0  0  0
  188.0310  177.2730  143.2810 C   0  0  0  0  0  2  0  0  0  0  0  0
  189.3050  177.9510  143.4360 N   0  0  0  0  0  2  0  0  0  0  0  0
  191.4540  176.9120  143.0540 C   0  0  0  0  0  2  0  0  0  0  0  0
  190.2390  176.9680  143.9580 C   0  0  0  0  0  3  0  0  0  0  0  0
  190.3880  175.8430  142.9550 C   0  0  0  0  0  2  0  0  0  0  0  0
  186.3540  175.1380  136.6920 S   0  0  0  0  0  0  0  0  0  0  0  0
  185.5000  175.6720  135.1800 C   0  0  1  0  0  3  0  0  0  0  0  0
  184.1850  174.9260  135.0560 C   0  0  0  0  0  2  0  0  0  0  0  0
  183.1460  175.9170  135.2350 N   0  0  0  0  0  0  0  0  0  0  0  0
  185.1630  177.1570  135.2780 C   0  0  0  0  0  3  0  0  0  0  0  0
  183.6530  177.2630  135.4050 C   0  0  0  0  0  3  0  0  0  0  0  0
  181.3790  174.3990  135.0640 O   0  0  0  0  0  0  0  0  0  0  0  0
  181.7510  175.5940  135.2240 C   0  0  0  0  0  0  0  0  0  0  0  0
  180.7170  176.6610  135.3620 C   0  0  0  0  0  2  0  0  0  0  0  0
  179.9980  174.7580  138.1030 O   0  0  0  0  0  0  0  0  0  0  0  0
  180.6040  175.9990  137.7560 C   0  0  2  0  0  0  0  0  0  0  0  0
  179.7360  177.2680  137.6520 C   0  0  2  0  0  3  0  0  0  0  0  0
  179.7670  176.3150  136.5050 C   0  0  1  0  0  3  0  0  0  0  0  0
  180.1380  175.6470  139.1400 C   0  0  0  0  0  2  0  0  0  0  0  0
  180.0290  179.6630  136.8770 N   0  0  0  0  0  2  0  0  0  0  0  0
  181.7620  178.5230  137.9530 O   0  0  0  0  0  0  0  0  0  0  0  0
  180.5850  178.5020  137.4980 C   0  0  0  0  0  0  0  0  0  0  0  0
  180.8060  180.8770  136.6840 C   0  0  0  0  0  2  0  0  0  0  0  0
  180.8110  181.6720  137.9420 C   0  0  0  0  0  0  0  0  0  0  0  0
  179.6100  181.9990  138.5590 O   0  0  0  0  0  1  0  0  0  0  0  0
  181.8980  182.0740  138.4320 O   0  0  0  0  0  0  0  0  0  0  0  0
  1  6  1  6  0  0  0
  1  5  1  0  0  0  0
  2  4  1  0  0  0  0
  2  3  1  0  0  0  0
  3  5  1  0  0  0  0
  4 25  1  1  0  0  0
  4  1  1  0  0  0  0
  5  8  1  1  0  0  0
  8  7  1  6  0  0  0
  8  9  1  0  0  0  0
 10  9  1  1  0  0  0
 10 11  1  0  0  0  0
 10 20  1  0  0  0  0
 11 13  1  0  0  0  0
 12 11  2  0  0  0  0
 13 15  1  0  0  0  0
 15 16  1  0  0  0  0
 15 14  1  1  0  0  0
 17 16  1  0  0  0  0
 18 19  3  0  0  0  0
 19 17  1  0  0  0  0
 20 21  1  0  0  0  0
 21 23  1  0  0  0  0
 22 23  1  0  0  0  0
 24 22  1  0  0  0  0
 24 23  1  0  0  0  0
 26 29  1  0  0  0  0
 26 25  1  1  0  0  0
 27 26  1  0  0  0  0
 27 28  1  0  0  0  0
 28 30  1  0  0  0  0
 29 30  2  0  0  0  0
 31 32  2  0  0  0  0
 32 28  1  0  0  0  0
 32 33  1  0  0  0  0
 34 38  1  0  0  0  0
 35 34  1  0  0  0  0
 35 38  1  6  0  0  0
 36 41  1  6  0  0  0
 36 35  1  0  0  0  0
 37 33  1  6  0  0  0
 37 36  1  0  0  0  0
 37 35  1  0  0  0  0
 39 41  1  0  0  0  0
 41 40  2  0  0  0  0
 42 39  1  0  0  0  0
 42 43  1  0  0  0  0
 43 45  2  0  0  0  0
 43 44  1  0  0  0  0
M  END
>  <MODEL>
7

>  <REMARK>
 VINA RESULT:      -5.6      3.253      9.187
  Name = 
  19 active torsions:
  status: ('A' for Active; 'I' for Inactive)
    1  A    between atoms: N_1  and  C_12
    2  A    between atoms: C_3  and  S_30
    3  A    between atoms: N_4  and  C_10
    4  A    between atoms: N_4  and  C_42
    5  A    between atoms: N_6  and  N_16
    6  A    between atoms: N_6  and  C_45
    7  A    between atoms: C_7  and  C_21
    8  A    between atoms: C_7  and  C_33
    9  A    between atoms: C_12  and  C_40
   10  A    between atoms: C_14  and  C_35
   11  A    between atoms: N_16  and  C_27
   12  A    between atoms: C_17  and  C_37
   13  A    between atoms: C_17  and  C_38
   14  A    between atoms: C_18  and  O_23
   15  A    between atoms: C_18  and  C_38
   16  A    between atoms: O_23  and  C_45
   17  A    between atoms: S_30  and  C_32
   18  A    between atoms: C_37  and  C_39
   19  A    between atoms: C_38  and  C_42
                            x       y       z     vdW  Elec       q    Type
                         _______ _______ _______ _____ _____    ______ ____

>  <TORSDO>
F 19

$$$$
=
 OpenBabel11062417233D

 45 49  0  0  1  0  0  0  0  0999 V2000
  187.0940  177.8640  137.8550 C   0  0  1  0  0  3  0  0  0  0  0  0
  188.7230  176.1140  137.6020 N   0  0  0  0  0  2  0  0  0  0  0  0
  187.2990  175.3380  136.9060 S   0  0  0  0  0  0  0  0  0  0  0  0
  188.2170  177.1070  138.5300 C   0  0  1  0  0  3  0  0  0  0  0  0
  186.3610  176.8980  136.9370 C   0  0  2  0  0  3  0  0  0  0  0  0
  186.1350  178.4040  138.9000 C   0  0  0  0  0  1  0  0  0  0  0  0
  187.2730  176.9960  134.7220 O   0  0  0  0  0  1  0  0  0  0  0  0
  186.2430  177.4830  135.5300 C   0  0  1  0  0  3  0  0  0  0  0  0
  184.9070  177.1020  134.9060 C   0  0  0  0  0  2  0  0  0  0  0  0
  183.9580  176.5370  135.9530 C   0  0  2  0  0  3  0  0  0  0  0  0
  183.5470  175.1160  135.6530 C   0  0  0  0  0  0  0  0  0  0  0  0
  182.3360  174.8190  135.8320 O   0  0  0  0  0  0  0  0  0  0  0  0
  184.4210  174.0890  135.2510 O   0  0  0  0  0  0  0  0  0  0  0  0
  184.3320  172.4970  137.1250 C   0  0  0  0  0  1  0  0  0  0  0  0
  184.3830  172.7070  135.6210 C   0  0  2  0  0  3  0  0  0  0  0  0
  185.4780  171.9690  135.0090 N   0  0  0  0  0  2  0  0  0  0  0  0
  186.4930  171.8660  135.9680 N   0  0  0  0  0  2  0  0  0  0  0  0
  188.9420  171.8200  135.2320 N   0  0  0  0  0  0  0  0  0  0  0  0
  187.8340  171.8410  135.5650 C   0  0  0  0  0  0  0  0  0  0  0  0
  182.8000  177.4840  136.2150 C   0  0  0  0  0  2  0  0  0  0  0  0
  182.7990  177.8990  137.6060 N   0  0  0  0  0  2  0  0  0  0  0  0
  181.7470  176.3370  139.1210 C   0  0  0  0  0  2  0  0  0  0  0  0
  183.0270  176.7030  138.3980 C   0  0  0  0  0  3  0  0  0  0  0  0
  182.8620  177.0400  139.8650 C   0  0  0  0  0  2  0  0  0  0  0  0
  189.5540  178.2500  138.9880 S   0  0  0  0  0  0  0  0  0  0  0  0
  190.2590  177.0860  140.1910 C   0  0  1  0  0  3  0  0  0  0  0  0
  191.0630  177.8560  141.2220 C   0  0  0  0  0  2  0  0  0  0  0  0
  190.3420  177.7240  142.4700 N   0  0  0  0  0  0  0  0  0  0  0  0
  189.1350  176.3780  140.9410 C   0  0  0  0  0  3  0  0  0  0  0  0
  189.1660  176.8860  142.3720 C   0  0  0  0  0  3  0  0  0  0  0  0
  191.8080  179.0630  143.7000 O   0  0  0  0  0  0  0  0  0  0  0  0
  190.7680  178.3500  143.6850 C   0  0  0  0  0  0  0  0  0  0  0  0
  190.0170  178.1410  144.9570 C   0  0  0  0  0  2  0  0  0  0  0  0
  192.3890  176.2520  146.5250 O   0  0  0  0  0  0  0  0  0  0  0  0
  191.2930  177.1100  146.8260 C   0  0  2  0  0  0  0  0  0  0  0  0
  189.8730  176.5210  146.9410 C   0  0  2  0  0  3  0  0  0  0  0  0
  190.4300  176.8140  145.5880 C   0  0  1  0  0  3  0  0  0  0  0  0
  191.9030  176.1460  147.8050 C   0  0  0  0  0  2  0  0  0  0  0  0
  187.5980  177.6350  146.8990 N   0  0  0  0  0  2  0  0  0  0  0  0
  189.2190  178.2610  148.4610 O   0  0  0  0  0  0  0  0  0  0  0  0
  188.9010  177.5360  147.4780 C   0  0  0  0  0  0  0  0  0  0  0  0
  186.6220  178.6080  147.3640 C   0  0  0  0  0  2  0  0  0  0  0  0
  185.4570  178.6270  146.4380 C   0  0  0  0  0  0  0  0  0  0  0  0
  185.6390  178.9600  145.1020 O   0  0  0  0  0  0  0  0  0  0  0  0
  184.3020  178.3720  146.8700 O   0  0  0  0  0  1  0  0  0  0  0  0
  1  4  1  0  0  0  0
  1  6  1  1  0  0  0
  2  4  1  0  0  0  0
  3  5  1  0  0  0  0
  3  2  1  0  0  0  0
  4 25  1  6  0  0  0
  5  8  1  6  0  0  0
  5  1  1  0  0  0  0
  8  7  1  6  0  0  0
  9  8  1  0  0  0  0
 10  9  1  6  0  0  0
 10 20  1  0  0  0  0
 11 12  2  0  0  0  0
 11 10  1  0  0  0  0
 13 15  1  0  0  0  0
 13 11  1  0  0  0  0
 15 14  1  1  0  0  0
 16 15  1  0  0  0  0
 16 17  1  0  0  0  0
 18 19  3  0  0  0  0
 19 17  1  0  0  0  0
 20 21  1  0  0  0  0
 21 23  1  0  0  0  0
 22 24  1  0  0  0  0
 23 22  1  0  0  0  0
 23 24  1  0  0  0  0
 26 25  1  6  0  0  0
 26 29  1  0  0  0  0
 26 27  1  0  0  0  0
 27 28  1  0  0  0  0
 28 32  1  0  0  0  0
 29 30  2  0  0  0  0
 30 28  1  0  0  0  0
 32 31  2  0  0  0  0
 32 33  1  0  0  0  0
 34 35  1  0  0  0  0
 34 38  1  0  0  0  0
 35 36  1  0  0  0  0
 35 38  1  1  0  0  0
 36 41  1  1  0  0  0
 37 33  1  1  0  0  0
 37 35  1  0  0  0  0
 37 36  1  0  0  0  0
 39 42  1  0  0  0  0
 39 41  1  0  0  0  0
 41 40  2  0  0  0  0
 43 45  1  0  0  0  0
 43 42  1  0  0  0  0
 44 43  2  0  0  0  0
M  END
>  <MODEL>
8

>  <REMARK>
 VINA RESULT:      -5.6      2.328      3.189
  Name = 
  19 active torsions:
  status: ('A' for Active; 'I' for Inactive)
    1  A    between atoms: N_1  and  C_12
    2  A    between atoms: C_3  and  S_30
    3  A    between atoms: N_4  and  C_10
    4  A    between atoms: N_4  and  C_42
    5  A    between atoms: N_6  and  N_16
    6  A    between atoms: N_6  and  C_45
    7  A    between atoms: C_7  and  C_21
    8  A    between atoms: C_7  and  C_33
    9  A    between atoms: C_12  and  C_40
   10  A    between atoms: C_14  and  C_35
   11  A    between atoms: N_16  and  C_27
   12  A    between atoms: C_17  and  C_37
   13  A    between atoms: C_17  and  C_38
   14  A    between atoms: C_18  and  O_23
   15  A    between atoms: C_18  and  C_38
   16  A    between atoms: O_23  and  C_45
   17  A    between atoms: S_30  and  C_32
   18  A    between atoms: C_37  and  C_39
   19  A    between atoms: C_38  and  C_42
                            x       y       z     vdW  Elec       q    Type
                         _______ _______ _______ _____ _____    ______ ____

>  <TORSDO>
F 19

$$$$
=
 OpenBabel11062417233D

 45 49  0  0  1  0  0  0  0  0999 V2000
  188.3120  176.5230  136.3870 C   0  0  1  0  0  3  0  0  0  0  0  0
  187.2440  178.6530  136.0660 N   0  0  0  0  0  2  0  0  0  0  0  0
  186.3890  177.6760  134.8720 S   0  0  0  0  0  0  0  0  0  0  0  0
  188.5330  178.0140  136.2490 C   0  0  1  0  0  3  0  0  0  0  0  0
  187.1280  176.1410  135.5110 C   0  0  2  0  0  3  0  0  0  0  0  0
  189.5500  175.7740  135.9300 C   0  0  0  0  0  1  0  0  0  0  0  0
  186.6230  175.0300  137.5740 O   0  0  0  0  0  1  0  0  0  0  0  0
  186.1030  175.3440  136.3160 C   0  0  1  0  0  3  0  0  0  0  0  0
  184.8270  176.1540  136.5000 C   0  0  0  0  0  2  0  0  0  0  0  0
  183.8100  175.3870  137.3320 C   0  0  2  0  0  3  0  0  0  0  0  0
  183.0270  174.3900  136.5120 C   0  0  0  0  0  0  0  0  0  0  0  0
  182.9880  174.5760  135.2680 O   0  0  0  0  0  0  0  0  0  0  0  0
  182.2900  173.3120  137.0380 O   0  0  0  0  0  0  0  0  0  0  0  0
  180.2640  172.0080  137.5360 C   0  0  0  0  0  1  0  0  0  0  0  0
  180.9880  173.3410  137.6280 C   0  0  2  0  0  3  0  0  0  0  0  0
  180.1880  174.4280  137.0830 N   0  0  0  0  0  2  0  0  0  0  0  0
  179.2280  174.7580  138.0470 N   0  0  0  0  0  2  0  0  0  0  0  0
  179.9590  175.7240  140.3000 N   0  0  0  0  0  0  0  0  0  0  0  0
  179.6290  175.2870  139.2810 C   0  0  0  0  0  0  0  0  0  0  0  0
  182.9540  176.3280  138.1620 C   0  0  0  0  0  2  0  0  0  0  0  0
  183.3420  177.7040  137.9150 N   0  0  0  0  0  2  0  0  0  0  0  0
  182.9410  179.9670  138.6620 C   0  0  0  0  0  2  0  0  0  0  0  0
  182.7680  178.4980  138.9870 C   0  0  0  0  0  3  0  0  0  0  0  0
  183.8660  179.2990  139.6560 C   0  0  0  0  0  2  0  0  0  0  0  0
  189.3300  178.6680  137.7460 S   0  0  0  0  0  0  0  0  0  0  0  0
  188.4450  177.5100  138.8320 C   0  0  1  0  0  3  0  0  0  0  0  0
  189.4060  176.9600  139.8680 C   0  0  0  0  0  2  0  0  0  0  0  0
  188.9710  177.4950  141.1400 N   0  0  0  0  0  0  0  0  0  0  0  0
  187.3500  178.2540  139.5910 C   0  0  0  0  0  3  0  0  0  0  0  0
  187.7720  178.3010  141.0480 C   0  0  0  0  0  3  0  0  0  0  0  0
  190.6920  176.5140  142.3780 O   0  0  0  0  0  0  0  0  0  0  0  0
  189.6560  177.2320  142.3710 C   0  0  0  0  0  0  0  0  0  0  0  0
  189.1360  177.7660  143.6630 C   0  0  0  0  0  2  0  0  0  0  0  0
  191.1300  176.9420  146.3080 O   0  0  0  0  0  0  0  0  0  0  0  0
  189.9140  177.6240  146.0210 C   0  0  2  0  0  0  0  0  0  0  0  0
  188.5880  176.8390  145.9910 C   0  0  2  0  0  3  0  0  0  0  0  0
  189.4800  176.8020  144.7950 C   0  0  1  0  0  3  0  0  0  0  0  0
  190.3070  177.1440  147.3890 C   0  0  0  0  0  2  0  0  0  0  0  0
  186.3220  177.4280  145.0230 N   0  0  0  0  0  2  0  0  0  0  0  0
  187.3510  178.8030  146.6060 O   0  0  0  0  0  0  0  0  0  0  0  0
  187.4050  177.7630  145.8930 C   0  0  0  0  0  0  0  0  0  0  0  0
  185.1610  178.2910  144.8730 C   0  0  0  0  0  2  0  0  0  0  0  0
  184.9950  178.6590  143.4410 C   0  0  0  0  0  0  0  0  0  0  0  0
  185.3180  179.9400  143.0120 O   0  0  0  0  0  1  0  0  0  0  0  0
  184.5340  177.8210  142.6220 O   0  0  0  0  0  0  0  0  0  0  0  0
  1  6  1  6  0  0  0
  2  4  1  0  0  0  0
  3  5  1  0  0  0  0
  3  2  1  0  0  0  0
  4  1  1  0  0  0  0
  4 25  1  1  0  0  0
  5  8  1  1  0  0  0
  5  1  1  0  0  0  0
  8  9  1  0  0  0  0
  8  7  1  1  0  0  0
 10  9  1  6  0  0  0
 10 20  1  0  0  0  0
 11 13  1  0  0  0  0
 11 10  1  0  0  0  0
 12 11  2  0  0  0  0
 13 15  1  0  0  0  0
 15 14  1  6  0  0  0
 16 15  1  0  0  0  0
 16 17  1  0  0  0  0
 17 19  1  0  0  0  0
 19 18  3  0  0  0  0
 21 20  1  0  0  0  0
 21 23  1  0  0  0  0
 22 23  1  0  0  0  0
 22 24  1  0  0  0  0
 23 24  1  0  0  0  0
 26 25  1  6  0  0  0
 26 29  1  0  0  0  0
 26 27  1  0  0  0  0
 27 28  1  0  0  0  0
 28 32  1  0  0  0  0
 29 30  2  0  0  0  0
 30 28  1  0  0  0  0
 32 31  2  0  0  0  0
 32 33  1  0  0  0  0
 34 38  1  0  0  0  0
 35 34  1  0  0  0  0
 35 38  1  6  0  0  0
 36 41  1  6  0  0  0
 36 35  1  0  0  0  0
 37 33  1  6  0  0  0
 37 36  1  0  0  0  0
 37 35  1  0  0  0  0
 39 41  1  0  0  0  0
 41 40  2  0  0  0  0
 42 39  1  0  0  0  0
 43 42  1  0  0  0  0
 44 43  1  0  0  0  0
 45 43  2  0  0  0  0
M  END
>  <MODEL>
9

>  <REMARK>
 VINA RESULT:      -5.6      1.941      2.631
  Name = 
  19 active torsions:
  status: ('A' for Active; 'I' for Inactive)
    1  A    between atoms: N_1  and  C_12
    2  A    between atoms: C_3  and  S_30
    3  A    between atoms: N_4  and  C_10
    4  A    between atoms: N_4  and  C_42
    5  A    between atoms: N_6  and  N_16
    6  A    between atoms: N_6  and  C_45
    7  A    between atoms: C_7  and  C_21
    8  A    between atoms: C_7  and  C_33
    9  A    between atoms: C_12  and  C_40
   10  A    between atoms: C_14  and  C_35
   11  A    between atoms: N_16  and  C_27
   12  A    between atoms: C_17  and  C_37
   13  A    between atoms: C_17  and  C_38
   14  A    between atoms: C_18  and  O_23
   15  A    between atoms: C_18  and  C_38
   16  A    between atoms: O_23  and  C_45
   17  A    between atoms: S_30  and  C_32
   18  A    between atoms: C_37  and  C_39
   19  A    between atoms: C_38  and  C_42
                            x       y       z     vdW  Elec       q    Type
                         _______ _______ _______ _____ _____    ______ ____

>  <TORSDO>
F 19

$$$$
