=
 OpenBabel11062415083D

 55 58  0  0  1  0  0  0  0  0999 V2000
  187.4740  178.2030  140.4440 C   0  0  2  0  0  3  0  0  0  0  0  0
  190.6250  176.3890  138.6470 C   0  0  1  0  0  3  0  0  0  0  0  0
  190.8620  176.6330  140.0110 O   0  0  0  0  0  0  0  0  0  0  0  0
  188.8870  179.4900  138.1340 O   0  0  0  0  0  0  0  0  0  0  0  0
  189.3070  178.4470  138.7020 C   0  0  0  0  0  0  0  0  0  0  0  0
  189.5910  176.8330  140.5900 C   0  0  2  0  0  3  0  0  0  0  0  0
  190.1520  177.5770  138.0130 O   0  0  0  0  0  0  0  0  0  0  0  0
  188.9830  178.1790  140.1520 C   0  0  2  0  0  3  0  0  0  0  0  0
  193.2300  174.2660  136.7810 N   0  0  0  0  0  2  0  0  0  0  0  0
  191.8460  175.9260  137.9990 N   0  0  0  0  0  2  0  0  0  0  0  0
  191.9890  174.6410  137.3800 C   0  0  0  0  0  0  0  0  0  0  0  0
  191.0090  173.7980  137.3830 N   0  0  0  0  0  2  0  0  0  0  0  0
  194.3590  175.1800  136.6910 C   0  0  0  0  0  2  0  0  0  0  0  0
  195.6030  174.5240  137.2630 C   0  0  0  0  0  2  0  0  0  0  0  0
  196.7790  174.8400  136.4070 C   0  0  0  0  0  0  0  0  0  0  0  0
  197.2060  173.9350  135.4440 O   0  0  0  0  0  0  0  0  0  0  0  0
  197.4010  175.9230  136.5720 O   0  0  0  0  0  1  0  0  0  0  0  0
  191.8210  177.6910  142.9720 O   0  0  0  0  0  0  0  0  0  0  0  0
  189.6110  176.7100  142.1240 C   0  0  1  0  0  3  0  0  0  0  0  0
  190.2560  175.5680  142.5230 O   0  0  0  0  0  0  0  0  0  0  0  0
  190.8700  176.9320  142.6480 C   0  0  0  0  0  0  0  0  0  0  0  0
  186.7540  178.7980  139.3990 O   0  0  0  0  0  0  0  0  0  0  0  0
  185.4700  178.2440  139.4600 C   0  0  0  0  0  2  0  0  0  0  0  0
  184.4010  179.3280  139.4220 C   0  0  0  0  0  2  0  0  0  0  0  0
  183.1210  178.8500  140.0820 C   0  0  0  0  0  2  0  0  0  0  0  0
  183.1100  177.3340  140.1020 C   0  0  0  0  0  2  0  0  0  0  0  0
  181.7090  176.8170  139.8420 C   0  0  0  0  0  2  0  0  0  0  0  0
  181.7700  175.5990  139.0490 N   0  0  0  0  0  2  0  0  0  0  0  0
  180.5200  174.6120  136.7450 O   0  0  0  0  0  0  0  0  0  0  0  0
  181.2380  175.9870  137.4190 P   0  0  1  0  0  0  0  0  0  0  0  0
  180.2180  177.1020  137.4690 O   0  0  0  0  0  1  0  0  0  0  0  0
  182.2150  176.6770  135.0910 F   0  0  0  0  0  0  0  0  0  0  0  0
  183.1500  177.7220  136.8360 F   0  0  0  0  0  0  0  0  0  0  0  0
  182.6600  176.5020  136.3890 C   0  0  0  0  0  0  0  0  0  0  0  0
  183.6610  175.5030  136.3710 O   0  0  0  0  0  0  0  0  0  0  0  0
  184.8760  176.0560  136.8030 C   0  0  0  0  0  2  0  0  0  0  0  0
  185.9090  175.9250  135.6990 C   0  0  0  0  0  2  0  0  0  0  0  0
  187.1760  176.4920  136.1340 N   0  0  0  0  0  0  0  0  0  0  0  0
  188.8760  177.5600  134.8800 N   0  0  0  0  0  2  0  0  0  0  0  0
  187.4680  177.6030  135.2390 C   0  0  0  0  0  2  0  0  0  0  0  0
  188.2100  175.5050  135.8690 C   0  0  0  0  0  2  0  0  0  0  0  0
  189.2410  176.1610  134.9850 C   0  0  0  0  0  2  0  0  0  0  0  0
  187.1730  178.9240  141.7460 C   0  0  0  0  0  2  0  0  0  0  0  0
  186.6410  177.9400  142.7790 C   0  0  0  0  0  2  0  0  0  0  0  0
  186.1840  178.6310  144.0700 C   0  0  2  0  0  3  0  0  0  0  0  0
  186.9860  178.5750  147.1130 C   0  0  0  0  0  2  0  0  0  0  0  0
  187.7700  178.0310  145.9640 C   0  0  0  0  0  0  0  0  0  0  0  0
  186.1520  176.4540  145.1920 O   0  0  0  0  0  1  0  0  0  0  0  0
  186.4140  177.8170  145.3660 C   0  0  2  0  0  0  0  0  0  0  0  0
  184.4670  178.5400  146.8260 O   0  0  0  0  0  0  0  0  0  0  0  0
  185.6340  178.3630  146.5170 C   0  0  0  0  0  0  0  0  0  0  0  0
  189.0380  177.7230  145.6970 C   0  0  0  0  0  2  0  0  0  0  0  0
  183.7300  178.3430  143.5510 N   0  0  0  0  0  1  0  0  0  0  0  0
  184.7970  179.1920  143.9520 C   0  0  0  0  0  0  0  0  0  0  0  0
  184.5680  180.4030  144.2060 O   0  0  0  0  0  0  0  0  0  0  0  0
  1 43  1  1  0  0  0
  2 10  1  6  0  0  0
  2  3  1  0  0  0  0
  4  5  2  0  0  0  0
  5  8  1  0  0  0  0
  6  3  1  1  0  0  0
  6 19  1  0  0  0  0
  7  2  1  0  0  0  0
  7  5  1  0  0  0  0
  8  1  1  6  0  0  0
  8  6  1  0  0  0  0
  9 11  1  0  0  0  0
 11 12  2  0  0  0  0
 11 10  1  0  0  0  0
 13  9  1  0  0  0  0
 13 14  1  0  0  0  0
 15 17  1  0  0  0  0
 15 14  1  0  0  0  0
 16 15  2  0  0  0  0
 19 20  1  6  0  0  0
 19 21  1  0  0  0  0
 20 21  1  0  0  0  0
 21 18  2  0  0  0  0
 22 23  1  0  0  0  0
 22  1  1  0  0  0  0
 24 23  1  0  0  0  0
 24 25  1  0  0  0  0
 25 26  1  0  0  0  0
 27 26  1  0  0  0  0
 28 27  1  0  0  0  0
 30 29  2  6  0  0  0
 30 31  1  0  0  0  0
 30 28  1  0  0  0  0
 32 34  1  0  0  0  0
 34 33  1  0  0  0  0
 34 30  1  0  0  0  0
 35 34  1  0  0  0  0
 35 36  1  0  0  0  0
 37 38  1  0  0  0  0
 37 36  1  0  0  0  0
 39 42  1  0  0  0  0
 39 40  1  0  0  0  0
 40 38  1  0  0  0  0
 41 38  1  0  0  0  0
 42 41  1  0  0  0  0
 43 44  1  0  0  0  0
 45 44  1  6  0  0  0
 45 49  1  0  0  0  0
 47 46  1  0  0  0  0
 49 48  1  6  0  0  0
 49 47  1  0  0  0  0
 49 51  1  0  0  0  0
 51 50  2  0  0  0  0
 51 46  1  0  0  0  0
 52 47  2  0  0  0  0
 53 54  1  0  0  0  0
 54 45  1  0  0  0  0
 54 55  2  0  0  0  0
M  END
>  <MODEL>
1

>  <REMARK>
 VINA RESULT:      -6.5      0.000      0.000
  Name = 
  24 active torsions:
  status: ('A' for Active; 'I' for Inactive)
    1  A    between atoms: C_3  and  C_38
    2  A    between atoms: N_5  and  C_51
    3  A    between atoms: C_11  and  N_32
    4  A    between atoms: C_12  and  C_21
    5  A    between atoms: C_12  and  C_43
    6  A    between atoms: N_13  and  C_45
    7  A    between atoms: C_14  and  C_54
    8  A    between atoms: C_17  and  C_24
    9  A    between atoms: C_17  and  C_43
   10  A    between atoms: C_20  and  C_22
   11  A    between atoms: C_20  and  C_36
   12  A    between atoms: C_21  and  N_31
   13  A    between atoms: C_22  and  C_54
   14  A    between atoms: C_23  and  C_33
   15  A    between atoms: C_24  and  O_39
   16  A    between atoms: C_25  and  C_54
   17  A    between atoms: O_26  and  C_30
   18  A    between atoms: O_26  and  C_49
   19  A    between atoms: C_30  and  P_34
   20  A    between atoms: N_31  and  P_34
   21  A    between atoms: C_33  and  C_45
   22  A    between atoms: C_36  and  O_39
   23  A    between atoms: C_36  and  C_53
   24  A    between atoms: C_49  and  C_51
                            x       y       z     vdW  Elec       q    Type
                         _______ _______ _______ _____ _____    ______ ____

>  <TORSDO>
F 24

$$$$
=
 OpenBabel11062415083D

 55 58  0  0  1  0  0  0  0  0999 V2000
  187.5620  178.1620  140.5630 C   0  0  2  0  0  3  0  0  0  0  0  0
  190.4510  176.0040  138.7090 C   0  0  1  0  0  3  0  0  0  0  0  0
  190.7670  176.2650  140.0530 O   0  0  0  0  0  0  0  0  0  0  0  0
  188.9910  179.2370  138.1560 O   0  0  0  0  0  0  0  0  0  0  0  0
  189.3350  178.1780  138.7430 C   0  0  0  0  0  0  0  0  0  0  0  0
  189.5460  176.6030  140.6740 C   0  0  2  0  0  3  0  0  0  0  0  0
  190.0650  177.2100  138.0530 O   0  0  0  0  0  0  0  0  0  0  0  0
  189.0480  177.9870  140.2130 C   0  0  2  0  0  3  0  0  0  0  0  0
  192.7080  173.6880  136.6290 N   0  0  0  0  0  2  0  0  0  0  0  0
  191.5960  175.4070  138.0310 N   0  0  0  0  0  2  0  0  0  0  0  0
  191.5300  174.2080  137.2470 C   0  0  0  0  0  0  0  0  0  0  0  0
  190.4130  173.5710  137.1140 N   0  0  0  0  0  2  0  0  0  0  0  0
  193.9870  174.3780  136.6880 C   0  0  0  0  0  2  0  0  0  0  0  0
  194.9460  173.6150  137.5850 C   0  0  0  0  0  2  0  0  0  0  0  0
  195.3810  174.4840  138.7130 C   0  0  0  0  0  0  0  0  0  0  0  0
  196.4070  174.0750  139.5550 O   0  0  0  0  0  1  0  0  0  0  0  0
  194.8020  175.5830  138.9170 O   0  0  0  0  0  0  0  0  0  0  0  0
  191.8280  177.5890  142.9560 O   0  0  0  0  0  0  0  0  0  0  0  0
  189.6190  176.5260  142.2090 C   0  0  1  0  0  3  0  0  0  0  0  0
  190.3070  175.4130  142.6190 O   0  0  0  0  0  0  0  0  0  0  0  0
  190.8870  176.7960  142.6850 C   0  0  0  0  0  0  0  0  0  0  0  0
  186.8860  178.9050  139.5860 O   0  0  0  0  0  0  0  0  0  0  0  0
  185.6730  178.2380  139.3750 C   0  0  0  0  0  2  0  0  0  0  0  0
  184.5280  179.2250  139.1880 C   0  0  0  0  0  2  0  0  0  0  0  0
  183.3990  178.9330  140.1590 C   0  0  0  0  0  2  0  0  0  0  0  0
  183.2970  177.4350  140.3670 C   0  0  0  0  0  2  0  0  0  0  0  0
  181.9470  176.9300  139.8980 C   0  0  0  0  0  2  0  0  0  0  0  0
  182.1090  175.6690  139.1920 N   0  0  0  0  0  2  0  0  0  0  0  0
  180.0570  176.2490  137.3750 O   0  0  0  0  0  1  0  0  0  0  0  0
  181.7160  175.9410  137.5010 P   0  0  1  0  0  0  0  0  0  0  0  0
  182.4800  177.1410  136.9880 O   0  0  0  0  0  0  0  0  0  0  0  0
  182.4470  173.4320  137.3630 F   0  0  0  0  0  0  0  0  0  0  0  0
  181.0470  174.0800  135.7410 F   0  0  0  0  0  0  0  0  0  0  0  0
  182.1420  174.4690  136.5010 C   0  0  0  0  0  0  0  0  0  0  0  0
  183.2820  174.7150  135.7000 O   0  0  0  0  0  0  0  0  0  0  0  0
  184.4090  174.1440  136.3100 C   0  0  0  0  0  2  0  0  0  0  0  0
  185.0900  173.2040  135.3310 C   0  0  0  0  0  2  0  0  0  0  0  0
  185.6640  172.0750  136.0450 N   0  0  0  0  0  0  0  0  0  0  0  0
  187.8500  171.1700  135.9570 N   0  0  0  0  0  2  0  0  0  0  0  0
  187.0770  172.3700  136.2320 C   0  0  0  0  0  2  0  0  0  0  0  0
  185.6270  170.9290  135.1500 C   0  0  0  0  0  2  0  0  0  0  0  0
  187.0400  170.4180  135.0180 C   0  0  0  0  0  2  0  0  0  0  0  0
  187.3860  178.8220  141.9190 C   0  0  0  0  0  2  0  0  0  0  0  0
  186.4910  177.9660  142.8060 C   0  0  0  0  0  2  0  0  0  0  0  0
  186.1190  178.6680  144.1180 C   0  0  2  0  0  3  0  0  0  0  0  0
  187.0070  178.6000  147.1370 C   0  0  0  0  0  2  0  0  0  0  0  0
  187.7660  178.0740  145.9620 C   0  0  0  0  0  0  0  0  0  0  0  0
  186.1460  176.4820  145.2240 O   0  0  0  0  0  1  0  0  0  0  0  0
  186.3960  177.8470  145.4000 C   0  0  2  0  0  0  0  0  0  0  0  0
  184.4820  178.5350  146.9210 O   0  0  0  0  0  0  0  0  0  0  0  0
  185.6420  178.3750  146.5770 C   0  0  0  0  0  0  0  0  0  0  0  0
  189.0300  177.7850  145.6570 C   0  0  0  0  0  2  0  0  0  0  0  0
  183.6300  178.4320  143.7650 N   0  0  0  0  0  1  0  0  0  0  0  0
  184.7410  179.2620  144.0720 C   0  0  0  0  0  0  0  0  0  0  0  0
  184.5610  180.4860  144.3040 O   0  0  0  0  0  0  0  0  0  0  0  0
  1 43  1  1  0  0  0
  2 10  1  6  0  0  0
  2  3  1  0  0  0  0
  4  5  2  0  0  0  0
  5  8  1  0  0  0  0
  6  3  1  6  0  0  0
  6 19  1  0  0  0  0
  7  2  1  0  0  0  0
  7  5  1  0  0  0  0
  8  1  1  6  0  0  0
  8  6  1  0  0  0  0
  9 13  1  0  0  0  0
  9 11  1  0  0  0  0
 11 10  1  0  0  0  0
 12 11  2  0  0  0  0
 13 14  1  0  0  0  0
 14 15  1  0  0  0  0
 15 17  2  0  0  0  0
 15 16  1  0  0  0  0
 19 20  1  6  0  0  0
 19 21  1  0  0  0  0
 20 21  1  0  0  0  0
 21 18  2  0  0  0  0
 22  1  1  0  0  0  0
 23 22  1  0  0  0  0
 24 23  1  0  0  0  0
 24 25  1  0  0  0  0
 25 26  1  0  0  0  0
 27 26  1  0  0  0  0
 28 27  1  0  0  0  0
 29 30  1  0  0  0  0
 30 31  2  6  0  0  0
 30 28  1  0  0  0  0
 33 34  1  0  0  0  0
 34 32  1  0  0  0  0
 34 30  1  0  0  0  0
 35 36  1  0  0  0  0
 35 34  1  0  0  0  0
 37 38  1  0  0  0  0
 37 36  1  0  0  0  0
 38 40  1  0  0  0  0
 39 40  1  0  0  0  0
 41 38  1  0  0  0  0
 42 41  1  0  0  0  0
 42 39  1  0  0  0  0
 43 44  1  0  0  0  0
 45 44  1  6  0  0  0
 45 49  1  0  0  0  0
 47 46  1  0  0  0  0
 49 48  1  6  0  0  0
 49 47  1  0  0  0  0
 49 51  1  0  0  0  0
 51 50  2  0  0  0  0
 51 46  1  0  0  0  0
 52 47  2  0  0  0  0
 53 54  1  0  0  0  0
 54 45  1  0  0  0  0
 54 55  2  0  0  0  0
M  END
>  <MODEL>
2

>  <REMARK>
 VINA RESULT:      -6.1      1.841      2.190
  Name = 
  24 active torsions:
  status: ('A' for Active; 'I' for Inactive)
    1  A    between atoms: C_3  and  C_38
    2  A    between atoms: N_5  and  C_51
    3  A    between atoms: C_11  and  N_32
    4  A    between atoms: C_12  and  C_21
    5  A    between atoms: C_12  and  C_43
    6  A    between atoms: N_13  and  C_45
    7  A    between atoms: C_14  and  C_54
    8  A    between atoms: C_17  and  C_24
    9  A    between atoms: C_17  and  C_43
   10  A    between atoms: C_20  and  C_22
   11  A    between atoms: C_20  and  C_36
   12  A    between atoms: C_21  and  N_31
   13  A    between atoms: C_22  and  C_54
   14  A    between atoms: C_23  and  C_33
   15  A    between atoms: C_24  and  O_39
   16  A    between atoms: C_25  and  C_54
   17  A    between atoms: O_26  and  C_30
   18  A    between atoms: O_26  and  C_49
   19  A    between atoms: C_30  and  P_34
   20  A    between atoms: N_31  and  P_34
   21  A    between atoms: C_33  and  C_45
   22  A    between atoms: C_36  and  O_39
   23  A    between atoms: C_36  and  C_53
   24  A    between atoms: C_49  and  C_51
                            x       y       z     vdW  Elec       q    Type
                         _______ _______ _______ _____ _____    ______ ____

>  <TORSDO>
F 24

$$$$
=
 OpenBabel11062415083D

 55 58  0  0  1  0  0  0  0  0999 V2000
  187.7590  177.3550  142.6850 C   0  0  2  0  0  3  0  0  0  0  0  0
  190.2980  176.3380  139.6910 C   0  0  1  0  0  3  0  0  0  0  0  0
  190.9780  176.6200  140.8880 O   0  0  0  0  0  0  0  0  0  0  0  0
  187.8800  178.9530  140.1510 O   0  0  0  0  0  0  0  0  0  0  0  0
  188.6950  178.0330  140.4220 C   0  0  0  0  0  0  0  0  0  0  0  0
  190.0110  176.5150  141.9110 C   0  0  2  0  0  3  0  0  0  0  0  0
  189.3790  177.3880  139.3920 O   0  0  0  0  0  0  0  0  0  0  0  0
  189.0120  177.6860  141.8580 C   0  0  2  0  0  3  0  0  0  0  0  0
  192.1040  175.1110  136.5270 N   0  0  0  0  0  2  0  0  0  0  0  0
  191.2500  176.1770  138.5980 N   0  0  0  0  0  2  0  0  0  0  0  0
  191.1130  175.2070  137.5510 C   0  0  0  0  0  0  0  0  0  0  0  0
  190.1100  174.3930  137.5370 N   0  0  0  0  0  2  0  0  0  0  0  0
  193.2300  176.0290  136.4450 C   0  0  0  0  0  2  0  0  0  0  0  0
  194.5310  175.2480  136.3920 C   0  0  0  0  0  2  0  0  0  0  0  0
  194.8110  174.6410  137.7210 C   0  0  0  0  0  0  0  0  0  0  0  0
  194.9760  173.2670  137.8420 O   0  0  0  0  0  0  0  0  0  0  0  0
  194.8780  175.3740  138.7430 O   0  0  0  0  0  1  0  0  0  0  0  0
  192.0460  178.4860  143.7450 O   0  0  0  0  0  0  0  0  0  0  0  0
  190.6390  176.3880  143.3100 C   0  0  1  0  0  3  0  0  0  0  0  0
  191.9030  175.8610  143.2430 O   0  0  0  0  0  0  0  0  0  0  0  0
  191.6440  177.3140  143.5170 C   0  0  0  0  0  0  0  0  0  0  0  0
  186.8760  178.4420  142.7430 O   0  0  0  0  0  0  0  0  0  0  0  0
  185.5930  177.8930  142.6400 C   0  0  0  0  0  2  0  0  0  0  0  0
  184.5510  178.9740  142.3780 C   0  0  0  0  0  2  0  0  0  0  0  0
  183.2950  178.7230  143.1910 C   0  0  0  0  0  2  0  0  0  0  0  0
  182.0810  178.9570  142.3140 C   0  0  0  0  0  2  0  0  0  0  0  0
  182.3170  178.3870  140.9290 C   0  0  0  0  0  2  0  0  0  0  0  0
  181.3460  178.9360  139.9960 N   0  0  0  0  0  2  0  0  0  0  0  0
  181.2100  180.5720  137.7260 O   0  0  0  0  0  0  0  0  0  0  0  0
  182.2190  179.5250  138.5890 P   0  0  1  0  0  0  0  0  0  0  0  0
  183.4500  180.2830  139.0340 O   0  0  0  0  0  1  0  0  0  0  0  0
  182.0480  176.9950  137.9400 F   0  0  0  0  0  0  0  0  0  0  0  0
  182.3270  178.3800  136.2050 F   0  0  0  0  0  0  0  0  0  0  0  0
  182.7140  178.1290  137.5140 C   0  0  0  0  0  0  0  0  0  0  0  0
  184.1020  177.8780  137.6180 O   0  0  0  0  0  0  0  0  0  0  0  0
  184.3250  176.4930  137.6210 C   0  0  0  0  0  2  0  0  0  0  0  0
  185.2110  176.1230  136.4450 C   0  0  0  0  0  2  0  0  0  0  0  0
  185.1270  174.6940  136.1910 N   0  0  0  0  0  0  0  0  0  0  0  0
  184.8200  172.8940  137.6980 N   0  0  0  0  0  2  0  0  0  0  0  0
  184.2460  174.1370  137.2080 C   0  0  0  0  0  2  0  0  0  0  0  0
  186.4360  174.1240  136.4650 C   0  0  0  0  0  2  0  0  0  0  0  0
  186.2480  173.0440  137.5020 C   0  0  0  0  0  2  0  0  0  0  0  0
  188.1250  176.9190  144.0930 C   0  0  0  0  0  2  0  0  0  0  0  0
  188.6370  178.1080  144.8940 C   0  0  0  0  0  2  0  0  0  0  0  0
  187.9190  178.2640  146.2400 C   0  0  2  0  0  3  0  0  0  0  0  0
  189.7910  178.0680  148.7650 C   0  0  0  0  0  2  0  0  0  0  0  0
  190.0000  177.4210  147.4340 C   0  0  0  0  0  0  0  0  0  0  0  0
  188.0060  176.1080  147.4010 O   0  0  0  0  0  1  0  0  0  0  0  0
  188.5030  177.4160  147.3960 C   0  0  2  0  0  0  0  0  0  0  0  0
  187.3710  178.4110  149.4390 O   0  0  0  0  0  0  0  0  0  0  0  0
  188.2980  178.0640  148.7260 C   0  0  0  0  0  0  0  0  0  0  0  0
  191.0180  176.9300  146.7300 C   0  0  0  0  0  2  0  0  0  0  0  0
  185.6330  179.3250  146.1140 N   0  0  0  0  0  1  0  0  0  0  0  0
  186.4290  178.1480  146.1050 C   0  0  0  0  0  0  0  0  0  0  0  0
  185.8790  177.0230  145.9810 O   0  0  0  0  0  0  0  0  0  0  0  0
  1 22  1  0  0  0  0
  1 43  1  1  0  0  0
  2 10  1  6  0  0  0
  2  3  1  0  0  0  0
  4  5  2  0  0  0  0
  5  8  1  0  0  0  0
  6  3  1  6  0  0  0
  6 19  1  0  0  0  0
  7  2  1  0  0  0  0
  7  5  1  0  0  0  0
  8  6  1  0  0  0  0
  8  1  1  1  0  0  0
  9 11  1  0  0  0  0
 11 10  1  0  0  0  0
 12 11  2  0  0  0  0
 13  9  1  0  0  0  0
 14 13  1  0  0  0  0
 14 15  1  0  0  0  0
 15 16  2  0  0  0  0
 15 17  1  0  0  0  0
 19 20  1  6  0  0  0
 19 21  1  0  0  0  0
 20 21  1  0  0  0  0
 21 18  2  0  0  0  0
 23 22  1  0  0  0  0
 24 23  1  0  0  0  0
 24 25  1  0  0  0  0
 26 25  1  0  0  0  0
 27 26  1  0  0  0  0
 28 27  1  0  0  0  0
 30 29  2  6  0  0  0
 30 31  1  0  0  0  0
 30 28  1  0  0  0  0
 33 34  1  0  0  0  0
 34 35  1  0  0  0  0
 34 32  1  0  0  0  0
 34 30  1  0  0  0  0
 35 36  1  0  0  0  0
 37 36  1  0  0  0  0
 38 37  1  0  0  0  0
 38 41  1  0  0  0  0
 38 40  1  0  0  0  0
 40 39  1  0  0  0  0
 41 42  1  0  0  0  0
 42 39  1  0  0  0  0
 43 44  1  0  0  0  0
 45 44  1  6  0  0  0
 45 49  1  0  0  0  0
 47 46  1  0  0  0  0
 49 48  1  6  0  0  0
 49 47  1  0  0  0  0
 49 51  1  0  0  0  0
 51 46  1  0  0  0  0
 51 50  2  0  0  0  0
 52 47  2  0  0  0  0
 54 53  1  0  0  0  0
 54 45  1  0  0  0  0
 55 54  2  0  0  0  0
M  END
>  <MODEL>
3

>  <REMARK>
 VINA RESULT:      -5.7      2.166      2.940
  Name = 
  24 active torsions:
  status: ('A' for Active; 'I' for Inactive)
    1  A    between atoms: C_3  and  C_38
    2  A    between atoms: N_5  and  C_51
    3  A    between atoms: C_11  and  N_32
    4  A    between atoms: C_12  and  C_21
    5  A    between atoms: C_12  and  C_43
    6  A    between atoms: N_13  and  C_45
    7  A    between atoms: C_14  and  C_54
    8  A    between atoms: C_17  and  C_24
    9  A    between atoms: C_17  and  C_43
   10  A    between atoms: C_20  and  C_22
   11  A    between atoms: C_20  and  C_36
   12  A    between atoms: C_21  and  N_31
   13  A    between atoms: C_22  and  C_54
   14  A    between atoms: C_23  and  C_33
   15  A    between atoms: C_24  and  O_39
   16  A    between atoms: C_25  and  C_54
   17  A    between atoms: O_26  and  C_30
   18  A    between atoms: O_26  and  C_49
   19  A    between atoms: C_30  and  P_34
   20  A    between atoms: N_31  and  P_34
   21  A    between atoms: C_33  and  C_45
   22  A    between atoms: C_36  and  O_39
   23  A    between atoms: C_36  and  C_53
   24  A    between atoms: C_49  and  C_51
                            x       y       z     vdW  Elec       q    Type
                         _______ _______ _______ _____ _____    ______ ____

>  <TORSDO>
F 24

$$$$
=
 OpenBabel11062415083D

 55 58  0  0  1  0  0  0  0  0999 V2000
  187.7850  177.7070  141.5190 C   0  0  2  0  0  3  0  0  0  0  0  0
  190.7600  176.3930  139.0960 C   0  0  1  0  0  3  0  0  0  0  0  0
  191.2320  176.7350  140.3750 O   0  0  0  0  0  0  0  0  0  0  0  0
  188.4240  179.1160  138.9510 O   0  0  0  0  0  0  0  0  0  0  0  0
  189.1350  178.1900  139.4210 C   0  0  0  0  0  0  0  0  0  0  0  0
  190.0970  176.7360  141.2140 C   0  0  2  0  0  3  0  0  0  0  0  0
  189.9580  177.4500  138.5720 O   0  0  0  0  0  0  0  0  0  0  0  0
  189.1780  177.9340  140.9090 C   0  0  2  0  0  3  0  0  0  0  0  0
  193.1470  174.7480  136.5710 N   0  0  0  0  0  2  0  0  0  0  0  0
  191.8810  176.1220  138.2040 N   0  0  0  0  0  2  0  0  0  0  0  0
  192.0050  174.9350  137.4080 C   0  0  0  0  0  0  0  0  0  0  0  0
  191.1020  174.0120  137.4610 N   0  0  0  0  0  2  0  0  0  0  0  0
  194.1750  175.7650  136.4180 C   0  0  0  0  0  2  0  0  0  0  0  0
  195.3930  175.1710  135.7350 C   0  0  0  0  0  2  0  0  0  0  0  0
  196.5800  175.2910  136.6240 C   0  0  0  0  0  0  0  0  0  0  0  0
  196.5550  174.7460  137.9020 O   0  0  0  0  0  1  0  0  0  0  0  0
  197.6030  175.9080  136.2250 O   0  0  0  0  0  0  0  0  0  0  0  0
  191.7380  178.8330  143.2870 O   0  0  0  0  0  0  0  0  0  0  0  0
  190.4620  176.6870  142.7080 C   0  0  1  0  0  3  0  0  0  0  0  0
  191.7250  176.1860  142.8960 O   0  0  0  0  0  0  0  0  0  0  0  0
  191.4000  177.6430  143.0480 C   0  0  0  0  0  0  0  0  0  0  0  0
  187.0760  178.9090  141.6500 O   0  0  0  0  0  0  0  0  0  0  0  0
  185.7250  178.5650  141.5270 C   0  0  0  0  0  2  0  0  0  0  0  0
  185.1800  178.9520  140.1580 C   0  0  0  0  0  2  0  0  0  0  0  0
  183.6640  178.8930  140.1420 C   0  0  0  0  0  2  0  0  0  0  0  0
  183.2230  177.4490  140.2800 C   0  0  0  0  0  2  0  0  0  0  0  0
  181.9670  177.2040  139.4680 C   0  0  0  0  0  2  0  0  0  0  0  0
  181.5010  175.8420  139.6740 N   0  0  0  0  0  2  0  0  0  0  0  0
  180.2300  173.7650  138.2900 O   0  0  0  0  0  1  0  0  0  0  0  0
  181.2230  175.1200  138.0960 P   0  0  1  0  0  0  0  0  0  0  0  0
  180.5260  176.1170  137.1960 O   0  0  0  0  0  0  0  0  0  0  0  0
  183.7620  174.5310  138.3350 F   0  0  0  0  0  0  0  0  0  0  0  0
  182.6800  173.3520  136.7700 F   0  0  0  0  0  0  0  0  0  0  0  0
  182.8090  174.6130  137.3370 C   0  0  0  0  0  0  0  0  0  0  0  0
  183.2500  175.5730  136.3970 O   0  0  0  0  0  0  0  0  0  0  0  0
  184.6430  175.7080  136.4900 C   0  0  0  0  0  2  0  0  0  0  0  0
  184.9880  177.1430  136.8460 C   0  0  0  0  0  2  0  0  0  0  0  0
  186.4140  177.2610  137.1060 N   0  0  0  0  0  0  0  0  0  0  0  0
  188.2430  177.2210  135.6030 N   0  0  0  0  0  2  0  0  0  0  0  0
  187.0020  177.9010  135.9380 C   0  0  0  0  0  2  0  0  0  0  0  0
  186.9670  175.9160  137.1240 C   0  0  0  0  0  2  0  0  0  0  0  0
  188.0660  175.8680  136.0920 C   0  0  0  0  0  2  0  0  0  0  0  0
  187.8780  177.0190  142.8700 C   0  0  0  0  0  2  0  0  0  0  0  0
  187.6250  178.0230  143.9870 C   0  0  0  0  0  2  0  0  0  0  0  0
  187.7700  177.4000  145.3810 C   0  0  2  0  0  3  0  0  0  0  0  0
  186.3590  179.5240  147.2270 C   0  0  0  0  0  2  0  0  0  0  0  0
  187.1360  178.3260  147.6630 C   0  0  0  0  0  0  0  0  0  0  0  0
  185.7810  176.6660  146.6100 O   0  0  0  0  0  1  0  0  0  0  0  0
  186.6360  177.7480  146.3750 C   0  0  2  0  0  0  0  0  0  0  0  0
  185.1560  179.2920  145.0060 O   0  0  0  0  0  0  0  0  0  0  0  0
  185.8600  178.9490  145.9420 C   0  0  0  0  0  0  0  0  0  0  0  0
  187.7920  177.9220  148.7500 C   0  0  0  0  0  2  0  0  0  0  0  0
  189.7830  176.5150  146.6190 N   0  0  0  0  0  1  0  0  0  0  0  0
  189.1460  177.5930  145.9480 C   0  0  0  0  0  0  0  0  0  0  0  0
  189.7400  178.6960  145.8340 O   0  0  0  0  0  0  0  0  0  0  0  0
  1 22  1  0  0  0  0
  1 43  1  1  0  0  0
  2 10  1  6  0  0  0
  2  3  1  0  0  0  0
  4  5  2  0  0  0  0
  5  8  1  0  0  0  0
  6  3  1  6  0  0  0
  6 19  1  0  0  0  0
  7  2  1  0  0  0  0
  7  5  1  0  0  0  0
  8  6  1  0  0  0  0
  8  1  1  6  0  0  0
  9 11  1  0  0  0  0
 11 12  2  0  0  0  0
 11 10  1  0  0  0  0
 13  9  1  0  0  0  0
 14 13  1  0  0  0  0
 14 15  1  0  0  0  0
 15 16  1  0  0  0  0
 17 15  2  0  0  0  0
 19 20  1  6  0  0  0
 19 21  1  0  0  0  0
 20 21  1  0  0  0  0
 21 18  2  0  0  0  0
 23 22  1  0  0  0  0
 24 23  1  0  0  0  0
 25 24  1  0  0  0  0
 25 26  1  0  0  0  0
 27 28  1  0  0  0  0
 27 26  1  0  0  0  0
 30 31  2  6  0  0  0
 30 29  1  0  0  0  0
 30 28  1  0  0  0  0
 33 34  1  0  0  0  0
 34 30  1  0  0  0  0
 34 32  1  0  0  0  0
 35 36  1  0  0  0  0
 35 34  1  0  0  0  0
 36 37  1  0  0  0  0
 37 38  1  0  0  0  0
 38 41  1  0  0  0  0
 39 40  1  0  0  0  0
 39 42  1  0  0  0  0
 40 38  1  0  0  0  0
 42 41  1  0  0  0  0
 43 44  1  0  0  0  0
 45 44  1  6  0  0  0
 45 54  1  0  0  0  0
 45 49  1  0  0  0  0
 46 47  1  0  0  0  0
 47 52  2  0  0  0  0
 49 48  1  1  0  0  0
 49 47  1  0  0  0  0
 50 51  2  0  0  0  0
 51 49  1  0  0  0  0
 51 46  1  0  0  0  0
 54 53  1  0  0  0  0
 55 54  2  0  0  0  0
M  END
>  <MODEL>
4

>  <REMARK>
 VINA RESULT:      -5.6      1.669      2.091
  Name = 
  24 active torsions:
  status: ('A' for Active; 'I' for Inactive)
    1  A    between atoms: C_3  and  C_38
    2  A    between atoms: N_5  and  C_51
    3  A    between atoms: C_11  and  N_32
    4  A    between atoms: C_12  and  C_21
    5  A    between atoms: C_12  and  C_43
    6  A    between atoms: N_13  and  C_45
    7  A    between atoms: C_14  and  C_54
    8  A    between atoms: C_17  and  C_24
    9  A    between atoms: C_17  and  C_43
   10  A    between atoms: C_20  and  C_22
   11  A    between atoms: C_20  and  C_36
   12  A    between atoms: C_21  and  N_31
   13  A    between atoms: C_22  and  C_54
   14  A    between atoms: C_23  and  C_33
   15  A    between atoms: C_24  and  O_39
   16  A    between atoms: C_25  and  C_54
   17  A    between atoms: O_26  and  C_30
   18  A    between atoms: O_26  and  C_49
   19  A    between atoms: C_30  and  P_34
   20  A    between atoms: N_31  and  P_34
   21  A    between atoms: C_33  and  C_45
   22  A    between atoms: C_36  and  O_39
   23  A    between atoms: C_36  and  C_53
   24  A    between atoms: C_49  and  C_51
                            x       y       z     vdW  Elec       q    Type
                         _______ _______ _______ _____ _____    ______ ____

>  <TORSDO>
F 24

$$$$
=
 OpenBabel11062415083D

 55 58  0  0  1  0  0  0  0  0999 V2000
  184.2160  178.4040  140.1400 C   0  0  2  0  0  3  0  0  0  0  0  0
  187.0070  177.5910  142.9670 C   0  0  1  0  0  3  0  0  0  0  0  0
  186.0780  178.5500  143.4030 O   0  0  0  0  0  0  0  0  0  0  0  0
  187.1310  178.8620  139.6110 O   0  0  0  0  0  0  0  0  0  0  0  0
  186.6790  178.5550  140.7450 C   0  0  0  0  0  0  0  0  0  0  0  0
  184.9590  178.4110  142.5540 C   0  0  2  0  0  3  0  0  0  0  0  0
  187.5150  177.9490  141.6830 O   0  0  0  0  0  0  0  0  0  0  0  0
  185.2670  178.9240  141.1340 C   0  0  2  0  0  3  0  0  0  0  0  0
  190.2360  176.5400  144.7700 N   0  0  0  0  0  2  0  0  0  0  0  0
  188.1000  177.4790  143.9260 N   0  0  0  0  0  2  0  0  0  0  0  0
  189.2170  176.5930  143.7700 C   0  0  0  0  0  0  0  0  0  0  0  0
  189.3000  175.8160  142.7410 N   0  0  0  0  0  2  0  0  0  0  0  0
  190.2390  177.4230  145.9260 C   0  0  0  0  0  2  0  0  0  0  0  0
  190.2990  176.6030  147.2030 C   0  0  0  0  0  2  0  0  0  0  0  0
  191.7120  176.4580  147.6440 C   0  0  0  0  0  0  0  0  0  0  0  0
  192.2330  177.3060  148.6140 O   0  0  0  0  0  1  0  0  0  0  0  0
  192.4450  175.5780  147.1210 O   0  0  0  0  0  0  0  0  0  0  0  0
  183.8800  179.0960  145.6780 O   0  0  0  0  0  0  0  0  0  0  0  0
  183.6960  179.0840  143.1210 C   0  0  1  0  0  3  0  0  0  0  0  0
  182.7410  178.1550  143.4460 O   0  0  0  0  0  0  0  0  0  0  0  0
  183.5580  178.8740  144.4800 C   0  0  0  0  0  0  0  0  0  0  0  0
  184.7720  177.4990  139.2250 O   0  0  0  0  0  0  0  0  0  0  0  0
  184.5580  178.0610  137.9610 C   0  0  0  0  0  2  0  0  0  0  0  0
  184.4300  176.9810  136.8940 C   0  0  0  0  0  2  0  0  0  0  0  0
  185.2460  175.7560  137.2630 C   0  0  0  0  0  2  0  0  0  0  0  0
  186.5530  175.7820  136.4970 C   0  0  0  0  0  2  0  0  0  0  0  0
  187.6830  176.2310  137.4020 C   0  0  0  0  0  2  0  0  0  0  0  0
  188.6900  175.1850  137.4940 N   0  0  0  0  0  2  0  0  0  0  0  0
  190.0830  177.6150  137.5210 O   0  0  0  0  0  0  0  0  0  0  0  0
  190.2430  175.9530  137.7890 P   0  0  1  0  0  0  0  0  0  0  0  0
  190.6600  175.7240  139.2240 O   0  0  0  0  0  1  0  0  0  0  0  0
  190.9150  174.9830  135.4530 F   0  0  0  0  0  0  0  0  0  0  0  0
  192.5000  176.2240  136.4320 F   0  0  0  0  0  0  0  0  0  0  0  0
  191.5160  175.2720  136.6640 C   0  0  0  0  0  0  0  0  0  0  0  0
  192.0530  174.0690  137.1770 O   0  0  0  0  0  0  0  0  0  0  0  0
  193.4090  174.2590  137.4820 C   0  0  0  0  0  2  0  0  0  0  0  0
  194.2390  173.2150  136.7560 C   0  0  0  0  0  2  0  0  0  0  0  0
  195.1870  173.8660  135.8650 N   0  0  0  0  0  0  0  0  0  0  0  0
  197.4430  173.3300  135.3870 N   0  0  0  0  0  2  0  0  0  0  0  0
  196.0780  172.8280  135.3690 C   0  0  0  0  0  2  0  0  0  0  0  0
  196.0240  174.7340  136.6770 C   0  0  0  0  0  2  0  0  0  0  0  0
  197.4560  174.3210  136.4460 C   0  0  0  0  0  2  0  0  0  0  0  0
  183.5510  179.5450  139.3900 C   0  0  0  0  0  2  0  0  0  0  0  0
  182.1660  179.1240  138.9160 C   0  0  0  0  0  2  0  0  0  0  0  0
  181.2200  178.7980  140.0780 C   0  0  2  0  0  3  0  0  0  0  0  0
  180.2700  175.8390  140.5830 C   0  0  0  0  0  2  0  0  0  0  0  0
  180.8470  176.3980  139.3230 C   0  0  0  0  0  0  0  0  0  0  0  0
  179.1860  178.0670  138.9260 O   0  0  0  0  0  1  0  0  0  0  0  0
  180.2040  177.6650  139.7970 C   0  0  2  0  0  0  0  0  0  0  0  0
  178.9580  177.4800  142.0030 O   0  0  0  0  0  0  0  0  0  0  0  0
  179.6300  177.1020  141.0560 C   0  0  0  0  0  0  0  0  0  0  0  0
  181.4650  175.9390  138.2370 C   0  0  0  0  0  2  0  0  0  0  0  0
  180.0050  180.9930  139.8050 N   0  0  0  0  0  1  0  0  0  0  0  0
  180.5980  180.0300  140.6660 C   0  0  0  0  0  0  0  0  0  0  0  0
  180.5940  180.2190  141.9100 O   0  0  0  0  0  0  0  0  0  0  0  0
  1 43  1  6  0  0  0
  2  3  1  0  0  0  0
  2 10  1  1  0  0  0
  4  5  2  0  0  0  0
  5  8  1  0  0  0  0
  5  7  1  0  0  0  0
  6 19  1  0  0  0  0
  6  3  1  1  0  0  0
  7  2  1  0  0  0  0
  8  1  1  6  0  0  0
  8  6  1  0  0  0  0
  9 13  1  0  0  0  0
 11 10  1  0  0  0  0
 11  9  1  0  0  0  0
 12 11  2  0  0  0  0
 13 14  1  0  0  0  0
 14 15  1  0  0  0  0
 15 16  1  0  0  0  0
 17 15  2  0  0  0  0
 19 20  1  6  0  0  0
 19 21  1  0  0  0  0
 20 21  1  0  0  0  0
 21 18  2  0  0  0  0
 22  1  1  0  0  0  0
 23 22  1  0  0  0  0
 24 25  1  0  0  0  0
 24 23  1  0  0  0  0
 26 25  1  0  0  0  0
 26 27  1  0  0  0  0
 27 28  1  0  0  0  0
 28 30  1  0  0  0  0
 30 29  2  6  0  0  0
 30 31  1  0  0  0  0
 32 34  1  0  0  0  0
 33 34  1  0  0  0  0
 34 35  1  0  0  0  0
 34 30  1  0  0  0  0
 35 36  1  0  0  0  0
 37 36  1  0  0  0  0
 38 41  1  0  0  0  0
 38 37  1  0  0  0  0
 39 42  1  0  0  0  0
 40 39  1  0  0  0  0
 40 38  1  0  0  0  0
 42 41  1  0  0  0  0
 44 43  1  0  0  0  0
 45 44  1  6  0  0  0
 45 54  1  0  0  0  0
 46 51  1  0  0  0  0
 47 49  1  0  0  0  0
 47 46  1  0  0  0  0
 49 48  1  6  0  0  0
 49 45  1  0  0  0  0
 49 51  1  0  0  0  0
 51 50  2  0  0  0  0
 52 47  2  0  0  0  0
 53 54  1  0  0  0  0
 54 55  2  0  0  0  0
M  END
>  <MODEL>
5

>  <REMARK>
 VINA RESULT:      -5.5      3.409      7.927
  Name = 
  24 active torsions:
  status: ('A' for Active; 'I' for Inactive)
    1  A    between atoms: C_3  and  C_38
    2  A    between atoms: N_5  and  C_51
    3  A    between atoms: C_11  and  N_32
    4  A    between atoms: C_12  and  C_21
    5  A    between atoms: C_12  and  C_43
    6  A    between atoms: N_13  and  C_45
    7  A    between atoms: C_14  and  C_54
    8  A    between atoms: C_17  and  C_24
    9  A    between atoms: C_17  and  C_43
   10  A    between atoms: C_20  and  C_22
   11  A    between atoms: C_20  and  C_36
   12  A    between atoms: C_21  and  N_31
   13  A    between atoms: C_22  and  C_54
   14  A    between atoms: C_23  and  C_33
   15  A    between atoms: C_24  and  O_39
   16  A    between atoms: C_25  and  C_54
   17  A    between atoms: O_26  and  C_30
   18  A    between atoms: O_26  and  C_49
   19  A    between atoms: C_30  and  P_34
   20  A    between atoms: N_31  and  P_34
   21  A    between atoms: C_33  and  C_45
   22  A    between atoms: C_36  and  O_39
   23  A    between atoms: C_36  and  C_53
   24  A    between atoms: C_49  and  C_51
                            x       y       z     vdW  Elec       q    Type
                         _______ _______ _______ _____ _____    ______ ____

>  <TORSDO>
F 24

$$$$
=
 OpenBabel11062415083D

 55 58  0  0  1  0  0  0  0  0999 V2000
  187.8640  177.7960  142.1530 C   0  0  2  0  0  3  0  0  0  0  0  0
  190.9150  177.3670  139.5160 C   0  0  1  0  0  3  0  0  0  0  0  0
  189.6630  177.1590  138.9130 O   0  0  0  0  0  0  0  0  0  0  0  0
  189.9990  175.7340  142.5790 O   0  0  0  0  0  0  0  0  0  0  0  0
  189.8990  176.4110  141.5230 C   0  0  0  0  0  0  0  0  0  0  0  0
  188.7200  177.7570  139.7760 C   0  0  2  0  0  3  0  0  0  0  0  0
  191.0180  176.5940  140.7100 O   0  0  0  0  0  0  0  0  0  0  0  0
  188.5590  176.9460  141.0770 C   0  0  2  0  0  3  0  0  0  0  0  0
  193.1710  175.4680  137.0480 N   0  0  0  0  0  2  0  0  0  0  0  0
  191.9830  177.0070  138.5910 N   0  0  0  0  0  2  0  0  0  0  0  0
  192.0790  175.7380  137.9290 C   0  0  0  0  0  0  0  0  0  0  0  0
  191.1970  174.8180  138.1430 N   0  0  0  0  0  2  0  0  0  0  0  0
  194.1690  176.4720  136.7150 C   0  0  0  0  0  2  0  0  0  0  0  0
  194.9470  176.0400  135.4850 C   0  0  0  0  0  2  0  0  0  0  0  0
  196.1790  175.3130  135.8950 C   0  0  0  0  0  0  0  0  0  0  0  0
  196.2500  173.9320  135.7700 O   0  0  0  0  0  0  0  0  0  0  0  0
  197.1520  175.9510  136.3770 O   0  0  0  0  0  1  0  0  0  0  0  0
  187.1820  176.3960  137.0980 O   0  0  0  0  0  0  0  0  0  0  0  0
  187.3570  177.9880  139.0990 C   0  0  1  0  0  3  0  0  0  0  0  0
  187.4630  178.8770  138.0600 O   0  0  0  0  0  0  0  0  0  0  0  0
  187.2890  177.4010  137.8500 C   0  0  0  0  0  0  0  0  0  0  0  0
  187.5270  179.0680  141.6690 O   0  0  0  0  0  0  0  0  0  0  0  0
  186.1380  179.0500  141.4970 C   0  0  0  0  0  2  0  0  0  0  0  0
  185.4160  179.1650  142.8340 C   0  0  0  0  0  2  0  0  0  0  0  0
  184.1370  178.3500  142.8300 C   0  0  0  0  0  2  0  0  0  0  0  0
  183.2150  178.8680  143.9150 C   0  0  0  0  0  2  0  0  0  0  0  0
  181.9030  179.3300  143.3130 C   0  0  0  0  0  2  0  0  0  0  0  0
  181.5320  178.4610  142.2070 N   0  0  0  0  0  2  0  0  0  0  0  0
  179.1940  178.4750  140.6650 O   0  0  0  0  0  0  0  0  0  0  0  0
  180.5480  179.3950  141.0900 P   0  0  1  0  0  0  0  0  0  0  0  0
  180.0870  180.6690  141.7610 O   0  0  0  0  0  1  0  0  0  0  0  0
  181.2770  181.1340  139.2750 F   0  0  0  0  0  0  0  0  0  0  0  0
  182.8630  179.6570  139.8340 F   0  0  0  0  0  0  0  0  0  0  0  0
  181.5050  179.8060  139.5850 C   0  0  0  0  0  0  0  0  0  0  0  0
  181.0790  179.0260  138.4860 O   0  0  0  0  0  0  0  0  0  0  0  0
  181.6950  177.7670  138.5440 C   0  0  0  0  0  2  0  0  0  0  0  0
  180.7790  176.7290  137.9200 C   0  0  0  0  0  2  0  0  0  0  0  0
  181.0920  175.4100  138.4470 N   0  0  0  0  0  0  0  0  0  0  0  0
  179.7000  173.5170  138.7340 N   0  0  0  0  0  2  0  0  0  0  0  0
  180.2180  174.4670  137.7630 C   0  0  0  0  0  2  0  0  0  0  0  0
  180.6700  175.3850  139.8380 C   0  0  0  0  0  2  0  0  0  0  0  0
  179.7040  174.2360  139.9930 C   0  0  0  0  0  2  0  0  0  0  0  0
  188.7290  177.9350  143.3930 C   0  0  0  0  0  2  0  0  0  0  0  0
  188.1950  177.0450  144.5070 C   0  0  0  0  0  2  0  0  0  0  0  0
  187.9850  177.8080  145.8200 C   0  0  2  0  0  3  0  0  0  0  0  0
  190.1880  178.1820  148.0380 C   0  0  0  0  0  2  0  0  0  0  0  0
  190.2380  177.2590  146.8640 C   0  0  0  0  0  0  0  0  0  0  0  0
  188.3060  175.9610  147.3970 O   0  0  0  0  0  1  0  0  0  0  0  0
  188.7510  177.2380  147.0390 C   0  0  2  0  0  0  0  0  0  0  0  0
  187.8710  178.6520  148.9550 O   0  0  0  0  0  0  0  0  0  0  0  0
  188.7050  178.1620  148.2120 C   0  0  0  0  0  0  0  0  0  0  0  0
  191.1680  176.6310  146.1470 C   0  0  0  0  0  2  0  0  0  0  0  0
  186.1090  179.4020  146.3790 N   0  0  0  0  0  1  0  0  0  0  0  0
  186.5340  178.0760  146.0950 C   0  0  0  0  0  0  0  0  0  0  0  0
  185.6920  177.1410  146.0730 O   0  0  0  0  0  0  0  0  0  0  0  0
  1 43  1  1  0  0  0
  2 10  1  6  0  0  0
  2  7  1  0  0  0  0
  3  2  1  0  0  0  0
  5  4  2  0  0  0  0
  6  3  1  6  0  0  0
  6  8  1  0  0  0  0
  7  5  1  0  0  0  0
  8  5  1  0  0  0  0
  8  1  1  1  0  0  0
  9 11  1  0  0  0  0
 11 12  2  0  0  0  0
 11 10  1  0  0  0  0
 13  9  1  0  0  0  0
 14 15  1  0  0  0  0
 14 13  1  0  0  0  0
 15 17  1  0  0  0  0
 16 15  2  0  0  0  0
 18 21  2  0  0  0  0
 19 21  1  6  0  0  0
 19  6  1  0  0  0  0
 20 19  1  0  0  0  0
 21 20  1  0  0  0  0
 22  1  1  0  0  0  0
 23 22  1  0  0  0  0
 23 24  1  0  0  0  0
 25 24  1  0  0  0  0
 25 26  1  0  0  0  0
 27 26  1  0  0  0  0
 28 27  1  0  0  0  0
 30 29  2  6  0  0  0
 30 31  1  0  0  0  0
 30 28  1  0  0  0  0
 32 34  1  0  0  0  0
 34 33  1  0  0  0  0
 34 30  1  0  0  0  0
 35 36  1  0  0  0  0
 35 34  1  0  0  0  0
 37 38  1  0  0  0  0
 37 36  1  0  0  0  0
 38 41  1  0  0  0  0
 39 42  1  0  0  0  0
 40 38  1  0  0  0  0
 40 39  1  0  0  0  0
 41 42  1  0  0  0  0
 43 44  1  0  0  0  0
 45 44  1  6  0  0  0
 45 54  1  0  0  0  0
 45 49  1  0  0  0  0
 46 51  1  0  0  0  0
 47 49  1  0  0  0  0
 47 46  1  0  0  0  0
 49 48  1  1  0  0  0
 49 51  1  0  0  0  0
 51 50  2  0  0  0  0
 52 47  2  0  0  0  0
 54 53  1  0  0  0  0
 55 54  2  0  0  0  0
M  END
>  <MODEL>
6

>  <REMARK>
 VINA RESULT:      -5.3      2.372      4.479
  Name = 
  24 active torsions:
  status: ('A' for Active; 'I' for Inactive)
    1  A    between atoms: C_3  and  C_38
    2  A    between atoms: N_5  and  C_51
    3  A    between atoms: C_11  and  N_32
    4  A    between atoms: C_12  and  C_21
    5  A    between atoms: C_12  and  C_43
    6  A    between atoms: N_13  and  C_45
    7  A    between atoms: C_14  and  C_54
    8  A    between atoms: C_17  and  C_24
    9  A    between atoms: C_17  and  C_43
   10  A    between atoms: C_20  and  C_22
   11  A    between atoms: C_20  and  C_36
   12  A    between atoms: C_21  and  N_31
   13  A    between atoms: C_22  and  C_54
   14  A    between atoms: C_23  and  C_33
   15  A    between atoms: C_24  and  O_39
   16  A    between atoms: C_25  and  C_54
   17  A    between atoms: O_26  and  C_30
   18  A    between atoms: O_26  and  C_49
   19  A    between atoms: C_30  and  P_34
   20  A    between atoms: N_31  and  P_34
   21  A    between atoms: C_33  and  C_45
   22  A    between atoms: C_36  and  O_39
   23  A    between atoms: C_36  and  C_53
   24  A    between atoms: C_49  and  C_51
                            x       y       z     vdW  Elec       q    Type
                         _______ _______ _______ _____ _____    ______ ____

>  <TORSDO>
F 24

$$$$
=
 OpenBabel11062415083D

 55 58  0  0  1  0  0  0  0  0999 V2000
  184.2660  178.4230  140.0760 C   0  0  2  0  0  3  0  0  0  0  0  0
  187.0820  177.6530  142.8910 C   0  0  1  0  0  3  0  0  0  0  0  0
  186.1820  178.6500  143.3030 O   0  0  0  0  0  0  0  0  0  0  0  0
  187.1830  178.7910  139.4870 O   0  0  0  0  0  0  0  0  0  0  0  0
  186.7410  178.5390  140.6380 C   0  0  0  0  0  0  0  0  0  0  0  0
  185.0470  178.5050  142.4770 C   0  0  2  0  0  3  0  0  0  0  0  0
  187.5780  177.9500  141.5870 O   0  0  0  0  0  0  0  0  0  0  0  0
  185.3440  178.9550  141.0330 C   0  0  2  0  0  3  0  0  0  0  0  0
  190.3280  176.6150  144.6700 N   0  0  0  0  0  2  0  0  0  0  0  0
  188.1870  177.5520  143.8370 N   0  0  0  0  0  2  0  0  0  0  0  0
  189.2960  176.6560  143.6830 C   0  0  0  0  0  0  0  0  0  0  0  0
  189.3610  175.8590  142.6680 N   0  0  0  0  0  2  0  0  0  0  0  0
  190.3520  177.5200  145.8090 C   0  0  0  0  0  2  0  0  0  0  0  0
  189.8330  176.8080  147.0460 C   0  0  0  0  0  2  0  0  0  0  0  0
  188.7040  177.5780  147.6360 C   0  0  0  0  0  0  0  0  0  0  0  0
  187.9200  177.0150  148.6340 O   0  0  0  0  0  1  0  0  0  0  0  0
  188.4470  178.7360  147.2120 O   0  0  0  0  0  0  0  0  0  0  0  0
  183.9080  179.1150  145.5940 O   0  0  0  0  0  0  0  0  0  0  0  0
  183.8090  179.2290  143.0360 C   0  0  1  0  0  3  0  0  0  0  0  0
  182.7890  178.3480  143.2880 O   0  0  0  0  0  0  0  0  0  0  0  0
  183.6140  178.9670  144.3780 C   0  0  0  0  0  0  0  0  0  0  0  0
  184.7840  177.4610  139.1980 O   0  0  0  0  0  0  0  0  0  0  0  0
  184.6100  177.9890  137.9130 C   0  0  0  0  0  2  0  0  0  0  0  0
  184.4420  176.8820  136.8810 C   0  0  0  0  0  2  0  0  0  0  0  0
  185.3700  175.7190  137.1790 C   0  0  0  0  0  2  0  0  0  0  0  0
  186.6270  175.8600  136.3440 C   0  0  0  0  0  2  0  0  0  0  0  0
  187.8420  175.9820  137.2420 C   0  0  0  0  0  2  0  0  0  0  0  0
  188.9200  175.1500  136.7320 N   0  0  0  0  0  2  0  0  0  0  0  0
  190.1740  177.4060  137.8200 O   0  0  0  0  0  0  0  0  0  0  0  0
  190.4400  175.8140  137.3180 P   0  0  1  0  0  0  0  0  0  0  0  0
  190.9290  175.0010  138.4950 O   0  0  0  0  0  1  0  0  0  0  0  0
  191.0920  176.1710  134.8090 F   0  0  0  0  0  0  0  0  0  0  0  0
  192.6960  176.7170  136.2710 F   0  0  0  0  0  0  0  0  0  0  0  0
  191.7000  175.7920  135.9910 C   0  0  0  0  0  0  0  0  0  0  0  0
  192.2210  174.4900  135.8100 O   0  0  0  0  0  0  0  0  0  0  0  0
  193.6230  174.5450  135.8280 C   0  0  0  0  0  2  0  0  0  0  0  0
  194.1050  174.6590  137.2630 C   0  0  0  0  0  2  0  0  0  0  0  0
  195.5120  175.0240  137.2870 N   0  0  0  0  0  0  0  0  0  0  0  0
  197.3970  173.8810  136.4230 N   0  0  0  0  0  2  0  0  0  0  0  0
  196.1110  174.4680  136.0820 C   0  0  0  0  0  2  0  0  0  0  0  0
  196.1310  174.3050  138.3890 C   0  0  0  0  0  2  0  0  0  0  0  0
  197.2700  173.4990  137.8150 C   0  0  0  0  0  2  0  0  0  0  0  0
  183.6260  179.5480  139.2810 C   0  0  0  0  0  2  0  0  0  0  0  0
  182.2000  179.7830  139.7610 C   0  0  0  0  0  2  0  0  0  0  0  0
  181.2300  178.6990  139.2740 C   0  0  2  0  0  3  0  0  0  0  0  0
  180.2890  180.7060  137.0370 C   0  0  0  0  0  2  0  0  0  0  0  0
  179.8340  180.6630  138.4600 C   0  0  0  0  0  0  0  0  0  0  0  0
  178.9390  178.4490  138.4410 O   0  0  0  0  0  1  0  0  0  0  0  0
  180.1150  179.1980  138.3230 C   0  0  2  0  0  0  0  0  0  0  0  0
  180.9670  178.4740  136.0430 O   0  0  0  0  0  0  0  0  0  0  0  0
  180.5710  179.2460  136.9010 C   0  0  0  0  0  0  0  0  0  0  0  0
  179.2800  181.4950  139.3400 C   0  0  0  0  0  2  0  0  0  0  0  0
  180.1080  178.4620  141.5220 N   0  0  0  0  0  1  0  0  0  0  0  0
  180.7220  177.8460  140.3990 C   0  0  0  0  0  0  0  0  0  0  0  0
  180.8310  176.5930  140.3560 O   0  0  0  0  0  0  0  0  0  0  0  0
  1 43  1  6  0  0  0
  2  3  1  0  0  0  0
  2 10  1  1  0  0  0
  4  5  2  0  0  0  0
  5  8  1  0  0  0  0
  5  7  1  0  0  0  0
  6 19  1  0  0  0  0
  6  3  1  1  0  0  0
  7  2  1  0  0  0  0
  8  1  1  6  0  0  0
  8  6  1  0  0  0  0
  9 13  1  0  0  0  0
 11 10  1  0  0  0  0
 11  9  1  0  0  0  0
 12 11  2  0  0  0  0
 13 14  1  0  0  0  0
 14 15  1  0  0  0  0
 15 16  1  0  0  0  0
 17 15  2  0  0  0  0
 19 20  1  6  0  0  0
 19 21  1  0  0  0  0
 20 21  1  0  0  0  0
 21 18  2  0  0  0  0
 22  1  1  0  0  0  0
 23 22  1  0  0  0  0
 24 25  1  0  0  0  0
 24 23  1  0  0  0  0
 26 25  1  0  0  0  0
 26 27  1  0  0  0  0
 28 27  1  0  0  0  0
 28 30  1  0  0  0  0
 30 29  2  1  0  0  0
 30 31  1  0  0  0  0
 32 34  1  0  0  0  0
 34 33  1  0  0  0  0
 34 30  1  0  0  0  0
 35 36  1  0  0  0  0
 35 34  1  0  0  0  0
 36 37  1  0  0  0  0
 37 38  1  0  0  0  0
 38 41  1  0  0  0  0
 39 42  1  0  0  0  0
 40 39  1  0  0  0  0
 40 38  1  0  0  0  0
 42 41  1  0  0  0  0
 43 44  1  0  0  0  0
 45 44  1  1  0  0  0
 45 54  1  0  0  0  0
 46 47  1  0  0  0  0
 47 52  2  0  0  0  0
 49 48  1  1  0  0  0
 49 47  1  0  0  0  0
 49 45  1  0  0  0  0
 50 51  2  0  0  0  0
 51 46  1  0  0  0  0
 51 49  1  0  0  0  0
 54 53  1  0  0  0  0
 55 54  2  0  0  0  0
M  END
>  <MODEL>
7

>  <REMARK>
 VINA RESULT:      -5.1      3.365      8.452
  Name = 
  24 active torsions:
  status: ('A' for Active; 'I' for Inactive)
    1  A    between atoms: C_3  and  C_38
    2  A    between atoms: N_5  and  C_51
    3  A    between atoms: C_11  and  N_32
    4  A    between atoms: C_12  and  C_21
    5  A    between atoms: C_12  and  C_43
    6  A    between atoms: N_13  and  C_45
    7  A    between atoms: C_14  and  C_54
    8  A    between atoms: C_17  and  C_24
    9  A    between atoms: C_17  and  C_43
   10  A    between atoms: C_20  and  C_22
   11  A    between atoms: C_20  and  C_36
   12  A    between atoms: C_21  and  N_31
   13  A    between atoms: C_22  and  C_54
   14  A    between atoms: C_23  and  C_33
   15  A    between atoms: C_24  and  O_39
   16  A    between atoms: C_25  and  C_54
   17  A    between atoms: O_26  and  C_30
   18  A    between atoms: O_26  and  C_49
   19  A    between atoms: C_30  and  P_34
   20  A    between atoms: N_31  and  P_34
   21  A    between atoms: C_33  and  C_45
   22  A    between atoms: C_36  and  O_39
   23  A    between atoms: C_36  and  C_53
   24  A    between atoms: C_49  and  C_51
                            x       y       z     vdW  Elec       q    Type
                         _______ _______ _______ _____ _____    ______ ____

>  <TORSDO>
F 24

$$$$
=
 OpenBabel11062415083D

 55 58  0  0  1  0  0  0  0  0999 V2000
  187.8540  178.1710  142.3600 C   0  0  2  0  0  3  0  0  0  0  0  0
  184.7030  178.3780  139.8150 C   0  0  1  0  0  3  0  0  0  0  0  0
  185.9050  178.7710  139.2020 O   0  0  0  0  0  0  0  0  0  0  0  0
  185.5000  179.9310  142.9530 O   0  0  0  0  0  0  0  0  0  0  0  0
  185.6510  179.3330  141.8560 C   0  0  0  0  0  0  0  0  0  0  0  0
  186.9360  178.2430  140.0080 C   0  0  2  0  0  3  0  0  0  0  0  0
  184.5410  179.0630  141.0560 O   0  0  0  0  0  0  0  0  0  0  0  0
  187.0330  178.9910  141.3520 C   0  0  2  0  0  3  0  0  0  0  0  0
  181.5410  178.0410  137.6540 N   0  0  0  0  0  2  0  0  0  0  0  0
  183.5750  178.6580  138.9350 N   0  0  0  0  0  2  0  0  0  0  0  0
  182.6080  177.6790  138.5330 C   0  0  0  0  0  0  0  0  0  0  0  0
  182.7050  176.4550  138.9370 N   0  0  0  0  0  2  0  0  0  0  0  0
  181.3350  179.4090  137.2030 C   0  0  0  0  0  2  0  0  0  0  0  0
  179.9510  179.8840  137.6100 C   0  0  0  0  0  2  0  0  0  0  0  0
  179.9210  180.1590  139.0720 C   0  0  0  0  0  0  0  0  0  0  0  0
  179.2320  179.3100  139.9290 O   0  0  0  0  0  1  0  0  0  0  0  0
  180.5040  181.1760  139.5310 O   0  0  0  0  0  0  0  0  0  0  0  0
  188.0250  179.3830  137.0240 O   0  0  0  0  0  0  0  0  0  0  0  0
  188.2980  178.2190  139.2910 C   0  0  1  0  0  3  0  0  0  0  0  0
  188.3940  177.1450  138.4440 O   0  0  0  0  0  0  0  0  0  0  0  0
  188.1890  178.5490  137.9540 C   0  0  0  0  0  0  0  0  0  0  0  0
  188.5850  177.1570  141.7280 O   0  0  0  0  0  0  0  0  0  0  0  0
  189.9160  177.3510  142.1170 C   0  0  0  0  0  2  0  0  0  0  0  0
  190.8750  177.0410  140.9750 C   0  0  0  0  0  2  0  0  0  0  0  0
  192.2800  177.5070  141.3060 C   0  0  0  0  0  2  0  0  0  0  0  0
  193.2110  177.1210  140.1740 C   0  0  0  0  0  2  0  0  0  0  0  0
  192.4200  176.8840  138.9030 C   0  0  0  0  0  2  0  0  0  0  0  0
  193.3260  176.7460  137.7740 N   0  0  0  0  0  2  0  0  0  0  0  0
  193.6960  175.2630  135.4260 O   0  0  0  0  0  0  0  0  0  0  0  0
  192.9130  175.2630  136.9250 P   0  0  1  0  0  0  0  0  0  0  0  0
  193.3840  174.0700  137.7270 O   0  0  0  0  0  1  0  0  0  0  0  0
  190.5210  174.7550  137.8580 F   0  0  0  0  0  0  0  0  0  0  0  0
  190.5970  176.4080  136.3510 F   0  0  0  0  0  0  0  0  0  0  0  0
  191.1040  175.1550  136.6700 C   0  0  0  0  0  0  0  0  0  0  0  0
  190.7880  174.1900  135.6870 O   0  0  0  0  0  0  0  0  0  0  0  0
  189.6930  173.4270  136.1210 C   0  0  0  0  0  2  0  0  0  0  0  0
  188.6910  173.2950  134.9880 C   0  0  0  0  0  2  0  0  0  0  0  0
  187.4400  173.9390  135.3550 N   0  0  0  0  0  0  0  0  0  0  0  0
  186.0470  173.5950  137.2390 N   0  0  0  0  0  2  0  0  0  0  0  0
  187.3880  173.9570  136.8100 C   0  0  0  0  0  2  0  0  0  0  0  0
  186.3590  173.0570  134.9450 C   0  0  0  0  0  2  0  0  0  0  0  0
  185.5320  172.7590  136.1710 C   0  0  0  0  0  2  0  0  0  0  0  0
  186.9670  177.5670  143.4350 C   0  0  0  0  0  2  0  0  0  0  0  0
  187.8210  177.0030  144.5620 C   0  0  0  0  0  2  0  0  0  0  0  0
  187.7640  177.8630  145.8310 C   0  0  2  0  0  3  0  0  0  0  0  0
  189.9290  178.2600  148.0820 C   0  0  0  0  0  2  0  0  0  0  0  0
  190.0230  177.3670  146.8880 C   0  0  0  0  0  0  0  0  0  0  0  0
  188.1310  175.9920  147.3690 O   0  0  0  0  0  1  0  0  0  0  0  0
  188.5350  177.2910  147.0450 C   0  0  2  0  0  0  0  0  0  0  0  0
  187.5870  178.6300  148.9830 O   0  0  0  0  0  0  0  0  0  0  0  0
  188.4460  178.1860  148.2380 C   0  0  0  0  0  0  0  0  0  0  0  0
  190.9810  176.7870  146.1680 C   0  0  0  0  0  2  0  0  0  0  0  0
  185.3890  177.3190  146.4890 N   0  0  0  0  0  1  0  0  0  0  0  0
  186.3650  178.2960  146.1590 C   0  0  0  0  0  0  0  0  0  0  0  0
  186.0500  179.5150  146.1480 O   0  0  0  0  0  0  0  0  0  0  0  0
  1 43  1  1  0  0  0
  2 10  1  6  0  0  0
  2  7  1  0  0  0  0
  3  2  1  0  0  0  0
  5  4  2  0  0  0  0
  6  3  1  6  0  0  0
  6  8  1  0  0  0  0
  7  5  1  0  0  0  0
  8  5  1  0  0  0  0
  8  1  1  1  0  0  0
  9 11  1  0  0  0  0
 11 10  1  0  0  0  0
 11 12  2  0  0  0  0
 13 14  1  0  0  0  0
 13  9  1  0  0  0  0
 14 15  1  0  0  0  0
 15 17  2  0  0  0  0
 15 16  1  0  0  0  0
 18 21  2  0  0  0  0
 19 21  1  6  0  0  0
 19  6  1  0  0  0  0
 20 19  1  0  0  0  0
 21 20  1  0  0  0  0
 22 23  1  0  0  0  0
 22  1  1  0  0  0  0
 24 25  1  0  0  0  0
 24 23  1  0  0  0  0
 26 25  1  0  0  0  0
 27 26  1  0  0  0  0
 28 27  1  0  0  0  0
 30 29  2  6  0  0  0
 30 31  1  0  0  0  0
 30 28  1  0  0  0  0
 33 34  1  0  0  0  0
 34 30  1  0  0  0  0
 34 32  1  0  0  0  0
 35 36  1  0  0  0  0
 35 34  1  0  0  0  0
 37 38  1  0  0  0  0
 37 36  1  0  0  0  0
 38 40  1  0  0  0  0
 40 39  1  0  0  0  0
 41 38  1  0  0  0  0
 41 42  1  0  0  0  0
 42 39  1  0  0  0  0
 43 44  1  0  0  0  0
 45 44  1  6  0  0  0
 45 54  1  0  0  0  0
 45 49  1  0  0  0  0
 46 51  1  0  0  0  0
 47 49  1  0  0  0  0
 47 46  1  0  0  0  0
 49 48  1  1  0  0  0
 49 51  1  0  0  0  0
 51 50  2  0  0  0  0
 52 47  2  0  0  0  0
 54 53  1  0  0  0  0
 55 54  2  0  0  0  0
M  END
>  <MODEL>
8

>  <REMARK>
 VINA RESULT:      -5.0      3.337      8.226
  Name = 
  24 active torsions:
  status: ('A' for Active; 'I' for Inactive)
    1  A    between atoms: C_3  and  C_38
    2  A    between atoms: N_5  and  C_51
    3  A    between atoms: C_11  and  N_32
    4  A    between atoms: C_12  and  C_21
    5  A    between atoms: C_12  and  C_43
    6  A    between atoms: N_13  and  C_45
    7  A    between atoms: C_14  and  C_54
    8  A    between atoms: C_17  and  C_24
    9  A    between atoms: C_17  and  C_43
   10  A    between atoms: C_20  and  C_22
   11  A    between atoms: C_20  and  C_36
   12  A    between atoms: C_21  and  N_31
   13  A    between atoms: C_22  and  C_54
   14  A    between atoms: C_23  and  C_33
   15  A    between atoms: C_24  and  O_39
   16  A    between atoms: C_25  and  C_54
   17  A    between atoms: O_26  and  C_30
   18  A    between atoms: O_26  and  C_49
   19  A    between atoms: C_30  and  P_34
   20  A    between atoms: N_31  and  P_34
   21  A    between atoms: C_33  and  C_45
   22  A    between atoms: C_36  and  O_39
   23  A    between atoms: C_36  and  C_53
   24  A    between atoms: C_49  and  C_51
                            x       y       z     vdW  Elec       q    Type
                         _______ _______ _______ _____ _____    ______ ____

>  <TORSDO>
F 24

$$$$
=
 OpenBabel11062415083D

 55 58  0  0  1  0  0  0  0  0999 V2000
  187.4530  175.3160  136.4490 C   0  0  2  0  0  3  0  0  0  0  0  0
  191.3150  174.9280  137.6250 C   0  0  1  0  0  3  0  0  0  0  0  0
  191.2000  175.6130  136.4030 O   0  0  0  0  0  0  0  0  0  0  0  0
  188.6780  172.6120  136.8670 O   0  0  0  0  0  0  0  0  0  0  0  0
  189.3440  173.6800  136.8950 C   0  0  0  0  0  0  0  0  0  0  0  0
  189.8630  176.0610  136.3400 C   0  0  2  0  0  3  0  0  0  0  0  0
  190.5580  173.7200  137.5810 O   0  0  0  0  0  0  0  0  0  0  0  0
  188.8900  174.8890  136.1120 C   0  0  2  0  0  3  0  0  0  0  0  0
  194.9970  175.2090  138.6930 N   0  0  0  0  0  2  0  0  0  0  0  0
  192.7150  174.6350  137.9070 N   0  0  0  0  0  2  0  0  0  0  0  0
  193.6370  175.5820  138.4630 C   0  0  0  0  0  0  0  0  0  0  0  0
  193.2570  176.7860  138.7350 N   0  0  0  0  0  2  0  0  0  0  0  0
  195.4830  173.8580  138.4640 C   0  0  0  0  0  2  0  0  0  0  0  0
  196.4660  173.8510  137.3070 C   0  0  0  0  0  2  0  0  0  0  0  0
  197.7320  174.5180  137.7160 C   0  0  0  0  0  0  0  0  0  0  0  0
  197.9670  174.8130  139.0530 O   0  0  0  0  0  1  0  0  0  0  0  0
  198.5840  174.8340  136.8440 O   0  0  0  0  0  0  0  0  0  0  0  0
  189.0950  179.3430  136.5090 O   0  0  0  0  0  0  0  0  0  0  0  0
  189.6560  177.1630  135.2850 C   0  0  1  0  0  3  0  0  0  0  0  0
  188.3300  177.2990  134.9610 O   0  0  0  0  0  0  0  0  0  0  0  0
  189.0620  178.2910  135.8170 C   0  0  0  0  0  0  0  0  0  0  0  0
  187.3210  175.6690  137.7990 O   0  0  0  0  0  0  0  0  0  0  0  0
  186.4550  176.7680  137.8200 C   0  0  0  0  0  2  0  0  0  0  0  0
  187.0440  177.9180  138.6270 C   0  0  0  0  0  2  0  0  0  0  0  0
  188.2870  177.4730  139.3750 C   0  0  0  0  0  2  0  0  0  0  0  0
  188.7690  178.6070  140.2570 C   0  0  0  0  0  2  0  0  0  0  0  0
  188.5540  178.2630  141.7180 C   0  0  0  0  0  2  0  0  0  0  0  0
  189.0460  176.9220  141.9880 N   0  0  0  0  0  2  0  0  0  0  0  0
  191.0320  175.5460  143.4070 O   0  0  0  0  0  1  0  0  0  0  0  0
  190.5920  177.0670  142.8130 P   0  0  1  0  0  0  0  0  0  0  0  0
  191.6470  177.5390  141.8370 O   0  0  0  0  0  0  0  0  0  0  0  0
  191.3350  177.8490  145.1970 F   0  0  0  0  0  0  0  0  0  0  0  0
  190.8640  179.5160  143.7800 F   0  0  0  0  0  0  0  0  0  0  0  0
  190.4670  178.2540  144.2000 C   0  0  0  0  0  0  0  0  0  0  0  0
  189.1610  178.2620  144.7420 O   0  0  0  0  0  0  0  0  0  0  0  0
  189.0880  177.3350  145.7920 C   0  0  0  0  0  2  0  0  0  0  0  0
  187.6440  177.1960  146.2420 C   0  0  0  0  0  2  0  0  0  0  0  0
  186.8880  178.3770  145.8560 N   0  0  0  0  0  0  0  0  0  0  0  0
  184.6420  178.9650  146.3210 N   0  0  0  0  0  2  0  0  0  0  0  0
  185.9230  178.6230  146.9190 C   0  0  0  0  0  2  0  0  0  0  0  0
  186.0930  178.0250  144.6910 C   0  0  0  0  0  2  0  0  0  0  0  0
  184.6500  178.3070  145.0300 C   0  0  0  0  0  2  0  0  0  0  0  0
  186.4550  174.2230  136.1070 C   0  0  0  0  0  2  0  0  0  0  0  0
  185.3180  174.7950  135.2700 C   0  0  0  0  0  2  0  0  0  0  0  0
  183.9820  174.0890  135.5330 C   0  0  2  0  0  3  0  0  0  0  0  0
  181.3130  175.6630  136.0910 C   0  0  0  0  0  2  0  0  0  0  0  0
  182.7050  176.2040  136.1340 C   0  0  0  0  0  0  0  0  0  0  0  0
  183.5510  174.7710  137.8460 O   0  0  0  0  0  1  0  0  0  0  0  0
  183.0500  174.8050  136.5400 C   0  0  2  0  0  0  0  0  0  0  0  0
  181.0790  173.2120  136.6970 O   0  0  0  0  0  0  0  0  0  0  0  0
  181.6570  174.2680  136.4940 C   0  0  0  0  0  0  0  0  0  0  0  0
  183.3020  177.3910  136.0380 C   0  0  0  0  0  2  0  0  0  0  0  0
  184.3490  172.1900  137.1540 N   0  0  0  0  0  1  0  0  0  0  0  0
  184.1600  172.6260  135.8150 C   0  0  0  0  0  0  0  0  0  0  0  0
  184.1420  171.7830  134.8810 O   0  0  0  0  0  0  0  0  0  0  0  0
  1 43  1  1  0  0  0
  1 22  1  0  0  0  0
  2 10  1  6  0  0  0
  3  2  1  0  0  0  0
  4  5  2  0  0  0  0
  5  7  1  0  0  0  0
  6  3  1  6  0  0  0
  7  2  1  0  0  0  0
  8  6  1  0  0  0  0
  8  1  1  1  0  0  0
  8  5  1  0  0  0  0
 10 11  1  0  0  0  0
 11  9  1  0  0  0  0
 11 12  2  0  0  0  0
 13  9  1  0  0  0  0
 14 15  1  0  0  0  0
 14 13  1  0  0  0  0
 15 16  1  0  0  0  0
 17 15  2  0  0  0  0
 19 20  1  6  0  0  0
 19 21  1  0  0  0  0
 19  6  1  0  0  0  0
 20 21  1  0  0  0  0
 21 18  2  0  0  0  0
 22 23  1  0  0  0  0
 23 24  1  0  0  0  0
 24 25  1  0  0  0  0
 25 26  1  0  0  0  0
 26 27  1  0  0  0  0
 27 28  1  0  0  0  0
 28 30  1  0  0  0  0
 30 31  2  6  0  0  0
 30 29  1  0  0  0  0
 30 34  1  0  0  0  0
 33 34  1  0  0  0  0
 34 35  1  0  0  0  0
 34 32  1  0  0  0  0
 35 36  1  0  0  0  0
 36 37  1  0  0  0  0
 38 37  1  0  0  0  0
 38 40  1  0  0  0  0
 39 40  1  0  0  0  0
 41 42  1  0  0  0  0
 41 38  1  0  0  0  0
 42 39  1  0  0  0  0
 44 43  1  0  0  0  0
 45 44  1  1  0  0  0
 45 54  1  0  0  0  0
 45 49  1  0  0  0  0
 46 47  1  0  0  0  0
 46 51  1  0  0  0  0
 47 49  1  0  0  0  0
 49 48  1  1  0  0  0
 51 49  1  0  0  0  0
 51 50  2  0  0  0  0
 52 47  2  0  0  0  0
 54 53  1  0  0  0  0
 55 54  2  0  0  0  0
M  END
>  <MODEL>
9

>  <REMARK>
 VINA RESULT:      -5.0      3.625      8.371
  Name = 
  24 active torsions:
  status: ('A' for Active; 'I' for Inactive)
    1  A    between atoms: C_3  and  C_38
    2  A    between atoms: N_5  and  C_51
    3  A    between atoms: C_11  and  N_32
    4  A    between atoms: C_12  and  C_21
    5  A    between atoms: C_12  and  C_43
    6  A    between atoms: N_13  and  C_45
    7  A    between atoms: C_14  and  C_54
    8  A    between atoms: C_17  and  C_24
    9  A    between atoms: C_17  and  C_43
   10  A    between atoms: C_20  and  C_22
   11  A    between atoms: C_20  and  C_36
   12  A    between atoms: C_21  and  N_31
   13  A    between atoms: C_22  and  C_54
   14  A    between atoms: C_23  and  C_33
   15  A    between atoms: C_24  and  O_39
   16  A    between atoms: C_25  and  C_54
   17  A    between atoms: O_26  and  C_30
   18  A    between atoms: O_26  and  C_49
   19  A    between atoms: C_30  and  P_34
   20  A    between atoms: N_31  and  P_34
   21  A    between atoms: C_33  and  C_45
   22  A    between atoms: C_36  and  O_39
   23  A    between atoms: C_36  and  C_53
   24  A    between atoms: C_49  and  C_51
                            x       y       z     vdW  Elec       q    Type
                         _______ _______ _______ _____ _____    ______ ____

>  <TORSDO>
F 24

$$$$
