=
 OpenBabel11062416003D

 36 39  0  0  1  0  0  0  0  0999 V2000
  190.2410  177.1810  144.7910 C   0  0  2  0  0  3  0  0  0  0  0  0
  186.5580  176.8790  145.0660 C   0  0  0  0  0  2  0  0  0  0  0  0
  187.8500  176.7380  144.3460 C   0  0  0  0  0  2  0  0  0  0  0  0
  188.7730  177.4250  144.9890 C   0  0  1  0  0  3  0  0  0  0  0  0
  190.0360  176.5840  147.1290 O   0  0  0  0  0  0  0  0  0  0  0  0
  189.1150  177.6050  147.4500 C   0  0  0  0  0  2  0  0  0  0  0  0
  186.8760  177.4570  146.3780 N   0  0  0  0  0  0  0  0  0  0  0  0
  188.2300  177.9970  146.2490 C   0  0  2  0  0  3  0  0  0  0  0  0
  190.9160  177.1230  146.1670 C   0  0  0  0  0  2  0  0  0  0  0  0
  190.9030  178.2800  143.9640 C   0  0  0  0  0  2  0  0  0  0  0  0
  191.6650  177.7340  142.7630 C   0  0  0  0  0  2  0  0  0  0  0  0
  190.7580  176.8500  141.9190 C   0  0  0  0  0  2  0  0  0  0  0  0
  189.4720  177.6190  136.3780 C   0  0  0  0  0  1  0  0  0  0  0  0
  188.8300  177.8610  138.7440 C   0  0  0  0  0  0  0  0  0  0  0  0
  189.7120  177.4150  137.8380 C   0  0  0  0  0  0  0  0  0  0  0  0
  189.0390  177.5780  140.2200 C   0  0  1  0  0  3  0  0  0  0  0  0
  190.5360  177.4720  140.5470 C   0  0  2  0  0  3  0  0  0  0  0  0
  191.2590  176.6980  139.5370 N   0  0  0  0  0  0  0  0  0  0  0  0
  190.9240  176.6960  138.2790 C   0  0  0  0  0  0  0  0  0  0  0  0
  187.6820  178.5310  138.3230 O   0  0  0  0  0  1  0  0  0  0  0  0
  188.4170  178.6690  141.0890 C   0  0  0  0  0  2  0  0  0  0  0  0
  187.1750  178.2590  141.5730 O   0  0  0  0  0  1  0  0  0  0  0  0
  192.7150  175.0920  137.7210 C   0  0  0  0  0  1  0  0  0  0  0  0
  191.6960  176.0060  137.3410 O   0  0  0  0  0  0  0  0  0  0  0  0
  185.9470  178.5550  146.6630 C   0  0  0  0  0  2  0  0  0  0  0  0
  185.7680  179.4110  145.5320 O   0  0  0  0  0  0  0  0  0  0  0  0
  182.5920  178.9400  142.7950 C   0  0  0  0  0  0  0  0  0  0  0  0
  182.3900  178.7950  144.1760 C   0  0  0  0  0  3  0  0  0  0  0  0
  183.8890  179.2430  142.3250 C   0  0  0  0  0  0  0  0  0  0  0  0
  184.7280  179.2520  144.6080 C   0  0  0  0  0  0  0  0  0  0  0  0
  184.9420  179.3950  143.2300 C   0  0  0  0  0  3  0  0  0  0  0  0
  183.4480  178.9490  145.0740 C   0  0  0  0  0  3  0  0  0  0  0  0
  184.1490  179.3980  140.9680 O   0  0  0  0  0  1  0  0  0  0  0  0
  181.4000  177.7410  140.9510 O   0  0  0  0  0  0  0  0  0  0  0  0
  181.4370  178.7720  141.8840 C   0  0  0  0  0  0  0  0  0  0  0  0
  180.4650  179.5720  141.9430 O   0  0  0  0  0  1  0  0  0  0  0  0
  1 10  1  6  0  0  0
  1  4  1  0  0  0  0
  1  9  1  0  0  0  0
  2  7  1  0  0  0  0
  3  2  1  0  0  0  0
  4  3  1  1  0  0  0
  4  8  1  0  0  0  0
  5  6  1  0  0  0  0
  7 25  1  0  0  0  0
  8  7  1  0  0  0  0
  8  6  1  1  0  0  0
  9  5  1  0  0  0  0
 11 10  1  0  0  0  0
 12 11  1  0  0  0  0
 13 15  1  0  0  0  0
 14 16  1  0  0  0  0
 15 19  1  0  0  0  0
 15 14  2  0  0  0  0
 16 17  1  0  0  0  0
 16 21  1  1  0  0  0
 17 12  1  1  0  0  0
 18 17  1  0  0  0  0
 19 18  2  0  0  0  0
 20 14  1  0  0  0  0
 21 22  1  0  0  0  0
 24 23  1  0  0  0  0
 24 19  1  0  0  0  0
 26 25  1  0  0  0  0
 27 28  1  0  0  0  0
 28 32  2  0  0  0  0
 29 27  2  0  0  0  0
 29 31  1  0  0  0  0
 30 32  1  0  0  0  0
 30 26  1  0  0  0  0
 31 30  2  0  0  0  0
 33 29  1  0  0  0  0
 34 35  2  0  0  0  0
 35 36  1  0  0  0  0
 35 27  1  0  0  0  0
M  END
>  <MODEL>
1

>  <REMARK>
 VINA RESULT:      -8.7      0.000      0.000
  Name = 
  10 active torsions:
  status: ('A' for Active; 'I' for Inactive)
    1  A    between atoms: C_1  and  C_12
    2  A    between atoms: C_3  and  C_14
    3  A    between atoms: C_6  and  C_17
    4  A    between atoms: C_12  and  C_28
    5  A    between atoms: C_16  and  O_18
    6  A    between atoms: O_18  and  C_30
    7  A    between atoms: O_21  and  C_29
    8  A    between atoms: N_23  and  C_30
    9  A    between atoms: C_24  and  C_33
   10  A    between atoms: C_28  and  C_33
                            x       y       z     vdW  Elec       q    Type
                         _______ _______ _______ _____ _____    ______ ____

>  <TORSDO>
F 10

$$$$
=
 OpenBabel11062416003D

 36 39  0  0  1  0  0  0  0  0999 V2000
  190.9140  176.9670  144.3400 C   0  0  2  0  0  3  0  0  0  0  0  0
  187.2630  176.4810  143.9290 C   0  0  0  0  0  2  0  0  0  0  0  0
  188.6780  176.3390  143.4950 C   0  0  0  0  0  2  0  0  0  0  0  0
  189.4280  177.1440  144.2200 C   0  0  1  0  0  3  0  0  0  0  0  0
  190.2690  176.6130  146.6480 O   0  0  0  0  0  0  0  0  0  0  0  0
  189.2660  177.6060  146.6630 C   0  0  0  0  0  2  0  0  0  0  0  0
  187.2930  177.2130  145.2010 N   0  0  0  0  0  0  0  0  0  0  0  0
  188.6240  177.8150  145.2760 C   0  0  2  0  0  3  0  0  0  0  0  0
  191.3030  177.0960  145.8190 C   0  0  0  0  0  2  0  0  0  0  0  0
  191.6860  178.0080  143.5360 C   0  0  0  0  0  2  0  0  0  0  0  0
  191.1300  178.1950  142.1300 C   0  0  0  0  0  2  0  0  0  0  0  0
  191.7650  177.1960  141.1730 C   0  0  0  0  0  2  0  0  0  0  0  0
  187.9530  177.4410  136.8880 C   0  0  0  0  0  1  0  0  0  0  0  0
  190.2770  177.0840  137.6240 C   0  0  0  0  0  0  0  0  0  0  0  0
  189.0130  177.4020  137.9400 C   0  0  0  0  0  0  0  0  0  0  0  0
  191.3640  177.1280  138.6820 C   0  0  1  0  0  3  0  0  0  0  0  0
  190.7850  176.8180  140.0710 C   0  0  2  0  0  3  0  0  0  0  0  0
  189.5110  177.5030  140.2930 N   0  0  0  0  0  0  0  0  0  0  0  0
  188.6630  177.7380  139.3340 C   0  0  0  0  0  0  0  0  0  0  0  0
  190.6060  176.7760  136.3050 O   0  0  0  0  0  1  0  0  0  0  0  0
  192.4780  176.1300  138.3750 C   0  0  0  0  0  2  0  0  0  0  0  0
  193.6370  176.7970  137.9810 O   0  0  0  0  0  1  0  0  0  0  0  0
  187.0740  178.7800  140.9110 C   0  0  0  0  0  1  0  0  0  0  0  0
  187.4240  178.3230  139.6120 O   0  0  0  0  0  0  0  0  0  0  0  0
  186.2860  178.2790  145.1710 C   0  0  0  0  0  2  0  0  0  0  0  0
  185.7330  178.4550  143.8640 O   0  0  0  0  0  0  0  0  0  0  0  0
  181.5980  178.9800  143.2110 C   0  0  0  0  0  0  0  0  0  0  0  0
  182.1380  178.9930  144.5060 C   0  0  0  0  0  3  0  0  0  0  0  0
  182.4650  178.7790  142.1140 C   0  0  0  0  0  0  0  0  0  0  0  0
  184.3630  178.6210  143.6280 C   0  0  0  0  0  0  0  0  0  0  0  0
  183.8350  178.6010  142.3300 C   0  0  0  0  0  3  0  0  0  0  0  0
  183.5070  178.8150  144.7130 C   0  0  0  0  0  3  0  0  0  0  0  0
  181.9880  178.7550  140.8090 O   0  0  0  0  0  1  0  0  0  0  0  0
  179.6250  180.3940  142.6050 O   0  0  0  0  0  0  0  0  0  0  0  0
  180.1400  179.1790  143.0430 C   0  0  0  0  0  0  0  0  0  0  0  0
  179.3420  178.2380  143.2990 O   0  0  0  0  0  1  0  0  0  0  0  0
  1 10  1  6  0  0  0
  1  9  1  0  0  0  0
  2  7  1  0  0  0  0
  3  2  1  0  0  0  0
  4  3  1  1  0  0  0
  4  1  1  0  0  0  0
  4  8  1  0  0  0  0
  5  6  1  0  0  0  0
  7  8  1  0  0  0  0
  8  6  1  1  0  0  0
  9  5  1  0  0  0  0
 11 10  1  0  0  0  0
 12 11  1  0  0  0  0
 13 15  1  0  0  0  0
 14 15  2  0  0  0  0
 14 16  1  0  0  0  0
 15 19  1  0  0  0  0
 16 21  1  6  0  0  0
 16 17  1  0  0  0  0
 17 18  1  0  0  0  0
 17 12  1  1  0  0  0
 19 24  1  0  0  0  0
 19 18  2  0  0  0  0
 20 14  1  0  0  0  0
 22 21  1  0  0  0  0
 24 23  1  0  0  0  0
 25  7  1  0  0  0  0
 26 25  1  0  0  0  0
 27 28  1  0  0  0  0
 28 32  2  0  0  0  0
 29 31  1  0  0  0  0
 29 27  2  0  0  0  0
 30 26  1  0  0  0  0
 30 32  1  0  0  0  0
 31 30  2  0  0  0  0
 33 29  1  0  0  0  0
 34 35  2  0  0  0  0
 35 27  1  0  0  0  0
 35 36  1  0  0  0  0
M  END
>  <MODEL>
2

>  <REMARK>
 VINA RESULT:      -8.5      1.214      2.725
  Name = 
  10 active torsions:
  status: ('A' for Active; 'I' for Inactive)
    1  A    between atoms: C_1  and  C_12
    2  A    between atoms: C_3  and  C_14
    3  A    between atoms: C_6  and  C_17
    4  A    between atoms: C_12  and  C_28
    5  A    between atoms: C_16  and  O_18
    6  A    between atoms: O_18  and  C_30
    7  A    between atoms: O_21  and  C_29
    8  A    between atoms: N_23  and  C_30
    9  A    between atoms: C_24  and  C_33
   10  A    between atoms: C_28  and  C_33
                            x       y       z     vdW  Elec       q    Type
                         _______ _______ _______ _____ _____    ______ ____

>  <TORSDO>
F 10

$$$$
=
 OpenBabel11062416003D

 36 39  0  0  1  0  0  0  0  0999 V2000
  190.4700  177.1840  138.6660 C   0  0  2  0  0  3  0  0  0  0  0  0
  187.8420  179.1060  136.8960 C   0  0  0  0  0  2  0  0  0  0  0  0
  189.1600  178.9700  137.5680 C   0  0  0  0  0  2  0  0  0  0  0  0
  189.1870  177.8280  138.2260 C   0  0  1  0  0  3  0  0  0  0  0  0
  189.6620  175.4900  137.1340 O   0  0  0  0  0  0  0  0  0  0  0  0
  188.3030  175.6160  137.4960 C   0  0  0  0  0  2  0  0  0  0  0  0
  187.2080  177.7830  136.9580 N   0  0  0  0  0  0  0  0  0  0  0  0
  187.9520  177.0400  137.9750 C   0  0  2  0  0  3  0  0  0  0  0  0
  190.4130  175.6920  138.3110 C   0  0  0  0  0  2  0  0  0  0  0  0
  190.7000  177.3240  140.1680 C   0  0  0  0  0  2  0  0  0  0  0  0
  189.4580  177.8010  140.9110 C   0  0  0  0  0  2  0  0  0  0  0  0
  189.0720  176.8020  141.9920 C   0  0  0  0  0  2  0  0  0  0  0  0
  188.5240  177.8470  147.6090 C   0  0  0  0  0  1  0  0  0  0  0  0
  189.9420  177.1270  145.7270 C   0  0  0  0  0  0  0  0  0  0  0  0
  188.7360  177.5120  146.1690 C   0  0  0  0  0  0  0  0  0  0  0  0
  190.1300  176.7090  144.2810 C   0  0  1  0  0  3  0  0  0  0  0  0
  189.1430  177.4510  143.3670 C   0  0  2  0  0  3  0  0  0  0  0  0
  187.8020  177.5100  143.9500 N   0  0  0  0  0  0  0  0  0  0  0  0
  187.5960  177.5860  145.2330 C   0  0  0  0  0  0  0  0  0  0  0  0
  191.0130  177.0500  146.6160 O   0  0  0  0  0  1  0  0  0  0  0  0
  191.5540  176.9850  143.8030 C   0  0  0  0  0  2  0  0  0  0  0  0
  191.7700  178.3570  143.6790 O   0  0  0  0  0  1  0  0  0  0  0  0
  185.6580  178.9850  145.8500 C   0  0  0  0  0  1  0  0  0  0  0  0
  186.2990  177.7220  145.7350 O   0  0  0  0  0  0  0  0  0  0  0  0
  185.8160  177.9320  137.3950 C   0  0  0  0  0  2  0  0  0  0  0  0
  185.7020  178.7910  138.5320 O   0  0  0  0  0  0  0  0  0  0  0  0
  182.2740  178.8460  140.9910 C   0  0  0  0  0  0  0  0  0  0  0  0
  182.1730  178.9790  139.5980 C   0  0  0  0  0  3  0  0  0  0  0  0
  183.5540  178.6980  141.5690 C   0  0  0  0  0  0  0  0  0  0  0  0
  184.5770  178.8130  139.3640 C   0  0  0  0  0  0  0  0  0  0  0  0
  184.6910  178.6840  140.7560 C   0  0  0  0  0  3  0  0  0  0  0  0
  183.3130  178.9640  138.7920 C   0  0  0  0  0  3  0  0  0  0  0  0
  183.7170  178.5630  142.9440 O   0  0  0  0  0  1  0  0  0  0  0  0
  180.1560  177.7860  141.7960 O   0  0  0  0  0  0  0  0  0  0  0  0
  181.0350  178.8630  141.8020 C   0  0  0  0  0  0  0  0  0  0  0  0
  180.7610  179.8660  142.5140 O   0  0  0  0  0  1  0  0  0  0  0  0
  1 10  1  1  0  0  0
  2  7  1  0  0  0  0
  2  3  1  0  0  0  0
  4  3  1  6  0  0  0
  4  1  1  0  0  0  0
  5  6  1  0  0  0  0
  5  9  1  0  0  0  0
  7 25  1  0  0  0  0
  7  8  1  0  0  0  0
  8  6  1  6  0  0  0
  8  4  1  0  0  0  0
  9  1  1  0  0  0  0
 10 11  1  0  0  0  0
 11 12  1  0  0  0  0
 14 15  2  0  0  0  0
 14 20  1  0  0  0  0
 15 13  1  0  0  0  0
 16 21  1  6  0  0  0
 16 14  1  0  0  0  0
 17 12  1  6  0  0  0
 17 18  1  0  0  0  0
 17 16  1  0  0  0  0
 18 19  2  0  0  0  0
 19 24  1  0  0  0  0
 19 15  1  0  0  0  0
 22 21  1  0  0  0  0
 24 23  1  0  0  0  0
 25 26  1  0  0  0  0
 26 30  1  0  0  0  0
 27 29  1  0  0  0  0
 27 35  1  0  0  0  0
 28 27  2  0  0  0  0
 29 33  1  0  0  0  0
 30 31  1  0  0  0  0
 31 29  2  0  0  0  0
 32 30  2  0  0  0  0
 32 28  1  0  0  0  0
 34 35  2  0  0  0  0
 35 36  1  0  0  0  0
M  END
>  <MODEL>
3

>  <REMARK>
 VINA RESULT:      -8.3      2.009      6.741
  Name = 
  10 active torsions:
  status: ('A' for Active; 'I' for Inactive)
    1  A    between atoms: C_1  and  C_12
    2  A    between atoms: C_3  and  C_14
    3  A    between atoms: C_6  and  C_17
    4  A    between atoms: C_12  and  C_28
    5  A    between atoms: C_16  and  O_18
    6  A    between atoms: O_18  and  C_30
    7  A    between atoms: O_21  and  C_29
    8  A    between atoms: N_23  and  C_30
    9  A    between atoms: C_24  and  C_33
   10  A    between atoms: C_28  and  C_33
                            x       y       z     vdW  Elec       q    Type
                         _______ _______ _______ _____ _____    ______ ____

>  <TORSDO>
F 10

$$$$
=
 OpenBabel11062416003D

 36 39  0  0  1  0  0  0  0  0999 V2000
  190.3680  177.5020  139.3040 C   0  0  2  0  0  3  0  0  0  0  0  0
  188.4300  178.6360  136.3560 C   0  0  0  0  0  2  0  0  0  0  0  0
  189.1900  178.8660  137.6120 C   0  0  0  0  0  2  0  0  0  0  0  0
  189.3290  177.7160  138.2420 C   0  0  1  0  0  3  0  0  0  0  0  0
  191.1300  175.9030  137.6510 O   0  0  0  0  0  0  0  0  0  0  0  0
  189.8390  175.4830  137.2620 C   0  0  0  0  0  2  0  0  0  0  0  0
  188.4100  177.1840  136.1450 N   0  0  0  0  0  0  0  0  0  0  0  0
  188.7840  176.5960  137.4310 C   0  0  2  0  0  3  0  0  0  0  0  0
  191.0690  176.1630  139.0360 C   0  0  0  0  0  2  0  0  0  0  0  0
  189.7650  177.4700  140.7050 C   0  0  0  0  0  2  0  0  0  0  0  0
  190.7940  177.1500  141.7810 C   0  0  0  0  0  2  0  0  0  0  0  0
  190.1640  176.3090  142.8820 C   0  0  0  0  0  2  0  0  0  0  0  0
  186.9400  178.3010  147.1930 C   0  0  0  0  0  1  0  0  0  0  0  0
  189.1030  177.4140  146.4130 C   0  0  0  0  0  0  0  0  0  0  0  0
  187.8290  177.7320  146.1360 C   0  0  0  0  0  0  0  0  0  0  0  0
  189.9750  176.7610  145.3580 C   0  0  1  0  0  3  0  0  0  0  0  0
  189.5510  177.2040  143.9500 C   0  0  2  0  0  3  0  0  0  0  0  0
  188.0950  177.2160  143.8000 N   0  0  0  0  0  0  0  0  0  0  0  0
  187.2890  177.5020  144.7810 C   0  0  0  0  0  0  0  0  0  0  0  0
  189.6060  177.6240  147.6960 O   0  0  0  0  0  1  0  0  0  0  0  0
  191.4480  177.1060  145.5640 C   0  0  0  0  0  2  0  0  0  0  0  0
  192.0800  176.1200  146.3220 O   0  0  0  0  0  1  0  0  0  0  0  0
  185.3490  178.3220  143.4940 C   0  0  0  0  0  1  0  0  0  0  0  0
  185.9110  177.5790  144.5670 O   0  0  0  0  0  0  0  0  0  0  0  0
  187.0470  176.7620  135.8020 C   0  0  0  0  0  2  0  0  0  0  0  0
  186.2900  176.4100  136.9630 O   0  0  0  0  0  0  0  0  0  0  0  0
  183.1950  178.8120  138.5280 C   0  0  0  0  0  0  0  0  0  0  0  0
  182.9520  177.8950  137.4940 C   0  0  0  0  0  3  0  0  0  0  0  0
  184.5060  178.9290  139.0410 C   0  0  0  0  0  0  0  0  0  0  0  0
  185.2770  177.2200  137.4900 C   0  0  0  0  0  0  0  0  0  0  0  0
  185.5330  178.1370  138.5200 C   0  0  0  0  0  3  0  0  0  0  0  0
  183.9840  177.1070  136.9800 C   0  0  0  0  0  3  0  0  0  0  0  0
  184.8060  179.8210  140.0640 O   0  0  0  0  0  1  0  0  0  0  0  0
  181.6790  180.7990  138.4130 O   0  0  0  0  0  0  0  0  0  0  0  0
  182.0670  179.6220  139.0430 C   0  0  0  0  0  0  0  0  0  0  0  0
  181.4410  179.2490  140.0710 O   0  0  0  0  0  1  0  0  0  0  0  0
  1 10  1  1  0  0  0
  2  3  1  0  0  0  0
  4  3  1  6  0  0  0
  4  1  1  0  0  0  0
  5  9  1  0  0  0  0
  6  5  1  0  0  0  0
  7  2  1  0  0  0  0
  7  8  1  0  0  0  0
  8  6  1  6  0  0  0
  8  4  1  0  0  0  0
  9  1  1  0  0  0  0
 10 11  1  0  0  0  0
 11 12  1  0  0  0  0
 14 20  1  0  0  0  0
 15 14  2  0  0  0  0
 15 13  1  0  0  0  0
 16 21  1  1  0  0  0
 16 14  1  0  0  0  0
 17 12  1  6  0  0  0
 17 16  1  0  0  0  0
 18 17  1  0  0  0  0
 18 19  2  0  0  0  0
 19 15  1  0  0  0  0
 21 22  1  0  0  0  0
 23 24  1  0  0  0  0
 24 19  1  0  0  0  0
 25  7  1  0  0  0  0
 25 26  1  0  0  0  0
 26 30  1  0  0  0  0
 27 29  1  0  0  0  0
 27 35  1  0  0  0  0
 28 27  2  0  0  0  0
 29 33  1  0  0  0  0
 30 31  1  0  0  0  0
 31 29  2  0  0  0  0
 32 30  2  0  0  0  0
 32 28  1  0  0  0  0
 34 35  2  0  0  0  0
 35 36  1  0  0  0  0
M  END
>  <MODEL>
4

>  <REMARK>
 VINA RESULT:      -8.2      2.393      7.203
  Name = 
  10 active torsions:
  status: ('A' for Active; 'I' for Inactive)
    1  A    between atoms: C_1  and  C_12
    2  A    between atoms: C_3  and  C_14
    3  A    between atoms: C_6  and  C_17
    4  A    between atoms: C_12  and  C_28
    5  A    between atoms: C_16  and  O_18
    6  A    between atoms: O_18  and  C_30
    7  A    between atoms: O_21  and  C_29
    8  A    between atoms: N_23  and  C_30
    9  A    between atoms: C_24  and  C_33
   10  A    between atoms: C_28  and  C_33
                            x       y       z     vdW  Elec       q    Type
                         _______ _______ _______ _____ _____    ______ ____

>  <TORSDO>
F 10

$$$$
=
 OpenBabel11062416003D

 36 39  0  0  1  0  0  0  0  0999 V2000
  190.1450  177.4220  138.5870 C   0  0  2  0  0  3  0  0  0  0  0  0
  187.4320  178.1400  136.1670 C   0  0  0  0  0  2  0  0  0  0  0  0
  188.6080  178.5200  136.9920 C   0  0  0  0  0  2  0  0  0  0  0  0
  188.8290  177.5720  137.8800 C   0  0  1  0  0  3  0  0  0  0  0  0
  190.0840  175.3230  137.3790 O   0  0  0  0  0  0  0  0  0  0  0  0
  188.7000  175.1050  137.5550 C   0  0  0  0  0  2  0  0  0  0  0  0
  187.1720  176.7230  136.4450 N   0  0  0  0  0  0  0  0  0  0  0  0
  187.9080  176.4230  137.6740 C   0  0  2  0  0  3  0  0  0  0  0  0
  190.5480  175.9420  138.5590 C   0  0  0  0  0  2  0  0  0  0  0  0
  190.0770  177.8870  140.0380 C   0  0  0  0  0  2  0  0  0  0  0  0
  190.5470  176.8200  141.0190 C   0  0  0  0  0  2  0  0  0  0  0  0
  191.1730  177.4680  142.2460 C   0  0  0  0  0  2  0  0  0  0  0  0
  189.2220  177.1280  147.6340 C   0  0  0  0  0  1  0  0  0  0  0  0
  188.8100  177.7100  145.2750 C   0  0  0  0  0  0  0  0  0  0  0  0
  189.6670  177.2880  146.2170 C   0  0  0  0  0  0  0  0  0  0  0  0
  189.2890  177.9490  143.8560 C   0  0  1  0  0  3  0  0  0  0  0  0
  190.4580  177.0140  143.5110 C   0  0  2  0  0  3  0  0  0  0  0  0
  191.4210  176.9200  144.6090 N   0  0  0  0  0  0  0  0  0  0  0  0
  191.0700  176.9960  145.8600 C   0  0  0  0  0  0  0  0  0  0  0  0
  187.4890  177.9930  145.6180 O   0  0  0  0  0  1  0  0  0  0  0  0
  188.1650  177.7320  142.8460 C   0  0  0  0  0  2  0  0  0  0  0  0
  187.7040  176.4170  142.9030 O   0  0  0  0  0  1  0  0  0  0  0  0
  192.3810  175.5340  147.3560 C   0  0  0  0  0  1  0  0  0  0  0  0
  192.0160  176.8200  146.8740 O   0  0  0  0  0  0  0  0  0  0  0  0
  185.7380  176.5300  136.6850 C   0  0  0  0  0  2  0  0  0  0  0  0
  185.0990  177.7390  137.1010 O   0  0  0  0  0  0  0  0  0  0  0  0
  183.7380  178.3570  141.0460 C   0  0  0  0  0  0  0  0  0  0  0  0
  183.0130  177.5670  140.1410 C   0  0  0  0  0  3  0  0  0  0  0  0
  184.9410  178.9580  140.6130 C   0  0  0  0  0  0  0  0  0  0  0  0
  184.6600  177.9610  138.4110 C   0  0  0  0  0  0  0  0  0  0  0  0
  185.3900  178.7570  139.3050 C   0  0  0  0  0  3  0  0  0  0  0  0
  183.4690  177.3710  138.8370 C   0  0  0  0  0  3  0  0  0  0  0  0
  185.7010  179.7520  141.4640 O   0  0  0  0  0  1  0  0  0  0  0  0
  184.0090  178.2660  143.5310 O   0  0  0  0  0  1  0  0  0  0  0  0
  183.2150  178.5310  142.4210 C   0  0  0  0  0  0  0  0  0  0  0  0
  182.0320  178.9250  142.6010 O   0  0  0  0  0  0  0  0  0  0  0  0
  1 10  1  1  0  0  0
  2  7  1  0  0  0  0
  2  3  1  0  0  0  0
  4  3  1  6  0  0  0
  4  1  1  0  0  0  0
  5  6  1  0  0  0  0
  5  9  1  0  0  0  0
  7 25  1  0  0  0  0
  7  8  1  0  0  0  0
  8  6  1  6  0  0  0
  8  4  1  0  0  0  0
  9  1  1  0  0  0  0
 10 11  1  0  0  0  0
 11 12  1  0  0  0  0
 14 20  1  0  0  0  0
 14 15  2  0  0  0  0
 15 13  1  0  0  0  0
 16 21  1  6  0  0  0
 16 14  1  0  0  0  0
 17 12  1  6  0  0  0
 17 16  1  0  0  0  0
 17 18  1  0  0  0  0
 18 19  2  0  0  0  0
 19 15  1  0  0  0  0
 19 24  1  0  0  0  0
 21 22  1  0  0  0  0
 24 23  1  0  0  0  0
 25 26  1  0  0  0  0
 26 30  1  0  0  0  0
 27 35  1  0  0  0  0
 28 27  2  0  0  0  0
 29 27  1  0  0  0  0
 29 33  1  0  0  0  0
 30 32  2  0  0  0  0
 30 31  1  0  0  0  0
 31 29  2  0  0  0  0
 32 28  1  0  0  0  0
 35 36  2  0  0  0  0
 35 34  1  0  0  0  0
M  END
>  <MODEL>
5

>  <REMARK>
 VINA RESULT:      -8.1      2.362      6.679
  Name = 
  10 active torsions:
  status: ('A' for Active; 'I' for Inactive)
    1  A    between atoms: C_1  and  C_12
    2  A    between atoms: C_3  and  C_14
    3  A    between atoms: C_6  and  C_17
    4  A    between atoms: C_12  and  C_28
    5  A    between atoms: C_16  and  O_18
    6  A    between atoms: O_18  and  C_30
    7  A    between atoms: O_21  and  C_29
    8  A    between atoms: N_23  and  C_30
    9  A    between atoms: C_24  and  C_33
   10  A    between atoms: C_28  and  C_33
                            x       y       z     vdW  Elec       q    Type
                         _______ _______ _______ _____ _____    ______ ____

>  <TORSDO>
F 10

$$$$
=
 OpenBabel11062416003D

 36 39  0  0  1  0  0  0  0  0999 V2000
  182.9120  178.3720  140.9190 C   0  0  2  0  0  3  0  0  0  0  0  0
  185.2820  179.8130  143.3770 C   0  0  0  0  0  2  0  0  0  0  0  0
  184.8950  179.3600  142.0160 C   0  0  0  0  0  2  0  0  0  0  0  0
  183.7960  178.6380  142.1030 C   0  0  1  0  0  3  0  0  0  0  0  0
  181.3750  179.6300  142.3060 O   0  0  0  0  0  0  0  0  0  0  0  0
  181.7950  179.0580  143.5270 C   0  0  0  0  0  2  0  0  0  0  0  0
  184.1240  179.5560  144.2430 N   0  0  0  0  0  0  0  0  0  0  0  0
  183.2760  178.6270  143.4960 C   0  0  2  0  0  3  0  0  0  0  0  0
  181.4550  178.6100  141.3350 C   0  0  0  0  0  2  0  0  0  0  0  0
  183.0510  176.9430  140.4050 C   0  0  0  0  0  2  0  0  0  0  0  0
  183.4310  176.8830  138.9300 C   0  0  0  0  0  2  0  0  0  0  0  0
  183.8020  178.2700  138.4230 C   0  0  0  0  0  2  0  0  0  0  0  0
  189.3350  177.1740  137.3610 C   0  0  0  0  0  1  0  0  0  0  0  0
  186.9650  176.7690  136.8240 C   0  0  0  0  0  0  0  0  0  0  0  0
  187.8750  177.3710  137.6030 C   0  0  0  0  0  0  0  0  0  0  0  0
  185.4850  176.9070  137.1270 C   0  0  1  0  0  3  0  0  0  0  0  0
  185.1910  178.2560  137.8010 C   0  0  2  0  0  3  0  0  0  0  0  0
  186.1870  178.5800  138.8230 N   0  0  0  0  0  0  0  0  0  0  0  0
  187.4350  178.2230  138.7270 C   0  0  0  0  0  0  0  0  0  0  0  0
  187.3840  175.9580  135.7690 O   0  0  0  0  0  1  0  0  0  0  0  0
  184.6450  176.7940  135.8570 C   0  0  0  0  0  2  0  0  0  0  0  0
  184.0230  175.5480  135.7910 O   0  0  0  0  0  1  0  0  0  0  0  0
  188.2960  178.1910  141.0400 C   0  0  0  0  0  1  0  0  0  0  0  0
  188.3640  178.6270  139.6900 O   0  0  0  0  0  0  0  0  0  0  0  0
  184.5760  178.9070  145.4770 C   0  0  0  0  0  2  0  0  0  0  0  0
  185.3050  177.7050  145.2140 O   0  0  0  0  0  0  0  0  0  0  0  0
  189.4320  177.2760  145.9740 C   0  0  0  0  0  0  0  0  0  0  0  0
  188.8860  176.9590  144.7210 C   0  0  0  0  0  3  0  0  0  0  0  0
  188.5720  177.7400  146.9940 C   0  0  0  0  0  0  0  0  0  0  0  0
  186.6700  177.5630  145.4870 C   0  0  0  0  0  0  0  0  0  0  0  0
  187.2040  177.8780  146.7440 C   0  0  0  0  0  3  0  0  0  0  0  0
  187.5190  177.1010  144.4800 C   0  0  0  0  0  3  0  0  0  0  0  0
  189.0560  178.0680  148.2550 O   0  0  0  0  0  1  0  0  0  0  0  0
  191.8070  177.8770  145.4650 O   0  0  0  0  0  0  0  0  0  0  0  0
  190.8900  177.1140  146.1790 C   0  0  0  0  0  0  0  0  0  0  0  0
  191.3200  176.2720  147.0140 O   0  0  0  0  0  1  0  0  0  0  0  0
  1 10  1  1  0  0  0
  1  9  1  0  0  0  0
  1  4  1  0  0  0  0
  2  7  1  0  0  0  0
  3  2  1  0  0  0  0
  4  3  1  6  0  0  0
  4  8  1  0  0  0  0
  5  6  1  0  0  0  0
  7 25  1  0  0  0  0
  8  6  1  6  0  0  0
  8  7  1  0  0  0  0
  9  5  1  0  0  0  0
 11 10  1  0  0  0  0
 12 11  1  0  0  0  0
 13 15  1  0  0  0  0
 14 16  1  0  0  0  0
 14 15  2  0  0  0  0
 15 19  1  0  0  0  0
 16 21  1  6  0  0  0
 16 17  1  0  0  0  0
 17 12  1  1  0  0  0
 17 18  1  0  0  0  0
 19 18  2  0  0  0  0
 19 24  1  0  0  0  0
 20 14  1  0  0  0  0
 22 21  1  0  0  0  0
 24 23  1  0  0  0  0
 26 25  1  0  0  0  0
 26 30  1  0  0  0  0
 27 35  1  0  0  0  0
 27 29  1  0  0  0  0
 28 27  2  0  0  0  0
 29 33  1  0  0  0  0
 30 31  1  0  0  0  0
 31 29  2  0  0  0  0
 32 28  1  0  0  0  0
 32 30  2  0  0  0  0
 34 35  2  0  0  0  0
 35 36  1  0  0  0  0
M  END
>  <MODEL>
6

>  <REMARK>
 VINA RESULT:      -8.1      2.514      6.814
  Name = 
  10 active torsions:
  status: ('A' for Active; 'I' for Inactive)
    1  A    between atoms: C_1  and  C_12
    2  A    between atoms: C_3  and  C_14
    3  A    between atoms: C_6  and  C_17
    4  A    between atoms: C_12  and  C_28
    5  A    between atoms: C_16  and  O_18
    6  A    between atoms: O_18  and  C_30
    7  A    between atoms: O_21  and  C_29
    8  A    between atoms: N_23  and  C_30
    9  A    between atoms: C_24  and  C_33
   10  A    between atoms: C_28  and  C_33
                            x       y       z     vdW  Elec       q    Type
                         _______ _______ _______ _____ _____    ______ ____

>  <TORSDO>
F 10

$$$$
=
 OpenBabel11062416003D

 36 39  0  0  1  0  0  0  0  0999 V2000
  191.6600  176.7490  143.3000 C   0  0  2  0  0  3  0  0  0  0  0  0
  191.7220  176.2140  146.9670 C   0  0  0  0  0  2  0  0  0  0  0  0
  192.0010  175.8140  145.5630 C   0  0  0  0  0  2  0  0  0  0  0  0
  191.3150  176.5950  144.7540 C   0  0  1  0  0  3  0  0  0  0  0  0
  192.0360  179.0190  144.0560 O   0  0  0  0  0  0  0  0  0  0  0  0
  190.9390  179.0500  144.9450 C   0  0  0  0  0  2  0  0  0  0  0  0
  191.0500  177.5170  146.9000 N   0  0  0  0  0  0  0  0  0  0  0  0
  190.6030  177.6560  145.5130 C   0  0  2  0  0  3  0  0  0  0  0  0
  191.6360  178.2420  142.9490 C   0  0  0  0  0  2  0  0  0  0  0  0
  190.6790  176.0130  142.3930 C   0  0  0  0  0  2  0  0  0  0  0  0
  189.8420  176.9610  141.5420 C   0  0  0  0  0  2  0  0  0  0  0  0
  190.4440  177.0930  140.1500 C   0  0  0  0  0  2  0  0  0  0  0  0
  186.6310  177.4460  135.8730 C   0  0  0  0  0  1  0  0  0  0  0  0
  188.9030  176.8650  136.6300 C   0  0  0  0  0  0  0  0  0  0  0  0
  187.6930  177.3650  136.9210 C   0  0  0  0  0  0  0  0  0  0  0  0
  190.0020  176.8620  137.6760 C   0  0  1  0  0  3  0  0  0  0  0  0
  189.4090  176.7480  139.0880 C   0  0  2  0  0  3  0  0  0  0  0  0
  188.2340  177.6030  139.2550 N   0  0  0  0  0  0  0  0  0  0  0  0
  187.4080  177.8610  138.2830 C   0  0  0  0  0  0  0  0  0  0  0  0
  189.1720  176.4070  135.3410 O   0  0  0  0  0  1  0  0  0  0  0  0
  190.9780  175.7100  137.4530 C   0  0  0  0  0  2  0  0  0  0  0  0
  190.3780  174.4920  137.7710 O   0  0  0  0  0  1  0  0  0  0  0  0
  185.5730  178.6030  139.7590 C   0  0  0  0  0  1  0  0  0  0  0  0
  186.2560  178.6180  138.5130 O   0  0  0  0  0  0  0  0  0  0  0  0
  189.8790  177.5060  147.7820 C   0  0  0  0  0  2  0  0  0  0  0  0
  188.7920  176.7670  147.2190 O   0  0  0  0  0  0  0  0  0  0  0  0
  185.4930  178.6360  145.3710 C   0  0  0  0  0  0  0  0  0  0  0  0
  185.7730  178.8330  146.7310 C   0  0  0  0  0  3  0  0  0  0  0  0
  186.3350  177.7870  144.6180 C   0  0  0  0  0  0  0  0  0  0  0  0
  187.6990  177.3730  146.5900 C   0  0  0  0  0  0  0  0  0  0  0  0
  187.4260  177.1650  145.2310 C   0  0  0  0  0  3  0  0  0  0  0  0
  186.8640  178.2070  147.3350 C   0  0  0  0  0  3  0  0  0  0  0  0
  186.1070  177.5540  143.2670 O   0  0  0  0  0  1  0  0  0  0  0  0
  183.0390  179.1090  145.2540 O   0  0  0  0  0  1  0  0  0  0  0  0
  184.3260  179.3260  144.7740 C   0  0  0  0  0  0  0  0  0  0  0  0
  184.4890  180.1260  143.8140 O   0  0  0  0  0  0  0  0  0  0  0  0
  1 10  1  6  0  0  0
  1  4  1  0  0  0  0
  3  2  1  0  0  0  0
  4  8  1  0  0  0  0
  4  3  1  1  0  0  0
  5  6  1  0  0  0  0
  7  2  1  0  0  0  0
  7 25  1  0  0  0  0
  8  6  1  6  0  0  0
  8  7  1  0  0  0  0
  9  1  1  0  0  0  0
  9  5  1  0  0  0  0
 11 10  1  0  0  0  0
 12 11  1  0  0  0  0
 13 15  1  0  0  0  0
 14 15  2  0  0  0  0
 14 16  1  0  0  0  0
 15 19  1  0  0  0  0
 16 21  1  6  0  0  0
 16 17  1  0  0  0  0
 17 18  1  0  0  0  0
 17 12  1  1  0  0  0
 19 24  1  0  0  0  0
 19 18  2  0  0  0  0
 20 14  1  0  0  0  0
 21 22  1  0  0  0  0
 24 23  1  0  0  0  0
 26 25  1  0  0  0  0
 27 28  1  0  0  0  0
 28 32  2  0  0  0  0
 29 31  1  0  0  0  0
 29 27  2  0  0  0  0
 30 26  1  0  0  0  0
 30 32  1  0  0  0  0
 31 30  2  0  0  0  0
 33 29  1  0  0  0  0
 35 34  1  0  0  0  0
 35 27  1  0  0  0  0
 36 35  2  0  0  0  0
M  END
>  <MODEL>
7

>  <REMARK>
 VINA RESULT:      -8.1      2.101      4.058
  Name = 
  10 active torsions:
  status: ('A' for Active; 'I' for Inactive)
    1  A    between atoms: C_1  and  C_12
    2  A    between atoms: C_3  and  C_14
    3  A    between atoms: C_6  and  C_17
    4  A    between atoms: C_12  and  C_28
    5  A    between atoms: C_16  and  O_18
    6  A    between atoms: O_18  and  C_30
    7  A    between atoms: O_21  and  C_29
    8  A    between atoms: N_23  and  C_30
    9  A    between atoms: C_24  and  C_33
   10  A    between atoms: C_28  and  C_33
                            x       y       z     vdW  Elec       q    Type
                         _______ _______ _______ _____ _____    ______ ____

>  <TORSDO>
F 10

$$$$
=
 OpenBabel11062416003D

 36 39  0  0  1  0  0  0  0  0999 V2000
  190.1860  177.8780  138.4440 C   0  0  2  0  0  3  0  0  0  0  0  0
  191.6740  177.2120  141.7730 C   0  0  0  0  0  2  0  0  0  0  0  0
  191.7550  177.5050  140.3180 C   0  0  0  0  0  2  0  0  0  0  0  0
  190.5710  177.3010  139.7760 C   0  0  1  0  0  3  0  0  0  0  0  0
  188.5790  179.0050  139.8630 O   0  0  0  0  0  0  0  0  0  0  0  0
  188.3370  177.8960  140.7020 C   0  0  0  0  0  2  0  0  0  0  0  0
  190.2450  177.1220  142.0970 N   0  0  0  0  0  0  0  0  0  0  0  0
  189.5610  176.9640  140.8130 C   0  0  2  0  0  3  0  0  0  0  0  0
  188.7850  178.4910  138.5650 C   0  0  0  0  0  2  0  0  0  0  0  0
  190.1690  176.8240  137.3410 C   0  0  0  0  0  2  0  0  0  0  0  0
  189.6450  177.3670  136.0170 C   0  0  0  0  0  2  0  0  0  0  0  0
  188.8720  176.2890  135.2710 C   0  0  0  0  0  2  0  0  0  0  0  0
  184.9240  172.9230  137.7270 C   0  0  0  0  0  1  0  0  0  0  0  0
  187.0730  173.1320  136.5400 C   0  0  0  0  0  0  0  0  0  0  0  0
  185.9750  173.7250  137.0320 C   0  0  0  0  0  0  0  0  0  0  0  0
  188.0960  173.9380  135.7630 C   0  0  1  0  0  3  0  0  0  0  0  0
  188.1260  175.3950  136.2510 C   0  0  2  0  0  3  0  0  0  0  0  0
  186.7780  175.9230  136.4660 N   0  0  0  0  0  0  0  0  0  0  0  0
  185.7880  175.1810  136.8700 C   0  0  0  0  0  0  0  0  0  0  0  0
  187.2420  171.7560  136.6870 O   0  0  0  0  0  1  0  0  0  0  0  0
  189.4950  173.3410  135.8990 C   0  0  0  0  0  2  0  0  0  0  0  0
  189.9150  173.3790  137.2280 O   0  0  0  0  0  1  0  0  0  0  0  0
  184.3880  177.1170  137.4910 C   0  0  0  0  0  1  0  0  0  0  0  0
  184.5400  175.7490  137.1380 O   0  0  0  0  0  0  0  0  0  0  0  0
  190.0070  175.9300  142.9170 C   0  0  0  0  0  2  0  0  0  0  0  0
  190.0190  176.2320  144.3140 O   0  0  0  0  0  0  0  0  0  0  0  0
  186.7570  178.0750  146.2540 C   0  0  0  0  0  0  0  0  0  0  0  0
  186.6670  177.6570  144.9180 C   0  0  0  0  0  3  0  0  0  0  0  0
  187.9710  177.8760  146.9500 C   0  0  0  0  0  0  0  0  0  0  0  0
  188.9500  176.8510  144.9730 C   0  0  0  0  0  0  0  0  0  0  0  0
  189.0530  177.2690  146.3070 C   0  0  0  0  0  3  0  0  0  0  0  0
  187.7530  177.0510  144.2830 C   0  0  0  0  0  3  0  0  0  0  0  0
  188.1190  178.2710  148.2750 O   0  0  0  0  0  1  0  0  0  0  0  0
  185.7110  179.8130  147.7180 O   0  0  0  0  0  1  0  0  0  0  0  0
  185.5760  178.7080  146.8850 C   0  0  0  0  0  0  0  0  0  0  0  0
  184.4240  178.2460  146.6720 O   0  0  0  0  0  0  0  0  0  0  0  0
  1 10  1  6  0  0  0
  1  9  1  0  0  0  0
  1  4  1  0  0  0  0
  2  7  1  0  0  0  0
  3  2  1  0  0  0  0
  4  3  1  1  0  0  0
  4  8  1  0  0  0  0
  5  6  1  0  0  0  0
  7 25  1  0  0  0  0
  8  6  1  1  0  0  0
  8  7  1  0  0  0  0
  9  5  1  0  0  0  0
 11 10  1  0  0  0  0
 12 11  1  0  0  0  0
 14 20  1  0  0  0  0
 14 15  2  0  0  0  0
 15 13  1  0  0  0  0
 16 21  1  1  0  0  0
 16 17  1  0  0  0  0
 16 14  1  0  0  0  0
 17 12  1  6  0  0  0
 17 18  1  0  0  0  0
 18 19  2  0  0  0  0
 19 15  1  0  0  0  0
 19 24  1  0  0  0  0
 21 22  1  0  0  0  0
 24 23  1  0  0  0  0
 25 26  1  0  0  0  0
 26 30  1  0  0  0  0
 27 35  1  0  0  0  0
 27 29  1  0  0  0  0
 28 27  2  0  0  0  0
 29 33  1  0  0  0  0
 30 31  1  0  0  0  0
 31 29  2  0  0  0  0
 32 28  1  0  0  0  0
 32 30  2  0  0  0  0
 35 34  1  0  0  0  0
 36 35  2  0  0  0  0
M  END
>  <MODEL>
8

>  <REMARK>
 VINA RESULT:      -8.1      3.011      6.413
  Name = 
  10 active torsions:
  status: ('A' for Active; 'I' for Inactive)
    1  A    between atoms: C_1  and  C_12
    2  A    between atoms: C_3  and  C_14
    3  A    between atoms: C_6  and  C_17
    4  A    between atoms: C_12  and  C_28
    5  A    between atoms: C_16  and  O_18
    6  A    between atoms: O_18  and  C_30
    7  A    between atoms: O_21  and  C_29
    8  A    between atoms: N_23  and  C_30
    9  A    between atoms: C_24  and  C_33
   10  A    between atoms: C_28  and  C_33
                            x       y       z     vdW  Elec       q    Type
                         _______ _______ _______ _____ _____    ______ ____

>  <TORSDO>
F 10

$$$$
=
 OpenBabel11062416003D

 36 39  0  0  1  0  0  0  0  0999 V2000
  184.3860  179.2360  143.2740 C   0  0  2  0  0  3  0  0  0  0  0  0
  181.4010  178.5150  141.2000 C   0  0  0  0  0  2  0  0  0  0  0  0
  182.0740  179.0110  142.4290 C   0  0  0  0  0  2  0  0  0  0  0  0
  183.3250  178.5980  142.4240 C   0  0  1  0  0  3  0  0  0  0  0  0
  185.2650  179.7370  141.0740 O   0  0  0  0  0  0  0  0  0  0  0  0
  184.9010  178.5010  140.4970 C   0  0  0  0  0  2  0  0  0  0  0  0
  182.4650  178.0370  140.3090 N   0  0  0  0  0  0  0  0  0  0  0  0
  183.6490  177.8900  141.1580 C   0  0  2  0  0  3  0  0  0  0  0  0
  185.6310  179.4670  142.4090 C   0  0  0  0  0  2  0  0  0  0  0  0
  184.7700  178.3670  144.4680 C   0  0  0  0  0  2  0  0  0  0  0  0
  186.1900  178.6290  144.9520 C   0  0  0  0  0  2  0  0  0  0  0  0
  186.6050  177.5760  145.9710 C   0  0  0  0  0  2  0  0  0  0  0  0
  191.6660  176.4620  143.5030 C   0  0  0  0  0  1  0  0  0  0  0  0
  190.4000  177.1300  145.5090 C   0  0  0  0  0  0  0  0  0  0  0  0
  190.3950  176.8110  144.2060 C   0  0  0  0  0  0  0  0  0  0  0  0
  189.1180  177.5630  146.1950 C   0  0  1  0  0  3  0  0  0  0  0  0
  187.8980  176.8990  145.5400 C   0  0  2  0  0  3  0  0  0  0  0  0
  187.9930  176.9090  144.0800 N   0  0  0  0  0  0  0  0  0  0  0  0
  189.1270  176.8230  143.4480 C   0  0  0  0  0  0  0  0  0  0  0  0
  191.6000  177.1270  146.2180 O   0  0  0  0  0  1  0  0  0  0  0  0
  189.1380  177.2110  147.6810 C   0  0  0  0  0  2  0  0  0  0  0  0
  189.0690  178.3660  148.4580 O   0  0  0  0  0  1  0  0  0  0  0  0
  188.8320  177.8680  141.2310 C   0  0  0  0  0  1  0  0  0  0  0  0
  189.1580  176.7550  142.0530 O   0  0  0  0  0  0  0  0  0  0  0  0
  182.0950  176.7240  139.7710 C   0  0  0  0  0  2  0  0  0  0  0  0
  182.3720  176.6230  138.3720 O   0  0  0  0  0  0  0  0  0  0  0  0
  185.8980  174.8900  136.8370 C   0  0  0  0  0  0  0  0  0  0  0  0
  185.6700  176.2720  136.7530 C   0  0  0  0  0  3  0  0  0  0  0  0
  184.9170  174.0730  137.4430 C   0  0  0  0  0  0  0  0  0  0  0  0
  183.5320  176.0290  137.8630 C   0  0  0  0  0  0  0  0  0  0  0  0
  183.7470  174.6460  137.9470 C   0  0  0  0  0  3  0  0  0  0  0  0
  184.4990  176.8360  137.2610 C   0  0  0  0  0  3  0  0  0  0  0  0
  185.0880  172.6980  137.5530 O   0  0  0  0  0  1  0  0  0  0  0  0
  188.3860  174.6290  136.8760 O   0  0  0  0  0  1  0  0  0  0  0  0
  187.1590  174.3390  136.2890 C   0  0  0  0  0  0  0  0  0  0  0  0
  187.1330  173.5950  135.2720 O   0  0  0  0  0  0  0  0  0  0  0  0
  1 10  1  1  0  0  0
  2  3  1  0  0  0  0
  4  3  1  6  0  0  0
  4  1  1  0  0  0  0
  5  9  1  0  0  0  0
  6  5  1  0  0  0  0
  7  8  1  0  0  0  0
  7  2  1  0  0  0  0
  8  6  1  6  0  0  0
  8  4  1  0  0  0  0
  9  1  1  0  0  0  0
 10 11  1  0  0  0  0
 11 12  1  0  0  0  0
 13 15  1  0  0  0  0
 14 16  1  0  0  0  0
 14 20  1  0  0  0  0
 15 14  2  0  0  0  0
 16 21  1  1  0  0  0
 17 12  1  6  0  0  0
 17 16  1  0  0  0  0
 18 17  1  0  0  0  0
 19 18  2  0  0  0  0
 19 15  1  0  0  0  0
 21 22  1  0  0  0  0
 23 24  1  0  0  0  0
 24 19  1  0  0  0  0
 25  7  1  0  0  0  0
 26 25  1  0  0  0  0
 27 29  1  0  0  0  0
 28 27  2  0  0  0  0
 28 32  1  0  0  0  0
 29 33  1  0  0  0  0
 29 31  2  0  0  0  0
 30 31  1  0  0  0  0
 30 26  1  0  0  0  0
 32 30  2  0  0  0  0
 35 27  1  0  0  0  0
 35 34  1  0  0  0  0
 36 35  2  0  0  0  0
M  END
>  <MODEL>
9

>  <REMARK>
 VINA RESULT:      -8.1      3.250      7.297
  Name = 
  10 active torsions:
  status: ('A' for Active; 'I' for Inactive)
    1  A    between atoms: C_1  and  C_12
    2  A    between atoms: C_3  and  C_14
    3  A    between atoms: C_6  and  C_17
    4  A    between atoms: C_12  and  C_28
    5  A    between atoms: C_16  and  O_18
    6  A    between atoms: O_18  and  C_30
    7  A    between atoms: O_21  and  C_29
    8  A    between atoms: N_23  and  C_30
    9  A    between atoms: C_24  and  C_33
   10  A    between atoms: C_28  and  C_33
                            x       y       z     vdW  Elec       q    Type
                         _______ _______ _______ _____ _____    ______ ____

>  <TORSDO>
F 10

$$$$
