=
 OpenBabel11062414543D

 51 56  0  0  1  0  0  0  0  0999 V2000
  190.7650  176.7420  137.3180 O   0  0  0  0  0  0  0  0  0  0  0  0
  190.1230  177.3180  138.2390 C   0  0  0  0  0  0  0  0  0  0  0  0
  188.7060  177.4620  138.1520 N   0  0  0  0  0  2  0  0  0  0  0  0
  190.7610  177.3600  141.7640 C   0  0  1  0  0  0  0  0  0  0  0  0
  192.0400  176.9070  141.2300 N   0  0  0  0  0  2  0  0  0  0  0  0
  189.9860  176.1220  142.8390 S   0  0  0  0  0  0  0  0  0  0  0  0
  190.9290  178.4170  142.8280 C   0  0  0  0  0  2  0  0  0  0  0  0
  190.8240  177.7880  139.4700 C   0  0  2  0  0  3  0  0  0  0  0  0
  191.9310  176.9040  139.8240 N   0  0  0  0  0  2  0  0  0  0  0  0
  190.2890  177.5700  143.9110 C   0  0  1  0  0  3  0  0  0  0  0  0
  189.8780  177.7970  140.6340 C   0  0  0  0  0  2  0  0  0  0  0  0
  188.9620  178.1900  144.3190 C   0  0  0  0  0  2  0  0  0  0  0  0
  188.3250  177.3990  145.4140 C   0  0  0  0  0  0  0  0  0  0  0  0
  189.0160  176.9230  146.3040 O   0  0  0  0  0  0  0  0  0  0  0  0
  186.4220  177.0200  146.7450 O   0  0  0  0  0  1  0  0  0  0  0  0
  186.8360  177.2150  145.4260 C   0  0  1  0  0  3  0  0  0  0  0  0
  181.9950  178.4520  141.4490 O   0  0  0  0  0  0  0  0  0  0  0  0
  183.6640  179.1050  145.2560 N   0  0  0  0  0  0  0  0  0  0  0  0
  181.9300  179.1960  143.6740 N   0  0  0  0  0  2  0  0  0  0  0  0
  186.4580  177.9040  142.4360 O   0  0  0  0  0  1  0  0  0  0  0  0
  184.3590  178.8710  142.9500 C   0  0  0  0  0  2  0  0  0  0  0  0
  185.3300  179.3400  146.8510 O   0  0  0  0  0  0  0  0  0  0  0  0
  179.9280  179.3800  142.1540 C   0  0  0  0  0  1  0  0  0  0  0  0
  183.3090  179.0060  144.0140 C   0  0  0  0  0  0  0  0  0  0  0  0
  185.4740  177.9510  143.4240 C   0  0  2  0  0  3  0  0  0  0  0  0
  185.0210  178.9560  145.6920 C   0  0  0  0  0  0  0  0  0  0  0  0
  186.0870  178.3970  144.7690 C   0  0  1  0  0  3  0  0  0  0  0  0
  181.3450  178.9910  142.3820 C   0  0  0  0  0  0  0  0  0  0  0  0
  187.9110  176.8820  137.0710 C   0  0  2  0  0  3  0  0  0  0  0  0
  186.1920  177.5890  135.3840 C   0  0  0  0  0  2  0  0  0  0  0  0
  185.4150  176.9310  137.2760 C   0  0  2  0  0  3  0  0  0  0  0  0
  186.6480  177.7110  136.8300 C   0  0  1  0  0  3  0  0  0  0  0  0
  184.9680  176.8130  135.8270 C   0  0  0  0  0  2  0  0  0  0  0  0
  184.8660  178.4010  139.1590 C   0  0  0  0  0  2  0  0  0  0  0  0
  184.4370  177.7650  138.0690 C   0  0  0  0  0  0  0  0  0  0  0  0
  182.9990  177.9430  137.6260 C   0  0  0  0  0  2  0  0  0  0  0  0
  180.2360  175.8000  137.4050 C   0  0  0  0  0  2  0  0  0  0  0  0
  179.8100  177.8520  138.6980 C   0  0  0  0  0  1  0  0  0  0  0  0
  182.0590  177.0220  138.2830 N   0  0  0  0  0  0  0  0  0  0  0  0
  180.7320  177.1800  137.6970 C   0  0  1  0  0  3  0  0  0  0  0  0
  182.4890  175.7370  138.0880 O   0  0  0  0  0  0  0  0  0  0  0  0
  181.3360  174.9470  137.9690 C   0  0  2  0  0  3  0  0  0  0  0  0
  181.6100  173.7310  137.0860 C   0  0  0  0  0  2  0  0  0  0  0  0
  183.0480  173.7050  136.5940 C   0  0  0  0  0  2  0  0  0  0  0  0
  183.7540  172.4790  137.1310 C   0  0  0  0  0  3  0  0  0  0  0  0
  185.0530  172.2920  136.3720 C   0  0  0  0  0  2  0  0  0  0  0  0
  185.0700  172.9020  137.7580 C   0  0  0  0  0  2  0  0  0  0  0  0
  187.5570  175.4190  137.3730 C   0  0  0  0  0  2  0  0  0  0  0  0
  188.7920  173.2480  136.9420 N   0  0  0  0  0  1  0  0  0  0  0  0
  188.2220  174.4520  136.4440 C   0  0  0  0  0  0  0  0  0  0  0  0
  188.3100  174.7250  135.2190 O   0  0  0  0  0  0  0  0  0  0  0  0
  1  2  2  0  0  0  0
  3  2  1  0  0  0  0
  4 11  1  6  0  0  0
  4  7  1  0  0  0  0
  4  6  1  0  0  0  0
  5  4  1  0  0  0  0
  6 10  1  0  0  0  0
  7 10  1  0  0  0  0
  8  2  1  6  0  0  0
  8  9  1  0  0  0  0
  8 11  1  0  0  0  0
  9  5  1  0  0  0  0
 10 12  1  6  0  0  0
 12 13  1  0  0  0  0
 13 16  1  0  0  0  0
 13 14  2  0  0  0  0
 16 15  1  1  0  0  0
 17 28  2  0  0  0  0
 18 26  1  0  0  0  0
 19 24  1  0  0  0  0
 21 25  1  0  0  0  0
 21 24  1  0  0  0  0
 23 28  1  0  0  0  0
 24 18  2  0  0  0  0
 25 20  1  6  0  0  0
 25 27  1  0  0  0  0
 26 22  2  0  0  0  0
 27 16  1  1  0  0  0
 27 26  1  0  0  0  0
 28 19  1  0  0  0  0
 29 48  1  1  0  0  0
 29  3  1  0  0  0  0
 30 33  1  0  0  0  0
 30 32  1  0  0  0  0
 31 35  1  1  0  0  0
 32 29  1  6  0  0  0
 32 31  1  0  0  0  0
 33 31  1  0  0  0  0
 35 34  2  0  0  0  0
 36 35  1  0  0  0  0
 36 39  1  0  0  0  0
 37 40  1  0  0  0  0
 37 42  1  0  0  0  0
 40 39  1  0  0  0  0
 40 38  1  1  0  0  0
 41 39  1  0  0  0  0
 42 43  1  6  0  0  0
 42 41  1  0  0  0  0
 44 43  1  0  0  0  0
 44 45  1  0  0  0  0
 45 47  1  0  0  0  0
 46 45  1  0  0  0  0
 46 47  1  0  0  0  0
 50 49  1  0  0  0  0
 50 48  1  0  0  0  0
 51 50  2  0  0  0  0
M  END
>  <MODEL>
1

>  <REMARK>
 VINA RESULT:      -7.6      0.000      0.000
  Name = 
  15 active torsions:
  status: ('A' for Active; 'I' for Inactive)
    1  A    between atoms: C_4  and  C_37
    2  A    between atoms: C_4  and  C_42
    3  A    between atoms: C_4  and  N_44
    4  A    between atoms: C_7  and  N_20
    5  A    between atoms: C_7  and  C_26
    6  A    between atoms: C_12  and  C_25
    7  A    between atoms: C_12  and  C_46
    8  A    between atoms: C_18  and  C_38
    9  A    between atoms: C_22  and  C_46
   10  A    between atoms: C_23  and  C_26
   11  A    between atoms: C_25  and  C_48
   12  A    between atoms: C_27  and  C_42
   13  A    between atoms: C_31  and  C_51
   14  A    between atoms: C_41  and  C_47
   15  A    between atoms: C_47  and  C_51
                            x       y       z     vdW  Elec       q    Type
                         _______ _______ _______ _____ _____    ______ ____

>  <TORSDO>
F 15

$$$$
=
 OpenBabel11062414543D

 51 56  0  0  1  0  0  0  0  0999 V2000
  187.9830  178.5930  138.1770 O   0  0  0  0  0  0  0  0  0  0  0  0
  188.7660  177.6330  138.4130 C   0  0  0  0  0  0  0  0  0  0  0  0
  188.6950  176.4350  137.6410 N   0  0  0  0  0  2  0  0  0  0  0  0
  190.1460  177.1560  141.6840 C   0  0  1  0  0  0  0  0  0  0  0  0
  191.0760  176.4020  140.8500 N   0  0  0  0  0  2  0  0  0  0  0  0
  189.2880  176.1010  142.8840 S   0  0  0  0  0  0  0  0  0  0  0  0
  190.8590  178.0130  142.7020 C   0  0  0  0  0  2  0  0  0  0  0  0
  189.8300  177.7620  139.4520 C   0  0  2  0  0  3  0  0  0  0  0  0
  190.6630  176.5640  139.5110 N   0  0  0  0  0  2  0  0  0  0  0  0
  190.2470  177.2910  143.8860 C   0  0  1  0  0  3  0  0  0  0  0  0
  189.2120  177.9350  140.8080 C   0  0  0  0  0  2  0  0  0  0  0  0
  189.2960  178.2280  144.6140 C   0  0  0  0  0  2  0  0  0  0  0  0
  188.6730  177.5430  145.7850 C   0  0  0  0  0  0  0  0  0  0  0  0
  189.3690  177.1900  146.7260 O   0  0  0  0  0  0  0  0  0  0  0  0
  186.7930  177.0880  147.1260 O   0  0  0  0  0  1  0  0  0  0  0  0
  187.1900  177.3130  145.8070 C   0  0  1  0  0  3  0  0  0  0  0  0
  182.1610  178.4620  142.0420 O   0  0  0  0  0  0  0  0  0  0  0  0
  183.9950  179.1700  145.7630 N   0  0  0  0  0  0  0  0  0  0  0  0
  182.1900  179.2280  144.2610 N   0  0  0  0  0  2  0  0  0  0  0  0
  186.6700  177.9670  142.8300 O   0  0  0  0  0  1  0  0  0  0  0  0
  184.5860  178.9190  143.4300 C   0  0  0  0  0  2  0  0  0  0  0  0
  185.7280  179.4380  147.2780 O   0  0  0  0  0  0  0  0  0  0  0  0
  180.1180  179.3770  142.8310 C   0  0  0  0  0  1  0  0  0  0  0  0
  183.5840  179.0550  144.5390 C   0  0  0  0  0  0  0  0  0  0  0  0
  185.7310  178.0150  143.8620 C   0  0  2  0  0  3  0  0  0  0  0  0
  185.3710  179.0390  146.1380 C   0  0  0  0  0  0  0  0  0  0  0  0
  186.4000  178.4810  145.1730 C   0  0  1  0  0  3  0  0  0  0  0  0
  181.5480  179.0040  142.9980 C   0  0  0  0  0  0  0  0  0  0  0  0
  187.8060  176.2800  136.4910 C   0  0  2  0  0  3  0  0  0  0  0  0
  185.3110  176.4320  136.7150 C   0  0  0  0  0  2  0  0  0  0  0  0
  186.0450  174.6610  135.7480 C   0  0  2  0  0  3  0  0  0  0  0  0
  186.5290  175.5410  136.8960 C   0  0  1  0  0  3  0  0  0  0  0  0
  184.8300  175.5590  135.5740 C   0  0  0  0  0  2  0  0  0  0  0  0
  185.4720  173.0390  137.4930 C   0  0  0  0  0  2  0  0  0  0  0  0
  185.6260  173.2790  136.1920 C   0  0  0  0  0  0  0  0  0  0  0  0
  185.3230  172.1790  135.1950 C   0  0  0  0  0  2  0  0  0  0  0  0
  182.2410  171.6890  136.7870 C   0  0  0  0  0  2  0  0  0  0  0  0
  183.2400  169.6280  135.8840 C   0  0  0  0  0  1  0  0  0  0  0  0
  183.8960  171.8380  135.1060 N   0  0  0  0  0  0  0  0  0  0  0  0
  183.5040  171.0680  136.2820 C   0  0  1  0  0  3  0  0  0  0  0  0
  183.1660  172.9940  135.0590 O   0  0  0  0  0  0  0  0  0  0  0  0
  181.9700  172.7370  135.7470 C   0  0  2  0  0  3  0  0  0  0  0  0
  181.4260  174.0200  136.3720 C   0  0  0  0  0  2  0  0  0  0  0  0
  182.1140  174.3400  137.6900 C   0  0  0  0  0  2  0  0  0  0  0  0
  181.8770  175.7890  138.0560 C   0  0  0  0  0  3  0  0  0  0  0  0
  180.8520  175.8490  139.1700 C   0  0  0  0  0  2  0  0  0  0  0  0
  182.3240  176.0160  139.4880 C   0  0  0  0  0  2  0  0  0  0  0  0
  188.5170  175.5550  135.3400 C   0  0  0  0  0  2  0  0  0  0  0  0
  190.9410  175.5750  134.5970 N   0  0  0  0  0  1  0  0  0  0  0  0
  189.7320  176.2800  134.8520 C   0  0  0  0  0  0  0  0  0  0  0  0
  189.6940  177.5280  134.7030 O   0  0  0  0  0  0  0  0  0  0  0  0
  1  2  2  0  0  0  0
  3  2  1  0  0  0  0
  4 11  1  6  0  0  0
  4  7  1  0  0  0  0
  4  6  1  0  0  0  0
  5  4  1  0  0  0  0
  6 10  1  0  0  0  0
  7 10  1  0  0  0  0
  8  2  1  6  0  0  0
  8  9  1  0  0  0  0
  8 11  1  0  0  0  0
  9  5  1  0  0  0  0
 10 12  1  6  0  0  0
 12 13  1  0  0  0  0
 13 16  1  0  0  0  0
 13 14  2  0  0  0  0
 16 15  1  1  0  0  0
 17 28  2  0  0  0  0
 18 26  1  0  0  0  0
 19 24  1  0  0  0  0
 21 25  1  0  0  0  0
 21 24  1  0  0  0  0
 23 28  1  0  0  0  0
 24 18  2  0  0  0  0
 25 20  1  6  0  0  0
 25 27  1  0  0  0  0
 26 22  2  0  0  0  0
 27 16  1  1  0  0  0
 27 26  1  0  0  0  0
 28 19  1  0  0  0  0
 29 48  1  6  0  0  0
 29  3  1  0  0  0  0
 30 32  1  0  0  0  0
 31 35  1  1  0  0  0
 31 32  1  0  0  0  0
 32 29  1  6  0  0  0
 33 31  1  0  0  0  0
 33 30  1  0  0  0  0
 35 34  2  0  0  0  0
 36 35  1  0  0  0  0
 39 36  1  0  0  0  0
 39 40  1  0  0  0  0
 40 38  1  6  0  0  0
 40 37  1  0  0  0  0
 41 39  1  0  0  0  0
 41 42  1  0  0  0  0
 42 43  1  1  0  0  0
 42 37  1  0  0  0  0
 43 44  1  0  0  0  0
 44 45  1  0  0  0  0
 45 46  1  0  0  0  0
 45 47  1  0  0  0  0
 46 47  1  0  0  0  0
 49 50  1  0  0  0  0
 50 48  1  0  0  0  0
 51 50  2  0  0  0  0
M  END
>  <MODEL>
2

>  <REMARK>
 VINA RESULT:      -7.2      1.746      3.087
  Name = 
  15 active torsions:
  status: ('A' for Active; 'I' for Inactive)
    1  A    between atoms: C_4  and  C_37
    2  A    between atoms: C_4  and  C_42
    3  A    between atoms: C_4  and  N_44
    4  A    between atoms: C_7  and  N_20
    5  A    between atoms: C_7  and  C_26
    6  A    between atoms: C_12  and  C_25
    7  A    between atoms: C_12  and  C_46
    8  A    between atoms: C_18  and  C_38
    9  A    between atoms: C_22  and  C_46
   10  A    between atoms: C_23  and  C_26
   11  A    between atoms: C_25  and  C_48
   12  A    between atoms: C_27  and  C_42
   13  A    between atoms: C_31  and  C_51
   14  A    between atoms: C_41  and  C_47
   15  A    between atoms: C_47  and  C_51
                            x       y       z     vdW  Elec       q    Type
                         _______ _______ _______ _____ _____    ______ ____

>  <TORSDO>
F 15

$$$$
=
 OpenBabel11062414543D

 51 56  0  0  1  0  0  0  0  0999 V2000
  190.2530  176.9120  145.5530 O   0  0  0  0  0  0  0  0  0  0  0  0
  189.5910  176.7230  144.4960 C   0  0  0  0  0  0  0  0  0  0  0  0
  188.1640  176.7540  144.5220 N   0  0  0  0  0  2  0  0  0  0  0  0
  190.0720  177.3100  140.9960 C   0  0  1  0  0  0  0  0  0  0  0  0
  191.3110  177.8310  141.5630 N   0  0  0  0  0  2  0  0  0  0  0  0
  189.1080  178.5940  140.1520 S   0  0  0  0  0  0  0  0  0  0  0  0
  190.3180  176.4610  139.7720 C   0  0  0  0  0  2  0  0  0  0  0  0
  190.2870  176.5410  143.1890 C   0  0  2  0  0  3  0  0  0  0  0  0
  191.2640  177.6010  142.9540 N   0  0  0  0  0  2  0  0  0  0  0  0
  189.5340  177.3790  138.8550 C   0  0  1  0  0  3  0  0  0  0  0  0
  189.2980  176.5960  142.0630 C   0  0  0  0  0  2  0  0  0  0  0  0
  188.2730  176.6700  138.3860 C   0  0  0  0  0  2  0  0  0  0  0  0
  187.9820  177.0010  136.9590 C   0  0  0  0  0  0  0  0  0  0  0  0
  187.9130  178.1700  136.6060 O   0  0  0  0  0  0  0  0  0  0  0  0
  187.1920  176.4170  134.8210 O   0  0  0  0  0  1  0  0  0  0  0  0
  187.7980  175.8930  135.9640 C   0  0  1  0  0  3  0  0  0  0  0  0
  194.0620  176.1650  137.1780 O   0  0  0  0  0  0  0  0  0  0  0  0
  190.5710  173.8160  137.2530 N   0  0  0  0  0  0  0  0  0  0  0  0
  192.8070  174.2820  137.8020 N   0  0  0  0  0  2  0  0  0  0  0  0
  190.3420  176.9920  134.5940 O   0  0  0  0  0  1  0  0  0  0  0  0
  191.6490  175.4800  135.8650 C   0  0  0  0  0  2  0  0  0  0  0  0
  188.4780  173.0720  136.5910 O   0  0  0  0  0  0  0  0  0  0  0  0
  195.2030  174.5810  138.5270 C   0  0  0  0  0  1  0  0  0  0  0  0
  191.6270  174.5340  137.0290 C   0  0  0  0  0  0  0  0  0  0  0  0
  190.3010  176.1730  135.7230 C   0  0  2  0  0  3  0  0  0  0  0  0
  189.3520  173.9750  136.5160 C   0  0  0  0  0  0  0  0  0  0  0  0
  189.1250  175.1780  135.6200 C   0  0  1  0  0  3  0  0  0  0  0  0
  194.0100  175.0620  137.7820 C   0  0  0  0  0  0  0  0  0  0  0  0
  187.3950  177.0970  145.7170 C   0  0  2  0  0  3  0  0  0  0  0  0
  185.2800  178.1920  146.5070 C   0  0  0  0  0  2  0  0  0  0  0  0
  185.9840  178.8240  144.5780 C   0  0  2  0  0  3  0  0  0  0  0  0
  185.9700  177.5030  145.3400 C   0  0  1  0  0  3  0  0  0  0  0  0
  185.2960  179.5060  145.7510 C   0  0  0  0  0  2  0  0  0  0  0  0
  185.5030  178.2060  142.2560 C   0  0  0  0  0  2  0  0  0  0  0  0
  185.0880  178.8220  143.3630 C   0  0  0  0  0  0  0  0  0  0  0  0
  183.7090  179.4490  143.3880 C   0  0  0  0  0  2  0  0  0  0  0  0
  180.6720  179.0980  141.6780 C   0  0  0  0  0  2  0  0  0  0  0  0
  180.5430  178.5360  144.0710 C   0  0  0  0  0  1  0  0  0  0  0  0
  182.6520  178.5750  142.8580 N   0  0  0  0  0  0  0  0  0  0  0  0
  181.3580  179.2350  142.9990 C   0  0  1  0  0  3  0  0  0  0  0  0
  182.8960  178.3380  141.5320 O   0  0  0  0  0  0  0  0  0  0  0  0
  181.6430  178.2500  140.9070 C   0  0  2  0  0  3  0  0  0  0  0  0
  181.7400  178.6940  139.4500 C   0  0  0  0  0  2  0  0  0  0  0  0
  182.2760  177.5850  138.5580 C   0  0  0  0  0  2  0  0  0  0  0  0
  183.3570  178.1320  137.6500 C   0  0  0  0  0  3  0  0  0  0  0  0
  184.6600  178.1900  138.4220 C   0  0  0  0  0  2  0  0  0  0  0  0
  184.4130  177.0640  137.4400 C   0  0  0  0  0  2  0  0  0  0  0  0
  188.0890  178.2080  146.5170 C   0  0  0  0  0  2  0  0  0  0  0  0
  189.2360  178.6190  148.7400 N   0  0  0  0  0  1  0  0  0  0  0  0
  188.3850  177.8160  147.9310 C   0  0  0  0  0  0  0  0  0  0  0  0
  187.9070  176.7490  148.3940 O   0  0  0  0  0  0  0  0  0  0  0  0
  2  3  1  0  0  0  0
  2  1  2  0  0  0  0
  3 29  1  0  0  0  0
  4  7  1  6  0  0  0
  4  5  1  0  0  0  0
  4 11  1  0  0  0  0
  5  9  1  0  0  0  0
  6  4  1  0  0  0  0
  8  2  1  1  0  0  0
  9  8  1  0  0  0  0
 10 12  1  1  0  0  0
 10  7  1  0  0  0  0
 10  6  1  0  0  0  0
 11  8  1  0  0  0  0
 13 12  1  0  0  0  0
 14 13  2  0  0  0  0
 16 15  1  6  0  0  0
 16 13  1  0  0  0  0
 17 28  2  0  0  0  0
 21 24  1  0  0  0  0
 24 18  2  0  0  0  0
 24 19  1  0  0  0  0
 25 20  1  6  0  0  0
 25 21  1  0  0  0  0
 26 22  2  0  0  0  0
 26 18  1  0  0  0  0
 27 25  1  0  0  0  0
 27 16  1  1  0  0  0
 27 26  1  0  0  0  0
 28 19  1  0  0  0  0
 28 23  1  0  0  0  0
 29 48  1  6  0  0  0
 31 35  1  6  0  0  0
 31 32  1  0  0  0  0
 31 33  1  0  0  0  0
 32 29  1  1  0  0  0
 32 30  1  0  0  0  0
 33 30  1  0  0  0  0
 34 35  2  0  0  0  0
 35 36  1  0  0  0  0
 37 40  1  0  0  0  0
 39 40  1  0  0  0  0
 39 36  1  0  0  0  0
 40 38  1  1  0  0  0
 41 39  1  0  0  0  0
 42 43  1  6  0  0  0
 42 41  1  0  0  0  0
 42 37  1  0  0  0  0
 44 43  1  0  0  0  0
 45 46  1  0  0  0  0
 45 44  1  0  0  0  0
 47 45  1  0  0  0  0
 47 46  1  0  0  0  0
 48 50  1  0  0  0  0
 50 51  2  0  0  0  0
 50 49  1  0  0  0  0
M  END
>  <MODEL>
3

>  <REMARK>
 VINA RESULT:      -7.2      2.398      8.652
  Name = 
  15 active torsions:
  status: ('A' for Active; 'I' for Inactive)
    1  A    between atoms: C_4  and  C_37
    2  A    between atoms: C_4  and  C_42
    3  A    between atoms: C_4  and  N_44
    4  A    between atoms: C_7  and  N_20
    5  A    between atoms: C_7  and  C_26
    6  A    between atoms: C_12  and  C_25
    7  A    between atoms: C_12  and  C_46
    8  A    between atoms: C_18  and  C_38
    9  A    between atoms: C_22  and  C_46
   10  A    between atoms: C_23  and  C_26
   11  A    between atoms: C_25  and  C_48
   12  A    between atoms: C_27  and  C_42
   13  A    between atoms: C_31  and  C_51
   14  A    between atoms: C_41  and  C_47
   15  A    between atoms: C_47  and  C_51
                            x       y       z     vdW  Elec       q    Type
                         _______ _______ _______ _____ _____    ______ ____

>  <TORSDO>
F 15

$$$$
=
 OpenBabel11062414543D

 51 56  0  0  1  0  0  0  0  0999 V2000
  188.0790  176.1740  142.3280 O   0  0  0  0  0  0  0  0  0  0  0  0
  188.3450  177.4050  142.3980 C   0  0  0  0  0  0  0  0  0  0  0  0
  188.6730  178.0040  143.6520 N   0  0  0  0  0  2  0  0  0  0  0  0
  188.2890  177.9170  138.8540 C   0  0  1  0  0  0  0  0  0  0  0  0
  187.1120  178.6620  139.2860 N   0  0  0  0  0  2  0  0  0  0  0  0
  187.8670  176.5440  137.7460 S   0  0  0  0  0  0  0  0  0  0  0  0
  189.1140  178.6870  137.8500 C   0  0  0  0  0  2  0  0  0  0  0  0
  188.3980  178.2400  141.1620 C   0  0  2  0  0  3  0  0  0  0  0  0
  187.0580  178.5810  140.6930 N   0  0  0  0  0  2  0  0  0  0  0  0
  188.9210  177.6570  136.7530 C   0  0  1  0  0  3  0  0  0  0  0  0
  189.0740  177.4870  140.0560 C   0  0  0  0  0  2  0  0  0  0  0  0
  190.2480  176.9770  136.4590 C   0  0  0  0  0  2  0  0  0  0  0  0
  190.0570  175.5080  136.2680 C   0  0  0  0  0  0  0  0  0  0  0  0
  189.2220  175.1000  135.4730 O   0  0  0  0  0  0  0  0  0  0  0  0
  190.1380  173.4270  137.3620 O   0  0  0  0  0  1  0  0  0  0  0  0
  190.9100  174.5430  137.0380 C   0  0  1  0  0  3  0  0  0  0  0  0
  196.6150  171.8190  137.9440 O   0  0  0  0  0  0  0  0  0  0  0  0
  192.9830  171.7350  135.8210 N   0  0  0  0  0  0  0  0  0  0  0  0
  195.0310  170.8250  136.5260 N   0  0  0  0  0  2  0  0  0  0  0  0
  193.8360  175.4560  137.4430 O   0  0  0  0  0  1  0  0  0  0  0  0
  194.5750  173.3340  136.6950 C   0  0  0  0  0  2  0  0  0  0  0  0
  191.0690  172.5770  134.8190 O   0  0  0  0  0  0  0  0  0  0  0  0
  197.1660  169.6470  137.1640 C   0  0  0  0  0  1  0  0  0  0  0  0
  194.1360  171.9340  136.3780 C   0  0  0  0  0  0  0  0  0  0  0  0
  193.4030  174.1480  137.2240 C   0  0  2  0  0  3  0  0  0  0  0  0
  192.0300  172.7830  135.6070 C   0  0  0  0  0  0  0  0  0  0  0  0
  192.1890  174.1390  136.2690 C   0  0  1  0  0  3  0  0  0  0  0  0
  196.2770  170.8370  137.2340 C   0  0  0  0  0  0  0  0  0  0  0  0
  188.8180  177.2360  144.8880 C   0  0  2  0  0  3  0  0  0  0  0  0
  187.7270  177.1690  147.1470 C   0  0  0  0  0  2  0  0  0  0  0  0
  186.8960  178.5850  145.7610 C   0  0  2  0  0  3  0  0  0  0  0  0
  187.4900  177.1840  145.6450 C   0  0  1  0  0  3  0  0  0  0  0  0
  187.1380  178.5610  147.2620 C   0  0  0  0  0  2  0  0  0  0  0  0
  184.5560  178.2250  146.3940 C   0  0  0  0  0  2  0  0  0  0  0  0
  185.4160  178.6310  145.4610 C   0  0  0  0  0  0  0  0  0  0  0  0
  184.8850  179.1790  144.1530 C   0  0  0  0  0  2  0  0  0  0  0  0
  182.1760  178.8610  141.9540 C   0  0  0  0  0  2  0  0  0  0  0  0
  181.5740  178.6050  144.3280 C   0  0  0  0  0  1  0  0  0  0  0  0
  183.8570  178.3330  143.5310 N   0  0  0  0  0  0  0  0  0  0  0  0
  182.6290  179.1040  143.3580 C   0  0  1  0  0  3  0  0  0  0  0  0
  184.3050  177.9180  142.3060 O   0  0  0  0  0  0  0  0  0  0  0  0
  183.1790  177.8530  141.4710 C   0  0  2  0  0  3  0  0  0  0  0  0
  183.5740  178.1070  140.0190 C   0  0  0  0  0  2  0  0  0  0  0  0
  183.3850  179.5650  139.6300 C   0  0  0  0  0  2  0  0  0  0  0  0
  182.5490  179.6580  138.3720 C   0  0  0  0  0  3  0  0  0  0  0  0
  181.0910  179.7990  138.7640 C   0  0  0  0  0  2  0  0  0  0  0  0
  181.8770  181.0170  138.3240 C   0  0  0  0  0  2  0  0  0  0  0  0
  189.9300  177.8200  145.7710 C   0  0  0  0  0  2  0  0  0  0  0  0
  191.6330  176.4510  144.4850 N   0  0  0  0  0  1  0  0  0  0  0  0
  191.2020  177.0330  145.7090 C   0  0  0  0  0  0  0  0  0  0  0  0
  191.8730  176.8530  146.7570 O   0  0  0  0  0  0  0  0  0  0  0  0
  1  2  2  0  0  0  0
  2  3  1  0  0  0  0
  3 29  1  0  0  0  0
  4  7  1  6  0  0  0
  4  5  1  0  0  0  0
  4 11  1  0  0  0  0
  5  9  1  0  0  0  0
  6  4  1  0  0  0  0
  8  2  1  1  0  0  0
  9  8  1  0  0  0  0
 10 12  1  1  0  0  0
 10  6  1  0  0  0  0
 10  7  1  0  0  0  0
 11  8  1  0  0  0  0
 13 12  1  0  0  0  0
 13 16  1  0  0  0  0
 14 13  2  0  0  0  0
 16 15  1  6  0  0  0
 18 24  2  0  0  0  0
 19 28  1  0  0  0  0
 21 25  1  0  0  0  0
 22 26  2  0  0  0  0
 23 28  1  0  0  0  0
 24 19  1  0  0  0  0
 24 21  1  0  0  0  0
 25 20  1  6  0  0  0
 26 18  1  0  0  0  0
 26 27  1  0  0  0  0
 27 16  1  1  0  0  0
 27 25  1  0  0  0  0
 28 17  2  0  0  0  0
 29 48  1  1  0  0  0
 30 33  1  0  0  0  0
 31 35  1  1  0  0  0
 31 33  1  0  0  0  0
 32 29  1  6  0  0  0
 32 31  1  0  0  0  0
 32 30  1  0  0  0  0
 35 34  2  0  0  0  0
 36 35  1  0  0  0  0
 37 40  1  0  0  0  0
 39 36  1  0  0  0  0
 40 39  1  0  0  0  0
 40 38  1  1  0  0  0
 41 39  1  0  0  0  0
 42 43  1  6  0  0  0
 42 37  1  0  0  0  0
 42 41  1  0  0  0  0
 44 43  1  0  0  0  0
 45 46  1  0  0  0  0
 45 44  1  0  0  0  0
 47 45  1  0  0  0  0
 47 46  1  0  0  0  0
 49 50  1  0  0  0  0
 50 48  1  0  0  0  0
 50 51  2  0  0  0  0
M  END
>  <MODEL>
4

>  <REMARK>
 VINA RESULT:      -7.1      3.612      9.869
  Name = 
  15 active torsions:
  status: ('A' for Active; 'I' for Inactive)
    1  A    between atoms: C_4  and  C_37
    2  A    between atoms: C_4  and  C_42
    3  A    between atoms: C_4  and  N_44
    4  A    between atoms: C_7  and  N_20
    5  A    between atoms: C_7  and  C_26
    6  A    between atoms: C_12  and  C_25
    7  A    between atoms: C_12  and  C_46
    8  A    between atoms: C_18  and  C_38
    9  A    between atoms: C_22  and  C_46
   10  A    between atoms: C_23  and  C_26
   11  A    between atoms: C_25  and  C_48
   12  A    between atoms: C_27  and  C_42
   13  A    between atoms: C_31  and  C_51
   14  A    between atoms: C_41  and  C_47
   15  A    between atoms: C_47  and  C_51
                            x       y       z     vdW  Elec       q    Type
                         _______ _______ _______ _____ _____    ______ ____

>  <TORSDO>
F 15

$$$$
=
 OpenBabel11062414543D

 51 56  0  0  1  0  0  0  0  0999 V2000
  188.5820  175.9010  142.7590 O   0  0  0  0  0  0  0  0  0  0  0  0
  188.5820  177.1610  142.7180 C   0  0  0  0  0  0  0  0  0  0  0  0
  188.2710  177.9230  143.8850 N   0  0  0  0  0  2  0  0  0  0  0  0
  188.9000  177.5130  139.1670 C   0  0  1  0  0  0  0  0  0  0  0  0
  188.0170  178.6230  139.5030 N   0  0  0  0  0  2  0  0  0  0  0  0
  188.1070  176.3120  138.0630 S   0  0  0  0  0  0  0  0  0  0  0  0
  189.9900  177.9220  138.2060 C   0  0  0  0  0  2  0  0  0  0  0  0
  188.9800  177.8790  141.4710 C   0  0  2  0  0  3  0  0  0  0  0  0
  187.8590  178.6240  140.9050 N   0  0  0  0  0  2  0  0  0  0  0  0
  189.5270  176.9700  137.1200 C   0  0  1  0  0  3  0  0  0  0  0  0
  189.4270  176.8980  140.4290 C   0  0  0  0  0  2  0  0  0  0  0  0
  190.5660  175.8750  136.9310 C   0  0  0  0  0  2  0  0  0  0  0  0
  190.9140  175.7220  135.4860 C   0  0  0  0  0  0  0  0  0  0  0  0
  190.0610  175.9120  134.6310 O   0  0  0  0  0  0  0  0  0  0  0  0
  192.9640  176.5110  134.6440 O   0  0  0  0  0  1  0  0  0  0  0  0
  192.3160  175.3600  135.0960 C   0  0  1  0  0  3  0  0  0  0  0  0
  197.0370  171.1900  136.1520 O   0  0  0  0  0  0  0  0  0  0  0  0
  195.5750  175.0800  136.8180 N   0  0  0  0  0  0  0  0  0  0  0  0
  197.2400  173.4230  136.8480 N   0  0  0  0  0  2  0  0  0  0  0  0
  192.5980  172.3680  135.8230 O   0  0  0  0  0  1  0  0  0  0  0  0
  194.7680  172.8040  136.6670 C   0  0  0  0  0  2  0  0  0  0  0  0
  193.9960  176.7520  137.1100 O   0  0  0  0  0  0  0  0  0  0  0  0
  199.1800  171.8180  136.9550 C   0  0  0  0  0  1  0  0  0  0  0  0
  195.8690  173.8210  136.7250 C   0  0  0  0  0  0  0  0  0  0  0  0
  193.6260  173.3120  135.7980 C   0  0  2  0  0  3  0  0  0  0  0  0
  194.2330  175.5740  136.7330 C   0  0  0  0  0  0  0  0  0  0  0  0
  193.0980  174.6900  136.2500 C   0  0  1  0  0  3  0  0  0  0  0  0
  197.7560  172.1020  136.6370 C   0  0  0  0  0  0  0  0  0  0  0  0
  188.0380  177.3150  145.1940 C   0  0  2  0  0  3  0  0  0  0  0  0
  186.5350  178.0110  147.0790 C   0  0  0  0  0  2  0  0  0  0  0  0
  186.1000  178.9010  145.1730 C   0  0  2  0  0  3  0  0  0  0  0  0
  186.5910  177.5330  145.6370 C   0  0  1  0  0  3  0  0  0  0  0  0
  186.0490  179.3700  146.6190 C   0  0  0  0  0  2  0  0  0  0  0  0
  183.6730  178.6290  145.3730 C   0  0  0  0  0  2  0  0  0  0  0  0
  184.7130  178.8660  144.5760 C   0  0  0  0  0  0  0  0  0  0  0  0
  184.4710  179.1500  143.1080 C   0  0  0  0  0  2  0  0  0  0  0  0
  181.8920  178.8340  140.7580 C   0  0  0  0  0  2  0  0  0  0  0  0
  181.1100  178.9780  143.0880 C   0  0  0  0  0  1  0  0  0  0  0  0
  183.3900  178.3460  142.5200 N   0  0  0  0  0  0  0  0  0  0  0  0
  182.2790  179.2170  142.1500 C   0  0  1  0  0  3  0  0  0  0  0  0
  183.8640  177.7170  141.4000 O   0  0  0  0  0  0  0  0  0  0  0  0
  182.7940  177.6630  140.4930 C   0  0  2  0  0  3  0  0  0  0  0  0
  183.3110  177.6670  139.0560 C   0  0  0  0  0  2  0  0  0  0  0  0
  182.4680  178.5590  138.1580 C   0  0  0  0  0  2  0  0  0  0  0  0
  181.3610  177.7480  137.5190 C   0  0  0  0  0  3  0  0  0  0  0  0
  180.0500  178.4870  137.6960 C   0  0  0  0  0  2  0  0  0  0  0  0
  180.7720  178.5370  136.3660 C   0  0  0  0  0  2  0  0  0  0  0  0
  189.0200  177.8660  146.2380 C   0  0  0  0  0  2  0  0  0  0  0  0
  190.6270  176.4300  147.5730 N   0  0  0  0  0  1  0  0  0  0  0  0
  190.2760  177.0580  146.3460 C   0  0  0  0  0  0  0  0  0  0  0  0
  191.0440  176.9660  145.3540 O   0  0  0  0  0  0  0  0  0  0  0  0
  2  1  2  0  0  0  0
  2  3  1  0  0  0  0
  3 29  1  0  0  0  0
  4  7  1  6  0  0  0
  4  5  1  0  0  0  0
  4 11  1  0  0  0  0
  5  9  1  0  0  0  0
  6  4  1  0  0  0  0
  8  2  1  1  0  0  0
  9  8  1  0  0  0  0
 10 12  1  1  0  0  0
 10  6  1  0  0  0  0
 10  7  1  0  0  0  0
 11  8  1  0  0  0  0
 13 12  1  0  0  0  0
 14 13  2  0  0  0  0
 16 15  1  1  0  0  0
 16 13  1  0  0  0  0
 17 28  2  0  0  0  0
 21 24  1  0  0  0  0
 24 18  2  0  0  0  0
 24 19  1  0  0  0  0
 25 20  1  1  0  0  0
 25 27  1  0  0  0  0
 25 21  1  0  0  0  0
 26 18  1  0  0  0  0
 26 22  2  0  0  0  0
 27 16  1  6  0  0  0
 27 26  1  0  0  0  0
 28 19  1  0  0  0  0
 28 23  1  0  0  0  0
 29 48  1  1  0  0  0
 31 35  1  1  0  0  0
 31 32  1  0  0  0  0
 31 33  1  0  0  0  0
 32 29  1  6  0  0  0
 32 30  1  0  0  0  0
 33 30  1  0  0  0  0
 35 34  2  0  0  0  0
 36 35  1  0  0  0  0
 37 40  1  0  0  0  0
 39 36  1  0  0  0  0
 40 39  1  0  0  0  0
 40 38  1  1  0  0  0
 41 39  1  0  0  0  0
 42 43  1  6  0  0  0
 42 37  1  0  0  0  0
 42 41  1  0  0  0  0
 44 43  1  0  0  0  0
 45 46  1  0  0  0  0
 45 44  1  0  0  0  0
 47 45  1  0  0  0  0
 47 46  1  0  0  0  0
 48 50  1  0  0  0  0
 50 49  1  0  0  0  0
 51 50  2  0  0  0  0
M  END
>  <MODEL>
5

>  <REMARK>
 VINA RESULT:      -7.1      3.881      9.964
  Name = 
  15 active torsions:
  status: ('A' for Active; 'I' for Inactive)
    1  A    between atoms: C_4  and  C_37
    2  A    between atoms: C_4  and  C_42
    3  A    between atoms: C_4  and  N_44
    4  A    between atoms: C_7  and  N_20
    5  A    between atoms: C_7  and  C_26
    6  A    between atoms: C_12  and  C_25
    7  A    between atoms: C_12  and  C_46
    8  A    between atoms: C_18  and  C_38
    9  A    between atoms: C_22  and  C_46
   10  A    between atoms: C_23  and  C_26
   11  A    between atoms: C_25  and  C_48
   12  A    between atoms: C_27  and  C_42
   13  A    between atoms: C_31  and  C_51
   14  A    between atoms: C_41  and  C_47
   15  A    between atoms: C_47  and  C_51
                            x       y       z     vdW  Elec       q    Type
                         _______ _______ _______ _____ _____    ______ ____

>  <TORSDO>
F 15

$$$$
=
 OpenBabel11062414543D

 51 56  0  0  1  0  0  0  0  0999 V2000
  189.0380  179.1110  137.9760 O   0  0  0  0  0  0  0  0  0  0  0  0
  189.4930  177.9650  138.2410 C   0  0  0  0  0  0  0  0  0  0  0  0
  189.2190  176.8610  137.3780 N   0  0  0  0  0  2  0  0  0  0  0  0
  190.1940  177.0660  141.6370 C   0  0  1  0  0  0  0  0  0  0  0  0
  190.9670  176.0770  140.8960 N   0  0  0  0  0  2  0  0  0  0  0  0
  188.9010  176.3060  142.6570 S   0  0  0  0  0  0  0  0  0  0  0  0
  190.9770  177.6610  142.7820 C   0  0  0  0  0  2  0  0  0  0  0  0
  190.3900  177.7600  139.4170 C   0  0  2  0  0  3  0  0  0  0  0  0
  190.8150  176.3670  139.5240 N   0  0  0  0  0  2  0  0  0  0  0  0
  190.0170  177.1450  143.8370 C   0  0  1  0  0  3  0  0  0  0  0  0
  189.6650  178.0970  140.6850 C   0  0  0  0  0  2  0  0  0  0  0  0
  189.2920  178.3180  144.4790 C   0  0  0  0  0  2  0  0  0  0  0  0
  188.3730  177.8440  145.5560 C   0  0  0  0  0  0  0  0  0  0  0  0
  188.7520  177.8310  146.7190 O   0  0  0  0  0  0  0  0  0  0  0  0
  186.4230  176.7660  146.3110 O   0  0  0  0  0  1  0  0  0  0  0  0
  186.9820  177.4080  145.2050 C   0  0  1  0  0  3  0  0  0  0  0  0
  181.8370  178.6320  141.6240 O   0  0  0  0  0  0  0  0  0  0  0  0
  183.6500  178.9970  145.4040 N   0  0  0  0  0  0  0  0  0  0  0  0
  181.8300  179.1050  143.9240 N   0  0  0  0  0  2  0  0  0  0  0  0
  186.3790  178.3980  142.3390 O   0  0  0  0  0  1  0  0  0  0  0  0
  184.2330  179.0970  143.0580 C   0  0  0  0  0  2  0  0  0  0  0  0
  185.3740  179.2030  146.9400 O   0  0  0  0  0  0  0  0  0  0  0  0
  179.7380  179.2740  142.5270 C   0  0  0  0  0  1  0  0  0  0  0  0
  183.2370  179.0090  144.1760 C   0  0  0  0  0  0  0  0  0  0  0  0
  185.4510  178.2380  143.3680 C   0  0  2  0  0  3  0  0  0  0  0  0
  185.0370  178.9280  145.7580 C   0  0  0  0  0  0  0  0  0  0  0  0
  186.0950  178.5820  144.7280 C   0  0  1  0  0  3  0  0  0  0  0  0
  181.1940  178.9960  142.6430 C   0  0  0  0  0  0  0  0  0  0  0  0
  188.4980  176.9970  136.1140 C   0  0  2  0  0  3  0  0  0  0  0  0
  186.3250  177.9130  135.2570 C   0  0  0  0  0  2  0  0  0  0  0  0
  186.2820  175.8560  135.8760 C   0  0  2  0  0  3  0  0  0  0  0  0
  186.9940  177.1140  136.3640 C   0  0  1  0  0  3  0  0  0  0  0  0
  185.6180  176.6630  134.7710 C   0  0  0  0  0  2  0  0  0  0  0  0
  185.2220  174.0370  137.1310 C   0  0  0  0  0  2  0  0  0  0  0  0
  185.2500  175.3390  136.8510 C   0  0  0  0  0  0  0  0  0  0  0  0
  184.2860  176.2690  137.5590 C   0  0  0  0  0  2  0  0  0  0  0  0
  180.8800  177.0480  137.8040 C   0  0  0  0  0  2  0  0  0  0  0  0
  181.3430  174.6390  137.6030 C   0  0  0  0  0  1  0  0  0  0  0  0
  182.9570  176.3320  136.9340 N   0  0  0  0  0  0  0  0  0  0  0  0
  181.9370  175.9980  137.9230 C   0  0  1  0  0  3  0  0  0  0  0  0
  182.7430  177.6030  136.4750 O   0  0  0  0  0  0  0  0  0  0  0  0
  181.3730  177.8600  136.6410 C   0  0  2  0  0  3  0  0  0  0  0  0
  181.1300  179.3520  136.8550 C   0  0  0  0  0  2  0  0  0  0  0  0
  180.5650  179.6370  138.2380 C   0  0  0  0  0  2  0  0  0  0  0  0
  181.0590  180.9820  138.7280 C   0  0  0  0  0  3  0  0  0  0  0  0
  180.1770  182.0680  138.1440 C   0  0  0  0  0  2  0  0  0  0  0  0
  179.9800  181.6240  139.5790 C   0  0  0  0  0  2  0  0  0  0  0  0
  188.8090  175.8230  135.1750 C   0  0  0  0  0  2  0  0  0  0  0  0
  191.2350  176.2950  134.6090 N   0  0  0  0  0  1  0  0  0  0  0  0
  190.2550  175.4360  135.1790 C   0  0  0  0  0  0  0  0  0  0  0  0
  190.6000  174.3240  135.6560 O   0  0  0  0  0  0  0  0  0  0  0  0
  1  2  2  0  0  0  0
  3  2  1  0  0  0  0
  4 11  1  6  0  0  0
  4  6  1  0  0  0  0
  4  7  1  0  0  0  0
  5  4  1  0  0  0  0
  6 10  1  0  0  0  0
  7 10  1  0  0  0  0
  8  2  1  6  0  0  0
  8  9  1  0  0  0  0
  8 11  1  0  0  0  0
  9  5  1  0  0  0  0
 10 12  1  6  0  0  0
 12 13  1  0  0  0  0
 13 14  2  0  0  0  0
 16 13  1  0  0  0  0
 16 15  1  1  0  0  0
 17 28  2  0  0  0  0
 18 26  1  0  0  0  0
 19 24  1  0  0  0  0
 21 25  1  0  0  0  0
 21 24  1  0  0  0  0
 23 28  1  0  0  0  0
 24 18  2  0  0  0  0
 25 20  1  6  0  0  0
 25 27  1  0  0  0  0
 26 22  2  0  0  0  0
 27 16  1  1  0  0  0
 27 26  1  0  0  0  0
 28 19  1  0  0  0  0
 29 48  1  6  0  0  0
 29  3  1  0  0  0  0
 30 32  1  0  0  0  0
 31 32  1  0  0  0  0
 31 35  1  1  0  0  0
 32 29  1  6  0  0  0
 33 30  1  0  0  0  0
 33 31  1  0  0  0  0
 35 34  2  0  0  0  0
 35 36  1  0  0  0  0
 37 40  1  0  0  0  0
 39 36  1  0  0  0  0
 39 40  1  0  0  0  0
 40 38  1  6  0  0  0
 41 42  1  0  0  0  0
 41 39  1  0  0  0  0
 42 43  1  1  0  0  0
 42 37  1  0  0  0  0
 43 44  1  0  0  0  0
 44 45  1  0  0  0  0
 45 47  1  0  0  0  0
 46 45  1  0  0  0  0
 46 47  1  0  0  0  0
 48 50  1  0  0  0  0
 49 50  1  0  0  0  0
 50 51  2  0  0  0  0
M  END
>  <MODEL>
6

>  <REMARK>
 VINA RESULT:      -6.9      1.615      3.216
  Name = 
  15 active torsions:
  status: ('A' for Active; 'I' for Inactive)
    1  A    between atoms: C_4  and  C_37
    2  A    between atoms: C_4  and  C_42
    3  A    between atoms: C_4  and  N_44
    4  A    between atoms: C_7  and  N_20
    5  A    between atoms: C_7  and  C_26
    6  A    between atoms: C_12  and  C_25
    7  A    between atoms: C_12  and  C_46
    8  A    between atoms: C_18  and  C_38
    9  A    between atoms: C_22  and  C_46
   10  A    between atoms: C_23  and  C_26
   11  A    between atoms: C_25  and  C_48
   12  A    between atoms: C_27  and  C_42
   13  A    between atoms: C_31  and  C_51
   14  A    between atoms: C_41  and  C_47
   15  A    between atoms: C_47  and  C_51
                            x       y       z     vdW  Elec       q    Type
                         _______ _______ _______ _____ _____    ______ ____

>  <TORSDO>
F 15

$$$$
=
 OpenBabel11062414543D

 51 56  0  0  1  0  0  0  0  0999 V2000
  189.7910  173.8430  135.3150 O   0  0  0  0  0  0  0  0  0  0  0  0
  189.2140  173.6790  136.4240 C   0  0  0  0  0  0  0  0  0  0  0  0
  189.7950  174.1870  137.6250 N   0  0  0  0  0  2  0  0  0  0  0  0
  185.6330  173.6410  136.3280 C   0  0  1  0  0  0  0  0  0  0  0  0
  185.9760  172.7930  135.1920 N   0  0  0  0  0  2  0  0  0  0  0  0
  184.7250  175.1290  135.8260 S   0  0  0  0  0  0  0  0  0  0  0  0
  184.5260  173.0500  137.1680 C   0  0  0  0  0  2  0  0  0  0  0  0
  187.8770  173.0190  136.4910 C   0  0  2  0  0  3  0  0  0  0  0  0
  187.3810  172.6830  135.1600 N   0  0  0  0  0  2  0  0  0  0  0  0
  183.5790  174.2060  136.9110 C   0  0  1  0  0  3  0  0  0  0  0  0
  186.8730  173.9430  137.1140 C   0  0  0  0  0  2  0  0  0  0  0  0
  183.3630  174.9800  138.2020 C   0  0  0  0  0  2  0  0  0  0  0  0
  182.0660  175.7190  138.1630 C   0  0  0  0  0  0  0  0  0  0  0  0
  181.0840  175.2560  138.7240 O   0  0  0  0  0  0  0  0  0  0  0  0
  180.7260  177.1500  136.8620 O   0  0  0  0  0  1  0  0  0  0  0  0
  181.9860  177.0390  137.4540 C   0  0  1  0  0  3  0  0  0  0  0  0
  181.6120  178.7640  143.5910 O   0  0  0  0  0  0  0  0  0  0  0  0
  184.0840  178.3160  140.2150 N   0  0  0  0  0  0  0  0  0  0  0  0
  183.6900  178.6640  142.5050 N   0  0  0  0  0  2  0  0  0  0  0  0
  180.0630  178.6530  139.2570 O   0  0  0  0  0  1  0  0  0  0  0  0
  181.8390  179.0190  140.7810 C   0  0  0  0  0  2  0  0  0  0  0  0
  184.6460  178.2530  137.9680 O   0  0  0  0  0  0  0  0  0  0  0  0
  183.5080  179.0320  144.9920 C   0  0  0  0  0  1  0  0  0  0  0  0
  183.2310  178.5990  141.1490 C   0  0  0  0  0  0  0  0  0  0  0  0
  181.3310  178.1890  139.6100 C   0  0  2  0  0  3  0  0  0  0  0  0
  183.7280  178.2520  138.8290 C   0  0  0  0  0  0  0  0  0  0  0  0
  182.2760  178.2340  138.3900 C   0  0  1  0  0  3  0  0  0  0  0  0
  182.8660  178.8280  143.6670 C   0  0  0  0  0  0  0  0  0  0  0  0
  191.0130  174.9960  137.6400 C   0  0  2  0  0  3  0  0  0  0  0  0
  190.2610  177.2240  136.7620 C   0  0  0  0  0  2  0  0  0  0  0  0
  189.2660  176.5480  138.5410 C   0  0  2  0  0  3  0  0  0  0  0  0
  190.6880  176.4470  137.9970 C   0  0  1  0  0  3  0  0  0  0  0  0
  188.8480  177.3230  137.3010 C   0  0  0  0  0  2  0  0  0  0  0  0
  188.0860  178.1920  139.9240 C   0  0  0  0  0  2  0  0  0  0  0  0
  189.1590  177.4170  139.7730 C   0  0  0  0  0  0  0  0  0  0  0  0
  190.2090  177.3860  140.8630 C   0  0  0  0  0  2  0  0  0  0  0  0
  189.4730  177.0150  144.2680 C   0  0  0  0  0  2  0  0  0  0  0  0
  191.6300  176.0340  143.5980 C   0  0  0  0  0  1  0  0  0  0  0  0
  189.8650  176.5100  141.9930 N   0  0  0  0  0  0  0  0  0  0  0  0
  190.5210  176.9930  143.2030 C   0  0  1  0  0  3  0  0  0  0  0  0
  188.5090  176.5340  142.1740 O   0  0  0  0  0  0  0  0  0  0  0  0
  188.2910  176.4220  143.5560 C   0  0  2  0  0  3  0  0  0  0  0  0
  186.9920  177.1200  143.9510 C   0  0  0  0  0  2  0  0  0  0  0  0
  187.2070  178.1110  145.0850 C   0  0  0  0  0  2  0  0  0  0  0  0
  186.6270  177.5570  146.3690 C   0  0  0  0  0  3  0  0  0  0  0  0
  187.6540  177.7100  147.4730 C   0  0  0  0  0  2  0  0  0  0  0  0
  186.4960  178.6830  147.3780 C   0  0  0  0  0  2  0  0  0  0  0  0
  191.7440  174.9140  136.2930 C   0  0  0  0  0  2  0  0  0  0  0  0
  193.8020  174.0540  137.4970 N   0  0  0  0  0  1  0  0  0  0  0  0
  193.2300  174.8110  136.4370 C   0  0  0  0  0  0  0  0  0  0  0  0
  193.9780  175.4290  135.6370 O   0  0  0  0  0  0  0  0  0  0  0  0
  1  2  2  0  0  0  0
  2  3  1  0  0  0  0
  3 29  1  0  0  0  0
  4 11  1  1  0  0  0
  4  7  1  0  0  0  0
  5  4  1  0  0  0  0
  6  4  1  0  0  0  0
  6 10  1  0  0  0  0
  8  2  1  6  0  0  0
  8 11  1  0  0  0  0
  9  5  1  0  0  0  0
  9  8  1  0  0  0  0
 10  7  1  0  0  0  0
 10 12  1  1  0  0  0
 13 12  1  0  0  0  0
 13 14  2  0  0  0  0
 16 15  1  1  0  0  0
 16 13  1  0  0  0  0
 17 28  2  0  0  0  0
 18 24  2  0  0  0  0
 19 28  1  0  0  0  0
 21 24  1  0  0  0  0
 22 26  2  0  0  0  0
 24 19  1  0  0  0  0
 25 20  1  6  0  0  0
 25 21  1  0  0  0  0
 26 18  1  0  0  0  0
 27 16  1  6  0  0  0
 27 26  1  0  0  0  0
 27 25  1  0  0  0  0
 28 23  1  0  0  0  0
 29 48  1  6  0  0  0
 30 33  1  0  0  0  0
 30 32  1  0  0  0  0
 31 35  1  1  0  0  0
 32 29  1  6  0  0  0
 32 31  1  0  0  0  0
 33 31  1  0  0  0  0
 35 34  2  0  0  0  0
 35 36  1  0  0  0  0
 36 39  1  0  0  0  0
 39 41  1  0  0  0  0
 39 40  1  0  0  0  0
 40 38  1  1  0  0  0
 40 37  1  0  0  0  0
 41 42  1  0  0  0  0
 42 43  1  1  0  0  0
 42 37  1  0  0  0  0
 43 44  1  0  0  0  0
 44 45  1  0  0  0  0
 45 47  1  0  0  0  0
 45 46  1  0  0  0  0
 47 46  1  0  0  0  0
 48 50  1  0  0  0  0
 50 49  1  0  0  0  0
 51 50  2  0  0  0  0
M  END
>  <MODEL>
7

>  <REMARK>
 VINA RESULT:      -6.9      2.500      7.689
  Name = 
  15 active torsions:
  status: ('A' for Active; 'I' for Inactive)
    1  A    between atoms: C_4  and  C_37
    2  A    between atoms: C_4  and  C_42
    3  A    between atoms: C_4  and  N_44
    4  A    between atoms: C_7  and  N_20
    5  A    between atoms: C_7  and  C_26
    6  A    between atoms: C_12  and  C_25
    7  A    between atoms: C_12  and  C_46
    8  A    between atoms: C_18  and  C_38
    9  A    between atoms: C_22  and  C_46
   10  A    between atoms: C_23  and  C_26
   11  A    between atoms: C_25  and  C_48
   12  A    between atoms: C_27  and  C_42
   13  A    between atoms: C_31  and  C_51
   14  A    between atoms: C_41  and  C_47
   15  A    between atoms: C_47  and  C_51
                            x       y       z     vdW  Elec       q    Type
                         _______ _______ _______ _____ _____    ______ ____

>  <TORSDO>
F 15

$$$$
=
 OpenBabel11062414543D

 51 56  0  0  1  0  0  0  0  0999 V2000
  184.5560  180.3420  139.1040 O   0  0  0  0  0  0  0  0  0  0  0  0
  184.4010  179.0930  139.0380 C   0  0  0  0  0  0  0  0  0  0  0  0
  184.0240  178.3490  140.1970 N   0  0  0  0  0  2  0  0  0  0  0  0
  185.6720  176.5290  136.8840 C   0  0  1  0  0  0  0  0  0  0  0  0
  184.2400  176.2540  136.8690 N   0  0  0  0  0  2  0  0  0  0  0  0
  186.6310  175.1550  137.5790 S   0  0  0  0  0  0  0  0  0  0  0  0
  186.2790  176.4680  135.5030 C   0  0  0  0  0  2  0  0  0  0  0  0
  184.5330  178.3800  137.7330 C   0  0  2  0  0  3  0  0  0  0  0  0
  183.6140  177.2480  137.6490 N   0  0  0  0  0  2  0  0  0  0  0  0
  187.2040  175.3180  135.8520 C   0  0  1  0  0  3  0  0  0  0  0  0
  185.9210  177.8340  137.5790 C   0  0  0  0  0  2  0  0  0  0  0  0
  188.6450  175.8040  135.8360 C   0  0  0  0  0  2  0  0  0  0  0  0
  189.5530  174.7440  135.3060 C   0  0  0  0  0  0  0  0  0  0  0  0
  189.0940  173.6670  134.9550 O   0  0  0  0  0  0  0  0  0  0  0  0
  191.2000  176.3730  134.8910 O   0  0  0  0  0  1  0  0  0  0  0  0
  191.0230  175.0200  135.1870 C   0  0  1  0  0  3  0  0  0  0  0  0
  196.8180  173.1020  137.0660 O   0  0  0  0  0  0  0  0  0  0  0  0
  193.7390  175.9340  137.5220 N   0  0  0  0  0  0  0  0  0  0  0  0
  195.9220  175.1270  137.8440 N   0  0  0  0  0  2  0  0  0  0  0  0
  192.4330  172.3570  135.8790 O   0  0  0  0  0  1  0  0  0  0  0  0
  194.0260  173.5600  137.1540 C   0  0  0  0  0  2  0  0  0  0  0  0
  191.5720  176.7560  137.5330 O   0  0  0  0  0  0  0  0  0  0  0  0
  198.3130  174.4720  138.2990 C   0  0  0  0  0  1  0  0  0  0  0  0
  194.5560  174.9300  137.4580 C   0  0  0  0  0  0  0  0  0  0  0  0
  192.9440  173.6390  136.0860 C   0  0  2  0  0  3  0  0  0  0  0  0
  192.3510  175.8310  137.1810 C   0  0  0  0  0  0  0  0  0  0  0  0
  191.8070  174.6150  136.4570 C   0  0  1  0  0  3  0  0  0  0  0  0
  196.9820  174.1710  137.7080 C   0  0  0  0  0  0  0  0  0  0  0  0
  183.7030  178.9770  141.4770 C   0  0  2  0  0  3  0  0  0  0  0  0
  184.6600  179.9350  143.5900 C   0  0  0  0  0  2  0  0  0  0  0  0
  185.2480  177.9180  143.1400 C   0  0  2  0  0  3  0  0  0  0  0  0
  184.9690  179.1690  142.3130 C   0  0  1  0  0  3  0  0  0  0  0  0
  184.9360  178.6920  144.4120 C   0  0  0  0  0  2  0  0  0  0  0  0
  187.4260  177.7530  142.0280 C   0  0  0  0  0  2  0  0  0  0  0  0
  186.6980  177.4980  143.1160 C   0  0  0  0  0  0  0  0  0  0  0  0
  187.3600  176.8470  144.3120 C   0  0  0  0  0  2  0  0  0  0  0  0
  190.2260  177.3220  146.2710 C   0  0  0  0  0  2  0  0  0  0  0  0
  188.1130  177.6340  147.4970 C   0  0  0  0  0  1  0  0  0  0  0  0
  188.2360  177.7530  145.0690 N   0  0  0  0  0  0  0  0  0  0  0  0
  188.7540  177.0610  146.2460 C   0  0  1  0  0  3  0  0  0  0  0  0
  189.2820  178.1290  144.2700 O   0  0  0  0  0  0  0  0  0  0  0  0
  190.3980  178.2600  145.1110 C   0  0  2  0  0  3  0  0  0  0  0  0
  191.6840  177.9700  144.3420 C   0  0  0  0  0  2  0  0  0  0  0  0
  191.4370  177.0490  143.1580 C   0  0  0  0  0  2  0  0  0  0  0  0
  191.1940  177.8700  141.9100 C   0  0  0  0  0  3  0  0  0  0  0  0
  192.2380  177.5030  140.8730 C   0  0  0  0  0  2  0  0  0  0  0  0
  190.8360  176.9380  140.7670 C   0  0  0  0  0  2  0  0  0  0  0  0
  182.6590  178.1550  142.2460 C   0  0  0  0  0  2  0  0  0  0  0  0
  180.8580  179.8480  142.8120 N   0  0  0  0  0  1  0  0  0  0  0  0
  181.2680  178.6890  142.0970 C   0  0  0  0  0  0  0  0  0  0  0  0
  180.4440  178.0840  141.3640 O   0  0  0  0  0  0  0  0  0  0  0  0
  2  1  2  0  0  0  0
  2  3  1  0  0  0  0
  3 29  1  0  0  0  0
  4  7  1  6  0  0  0
  4 11  1  0  0  0  0
  4  6  1  0  0  0  0
  5  4  1  0  0  0  0
  5  9  1  0  0  0  0
  7 10  1  0  0  0  0
  8  2  1  1  0  0  0
  9  8  1  0  0  0  0
 10 12  1  1  0  0  0
 10  6  1  0  0  0  0
 11  8  1  0  0  0  0
 13 12  1  0  0  0  0
 14 13  2  0  0  0  0
 16 15  1  1  0  0  0
 16 13  1  0  0  0  0
 17 28  2  0  0  0  0
 21 24  1  0  0  0  0
 24 18  2  0  0  0  0
 24 19  1  0  0  0  0
 25 20  1  1  0  0  0
 25 27  1  0  0  0  0
 25 21  1  0  0  0  0
 26 18  1  0  0  0  0
 26 22  2  0  0  0  0
 27 16  1  6  0  0  0
 27 26  1  0  0  0  0
 28 19  1  0  0  0  0
 28 23  1  0  0  0  0
 29 48  1  1  0  0  0
 30 33  1  0  0  0  0
 31 35  1  1  0  0  0
 31 33  1  0  0  0  0
 32 29  1  6  0  0  0
 32 31  1  0  0  0  0
 32 30  1  0  0  0  0
 34 35  2  0  0  0  0
 35 36  1  0  0  0  0
 36 39  1  0  0  0  0
 39 40  1  0  0  0  0
 40 37  1  0  0  0  0
 40 38  1  1  0  0  0
 41 39  1  0  0  0  0
 41 42  1  0  0  0  0
 42 43  1  6  0  0  0
 42 37  1  0  0  0  0
 44 43  1  0  0  0  0
 45 44  1  0  0  0  0
 46 45  1  0  0  0  0
 47 46  1  0  0  0  0
 47 45  1  0  0  0  0
 50 48  1  0  0  0  0
 50 49  1  0  0  0  0
 51 50  2  0  0  0  0
M  END
>  <MODEL>
8

>  <REMARK>
 VINA RESULT:      -6.8      3.152     10.525
  Name = 
  15 active torsions:
  status: ('A' for Active; 'I' for Inactive)
    1  A    between atoms: C_4  and  C_37
    2  A    between atoms: C_4  and  C_42
    3  A    between atoms: C_4  and  N_44
    4  A    between atoms: C_7  and  N_20
    5  A    between atoms: C_7  and  C_26
    6  A    between atoms: C_12  and  C_25
    7  A    between atoms: C_12  and  C_46
    8  A    between atoms: C_18  and  C_38
    9  A    between atoms: C_22  and  C_46
   10  A    between atoms: C_23  and  C_26
   11  A    between atoms: C_25  and  C_48
   12  A    between atoms: C_27  and  C_42
   13  A    between atoms: C_31  and  C_51
   14  A    between atoms: C_41  and  C_47
   15  A    between atoms: C_47  and  C_51
                            x       y       z     vdW  Elec       q    Type
                         _______ _______ _______ _____ _____    ______ ____

>  <TORSDO>
F 15

$$$$
=
 OpenBabel11062414543D

 51 56  0  0  1  0  0  0  0  0999 V2000
  190.1260  176.8340  136.7610 O   0  0  0  0  0  0  0  0  0  0  0  0
  189.6410  175.8890  137.4420 C   0  0  0  0  0  0  0  0  0  0  0  0
  190.1800  175.5720  138.7250 N   0  0  0  0  0  2  0  0  0  0  0  0
  186.3800  175.6200  135.9840 C   0  0  1  0  0  0  0  0  0  0  0  0
  187.2050  174.9070  135.0150 N   0  0  0  0  0  2  0  0  0  0  0  0
  185.5860  177.0840  135.2660 S   0  0  0  0  0  0  0  0  0  0  0  0
  185.1020  174.8810  136.3000 C   0  0  0  0  0  2  0  0  0  0  0  0
  188.4470  175.1380  136.9530 C   0  0  2  0  0  3  0  0  0  0  0  0
  188.5230  174.8950  135.5150 N   0  0  0  0  0  2  0  0  0  0  0  0
  184.2130  175.9900  135.7720 C   0  0  1  0  0  3  0  0  0  0  0  0
  187.1990  175.9300  137.2010 C   0  0  0  0  0  2  0  0  0  0  0  0
  183.4540  176.6230  136.9270 C   0  0  0  0  0  2  0  0  0  0  0  0
  182.0270  176.1820  136.9260 C   0  0  0  0  0  0  0  0  0  0  0  0
  181.7560  174.9970  136.7940 O   0  0  0  0  0  0  0  0  0  0  0  0
  179.7130  176.5300  137.1700 O   0  0  0  0  0  1  0  0  0  0  0  0
  180.9380  177.1970  137.1100 C   0  0  1  0  0  3  0  0  0  0  0  0
  184.8400  177.8660  142.1210 O   0  0  0  0  0  0  0  0  0  0  0  0
  183.1280  179.6910  138.7380 N   0  0  0  0  0  0  0  0  0  0  0  0
  184.6580  179.5690  140.5160 N   0  0  0  0  0  2  0  0  0  0  0  0
  180.9580  176.4310  140.1050 O   0  0  0  0  0  1  0  0  0  0  0  0
  182.5300  178.1550  140.5100 C   0  0  0  0  0  2  0  0  0  0  0  0
  181.5340  180.1060  137.1070 O   0  0  0  0  0  0  0  0  0  0  0  0
  186.4020  179.6400  142.3350 C   0  0  0  0  0  1  0  0  0  0  0  0
  183.4680  179.1260  139.8540 C   0  0  0  0  0  0  0  0  0  0  0  0
  181.8670  177.2720  139.4630 C   0  0  2  0  0  3  0  0  0  0  0  0
  181.9430  179.3350  138.0150 C   0  0  0  0  0  0  0  0  0  0  0  0
  181.1580  178.0830  138.3580 C   0  0  1  0  0  3  0  0  0  0  0  0
  185.2510  178.9680  141.6750 C   0  0  0  0  0  0  0  0  0  0  0  0
  191.2330  176.3600  139.3640 C   0  0  2  0  0  3  0  0  0  0  0  0
  189.1450  177.5830  140.0260 C   0  0  0  0  0  2  0  0  0  0  0  0
  190.2850  176.7560  141.6480 C   0  0  2  0  0  3  0  0  0  0  0  0
  190.6280  177.3990  140.3070 C   0  0  1  0  0  3  0  0  0  0  0  0
  188.8050  176.9430  141.3570 C   0  0  0  0  0  2  0  0  0  0  0  0
  190.1730  178.8040  142.9900 C   0  0  0  0  0  2  0  0  0  0  0  0
  190.7040  177.5910  142.8350 C   0  0  0  0  0  0  0  0  0  0  0  0
  191.6660  177.0650  143.8800 C   0  0  0  0  0  2  0  0  0  0  0  0
  190.5130  177.0930  147.1880 C   0  0  0  0  0  2  0  0  0  0  0  0
  192.4310  175.5960  146.8090 C   0  0  0  0  0  1  0  0  0  0  0  0
  191.0070  176.3670  144.9930 N   0  0  0  0  0  0  0  0  0  0  0  0
  191.6310  176.7590  146.2530 C   0  0  1  0  0  3  0  0  0  0  0  0
  189.6840  176.7190  145.0150 O   0  0  0  0  0  0  0  0  0  0  0  0
  189.3040  176.7480  146.3660 C   0  0  2  0  0  3  0  0  0  0  0  0
  188.1760  177.7540  146.5820 C   0  0  0  0  0  2  0  0  0  0  0  0
  187.2620  177.8440  145.3690 C   0  0  0  0  0  2  0  0  0  0  0  0
  185.8200  177.6740  145.7980 C   0  0  0  0  0  3  0  0  0  0  0  0
  185.5350  178.6290  146.9400 C   0  0  0  0  0  2  0  0  0  0  0  0
  185.0720  178.9680  145.5380 C   0  0  0  0  0  2  0  0  0  0  0  0
  192.1320  177.0290  138.3150 C   0  0  0  0  0  2  0  0  0  0  0  0
  193.2660  175.5130  136.6290 N   0  0  0  0  0  1  0  0  0  0  0  0
  193.2810  176.1670  137.8910 C   0  0  0  0  0  0  0  0  0  0  0  0
  194.2490  175.9920  138.6750 O   0  0  0  0  0  0  0  0  0  0  0  0
  1  2  2  0  0  0  0
  2  3  1  0  0  0  0
  3 29  1  0  0  0  0
  4  7  1  1  0  0  0
  4 11  1  0  0  0  0
  5  9  1  0  0  0  0
  5  4  1  0  0  0  0
  6 10  1  0  0  0  0
  6  4  1  0  0  0  0
  8 11  1  0  0  0  0
  8  2  1  6  0  0  0
  9  8  1  0  0  0  0
 10  7  1  0  0  0  0
 10 12  1  1  0  0  0
 13 12  1  0  0  0  0
 13 16  1  0  0  0  0
 14 13  2  0  0  0  0
 16 15  1  1  0  0  0
 18 24  2  0  0  0  0
 19 28  1  0  0  0  0
 22 26  2  0  0  0  0
 24 21  1  0  0  0  0
 24 19  1  0  0  0  0
 25 20  1  1  0  0  0
 25 21  1  0  0  0  0
 26 27  1  0  0  0  0
 26 18  1  0  0  0  0
 27 16  1  6  0  0  0
 27 25  1  0  0  0  0
 28 17  2  0  0  0  0
 28 23  1  0  0  0  0
 29 48  1  6  0  0  0
 30 32  1  0  0  0  0
 30 33  1  0  0  0  0
 31 35  1  1  0  0  0
 32 29  1  6  0  0  0
 32 31  1  0  0  0  0
 33 31  1  0  0  0  0
 35 34  2  0  0  0  0
 35 36  1  0  0  0  0
 36 39  1  0  0  0  0
 39 41  1  0  0  0  0
 39 40  1  0  0  0  0
 40 38  1  1  0  0  0
 40 37  1  0  0  0  0
 41 42  1  0  0  0  0
 42 43  1  6  0  0  0
 42 37  1  0  0  0  0
 44 45  1  0  0  0  0
 44 43  1  0  0  0  0
 45 46  1  0  0  0  0
 47 45  1  0  0  0  0
 47 46  1  0  0  0  0
 49 50  1  0  0  0  0
 50 48  1  0  0  0  0
 50 51  2  0  0  0  0
M  END
>  <MODEL>
9

>  <REMARK>
 VINA RESULT:      -6.6      2.538      8.461
  Name = 
  15 active torsions:
  status: ('A' for Active; 'I' for Inactive)
    1  A    between atoms: C_4  and  C_37
    2  A    between atoms: C_4  and  C_42
    3  A    between atoms: C_4  and  N_44
    4  A    between atoms: C_7  and  N_20
    5  A    between atoms: C_7  and  C_26
    6  A    between atoms: C_12  and  C_25
    7  A    between atoms: C_12  and  C_46
    8  A    between atoms: C_18  and  C_38
    9  A    between atoms: C_22  and  C_46
   10  A    between atoms: C_23  and  C_26
   11  A    between atoms: C_25  and  C_48
   12  A    between atoms: C_27  and  C_42
   13  A    between atoms: C_31  and  C_51
   14  A    between atoms: C_41  and  C_47
   15  A    between atoms: C_47  and  C_51
                            x       y       z     vdW  Elec       q    Type
                         _______ _______ _______ _____ _____    ______ ____

>  <TORSDO>
F 15

$$$$
