=
 OpenBabel11062413583D

 53 57  0  0  1  0  0  0  0  0999 V2000
  186.9260  177.6880  142.5670 C   0  0  1  0  0  3  0  0  0  0  0  0
  187.8130  178.2550  141.4560 C   0  0  0  0  0  2  0  0  0  0  0  0
  189.2100  177.6200  141.4600 C   0  0  0  0  0  2  0  0  0  0  0  0
  190.4970  176.2380  139.9850 O   0  0  0  0  0  0  0  0  0  0  0  0
  189.5700  177.0830  140.1020 C   0  0  0  0  0  0  0  0  0  0  0  0
  188.9480  177.5690  138.9430 O   0  0  0  0  0  0  0  0  0  0  0  0
  188.9360  177.0510  136.5500 C   0  0  2  0  0  3  0  0  0  0  0  0
  188.4530  178.4380  136.1140 C   0  0  0  0  0  2  0  0  0  0  0  0
  186.4010  178.1790  137.5240 C   0  0  0  0  0  2  0  0  0  0  0  0
  188.4040  176.7030  137.9480 C   0  0  2  0  0  3  0  0  0  0  0  0
  186.8750  176.7920  137.9680 C   0  0  0  0  0  2  0  0  0  0  0  0
  186.9270  178.4930  136.1260 C   0  0  0  0  0  2  0  0  0  0  0  0
  190.4570  176.9840  136.5090 C   0  0  0  0  0  2  0  0  0  0  0  0
  191.3200  174.2120  137.1130 C   0  0  1  0  0  3  0  0  0  0  0  0
  193.7730  173.9200  136.4500 C   0  0  0  0  0  2  0  0  0  0  0  0
  191.0200  175.4130  135.7830 P   0  0  1  0  0  0  0  0  0  0  0  0
  190.1480  173.5080  137.3980 O   0  0  0  0  0  1  0  0  0  0  0  0
  189.9860  174.8860  134.8120 O   0  0  0  0  0  0  0  0  0  0  0  0
  192.4050  173.2420  136.6600 C   0  0  0  0  0  2  0  0  0  0  0  0
  193.7180  175.3720  135.9500 C   0  0  0  0  0  2  0  0  0  0  0  0
  192.6110  175.5950  134.9350 C   0  0  0  0  0  2  0  0  0  0  0  0
  187.7600  176.9750  143.6330 C   0  0  0  0  0  2  0  0  0  0  0  0
  187.9440  177.8140  144.7350 O   0  0  0  0  0  0  0  0  0  0  0  0
  189.2540  177.5690  145.1550 C   0  0  0  0  0  2  0  0  0  0  0  0
  189.2610  177.1180  146.6110 C   0  0  0  0  0  2  0  0  0  0  0  0
  187.8880  177.2920  147.2540 C   0  0  0  0  0  2  0  0  0  0  0  0
  189.3350  178.3530  148.8060 O   0  0  0  0  0  1  0  0  0  0  0  0
  187.9930  178.1540  148.4960 C   0  0  0  0  0  2  0  0  0  0  0  0
  186.1630  178.7000  143.1660 O   0  0  0  0  0  0  0  0  0  0  0  0
  182.4650  178.9470  143.3380 C   0  0  0  0  0  3  0  0  0  0  0  0
  180.7610  178.3740  141.8370 O   0  0  0  0  0  1  0  0  0  0  0  0
  184.5590  178.7440  141.3970 C   0  0  0  0  0  2  0  0  0  0  0  0
  183.1200  178.3840  140.9850 C   0  0  2  0  0  0  0  0  0  0  0  0
  183.8870  179.2340  143.7120 C   0  0  0  0  0  2  0  0  0  0  0  0
  184.8330  178.3990  142.8550 C   0  0  2  0  0  3  0  0  0  0  0  0
  182.1090  178.5990  142.0970 C   0  0  0  0  0  0  0  0  0  0  0  0
  183.0860  177.0390  140.6110 O   0  0  0  0  0  1  0  0  0  0  0  0
  182.7070  179.2540  139.7980 C   0  0  0  0  0  2  0  0  0  0  0  0
  182.0160  179.0740  137.3250 C   0  0  2  0  0  3  0  0  0  0  0  0
  182.9500  178.5880  138.4400 C   0  0  2  0  0  3  0  0  0  0  0  0
  180.9660  180.0970  137.7460 C   0  0  0  0  0  1  0  0  0  0  0  0
  181.7470  177.7620  138.0370 C   0  0  2  0  0  3  0  0  0  0  0  0
  181.3430  175.0000  138.5800 O   0  0  0  0  0  0  0  0  0  0  0  0
  181.8390  175.3110  137.4630 C   0  0  0  0  0  0  0  0  0  0  0  0
  182.1730  176.6710  137.1770 N   0  0  0  0  0  2  0  0  0  0  0  0
  182.0510  174.2930  136.4800 N   0  0  0  0  0  2  0  0  0  0  0  0
  182.5640  174.5770  135.1510 C   0  0  0  0  0  2  0  0  0  0  0  0
  186.4140  174.7180  134.9930 C   0  0  0  0  0  2  0  0  0  0  0  0
  184.9870  175.2330  135.1430 C   0  0  0  0  0  2  0  0  0  0  0  0
  185.7080  172.5100  135.9520 C   0  0  0  0  0  2  0  0  0  0  0  0
  184.2810  173.0360  136.0890 C   0  0  0  0  0  2  0  0  0  0  0  0
  183.9960  174.0790  135.0130 C   0  0  0  0  0  3  0  0  0  0  0  0
  186.7070  173.6630  136.0590 C   0  0  0  0  0  2  0  0  0  0  0  0
  1  2  1  6  0  0  0
  1 29  1  0  0  0  0
  1 22  1  0  0  0  0
  2  3  1  0  0  0  0
  4  5  2  0  0  0  0
  5  3  1  0  0  0  0
  6  5  1  0  0  0  0
  7 13  1  1  0  0  0
  7 10  1  0  0  0  0
  8 12  1  0  0  0  0
  8  7  1  0  0  0  0
  9 11  1  0  0  0  0
 10 11  1  0  0  0  0
 10  6  1  1  0  0  0
 12  9  1  0  0  0  0
 14 17  1  6  0  0  0
 15 19  1  0  0  0  0
 16 18  2  6  0  0  0
 16 13  1  0  0  0  0
 16 14  1  0  0  0  0
 19 14  1  0  0  0  0
 20 15  1  0  0  0  0
 21 16  1  0  0  0  0
 21 20  1  0  0  0  0
 22 23  1  0  0  0  0
 23 24  1  0  0  0  0
 24 25  1  0  0  0  0
 25 26  1  0  0  0  0
 26 28  1  0  0  0  0
 28 27  1  0  0  0  0
 30 34  1  0  0  0  0
 31 36  1  0  0  0  0
 32 35  1  0  0  0  0
 33 37  1  6  0  0  0
 33 32  1  0  0  0  0
 33 36  1  0  0  0  0
 35 29  1  1  0  0  0
 35 34  1  0  0  0  0
 36 30  2  0  0  0  0
 38 33  1  0  0  0  0
 39 41  1  1  0  0  0
 39 42  1  0  0  0  0
 39 40  1  0  0  0  0
 40 38  1  1  0  0  0
 42 45  1  6  0  0  0
 42 40  1  0  0  0  0
 44 43  2  0  0  0  0
 45 44  1  0  0  0  0
 46 44  1  0  0  0  0
 47 46  1  0  0  0  0
 48 49  1  0  0  0  0
 48 53  1  0  0  0  0
 50 53  1  0  0  0  0
 50 51  1  0  0  0  0
 52 49  1  0  0  0  0
 52 47  1  0  0  0  0
 52 51  1  0  0  0  0
M  END
>  <MODEL>
1

>  <REMARK>
 VINA RESULT:      -6.5      0.000      0.000
  Name = 
  20 active torsions:
  status: ('A' for Active; 'I' for Inactive)
    1  A    between atoms: C_1  and  C_49
    2  A    between atoms: C_1  and  C_51
    3  A    between atoms: O_2  and  C_27
    4  A    between atoms: O_2  and  C_50
    5  A    between atoms: C_5  and  P_12
    6  A    between atoms: C_5  and  C_28
    7  A    between atoms: O_8  and  C_29
    8  A    between atoms: O_8  and  C_35
    9  A    between atoms: C_14  and  N_39
   10  A    between atoms: C_14  and  C_44
   11  A    between atoms: N_21  and  C_41
   12  A    between atoms: C_23  and  C_48
   13  A    between atoms: O_24  and  C_30
   14  A    between atoms: O_24  and  C_45
   15  A    between atoms: C_27  and  C_43
   16  A    between atoms: C_30  and  C_35
   17  A    between atoms: C_34  and  C_35
   18  A    between atoms: C_34  and  C_43
   19  A    between atoms: C_38  and  C_48
   20  A    between atoms: C_45  and  C_51
                            x       y       z     vdW  Elec       q    Type
                         _______ _______ _______ _____ _____    ______ ____

>  <TORSDO>
F 20

$$$$
=
 OpenBabel11062413583D

 53 57  0  0  1  0  0  0  0  0999 V2000
  189.8560  176.9000  139.4150 C   0  0  1  0  0  3  0  0  0  0  0  0
  189.1450  177.1330  138.0800 C   0  0  0  0  0  2  0  0  0  0  0  0
  187.7380  177.7130  138.2750 C   0  0  0  0  0  2  0  0  0  0  0  0
  186.3130  177.9060  136.3580 O   0  0  0  0  0  0  0  0  0  0  0  0
  186.7740  177.1590  137.2620 C   0  0  0  0  0  0  0  0  0  0  0  0
  186.3060  175.8400  137.3530 O   0  0  0  0  0  0  0  0  0  0  0  0
  184.4090  174.3700  136.8690 C   0  0  2  0  0  3  0  0  0  0  0  0
  184.9540  173.1800  137.6670 C   0  0  0  0  0  2  0  0  0  0  0  0
  187.0210  173.1650  136.2560 C   0  0  0  0  0  2  0  0  0  0  0  0
  185.5580  175.2210  136.3080 C   0  0  2  0  0  3  0  0  0  0  0  0
  186.4880  174.3550  135.4520 C   0  0  0  0  0  2  0  0  0  0  0  0
  185.8620  172.3260  136.7860 C   0  0  0  0  0  2  0  0  0  0  0  0
  183.4790  175.2060  137.7360 C   0  0  0  0  0  2  0  0  0  0  0  0
  180.6780  174.7700  138.6070 C   0  0  1  0  0  3  0  0  0  0  0  0
  179.8310  172.5470  137.6680 C   0  0  0  0  0  2  0  0  0  0  0  0
  181.7550  175.0580  137.1720 P   0  0  1  0  0  0  0  0  0  0  0  0
  180.2580  175.9890  139.1440 O   0  0  0  0  0  1  0  0  0  0  0  0
  181.3370  176.3100  136.4340 O   0  0  0  0  0  0  0  0  0  0  0  0
  179.4670  173.9630  138.1550 C   0  0  0  0  0  2  0  0  0  0  0  0
  181.1970  172.4190  136.9790 C   0  0  0  0  0  2  0  0  0  0  0  0
  181.5190  173.6150  136.1010 C   0  0  0  0  0  2  0  0  0  0  0  0
  191.3140  176.4870  139.2010 C   0  0  0  0  0  2  0  0  0  0  0  0
  191.3720  175.1940  138.6750 O   0  0  0  0  0  0  0  0  0  0  0  0
  192.2220  175.2980  137.5710 C   0  0  0  0  0  2  0  0  0  0  0  0
  193.6400  175.6150  138.0310 C   0  0  0  0  0  2  0  0  0  0  0  0
  194.5920  174.4600  137.7340 C   0  0  0  0  0  2  0  0  0  0  0  0
  195.5780  175.3150  139.7160 O   0  0  0  0  0  1  0  0  0  0  0  0
  195.4550  174.1620  138.9440 C   0  0  0  0  0  2  0  0  0  0  0  0
  189.8060  178.0480  140.2180 O   0  0  0  0  0  0  0  0  0  0  0  0
  190.1480  178.0050  143.9120 C   0  0  0  0  0  3  0  0  0  0  0  0
  188.8780  177.0190  145.6160 O   0  0  0  0  0  1  0  0  0  0  0  0
  188.1550  177.6260  141.8930 C   0  0  0  0  0  2  0  0  0  0  0  0
  187.9010  177.0740  143.3070 C   0  0  2  0  0  0  0  0  0  0  0  0
  190.3790  178.4760  142.5100 C   0  0  0  0  0  2  0  0  0  0  0  0
  189.6340  177.5810  141.5260 C   0  0  2  0  0  3  0  0  0  0  0  0
  189.0130  177.4030  144.2860 C   0  0  0  0  0  0  0  0  0  0  0  0
  187.7790  175.6850  143.2290 O   0  0  0  0  0  1  0  0  0  0  0  0
  186.6020  177.6700  143.8510 C   0  0  0  0  0  2  0  0  0  0  0  0
  184.7420  179.4120  143.4960 C   0  0  2  0  0  3  0  0  0  0  0  0
  185.9450  178.6730  142.8990 C   0  0  2  0  0  3  0  0  0  0  0  0
  184.3560  179.0020  144.9140 C   0  0  0  0  0  1  0  0  0  0  0  0
  184.5360  178.2340  142.5640 C   0  0  2  0  0  3  0  0  0  0  0  0
  183.1180  176.7630  140.5850 O   0  0  0  0  0  0  0  0  0  0  0  0
  183.3610  177.9790  140.3500 C   0  0  0  0  0  0  0  0  0  0  0  0
  184.1680  178.7390  141.2510 N   0  0  0  0  0  2  0  0  0  0  0  0
  182.8090  178.5930  139.1810 N   0  0  0  0  0  2  0  0  0  0  0  0
  182.9950  179.9990  138.8690 C   0  0  0  0  0  2  0  0  0  0  0  0
  179.2890  180.4460  137.9040 C   0  0  0  0  0  2  0  0  0  0  0  0
  180.4970  179.8890  138.6470 C   0  0  0  0  0  2  0  0  0  0  0  0
  180.4850  182.6330  137.6200 C   0  0  0  0  0  2  0  0  0  0  0  0
  181.6910  182.0590  138.3600 C   0  0  0  0  0  2  0  0  0  0  0  0
  181.7760  180.5520  138.1430 C   0  0  0  0  0  3  0  0  0  0  0  0
  179.2010  181.9590  138.1040 C   0  0  0  0  0  2  0  0  0  0  0  0
  1  2  1  6  0  0  0
  1 29  1  0  0  0  0
  2  3  1  0  0  0  0
  4  5  2  0  0  0  0
  5  6  1  0  0  0  0
  5  3  1  0  0  0  0
  7  8  1  0  0  0  0
  7 13  1  1  0  0  0
  9 12  1  0  0  0  0
 10  7  1  0  0  0  0
 10  6  1  1  0  0  0
 11  9  1  0  0  0  0
 11 10  1  0  0  0  0
 12  8  1  0  0  0  0
 14 17  1  6  0  0  0
 15 19  1  0  0  0  0
 16 18  2  6  0  0  0
 16 13  1  0  0  0  0
 16 14  1  0  0  0  0
 19 14  1  0  0  0  0
 20 15  1  0  0  0  0
 21 20  1  0  0  0  0
 21 16  1  0  0  0  0
 22  1  1  0  0  0  0
 23 22  1  0  0  0  0
 24 25  1  0  0  0  0
 24 23  1  0  0  0  0
 26 25  1  0  0  0  0
 26 28  1  0  0  0  0
 28 27  1  0  0  0  0
 30 36  2  0  0  0  0
 32 33  1  0  0  0  0
 33 37  1  6  0  0  0
 33 38  1  0  0  0  0
 33 36  1  0  0  0  0
 34 30  1  0  0  0  0
 35 29  1  6  0  0  0
 35 32  1  0  0  0  0
 35 34  1  0  0  0  0
 36 31  1  0  0  0  0
 39 41  1  1  0  0  0
 40 39  1  0  0  0  0
 40 38  1  1  0  0  0
 42 45  1  6  0  0  0
 42 40  1  0  0  0  0
 42 39  1  0  0  0  0
 44 43  2  0  0  0  0
 44 45  1  0  0  0  0
 46 44  1  0  0  0  0
 47 46  1  0  0  0  0
 48 53  1  0  0  0  0
 48 49  1  0  0  0  0
 50 53  1  0  0  0  0
 50 51  1  0  0  0  0
 52 51  1  0  0  0  0
 52 49  1  0  0  0  0
 52 47  1  0  0  0  0
M  END
>  <MODEL>
2

>  <REMARK>
 VINA RESULT:      -6.4      2.423      7.906
  Name = 
  20 active torsions:
  status: ('A' for Active; 'I' for Inactive)
    1  A    between atoms: C_1  and  C_49
    2  A    between atoms: C_1  and  C_51
    3  A    between atoms: O_2  and  C_27
    4  A    between atoms: O_2  and  C_50
    5  A    between atoms: C_5  and  P_12
    6  A    between atoms: C_5  and  C_28
    7  A    between atoms: O_8  and  C_29
    8  A    between atoms: O_8  and  C_35
    9  A    between atoms: C_14  and  N_39
   10  A    between atoms: C_14  and  C_44
   11  A    between atoms: N_21  and  C_41
   12  A    between atoms: C_23  and  C_48
   13  A    between atoms: O_24  and  C_30
   14  A    between atoms: O_24  and  C_45
   15  A    between atoms: C_27  and  C_43
   16  A    between atoms: C_30  and  C_35
   17  A    between atoms: C_34  and  C_35
   18  A    between atoms: C_34  and  C_43
   19  A    between atoms: C_38  and  C_48
   20  A    between atoms: C_45  and  C_51
                            x       y       z     vdW  Elec       q    Type
                         _______ _______ _______ _____ _____    ______ ____

>  <TORSDO>
F 20

$$$$
=
 OpenBabel11062413583D

 53 57  0  0  1  0  0  0  0  0999 V2000
  190.3870  176.9100  141.8000 C   0  0  1  0  0  3  0  0  0  0  0  0
  190.9420  177.1390  140.3920 C   0  0  0  0  0  2  0  0  0  0  0  0
  189.8240  177.3280  139.3600 C   0  0  0  0  0  2  0  0  0  0  0  0
  189.7290  177.7700  137.0070 O   0  0  0  0  0  0  0  0  0  0  0  0
  190.3540  177.2240  137.9560 C   0  0  0  0  0  0  0  0  0  0  0  0
  191.4900  176.4570  137.6650 O   0  0  0  0  0  0  0  0  0  0  0  0
  192.8000  174.4270  137.2640 C   0  0  2  0  0  3  0  0  0  0  0  0
  192.7940  174.5620  135.7380 C   0  0  0  0  0  2  0  0  0  0  0  0
  190.2910  174.5330  135.7320 C   0  0  0  0  0  2  0  0  0  0  0  0
  191.5310  175.0460  137.8710 C   0  0  2  0  0  3  0  0  0  0  0  0
  190.2840  174.3990  137.2580 C   0  0  0  0  0  2  0  0  0  0  0  0
  191.5510  173.8950  135.1540 C   0  0  0  0  0  2  0  0  0  0  0  0
  194.0530  175.0650  137.8470 C   0  0  0  0  0  2  0  0  0  0  0  0
  196.9650  174.7180  138.2900 C   0  0  1  0  0  3  0  0  0  0  0  0
  198.0430  173.7770  136.1700 C   0  0  0  0  0  2  0  0  0  0  0  0
  195.4010  173.8480  137.9770 P   0  0  1  0  0  0  0  0  0  0  0  0
  197.1570  174.8810  139.6640 O   0  0  0  0  0  1  0  0  0  0  0  0
  195.1080  172.8620  139.0860 O   0  0  0  0  0  0  0  0  0  0  0  0
  198.1070  173.8950  137.7060 C   0  0  0  0  0  2  0  0  0  0  0  0
  196.6300  173.7480  135.5700 C   0  0  0  0  0  2  0  0  0  0  0  0
  195.6540  172.9540  136.4210 C   0  0  0  0  0  2  0  0  0  0  0  0
  191.4680  176.3730  142.7420 C   0  0  0  0  0  2  0  0  0  0  0  0
  191.0630  175.1520  143.2860 O   0  0  0  0  0  0  0  0  0  0  0  0
  192.0130  174.8700  144.2710 C   0  0  0  0  0  2  0  0  0  0  0  0
  191.9830  175.9460  145.3500 C   0  0  0  0  0  2  0  0  0  0  0  0
  192.3920  175.3820  146.7080 C   0  0  0  0  0  2  0  0  0  0  0  0
  191.9220  177.2790  148.0540 O   0  0  0  0  0  1  0  0  0  0  0  0
  191.5250  175.9680  147.8050 C   0  0  0  0  0  2  0  0  0  0  0  0
  189.8500  178.0920  142.3280 O   0  0  0  0  0  0  0  0  0  0  0  0
  189.1710  178.1440  145.9750 C   0  0  0  0  0  3  0  0  0  0  0  0
  187.3260  177.4860  147.2590 O   0  0  0  0  0  1  0  0  0  0  0  0
  187.7610  178.0560  143.4860 C   0  0  0  0  0  2  0  0  0  0  0  0
  187.0350  177.6220  144.7720 C   0  0  2  0  0  0  0  0  0  0  0  0
  189.8560  178.5040  144.6930 C   0  0  0  0  0  2  0  0  0  0  0  0
  189.2460  177.7220  143.5340 C   0  0  2  0  0  3  0  0  0  0  0  0
  187.8850  177.7800  146.0200 C   0  0  0  0  0  0  0  0  0  0  0  0
  186.6760  176.2780  144.6510 O   0  0  0  0  0  1  0  0  0  0  0  0
  185.7760  178.4720  144.9480 C   0  0  0  0  0  2  0  0  0  0  0  0
  183.7470  179.3940  143.6620 C   0  0  2  0  0  3  0  0  0  0  0  0
  185.2400  179.0480  143.6340 C   0  0  2  0  0  3  0  0  0  0  0  0
  183.0200  179.0670  144.9620 C   0  0  0  0  0  1  0  0  0  0  0  0
  184.2260  178.1050  143.0220 C   0  0  2  0  0  3  0  0  0  0  0  0
  181.9010  178.5370  141.4420 O   0  0  0  0  0  0  0  0  0  0  0  0
  183.0220  178.5940  140.8640 C   0  0  0  0  0  0  0  0  0  0  0  0
  184.2170  178.2720  141.5780 N   0  0  0  0  0  2  0  0  0  0  0  0
  183.0850  178.9970  139.4920 N   0  0  0  0  0  2  0  0  0  0  0  0
  184.3380  179.1430  138.7730 C   0  0  0  0  0  2  0  0  0  0  0  0
  184.0900  176.1130  136.4020 C   0  0  0  0  0  2  0  0  0  0  0  0
  183.6910  177.4300  137.0550 C   0  0  0  0  0  2  0  0  0  0  0  0
  186.5070  176.6670  136.7810 C   0  0  0  0  0  2  0  0  0  0  0  0
  186.0920  177.9810  137.4410 C   0  0  0  0  0  2  0  0  0  0  0  0
  184.7260  177.8320  138.1030 C   0  0  0  0  0  3  0  0  0  0  0  0
  185.4640  176.2460  135.7460 C   0  0  0  0  0  2  0  0  0  0  0  0
  1  2  1  6  0  0  0
  1 29  1  0  0  0  0
  1 22  1  0  0  0  0
  3  2  1  0  0  0  0
  4  5  2  0  0  0  0
  5  3  1  0  0  0  0
  6  5  1  0  0  0  0
  7 13  1  1  0  0  0
  7 10  1  0  0  0  0
  8  7  1  0  0  0  0
  9 11  1  0  0  0  0
 10  6  1  6  0  0  0
 11 10  1  0  0  0  0
 12  9  1  0  0  0  0
 12  8  1  0  0  0  0
 13 16  1  0  0  0  0
 14 17  1  1  0  0  0
 15 19  1  0  0  0  0
 16 14  1  0  0  0  0
 16 18  2  1  0  0  0
 19 14  1  0  0  0  0
 20 15  1  0  0  0  0
 20 21  1  0  0  0  0
 21 16  1  0  0  0  0
 22 23  1  0  0  0  0
 23 24  1  0  0  0  0
 24 25  1  0  0  0  0
 25 26  1  0  0  0  0
 26 28  1  0  0  0  0
 28 27  1  0  0  0  0
 30 36  2  0  0  0  0
 32 35  1  0  0  0  0
 32 33  1  0  0  0  0
 33 37  1  6  0  0  0
 33 38  1  0  0  0  0
 33 36  1  0  0  0  0
 34 30  1  0  0  0  0
 35 29  1  6  0  0  0
 35 34  1  0  0  0  0
 36 31  1  0  0  0  0
 39 41  1  1  0  0  0
 40 39  1  0  0  0  0
 40 38  1  1  0  0  0
 42 45  1  6  0  0  0
 42 40  1  0  0  0  0
 42 39  1  0  0  0  0
 44 43  2  0  0  0  0
 44 45  1  0  0  0  0
 46 44  1  0  0  0  0
 47 46  1  0  0  0  0
 48 49  1  0  0  0  0
 49 52  1  0  0  0  0
 50 51  1  0  0  0  0
 51 52  1  0  0  0  0
 52 47  1  0  0  0  0
 53 48  1  0  0  0  0
 53 50  1  0  0  0  0
M  END
>  <MODEL>
3

>  <REMARK>
 VINA RESULT:      -6.2      2.645      5.061
  Name = 
  20 active torsions:
  status: ('A' for Active; 'I' for Inactive)
    1  A    between atoms: C_1  and  C_49
    2  A    between atoms: C_1  and  C_51
    3  A    between atoms: O_2  and  C_27
    4  A    between atoms: O_2  and  C_50
    5  A    between atoms: C_5  and  P_12
    6  A    between atoms: C_5  and  C_28
    7  A    between atoms: O_8  and  C_29
    8  A    between atoms: O_8  and  C_35
    9  A    between atoms: C_14  and  N_39
   10  A    between atoms: C_14  and  C_44
   11  A    between atoms: N_21  and  C_41
   12  A    between atoms: C_23  and  C_48
   13  A    between atoms: O_24  and  C_30
   14  A    between atoms: O_24  and  C_45
   15  A    between atoms: C_27  and  C_43
   16  A    between atoms: C_30  and  C_35
   17  A    between atoms: C_34  and  C_35
   18  A    between atoms: C_34  and  C_43
   19  A    between atoms: C_38  and  C_48
   20  A    between atoms: C_45  and  C_51
                            x       y       z     vdW  Elec       q    Type
                         _______ _______ _______ _____ _____    ______ ____

>  <TORSDO>
F 20

$$$$
=
 OpenBabel11062413583D

 53 57  0  0  1  0  0  0  0  0999 V2000
  181.5200  178.6380  139.6520 C   0  0  1  0  0  3  0  0  0  0  0  0
  182.3370  179.2690  140.7810 C   0  0  0  0  0  2  0  0  0  0  0  0
  183.4220  178.3180  141.3030 C   0  0  0  0  0  2  0  0  0  0  0  0
  182.4910  178.7630  143.4650 O   0  0  0  0  0  0  0  0  0  0  0  0
  183.4660  178.3120  142.8060 C   0  0  0  0  0  0  0  0  0  0  0  0
  184.6110  177.8910  143.4960 O   0  0  0  0  0  0  0  0  0  0  0  0
  186.7910  178.0840  144.5940 C   0  0  2  0  0  3  0  0  0  0  0  0
  186.4100  177.2220  145.8030 C   0  0  0  0  0  2  0  0  0  0  0  0
  184.5270  178.7820  146.3370 C   0  0  0  0  0  2  0  0  0  0  0  0
  185.5600  178.8110  144.0340 C   0  0  2  0  0  3  0  0  0  0  0  0
  184.8980  179.6510  145.1310 C   0  0  0  0  0  2  0  0  0  0  0  0
  185.7700  178.0860  146.8860 C   0  0  0  0  0  2  0  0  0  0  0  0
  187.4580  177.2300  143.5250 C   0  0  0  0  0  2  0  0  0  0  0  0
  190.1680  176.0580  143.2410 C   0  0  1  0  0  3  0  0  0  0  0  0
  191.5210  176.5200  145.3620 C   0  0  0  0  0  2  0  0  0  0  0  0
  189.2340  177.6090  143.4040 P   0  0  1  0  0  0  0  0  0  0  0  0
  190.2860  175.7080  141.8950 O   0  0  0  0  0  1  0  0  0  0  0  0
  189.4940  178.5150  142.2210 O   0  0  0  0  0  0  0  0  0  0  0  0
  191.5530  176.2580  143.8440 C   0  0  0  0  0  2  0  0  0  0  0  0
  190.2940  177.2920  145.8710 C   0  0  0  0  0  2  0  0  0  0  0  0
  189.8610  178.3890  144.9150 C   0  0  0  0  0  2  0  0  0  0  0  0
  180.4240  179.5870  139.1630 C   0  0  0  0  0  2  0  0  0  0  0  0
  180.9970  180.7440  138.6300 O   0  0  0  0  0  0  0  0  0  0  0  0
  180.0050  181.2860  137.8090 C   0  0  0  0  0  2  0  0  0  0  0  0
  180.1240  182.8060  137.7790 C   0  0  0  0  0  2  0  0  0  0  0  0
  180.6340  183.2960  136.4270 C   0  0  0  0  0  2  0  0  0  0  0  0
  182.2580  184.6560  137.4960 O   0  0  0  0  0  1  0  0  0  0  0  0
  181.2290  184.6840  136.5590 C   0  0  0  0  0  2  0  0  0  0  0  0
  182.3430  178.2770  138.5750 O   0  0  0  0  0  0  0  0  0  0  0  0
  181.0510  176.5970  135.5300 C   0  0  0  0  0  3  0  0  0  0  0  0
  180.1240  174.4790  135.1530 O   0  0  0  0  0  1  0  0  0  0  0  0
  182.0590  175.9480  138.1290 C   0  0  0  0  0  2  0  0  0  0  0  0
  181.2330  174.8990  137.3640 C   0  0  2  0  0  0  0  0  0  0  0  0
  181.8110  177.6090  136.3320 C   0  0  0  0  0  2  0  0  0  0  0  0
  181.5950  177.3660  137.8220 C   0  0  2  0  0  3  0  0  0  0  0  0
  180.8200  175.3590  135.9770 C   0  0  0  0  0  0  0  0  0  0  0  0
  180.0780  174.6160  138.0970 O   0  0  0  0  0  1  0  0  0  0  0  0
  182.0630  173.6240  137.2090 C   0  0  0  0  0  2  0  0  0  0  0  0
  184.2190  172.5810  136.2690 C   0  0  2  0  0  3  0  0  0  0  0  0
  183.4390  173.8630  136.5810 C   0  0  2  0  0  3  0  0  0  0  0  0
  183.5350  171.2790  136.6740 C   0  0  0  0  0  1  0  0  0  0  0  0
  184.5320  173.3870  137.5150 C   0  0  2  0  0  3  0  0  0  0  0  0
  187.1550  172.3000  137.3600 O   0  0  0  0  0  0  0  0  0  0  0  0
  187.0130  173.5280  137.1040 C   0  0  0  0  0  0  0  0  0  0  0  0
  185.7420  174.1570  137.2780 N   0  0  0  0  0  2  0  0  0  0  0  0
  188.1330  174.2810  136.6270 N   0  0  0  0  0  2  0  0  0  0  0  0
  188.0390  175.6820  136.2580 C   0  0  0  0  0  2  0  0  0  0  0  0
  190.0640  177.5960  138.9220 C   0  0  0  0  0  2  0  0  0  0  0  0
  188.9090  176.7960  138.3320 C   0  0  0  0  0  2  0  0  0  0  0  0
  191.6460  176.4590  137.3420 C   0  0  0  0  0  2  0  0  0  0  0  0
  190.4780  175.6700  136.7550 C   0  0  0  0  0  2  0  0  0  0  0  0
  189.1880  176.4740  136.8660 C   0  0  0  0  0  3  0  0  0  0  0  0
  191.3660  176.8050  138.8050 C   0  0  0  0  0  2  0  0  0  0  0  0
  1 22  1  6  0  0  0
  1  2  1  0  0  0  0
  2  3  1  0  0  0  0
  3  5  1  0  0  0  0
  5  4  2  0  0  0  0
  5  6  1  0  0  0  0
  7 13  1  6  0  0  0
  7  8  1  0  0  0  0
  8 12  1  0  0  0  0
  9 12  1  0  0  0  0
 10  6  1  1  0  0  0
 10  7  1  0  0  0  0
 10 11  1  0  0  0  0
 11  9  1  0  0  0  0
 14 17  1  6  0  0  0
 14 16  1  0  0  0  0
 14 19  1  0  0  0  0
 15 20  1  0  0  0  0
 16 18  2  6  0  0  0
 16 13  1  0  0  0  0
 16 21  1  0  0  0  0
 19 15  1  0  0  0  0
 21 20  1  0  0  0  0
 23 22  1  0  0  0  0
 24 23  1  0  0  0  0
 25 24  1  0  0  0  0
 26 28  1  0  0  0  0
 26 25  1  0  0  0  0
 28 27  1  0  0  0  0
 29  1  1  0  0  0  0
 30 36  2  0  0  0  0
 30 34  1  0  0  0  0
 31 36  1  0  0  0  0
 33 37  1  1  0  0  0
 33 32  1  0  0  0  0
 34 35  1  0  0  0  0
 35 32  1  0  0  0  0
 35 29  1  1  0  0  0
 36 33  1  0  0  0  0
 38 33  1  0  0  0  0
 39 40  1  0  0  0  0
 39 41  1  1  0  0  0
 39 42  1  0  0  0  0
 40 38  1  1  0  0  0
 40 42  1  0  0  0  0
 42 45  1  6  0  0  0
 44 45  1  0  0  0  0
 44 43  2  0  0  0  0
 46 44  1  0  0  0  0
 47 46  1  0  0  0  0
 47 52  1  0  0  0  0
 49 48  1  0  0  0  0
 50 53  1  0  0  0  0
 51 52  1  0  0  0  0
 51 50  1  0  0  0  0
 52 49  1  0  0  0  0
 53 48  1  0  0  0  0
M  END
>  <MODEL>
4

>  <REMARK>
 VINA RESULT:      -6.2      2.717      8.224
  Name = 
  20 active torsions:
  status: ('A' for Active; 'I' for Inactive)
    1  A    between atoms: C_1  and  C_49
    2  A    between atoms: C_1  and  C_51
    3  A    between atoms: O_2  and  C_27
    4  A    between atoms: O_2  and  C_50
    5  A    between atoms: C_5  and  P_12
    6  A    between atoms: C_5  and  C_28
    7  A    between atoms: O_8  and  C_29
    8  A    between atoms: O_8  and  C_35
    9  A    between atoms: C_14  and  N_39
   10  A    between atoms: C_14  and  C_44
   11  A    between atoms: N_21  and  C_41
   12  A    between atoms: C_23  and  C_48
   13  A    between atoms: O_24  and  C_30
   14  A    between atoms: O_24  and  C_45
   15  A    between atoms: C_27  and  C_43
   16  A    between atoms: C_30  and  C_35
   17  A    between atoms: C_34  and  C_35
   18  A    between atoms: C_34  and  C_43
   19  A    between atoms: C_38  and  C_48
   20  A    between atoms: C_45  and  C_51
                            x       y       z     vdW  Elec       q    Type
                         _______ _______ _______ _____ _____    ______ ____

>  <TORSDO>
F 20

$$$$
=
 OpenBabel11062413583D

 53 57  0  0  1  0  0  0  0  0999 V2000
  184.8000  177.4000  137.7920 C   0  0  1  0  0  3  0  0  0  0  0  0
  183.6360  178.2520  138.3020 C   0  0  0  0  0  2  0  0  0  0  0  0
  182.2880  177.5390  138.1320 C   0  0  0  0  0  2  0  0  0  0  0  0
  182.1300  175.6760  139.6300 O   0  0  0  0  0  0  0  0  0  0  0  0
  181.8500  176.8860  139.4140 C   0  0  0  0  0  0  0  0  0  0  0  0
  181.0580  177.5740  140.3430 O   0  0  0  0  0  0  0  0  0  0  0  0
  182.0740  178.9500  142.0950 C   0  0  2  0  0  3  0  0  0  0  0  0
  181.1730  178.4260  143.2180 C   0  0  0  0  0  2  0  0  0  0  0  0
  179.1460  179.1850  141.9620 C   0  0  0  0  0  2  0  0  0  0  0  0
  181.3410  178.9130  140.7460 C   0  0  2  0  0  3  0  0  0  0  0  0
  180.0370  179.7120  140.8320 C   0  0  0  0  0  2  0  0  0  0  0  0
  179.8900  179.2500  143.2920 C   0  0  0  0  0  2  0  0  0  0  0  0
  183.3680  178.1490  142.0390 C   0  0  0  0  0  2  0  0  0  0  0  0
  185.6990  177.6650  143.8080 C   0  0  1  0  0  3  0  0  0  0  0  0
  185.1690  178.5080  146.1640 C   0  0  0  0  0  2  0  0  0  0  0  0
  184.6690  178.9460  143.0310 P   0  0  1  0  0  0  0  0  0  0  0  0
  186.7480  177.3120  142.9570 O   0  0  0  0  0  1  0  0  0  0  0  0
  185.5110  179.8500  142.1590 O   0  0  0  0  0  0  0  0  0  0  0  0
  186.2590  178.2140  145.1140 C   0  0  0  0  0  2  0  0  0  0  0  0
  183.8190  178.9730  145.5980 C   0  0  0  0  0  2  0  0  0  0  0  0
  183.9770  179.9010  144.4070 C   0  0  0  0  0  2  0  0  0  0  0  0
  184.6240  177.0480  136.3130 C   0  0  0  0  0  2  0  0  0  0  0  0
  184.6170  175.6610  136.1510 O   0  0  0  0  0  0  0  0  0  0  0  0
  184.5700  175.1500  137.4500 C   0  0  0  0  0  2  0  0  0  0  0  0
  185.0000  173.6880  137.4540 C   0  0  0  0  0  2  0  0  0  0  0  0
  184.4880  172.9550  136.2170 C   0  0  0  0  0  2  0  0  0  0  0  0
  183.7790  170.7110  136.5200 O   0  0  0  0  0  1  0  0  0  0  0  0
  183.3440  172.0320  136.5860 C   0  0  0  0  0  2  0  0  0  0  0  0
  186.0240  178.0600  137.9740 O   0  0  0  0  0  0  0  0  0  0  0  0
  188.6160  177.9960  135.3220 C   0  0  0  0  0  3  0  0  0  0  0  0
  190.1080  176.3430  134.5940 O   0  0  0  0  0  1  0  0  0  0  0  0
  187.9250  176.6320  137.7410 C   0  0  0  0  0  2  0  0  0  0  0  0
  188.8790  175.9500  136.7440 C   0  0  2  0  0  0  0  0  0  0  0  0
  187.6480  178.6000  136.2920 C   0  0  0  0  0  2  0  0  0  0  0  0
  186.8930  177.5010  137.0320 C   0  0  2  0  0  3  0  0  0  0  0  0
  189.2040  176.8150  135.5400 C   0  0  0  0  0  0  0  0  0  0  0  0
  188.2830  174.7700  136.2920 O   0  0  0  0  0  1  0  0  0  0  0  0
  190.1910  175.6180  137.4550 C   0  0  0  0  0  2  0  0  0  0  0  0
  192.2130  176.7990  138.5230 C   0  0  2  0  0  3  0  0  0  0  0  0
  190.6880  176.7370  138.3740 C   0  0  2  0  0  3  0  0  0  0  0  0
  192.9900  175.7160  137.7810 C   0  0  0  0  0  1  0  0  0  0  0  0
  191.3600  176.1520  139.5980 C   0  0  2  0  0  3  0  0  0  0  0  0
  188.9120  176.8840  140.8460 O   0  0  0  0  0  0  0  0  0  0  0  0
  189.9820  177.3150  141.3570 C   0  0  0  0  0  0  0  0  0  0  0  0
  191.2350  177.0780  140.7100 N   0  0  0  0  0  2  0  0  0  0  0  0
  189.9320  178.0300  142.5950 N   0  0  0  0  0  2  0  0  0  0  0  0
  191.1220  178.5090  143.2760 C   0  0  0  0  0  2  0  0  0  0  0  0
  189.5860  177.8360  146.7480 C   0  0  0  0  0  2  0  0  0  0  0  0
  189.6240  178.1720  145.2620 C   0  0  0  0  0  2  0  0  0  0  0  0
  191.6540  176.4420  146.4760 C   0  0  0  0  0  2  0  0  0  0  0  0
  191.6830  176.7930  144.9890 C   0  0  0  0  0  2  0  0  0  0  0  0
  191.0650  178.1670  144.7580 C   0  0  0  0  0  3  0  0  0  0  0  0
  190.2150  176.4660  146.9930 C   0  0  0  0  0  2  0  0  0  0  0  0
  1 22  1  6  0  0  0
  1 29  1  0  0  0  0
  1  2  1  0  0  0  0
  3  2  1  0  0  0  0
  3  5  1  0  0  0  0
  5  4  2  0  0  0  0
  5  6  1  0  0  0  0
  7 13  1  6  0  0  0
  7  8  1  0  0  0  0
  8 12  1  0  0  0  0
  9 12  1  0  0  0  0
 10  6  1  1  0  0  0
 10 11  1  0  0  0  0
 10  7  1  0  0  0  0
 11  9  1  0  0  0  0
 13 16  1  0  0  0  0
 14 17  1  6  0  0  0
 14 19  1  0  0  0  0
 16 18  2  6  0  0  0
 16 14  1  0  0  0  0
 16 21  1  0  0  0  0
 19 15  1  0  0  0  0
 20 15  1  0  0  0  0
 21 20  1  0  0  0  0
 23 22  1  0  0  0  0
 23 24  1  0  0  0  0
 24 25  1  0  0  0  0
 26 28  1  0  0  0  0
 26 25  1  0  0  0  0
 27 28  1  0  0  0  0
 30 36  2  0  0  0  0
 30 34  1  0  0  0  0
 31 36  1  0  0  0  0
 33 37  1  6  0  0  0
 33 38  1  0  0  0  0
 33 32  1  0  0  0  0
 34 35  1  0  0  0  0
 35 32  1  0  0  0  0
 35 29  1  1  0  0  0
 36 33  1  0  0  0  0
 39 41  1  6  0  0  0
 39 42  1  0  0  0  0
 40 38  1  6  0  0  0
 40 39  1  0  0  0  0
 40 42  1  0  0  0  0
 42 45  1  1  0  0  0
 43 44  2  0  0  0  0
 44 46  1  0  0  0  0
 45 44  1  0  0  0  0
 46 47  1  0  0  0  0
 47 52  1  0  0  0  0
 48 53  1  0  0  0  0
 49 48  1  0  0  0  0
 50 53  1  0  0  0  0
 51 50  1  0  0  0  0
 52 51  1  0  0  0  0
 52 49  1  0  0  0  0
M  END
>  <MODEL>
5

>  <REMARK>
 VINA RESULT:      -6.2      3.081     10.118
  Name = 
  20 active torsions:
  status: ('A' for Active; 'I' for Inactive)
    1  A    between atoms: C_1  and  C_49
    2  A    between atoms: C_1  and  C_51
    3  A    between atoms: O_2  and  C_27
    4  A    between atoms: O_2  and  C_50
    5  A    between atoms: C_5  and  P_12
    6  A    between atoms: C_5  and  C_28
    7  A    between atoms: O_8  and  C_29
    8  A    between atoms: O_8  and  C_35
    9  A    between atoms: C_14  and  N_39
   10  A    between atoms: C_14  and  C_44
   11  A    between atoms: N_21  and  C_41
   12  A    between atoms: C_23  and  C_48
   13  A    between atoms: O_24  and  C_30
   14  A    between atoms: O_24  and  C_45
   15  A    between atoms: C_27  and  C_43
   16  A    between atoms: C_30  and  C_35
   17  A    between atoms: C_34  and  C_35
   18  A    between atoms: C_34  and  C_43
   19  A    between atoms: C_38  and  C_48
   20  A    between atoms: C_45  and  C_51
                            x       y       z     vdW  Elec       q    Type
                         _______ _______ _______ _____ _____    ______ ____

>  <TORSDO>
F 20

$$$$
=
 OpenBabel11062413583D

 53 57  0  0  1  0  0  0  0  0999 V2000
  189.3830  177.2880  139.7610 C   0  0  1  0  0  3  0  0  0  0  0  0
  188.8200  177.7040  138.4010 C   0  0  0  0  0  2  0  0  0  0  0  0
  187.3110  177.9710  138.4620 C   0  0  0  0  0  2  0  0  0  0  0  0
  187.3150  179.3690  136.5160 O   0  0  0  0  0  0  0  0  0  0  0  0
  186.7780  178.4040  137.1240 C   0  0  0  0  0  0  0  0  0  0  0  0
  185.6360  177.8080  136.5720 O   0  0  0  0  0  0  0  0  0  0  0  0
  184.8010  175.5910  135.9520 C   0  0  2  0  0  3  0  0  0  0  0  0
  183.7000  176.1160  135.0250 C   0  0  0  0  0  2  0  0  0  0  0  0
  182.7040  177.4110  136.9210 C   0  0  0  0  0  2  0  0  0  0  0  0
  185.0870  176.5930  137.0800 C   0  0  2  0  0  3  0  0  0  0  0  0
  183.8010  176.8940  137.8570 C   0  0  0  0  0  2  0  0  0  0  0  0
  182.4260  176.3910  135.8210 C   0  0  0  0  0  2  0  0  0  0  0  0
  186.0620  175.2880  135.1550 C   0  0  0  0  0  2  0  0  0  0  0  0
  188.0980  173.1670  134.7680 C   0  0  1  0  0  3  0  0  0  0  0  0
  187.0840  170.8940  135.3600 C   0  0  0  0  0  2  0  0  0  0  0  0
  187.0770  174.0330  135.9960 P   0  0  1  0  0  0  0  0  0  0  0  0
  189.3110  173.8380  134.5940 O   0  0  0  0  0  1  0  0  0  0  0  0
  187.9460  174.6840  137.0490 O   0  0  0  0  0  0  0  0  0  0  0  0
  188.3630  171.7500  135.2640 C   0  0  0  0  0  2  0  0  0  0  0  0
  185.8050  171.6610  135.7300 C   0  0  0  0  0  2  0  0  0  0  0  0
  186.0570  172.7450  136.7620 C   0  0  0  0  0  2  0  0  0  0  0  0
  190.8230  176.7850  139.6370 C   0  0  0  0  0  2  0  0  0  0  0  0
  190.8730  175.6890  138.7720 O   0  0  0  0  0  0  0  0  0  0  0  0
  191.8620  176.0150  137.8410 C   0  0  0  0  0  2  0  0  0  0  0  0
  193.2420  175.8690  138.4700 C   0  0  0  0  0  2  0  0  0  0  0  0
  193.9520  174.6160  137.9670 C   0  0  0  0  0  2  0  0  0  0  0  0
  195.5120  173.0800  138.8820 O   0  0  0  0  0  1  0  0  0  0  0  0
  195.2780  174.4380  138.6800 C   0  0  0  0  0  2  0  0  0  0  0  0
  189.3340  178.3520  140.6730 O   0  0  0  0  0  0  0  0  0  0  0  0
  189.9830  178.0610  144.3140 C   0  0  0  0  0  3  0  0  0  0  0  0
  189.0180  176.7560  146.0030 O   0  0  0  0  0  1  0  0  0  0  0  0
  187.9080  177.5450  142.4110 C   0  0  0  0  0  2  0  0  0  0  0  0
  187.8560  176.8480  143.7820 C   0  0  2  0  0  0  0  0  0  0  0  0
  190.0260  178.6750  142.9490 C   0  0  0  0  0  2  0  0  0  0  0  0
  189.3410  177.7590  141.9400 C   0  0  2  0  0  3  0  0  0  0  0  0
  188.9850  177.2630  144.7080 C   0  0  0  0  0  0  0  0  0  0  0  0
  187.9340  175.4670  143.5840 O   0  0  0  0  0  1  0  0  0  0  0  0
  186.5330  177.1900  144.4680 C   0  0  0  0  0  2  0  0  0  0  0  0
  185.1880  179.3730  144.6790 C   0  0  2  0  0  3  0  0  0  0  0  0
  185.7390  178.2850  143.7510 C   0  0  2  0  0  3  0  0  0  0  0  0
  185.4690  179.1750  146.1650 C   0  0  0  0  0  1  0  0  0  0  0  0
  184.2890  178.2540  144.1880 C   0  0  2  0  0  3  0  0  0  0  0  0
  184.4780  177.5000  141.4530 O   0  0  0  0  0  0  0  0  0  0  0  0
  183.5300  178.2620  141.7870 C   0  0  0  0  0  0  0  0  0  0  0  0
  183.4490  178.7690  143.1210 N   0  0  0  0  0  2  0  0  0  0  0  0
  182.5300  178.6040  140.8220 N   0  0  0  0  0  2  0  0  0  0  0  0
  181.3780  179.4290  141.1410 C   0  0  0  0  0  2  0  0  0  0  0  0
  179.2610  181.7310  138.8860 C   0  0  0  0  0  2  0  0  0  0  0  0
  179.9030  181.2110  140.1660 C   0  0  0  0  0  2  0  0  0  0  0  0
  181.1940  180.8310  137.5640 C   0  0  0  0  0  2  0  0  0  0  0  0
  181.8220  180.3080  138.8540 C   0  0  0  0  0  2  0  0  0  0  0  0
  180.7360  179.9670  139.8700 C   0  0  0  0  0  3  0  0  0  0  0  0
  180.3400  182.0640  137.8550 C   0  0  0  0  0  2  0  0  0  0  0  0
  1  2  1  6  0  0  0
  1 29  1  0  0  0  0
  2  3  1  0  0  0  0
  4  5  2  0  0  0  0
  5  3  1  0  0  0  0
  6  5  1  0  0  0  0
  7 13  1  6  0  0  0
  7 10  1  0  0  0  0
  8 12  1  0  0  0  0
  8  7  1  0  0  0  0
  9 11  1  0  0  0  0
 10  6  1  6  0  0  0
 10 11  1  0  0  0  0
 12  9  1  0  0  0  0
 13 16  1  0  0  0  0
 14 17  1  1  0  0  0
 14 19  1  0  0  0  0
 14 16  1  0  0  0  0
 15 20  1  0  0  0  0
 16 21  1  0  0  0  0
 16 18  2  1  0  0  0
 19 15  1  0  0  0  0
 20 21  1  0  0  0  0
 22  1  1  0  0  0  0
 23 22  1  0  0  0  0
 24 25  1  0  0  0  0
 24 23  1  0  0  0  0
 26 25  1  0  0  0  0
 26 28  1  0  0  0  0
 28 27  1  0  0  0  0
 30 36  2  0  0  0  0
 32 33  1  0  0  0  0
 33 37  1  6  0  0  0
 33 38  1  0  0  0  0
 33 36  1  0  0  0  0
 34 30  1  0  0  0  0
 35 29  1  6  0  0  0
 35 32  1  0  0  0  0
 35 34  1  0  0  0  0
 36 31  1  0  0  0  0
 39 41  1  1  0  0  0
 40 42  1  0  0  0  0
 40 38  1  1  0  0  0
 40 39  1  0  0  0  0
 42 45  1  6  0  0  0
 42 39  1  0  0  0  0
 43 44  2  0  0  0  0
 44 45  1  0  0  0  0
 46 47  1  0  0  0  0
 46 44  1  0  0  0  0
 48 49  1  0  0  0  0
 50 53  1  0  0  0  0
 50 51  1  0  0  0  0
 51 52  1  0  0  0  0
 52 49  1  0  0  0  0
 52 47  1  0  0  0  0
 53 48  1  0  0  0  0
M  END
>  <MODEL>
6

>  <REMARK>
 VINA RESULT:      -6.1      2.289      6.938
  Name = 
  20 active torsions:
  status: ('A' for Active; 'I' for Inactive)
    1  A    between atoms: C_1  and  C_49
    2  A    between atoms: C_1  and  C_51
    3  A    between atoms: O_2  and  C_27
    4  A    between atoms: O_2  and  C_50
    5  A    between atoms: C_5  and  P_12
    6  A    between atoms: C_5  and  C_28
    7  A    between atoms: O_8  and  C_29
    8  A    between atoms: O_8  and  C_35
    9  A    between atoms: C_14  and  N_39
   10  A    between atoms: C_14  and  C_44
   11  A    between atoms: N_21  and  C_41
   12  A    between atoms: C_23  and  C_48
   13  A    between atoms: O_24  and  C_30
   14  A    between atoms: O_24  and  C_45
   15  A    between atoms: C_27  and  C_43
   16  A    between atoms: C_30  and  C_35
   17  A    between atoms: C_34  and  C_35
   18  A    between atoms: C_34  and  C_43
   19  A    between atoms: C_38  and  C_48
   20  A    between atoms: C_45  and  C_51
                            x       y       z     vdW  Elec       q    Type
                         _______ _______ _______ _____ _____    ______ ____

>  <TORSDO>
F 20

$$$$
=
 OpenBabel11062413583D

 53 57  0  0  1  0  0  0  0  0999 V2000
  188.6500  177.3140  144.5590 C   0  0  1  0  0  3  0  0  0  0  0  0
  189.4130  178.2420  143.6120 C   0  0  0  0  0  2  0  0  0  0  0  0
  190.8340  177.7340  143.3350 C   0  0  0  0  0  2  0  0  0  0  0  0
  190.9580  175.3420  143.2710 O   0  0  0  0  0  0  0  0  0  0  0  0
  190.8110  176.4110  142.6200 C   0  0  0  0  0  0  0  0  0  0  0  0
  190.7140  176.3440  141.2230 O   0  0  0  0  0  0  0  0  0  0  0  0
  190.5710  177.1870  138.9280 C   0  0  2  0  0  3  0  0  0  0  0  0
  191.4640  176.0960  138.3280 C   0  0  0  0  0  2  0  0  0  0  0  0
  193.3280  176.7640  139.8590 C   0  0  0  0  0  2  0  0  0  0  0  0
  190.9640  177.4720  140.3860 C   0  0  2  0  0  3  0  0  0  0  0  0
  192.4440  177.8570  140.4670 C   0  0  0  0  0  2  0  0  0  0  0  0
  192.9310  176.5130  138.4070 C   0  0  0  0  0  2  0  0  0  0  0  0
  189.1060  176.7870  138.8230 C   0  0  0  0  0  2  0  0  0  0  0  0
  186.7530  177.5960  137.2090 C   0  0  1  0  0  3  0  0  0  0  0  0
  185.9330  175.5980  135.8390 C   0  0  0  0  0  2  0  0  0  0  0  0
  188.4820  177.0400  137.1320 P   0  0  1  0  0  0  0  0  0  0  0  0
  186.7000  178.9890  137.2950 O   0  0  0  0  0  1  0  0  0  0  0  0
  189.3370  178.0560  136.4070 O   0  0  0  0  0  0  0  0  0  0  0  0
  186.0350  177.1320  135.9470 C   0  0  0  0  0  2  0  0  0  0  0  0
  187.1100  174.8150  136.4390 C   0  0  0  0  0  2  0  0  0  0  0  0
  188.4450  175.4930  136.1890 C   0  0  0  0  0  2  0  0  0  0  0  0
  188.1420  178.0720  145.7880 C   0  0  0  0  0  2  0  0  0  0  0  0
  188.1870  177.2450  146.9120 O   0  0  0  0  0  0  0  0  0  0  0  0
  188.9540  177.9500  147.8420 C   0  0  0  0  0  2  0  0  0  0  0  0
  190.4270  177.5900  147.6860 C   0  0  0  0  0  2  0  0  0  0  0  0
  190.6050  176.1130  147.3490 C   0  0  0  0  0  2  0  0  0  0  0  0
  192.7810  176.1540  148.2960 O   0  0  0  0  0  1  0  0  0  0  0  0
  192.0730  175.7890  147.1530 C   0  0  0  0  0  2  0  0  0  0  0  0
  187.5700  176.7040  143.9050 O   0  0  0  0  0  0  0  0  0  0  0  0
  186.7280  178.6130  140.8370 C   0  0  0  0  0  3  0  0  0  0  0  0
  184.9670  180.0590  140.2960 O   0  0  0  0  0  1  0  0  0  0  0  0
  185.4680  177.5870  143.1930 C   0  0  0  0  0  2  0  0  0  0  0  0
  184.7700  178.7050  142.3980 C   0  0  2  0  0  0  0  0  0  0  0  0
  187.3990  177.5650  141.6710 C   0  0  0  0  0  2  0  0  0  0  0  0
  186.9850  177.7120  143.1310 C   0  0  2  0  0  3  0  0  0  0  0  0
  185.5230  179.1040  141.1410 C   0  0  0  0  0  0  0  0  0  0  0  0
  184.6510  179.8300  143.2180 O   0  0  0  0  0  1  0  0  0  0  0  0
  183.3770  178.2290  141.9810 C   0  0  0  0  0  2  0  0  0  0  0  0
  182.1760  178.1160  139.7090 C   0  0  2  0  0  3  0  0  0  0  0  0
  183.3350  177.6170  140.5780 C   0  0  2  0  0  3  0  0  0  0  0  0
  181.2210  179.0960  140.3840 C   0  0  0  0  0  1  0  0  0  0  0  0
  182.0890  176.7740  140.4100 C   0  0  2  0  0  3  0  0  0  0  0  0
  180.0800  175.2430  139.1030 O   0  0  0  0  0  0  0  0  0  0  0  0
  181.2760  175.0720  138.7400 C   0  0  0  0  0  0  0  0  0  0  0  0
  182.3400  175.7250  139.4360 N   0  0  0  0  0  2  0  0  0  0  0  0
  181.5570  174.2300  137.6170 N   0  0  0  0  0  2  0  0  0  0  0  0
  182.8990  174.0270  137.1020 C   0  0  0  0  0  2  0  0  0  0  0  0
  184.2940  170.8210  135.4770 C   0  0  0  0  0  2  0  0  0  0  0  0
  184.2590  172.0410  136.3900 C   0  0  0  0  0  2  0  0  0  0  0  0
  181.7960  170.6530  135.6210 C   0  0  0  0  0  2  0  0  0  0  0  0
  181.7750  171.8810  136.5290 C   0  0  0  0  0  2  0  0  0  0  0  0
  182.9480  172.7990  136.2030 C   0  0  0  0  0  3  0  0  0  0  0  0
  183.1150  169.8990  135.7860 C   0  0  0  0  0  2  0  0  0  0  0  0
  1  2  1  6  0  0  0
  1 22  1  0  0  0  0
  3  2  1  0  0  0  0
  5  4  2  0  0  0  0
  5  3  1  0  0  0  0
  6  5  1  0  0  0  0
  7 13  1  1  0  0  0
  7 10  1  0  0  0  0
  8 12  1  0  0  0  0
  8  7  1  0  0  0  0
  9 11  1  0  0  0  0
 10 11  1  0  0  0  0
 10  6  1  1  0  0  0
 12  9  1  0  0  0  0
 14 17  1  6  0  0  0
 15 19  1  0  0  0  0
 15 20  1  0  0  0  0
 16 18  2  6  0  0  0
 16 14  1  0  0  0  0
 16 13  1  0  0  0  0
 19 14  1  0  0  0  0
 21 20  1  0  0  0  0
 21 16  1  0  0  0  0
 22 23  1  0  0  0  0
 23 24  1  0  0  0  0
 25 24  1  0  0  0  0
 26 25  1  0  0  0  0
 28 26  1  0  0  0  0
 28 27  1  0  0  0  0
 29  1  1  0  0  0  0
 30 36  2  0  0  0  0
 30 34  1  0  0  0  0
 31 36  1  0  0  0  0
 33 32  1  0  0  0  0
 33 37  1  1  0  0  0
 34 35  1  0  0  0  0
 35 32  1  0  0  0  0
 35 29  1  1  0  0  0
 36 33  1  0  0  0  0
 38 33  1  0  0  0  0
 39 41  1  1  0  0  0
 39 42  1  0  0  0  0
 39 40  1  0  0  0  0
 40 38  1  1  0  0  0
 42 45  1  6  0  0  0
 42 40  1  0  0  0  0
 44 43  2  0  0  0  0
 44 45  1  0  0  0  0
 46 44  1  0  0  0  0
 47 46  1  0  0  0  0
 48 53  1  0  0  0  0
 48 49  1  0  0  0  0
 50 53  1  0  0  0  0
 50 51  1  0  0  0  0
 52 49  1  0  0  0  0
 52 51  1  0  0  0  0
 52 47  1  0  0  0  0
M  END
>  <MODEL>
7

>  <REMARK>
 VINA RESULT:      -6.0      2.118      4.001
  Name = 
  20 active torsions:
  status: ('A' for Active; 'I' for Inactive)
    1  A    between atoms: C_1  and  C_49
    2  A    between atoms: C_1  and  C_51
    3  A    between atoms: O_2  and  C_27
    4  A    between atoms: O_2  and  C_50
    5  A    between atoms: C_5  and  P_12
    6  A    between atoms: C_5  and  C_28
    7  A    between atoms: O_8  and  C_29
    8  A    between atoms: O_8  and  C_35
    9  A    between atoms: C_14  and  N_39
   10  A    between atoms: C_14  and  C_44
   11  A    between atoms: N_21  and  C_41
   12  A    between atoms: C_23  and  C_48
   13  A    between atoms: O_24  and  C_30
   14  A    between atoms: O_24  and  C_45
   15  A    between atoms: C_27  and  C_43
   16  A    between atoms: C_30  and  C_35
   17  A    between atoms: C_34  and  C_35
   18  A    between atoms: C_34  and  C_43
   19  A    between atoms: C_38  and  C_48
   20  A    between atoms: C_45  and  C_51
                            x       y       z     vdW  Elec       q    Type
                         _______ _______ _______ _____ _____    ______ ____

>  <TORSDO>
F 20

$$$$
=
 OpenBabel11062413583D

 53 57  0  0  1  0  0  0  0  0999 V2000
  188.4430  178.2360  140.1620 C   0  0  1  0  0  3  0  0  0  0  0  0
  189.0490  178.3680  138.7630 C   0  0  0  0  0  2  0  0  0  0  0  0
  189.3240  176.9990  138.1270 C   0  0  0  0  0  2  0  0  0  0  0  0
  188.3580  177.4150  135.9740 O   0  0  0  0  0  0  0  0  0  0  0  0
  188.3520  176.7070  137.0170 C   0  0  0  0  0  0  0  0  0  0  0  0
  187.3750  175.7120  137.1530 O   0  0  0  0  0  0  0  0  0  0  0  0
  185.7160  174.0590  136.4350 C   0  0  2  0  0  3  0  0  0  0  0  0
  186.1240  173.0020  137.4660 C   0  0  0  0  0  2  0  0  0  0  0  0
  188.4570  173.0010  136.5590 C   0  0  0  0  0  2  0  0  0  0  0  0
  186.9170  174.9340  136.0470 C   0  0  2  0  0  3  0  0  0  0  0  0
  188.0610  174.0590  135.5250 C   0  0  0  0  0  2  0  0  0  0  0  0
  187.2520  172.1340  136.9130 C   0  0  0  0  0  2  0  0  0  0  0  0
  184.5710  174.9060  136.9730 C   0  0  0  0  0  2  0  0  0  0  0  0
  181.7170  174.3740  137.5760 C   0  0  1  0  0  3  0  0  0  0  0  0
  181.2330  171.8810  137.2710 C   0  0  0  0  0  2  0  0  0  0  0  0
  182.9800  174.3700  136.2700 P   0  0  1  0  0  0  0  0  0  0  0  0
  181.1090  175.6290  137.6520 O   0  0  0  0  0  1  0  0  0  0  0  0
  182.5760  175.2850  135.1340 O   0  0  0  0  0  0  0  0  0  0  0  0
  180.6710  173.3160  137.2460 C   0  0  0  0  0  2  0  0  0  0  0  0
  182.6980  171.7400  136.8330 C   0  0  0  0  0  2  0  0  0  0  0  0
  183.0490  172.6590  135.6760 C   0  0  0  0  0  2  0  0  0  0  0  0
  186.9170  178.3370  140.1180 C   0  0  0  0  0  2  0  0  0  0  0  0
  186.5050  178.7980  138.8650 O   0  0  0  0  0  0  0  0  0  0  0  0
  185.2170  178.2820  138.7030 C   0  0  0  0  0  2  0  0  0  0  0  0
  184.1800  179.3310  139.0880 C   0  0  0  0  0  2  0  0  0  0  0  0
  182.7700  178.8790  138.7210 C   0  0  0  0  0  2  0  0  0  0  0  0
  181.5510  177.8910  140.5010 O   0  0  0  0  0  1  0  0  0  0  0  0
  181.8230  179.1080  139.8820 C   0  0  0  0  0  2  0  0  0  0  0  0
  188.8160  177.0240  140.7600 O   0  0  0  0  0  0  0  0  0  0  0  0
  190.8780  179.1110  143.0300 C   0  0  0  0  0  3  0  0  0  0  0  0
  192.4110  178.5860  144.7220 O   0  0  0  0  0  1  0  0  0  0  0  0
  189.8070  176.4630  142.8600 C   0  0  0  0  0  2  0  0  0  0  0  0
  190.9810  176.7340  143.8170 C   0  0  2  0  0  0  0  0  0  0  0  0
  189.7730  178.7920  142.0710 C   0  0  0  0  0  2  0  0  0  0  0  0
  189.8760  177.3410  141.6160 C   0  0  2  0  0  3  0  0  0  0  0  0
  191.4030  178.1920  143.8480 C   0  0  0  0  0  0  0  0  0  0  0  0
  192.0760  175.9680  143.4090 O   0  0  0  0  0  1  0  0  0  0  0  0
  190.5760  176.3300  145.2350 C   0  0  0  0  0  2  0  0  0  0  0  0
  189.8020  177.6880  147.2780 C   0  0  2  0  0  3  0  0  0  0  0  0
  189.5030  177.2360  145.8440 C   0  0  2  0  0  3  0  0  0  0  0  0
  191.0830  177.1310  147.8900 C   0  0  0  0  0  1  0  0  0  0  0  0
  188.8380  176.5460  147.0170 C   0  0  2  0  0  3  0  0  0  0  0  0
  188.1030  178.8910  148.4490 O   0  0  0  0  0  0  0  0  0  0  0  0
  187.1990  178.2870  147.8080 C   0  0  0  0  0  0  0  0  0  0  0  0
  187.4800  177.0420  147.1660 N   0  0  0  0  0  2  0  0  0  0  0  0
  185.8930  178.8670  147.7200 N   0  0  0  0  0  2  0  0  0  0  0  0
  184.8150  178.2640  146.9560 C   0  0  0  0  0  2  0  0  0  0  0  0
  185.6460  178.6160  143.2080 C   0  0  0  0  0  2  0  0  0  0  0  0
  185.6880  178.0310  144.6150 C   0  0  0  0  0  2  0  0  0  0  0  0
  183.2900  179.3770  143.6050 C   0  0  0  0  0  2  0  0  0  0  0  0
  183.3480  178.7930  145.0150 C   0  0  0  0  0  2  0  0  0  0  0  0
  184.7780  178.8300  145.5440 C   0  0  0  0  0  3  0  0  0  0  0  0
  184.2150  178.5960  142.6730 C   0  0  0  0  0  2  0  0  0  0  0  0
  1  2  1  6  0  0  0
  1 29  1  0  0  0  0
  3  2  1  0  0  0  0
  4  5  2  0  0  0  0
  5  6  1  0  0  0  0
  5  3  1  0  0  0  0
  7 13  1  1  0  0  0
  7  8  1  0  0  0  0
  9 12  1  0  0  0  0
 10  7  1  0  0  0  0
 10  6  1  1  0  0  0
 11 10  1  0  0  0  0
 11  9  1  0  0  0  0
 12  8  1  0  0  0  0
 14 17  1  6  0  0  0
 16 18  2  6  0  0  0
 16 13  1  0  0  0  0
 16 14  1  0  0  0  0
 19 15  1  0  0  0  0
 19 14  1  0  0  0  0
 20 15  1  0  0  0  0
 21 16  1  0  0  0  0
 21 20  1  0  0  0  0
 22  1  1  0  0  0  0
 23 22  1  0  0  0  0
 24 23  1  0  0  0  0
 24 25  1  0  0  0  0
 26 25  1  0  0  0  0
 26 28  1  0  0  0  0
 28 27  1  0  0  0  0
 30 36  2  0  0  0  0
 32 33  1  0  0  0  0
 33 37  1  6  0  0  0
 33 36  1  0  0  0  0
 33 38  1  0  0  0  0
 34 30  1  0  0  0  0
 35 29  1  6  0  0  0
 35 34  1  0  0  0  0
 35 32  1  0  0  0  0
 36 31  1  0  0  0  0
 39 41  1  1  0  0  0
 40 38  1  1  0  0  0
 40 42  1  0  0  0  0
 40 39  1  0  0  0  0
 42 45  1  6  0  0  0
 42 39  1  0  0  0  0
 44 43  2  0  0  0  0
 45 44  1  0  0  0  0
 46 44  1  0  0  0  0
 47 46  1  0  0  0  0
 48 49  1  0  0  0  0
 49 52  1  0  0  0  0
 50 51  1  0  0  0  0
 51 52  1  0  0  0  0
 52 47  1  0  0  0  0
 53 48  1  0  0  0  0
 53 50  1  0  0  0  0
M  END
>  <MODEL>
8

>  <REMARK>
 VINA RESULT:      -5.9      3.366      9.006
  Name = 
  20 active torsions:
  status: ('A' for Active; 'I' for Inactive)
    1  A    between atoms: C_1  and  C_49
    2  A    between atoms: C_1  and  C_51
    3  A    between atoms: O_2  and  C_27
    4  A    between atoms: O_2  and  C_50
    5  A    between atoms: C_5  and  P_12
    6  A    between atoms: C_5  and  C_28
    7  A    between atoms: O_8  and  C_29
    8  A    between atoms: O_8  and  C_35
    9  A    between atoms: C_14  and  N_39
   10  A    between atoms: C_14  and  C_44
   11  A    between atoms: N_21  and  C_41
   12  A    between atoms: C_23  and  C_48
   13  A    between atoms: O_24  and  C_30
   14  A    between atoms: O_24  and  C_45
   15  A    between atoms: C_27  and  C_43
   16  A    between atoms: C_30  and  C_35
   17  A    between atoms: C_34  and  C_35
   18  A    between atoms: C_34  and  C_43
   19  A    between atoms: C_38  and  C_48
   20  A    between atoms: C_45  and  C_51
                            x       y       z     vdW  Elec       q    Type
                         _______ _______ _______ _____ _____    ______ ____

>  <TORSDO>
F 20

$$$$
=
 OpenBabel11062413583D

 53 57  0  0  1  0  0  0  0  0999 V2000
  189.6490  177.8880  140.2510 C   0  0  1  0  0  3  0  0  0  0  0  0
  188.3770  178.7330  140.1460 C   0  0  0  0  0  2  0  0  0  0  0  0
  187.1220  177.8620  140.0060 C   0  0  0  0  0  2  0  0  0  0  0  0
  186.8130  178.7670  137.8090 O   0  0  0  0  0  0  0  0  0  0  0  0
  186.2690  178.3150  138.8530 C   0  0  0  0  0  0  0  0  0  0  0  0
  184.8710  178.3240  138.9460 O   0  0  0  0  0  0  0  0  0  0  0  0
  183.3110  178.6930  140.7980 C   0  0  2  0  0  3  0  0  0  0  0  0
  182.1950  177.8250  140.2080 C   0  0  0  0  0  2  0  0  0  0  0  0
  182.1540  179.2520  138.1520 C   0  0  0  0  0  2  0  0  0  0  0  0
  184.1610  179.3190  139.6820 C   0  0  2  0  0  3  0  0  0  0  0  0
  183.2710  180.1270  138.7310 C   0  0  0  0  0  2  0  0  0  0  0  0
  181.3140  178.6580  139.2790 C   0  0  0  0  0  2  0  0  0  0  0  0
  184.1720  177.8730  141.7480 C   0  0  0  0  0  2  0  0  0  0  0  0
  186.0010  177.9190  144.0820 C   0  0  1  0  0  3  0  0  0  0  0  0
  184.6990  178.6180  146.1700 C   0  0  0  0  0  2  0  0  0  0  0  0
  184.9610  178.9390  142.9950 P   0  0  1  0  0  0  0  0  0  0  0  0
  187.2890  177.8130  143.5520 O   0  0  0  0  0  1  0  0  0  0  0  0
  185.7870  180.0110  142.3180 O   0  0  0  0  0  0  0  0  0  0  0  0
  186.0640  178.5780  145.4550 C   0  0  0  0  0  2  0  0  0  0  0  0
  183.4780  178.7700  145.2500 C   0  0  0  0  0  2  0  0  0  0  0  0
  183.7400  179.7120  144.0890 C   0  0  0  0  0  2  0  0  0  0  0  0
  190.1100  177.7580  141.7040 C   0  0  0  0  0  2  0  0  0  0  0  0
  191.4540  177.3770  141.7460 O   0  0  0  0  0  0  0  0  0  0  0  0
  191.6490  176.9050  143.0470 C   0  0  0  0  0  2  0  0  0  0  0  0
  191.2770  177.9850  144.0560 C   0  0  0  0  0  2  0  0  0  0  0  0
  190.4040  177.4230  145.1750 C   0  0  0  0  0  2  0  0  0  0  0  0
  190.4500  176.4010  147.3150 O   0  0  0  0  0  1  0  0  0  0  0  0
  191.2640  176.9670  146.3370 C   0  0  0  0  0  2  0  0  0  0  0  0
  189.4520  176.6120  139.7040 O   0  0  0  0  0  0  0  0  0  0  0  0
  191.8280  175.8940  136.9470 C   0  0  0  0  0  3  0  0  0  0  0  0
  191.6270  175.9660  134.6140 O   0  0  0  0  0  1  0  0  0  0  0  0
  189.0110  176.0500  137.4250 C   0  0  0  0  0  2  0  0  0  0  0  0
  189.5300  176.1340  135.9780 C   0  0  2  0  0  0  0  0  0  0  0  0
  191.2860  175.8720  138.3430 C   0  0  0  0  0  2  0  0  0  0  0  0
  189.9890  176.6720  138.4140 C   0  0  2  0  0  3  0  0  0  0  0  0
  191.0360  175.9750  135.8730 C   0  0  0  0  0  0  0  0  0  0  0  0
  189.1800  177.3790  135.4500 O   0  0  0  0  0  1  0  0  0  0  0  0
  188.8790  175.0280  135.1480 C   0  0  0  0  0  2  0  0  0  0  0  0
  187.1800  173.4670  136.2860 C   0  0  2  0  0  3  0  0  0  0  0  0
  187.4150  174.7700  135.5140 C   0  0  2  0  0  3  0  0  0  0  0  0
  188.4190  172.6100  136.5240 C   0  0  0  0  0  1  0  0  0  0  0  0
  186.9030  173.5390  134.7960 C   0  0  2  0  0  3  0  0  0  0  0  0
  185.0620  171.3730  134.8790 O   0  0  0  0  0  0  0  0  0  0  0  0
  184.5920  172.5380  134.7600 C   0  0  0  0  0  0  0  0  0  0  0  0
  185.4680  173.6550  134.5960 N   0  0  0  0  0  2  0  0  0  0  0  0
  183.1750  172.7320  134.8040 N   0  0  0  0  0  2  0  0  0  0  0  0
  182.5580  174.0440  134.7300 C   0  0  0  0  0  2  0  0  0  0  0  0
  180.5410  173.3980  137.9510 C   0  0  0  0  0  2  0  0  0  0  0  0
  181.6880  173.2760  136.9550 C   0  0  0  0  0  2  0  0  0  0  0  0
  180.1380  175.7520  137.1840 C   0  0  0  0  0  2  0  0  0  0  0  0
  181.2850  175.6130  136.1850 C   0  0  0  0  0  2  0  0  0  0  0  0
  181.4250  174.1610  135.7400 C   0  0  0  0  0  3  0  0  0  0  0  0
  180.3820  174.8510  138.3950 C   0  0  0  0  0  2  0  0  0  0  0  0
  1  2  1  1  0  0  0
  1 22  1  0  0  0  0
  3  2  1  0  0  0  0
  4  5  2  0  0  0  0
  5  6  1  0  0  0  0
  5  3  1  0  0  0  0
  7 13  1  1  0  0  0
  8  7  1  0  0  0  0
  9 11  1  0  0  0  0
  9 12  1  0  0  0  0
 10  6  1  6  0  0  0
 10  7  1  0  0  0  0
 11 10  1  0  0  0  0
 12  8  1  0  0  0  0
 13 16  1  0  0  0  0
 14 17  1  6  0  0  0
 14 19  1  0  0  0  0
 16 18  2  6  0  0  0
 16 14  1  0  0  0  0
 16 21  1  0  0  0  0
 19 15  1  0  0  0  0
 20 15  1  0  0  0  0
 21 20  1  0  0  0  0
 22 23  1  0  0  0  0
 23 24  1  0  0  0  0
 24 25  1  0  0  0  0
 25 26  1  0  0  0  0
 26 28  1  0  0  0  0
 28 27  1  0  0  0  0
 29  1  1  0  0  0  0
 30 34  1  0  0  0  0
 31 36  1  0  0  0  0
 32 35  1  0  0  0  0
 33 37  1  6  0  0  0
 33 32  1  0  0  0  0
 34 35  1  0  0  0  0
 35 29  1  1  0  0  0
 36 33  1  0  0  0  0
 36 30  2  0  0  0  0
 38 33  1  0  0  0  0
 39 41  1  6  0  0  0
 40 38  1  6  0  0  0
 40 39  1  0  0  0  0
 42 45  1  1  0  0  0
 42 40  1  0  0  0  0
 42 39  1  0  0  0  0
 44 46  1  0  0  0  0
 44 43  2  0  0  0  0
 45 44  1  0  0  0  0
 47 46  1  0  0  0  0
 47 52  1  0  0  0  0
 48 53  1  0  0  0  0
 49 48  1  0  0  0  0
 50 53  1  0  0  0  0
 51 50  1  0  0  0  0
 52 51  1  0  0  0  0
 52 49  1  0  0  0  0
M  END
>  <MODEL>
9

>  <REMARK>
 VINA RESULT:      -5.9      2.545      7.458
  Name = 
  20 active torsions:
  status: ('A' for Active; 'I' for Inactive)
    1  A    between atoms: C_1  and  C_49
    2  A    between atoms: C_1  and  C_51
    3  A    between atoms: O_2  and  C_27
    4  A    between atoms: O_2  and  C_50
    5  A    between atoms: C_5  and  P_12
    6  A    between atoms: C_5  and  C_28
    7  A    between atoms: O_8  and  C_29
    8  A    between atoms: O_8  and  C_35
    9  A    between atoms: C_14  and  N_39
   10  A    between atoms: C_14  and  C_44
   11  A    between atoms: N_21  and  C_41
   12  A    between atoms: C_23  and  C_48
   13  A    between atoms: O_24  and  C_30
   14  A    between atoms: O_24  and  C_45
   15  A    between atoms: C_27  and  C_43
   16  A    between atoms: C_30  and  C_35
   17  A    between atoms: C_34  and  C_35
   18  A    between atoms: C_34  and  C_43
   19  A    between atoms: C_38  and  C_48
   20  A    between atoms: C_45  and  C_51
                            x       y       z     vdW  Elec       q    Type
                         _______ _______ _______ _____ _____    ______ ____

>  <TORSDO>
F 20

$$$$
