=
 OpenBabel11062416003D

 36 41  0  0  1  0  0  0  0  0999 V2000
  188.2980  178.1290  140.9140 C   0  0  0  0  0  0  0  0  0  0  0  0
  187.8370  178.0550  138.6060 C   0  0  0  0  0  3  0  0  0  0  0  0
  189.8760  176.7930  141.8790 O   0  0  0  0  0  0  0  0  0  0  0  0
  189.8460  176.9140  139.4570 C   0  0  0  0  0  0  0  0  0  0  0  0
  187.7960  177.8120  142.0410 N   0  0  0  0  0  0  0  0  0  0  0  0
  189.0160  177.1740  138.4290 C   0  0  0  0  0  3  0  0  0  0  0  0
  188.8240  177.1030  142.7870 C   0  0  1  0  0  0  0  0  0  0  0  0
  189.6750  177.6390  140.7690 C   0  0  1  0  0  3  0  0  0  0  0  0
  188.2320  175.8030  143.3180 C   0  0  0  0  0  1  0  0  0  0  0  0
  187.4960  178.4840  139.7860 N   0  0  0  0  0  0  0  0  0  0  0  0
  188.8210  177.6160  145.2270 N   0  0  0  0  0  0  0  0  0  0  0  0
  189.8240  177.1600  146.0790 N   0  0  0  0  0  0  0  0  0  0  0  0
  190.9730  177.2250  145.5020 C   0  0  0  0  0  3  0  0  0  0  0  0
  189.3700  177.9910  143.9300 C   0  0  1  0  0  3  0  0  0  0  0  0
  190.8790  177.7790  144.1150 C   0  0  1  0  0  3  0  0  0  0  0  0
  191.5880  179.1170  144.0540 C   0  0  0  0  0  1  0  0  0  0  0  0
  185.4630  178.5860  145.6800 N   0  0  0  0  0  0  0  0  0  0  0  0
  185.8270  178.4340  146.9700 C   0  0  0  0  0  2  0  0  0  0  0  0
  187.5170  177.9670  145.7030 C   0  0  0  0  0  0  0  0  0  0  0  0
  186.4940  178.3040  144.9040 N   0  0  0  0  0  0  0  0  0  0  0  0
  187.1530  178.0370  147.0320 C   0  0  0  0  0  3  0  0  0  0  0  0
  190.9880  176.0700  139.2800 N   0  0  0  0  0  2  0  0  0  0  0  0
  192.0500  176.3330  138.3170 C   0  0  0  0  0  2  0  0  0  0  0  0
  193.8520  173.7990  135.8490 C   0  0  1  0  0  3  0  0  0  0  0  0
  191.4890  173.1350  136.2920 C   0  0  0  0  0  3  0  0  0  0  0  0
  194.7210  174.6390  138.1750 C   0  0  2  0  0  3  0  0  0  0  0  0
  192.3060  175.1130  137.4900 C   0  0  0  0  0  0  0  0  0  0  0  0
  193.9290  174.6560  134.5970 C   0  0  0  0  0  1  0  0  0  0  0  0
  191.2800  174.3430  137.1180 C   0  0  0  0  0  3  0  0  0  0  0  0
  193.6980  174.6860  137.0960 C   0  0  2  0  0  0  0  0  0  0  0  0
  192.6780  172.8620  135.7330 C   0  0  0  0  0  3  0  0  0  0  0  0
  194.6760  175.6880  137.2270 O   0  0  0  0  0  0  0  0  0  0  0  0
  195.8220  173.7440  137.8510 N   0  0  0  0  0  2  0  0  0  0  0  0
  197.0030  174.2620  138.5210 C   0  0  0  0  0  2  0  0  0  0  0  0
  196.6380  174.7760  139.9030 C   0  0  0  0  0  2  0  0  0  0  0  0
  197.7790  175.1930  140.5640 F   0  0  0  0  0  0  0  0  0  0  0  0
  1  5  2  0  0  0  0
  2 10  2  0  0  0  0
  3  7  1  0  0  0  0
  5  7  1  0  0  0  0
  6  2  1  0  0  0  0
  6  4  2  0  0  0  0
  7  9  1  1  0  0  0
  7 14  1  0  0  0  0
  8  4  1  6  0  0  0
  8  1  1  0  0  0  0
  8  3  1  0  0  0  0
 10  1  1  0  0  0  0
 11 19  1  0  0  0  0
 11 12  1  0  0  0  0
 13 12  2  0  0  0  0
 14 15  1  0  0  0  0
 14 11  1  1  0  0  0
 15 16  1  1  0  0  0
 15 13  1  0  0  0  0
 17 18  1  0  0  0  0
 18 21  1  0  0  0  0
 19 21  2  0  0  0  0
 20 17  2  0  0  0  0
 20 19  1  0  0  0  0
 22  4  1  0  0  0  0
 23 22  1  0  0  0  0
 24 28  1  6  0  0  0
 24 30  1  0  0  0  0
 25 29  1  0  0  0  0
 26 33  1  6  0  0  0
 27 23  1  0  0  0  0
 29 27  2  0  0  0  0
 30 32  1  6  0  0  0
 30 27  1  0  0  0  0
 30 26  1  0  0  0  0
 31 24  1  0  0  0  0
 31 25  2  0  0  0  0
 32 26  1  0  0  0  0
 33 34  1  0  0  0  0
 34 35  1  0  0  0  0
 35 36  1  0  0  0  0
M  END
>  <MODEL>
1

>  <REMARK>
 VINA RESULT:      -8.6      0.000      0.000
  Name = 
  8 active torsions:
  status: ('A' for Active; 'I' for Inactive)
    1  A    between atoms: C_5  and  C_11
    2  A    between atoms: C_5  and  N_28
    3  A    between atoms: N_6  and  C_20
    4  A    between atoms: C_8  and  N_28
    5  A    between atoms: C_9  and  C_31
    6  A    between atoms: C_12  and  N_18
    7  A    between atoms: N_18  and  C_31
    8  A    between atoms: C_21  and  C_23
                            x       y       z     vdW  Elec       q    Type
                         _______ _______ _______ _____ _____    ______ ____

>  <TORSDO>
F 8

$$$$
=
 OpenBabel11062416003D

 36 41  0  0  1  0  0  0  0  0999 V2000
  186.4060  178.2680  138.2520 C   0  0  0  0  0  0  0  0  0  0  0  0
  184.5550  178.9590  139.5330 C   0  0  0  0  0  3  0  0  0  0  0  0
  188.5200  178.2070  139.1080 O   0  0  0  0  0  0  0  0  0  0  0  0
  186.6900  178.5020  140.6720 C   0  0  0  0  0  0  0  0  0  0  0  0
  187.1470  178.6480  137.2880 N   0  0  0  0  0  0  0  0  0  0  0  0
  185.4250  178.9590  140.7340 C   0  0  0  0  0  3  0  0  0  0  0  0
  188.5280  178.4630  137.7070 C   0  0  1  0  0  0  0  0  0  0  0  0
  187.1940  177.8380  139.4140 C   0  0  1  0  0  3  0  0  0  0  0  0
  189.2930  179.7560  137.4480 C   0  0  0  0  0  1  0  0  0  0  0  0
  185.0340  178.6500  138.3640 N   0  0  0  0  0  0  0  0  0  0  0  0
  189.9200  176.4000  137.8610 N   0  0  0  0  0  0  0  0  0  0  0  0
  189.3530  175.1300  137.9250 N   0  0  0  0  0  0  0  0  0  0  0  0
  188.3310  175.0500  137.1470 C   0  0  0  0  0  3  0  0  0  0  0  0
  189.1620  177.2650  136.9640 C   0  0  1  0  0  3  0  0  0  0  0  0
  188.0790  176.3280  136.4100 C   0  0  1  0  0  3  0  0  0  0  0  0
  188.3080  176.1130  134.9280 C   0  0  0  0  0  1  0  0  0  0  0  0
  193.3780  176.8010  138.4130 N   0  0  0  0  0  0  0  0  0  0  0  0
  192.9110  177.2210  139.6060 C   0  0  0  0  0  2  0  0  0  0  0  0
  191.2370  176.6740  138.3510 C   0  0  0  0  0  0  0  0  0  0  0  0
  192.3580  176.4640  137.6450 N   0  0  0  0  0  0  0  0  0  0  0  0
  191.5280  177.1510  139.6130 C   0  0  0  0  0  3  0  0  0  0  0  0
  187.5240  178.4950  141.8350 N   0  0  0  0  0  2  0  0  0  0  0  0
  187.3640  177.5610  142.9430 C   0  0  0  0  0  2  0  0  0  0  0  0
  190.8480  177.1490  144.8010 C   0  0  1  0  0  3  0  0  0  0  0  0
  190.6600  175.6190  142.8390 C   0  0  0  0  0  3  0  0  0  0  0  0
  188.4590  177.0960  145.8770 C   0  0  2  0  0  3  0  0  0  0  0  0
  188.6940  177.0000  143.3360 C   0  0  0  0  0  0  0  0  0  0  0  0
  191.5250  178.4450  144.3900 C   0  0  0  0  0  1  0  0  0  0  0  0
  189.3400  176.1870  142.4940 C   0  0  0  0  0  3  0  0  0  0  0  0
  189.3210  177.2800  144.6780 C   0  0  2  0  0  0  0  0  0  0  0  0
  191.3440  176.0330  143.9170 C   0  0  0  0  0  3  0  0  0  0  0  0
  188.7700  178.3770  145.3630 O   0  0  0  0  0  0  0  0  0  0  0  0
  189.2380  176.8600  147.0830 N   0  0  0  0  0  2  0  0  0  0  0  0
  188.3000  176.8190  148.1940 C   0  0  0  0  0  2  0  0  0  0  0  0
  188.1610  178.1980  148.8130 C   0  0  0  0  0  2  0  0  0  0  0  0
  189.2830  178.9550  148.5280 F   0  0  0  0  0  0  0  0  0  0  0  0
  1 10  1  0  0  0  0
  2  6  1  0  0  0  0
  3  8  1  0  0  0  0
  4  6  2  0  0  0  0
  4 22  1  0  0  0  0
  5  7  1  0  0  0  0
  5  1  2  0  0  0  0
  7  9  1  6  0  0  0
  7  3  1  0  0  0  0
  8  1  1  6  0  0  0
  8  4  1  0  0  0  0
 10  2  2  0  0  0  0
 11 12  1  0  0  0  0
 11 19  1  0  0  0  0
 13 12  2  0  0  0  0
 14  7  1  0  0  0  0
 14 11  1  1  0  0  0
 15 16  1  6  0  0  0
 15 14  1  0  0  0  0
 15 13  1  0  0  0  0
 17 18  1  0  0  0  0
 18 21  1  0  0  0  0
 19 21  2  0  0  0  0
 20 19  1  0  0  0  0
 20 17  2  0  0  0  0
 22 23  1  0  0  0  0
 23 27  1  0  0  0  0
 24 28  1  6  0  0  0
 25 31  2  0  0  0  0
 26 33  1  1  0  0  0
 29 25  1  0  0  0  0
 29 27  2  0  0  0  0
 30 27  1  6  0  0  0
 30 24  1  0  0  0  0
 30 32  1  0  0  0  0
 30 26  1  0  0  0  0
 31 24  1  0  0  0  0
 32 26  1  0  0  0  0
 33 34  1  0  0  0  0
 34 35  1  0  0  0  0
 36 35  1  0  0  0  0
M  END
>  <MODEL>
2

>  <REMARK>
 VINA RESULT:      -8.2      3.607      8.339
  Name = 
  8 active torsions:
  status: ('A' for Active; 'I' for Inactive)
    1  A    between atoms: C_5  and  C_11
    2  A    between atoms: C_5  and  N_28
    3  A    between atoms: N_6  and  C_20
    4  A    between atoms: C_8  and  N_28
    5  A    between atoms: C_9  and  C_31
    6  A    between atoms: C_12  and  N_18
    7  A    between atoms: N_18  and  C_31
    8  A    between atoms: C_21  and  C_23
                            x       y       z     vdW  Elec       q    Type
                         _______ _______ _______ _____ _____    ______ ____

>  <TORSDO>
F 8

$$$$
=
 OpenBabel11062416003D

 36 41  0  0  1  0  0  0  0  0999 V2000
  186.1120  178.2820  143.8160 C   0  0  0  0  0  0  0  0  0  0  0  0
  183.9080  178.5510  143.0320 C   0  0  0  0  0  3  0  0  0  0  0  0
  187.8700  177.9430  142.4020 O   0  0  0  0  0  0  0  0  0  0  0  0
  185.7670  178.6460  141.4200 C   0  0  0  0  0  0  0  0  0  0  0  0
  186.8550  177.4510  144.4310 N   0  0  0  0  0  0  0  0  0  0  0  0
  184.4410  178.6210  141.6500 C   0  0  0  0  0  3  0  0  0  0  0  0
  188.0860  177.3230  143.6660 C   0  0  1  0  0  0  0  0  0  0  0  0
  186.7330  178.7590  142.5730 C   0  0  1  0  0  3  0  0  0  0  0  0
  188.3710  175.8430  143.4460 C   0  0  0  0  0  1  0  0  0  0  0  0
  184.7040  178.3720  144.0440 N   0  0  0  0  0  0  0  0  0  0  0  0
  189.6350  177.3310  145.6190 N   0  0  0  0  0  0  0  0  0  0  0  0
  190.9390  176.8490  145.5300 N   0  0  0  0  0  0  0  0  0  0  0  0
  191.4680  177.1800  144.4030 C   0  0  0  0  0  3  0  0  0  0  0  0
  189.2520  178.0280  144.3970 C   0  0  1  0  0  3  0  0  0  0  0  0
  190.5340  177.9830  143.5530 C   0  0  1  0  0  3  0  0  0  0  0  0
  191.0790  179.3880  143.3900 C   0  0  0  0  0  1  0  0  0  0  0  0
  187.7970  176.7860  148.5770 N   0  0  0  0  0  0  0  0  0  0  0  0
  187.9810  178.1190  148.6700 C   0  0  0  0  0  2  0  0  0  0  0  0
  188.9330  177.4040  146.8640 C   0  0  0  0  0  0  0  0  0  0  0  0
  188.3750  176.3470  147.4730 N   0  0  0  0  0  0  0  0  0  0  0  0
  188.7090  178.5630  147.5790 C   0  0  0  0  0  3  0  0  0  0  0  0
  186.2770  178.7220  140.0850 N   0  0  0  0  0  2  0  0  0  0  0  0
  185.4390  178.8790  138.9030 C   0  0  0  0  0  2  0  0  0  0  0  0
  187.1880  177.2350  135.7410 C   0  0  1  0  0  3  0  0  0  0  0  0
  185.3320  175.8150  136.6120 C   0  0  0  0  0  3  0  0  0  0  0  0
  188.3530  178.1520  137.9020 C   0  0  2  0  0  3  0  0  0  0  0  0
  185.8160  177.8660  137.8690 C   0  0  0  0  0  0  0  0  0  0  0  0
  186.6740  178.1530  134.6440 C   0  0  0  0  0  1  0  0  0  0  0  0
  185.0020  176.8330  137.6330 C   0  0  0  0  0  3  0  0  0  0  0  0
  187.1140  177.9390  137.1060 C   0  0  2  0  0  0  0  0  0  0  0  0
  186.3560  175.9790  135.7620 C   0  0  0  0  0  3  0  0  0  0  0  0
  187.7510  179.1920  137.1550 O   0  0  0  0  0  0  0  0  0  0  0  0
  189.5420  177.6850  137.2050 N   0  0  0  0  0  2  0  0  0  0  0  0
  190.4130  177.0870  138.2030 C   0  0  0  0  0  2  0  0  0  0  0  0
  189.8810  177.3660  139.5970 C   0  0  0  0  0  2  0  0  0  0  0  0
  190.4680  176.5030  140.5050 F   0  0  0  0  0  0  0  0  0  0  0  0
  1 10  1  0  0  0  0
  1  5  2  0  0  0  0
  2 10  2  0  0  0  0
  3  8  1  0  0  0  0
  3  7  1  0  0  0  0
  4  6  2  0  0  0  0
  6  2  1  0  0  0  0
  7  9  1  6  0  0  0
  7 14  1  0  0  0  0
  7  5  1  0  0  0  0
  8  4  1  6  0  0  0
  8  1  1  0  0  0  0
 11 19  1  0  0  0  0
 12 11  1  0  0  0  0
 13 12  2  0  0  0  0
 14 11  1  1  0  0  0
 15 16  1  1  0  0  0
 15 14  1  0  0  0  0
 15 13  1  0  0  0  0
 17 18  1  0  0  0  0
 19 20  1  0  0  0  0
 19 21  2  0  0  0  0
 20 17  2  0  0  0  0
 21 18  1  0  0  0  0
 22  4  1  0  0  0  0
 23 22  1  0  0  0  0
 24 28  1  6  0  0  0
 24 31  1  0  0  0  0
 24 30  1  0  0  0  0
 25 29  1  0  0  0  0
 26 33  1  6  0  0  0
 27 23  1  0  0  0  0
 29 27  2  0  0  0  0
 30 32  1  6  0  0  0
 30 27  1  0  0  0  0
 30 26  1  0  0  0  0
 31 25  2  0  0  0  0
 32 26  1  0  0  0  0
 33 34  1  0  0  0  0
 34 35  1  0  0  0  0
 35 36  1  0  0  0  0
M  END
>  <MODEL>
3

>  <REMARK>
 VINA RESULT:      -7.9      3.717      5.225
  Name = 
  8 active torsions:
  status: ('A' for Active; 'I' for Inactive)
    1  A    between atoms: C_5  and  C_11
    2  A    between atoms: C_5  and  N_28
    3  A    between atoms: N_6  and  C_20
    4  A    between atoms: C_8  and  N_28
    5  A    between atoms: C_9  and  C_31
    6  A    between atoms: C_12  and  N_18
    7  A    between atoms: N_18  and  C_31
    8  A    between atoms: C_21  and  C_23
                            x       y       z     vdW  Elec       q    Type
                         _______ _______ _______ _____ _____    ______ ____

>  <TORSDO>
F 8

$$$$
=
 OpenBabel11062416003D

 36 41  0  0  1  0  0  0  0  0999 V2000
  184.9530  178.5000  139.2430 C   0  0  0  0  0  0  0  0  0  0  0  0
  187.2770  178.5500  139.6170 C   0  0  0  0  0  3  0  0  0  0  0  0
  183.4620  178.1050  140.9250 O   0  0  0  0  0  0  0  0  0  0  0  0
  185.7580  178.5680  141.5540 C   0  0  0  0  0  0  0  0  0  0  0  0
  184.0460  177.7890  138.7000 N   0  0  0  0  0  0  0  0  0  0  0  0
  187.0130  178.4920  141.0750 C   0  0  0  0  0  3  0  0  0  0  0  0
  182.9710  177.6470  139.6690 C   0  0  1  0  0  0  0  0  0  0  0  0
  184.6090  178.8680  140.6230 C   0  0  1  0  0  3  0  0  0  0  0  0
  182.6150  176.1700  139.7890 C   0  0  0  0  0  1  0  0  0  0  0  0
  186.2970  178.5340  138.7610 N   0  0  0  0  0  0  0  0  0  0  0  0
  181.3210  179.4050  140.3050 N   0  0  0  0  0  0  0  0  0  0  0  0
  181.4670  180.7320  139.9110 N   0  0  0  0  0  0  0  0  0  0  0  0
  181.9100  180.8010  138.7040 C   0  0  0  0  0  3  0  0  0  0  0  0
  181.7490  178.4970  139.2480 C   0  0  1  0  0  3  0  0  0  0  0  0
  182.1140  179.4480  138.0980 C   0  0  1  0  0  3  0  0  0  0  0  0
  181.1390  179.2520  136.9540 C   0  0  0  0  0  1  0  0  0  0  0  0
  179.2640  177.8760  142.7250 N   0  0  0  0  0  0  0  0  0  0  0  0
  179.5360  179.0330  143.3620 C   0  0  0  0  0  2  0  0  0  0  0  0
  180.5480  179.0300  141.4500 C   0  0  0  0  0  0  0  0  0  0  0  0
  179.8780  177.8730  141.5560 N   0  0  0  0  0  0  0  0  0  0  0  0
  180.3630  179.8140  142.5710 C   0  0  0  0  0  3  0  0  0  0  0  0
  185.5080  178.5210  142.9630 N   0  0  0  0  0  2  0  0  0  0  0  0
  185.8940  177.4070  143.8190 C   0  0  0  0  0  2  0  0  0  0  0  0
  188.3350  177.8090  146.9240 C   0  0  1  0  0  3  0  0  0  0  0  0
  186.2190  179.0920  147.2400 C   0  0  0  0  0  3  0  0  0  0  0  0
  188.9160  178.1580  144.3920 C   0  0  2  0  0  3  0  0  0  0  0  0
  186.4730  177.9210  145.1000 C   0  0  0  0  0  0  0  0  0  0  0  0
  188.2070  176.4280  147.5450 C   0  0  0  0  0  1  0  0  0  0  0  0
  185.6890  178.5770  145.9600 C   0  0  0  0  0  3  0  0  0  0  0  0
  187.9340  177.7680  145.4400 C   0  0  2  0  0  0  0  0  0  0  0  0
  187.4470  178.7700  147.6730 C   0  0  0  0  0  3  0  0  0  0  0  0
  188.6150  176.8050  144.6750 O   0  0  0  0  0  0  0  0  0  0  0  0
  190.2170  178.4900  144.9540 N   0  0  0  0  0  2  0  0  0  0  0  0
  191.0860  178.8320  143.8400 C   0  0  0  0  0  2  0  0  0  0  0  0
  191.6690  177.5730  143.2240 C   0  0  0  0  0  2  0  0  0  0  0  0
  191.9040  176.6330  144.2110 F   0  0  0  0  0  0  0  0  0  0  0  0
  2  6  1  0  0  0  0
  4 22  1  0  0  0  0
  5  1  2  0  0  0  0
  5  7  1  0  0  0  0
  6  4  2  0  0  0  0
  7  9  1  1  0  0  0
  7  3  1  0  0  0  0
  8  1  1  6  0  0  0
  8  3  1  0  0  0  0
  8  4  1  0  0  0  0
 10  1  1  0  0  0  0
 10  2  2  0  0  0  0
 11 19  1  0  0  0  0
 12 11  1  0  0  0  0
 13 12  2  0  0  0  0
 14  7  1  0  0  0  0
 14 11  1  1  0  0  0
 15 16  1  6  0  0  0
 15 13  1  0  0  0  0
 15 14  1  0  0  0  0
 17 18  1  0  0  0  0
 19 20  1  0  0  0  0
 19 21  2  0  0  0  0
 20 17  2  0  0  0  0
 21 18  1  0  0  0  0
 22 23  1  0  0  0  0
 23 27  1  0  0  0  0
 24 28  1  1  0  0  0
 24 31  1  0  0  0  0
 25 31  2  0  0  0  0
 26 32  1  0  0  0  0
 26 33  1  1  0  0  0
 26 30  1  0  0  0  0
 27 30  1  0  0  0  0
 27 29  2  0  0  0  0
 29 25  1  0  0  0  0
 30 32  1  6  0  0  0
 30 24  1  0  0  0  0
 34 33  1  0  0  0  0
 35 34  1  0  0  0  0
 35 36  1  0  0  0  0
M  END
>  <MODEL>
4

>  <REMARK>
 VINA RESULT:      -7.9      5.154      8.995
  Name = 
  8 active torsions:
  status: ('A' for Active; 'I' for Inactive)
    1  A    between atoms: C_5  and  C_11
    2  A    between atoms: C_5  and  N_28
    3  A    between atoms: N_6  and  C_20
    4  A    between atoms: C_8  and  N_28
    5  A    between atoms: C_9  and  C_31
    6  A    between atoms: C_12  and  N_18
    7  A    between atoms: N_18  and  C_31
    8  A    between atoms: C_21  and  C_23
                            x       y       z     vdW  Elec       q    Type
                         _______ _______ _______ _____ _____    ______ ____

>  <TORSDO>
F 8

$$$$
=
 OpenBabel11062416003D

 36 41  0  0  1  0  0  0  0  0999 V2000
  181.9800  178.6470  141.2450 C   0  0  0  0  0  0  0  0  0  0  0  0
  181.5700  178.9600  143.5430 C   0  0  0  0  0  3  0  0  0  0  0  0
  184.0820  178.7450  140.3630 O   0  0  0  0  0  0  0  0  0  0  0  0
  183.8890  178.6370  142.7790 C   0  0  0  0  0  0  0  0  0  0  0  0
  181.8230  179.2200  140.1190 N   0  0  0  0  0  0  0  0  0  0  0  0
  183.0340  178.9280  143.7770 C   0  0  0  0  0  3  0  0  0  0  0  0
  183.0980  179.1570  139.4210 C   0  0  1  0  0  0  0  0  0  0  0  0
  183.3610  178.1860  141.4390 C   0  0  1  0  0  3  0  0  0  0  0  0
  183.4490  180.5540  138.9220 C   0  0  0  0  0  1  0  0  0  0  0  0
  181.0850  178.8450  142.3410 N   0  0  0  0  0  0  0  0  0  0  0  0
  184.2370  177.3250  138.1710 N   0  0  0  0  0  0  0  0  0  0  0  0
  183.9550  175.9830  138.4080 N   0  0  0  0  0  0  0  0  0  0  0  0
  182.6940  175.8130  138.6100 C   0  0  0  0  0  3  0  0  0  0  0  0
  183.0290  178.1360  138.2620 C   0  0  1  0  0  3  0  0  0  0  0  0
  181.9280  177.0950  138.5140 C   0  0  1  0  0  3  0  0  0  0  0  0
  181.0000  177.0430  137.3170 C   0  0  0  0  0  1  0  0  0  0  0  0
  187.3830  178.7200  137.4070 N   0  0  0  0  0  0  0  0  0  0  0  0
  187.1060  178.1320  136.2250 C   0  0  0  0  0  3  0  0  0  0  0  0
  185.4760  177.7540  137.5950 C   0  0  0  0  0  0  0  0  0  0  0  0
  186.3870  178.4940  138.2450 N   0  0  0  0  0  2  0  0  0  0  0  0
  185.8770  177.4970  136.3010 C   0  0  0  0  0  3  0  0  0  0  0  0
  185.3000  178.5990  143.0110 N   0  0  0  0  0  2  0  0  0  0  0  0
  185.9820  177.5030  143.6880 C   0  0  0  0  0  2  0  0  0  0  0  0
  188.3030  177.7850  146.8960 C   0  0  1  0  0  3  0  0  0  0  0  0
  186.1680  179.0410  147.1870 C   0  0  0  0  0  3  0  0  0  0  0  0
  188.9750  178.2440  144.4050 C   0  0  2  0  0  3  0  0  0  0  0  0
  186.5100  177.9650  145.0090 C   0  0  0  0  0  0  0  0  0  0  0  0
  188.1620  176.3780  147.4520 C   0  0  0  0  0  1  0  0  0  0  0  0
  185.6890  178.5790  145.8670 C   0  0  0  0  0  3  0  0  0  0  0  0
  187.9580  177.8050  145.3970 C   0  0  2  0  0  0  0  0  0  0  0  0
  187.3820  178.7070  147.6510 C   0  0  0  0  0  3  0  0  0  0  0  0
  188.6730  176.8790  144.6180 O   0  0  0  0  0  0  0  0  0  0  0  0
  190.2530  178.5580  145.0280 N   0  0  0  0  0  2  0  0  0  0  0  0
  191.1500  178.9840  143.9670 C   0  0  0  0  0  2  0  0  0  0  0  0
  191.6810  177.7780  143.2130 C   0  0  0  0  0  2  0  0  0  0  0  0
  191.3480  177.8780  141.8750 F   0  0  0  0  0  0  0  0  0  0  0  0
  1  8  1  0  0  0  0
  1 10  1  0  0  0  0
  2  6  1  0  0  0  0
  4 22  1  0  0  0  0
  4  6  2  0  0  0  0
  5  1  2  0  0  0  0
  7  9  1  6  0  0  0
  7  5  1  0  0  0  0
  7  3  1  0  0  0  0
  8  3  1  6  0  0  0
  8  4  1  0  0  0  0
 10  2  2  0  0  0  0
 11 12  1  0  0  0  0
 12 13  2  0  0  0  0
 14 11  1  1  0  0  0
 14 15  1  0  0  0  0
 14  7  1  0  0  0  0
 15 16  1  6  0  0  0
 15 13  1  0  0  0  0
 17 20  1  0  0  0  0
 18 21  1  0  0  0  0
 18 17  2  0  0  0  0
 19 11  1  0  0  0  0
 19 20  1  0  0  0  0
 21 19  2  0  0  0  0
 22 23  1  0  0  0  0
 23 27  1  0  0  0  0
 24 28  1  1  0  0  0
 24 31  1  0  0  0  0
 25 31  2  0  0  0  0
 26 32  1  0  0  0  0
 26 33  1  1  0  0  0
 26 30  1  0  0  0  0
 27 30  1  0  0  0  0
 27 29  2  0  0  0  0
 29 25  1  0  0  0  0
 30 32  1  6  0  0  0
 30 24  1  0  0  0  0
 34 33  1  0  0  0  0
 35 34  1  0  0  0  0
 36 35  1  0  0  0  0
M  END
>  <MODEL>
5

>  <REMARK>
 VINA RESULT:      -7.8      5.018      9.472
  Name = 
  8 active torsions:
  status: ('A' for Active; 'I' for Inactive)
    1  A    between atoms: C_5  and  C_11
    2  A    between atoms: C_5  and  N_28
    3  A    between atoms: N_6  and  C_20
    4  A    between atoms: C_8  and  N_28
    5  A    between atoms: C_9  and  C_31
    6  A    between atoms: C_12  and  N_18
    7  A    between atoms: N_18  and  C_31
    8  A    between atoms: C_21  and  C_23
                            x       y       z     vdW  Elec       q    Type
                         _______ _______ _______ _____ _____    ______ ____

>  <TORSDO>
F 8

$$$$
=
 OpenBabel11062416003D

 36 41  0  0  1  0  0  0  0  0999 V2000
  182.6430  178.6340  141.8270 C   0  0  0  0  0  0  0  0  0  0  0  0
  182.9740  179.1000  144.1110 C   0  0  0  0  0  3  0  0  0  0  0  0
  184.3850  178.2960  140.3920 O   0  0  0  0  0  0  0  0  0  0  0  0
  184.8800  178.3120  142.7670 C   0  0  0  0  0  0  0  0  0  0  0  0
  182.2700  179.1860  140.7410 N   0  0  0  0  0  0  0  0  0  0  0  0
  184.4140  178.7970  143.9330 C   0  0  0  0  0  3  0  0  0  0  0  0
  183.2580  178.8560  139.7270 C   0  0  1  0  0  0  0  0  0  0  0  0
  183.9190  177.9240  141.6700 C   0  0  1  0  0  3  0  0  0  0  0  0
  183.6880  180.1410  139.0280 C   0  0  0  0  0  1  0  0  0  0  0  0
  182.1510  179.0380  143.1050 N   0  0  0  0  0  0  0  0  0  0  0  0
  183.6770  176.8440  138.3140 N   0  0  0  0  0  0  0  0  0  0  0  0
  183.3130  175.5650  138.7250 N   0  0  0  0  0  0  0  0  0  0  0  0
  182.1760  175.5890  139.3300 C   0  0  0  0  0  3  0  0  0  0  0  0
  182.6820  177.8270  138.7260 C   0  0  1  0  0  3  0  0  0  0  0  0
  181.5960  176.9670  139.3910 C   0  0  1  0  0  3  0  0  0  0  0  0
  180.3310  177.0210  138.5590 C   0  0  0  0  0  1  0  0  0  0  0  0
  186.5740  177.7020  136.4990 N   0  0  0  0  0  0  0  0  0  0  0  0
  185.8240  177.1980  135.4980 C   0  0  0  0  0  3  0  0  0  0  0  0
  184.7050  177.0700  137.3450 C   0  0  0  0  0  0  0  0  0  0  0  0
  185.8920  177.6280  137.6280 N   0  0  0  0  0  2  0  0  0  0  0  0
  184.6030  176.7790  136.0000 C   0  0  0  0  0  3  0  0  0  0  0  0
  186.2700  178.0120  142.6020 N   0  0  0  0  0  2  0  0  0  0  0  0
  187.1440  177.5910  143.6890 C   0  0  0  0  0  2  0  0  0  0  0  0
  191.0660  178.2070  143.6320 C   0  0  1  0  0  3  0  0  0  0  0  0
  190.2260  177.3930  141.4290 C   0  0  0  0  0  3  0  0  0  0  0  0
  189.7030  176.8130  145.3840 C   0  0  2  0  0  3  0  0  0  0  0  0
  188.5670  177.5740  143.2270 C   0  0  0  0  0  0  0  0  0  0  0  0
  191.0980  179.7260  143.6500 C   0  0  0  0  0  1  0  0  0  0  0  0
  188.8340  177.4060  141.9280 C   0  0  0  0  0  3  0  0  0  0  0  0
  189.7260  177.6930  144.1840 C   0  0  2  0  0  0  0  0  0  0  0  0
  191.2590  177.7280  142.2160 C   0  0  0  0  0  3  0  0  0  0  0  0
  189.3860  178.1900  145.4540 O   0  0  0  0  0  0  0  0  0  0  0  0
  191.0330  176.5970  145.9330 N   0  0  0  0  0  2  0  0  0  0  0  0
  190.8760  176.4060  147.3660 C   0  0  0  0  0  2  0  0  0  0  0  0
  192.2120  176.0590  147.9980 C   0  0  0  0  0  2  0  0  0  0  0  0
  192.9370  175.2460  147.1450 F   0  0  0  0  0  0  0  0  0  0  0  0
  1 10  1  0  0  0  0
  4  6  2  0  0  0  0
  5  1  2  0  0  0  0
  6  2  1  0  0  0  0
  7  9  1  6  0  0  0
  7  3  1  0  0  0  0
  7  5  1  0  0  0  0
  8  3  1  6  0  0  0
  8  1  1  0  0  0  0
  8  4  1  0  0  0  0
 10  2  2  0  0  0  0
 11 12  1  0  0  0  0
 12 13  2  0  0  0  0
 13 15  1  0  0  0  0
 14 11  1  1  0  0  0
 14 15  1  0  0  0  0
 14  7  1  0  0  0  0
 15 16  1  6  0  0  0
 17 20  1  0  0  0  0
 18 21  1  0  0  0  0
 18 17  2  0  0  0  0
 19 20  1  0  0  0  0
 19 11  1  0  0  0  0
 21 19  2  0  0  0  0
 22  4  1  0  0  0  0
 22 23  1  0  0  0  0
 24 28  1  6  0  0  0
 24 30  1  0  0  0  0
 25 29  1  0  0  0  0
 25 31  2  0  0  0  0
 26 32  1  0  0  0  0
 26 33  1  1  0  0  0
 27 23  1  0  0  0  0
 29 27  2  0  0  0  0
 30 27  1  6  0  0  0
 30 26  1  0  0  0  0
 30 32  1  0  0  0  0
 31 24  1  0  0  0  0
 33 34  1  0  0  0  0
 34 35  1  0  0  0  0
 36 35  1  0  0  0  0
M  END
>  <MODEL>
6

>  <REMARK>
 VINA RESULT:      -7.7      4.955      8.610
  Name = 
  8 active torsions:
  status: ('A' for Active; 'I' for Inactive)
    1  A    between atoms: C_5  and  C_11
    2  A    between atoms: C_5  and  N_28
    3  A    between atoms: N_6  and  C_20
    4  A    between atoms: C_8  and  N_28
    5  A    between atoms: C_9  and  C_31
    6  A    between atoms: C_12  and  N_18
    7  A    between atoms: N_18  and  C_31
    8  A    between atoms: C_21  and  C_23
                            x       y       z     vdW  Elec       q    Type
                         _______ _______ _______ _____ _____    ______ ____

>  <TORSDO>
F 8

$$$$
=
 OpenBabel11062416003D

 36 41  0  0  1  0  0  0  0  0999 V2000
  182.9510  178.6160  141.9410 C   0  0  0  0  0  0  0  0  0  0  0  0
  183.4290  179.0410  144.2080 C   0  0  0  0  0  3  0  0  0  0  0  0
  184.5970  178.2780  140.3970 O   0  0  0  0  0  0  0  0  0  0  0  0
  185.2380  178.2490  142.7370 C   0  0  0  0  0  0  0  0  0  0  0  0
  182.5200  179.1910  140.8900 N   0  0  0  0  0  0  0  0  0  0  0  0
  184.8510  178.7210  143.9370 C   0  0  0  0  0  3  0  0  0  0  0  0
  183.4400  178.8640  139.8110 C   0  0  1  0  0  0  0  0  0  0  0  0
  184.2050  177.8920  141.6960 C   0  0  1  0  0  3  0  0  0  0  0  0
  183.8440  180.1540  139.1070 C   0  0  0  0  0  1  0  0  0  0  0  0
  182.5450  179.0070  143.2540 N   0  0  0  0  0  0  0  0  0  0  0  0
  183.7400  176.8670  138.3480 N   0  0  0  0  0  0  0  0  0  0  0  0
  183.3810  175.5880  138.7620 N   0  0  0  0  0  0  0  0  0  0  0  0
  182.2830  175.6200  139.4340 C   0  0  0  0  0  3  0  0  0  0  0  0
  182.7880  177.8590  138.8330 C   0  0  1  0  0  3  0  0  0  0  0  0
  181.7300  177.0060  139.5490 C   0  0  1  0  0  3  0  0  0  0  0  0
  180.4180  177.0920  138.7950 C   0  0  0  0  0  1  0  0  0  0  0  0
  186.6000  177.5140  136.3920 N   0  0  0  0  0  0  0  0  0  0  0  0
  185.6810  177.3970  135.4120 C   0  0  0  0  0  3  0  0  0  0  0  0
  184.7130  177.0920  137.3220 C   0  0  0  0  0  0  0  0  0  0  0  0
  186.0110  177.3310  137.5600 N   0  0  0  0  0  2  0  0  0  0  0  0
  184.4420  177.1280  135.9690 C   0  0  0  0  0  3  0  0  0  0  0  0
  186.6100  177.9330  142.4820 N   0  0  0  0  0  2  0  0  0  0  0  0
  187.3470  176.8900  143.1830 C   0  0  0  0  0  2  0  0  0  0  0  0
  191.3090  177.0990  143.3120 C   0  0  1  0  0  3  0  0  0  0  0  0
  190.2480  178.6270  144.9740 C   0  0  0  0  0  3  0  0  0  0  0  0
  189.7760  177.3010  141.1960 C   0  0  2  0  0  3  0  0  0  0  0  0
  188.7220  177.3710  143.5210 C   0  0  0  0  0  0  0  0  0  0  0  0
  191.6260  175.7610  143.9600 C   0  0  0  0  0  1  0  0  0  0  0  0
  188.9040  178.1390  144.5990 C   0  0  0  0  0  3  0  0  0  0  0  0
  189.9180  177.0600  142.6570 C   0  0  2  0  0  0  0  0  0  0  0  0
  191.3550  178.1780  144.3630 C   0  0  0  0  0  3  0  0  0  0  0  0
  189.7260  176.0010  141.7520 O   0  0  0  0  0  0  0  0  0  0  0  0
  191.0630  177.4960  140.5430 N   0  0  0  0  0  2  0  0  0  0  0  0
  190.8500  177.3020  139.1180 C   0  0  0  0  0  2  0  0  0  0  0  0
  189.4310  177.6920  138.7430 C   0  0  0  0  0  2  0  0  0  0  0  0
  189.4060  179.0040  138.3060 F   0  0  0  0  0  0  0  0  0  0  0  0
  1 10  1  0  0  0  0
  4  6  2  0  0  0  0
  5  1  2  0  0  0  0
  6  2  1  0  0  0  0
  7  9  1  6  0  0  0
  7  3  1  0  0  0  0
  7  5  1  0  0  0  0
  8  3  1  6  0  0  0
  8  1  1  0  0  0  0
  8  4  1  0  0  0  0
 10  2  2  0  0  0  0
 11 12  1  0  0  0  0
 12 13  2  0  0  0  0
 13 15  1  0  0  0  0
 14 11  1  1  0  0  0
 14 15  1  0  0  0  0
 14  7  1  0  0  0  0
 15 16  1  6  0  0  0
 17 20  1  0  0  0  0
 18 21  1  0  0  0  0
 18 17  2  0  0  0  0
 19 20  1  0  0  0  0
 19 11  1  0  0  0  0
 21 19  2  0  0  0  0
 22  4  1  0  0  0  0
 22 23  1  0  0  0  0
 23 27  1  0  0  0  0
 24 28  1  1  0  0  0
 24 31  1  0  0  0  0
 26 33  1  6  0  0  0
 26 32  1  0  0  0  0
 26 30  1  0  0  0  0
 27 29  2  0  0  0  0
 29 25  1  0  0  0  0
 30 32  1  6  0  0  0
 30 24  1  0  0  0  0
 30 27  1  0  0  0  0
 31 25  2  0  0  0  0
 34 33  1  0  0  0  0
 35 34  1  0  0  0  0
 36 35  1  0  0  0  0
M  END
>  <MODEL>
7

>  <REMARK>
 VINA RESULT:      -7.7      4.021      8.277
  Name = 
  8 active torsions:
  status: ('A' for Active; 'I' for Inactive)
    1  A    between atoms: C_5  and  C_11
    2  A    between atoms: C_5  and  N_28
    3  A    between atoms: N_6  and  C_20
    4  A    between atoms: C_8  and  N_28
    5  A    between atoms: C_9  and  C_31
    6  A    between atoms: C_12  and  N_18
    7  A    between atoms: N_18  and  C_31
    8  A    between atoms: C_21  and  C_23
                            x       y       z     vdW  Elec       q    Type
                         _______ _______ _______ _____ _____    ______ ____

>  <TORSDO>
F 8

$$$$
=
 OpenBabel11062416003D

 36 41  0  0  1  0  0  0  0  0999 V2000
  182.6750  178.5570  141.9520 C   0  0  0  0  0  0  0  0  0  0  0  0
  182.6050  179.3060  144.1830 C   0  0  0  0  0  3  0  0  0  0  0  0
  184.6420  178.1080  140.8840 O   0  0  0  0  0  0  0  0  0  0  0  0
  184.7230  178.4280  143.2870 C   0  0  0  0  0  0  0  0  0  0  0  0
  182.4860  178.9620  140.7590 N   0  0  0  0  0  0  0  0  0  0  0  0
  184.0580  179.0330  144.2890 C   0  0  0  0  0  3  0  0  0  0  0  0
  183.6380  178.5450  139.9740 C   0  0  1  0  0  0  0  0  0  0  0  0
  183.9690  177.8770  142.1020 C   0  0  1  0  0  3  0  0  0  0  0  0
  184.1630  179.7500  139.2030 C   0  0  0  0  0  1  0  0  0  0  0  0
  181.9670  179.0960  143.0690 N   0  0  0  0  0  0  0  0  0  0  0  0
  181.8370  177.3980  138.6860 N   0  0  0  0  0  0  0  0  0  0  0  0
  181.6550  177.6100  137.3220 N   0  0  0  0  0  0  0  0  0  0  0  0
  182.7910  177.7020  136.7220 C   0  0  0  0  0  3  0  0  0  0  0  0
  183.2540  177.3840  139.0270 C   0  0  1  0  0  3  0  0  0  0  0  0
  183.9430  177.5390  137.6630 C   0  0  1  0  0  3  0  0  0  0  0  0
  184.6940  176.2660  137.3300 C   0  0  0  0  0  1  0  0  0  0  0  0
  179.0020  176.9560  140.7340 N   0  0  0  0  0  0  0  0  0  0  0  0
  179.5270  175.7150  140.8070 C   0  0  0  0  0  2  0  0  0  0  0  0
  180.7810  176.9330  139.5330 C   0  0  0  0  0  0  0  0  0  0  0  0
  179.7680  177.7030  139.9590 N   0  0  0  0  0  0  0  0  0  0  0  0
  180.6830  175.6560  140.0460 C   0  0  0  0  0  3  0  0  0  0  0  0
  186.1240  178.1570  143.3970 N   0  0  0  0  0  2  0  0  0  0  0  0
  186.7420  177.5300  144.5580 C   0  0  0  0  0  2  0  0  0  0  0  0
  190.7100  177.6200  144.4840 C   0  0  1  0  0  3  0  0  0  0  0  0
  189.7920  175.9920  142.8320 C   0  0  0  0  0  3  0  0  0  0  0  0
  189.1670  177.3320  146.5830 C   0  0  2  0  0  3  0  0  0  0  0  0
  188.1550  177.1500  144.2460 C   0  0  0  0  0  0  0  0  0  0  0  0
  190.9340  178.9680  143.8200 C   0  0  0  0  0  1  0  0  0  0  0  0
  188.4090  176.3820  143.1820 C   0  0  0  0  0  3  0  0  0  0  0  0
  189.3110  177.5630  145.1200 C   0  0  2  0  0  0  0  0  0  0  0  0
  190.8520  176.5330  143.4500 C   0  0  0  0  0  3  0  0  0  0  0  0
  189.0260  178.6170  146.0070 O   0  0  0  0  0  0  0  0  0  0  0  0
  190.4550  177.2450  147.2550 N   0  0  0  0  0  2  0  0  0  0  0  0
  190.7740  175.8320  147.3810 C   0  0  0  0  0  2  0  0  0  0  0  0
  192.2780  175.6290  147.3430 C   0  0  0  0  0  2  0  0  0  0  0  0
  192.6220  174.8790  146.2320 F   0  0  0  0  0  0  0  0  0  0  0  0
  1  8  1  0  0  0  0
  1 10  1  0  0  0  0
  2  6  1  0  0  0  0
  4 22  1  0  0  0  0
  4  6  2  0  0  0  0
  5  1  2  0  0  0  0
  7  9  1  6  0  0  0
  7  5  1  0  0  0  0
  7  3  1  0  0  0  0
  8  3  1  6  0  0  0
  8  4  1  0  0  0  0
 10  2  2  0  0  0  0
 11 19  1  0  0  0  0
 12 11  1  0  0  0  0
 13 12  2  0  0  0  0
 13 15  1  0  0  0  0
 14 11  1  6  0  0  0
 14  7  1  0  0  0  0
 15 16  1  6  0  0  0
 15 14  1  0  0  0  0
 17 18  1  0  0  0  0
 19 20  1  0  0  0  0
 19 21  2  0  0  0  0
 20 17  2  0  0  0  0
 21 18  1  0  0  0  0
 22 23  1  0  0  0  0
 24 28  1  6  0  0  0
 24 30  1  0  0  0  0
 25 29  1  0  0  0  0
 25 31  2  0  0  0  0
 26 33  1  1  0  0  0
 27 23  1  0  0  0  0
 29 27  2  0  0  0  0
 30 27  1  6  0  0  0
 30 32  1  0  0  0  0
 30 26  1  0  0  0  0
 31 24  1  0  0  0  0
 32 26  1  0  0  0  0
 33 34  1  0  0  0  0
 35 34  1  0  0  0  0
 36 35  1  0  0  0  0
M  END
>  <MODEL>
8

>  <REMARK>
 VINA RESULT:      -7.6      5.480      8.711
  Name = 
  8 active torsions:
  status: ('A' for Active; 'I' for Inactive)
    1  A    between atoms: C_5  and  C_11
    2  A    between atoms: C_5  and  N_28
    3  A    between atoms: N_6  and  C_20
    4  A    between atoms: C_8  and  N_28
    5  A    between atoms: C_9  and  C_31
    6  A    between atoms: C_12  and  N_18
    7  A    between atoms: N_18  and  C_31
    8  A    between atoms: C_21  and  C_23
                            x       y       z     vdW  Elec       q    Type
                         _______ _______ _______ _____ _____    ______ ____

>  <TORSDO>
F 8

$$$$
=
 OpenBabel11062416003D

 36 41  0  0  1  0  0  0  0  0999 V2000
  186.5910  178.5350  142.7000 C   0  0  0  0  0  0  0  0  0  0  0  0
  184.7610  178.8660  141.2560 C   0  0  0  0  0  3  0  0  0  0  0  0
  188.6070  177.7740  141.9490 O   0  0  0  0  0  0  0  0  0  0  0  0
  186.9920  178.4830  140.2850 C   0  0  0  0  0  0  0  0  0  0  0  0
  187.0020  177.7630  143.6260 N   0  0  0  0  0  0  0  0  0  0  0  0
  185.6650  178.6290  140.1050 C   0  0  0  0  0  3  0  0  0  0  0  0
  188.3650  177.3790  143.2960 C   0  0  1  0  0  0  0  0  0  0  0  0
  187.6000  178.7130  141.6470 C   0  0  1  0  0  3  0  0  0  0  0  0
  188.4820  175.8630  143.3920 C   0  0  0  0  0  1  0  0  0  0  0  0
  185.2060  178.8000  142.4770 N   0  0  0  0  0  0  0  0  0  0  0  0
  189.4700  177.4330  145.5310 N   0  0  0  0  0  0  0  0  0  0  0  0
  190.7510  176.9260  145.7340 N   0  0  0  0  0  0  0  0  0  0  0  0
  191.5130  177.2050  144.7340 C   0  0  0  0  0  3  0  0  0  0  0  0
  189.3690  178.0900  144.2330 C   0  0  1  0  0  3  0  0  0  0  0  0
  190.7990  177.9920  143.6810 C   0  0  1  0  0  3  0  0  0  0  0  0
  191.4000  179.3800  143.5890 C   0  0  0  0  0  1  0  0  0  0  0  0
  186.7400  178.1250  147.6500 N   0  0  0  0  0  0  0  0  0  0  0  0
  187.5530  177.5030  148.5290 C   0  0  0  0  0  2  0  0  0  0  0  0
  188.5240  177.5650  146.5970 C   0  0  0  0  0  0  0  0  0  0  0  0
  187.3320  178.1670  146.4700 N   0  0  0  0  0  0  0  0  0  0  0  0
  188.7220  177.1260  147.8900 C   0  0  0  0  0  3  0  0  0  0  0  0
  187.8620  178.2630  139.1710 N   0  0  0  0  0  2  0  0  0  0  0  0
  187.3970  178.0620  137.8040 C   0  0  0  0  0  2  0  0  0  0  0  0
  189.1070  174.8050  136.3110 C   0  0  1  0  0  3  0  0  0  0  0  0
  186.6930  174.4320  136.8150 C   0  0  0  0  0  3  0  0  0  0  0  0
  189.9540  176.2670  138.3150 C   0  0  2  0  0  3  0  0  0  0  0  0
  187.5990  176.6360  137.3990 C   0  0  0  0  0  0  0  0  0  0  0  0
  189.2790  175.2340  134.8640 C   0  0  0  0  0  1  0  0  0  0  0  0
  186.5370  175.8440  137.2250 C   0  0  0  0  0  3  0  0  0  0  0  0
  188.9720  176.0370  137.2220 C   0  0  2  0  0  0  0  0  0  0  0  0
  187.8780  173.9400  136.4260 C   0  0  0  0  0  3  0  0  0  0  0  0
  190.0080  176.9790  137.0930 O   0  0  0  0  0  0  0  0  0  0  0  0
  191.0040  175.2590  138.3320 N   0  0  0  0  0  2  0  0  0  0  0  0
  192.2650  175.9560  138.1350 C   0  0  0  0  0  2  0  0  0  0  0  0
  193.1430  175.1880  137.1640 C   0  0  0  0  0  2  0  0  0  0  0  0
  194.4720  175.4970  137.3870 F   0  0  0  0  0  0  0  0  0  0  0  0
  1  5  2  0  0  0  0
  2 10  2  0  0  0  0
  3  7  1  0  0  0  0
  6  4  2  0  0  0  0
  6  2  1  0  0  0  0
  7  9  1  1  0  0  0
  7  5  1  0  0  0  0
  7 14  1  0  0  0  0
  8  4  1  6  0  0  0
  8  3  1  0  0  0  0
  8  1  1  0  0  0  0
 10  1  1  0  0  0  0
 11 12  1  0  0  0  0
 11 19  1  0  0  0  0
 13 12  2  0  0  0  0
 14 11  1  1  0  0  0
 15 16  1  1  0  0  0
 15 14  1  0  0  0  0
 15 13  1  0  0  0  0
 17 18  1  0  0  0  0
 19 21  2  0  0  0  0
 20 19  1  0  0  0  0
 20 17  2  0  0  0  0
 21 18  1  0  0  0  0
 22  4  1  0  0  0  0
 23 22  1  0  0  0  0
 24 28  1  6  0  0  0
 24 31  1  0  0  0  0
 24 30  1  0  0  0  0
 25 29  1  0  0  0  0
 26 33  1  6  0  0  0
 27 23  1  0  0  0  0
 29 27  2  0  0  0  0
 30 32  1  6  0  0  0
 30 27  1  0  0  0  0
 30 26  1  0  0  0  0
 31 25  2  0  0  0  0
 32 26  1  0  0  0  0
 34 33  1  0  0  0  0
 35 36  1  0  0  0  0
 35 34  1  0  0  0  0
M  END
>  <MODEL>
9

>  <REMARK>
 VINA RESULT:      -7.4      2.263      3.534
  Name = 
  8 active torsions:
  status: ('A' for Active; 'I' for Inactive)
    1  A    between atoms: C_5  and  C_11
    2  A    between atoms: C_5  and  N_28
    3  A    between atoms: N_6  and  C_20
    4  A    between atoms: C_8  and  N_28
    5  A    between atoms: C_9  and  C_31
    6  A    between atoms: C_12  and  N_18
    7  A    between atoms: N_18  and  C_31
    8  A    between atoms: C_21  and  C_23
                            x       y       z     vdW  Elec       q    Type
                         _______ _______ _______ _____ _____    ______ ____

>  <TORSDO>
F 8

$$$$
