=
 OpenBabel11062414513D

 33 35  0  0  1  0  0  0  0  0999 V2000
  184.7990  178.7670  142.3620 C   0  0  2  0  0  3  0  0  0  0  0  0
  181.5510  178.7640  144.1600 O   0  0  0  0  0  0  0  0  0  0  0  0
  181.9180  178.7920  142.9790 C   0  0  0  0  0  0  0  0  0  0  0  0
  181.0370  178.5580  139.7390 O   0  0  0  0  0  0  0  0  0  0  0  0
  183.7060  178.4750  141.3730 C   0  0  0  0  0  0  0  0  0  0  0  0
  183.0890  177.5460  139.0890 C   0  0  0  0  0  2  0  0  0  0  0  0
  181.4090  179.4730  140.7280 C   0  0  0  0  0  2  0  0  0  0  0  0
  182.0530  178.6130  138.7790 C   0  0  0  0  0  2  0  0  0  0  0  0
  184.0410  177.9690  140.1730 C   0  0  0  0  0  3  0  0  0  0  0  0
  182.3090  178.8220  141.7330 C   0  0  0  0  0  0  0  0  0  0  0  0
  186.1170  178.6560  141.7210 C   0  0  0  0  0  0  0  0  0  0  0  0
  187.1910  178.5680  141.1800 C   0  0  0  0  0  0  0  0  0  0  0  0
  189.5540  177.8330  138.3170 C   0  0  0  0  0  2  0  0  0  0  0  0
  190.6780  177.2100  140.4510 C   0  0  0  0  0  2  0  0  0  0  0  0
  190.3820  176.7680  139.0230 C   0  0  0  0  0  2  0  0  0  0  0  0
  188.4870  178.4650  140.5020 C   0  0  1  0  0  3  0  0  0  0  0  0
  189.3810  177.4460  141.2250 C   0  0  2  0  0  3  0  0  0  0  0  0
  188.2370  178.0360  139.0570 C   0  0  0  0  0  2  0  0  0  0  0  0
  189.7290  177.9270  142.6280 C   0  0  0  0  0  2  0  0  0  0  0  0
  191.2340  178.0450  142.7820 C   0  0  0  0  0  2  0  0  0  0  0  0
  191.5530  178.4610  144.1380 N   0  0  0  0  0  2  0  0  0  0  0  0
  190.7580  177.6480  145.0430 C   0  0  0  0  0  2  0  0  0  0  0  0
  191.6050  176.5260  145.6290 C   0  0  0  0  0  2  0  0  0  0  0  0
  190.5590  177.0280  147.7130 O   0  0  0  0  0  0  0  0  0  0  0  0
  192.6140  176.0210  147.8530 O   0  0  0  0  0  1  0  0  0  0  0  0
  191.5620  176.5520  147.1180 C   0  0  0  0  0  0  0  0  0  0  0  0
  184.7160  177.8850  143.4800 O   0  0  0  0  0  0  0  0  0  0  0  0
  187.4280  177.5910  146.0090 C   0  0  0  0  0  3  0  0  0  0  0  0
  186.7020  177.4060  144.8280 C   0  0  0  0  0  3  0  0  0  0  0  0
  185.4680  178.0520  144.6470 C   0  0  0  0  0  0  0  0  0  0  0  0
  184.9740  178.8850  145.6560 C   0  0  0  0  0  3  0  0  0  0  0  0
  185.6990  179.0690  146.8370 C   0  0  0  0  0  3  0  0  0  0  0  0
  186.9250  178.4220  147.0130 C   0  0  0  0  0  3  0  0  0  0  0  0
  1 11  1  6  0  0  0
  1 27  1  0  0  0  0
  3  2  2  0  0  0  0
  4  7  1  0  0  0  0
  5 10  1  0  0  0  0
  5  1  1  0  0  0  0
  6  9  1  0  0  0  0
  7 10  1  0  0  0  0
  8  6  1  0  0  0  0
  8  4  1  0  0  0  0
  9  5  2  0  0  0  0
 10  3  2  0  0  0  0
 12 11  3  0  0  0  0
 13 15  1  0  0  0  0
 13 18  1  0  0  0  0
 14 17  1  0  0  0  0
 15 14  1  0  0  0  0
 16 12  1  1  0  0  0
 16 17  1  0  0  0  0
 17 19  1  1  0  0  0
 18 16  1  0  0  0  0
 19 20  1  0  0  0  0
 20 21  1  0  0  0  0
 21 22  1  0  0  0  0
 22 23  1  0  0  0  0
 23 26  1  0  0  0  0
 26 24  2  0  0  0  0
 26 25  1  0  0  0  0
 27 30  1  0  0  0  0
 28 33  1  0  0  0  0
 29 28  2  0  0  0  0
 30 29  1  0  0  0  0
 30 31  2  0  0  0  0
 31 32  1  0  0  0  0
 32 33  2  0  0  0  0
M  END
>  <MODEL>
1

>  <REMARK>
 VINA RESULT:      -8.3      0.000      0.000
  Name = 
  11 active torsions:
  status: ('A' for Active; 'I' for Inactive)
    1  A    between atoms: C_1  and  C_11
    2  A    between atoms: O_3  and  C_10
    3  A    between atoms: O_3  and  C_11
    4  A    between atoms: C_4  and  C_22
    5  A    between atoms: C_4  and  C_25
    6  A    between atoms: C_11  and  C_18
    7  A    between atoms: C_12  and  N_21
    8  A    between atoms: C_12  and  C_26
    9  A    between atoms: C_15  and  C_27
   10  A    between atoms: C_19  and  C_26
   11  A    between atoms: N_21  and  C_22
                            x       y       z     vdW  Elec       q    Type
                         _______ _______ _______ _____ _____    ______ ____

>  <TORSDO>
F 11

$$$$
=
 OpenBabel11062414513D

 33 35  0  0  1  0  0  0  0  0999 V2000
  188.5810  178.2540  141.5670 C   0  0  2  0  0  3  0  0  0  0  0  0
  191.9610  177.4670  140.2450 O   0  0  0  0  0  0  0  0  0  0  0  0
  191.4460  177.5980  141.3630 C   0  0  0  0  0  0  0  0  0  0  0  0
  191.7810  177.2150  144.6900 O   0  0  0  0  0  0  0  0  0  0  0  0
  189.4250  177.7300  142.6950 C   0  0  0  0  0  0  0  0  0  0  0  0
  189.4800  176.7190  145.0260 C   0  0  0  0  0  2  0  0  0  0  0  0
  191.7760  178.1760  143.6750 C   0  0  0  0  0  2  0  0  0  0  0  0
  190.6810  177.5200  145.4980 C   0  0  0  0  0  2  0  0  0  0  0  0
  188.8150  177.3350  143.8270 C   0  0  0  0  0  3  0  0  0  0  0  0
  190.9010  177.7370  142.5420 C   0  0  0  0  0  0  0  0  0  0  0  0
  187.1580  178.2260  141.9320 C   0  0  0  0  0  0  0  0  0  0  0  0
  185.9900  178.1870  142.2260 C   0  0  0  0  0  0  0  0  0  0  0  0
  182.2620  178.1370  141.5680 C   0  0  0  0  0  2  0  0  0  0  0  0
  182.6730  179.3500  143.7050 C   0  0  0  0  0  2  0  0  0  0  0  0
  181.9090  179.3700  142.3870 C   0  0  0  0  0  2  0  0  0  0  0  0
  184.5660  178.1200  142.5720 C   0  0  1  0  0  3  0  0  0  0  0  0
  184.1810  179.3170  143.4560 C   0  0  2  0  0  3  0  0  0  0  0  0
  183.7580  178.1250  141.2750 C   0  0  0  0  0  2  0  0  0  0  0  0
  184.8970  179.2510  144.7990 C   0  0  0  0  0  2  0  0  0  0  0  0
  184.0210  178.5580  145.8260 C   0  0  0  0  0  2  0  0  0  0  0  0
  184.7660  178.3840  147.0630 N   0  0  0  0  0  2  0  0  0  0  0  0
  186.1620  178.1910  146.7090 C   0  0  0  0  0  2  0  0  0  0  0  0
  187.0650  178.8750  147.7250 C   0  0  0  0  0  2  0  0  0  0  0  0
  187.9460  176.7010  148.1560 O   0  0  0  0  0  0  0  0  0  0  0  0
  189.3360  178.4500  148.6650 O   0  0  0  0  0  1  0  0  0  0  0  0
  188.1290  177.9460  148.2010 C   0  0  0  0  0  0  0  0  0  0  0  0
  188.8030  177.4950  140.3790 O   0  0  0  0  0  0  0  0  0  0  0  0
  188.9360  179.0520  137.0030 C   0  0  0  0  0  3  0  0  0  0  0  0
  189.3370  178.6170  138.2700 C   0  0  0  0  0  3  0  0  0  0  0  0
  188.4330  177.9400  139.1050 C   0  0  0  0  0  0  0  0  0  0  0  0
  187.1300  177.7000  138.6570 C   0  0  0  0  0  3  0  0  0  0  0  0
  186.7290  178.1360  137.3900 C   0  0  0  0  0  3  0  0  0  0  0  0
  187.6320  178.8120  136.5650 C   0  0  0  0  0  3  0  0  0  0  0  0
  1 11  1  1  0  0  0
  1  5  1  0  0  0  0
  2  3  2  0  0  0  0
  3 10  2  0  0  0  0
  4  8  1  0  0  0  0
  5  9  2  0  0  0  0
  6  8  1  0  0  0  0
  7  4  1  0  0  0  0
  9  6  1  0  0  0  0
 10  5  1  0  0  0  0
 10  7  1  0  0  0  0
 11 12  3  0  0  0  0
 13 15  1  0  0  0  0
 15 14  1  0  0  0  0
 16 12  1  6  0  0  0
 16 17  1  0  0  0  0
 17 14  1  0  0  0  0
 17 19  1  1  0  0  0
 18 13  1  0  0  0  0
 18 16  1  0  0  0  0
 19 20  1  0  0  0  0
 20 21  1  0  0  0  0
 22 21  1  0  0  0  0
 22 23  1  0  0  0  0
 23 26  1  0  0  0  0
 24 26  2  0  0  0  0
 26 25  1  0  0  0  0
 27  1  1  0  0  0  0
 28 29  1  0  0  0  0
 29 30  2  0  0  0  0
 30 27  1  0  0  0  0
 31 30  1  0  0  0  0
 32 31  2  0  0  0  0
 33 28  2  0  0  0  0
 33 32  1  0  0  0  0
M  END
>  <MODEL>
2

>  <REMARK>
 VINA RESULT:      -7.8      2.858      7.500
  Name = 
  11 active torsions:
  status: ('A' for Active; 'I' for Inactive)
    1  A    between atoms: C_1  and  C_11
    2  A    between atoms: O_3  and  C_10
    3  A    between atoms: O_3  and  C_11
    4  A    between atoms: C_4  and  C_22
    5  A    between atoms: C_4  and  C_25
    6  A    between atoms: C_11  and  C_18
    7  A    between atoms: C_12  and  N_21
    8  A    between atoms: C_12  and  C_26
    9  A    between atoms: C_15  and  C_27
   10  A    between atoms: C_19  and  C_26
   11  A    between atoms: N_21  and  C_22
                            x       y       z     vdW  Elec       q    Type
                         _______ _______ _______ _____ _____    ______ ____

>  <TORSDO>
F 11

$$$$
=
 OpenBabel11062414513D

 33 35  0  0  1  0  0  0  0  0999 V2000
  185.1820  178.0620  143.0360 C   0  0  2  0  0  3  0  0  0  0  0  0
  187.9020  175.5480  143.3040 O   0  0  0  0  0  0  0  0  0  0  0  0
  187.4510  176.4560  144.0140 C   0  0  0  0  0  0  0  0  0  0  0  0
  187.4240  177.9290  147.0400 O   0  0  0  0  0  0  0  0  0  0  0  0
  185.6470  178.0110  144.4650 C   0  0  0  0  0  0  0  0  0  0  0  0
  185.1330  178.5490  146.8950 C   0  0  0  0  0  2  0  0  0  0  0  0
  187.8990  178.0780  145.7340 C   0  0  0  0  0  2  0  0  0  0  0  0
  186.5440  178.9960  147.2410 C   0  0  0  0  0  2  0  0  0  0  0  0
  184.8730  178.5660  145.4150 C   0  0  0  0  0  3  0  0  0  0  0  0
  186.9730  177.4160  144.7610 C   0  0  0  0  0  0  0  0  0  0  0  0
  186.3230  178.2440  142.1290 C   0  0  0  0  0  0  0  0  0  0  0  0
  187.2630  178.3770  141.3860 C   0  0  0  0  0  0  0  0  0  0  0  0
  189.1170  178.2510  138.0890 C   0  0  0  0  0  2  0  0  0  0  0  0
  190.6860  177.5820  139.9050 C   0  0  0  0  0  2  0  0  0  0  0  0
  190.1810  177.2450  138.5080 C   0  0  0  0  0  2  0  0  0  0  0  0
  188.4130  178.5170  140.4860 C   0  0  1  0  0  3  0  0  0  0  0  0
  189.5380  177.5630  140.9150 C   0  0  2  0  0  3  0  0  0  0  0  0
  187.9480  178.2000  139.0660 C   0  0  0  0  0  2  0  0  0  0  0  0
  190.0840  177.9480  142.2840 C   0  0  0  0  0  2  0  0  0  0  0  0
  191.5340  177.5180  142.4090 C   0  0  0  0  0  2  0  0  0  0  0  0
  191.9460  177.5910  143.8010 N   0  0  0  0  0  2  0  0  0  0  0  0
  191.1800  176.5980  144.5350 C   0  0  0  0  0  2  0  0  0  0  0  0
  191.0850  176.9840  146.0060 C   0  0  0  0  0  2  0  0  0  0  0  0
  192.4200  175.0430  146.3800 O   0  0  0  0  0  0  0  0  0  0  0  0
  192.3660  176.5550  148.1020 O   0  0  0  0  0  1  0  0  0  0  0  0
  191.9840  176.1320  146.8360 C   0  0  0  0  0  0  0  0  0  0  0  0
  184.2320  179.1100  142.8540 O   0  0  0  0  0  0  0  0  0  0  0  0
  180.5550  178.7390  143.2780 C   0  0  0  0  0  3  0  0  0  0  0  0
  181.8980  178.9780  143.5820 C   0  0  0  0  0  3  0  0  0  0  0  0
  182.8790  178.8800  142.5810 C   0  0  0  0  0  0  0  0  0  0  0  0
  182.4990  178.5460  141.2770 C   0  0  0  0  0  3  0  0  0  0  0  0
  181.1560  178.3050  140.9730 C   0  0  0  0  0  3  0  0  0  0  0  0
  180.1850  178.4010  141.9730 C   0  0  0  0  0  3  0  0  0  0  0  0
  1 11  1  6  0  0  0
  1  5  1  0  0  0  0
  2  3  2  0  0  0  0
  3 10  2  0  0  0  0
  4  8  1  0  0  0  0
  5 10  1  0  0  0  0
  5  9  2  0  0  0  0
  6  8  1  0  0  0  0
  7  4  1  0  0  0  0
  9  6  1  0  0  0  0
 10  7  1  0  0  0  0
 12 11  3  0  0  0  0
 13 15  1  0  0  0  0
 13 18  1  0  0  0  0
 14 17  1  0  0  0  0
 15 14  1  0  0  0  0
 16 17  1  0  0  0  0
 16 12  1  1  0  0  0
 17 19  1  1  0  0  0
 18 16  1  0  0  0  0
 19 20  1  0  0  0  0
 20 21  1  0  0  0  0
 21 22  1  0  0  0  0
 22 23  1  0  0  0  0
 23 26  1  0  0  0  0
 24 26  2  0  0  0  0
 26 25  1  0  0  0  0
 27  1  1  0  0  0  0
 28 29  1  0  0  0  0
 30 27  1  0  0  0  0
 30 29  2  0  0  0  0
 31 30  1  0  0  0  0
 32 31  2  0  0  0  0
 32 33  1  0  0  0  0
 33 28  2  0  0  0  0
M  END
>  <MODEL>
3

>  <REMARK>
 VINA RESULT:      -7.8      1.396      4.771
  Name = 
  11 active torsions:
  status: ('A' for Active; 'I' for Inactive)
    1  A    between atoms: C_1  and  C_11
    2  A    between atoms: O_3  and  C_10
    3  A    between atoms: O_3  and  C_11
    4  A    between atoms: C_4  and  C_22
    5  A    between atoms: C_4  and  C_25
    6  A    between atoms: C_11  and  C_18
    7  A    between atoms: C_12  and  N_21
    8  A    between atoms: C_12  and  C_26
    9  A    between atoms: C_15  and  C_27
   10  A    between atoms: C_19  and  C_26
   11  A    between atoms: N_21  and  C_22
                            x       y       z     vdW  Elec       q    Type
                         _______ _______ _______ _____ _____    ______ ____

>  <TORSDO>
F 11

$$$$
=
 OpenBabel11062414513D

 33 35  0  0  1  0  0  0  0  0999 V2000
  188.3300  177.4700  142.6110 C   0  0  2  0  0  3  0  0  0  0  0  0
  191.9380  176.7230  143.0690 O   0  0  0  0  0  0  0  0  0  0  0  0
  191.1750  176.8910  142.1090 C   0  0  0  0  0  0  0  0  0  0  0  0
  190.8680  177.3370  138.7880 O   0  0  0  0  0  0  0  0  0  0  0  0
  189.0320  177.6840  141.2990 C   0  0  0  0  0  0  0  0  0  0  0  0
  188.9640  178.7470  138.9920 C   0  0  0  0  0  2  0  0  0  0  0  0
  190.7010  176.3920  139.8040 C   0  0  0  0  0  2  0  0  0  0  0  0
  189.5880  177.5630  138.2730 C   0  0  0  0  0  2  0  0  0  0  0  0
  188.3980  178.3720  140.3330 C   0  0  0  0  0  3  0  0  0  0  0  0
  190.3670  177.0680  141.0980 C   0  0  0  0  0  0  0  0  0  0  0  0
  186.9500  177.9710  142.5430 C   0  0  0  0  0  0  0  0  0  0  0  0
  185.8240  178.3980  142.4870 C   0  0  0  0  0  0  0  0  0  0  0  0
  182.3420  179.1860  143.7450 C   0  0  0  0  0  2  0  0  0  0  0  0
  182.2080  178.6790  141.3100 C   0  0  0  0  0  2  0  0  0  0  0  0
  181.5760  178.4250  142.6730 C   0  0  0  0  0  2  0  0  0  0  0  0
  184.4620  178.9390  142.4190 C   0  0  1  0  0  3  0  0  0  0  0  0
  183.6730  178.2400  141.3010 C   0  0  2  0  0  3  0  0  0  0  0  0
  183.7920  178.7160  143.7740 C   0  0  0  0  0  2  0  0  0  0  0  0
  184.2700  178.5560  139.9360 C   0  0  0  0  0  2  0  0  0  0  0  0
  183.3110  178.1380  138.8360 C   0  0  0  0  0  2  0  0  0  0  0  0
  184.0640  177.6140  137.7080 N   0  0  0  0  0  2  0  0  0  0  0  0
  185.4580  177.9740  137.9070 C   0  0  0  0  0  2  0  0  0  0  0  0
  186.2690  177.6630  136.6570 C   0  0  0  0  0  2  0  0  0  0  0  0
  185.7580  175.7120  135.3830 O   0  0  0  0  0  0  0  0  0  0  0  0
  186.9910  175.3590  137.2830 O   0  0  0  0  0  1  0  0  0  0  0  0
  186.3120  176.1940  136.4060 C   0  0  0  0  0  0  0  0  0  0  0  0
  189.0380  178.1100  143.6710 O   0  0  0  0  0  0  0  0  0  0  0  0
  189.7320  176.9520  147.1370 C   0  0  0  0  0  3  0  0  0  0  0  0
  189.9330  177.2830  145.7930 C   0  0  0  0  0  3  0  0  0  0  0  0
  188.8700  177.7730  145.0180 C   0  0  0  0  0  0  0  0  0  0  0  0
  187.6090  177.9320  145.6030 C   0  0  0  0  0  3  0  0  0  0  0  0
  187.4080  177.6000  146.9460 C   0  0  0  0  0  3  0  0  0  0  0  0
  188.4690  177.1100  147.7120 C   0  0  0  0  0  3  0  0  0  0  0  0
  1 11  1  6  0  0  0
  1 27  1  0  0  0  0
  3  2  2  0  0  0  0
  4  7  1  0  0  0  0
  5  1  1  0  0  0  0
  6  9  1  0  0  0  0
  7 10  1  0  0  0  0
  8  4  1  0  0  0  0
  8  6  1  0  0  0  0
  9  5  2  0  0  0  0
 10  5  1  0  0  0  0
 10  3  2  0  0  0  0
 12 11  3  0  0  0  0
 13 18  1  0  0  0  0
 14 15  1  0  0  0  0
 15 13  1  0  0  0  0
 16 12  1  1  0  0  0
 16 18  1  0  0  0  0
 17 19  1  6  0  0  0
 17 14  1  0  0  0  0
 17 16  1  0  0  0  0
 20 19  1  0  0  0  0
 21 22  1  0  0  0  0
 21 20  1  0  0  0  0
 23 22  1  0  0  0  0
 24 26  2  0  0  0  0
 26 23  1  0  0  0  0
 26 25  1  0  0  0  0
 27 30  1  0  0  0  0
 28 33  1  0  0  0  0
 29 28  2  0  0  0  0
 30 31  2  0  0  0  0
 30 29  1  0  0  0  0
 31 32  1  0  0  0  0
 32 33  2  0  0  0  0
M  END
>  <MODEL>
4

>  <REMARK>
 VINA RESULT:      -7.7      3.300      7.607
  Name = 
  11 active torsions:
  status: ('A' for Active; 'I' for Inactive)
    1  A    between atoms: C_1  and  C_11
    2  A    between atoms: O_3  and  C_10
    3  A    between atoms: O_3  and  C_11
    4  A    between atoms: C_4  and  C_22
    5  A    between atoms: C_4  and  C_25
    6  A    between atoms: C_11  and  C_18
    7  A    between atoms: C_12  and  N_21
    8  A    between atoms: C_12  and  C_26
    9  A    between atoms: C_15  and  C_27
   10  A    between atoms: C_19  and  C_26
   11  A    between atoms: N_21  and  C_22
                            x       y       z     vdW  Elec       q    Type
                         _______ _______ _______ _____ _____    ______ ____

>  <TORSDO>
F 11

$$$$
=
 OpenBabel11062414513D

 33 35  0  0  1  0  0  0  0  0999 V2000
  186.4260  178.6310  140.2670 C   0  0  2  0  0  3  0  0  0  0  0  0
  186.1900  177.9720  136.6200 O   0  0  0  0  0  0  0  0  0  0  0  0
  187.0940  178.0170  137.4640 C   0  0  0  0  0  0  0  0  0  0  0  0
  190.3240  177.3970  138.1790 O   0  0  0  0  0  0  0  0  0  0  0  0
  187.7250  178.0350  139.8040 C   0  0  0  0  0  0  0  0  0  0  0  0
  189.8820  176.8580  140.4530 C   0  0  0  0  0  2  0  0  0  0  0  0
  189.4250  178.4290  137.8950 C   0  0  0  0  0  2  0  0  0  0  0  0
  190.7620  177.6330  139.4860 C   0  0  0  0  0  2  0  0  0  0  0  0
  188.5780  177.5530  140.7260 C   0  0  0  0  0  3  0  0  0  0  0  0
  188.0470  178.0660  138.3560 C   0  0  0  0  0  0  0  0  0  0  0  0
  186.2270  178.3810  141.7010 C   0  0  0  0  0  0  0  0  0  0  0  0
  186.0570  178.1610  142.8740 C   0  0  0  0  0  0  0  0  0  0  0  0
  184.5500  178.6300  146.3140 C   0  0  0  0  0  2  0  0  0  0  0  0
  186.9190  177.9100  146.5800 C   0  0  0  0  0  2  0  0  0  0  0  0
  185.8520  178.8870  147.0590 C   0  0  0  0  0  2  0  0  0  0  0  0
  185.8420  177.8730  144.2970 C   0  0  1  0  0  3  0  0  0  0  0  0
  187.1530  178.0570  145.0760 C   0  0  2  0  0  3  0  0  0  0  0  0
  184.7660  178.8250  144.8180 C   0  0  0  0  0  2  0  0  0  0  0  0
  188.1920  177.0320  144.6400 C   0  0  0  0  0  2  0  0  0  0  0  0
  189.5220  177.7140  144.3770 C   0  0  0  0  0  2  0  0  0  0  0  0
  190.5400  176.7110  144.1150 N   0  0  0  0  0  2  0  0  0  0  0  0
  191.6830  177.0180  144.9580 C   0  0  0  0  0  2  0  0  0  0  0  0
  191.8690  175.9350  146.0130 C   0  0  0  0  0  2  0  0  0  0  0  0
  192.5250  176.3910  148.2600 O   0  0  0  0  0  1  0  0  0  0  0  0
  190.4290  177.1120  147.6740 O   0  0  0  0  0  0  0  0  0  0  0  0
  191.6300  176.4790  147.3800 C   0  0  0  0  0  0  0  0  0  0  0  0
  185.3340  178.1020  139.5160 O   0  0  0  0  0  0  0  0  0  0  0  0
  182.3050  180.2180  139.0840 C   0  0  0  0  0  3  0  0  0  0  0  0
  183.6200  179.7580  138.9580 C   0  0  0  0  0  3  0  0  0  0  0  0
  184.0260  178.5870  139.6190 C   0  0  0  0  0  0  0  0  0  0  0  0
  183.1040  177.8840  140.4010 C   0  0  0  0  0  3  0  0  0  0  0  0
  181.7910  178.3460  140.5290 C   0  0  0  0  0  3  0  0  0  0  0  0
  181.3920  179.5120  139.8710 C   0  0  0  0  0  3  0  0  0  0  0  0
  1 11  1  1  0  0  0
  2  3  2  0  0  0  0
  3 10  2  0  0  0  0
  4  8  1  0  0  0  0
  5  1  1  0  0  0  0
  5  9  2  0  0  0  0
  6  9  1  0  0  0  0
  7  4  1  0  0  0  0
  7 10  1  0  0  0  0
  8  6  1  0  0  0  0
 10  5  1  0  0  0  0
 11 12  3  0  0  0  0
 13 15  1  0  0  0  0
 14 15  1  0  0  0  0
 16 12  1  6  0  0  0
 16 18  1  0  0  0  0
 16 17  1  0  0  0  0
 17 19  1  6  0  0  0
 17 14  1  0  0  0  0
 18 13  1  0  0  0  0
 20 19  1  0  0  0  0
 21 20  1  0  0  0  0
 21 22  1  0  0  0  0
 22 23  1  0  0  0  0
 23 26  1  0  0  0  0
 26 25  2  0  0  0  0
 26 24  1  0  0  0  0
 27 30  1  0  0  0  0
 27  1  1  0  0  0  0
 28 33  1  0  0  0  0
 29 28  2  0  0  0  0
 29 30  1  0  0  0  0
 30 31  2  0  0  0  0
 31 32  1  0  0  0  0
 33 32  2  0  0  0  0
M  END
>  <MODEL>
5

>  <REMARK>
 VINA RESULT:      -7.6      2.115      6.070
  Name = 
  11 active torsions:
  status: ('A' for Active; 'I' for Inactive)
    1  A    between atoms: C_1  and  C_11
    2  A    between atoms: O_3  and  C_10
    3  A    between atoms: O_3  and  C_11
    4  A    between atoms: C_4  and  C_22
    5  A    between atoms: C_4  and  C_25
    6  A    between atoms: C_11  and  C_18
    7  A    between atoms: C_12  and  N_21
    8  A    between atoms: C_12  and  C_26
    9  A    between atoms: C_15  and  C_27
   10  A    between atoms: C_19  and  C_26
   11  A    between atoms: N_21  and  C_22
                            x       y       z     vdW  Elec       q    Type
                         _______ _______ _______ _____ _____    ______ ____

>  <TORSDO>
F 11

$$$$
=
 OpenBabel11062414513D

 33 35  0  0  1  0  0  0  0  0999 V2000
  190.7690  176.2350  138.6920 C   0  0  2  0  0  3  0  0  0  0  0  0
  189.5230  173.3480  136.7160 O   0  0  0  0  0  0  0  0  0  0  0  0
  189.1180  174.4850  136.9900 C   0  0  0  0  0  0  0  0  0  0  0  0
  186.8620  176.9060  136.3750 O   0  0  0  0  0  0  0  0  0  0  0  0
  189.6220  176.6990  137.8390 C   0  0  0  0  0  0  0  0  0  0  0  0
  188.4030  178.6690  136.7920 C   0  0  0  0  0  2  0  0  0  0  0  0
  187.2130  175.9220  137.3040 C   0  0  0  0  0  2  0  0  0  0  0  0
  187.0090  178.1230  137.0480 C   0  0  0  0  0  2  0  0  0  0  0  0
  189.4420  178.0210  137.6640 C   0  0  0  0  0  3  0  0  0  0  0  0
  188.6920  175.6850  137.2820 C   0  0  0  0  0  0  0  0  0  0  0  0
  190.6320  176.7470  140.0620 C   0  0  0  0  0  0  0  0  0  0  0  0
  190.5160  177.1530  141.1910 C   0  0  0  0  0  0  0  0  0  0  0  0
  191.6560  178.5950  144.5000 C   0  0  0  0  0  2  0  0  0  0  0  0
  189.8830  176.9030  144.9430 C   0  0  0  0  0  2  0  0  0  0  0  0
  191.2530  177.4130  145.3710 C   0  0  0  0  0  2  0  0  0  0  0  0
  190.3690  177.6240  142.5730 C   0  0  1  0  0  3  0  0  0  0  0  0
  189.8980  176.4740  143.4760 C   0  0  2  0  0  3  0  0  0  0  0  0
  191.7210  178.1590  143.0410 C   0  0  0  0  0  2  0  0  0  0  0  0
  188.4990  176.0150  143.0850 C   0  0  0  0  0  2  0  0  0  0  0  0
  187.4570  176.7800  143.8800 C   0  0  0  0  0  2  0  0  0  0  0  0
  186.7570  177.7040  143.0030 N   0  0  0  0  0  2  0  0  0  0  0  0
  185.6990  178.3280  143.7800 C   0  0  0  0  0  2  0  0  0  0  0  0
  185.7980  177.9100  145.2410 C   0  0  0  0  0  2  0  0  0  0  0  0
  183.8000  178.9890  145.9690 O   0  0  0  0  0  0  0  0  0  0  0  0
  185.7040  179.5570  147.1110 O   0  0  0  0  0  1  0  0  0  0  0  0
  185.0430  178.8520  146.1140 C   0  0  0  0  0  0  0  0  0  0  0  0
  192.0130  176.6490  138.1300 O   0  0  0  0  0  0  0  0  0  0  0  0
  194.4780  175.4610  135.6100 C   0  0  0  0  0  3  0  0  0  0  0  0
  193.6870  176.3250  136.3740 C   0  0  0  0  0  3  0  0  0  0  0  0
  192.8190  175.8110  137.3520 C   0  0  0  0  0  0  0  0  0  0  0  0
  192.7560  174.4300  137.5570 C   0  0  0  0  0  3  0  0  0  0  0  0
  193.5450  173.5660  136.7920 C   0  0  0  0  0  3  0  0  0  0  0  0
  194.4050  174.0820  135.8190 C   0  0  0  0  0  3  0  0  0  0  0  0
  1 11  1  1  0  0  0
  2  3  2  0  0  0  0
  3 10  2  0  0  0  0
  4  8  1  0  0  0  0
  4  7  1  0  0  0  0
  5  1  1  0  0  0  0
  6  8  1  0  0  0  0
  6  9  1  0  0  0  0
  9  5  2  0  0  0  0
 10  7  1  0  0  0  0
 10  5  1  0  0  0  0
 11 12  3  0  0  0  0
 13 15  1  0  0  0  0
 14 15  1  0  0  0  0
 16 12  1  6  0  0  0
 16 18  1  0  0  0  0
 16 17  1  0  0  0  0
 17 19  1  6  0  0  0
 17 14  1  0  0  0  0
 18 13  1  0  0  0  0
 19 20  1  0  0  0  0
 21 22  1  0  0  0  0
 21 20  1  0  0  0  0
 22 23  1  0  0  0  0
 23 26  1  0  0  0  0
 24 26  2  0  0  0  0
 26 25  1  0  0  0  0
 27  1  1  0  0  0  0
 28 33  2  0  0  0  0
 28 29  1  0  0  0  0
 29 30  2  0  0  0  0
 30 31  1  0  0  0  0
 30 27  1  0  0  0  0
 32 31  2  0  0  0  0
 33 32  1  0  0  0  0
M  END
>  <MODEL>
6

>  <REMARK>
 VINA RESULT:      -7.6      3.719      8.005
  Name = 
  11 active torsions:
  status: ('A' for Active; 'I' for Inactive)
    1  A    between atoms: C_1  and  C_11
    2  A    between atoms: O_3  and  C_10
    3  A    between atoms: O_3  and  C_11
    4  A    between atoms: C_4  and  C_22
    5  A    between atoms: C_4  and  C_25
    6  A    between atoms: C_11  and  C_18
    7  A    between atoms: C_12  and  N_21
    8  A    between atoms: C_12  and  C_26
    9  A    between atoms: C_15  and  C_27
   10  A    between atoms: C_19  and  C_26
   11  A    between atoms: N_21  and  C_22
                            x       y       z     vdW  Elec       q    Type
                         _______ _______ _______ _____ _____    ______ ____

>  <TORSDO>
F 11

$$$$
=
 OpenBabel11062414513D

 33 35  0  0  1  0  0  0  0  0999 V2000
  188.7610  178.1340  141.4430 C   0  0  2  0  0  3  0  0  0  0  0  0
  192.3020  177.4700  140.5460 O   0  0  0  0  0  0  0  0  0  0  0  0
  191.6570  177.6110  141.5920 C   0  0  0  0  0  0  0  0  0  0  0  0
  191.6210  177.3500  144.9480 O   0  0  0  0  0  0  0  0  0  0  0  0
  189.4910  177.6880  142.6780 C   0  0  0  0  0  0  0  0  0  0  0  0
  189.3200  176.7540  145.0360 C   0  0  0  0  0  2  0  0  0  0  0  0
  191.6910  178.2770  143.9040 C   0  0  0  0  0  2  0  0  0  0  0  0
  190.4220  177.6270  145.6120 C   0  0  0  0  0  2  0  0  0  0  0  0
  188.7720  177.2990  143.7470 C   0  0  0  0  0  3  0  0  0  0  0  0
  190.9730  177.7610  142.6950 C   0  0  0  0  0  0  0  0  0  0  0  0
  187.3770  178.5050  141.7680 C   0  0  0  0  0  0  0  0  0  0  0  0
  186.2470  178.8190  142.0470 C   0  0  0  0  0  0  0  0  0  0  0  0
  183.4030  179.7560  144.3620 C   0  0  0  0  0  2  0  0  0  0  0  0
  182.4730  178.4510  142.4540 C   0  0  0  0  0  2  0  0  0  0  0  0
  182.4580  178.6290  143.9680 C   0  0  0  0  0  2  0  0  0  0  0  0
  184.8800  179.2150  142.4020 C   0  0  1  0  0  3  0  0  0  0  0  0
  183.8850  178.1310  141.9610 C   0  0  2  0  0  3  0  0  0  0  0  0
  184.8210  179.4180  143.9160 C   0  0  0  0  0  2  0  0  0  0  0  0
  183.8560  178.0070  140.4430 C   0  0  0  0  0  2  0  0  0  0  0  0
  183.7250  179.3790  139.8080 C   0  0  0  0  0  2  0  0  0  0  0  0
  184.7010  179.5170  138.7400 N   0  0  0  0  0  2  0  0  0  0  0  0
  185.3480  178.2260  138.5710 C   0  0  0  0  0  2  0  0  0  0  0  0
  185.2090  177.7490  137.1310 C   0  0  0  0  0  2  0  0  0  0  0  0
  183.7210  175.9470  137.6130 O   0  0  0  0  0  1  0  0  0  0  0  0
  185.6040  175.3880  136.4310 O   0  0  0  0  0  0  0  0  0  0  0  0
  184.8030  176.3150  137.0850 C   0  0  0  0  0  0  0  0  0  0  0  0
  188.7800  177.1100  140.4500 O   0  0  0  0  0  0  0  0  0  0  0  0
  188.7980  176.6420  136.7600 C   0  0  0  0  0  3  0  0  0  0  0  0
  188.7300  176.3470  138.1250 C   0  0  0  0  0  3  0  0  0  0  0  0
  188.8400  177.3730  139.0770 C   0  0  0  0  0  0  0  0  0  0  0  0
  189.0130  178.6930  138.6490 C   0  0  0  0  0  3  0  0  0  0  0  0
  189.0830  178.9880  137.2840 C   0  0  0  0  0  3  0  0  0  0  0  0
  188.9750  177.9630  136.3400 C   0  0  0  0  0  3  0  0  0  0  0  0
  1 11  1  1  0  0  0
  1  5  1  0  0  0  0
  2  3  2  0  0  0  0
  3 10  2  0  0  0  0
  4  8  1  0  0  0  0
  5 10  1  0  0  0  0
  5  9  2  0  0  0  0
  6  8  1  0  0  0  0
  7  4  1  0  0  0  0
  9  6  1  0  0  0  0
 10  7  1  0  0  0  0
 11 12  3  0  0  0  0
 14 15  1  0  0  0  0
 15 13  1  0  0  0  0
 16 12  1  1  0  0  0
 16 18  1  0  0  0  0
 17 19  1  6  0  0  0
 17 16  1  0  0  0  0
 17 14  1  0  0  0  0
 18 13  1  0  0  0  0
 20 19  1  0  0  0  0
 21 20  1  0  0  0  0
 22 21  1  0  0  0  0
 23 22  1  0  0  0  0
 25 26  2  0  0  0  0
 26 23  1  0  0  0  0
 26 24  1  0  0  0  0
 27  1  1  0  0  0  0
 28 29  1  0  0  0  0
 29 30  2  0  0  0  0
 30 27  1  0  0  0  0
 31 30  1  0  0  0  0
 32 31  2  0  0  0  0
 33 28  2  0  0  0  0
 33 32  1  0  0  0  0
M  END
>  <MODEL>
7

>  <REMARK>
 VINA RESULT:      -7.6      2.956      8.730
  Name = 
  11 active torsions:
  status: ('A' for Active; 'I' for Inactive)
    1  A    between atoms: C_1  and  C_11
    2  A    between atoms: O_3  and  C_10
    3  A    between atoms: O_3  and  C_11
    4  A    between atoms: C_4  and  C_22
    5  A    between atoms: C_4  and  C_25
    6  A    between atoms: C_11  and  C_18
    7  A    between atoms: C_12  and  N_21
    8  A    between atoms: C_12  and  C_26
    9  A    between atoms: C_15  and  C_27
   10  A    between atoms: C_19  and  C_26
   11  A    between atoms: N_21  and  C_22
                            x       y       z     vdW  Elec       q    Type
                         _______ _______ _______ _____ _____    ______ ____

>  <TORSDO>
F 11

$$$$
=
 OpenBabel11062414513D

 33 35  0  0  1  0  0  0  0  0999 V2000
  188.3540  177.3800  142.7340 C   0  0  2  0  0  3  0  0  0  0  0  0
  192.0190  176.8270  142.9590 O   0  0  0  0  0  0  0  0  0  0  0  0
  191.1860  176.9390  142.0510 C   0  0  0  0  0  0  0  0  0  0  0  0
  190.6360  177.3130  138.7510 O   0  0  0  0  0  0  0  0  0  0  0  0
  188.9560  177.6070  141.3760 C   0  0  0  0  0  0  0  0  0  0  0  0
  188.6780  178.6260  139.0650 C   0  0  0  0  0  2  0  0  0  0  0  0
  190.5870  176.3780  139.7890 C   0  0  0  0  0  2  0  0  0  0  0  0
  189.3140  177.4640  138.3210 C   0  0  0  0  0  2  0  0  0  0  0  0
  188.2230  178.2450  140.4450 C   0  0  0  0  0  3  0  0  0  0  0  0
  190.3050  177.0570  141.0940 C   0  0  0  0  0  0  0  0  0  0  0  0
  187.0000  177.9460  142.7990 C   0  0  0  0  0  0  0  0  0  0  0  0
  185.8910  178.4150  142.8680 C   0  0  0  0  0  0  0  0  0  0  0  0
  182.6610  179.3770  144.5890 C   0  0  0  0  0  2  0  0  0  0  0  0
  182.1440  178.7350  142.2380 C   0  0  0  0  0  2  0  0  0  0  0  0
  181.7240  178.5780  143.6940 C   0  0  0  0  0  2  0  0  0  0  0  0
  184.5470  178.9910  142.9740 C   0  0  1  0  0  3  0  0  0  0  0  0
  183.5810  178.2530  142.0340 C   0  0  2  0  0  3  0  0  0  0  0  0
  184.0880  178.8670  144.4260 C   0  0  0  0  0  2  0  0  0  0  0  0
  183.9690  178.4710  140.5770 C   0  0  0  0  0  2  0  0  0  0  0  0
  182.9030  177.8990  139.6610 C   0  0  0  0  0  2  0  0  0  0  0  0
  183.0550  176.4550  139.5790 N   0  0  0  0  0  2  0  0  0  0  0  0
  181.8080  175.9130  139.0670 C   0  0  0  0  0  2  0  0  0  0  0  0
  180.6280  176.4580  139.8600 C   0  0  0  0  0  2  0  0  0  0  0  0
  179.0730  175.4220  141.3420 O   0  0  0  0  0  1  0  0  0  0  0  0
  179.5020  174.2810  139.4010 O   0  0  0  0  0  0  0  0  0  0  0  0
  179.7000  175.3600  140.2520 C   0  0  0  0  0  0  0  0  0  0  0  0
  189.1780  177.9480  143.7510 O   0  0  0  0  0  0  0  0  0  0  0  0
  189.9240  176.8350  147.2210 C   0  0  0  0  0  3  0  0  0  0  0  0
  190.0990  177.1270  145.8650 C   0  0  0  0  0  3  0  0  0  0  0  0
  189.0360  177.6490  145.1100 C   0  0  0  0  0  0  0  0  0  0  0  0
  187.8020  177.8780  145.7270 C   0  0  0  0  0  3  0  0  0  0  0  0
  187.6260  177.5840  147.0830 C   0  0  0  0  0  3  0  0  0  0  0  0
  188.6870  177.0630  147.8290 C   0  0  0  0  0  3  0  0  0  0  0  0
  1 11  1  6  0  0  0
  1 27  1  0  0  0  0
  3  2  2  0  0  0  0
  4  7  1  0  0  0  0
  5  1  1  0  0  0  0
  6  9  1  0  0  0  0
  7 10  1  0  0  0  0
  8  4  1  0  0  0  0
  8  6  1  0  0  0  0
  9  5  2  0  0  0  0
 10  5  1  0  0  0  0
 10  3  2  0  0  0  0
 11 12  3  0  0  0  0
 14 15  1  0  0  0  0
 15 13  1  0  0  0  0
 16 12  1  1  0  0  0
 16 18  1  0  0  0  0
 17 19  1  6  0  0  0
 17 14  1  0  0  0  0
 17 16  1  0  0  0  0
 18 13  1  0  0  0  0
 20 19  1  0  0  0  0
 21 20  1  0  0  0  0
 22 21  1  0  0  0  0
 22 23  1  0  0  0  0
 23 26  1  0  0  0  0
 25 26  2  0  0  0  0
 26 24  1  0  0  0  0
 27 30  1  0  0  0  0
 28 33  1  0  0  0  0
 29 28  2  0  0  0  0
 30 31  2  0  0  0  0
 30 29  1  0  0  0  0
 31 32  1  0  0  0  0
 32 33  2  0  0  0  0
M  END
>  <MODEL>
8

>  <REMARK>
 VINA RESULT:      -7.5      3.002      8.089
  Name = 
  11 active torsions:
  status: ('A' for Active; 'I' for Inactive)
    1  A    between atoms: C_1  and  C_11
    2  A    between atoms: O_3  and  C_10
    3  A    between atoms: O_3  and  C_11
    4  A    between atoms: C_4  and  C_22
    5  A    between atoms: C_4  and  C_25
    6  A    between atoms: C_11  and  C_18
    7  A    between atoms: C_12  and  N_21
    8  A    between atoms: C_12  and  C_26
    9  A    between atoms: C_15  and  C_27
   10  A    between atoms: C_19  and  C_26
   11  A    between atoms: N_21  and  C_22
                            x       y       z     vdW  Elec       q    Type
                         _______ _______ _______ _____ _____    ______ ____

>  <TORSDO>
F 11

$$$$
=
 OpenBabel11062414513D

 33 35  0  0  1  0  0  0  0  0999 V2000
  188.3880  177.4070  142.7120 C   0  0  2  0  0  3  0  0  0  0  0  0
  192.0520  176.8320  142.9000 O   0  0  0  0  0  0  0  0  0  0  0  0
  191.2100  176.9450  142.0000 C   0  0  0  0  0  0  0  0  0  0  0  0
  190.6260  177.3050  138.7050 O   0  0  0  0  0  0  0  0  0  0  0  0
  188.9760  177.6230  141.3460 C   0  0  0  0  0  0  0  0  0  0  0  0
  188.6800  178.6320  139.0330 C   0  0  0  0  0  2  0  0  0  0  0  0
  190.5820  176.3750  139.7480 C   0  0  0  0  0  2  0  0  0  0  0  0
  189.3000  177.4610  138.2890 C   0  0  0  0  0  2  0  0  0  0  0  0
  188.2380  178.2600  140.4200 C   0  0  0  0  0  3  0  0  0  0  0  0
  190.3190  177.0630  141.0520 C   0  0  0  0  0  0  0  0  0  0  0  0
  187.0240  177.9470  142.7770 C   0  0  0  0  0  0  0  0  0  0  0  0
  185.9100  178.4060  142.8330 C   0  0  0  0  0  0  0  0  0  0  0  0
  182.6350  179.3620  144.4710 C   0  0  0  0  0  2  0  0  0  0  0  0
  182.1830  178.7430  142.1010 C   0  0  0  0  0  2  0  0  0  0  0  0
  181.7210  178.5740  143.5430 C   0  0  0  0  0  2  0  0  0  0  0  0
  184.5640  178.9850  142.9070 C   0  0  1  0  0  3  0  0  0  0  0  0
  183.6240  178.2590  141.9330 C   0  0  2  0  0  3  0  0  0  0  0  0
  184.0640  178.8490  144.3440 C   0  0  0  0  0  2  0  0  0  0  0  0
  184.0530  178.4900  140.4900 C   0  0  0  0  0  2  0  0  0  0  0  0
  182.9360  178.0950  139.5420 C   0  0  0  0  0  2  0  0  0  0  0  0
  182.9930  178.9240  138.3490 N   0  0  0  0  0  2  0  0  0  0  0  0
  182.5480  180.2560  138.7220 C   0  0  0  0  0  2  0  0  0  0  0  0
  181.1290  180.4980  138.2250 C   0  0  0  0  0  2  0  0  0  0  0  0
  179.6260  179.3730  139.6940 O   0  0  0  0  0  0  0  0  0  0  0  0
  179.8630  181.6240  140.0550 O   0  0  0  0  0  1  0  0  0  0  0  0
  180.1580  180.4620  139.3550 C   0  0  0  0  0  0  0  0  0  0  0  0
  189.2080  178.0070  143.7140 O   0  0  0  0  0  0  0  0  0  0  0  0
  190.1090  176.8490  147.1320 C   0  0  0  0  0  3  0  0  0  0  0  0
  190.2260  177.1690  145.7750 C   0  0  0  0  0  3  0  0  0  0  0  0
  189.1240  177.6810  145.0720 C   0  0  0  0  0  0  0  0  0  0  0  0
  187.9100  177.8710  145.7390 C   0  0  0  0  0  3  0  0  0  0  0  0
  187.7920  177.5490  147.0940 C   0  0  0  0  0  3  0  0  0  0  0  0
  188.8910  177.0380  147.7900 C   0  0  0  0  0  3  0  0  0  0  0  0
  1 11  1  6  0  0  0
  1 27  1  0  0  0  0
  3  2  2  0  0  0  0
  4  7  1  0  0  0  0
  5  1  1  0  0  0  0
  6  9  1  0  0  0  0
  7 10  1  0  0  0  0
  8  4  1  0  0  0  0
  8  6  1  0  0  0  0
  9  5  2  0  0  0  0
 10  5  1  0  0  0  0
 10  3  2  0  0  0  0
 11 12  3  0  0  0  0
 14 15  1  0  0  0  0
 15 13  1  0  0  0  0
 16 12  1  1  0  0  0
 16 18  1  0  0  0  0
 17 19  1  6  0  0  0
 17 14  1  0  0  0  0
 17 16  1  0  0  0  0
 18 13  1  0  0  0  0
 20 19  1  0  0  0  0
 21 22  1  0  0  0  0
 21 20  1  0  0  0  0
 23 22  1  0  0  0  0
 23 26  1  0  0  0  0
 26 24  2  0  0  0  0
 26 25  1  0  0  0  0
 27 30  1  0  0  0  0
 28 33  1  0  0  0  0
 29 28  2  0  0  0  0
 30 31  2  0  0  0  0
 30 29  1  0  0  0  0
 31 32  1  0  0  0  0
 32 33  2  0  0  0  0
M  END
>  <MODEL>
9

>  <REMARK>
 VINA RESULT:      -7.4      2.839      8.221
  Name = 
  11 active torsions:
  status: ('A' for Active; 'I' for Inactive)
    1  A    between atoms: C_1  and  C_11
    2  A    between atoms: O_3  and  C_10
    3  A    between atoms: O_3  and  C_11
    4  A    between atoms: C_4  and  C_22
    5  A    between atoms: C_4  and  C_25
    6  A    between atoms: C_11  and  C_18
    7  A    between atoms: C_12  and  N_21
    8  A    between atoms: C_12  and  C_26
    9  A    between atoms: C_15  and  C_27
   10  A    between atoms: C_19  and  C_26
   11  A    between atoms: N_21  and  C_22
                            x       y       z     vdW  Elec       q    Type
                         _______ _______ _______ _____ _____    ______ ____

>  <TORSDO>
F 11

$$$$
