=
 OpenBabel11062414573D

 51 58  0  0  1  0  0  0  0  0999 V2000
  185.1500  178.2840  145.3990 N   0  0  0  0  0  2  0  0  0  0  0  0
  182.8650  179.6550  138.8220 N   0  0  0  0  0  0  0  0  0  0  0  0
  182.2220  178.1450  140.4680 C   0  0  2  0  0  3  0  0  0  0  0  0
  184.0550  179.6500  141.6680 C   0  0  0  0  0  2  0  0  0  0  0  0
  185.0300  175.8330  137.0920 C   0  0  0  0  0  2  0  0  0  0  0  0
  184.2800  179.2630  138.7290 C   0  0  0  0  0  0  0  0  0  0  0  0
  184.1920  177.5030  144.7840 O   0  0  0  0  0  0  0  0  0  0  0  0
  188.6770  176.6660  142.5080 C   0  0  0  0  0  0  0  0  0  0  0  0
  189.2540  177.1790  138.8260 C   0  0  0  0  0  2  0  0  0  0  0  0
  189.8330  177.2810  143.0260 C   0  0  0  0  0  3  0  0  0  0  0  0
  184.5320  179.3890  143.1010 C   0  0  0  0  0  2  0  0  0  0  0  0
  182.5400  179.2510  141.4640 C   0  0  2  0  0  0  0  0  0  0  0  0
  187.5040  176.4660  143.4340 C   0  0  1  0  0  3  0  0  0  0  0  0
  187.1650  177.7530  144.0040 C   0  0  1  0  0  3  0  0  0  0  0  0
  184.8030  178.0780  137.9200 C   0  0  2  0  0  3  0  0  0  0  0  0
  183.9520  176.8000  137.6090 C   0  0  2  0  0  3  0  0  0  0  0  0
  187.1680  175.4180  137.9560 O   0  0  0  0  0  0  0  0  0  0  0  0
  181.3400  178.1010  137.6780 C   0  0  0  0  0  2  0  0  0  0  0  0
  186.3490  177.2180  142.9050 N   0  0  0  0  0  2  0  0  0  0  0  0
  181.0810  175.9890  139.9620 C   0  0  0  0  0  2  0  0  0  0  0  0
  186.4320  177.5780  145.3490 C   0  0  0  0  0  2  0  0  0  0  0  0
  187.3470  178.4810  137.9740 C   0  0  0  0  0  0  0  0  0  0  0  0
  182.0940  179.4500  137.6400 C   0  0  0  0  0  2  0  0  0  0  0  0
  187.2470  179.2310  136.9690 O   0  0  0  0  0  0  0  0  0  0  0  0
  181.6310  179.3110  142.5830 O   0  0  0  0  0  0  0  0  0  0  0  0
  182.0510  179.6030  140.0520 C   0  0  1  0  0  3  0  0  0  0  0  0
  182.2160  178.7710  143.7980 C   0  0  0  0  0  2  0  0  0  0  0  0
  179.7950  177.7250  141.0280 C   0  0  0  0  0  1  0  0  0  0  0  0
  188.5430  178.4560  138.7410 N   0  0  0  0  0  2  0  0  0  0  0  0
  190.8560  177.6970  142.1540 C   0  0  0  0  0  0  0  0  0  0  0  0
  188.5460  176.5110  141.1330 C   0  0  0  0  0  3  0  0  0  0  0  0
  180.4010  178.0450  138.7690 O   0  0  0  0  0  0  0  0  0  0  0  0
  183.6660  178.2520  143.6650 C   0  0  2  0  0  3  0  0  0  0  0  0
  189.5770  176.8980  140.2710 C   0  0  0  0  0  0  0  0  0  0  0  0
  190.7210  177.5020  140.7590 C   0  0  0  0  0  3  0  0  0  0  0  0
  180.9040  177.5100  140.0050 C   0  0  1  0  0  0  0  0  0  0  0  0
  185.1110  180.0810  139.2060 O   0  0  0  0  0  0  0  0  0  0  0  0
  186.2840  176.2280  137.7370 C   0  0  0  0  0  0  0  0  0  0  0  0
  181.9470  175.4670  138.8070 C   0  0  2  0  0  3  0  0  0  0  0  0
  183.3760  176.1050  138.8600 C   0  0  0  0  0  2  0  0  0  0  0  0
  186.2030  177.5610  138.3550 C   0  0  2  0  0  3  0  0  0  0  0  0
  181.1190  175.3040  137.5100 C   0  0  1  0  0  3  0  0  0  0  0  0
  181.8730  174.8940  136.3920 O   0  0  0  0  0  1  0  0  0  0  0  0
  179.1120  174.4240  136.2480 C   0  0  0  0  0  1  0  0  0  0  0  0
  178.9310  175.2680  138.4650 F   0  0  0  0  0  0  0  0  0  0  0  0
  179.9730  173.1630  138.1840 C   0  0  0  0  0  1  0  0  0  0  0  0
  179.7870  174.5580  137.6080 C   0  0  0  0  0  0  0  0  0  0  0  0
  191.9710  178.6030  142.6110 C   0  0  0  0  0  2  0  0  0  0  0  0
  191.6810  177.9480  145.0700 C   0  0  0  0  0  1  0  0  0  0  0  0
  191.7250  179.0050  144.0230 C   0  0  0  0  0  0  0  0  0  0  0  0
  191.5920  180.1810  144.3440 O   0  0  0  0  0  0  0  0  0  0  0  0
  2 26  1  0  0  0  0
  3 12  1  0  0  0  0
  4 11  1  0  0  0  0
  5 16  1  0  0  0  0
  5 38  1  0  0  0  0
  6  2  1  0  0  0  0
  6 37  2  0  0  0  0
  7  1  1  0  0  0  0
  8 10  1  0  0  0  0
  8 13  1  0  0  0  0
  9 34  1  0  0  0  0
 11 33  1  0  0  0  0
 12  4  1  0  0  0  0
 12 25  1  0  0  0  0
 13 14  1  0  0  0  0
 14 21  1  0  0  0  0
 15 41  1  0  0  0  0
 15  6  1  0  0  0  0
 16 15  1  0  0  0  0
 16 40  1  0  0  0  0
 18 32  1  0  0  0  0
 19 13  1  0  0  0  0
 19 14  1  0  0  0  0
 20 36  1  0  0  0  0
 21  1  1  0  0  0  0
 22 41  1  0  0  0  0
 22 29  1  0  0  0  0
 23 18  1  0  0  0  0
 23  2  1  0  0  0  0
 24 22  2  0  0  0  0
 25 27  1  0  0  0  0
 26  3  1  0  0  0  0
 26 12  1  0  0  0  0
 29  9  1  0  0  0  0
 30 48  1  0  0  0  0
 30 10  2  0  0  0  0
 31  8  2  0  0  0  0
 32 36  1  0  0  0  0
 33 27  1  0  0  0  0
 33  7  1  0  0  0  0
 34 35  2  0  0  0  0
 34 31  1  0  0  0  0
 35 30  1  0  0  0  0
 36  3  1  0  0  0  0
 36 28  1  0  0  0  0
 38 17  2  0  0  0  0
 38 41  1  0  0  0  0
 39 40  1  0  0  0  0
 39 20  1  0  0  0  0
 42 47  1  0  0  0  0
 42 39  1  0  0  0  0
 43 42  1  0  0  0  0
 44 47  1  0  0  0  0
 47 46  1  0  0  0  0
 47 45  1  0  0  0  0
 48 50  1  0  0  0  0
 50 51  2  0  0  0  0
 50 49  1  0  0  0  0
M  END
>  <MODEL>
1

>  <REMARK>
 VINA RESULT:      -6.2      0.000      0.000
  Name = 
  4 active torsions:
  status: ('A' for Active; 'I' for Inactive)
    1  A    between atoms: C_32  and  C_43
    2  A    between atoms: C_32  and  C_49
    3  A    between atoms: C_33  and  C_35
    4  A    between atoms: C_35  and  C_46
                            x       y       z     vdW  Elec       q    Type
                         _______ _______ _______ _____ _____    ______ ____

>  <TORSDO>
F 4

$$$$
=
 OpenBabel11062414573D

 51 58  0  0  1  0  0  0  0  0999 V2000
  185.6330  172.4420  135.5910 N   0  0  0  0  0  2  0  0  0  0  0  0
  188.2690  178.7790  137.3900 N   0  0  0  0  0  0  0  0  0  0  0  0
  188.7900  176.5920  137.9810 C   0  0  2  0  0  3  0  0  0  0  0  0
  186.9440  176.3170  136.0880 C   0  0  0  0  0  2  0  0  0  0  0  0
  186.0840  178.6880  141.5740 C   0  0  0  0  0  2  0  0  0  0  0  0
  186.8500  178.7620  137.7770 C   0  0  0  0  0  0  0  0  0  0  0  0
  186.5970  172.5770  136.5690 O   0  0  0  0  0  0  0  0  0  0  0  0
  182.2060  174.4640  138.3430 C   0  0  0  0  0  0  0  0  0  0  0  0
  181.8210  177.9990  139.5720 C   0  0  0  0  0  2  0  0  0  0  0  0
  181.0440  174.3490  137.5560 C   0  0  0  0  0  3  0  0  0  0  0  0
  186.3920  174.9520  135.6620 C   0  0  0  0  0  2  0  0  0  0  0  0
  188.4560  176.2320  136.5400 C   0  0  2  0  0  0  0  0  0  0  0  0
  183.3270  173.4860  138.1010 C   0  0  1  0  0  3  0  0  0  0  0  0
  183.6740  173.5490  136.6960 C   0  0  1  0  0  3  0  0  0  0  0  0
  186.3330  178.9670  139.1990 C   0  0  2  0  0  3  0  0  0  0  0  0
  187.1630  178.6120  140.4800 C   0  0  2  0  0  3  0  0  0  0  0  0
  183.8960  177.8510  141.5410 O   0  0  0  0  0  0  0  0  0  0  0  0
  189.8040  179.0000  139.3000 C   0  0  0  0  0  2  0  0  0  0  0  0
  184.5270  174.2350  137.6770 N   0  0  0  0  0  2  0  0  0  0  0  0
  189.8940  175.9930  140.1320 C   0  0  0  0  0  2  0  0  0  0  0  0
  184.3360  172.2350  136.2380 C   0  0  0  0  0  2  0  0  0  0  0  0
  183.8020  179.2440  138.8090 C   0  0  0  0  0  0  0  0  0  0  0  0
  189.0900  179.6920  138.1160 C   0  0  0  0  0  2  0  0  0  0  0  0
  183.9710  180.4740  138.6030 O   0  0  0  0  0  0  0  0  0  0  0  0
  189.3110  175.2150  135.9770 O   0  0  0  0  0  0  0  0  0  0  0  0
  189.0210  177.6190  136.8750 C   0  0  1  0  0  3  0  0  0  0  0  0
  188.6530  173.9220  135.8990 C   0  0  0  0  0  2  0  0  0  0  0  0
  191.1750  175.7690  138.1040 C   0  0  0  0  0  1  0  0  0  0  0  0
  182.5700  178.6180  138.4770 N   0  0  0  0  0  2  0  0  0  0  0  0
  180.0760  175.3710  137.5830 C   0  0  0  0  0  0  0  0  0  0  0  0
  182.3980  175.6060  139.1100 C   0  0  0  0  0  3  0  0  0  0  0  0
  190.6870  177.9540  138.8520 O   0  0  0  0  0  0  0  0  0  0  0  0
  187.1980  173.8840  136.4170 C   0  0  2  0  0  3  0  0  0  0  0  0
  181.4210  176.6060  139.1580 C   0  0  0  0  0  0  0  0  0  0  0  0
  180.2720  176.5120  138.3950 C   0  0  0  0  0  3  0  0  0  0  0  0
  190.1110  176.6400  138.7610 C   0  0  1  0  0  0  0  0  0  0  0  0
  186.0200  178.7580  136.8290 O   0  0  0  0  0  0  0  0  0  0  0  0
  184.8120  178.3660  140.9240 C   0  0  0  0  0  0  0  0  0  0  0  0
  189.0700  176.8280  141.1230 C   0  0  2  0  0  3  0  0  0  0  0  0
  187.6580  177.1520  140.5270 C   0  0  0  0  0  2  0  0  0  0  0  0
  184.9010  178.4220  139.4560 C   0  0  2  0  0  3  0  0  0  0  0  0
  189.9550  177.8590  141.8640 C   0  0  1  0  0  3  0  0  0  0  0  0
  189.2510  178.6760  142.7720 O   0  0  0  0  0  1  0  0  0  0  0  0
  191.7790  178.2720  143.5660 C   0  0  0  0  0  1  0  0  0  0  0  0
  192.2450  177.3500  141.4230 F   0  0  0  0  0  0  0  0  0  0  0  0
  191.1580  175.9550  142.9940 C   0  0  0  0  0  1  0  0  0  0  0  0
  191.2810  177.3670  142.4430 C   0  0  0  0  0  0  0  0  0  0  0  0
  178.9650  175.4400  136.5650 C   0  0  0  0  0  2  0  0  0  0  0  0
  180.2950  176.3920  134.5940 C   0  0  0  0  0  1  0  0  0  0  0  0
  179.5410  175.2630  135.2030 C   0  0  0  0  0  0  0  0  0  0  0  0
  179.4370  174.2040  134.5940 O   0  0  0  0  0  0  0  0  0  0  0  0
  1 21  1  0  0  0  0
  1  7  1  0  0  0  0
  2  6  1  0  0  0  0
  2 23  1  0  0  0  0
  3 36  1  0  0  0  0
  4 12  1  0  0  0  0
  6 15  1  0  0  0  0
  8 31  1  0  0  0  0
 10 30  1  0  0  0  0
 10  8  2  0  0  0  0
 11  4  1  0  0  0  0
 11 33  1  0  0  0  0
 12 26  1  0  0  0  0
 12  3  1  0  0  0  0
 13  8  1  0  0  0  0
 14 19  1  0  0  0  0
 14 13  1  0  0  0  0
 15 41  1  0  0  0  0
 15 16  1  0  0  0  0
 16 40  1  0  0  0  0
 16  5  1  0  0  0  0
 19 13  1  0  0  0  0
 20 39  1  0  0  0  0
 21 14  1  0  0  0  0
 22 41  1  0  0  0  0
 23 18  1  0  0  0  0
 24 22  2  0  0  0  0
 25 12  1  0  0  0  0
 26  2  1  0  0  0  0
 26  3  1  0  0  0  0
 27 25  1  0  0  0  0
 27 33  1  0  0  0  0
 28 36  1  0  0  0  0
 29 22  1  0  0  0  0
 29  9  1  0  0  0  0
 30 35  2  0  0  0  0
 31 34  2  0  0  0  0
 32 18  1  0  0  0  0
 33  7  1  0  0  0  0
 34  9  1  0  0  0  0
 35 34  1  0  0  0  0
 36 32  1  0  0  0  0
 36 20  1  0  0  0  0
 37  6  2  0  0  0  0
 38 17  2  0  0  0  0
 38  5  1  0  0  0  0
 39 42  1  0  0  0  0
 40 39  1  0  0  0  0
 41 38  1  0  0  0  0
 42 47  1  0  0  0  0
 42 43  1  0  0  0  0
 45 47  1  0  0  0  0
 47 46  1  0  0  0  0
 47 44  1  0  0  0  0
 48 30  1  0  0  0  0
 49 50  1  0  0  0  0
 50 48  1  0  0  0  0
 51 50  2  0  0  0  0
M  END
>  <MODEL>
2

>  <REMARK>
 VINA RESULT:      -4.5      3.077      9.427
  Name = 
  4 active torsions:
  status: ('A' for Active; 'I' for Inactive)
    1  A    between atoms: C_32  and  C_43
    2  A    between atoms: C_32  and  C_49
    3  A    between atoms: C_33  and  C_35
    4  A    between atoms: C_35  and  C_46
                            x       y       z     vdW  Elec       q    Type
                         _______ _______ _______ _____ _____    ______ ____

>  <TORSDO>
F 4

$$$$
=
 OpenBabel11062414573D

 51 58  0  0  1  0  0  0  0  0999 V2000
  189.0230  177.7230  142.9780 N   0  0  0  0  0  2  0  0  0  0  0  0
  183.9060  179.4170  138.3630 N   0  0  0  0  0  0  0  0  0  0  0  0
  184.0080  178.0050  140.2070 C   0  0  2  0  0  3  0  0  0  0  0  0
  186.3620  179.2380  140.2190 C   0  0  0  0  0  2  0  0  0  0  0  0
  184.4150  175.3370  136.0420 C   0  0  0  0  0  2  0  0  0  0  0  0
  185.0190  178.8330  137.5980 C   0  0  0  0  0  0  0  0  0  0  0  0
  187.7990  177.0840  142.9820 O   0  0  0  0  0  0  0  0  0  0  0  0
  190.3720  175.6410  138.8240 C   0  0  0  0  0  0  0  0  0  0  0  0
  189.0610  176.0800  135.3250 C   0  0  0  0  0  2  0  0  0  0  0  0
  191.6970  176.0880  138.6490 C   0  0  0  0  0  3  0  0  0  0  0  0
  187.4650  178.9100  141.2330 C   0  0  0  0  0  2  0  0  0  0  0  0
  184.9180  179.0540  140.8310 C   0  0  2  0  0  0  0  0  0  0  0  0
  189.8160  175.6020  140.2250 C   0  0  1  0  0  3  0  0  0  0  0  0
  189.9710  176.9220  140.7990 C   0  0  1  0  0  3  0  0  0  0  0  0
  184.9120  177.5900  136.7180 C   0  0  2  0  0  3  0  0  0  0  0  0
  183.8730  176.4430  136.9640 C   0  0  2  0  0  3  0  0  0  0  0  0
  186.6270  174.6280  135.7410 O   0  0  0  0  0  0  0  0  0  0  0  0
  181.8360  178.0930  138.2470 C   0  0  0  0  0  2  0  0  0  0  0  0
  188.6530  176.5090  140.2980 N   0  0  0  0  0  2  0  0  0  0  0  0
  182.5170  176.0300  140.4890 C   0  0  0  0  0  2  0  0  0  0  0  0
  190.0060  176.8460  142.3390 C   0  0  0  0  0  2  0  0  0  0  0  0
  187.1600  177.6360  135.4610 C   0  0  0  0  0  0  0  0  0  0  0  0
  182.6240  179.3240  137.7450 C   0  0  0  0  0  2  0  0  0  0  0  0
  186.6560  178.3960  134.5940 O   0  0  0  0  0  0  0  0  0  0  0  0
  184.7170  179.2360  142.2480 O   0  0  0  0  0  0  0  0  0  0  0  0
  183.8280  179.4750  139.8350 C   0  0  1  0  0  3  0  0  0  0  0  0
  185.7660  178.6160  143.0380 C   0  0  0  0  0  2  0  0  0  0  0  0
  182.1690  177.9250  141.9360 C   0  0  0  0  0  1  0  0  0  0  0  0
  188.5670  177.4430  135.5230 N   0  0  0  0  0  2  0  0  0  0  0  0
  192.1780  176.3610  137.3550 C   0  0  0  0  0  0  0  0  0  0  0  0
  189.5460  175.5100  137.7150 C   0  0  0  0  0  3  0  0  0  0  0  0
  181.5810  178.1640  139.6630 O   0  0  0  0  0  0  0  0  0  0  0  0
  186.8730  177.9030  142.2310 C   0  0  2  0  0  3  0  0  0  0  0  0
  190.0360  175.7530  136.4280 C   0  0  0  0  0  0  0  0  0  0  0  0
  191.3320  176.1910  136.2330 C   0  0  0  0  0  3  0  0  0  0  0  0
  182.5710  177.5610  140.5120 C   0  0  1  0  0  0  0  0  0  0  0  0
  186.0690  179.5270  137.5370 O   0  0  0  0  0  0  0  0  0  0  0  0
  185.8600  175.5530  135.9420 C   0  0  0  0  0  0  0  0  0  0  0  0
  182.6080  175.3970  139.0940 C   0  0  2  0  0  3  0  0  0  0  0  0
  183.9320  175.8300  138.3790 C   0  0  0  0  0  2  0  0  0  0  0  0
  186.2650  176.8830  136.4260 C   0  0  2  0  0  3  0  0  0  0  0  0
  181.2240  175.3540  138.4020 C   0  0  1  0  0  3  0  0  0  0  0  0
  181.2370  174.7690  137.1200 O   0  0  0  0  0  1  0  0  0  0  0  0
  178.9640  175.9680  139.3570 C   0  0  0  0  0  1  0  0  0  0  0  0
  180.4770  174.5490  140.5220 F   0  0  0  0  0  0  0  0  0  0  0  0
  179.3820  173.6500  138.6290 C   0  0  0  0  0  1  0  0  0  0  0  0
  180.0300  174.8850  139.2350 C   0  0  0  0  0  0  0  0  0  0  0  0
  193.4720  177.1020  137.1280 C   0  0  0  0  0  2  0  0  0  0  0  0
  194.7790  174.9830  136.5300 C   0  0  0  0  0  1  0  0  0  0  0  0
  194.3040  176.3430  136.1560 C   0  0  0  0  0  0  0  0  0  0  0  0
  194.5760  176.7960  135.0490 O   0  0  0  0  0  0  0  0  0  0  0  0
  1  7  1  0  0  0  0
  2 26  1  0  0  0  0
  3 36  1  0  0  0  0
  3 12  1  0  0  0  0
  4 12  1  0  0  0  0
  4 11  1  0  0  0  0
  5 16  1  0  0  0  0
  6  2  1  0  0  0  0
  8 13  1  0  0  0  0
  9 29  1  0  0  0  0
  9 34  1  0  0  0  0
 10  8  1  0  0  0  0
 11 33  1  0  0  0  0
 12 25  1  0  0  0  0
 13 19  1  0  0  0  0
 13 14  1  0  0  0  0
 14 21  1  0  0  0  0
 15 16  1  0  0  0  0
 15  6  1  0  0  0  0
 16 40  1  0  0  0  0
 17 38  2  0  0  0  0
 18 32  1  0  0  0  0
 19 14  1  0  0  0  0
 20 36  1  0  0  0  0
 21  1  1  0  0  0  0
 22 29  1  0  0  0  0
 22 41  1  0  0  0  0
 23 18  1  0  0  0  0
 23  2  1  0  0  0  0
 24 22  2  0  0  0  0
 25 27  1  0  0  0  0
 26  3  1  0  0  0  0
 26 12  1  0  0  0  0
 30 10  2  0  0  0  0
 31  8  2  0  0  0  0
 32 36  1  0  0  0  0
 33  7  1  0  0  0  0
 33 27  1  0  0  0  0
 34 31  1  0  0  0  0
 35 34  2  0  0  0  0
 35 30  1  0  0  0  0
 36 28  1  0  0  0  0
 37  6  2  0  0  0  0
 38  5  1  0  0  0  0
 38 41  1  0  0  0  0
 39 20  1  0  0  0  0
 40 39  1  0  0  0  0
 41 15  1  0  0  0  0
 42 39  1  0  0  0  0
 42 47  1  0  0  0  0
 43 42  1  0  0  0  0
 46 47  1  0  0  0  0
 47 44  1  0  0  0  0
 47 45  1  0  0  0  0
 48 30  1  0  0  0  0
 50 49  1  0  0  0  0
 50 48  1  0  0  0  0
 51 50  2  0  0  0  0
M  END
>  <MODEL>
3

>  <REMARK>
 VINA RESULT:      -3.4      2.640      3.729
  Name = 
  4 active torsions:
  status: ('A' for Active; 'I' for Inactive)
    1  A    between atoms: C_32  and  C_43
    2  A    between atoms: C_32  and  C_49
    3  A    between atoms: C_33  and  C_35
    4  A    between atoms: C_35  and  C_46
                            x       y       z     vdW  Elec       q    Type
                         _______ _______ _______ _____ _____    ______ ____

>  <TORSDO>
F 4

$$$$
=
 OpenBabel11062414573D

 51 58  0  0  1  0  0  0  0  0999 V2000
  187.9970  172.9740  136.1140 N   0  0  0  0  0  2  0  0  0  0  0  0
  188.7370  179.1260  139.5720 N   0  0  0  0  0  0  0  0  0  0  0  0
  189.3000  176.9250  140.0630 C   0  0  2  0  0  3  0  0  0  0  0  0
  188.4150  176.8110  137.5600 C   0  0  0  0  0  2  0  0  0  0  0  0
  185.1170  178.1440  142.4380 C   0  0  0  0  0  2  0  0  0  0  0  0
  187.3000  178.9200  139.3340 C   0  0  0  0  0  0  0  0  0  0  0  0
  188.4650  173.0280  137.4110 O   0  0  0  0  0  0  0  0  0  0  0  0
  183.5030  174.1990  137.4230 C   0  0  0  0  0  0  0  0  0  0  0  0
  182.1450  177.4300  138.7900 C   0  0  0  0  0  2  0  0  0  0  0  0
  182.7780  174.1170  136.2180 C   0  0  0  0  0  3  0  0  0  0  0  0
  188.2850  175.4940  136.7860 C   0  0  0  0  0  2  0  0  0  0  0  0
  189.6200  176.7840  138.5820 C   0  0  2  0  0  0  0  0  0  0  0  0
  184.7600  173.3770  137.5520 C   0  0  1  0  0  3  0  0  0  0  0  0
  185.6200  173.7050  136.4340 C   0  0  1  0  0  3  0  0  0  0  0  0
  186.2400  178.8380  140.4290 C   0  0  2  0  0  3  0  0  0  0  0  0
  186.5380  178.3470  141.8870 C   0  0  2  0  0  3  0  0  0  0  0  0
  183.2710  177.1360  141.4080 O   0  0  0  0  0  0  0  0  0  0  0  0
  189.3410  179.1570  141.9560 C   0  0  0  0  0  2  0  0  0  0  0  0
  185.9040  174.2880  137.7520 N   0  0  0  0  0  2  0  0  0  0  0  0
  189.5400  176.0720  142.3920 C   0  0  0  0  0  2  0  0  0  0  0  0
  186.5960  172.5490  136.1380 C   0  0  0  0  0  2  0  0  0  0  0  0
  184.0580  178.9540  139.0650 C   0  0  0  0  0  0  0  0  0  0  0  0
  189.0600  179.9730  140.6740 C   0  0  0  0  0  2  0  0  0  0  0  0
  184.1100  180.2100  139.0930 O   0  0  0  0  0  0  0  0  0  0  0  0
  190.7680  175.9540  138.3060 O   0  0  0  0  0  0  0  0  0  0  0  0
  189.7940  178.1390  139.2810 C   0  0  1  0  0  3  0  0  0  0  0  0
  190.3940  174.6410  137.8130 C   0  0  0  0  0  2  0  0  0  0  0  0
  191.5360  176.3050  141.0620 C   0  0  0  0  0  1  0  0  0  0  0  0
  183.1640  178.2870  138.1830 N   0  0  0  0  0  2  0  0  0  0  0  0
  181.7380  175.0310  135.9640 C   0  0  0  0  0  0  0  0  0  0  0  0
  183.2050  175.2080  138.3300 C   0  0  0  0  0  3  0  0  0  0  0  0
  190.4740  178.2810  141.7940 O   0  0  0  0  0  0  0  0  0  0  0  0
  188.8760  174.3890  137.6750 C   0  0  2  0  0  3  0  0  0  0  0  0
  182.1520  176.0960  138.0870 C   0  0  0  0  0  0  0  0  0  0  0  0
  181.4260  176.0320  136.9130 C   0  0  0  0  0  3  0  0  0  0  0  0
  190.1830  176.9570  141.3190 C   0  0  1  0  0  0  0  0  0  0  0  0
  186.9230  179.0030  138.1340 O   0  0  0  0  0  0  0  0  0  0  0  0
  184.2680  177.8250  141.2890 C   0  0  0  0  0  0  0  0  0  0  0  0
  188.2780  176.6530  143.0440 C   0  0  2  0  0  3  0  0  0  0  0  0
  187.1850  176.9480  141.9620 C   0  0  0  0  0  2  0  0  0  0  0  0
  184.9200  178.1340  140.0060 C   0  0  2  0  0  3  0  0  0  0  0  0
  188.6350  177.6190  144.2000 C   0  0  1  0  0  3  0  0  0  0  0  0
  187.5250  178.0460  144.9580 O   0  0  0  0  0  1  0  0  0  0  0  0
  190.9440  178.2890  144.9820 C   0  0  0  0  0  1  0  0  0  0  0  0
  190.3330  176.0100  144.6780 F   0  0  0  0  0  0  0  0  0  0  0  0
  189.4220  177.1410  146.5460 C   0  0  0  0  0  1  0  0  0  0  0  0
  189.8280  177.2550  145.0840 C   0  0  0  0  0  0  0  0  0  0  0  0
  181.1230  175.1730  134.5940 C   0  0  0  0  0  2  0  0  0  0  0  0
  178.9860  173.8290  135.0250 C   0  0  0  0  0  1  0  0  0  0  0  0
  179.6410  175.1300  134.7190 C   0  0  0  0  0  0  0  0  0  0  0  0
  178.9560  176.1420  134.6100 O   0  0  0  0  0  0  0  0  0  0  0  0
  1 21  1  0  0  0  0
  1  7  1  0  0  0  0
  2 23  1  0  0  0  0
  3 36  1  0  0  0  0
  4 12  1  0  0  0  0
  6  2  1  0  0  0  0
  6 15  1  0  0  0  0
  7 33  1  0  0  0  0
  8 13  1  0  0  0  0
  8 31  1  0  0  0  0
 10  8  2  0  0  0  0
 11  4  1  0  0  0  0
 11 33  1  0  0  0  0
 12 26  1  0  0  0  0
 12  3  1  0  0  0  0
 13 19  1  0  0  0  0
 14 13  1  0  0  0  0
 14 19  1  0  0  0  0
 15 16  1  0  0  0  0
 16 40  1  0  0  0  0
 16  5  1  0  0  0  0
 20 39  1  0  0  0  0
 21 14  1  0  0  0  0
 22 24  2  0  0  0  0
 22 41  1  0  0  0  0
 23 18  1  0  0  0  0
 25 12  1  0  0  0  0
 26  2  1  0  0  0  0
 26  3  1  0  0  0  0
 27 25  1  0  0  0  0
 28 36  1  0  0  0  0
 29  9  1  0  0  0  0
 29 22  1  0  0  0  0
 30 10  1  0  0  0  0
 30 35  2  0  0  0  0
 32 18  1  0  0  0  0
 33 27  1  0  0  0  0
 34 31  2  0  0  0  0
 34  9  1  0  0  0  0
 35 34  1  0  0  0  0
 36 32  1  0  0  0  0
 36 20  1  0  0  0  0
 37  6  2  0  0  0  0
 38 17  2  0  0  0  0
 38  5  1  0  0  0  0
 39 42  1  0  0  0  0
 40 39  1  0  0  0  0
 41 15  1  0  0  0  0
 41 38  1  0  0  0  0
 42 43  1  0  0  0  0
 42 47  1  0  0  0  0
 44 47  1  0  0  0  0
 45 47  1  0  0  0  0
 47 46  1  0  0  0  0
 48 50  1  0  0  0  0
 48 30  1  0  0  0  0
 50 49  1  0  0  0  0
 51 50  2  0  0  0  0
M  END
>  <MODEL>
4

>  <REMARK>
 VINA RESULT:      -3.3      2.959      9.355
  Name = 
  4 active torsions:
  status: ('A' for Active; 'I' for Inactive)
    1  A    between atoms: C_32  and  C_43
    2  A    between atoms: C_32  and  C_49
    3  A    between atoms: C_33  and  C_35
    4  A    between atoms: C_35  and  C_46
                            x       y       z     vdW  Elec       q    Type
                         _______ _______ _______ _____ _____    ______ ____

>  <TORSDO>
F 4

$$$$
