=
 OpenBabel11062414433D

 27 29  0  0  1  0  0  0  0  0999 V2000
  188.3280  177.3520  140.8310 N   0  0  0  0  0  0  0  0  0  0  0  0
  189.5280  176.5050  140.8490 C   0  0  1  0  0  3  0  0  0  0  0  0
  190.6110  177.0030  139.9260 C   0  0  0  0  0  3  0  0  0  0  0  0
  188.0640  178.2130  139.8920 C   0  0  0  0  0  0  0  0  0  0  0  0
  189.0750  178.4690  138.8590 C   0  0  0  0  0  0  0  0  0  0  0  0
  188.8300  179.2370  137.8920 O   0  0  0  0  0  0  0  0  0  0  0  0
  186.8480  178.9770  139.9030 N   0  0  0  0  0  2  0  0  0  0  0  0
  190.3670  177.8760  138.9960 N   0  0  0  0  0  0  0  0  0  0  0  0
  183.5630  178.5410  142.5490 C   0  0  0  0  0  3  0  0  0  0  0  0
  185.7260  178.8090  140.7820 C   0  0  0  0  0  0  0  0  0  0  0  0
  183.4670  178.0410  141.2490 C   0  0  0  0  0  3  0  0  0  0  0  0
  184.7350  179.1790  142.9680 C   0  0  0  0  0  0  0  0  0  0  0  0
  184.8300  179.6790  144.2580 O   0  0  0  0  0  1  0  0  0  0  0  0
  185.8110  179.3130  142.0840 C   0  0  0  0  0  3  0  0  0  0  0  0
  184.5430  178.1760  140.3680 C   0  0  0  0  0  3  0  0  0  0  0  0
  190.0740  176.3720  142.2620 C   0  0  0  0  0  2  0  0  0  0  0  0
  189.1700  177.8850  145.4900 N   0  0  0  0  0  0  0  0  0  0  0  0
  191.0090  178.5270  143.6620 S   0  0  0  0  0  0  0  0  0  0  0  0
  190.5710  178.2670  145.4010 C   0  0  0  0  0  2  0  0  0  0  0  0
  189.5960  177.5190  143.1400 C   0  0  2  0  0  3  0  0  0  0  0  0
  188.9220  176.9730  144.3810 C   0  0  2  0  0  3  0  0  0  0  0  0
  187.4280  176.8550  144.1240 C   0  0  0  0  0  1  0  0  0  0  0  0
  189.0300  177.1250  146.7250 C   0  0  0  0  0  2  0  0  0  0  0  0
  189.0110  178.0630  147.9200 C   0  0  0  0  0  2  0  0  0  0  0  0
  187.6030  178.1800  148.4770 C   0  0  0  0  0  2  0  0  0  0  0  0
  185.9140  179.5190  147.4490 O   0  0  0  0  0  1  0  0  0  0  0  0
  186.5990  178.3080  147.3460 C   0  0  0  0  0  2  0  0  0  0  0  0
  1  2  1  0  0  0  0
  2 16  1  1  0  0  0
  3  2  1  0  0  0  0
  4  7  1  0  0  0  0
  4  1  2  0  0  0  0
  5  8  1  0  0  0  0
  5  4  1  0  0  0  0
  6  5  2  0  0  0  0
  7 10  1  0  0  0  0
  8  3  2  0  0  0  0
  9 12  1  0  0  0  0
 10 14  1  0  0  0  0
 11  9  2  0  0  0  0
 12 13  1  0  0  0  0
 14 12  2  0  0  0  0
 15 10  2  0  0  0  0
 15 11  1  0  0  0  0
 17 23  1  0  0  0  0
 18 19  1  0  0  0  0
 19 17  1  0  0  0  0
 20 16  1  6  0  0  0
 20 18  1  0  0  0  0
 20 21  1  0  0  0  0
 21 22  1  6  0  0  0
 21 17  1  0  0  0  0
 23 24  1  0  0  0  0
 24 25  1  0  0  0  0
 27 26  1  0  0  0  0
 27 25  1  0  0  0  0
M  END
>  <MODEL>
1

>  <REMARK>
 VINA RESULT:      -7.4      0.000      0.000
  Name = 
  7 active torsions:
  status: ('A' for Active; 'I' for Inactive)
    1  A    between atoms: N_1  and  C_18
    2  A    between atoms: C_5  and  C_6
    3  A    between atoms: C_6  and  C_14
    4  A    between atoms: C_7  and  N_25
    5  A    between atoms: C_8  and  C_10
    6  A    between atoms: C_8  and  C_18
    7  A    between atoms: C_10  and  C_22
                            x       y       z     vdW  Elec       q    Type
                         _______ _______ _______ _____ _____    ______ ____

>  <TORSDO>
F 7

$$$$
=
 OpenBabel11062414433D

 27 29  0  0  1  0  0  0  0  0999 V2000
  188.9360  177.6630  144.5170 N   0  0  0  0  0  0  0  0  0  0  0  0
  190.2820  177.5700  143.9350 C   0  0  1  0  0  3  0  0  0  0  0  0
  191.3080  177.0510  144.9100 C   0  0  0  0  0  3  0  0  0  0  0  0
  188.6980  177.6520  145.7960 C   0  0  0  0  0  0  0  0  0  0  0  0
  189.8070  177.3900  146.7220 C   0  0  0  0  0  0  0  0  0  0  0  0
  189.6350  177.4450  147.9670 O   0  0  0  0  0  0  0  0  0  0  0  0
  187.3640  177.7980  146.3060 N   0  0  0  0  0  2  0  0  0  0  0  0
  191.0780  177.0160  146.1880 N   0  0  0  0  0  0  0  0  0  0  0  0
  183.9000  178.7370  144.0470 C   0  0  0  0  0  3  0  0  0  0  0  0
  186.1830  178.1310  145.5630 C   0  0  0  0  0  0  0  0  0  0  0  0
  183.8870  178.9220  145.4310 C   0  0  0  0  0  3  0  0  0  0  0  0
  185.0490  178.2460  143.4190 C   0  0  0  0  0  0  0  0  0  0  0  0
  185.0620  178.0580  142.0440 O   0  0  0  0  0  1  0  0  0  0  0  0
  186.1850  177.9430  144.1760 C   0  0  0  0  0  3  0  0  0  0  0  0
  185.0230  178.6190  146.1860 C   0  0  0  0  0  3  0  0  0  0  0  0
  190.2720  176.7030  142.6860 C   0  0  0  0  0  2  0  0  0  0  0  0
  190.2660  177.1930  139.0400 N   0  0  0  0  0  0  0  0  0  0  0  0
  188.5010  177.8390  140.9390 S   0  0  0  0  0  0  0  0  0  0  0  0
  188.8360  177.1360  139.3030 C   0  0  0  0  0  2  0  0  0  0  0  0
  190.2230  177.5580  141.4290 C   0  0  2  0  0  3  0  0  0  0  0  0
  190.9260  176.8470  140.2920 C   0  0  2  0  0  3  0  0  0  0  0  0
  192.3810  177.2870  140.2550 C   0  0  0  0  0  1  0  0  0  0  0  0
  190.5500  176.1310  138.0850 C   0  0  0  0  0  2  0  0  0  0  0  0
  190.7890  176.7180  136.7040 C   0  0  0  0  0  2  0  0  0  0  0  0
  191.9310  175.9920  136.0130 C   0  0  0  0  0  2  0  0  0  0  0  0
  193.9610  176.7460  137.0170 O   0  0  0  0  0  1  0  0  0  0  0  0
  193.0420  175.6960  137.0030 C   0  0  0  0  0  2  0  0  0  0  0  0
  1  4  2  0  0  0  0
  2 16  1  6  0  0  0
  2  1  1  0  0  0  0
  2  3  1  0  0  0  0
  3  8  2  0  0  0  0
  4  7  1  0  0  0  0
  4  5  1  0  0  0  0
  5  6  2  0  0  0  0
  8  5  1  0  0  0  0
  9 11  1  0  0  0  0
 10 15  1  0  0  0  0
 10  7  1  0  0  0  0
 11 15  2  0  0  0  0
 12  9  2  0  0  0  0
 12 14  1  0  0  0  0
 13 12  1  0  0  0  0
 14 10  2  0  0  0  0
 17 19  1  0  0  0  0
 17 21  1  0  0  0  0
 18 20  1  0  0  0  0
 19 18  1  0  0  0  0
 20 16  1  1  0  0  0
 21 22  1  6  0  0  0
 21 20  1  0  0  0  0
 23 17  1  0  0  0  0
 24 23  1  0  0  0  0
 25 24  1  0  0  0  0
 25 27  1  0  0  0  0
 27 26  1  0  0  0  0
M  END
>  <MODEL>
2

>  <REMARK>
 VINA RESULT:      -7.3      2.480      7.023
  Name = 
  7 active torsions:
  status: ('A' for Active; 'I' for Inactive)
    1  A    between atoms: N_1  and  C_18
    2  A    between atoms: C_5  and  C_6
    3  A    between atoms: C_6  and  C_14
    4  A    between atoms: C_7  and  N_25
    5  A    between atoms: C_8  and  C_10
    6  A    between atoms: C_8  and  C_18
    7  A    between atoms: C_10  and  C_22
                            x       y       z     vdW  Elec       q    Type
                         _______ _______ _______ _____ _____    ______ ____

>  <TORSDO>
F 7

$$$$
=
 OpenBabel11062414433D

 27 29  0  0  1  0  0  0  0  0999 V2000
  188.8300  177.6860  144.5860 N   0  0  0  0  0  0  0  0  0  0  0  0
  190.1930  177.6110  144.0420 C   0  0  1  0  0  3  0  0  0  0  0  0
  191.1890  177.0600  145.0310 C   0  0  0  0  0  3  0  0  0  0  0  0
  188.5540  177.6350  145.8560 C   0  0  0  0  0  0  0  0  0  0  0  0
  189.6340  177.3430  146.8070 C   0  0  0  0  0  0  0  0  0  0  0  0
  189.4240  177.3590  148.0480 O   0  0  0  0  0  0  0  0  0  0  0  0
  187.2050  177.7650  146.3310 N   0  0  0  0  0  2  0  0  0  0  0  0
  190.9210  176.9850  146.3010 N   0  0  0  0  0  0  0  0  0  0  0  0
  183.8090  178.7760  144.0000 C   0  0  0  0  0  3  0  0  0  0  0  0
  186.0460  178.1230  145.5630 C   0  0  0  0  0  0  0  0  0  0  0  0
  183.7660  178.9490  145.3850 C   0  0  0  0  0  3  0  0  0  0  0  0
  184.9660  178.2740  143.3940 C   0  0  0  0  0  0  0  0  0  0  0  0
  185.0080  178.0990  142.0190 O   0  0  0  0  0  1  0  0  0  0  0  0
  186.0780  177.9470  144.1760 C   0  0  0  0  0  3  0  0  0  0  0  0
  184.8790  178.6220  146.1640 C   0  0  0  0  0  3  0  0  0  0  0  0
  190.2200  176.7830  142.7670 C   0  0  0  0  0  2  0  0  0  0  0  0
  190.2520  177.3860  139.1390 N   0  0  0  0  0  0  0  0  0  0  0  0
  188.4690  177.9770  141.0390 S   0  0  0  0  0  0  0  0  0  0  0  0
  188.8200  177.3240  139.3850 C   0  0  0  0  0  2  0  0  0  0  0  0
  190.1860  177.6770  141.5370 C   0  0  2  0  0  3  0  0  0  0  0  0
  190.8990  177.0010  140.3860 C   0  0  2  0  0  3  0  0  0  0  0  0
  192.3550  177.4390  140.3770 C   0  0  0  0  0  1  0  0  0  0  0  0
  190.5440  176.3540  138.1540 C   0  0  0  0  0  2  0  0  0  0  0  0
  189.3990  176.2380  137.1610 C   0  0  0  0  0  2  0  0  0  0  0  0
  189.8110  176.8060  135.8130 C   0  0  0  0  0  2  0  0  0  0  0  0
  187.9210  178.2440  136.0600 O   0  0  0  0  0  1  0  0  0  0  0  0
  188.6250  177.4690  135.1370 C   0  0  0  0  0  2  0  0  0  0  0  0
  1  4  2  0  0  0  0
  2 16  1  6  0  0  0
  2  1  1  0  0  0  0
  2  3  1  0  0  0  0
  3  8  2  0  0  0  0
  4  7  1  0  0  0  0
  4  5  1  0  0  0  0
  5  6  2  0  0  0  0
  8  5  1  0  0  0  0
  9 11  1  0  0  0  0
 10 15  1  0  0  0  0
 10  7  1  0  0  0  0
 11 15  2  0  0  0  0
 12  9  2  0  0  0  0
 12 14  1  0  0  0  0
 13 12  1  0  0  0  0
 14 10  2  0  0  0  0
 17 19  1  0  0  0  0
 17 21  1  0  0  0  0
 18 20  1  0  0  0  0
 19 18  1  0  0  0  0
 20 16  1  1  0  0  0
 21 22  1  6  0  0  0
 21 20  1  0  0  0  0
 23 17  1  0  0  0  0
 24 23  1  0  0  0  0
 25 24  1  0  0  0  0
 27 25  1  0  0  0  0
 27 26  1  0  0  0  0
M  END
>  <MODEL>
3

>  <REMARK>
 VINA RESULT:      -7.2      2.169      6.831
  Name = 
  7 active torsions:
  status: ('A' for Active; 'I' for Inactive)
    1  A    between atoms: N_1  and  C_18
    2  A    between atoms: C_5  and  C_6
    3  A    between atoms: C_6  and  C_14
    4  A    between atoms: C_7  and  N_25
    5  A    between atoms: C_8  and  C_10
    6  A    between atoms: C_8  and  C_18
    7  A    between atoms: C_10  and  C_22
                            x       y       z     vdW  Elec       q    Type
                         _______ _______ _______ _____ _____    ______ ____

>  <TORSDO>
F 7

$$$$
=
 OpenBabel11062414433D

 27 29  0  0  1  0  0  0  0  0999 V2000
  185.5570  178.1420  143.7040 N   0  0  0  0  0  0  0  0  0  0  0  0
  184.1830  178.3030  143.2090 C   0  0  1  0  0  3  0  0  0  0  0  0
  183.2790  178.9870  144.2030 C   0  0  0  0  0  3  0  0  0  0  0  0
  185.8910  178.2360  144.9570 C   0  0  0  0  0  0  0  0  0  0  0  0
  184.8800  178.6670  145.9310 C   0  0  0  0  0  0  0  0  0  0  0  0
  185.1400  178.6990  147.1620 O   0  0  0  0  0  0  0  0  0  0  0  0
  187.2440  178.0180  145.3870 N   0  0  0  0  0  2  0  0  0  0  0  0
  183.6060  179.1060  145.4550 N   0  0  0  0  0  0  0  0  0  0  0  0
  190.5220  176.5980  143.1010 C   0  0  0  0  0  3  0  0  0  0  0  0
  188.3350  177.5240  144.5960 C   0  0  0  0  0  0  0  0  0  0  0  0
  189.2770  175.9770  142.9740 C   0  0  0  0  0  3  0  0  0  0  0  0
  190.6780  177.6770  143.9760 C   0  0  0  0  0  0  0  0  0  0  0  0
  191.9150  178.2920  144.1050 O   0  0  0  0  0  1  0  0  0  0  0  0
  189.5870  178.1360  144.7220 C   0  0  0  0  0  3  0  0  0  0  0  0
  188.1890  176.4370  143.7200 C   0  0  0  0  0  3  0  0  0  0  0  0
  184.1690  179.0620  141.8920 C   0  0  0  0  0  2  0  0  0  0  0  0
  181.6940  178.8360  139.1800 N   0  0  0  0  0  0  0  0  0  0  0  0
  184.2990  178.2530  139.2820 S   0  0  0  0  0  0  0  0  0  0  0  0
  182.9140  179.0310  138.4110 C   0  0  0  0  0  2  0  0  0  0  0  0
  183.3710  178.3080  140.8380 C   0  0  2  0  0  3  0  0  0  0  0  0
  182.0590  179.0170  140.5790 C   0  0  2  0  0  3  0  0  0  0  0  0
  180.9870  178.4240  141.4800 C   0  0  0  0  0  1  0  0  0  0  0  0
  180.8000  179.9260  138.8130 C   0  0  0  0  0  2  0  0  0  0  0  0
  181.6020  181.1240  138.3330 C   0  0  0  0  0  2  0  0  0  0  0  0
  180.8560  181.8490  137.2260 C   0  0  0  0  0  2  0  0  0  0  0  0
  181.3340  184.0810  136.5260 O   0  0  0  0  0  1  0  0  0  0  0  0
  180.7500  183.3290  137.5460 C   0  0  0  0  0  2  0  0  0  0  0  0
  1  4  2  0  0  0  0
  2 16  1  6  0  0  0
  2  1  1  0  0  0  0
  2  3  1  0  0  0  0
  3  8  2  0  0  0  0
  4  7  1  0  0  0  0
  4  5  1  0  0  0  0
  5  6  2  0  0  0  0
  8  5  1  0  0  0  0
  9 12  1  0  0  0  0
 10 14  1  0  0  0  0
 10  7  1  0  0  0  0
 11  9  2  0  0  0  0
 11 15  1  0  0  0  0
 12 13  1  0  0  0  0
 12 14  2  0  0  0  0
 15 10  2  0  0  0  0
 17 21  1  0  0  0  0
 18 20  1  0  0  0  0
 19 17  1  0  0  0  0
 19 18  1  0  0  0  0
 20 16  1  1  0  0  0
 21 20  1  0  0  0  0
 21 22  1  1  0  0  0
 23 17  1  0  0  0  0
 24 23  1  0  0  0  0
 25 27  1  0  0  0  0
 25 24  1  0  0  0  0
 26 27  1  0  0  0  0
M  END
>  <MODEL>
4

>  <REMARK>
 VINA RESULT:      -7.0      4.031      8.551
  Name = 
  7 active torsions:
  status: ('A' for Active; 'I' for Inactive)
    1  A    between atoms: N_1  and  C_18
    2  A    between atoms: C_5  and  C_6
    3  A    between atoms: C_6  and  C_14
    4  A    between atoms: C_7  and  N_25
    5  A    between atoms: C_8  and  C_10
    6  A    between atoms: C_8  and  C_18
    7  A    between atoms: C_10  and  C_22
                            x       y       z     vdW  Elec       q    Type
                         _______ _______ _______ _____ _____    ______ ____

>  <TORSDO>
F 7

$$$$
=
 OpenBabel11062414433D

 27 29  0  0  1  0  0  0  0  0999 V2000
  189.1180  177.6720  143.3190 N   0  0  0  0  0  0  0  0  0  0  0  0
  189.8670  177.7810  142.0600 C   0  0  1  0  0  3  0  0  0  0  0  0
  191.1930  177.0650  142.1030 C   0  0  0  0  0  3  0  0  0  0  0  0
  189.6540  177.3240  144.4520 C   0  0  0  0  0  0  0  0  0  0  0  0
  191.0510  176.8720  144.4680 C   0  0  0  0  0  0  0  0  0  0  0  0
  191.6300  176.5990  145.5510 O   0  0  0  0  0  0  0  0  0  0  0  0
  188.8810  177.2850  145.6610 N   0  0  0  0  0  2  0  0  0  0  0  0
  191.7330  176.6940  143.2250 N   0  0  0  0  0  0  0  0  0  0  0  0
  184.8900  178.6370  146.1410 C   0  0  0  0  0  3  0  0  0  0  0  0
  187.5380  177.7550  145.8470 C   0  0  0  0  0  0  0  0  0  0  0  0
  185.7500  178.6350  147.2410 C   0  0  0  0  0  3  0  0  0  0  0  0
  185.3480  178.1960  144.8950 C   0  0  0  0  0  0  0  0  0  0  0  0
  184.4930  178.1950  143.8030 O   0  0  0  0  0  1  0  0  0  0  0  0
  186.6670  177.7550  144.7520 C   0  0  0  0  0  3  0  0  0  0  0  0
  187.0680  178.1940  147.0960 C   0  0  0  0  0  3  0  0  0  0  0  0
  189.0390  177.2640  140.8930 C   0  0  0  0  0  2  0  0  0  0  0  0
  186.6870  178.6320  138.4180 N   0  0  0  0  0  0  0  0  0  0  0  0
  186.7330  178.7200  141.0880 S   0  0  0  0  0  0  0  0  0  0  0  0
  185.8000  178.4540  139.5580 C   0  0  0  0  0  2  0  0  0  0  0  0
  188.2880  178.3990  140.2140 C   0  0  2  0  0  3  0  0  0  0  0  0
  187.9560  178.0180  138.7870 C   0  0  2  0  0  3  0  0  0  0  0  0
  189.0630  178.5130  137.8700 C   0  0  0  0  0  1  0  0  0  0  0  0
  186.1190  177.8500  137.3290 C   0  0  0  0  0  2  0  0  0  0  0  0
  184.7410  177.3370  137.7150 C   0  0  0  0  0  2  0  0  0  0  0  0
  184.5730  175.8930  137.2730 C   0  0  0  0  0  2  0  0  0  0  0  0
  183.0410  175.9020  139.1050 O   0  0  0  0  0  1  0  0  0  0  0  0
  183.3100  175.3040  137.8730 C   0  0  0  0  0  2  0  0  0  0  0  0
  1  4  2  0  0  0  0
  2 16  1  6  0  0  0
  2  3  1  0  0  0  0
  2  1  1  0  0  0  0
  3  8  2  0  0  0  0
  4  5  1  0  0  0  0
  4  7  1  0  0  0  0
  5  6  2  0  0  0  0
  7 10  1  0  0  0  0
  8  5  1  0  0  0  0
  9 11  1  0  0  0  0
 10 15  1  0  0  0  0
 12  9  2  0  0  0  0
 13 12  1  0  0  0  0
 14 12  1  0  0  0  0
 14 10  2  0  0  0  0
 15 11  2  0  0  0  0
 17 21  1  0  0  0  0
 17 19  1  0  0  0  0
 19 18  1  0  0  0  0
 20 16  1  1  0  0  0
 20 18  1  0  0  0  0
 21 22  1  6  0  0  0
 21 20  1  0  0  0  0
 23 24  1  0  0  0  0
 23 17  1  0  0  0  0
 25 24  1  0  0  0  0
 25 27  1  0  0  0  0
 27 26  1  0  0  0  0
M  END
>  <MODEL>
5

>  <REMARK>
 VINA RESULT:      -7.0      2.812      6.553
  Name = 
  7 active torsions:
  status: ('A' for Active; 'I' for Inactive)
    1  A    between atoms: N_1  and  C_18
    2  A    between atoms: C_5  and  C_6
    3  A    between atoms: C_6  and  C_14
    4  A    between atoms: C_7  and  N_25
    5  A    between atoms: C_8  and  C_10
    6  A    between atoms: C_8  and  C_18
    7  A    between atoms: C_10  and  C_22
                            x       y       z     vdW  Elec       q    Type
                         _______ _______ _______ _____ _____    ______ ____

>  <TORSDO>
F 7

$$$$
=
 OpenBabel11062414433D

 27 29  0  0  1  0  0  0  0  0999 V2000
  186.8520  178.4730  141.3080 N   0  0  0  0  0  0  0  0  0  0  0  0
  188.1900  178.0990  140.8290 C   0  0  1  0  0  3  0  0  0  0  0  0
  188.3790  178.3590  139.3560 C   0  0  0  0  0  3  0  0  0  0  0  0
  185.8310  178.6640  140.5250 C   0  0  0  0  0  0  0  0  0  0  0  0
  186.0370  178.6500  139.0710 C   0  0  0  0  0  0  0  0  0  0  0  0
  185.0650  178.7550  138.2790 O   0  0  0  0  0  0  0  0  0  0  0  0
  184.5340  178.9770  141.0560 N   0  0  0  0  0  2  0  0  0  0  0  0
  187.3710  178.5700  138.5650 N   0  0  0  0  0  0  0  0  0  0  0  0
  183.4230  178.9650  145.1480 C   0  0  0  0  0  3  0  0  0  0  0  0
  184.1340  178.9610  142.4340 C   0  0  0  0  0  0  0  0  0  0  0  0
  182.4390  178.8050  144.1710 C   0  0  0  0  0  3  0  0  0  0  0  0
  184.7600  179.1280  144.7740 C   0  0  0  0  0  0  0  0  0  0  0  0
  185.7370  179.2900  145.7450 O   0  0  0  0  0  1  0  0  0  0  0  0
  185.1120  179.1270  143.4200 C   0  0  0  0  0  3  0  0  0  0  0  0
  182.7920  178.8050  142.8180 C   0  0  0  0  0  3  0  0  0  0  0  0
  189.2680  178.8190  141.6230 C   0  0  0  0  0  2  0  0  0  0  0  0
  190.1490  177.2400  144.8270 N   0  0  0  0  0  0  0  0  0  0  0  0
  189.2020  176.2420  142.5370 S   0  0  0  0  0  0  0  0  0  0  0  0
  189.1330  176.3170  144.3460 C   0  0  0  0  0  2  0  0  0  0  0  0
  190.0500  177.8430  142.4880 C   0  0  2  0  0  3  0  0  0  0  0  0
  190.1460  178.3690  143.9050 C   0  0  2  0  0  3  0  0  0  0  0  0
  191.4300  179.1690  144.0530 C   0  0  0  0  0  1  0  0  0  0  0  0
  189.6830  177.7260  146.1190 C   0  0  0  0  0  2  0  0  0  0  0  0
  190.4780  177.0780  147.2400 C   0  0  0  0  0  2  0  0  0  0  0  0
  191.7230  176.4070  146.6850 C   0  0  0  0  0  2  0  0  0  0  0  0
  193.0010  176.4660  148.7000 O   0  0  0  0  0  1  0  0  0  0  0  0
  192.4170  175.6060  147.7700 C   0  0  0  0  0  2  0  0  0  0  0  0
  2  1  1  0  0  0  0
  2 16  1  1  0  0  0
  3  2  1  0  0  0  0
  4  7  1  0  0  0  0
  4  1  2  0  0  0  0
  5  4  1  0  0  0  0
  6  5  2  0  0  0  0
  7 10  1  0  0  0  0
  8  5  1  0  0  0  0
  8  3  2  0  0  0  0
 10 15  2  0  0  0  0
 10 14  1  0  0  0  0
 11  9  2  0  0  0  0
 12  9  1  0  0  0  0
 12 13  1  0  0  0  0
 14 12  2  0  0  0  0
 15 11  1  0  0  0  0
 17 23  1  0  0  0  0
 18 19  1  0  0  0  0
 19 17  1  0  0  0  0
 20 16  1  6  0  0  0
 20 18  1  0  0  0  0
 20 21  1  0  0  0  0
 21 22  1  6  0  0  0
 21 17  1  0  0  0  0
 23 24  1  0  0  0  0
 25 24  1  0  0  0  0
 25 27  1  0  0  0  0
 27 26  1  0  0  0  0
M  END
>  <MODEL>
6

>  <REMARK>
 VINA RESULT:      -6.9      2.406      3.240
  Name = 
  7 active torsions:
  status: ('A' for Active; 'I' for Inactive)
    1  A    between atoms: N_1  and  C_18
    2  A    between atoms: C_5  and  C_6
    3  A    between atoms: C_6  and  C_14
    4  A    between atoms: C_7  and  N_25
    5  A    between atoms: C_8  and  C_10
    6  A    between atoms: C_8  and  C_18
    7  A    between atoms: C_10  and  C_22
                            x       y       z     vdW  Elec       q    Type
                         _______ _______ _______ _____ _____    ______ ____

>  <TORSDO>
F 7

$$$$
=
 OpenBabel11062414433D

 27 29  0  0  1  0  0  0  0  0999 V2000
  188.8710  177.0210  142.8950 N   0  0  0  0  0  0  0  0  0  0  0  0
  188.3360  176.6740  144.2190 C   0  0  1  0  0  3  0  0  0  0  0  0
  188.8680  177.5600  145.3160 C   0  0  0  0  0  3  0  0  0  0  0  0
  189.9330  177.7490  142.7110 C   0  0  0  0  0  0  0  0  0  0  0  0
  190.5660  178.3880  143.8720 C   0  0  0  0  0  0  0  0  0  0  0  0
  191.6360  179.0380  143.7480 O   0  0  0  0  0  0  0  0  0  0  0  0
  190.4370  178.0120  141.3930 N   0  0  0  0  0  2  0  0  0  0  0  0
  189.9170  178.3080  145.1420 N   0  0  0  0  0  0  0  0  0  0  0  0
  189.1820  176.1970  137.7710 C   0  0  0  0  0  3  0  0  0  0  0  0
  189.9960  177.4190  140.1620 C   0  0  0  0  0  0  0  0  0  0  0  0
  188.4090  177.2160  138.3300 C   0  0  0  0  0  3  0  0  0  0  0  0
  190.3590  175.7840  138.4040 C   0  0  0  0  0  0  0  0  0  0  0  0
  191.1260  174.7700  137.8500 O   0  0  0  0  0  1  0  0  0  0  0  0
  190.7610  176.3930  139.5970 C   0  0  0  0  0  3  0  0  0  0  0  0
  188.8120  177.8240  139.5220 C   0  0  0  0  0  3  0  0  0  0  0  0
  186.8170  176.7130  144.2150 C   0  0  0  0  0  2  0  0  0  0  0  0
  184.3250  179.2710  143.3330 N   0  0  0  0  0  0  0  0  0  0  0  0
  185.4460  178.5870  145.6600 S   0  0  0  0  0  0  0  0  0  0  0  0
  183.9570  179.0080  144.7160 C   0  0  0  0  0  2  0  0  0  0  0  0
  186.3090  178.1440  144.1290 C   0  0  2  0  0  3  0  0  0  0  0  0
  185.3310  178.2780  142.9810 C   0  0  2  0  0  3  0  0  0  0  0  0
  186.0840  178.7170  141.7350 C   0  0  0  0  0  1  0  0  0  0  0  0
  183.1380  178.9970  142.5340 C   0  0  0  0  0  2  0  0  0  0  0  0
  181.9000  179.0030  143.4150 C   0  0  0  0  0  2  0  0  0  0  0  0
  180.6800  179.4140  142.6080 C   0  0  0  0  0  2  0  0  0  0  0  0
  179.5140  177.6390  143.6990 O   0  0  0  0  0  1  0  0  0  0  0  0
  179.4100  178.9760  143.3140 C   0  0  0  0  0  2  0  0  0  0  0  0
  1  2  1  0  0  0  0
  2 16  1  6  0  0  0
  2  3  1  0  0  0  0
  4  1  2  0  0  0  0
  4  5  1  0  0  0  0
  5  8  1  0  0  0  0
  6  5  2  0  0  0  0
  7  4  1  0  0  0  0
  8  3  2  0  0  0  0
  9 11  2  0  0  0  0
  9 12  1  0  0  0  0
 10  7  1  0  0  0  0
 11 15  1  0  0  0  0
 12 14  2  0  0  0  0
 13 12  1  0  0  0  0
 14 10  1  0  0  0  0
 15 10  2  0  0  0  0
 17 19  1  0  0  0  0
 19 18  1  0  0  0  0
 20 16  1  1  0  0  0
 20 18  1  0  0  0  0
 21 22  1  6  0  0  0
 21 17  1  0  0  0  0
 21 20  1  0  0  0  0
 23 17  1  0  0  0  0
 23 24  1  0  0  0  0
 25 27  1  0  0  0  0
 25 24  1  0  0  0  0
 27 26  1  0  0  0  0
M  END
>  <MODEL>
7

>  <REMARK>
 VINA RESULT:      -6.8      2.872      6.173
  Name = 
  7 active torsions:
  status: ('A' for Active; 'I' for Inactive)
    1  A    between atoms: N_1  and  C_18
    2  A    between atoms: C_5  and  C_6
    3  A    between atoms: C_6  and  C_14
    4  A    between atoms: C_7  and  N_25
    5  A    between atoms: C_8  and  C_10
    6  A    between atoms: C_8  and  C_18
    7  A    between atoms: C_10  and  C_22
                            x       y       z     vdW  Elec       q    Type
                         _______ _______ _______ _____ _____    ______ ____

>  <TORSDO>
F 7

$$$$
=
 OpenBabel11062414433D

 27 29  0  0  1  0  0  0  0  0999 V2000
  188.3400  177.5140  140.6580 N   0  0  0  0  0  0  0  0  0  0  0  0
  189.5780  176.7230  140.6730 C   0  0  1  0  0  3  0  0  0  0  0  0
  190.5560  177.1450  139.6050 C   0  0  0  0  0  3  0  0  0  0  0  0
  187.9570  178.2400  139.6490 C   0  0  0  0  0  0  0  0  0  0  0  0
  188.8660  178.4060  138.5080 C   0  0  0  0  0  0  0  0  0  0  0  0
  188.5050  179.0380  137.4810 O   0  0  0  0  0  0  0  0  0  0  0  0
  186.7100  178.9510  139.6740 N   0  0  0  0  0  2  0  0  0  0  0  0
  190.1930  177.8860  138.6010 N   0  0  0  0  0  0  0  0  0  0  0  0
  183.6050  178.6070  142.5430 C   0  0  0  0  0  3  0  0  0  0  0  0
  185.6740  178.8500  140.6630 C   0  0  0  0  0  0  0  0  0  0  0  0
  184.8810  178.9940  142.9570 C   0  0  0  0  0  3  0  0  0  0  0  0
  183.3610  178.3370  141.1930 C   0  0  0  0  0  0  0  0  0  0  0  0
  182.0940  177.9490  140.7810 O   0  0  0  0  0  1  0  0  0  0  0  0
  184.3940  178.4570  140.2580 C   0  0  0  0  0  3  0  0  0  0  0  0
  185.9120  179.1130  142.0210 C   0  0  0  0  0  3  0  0  0  0  0  0
  190.2450  176.7890  142.0380 C   0  0  0  0  0  2  0  0  0  0  0  0
  188.9470  177.8600  145.3090 N   0  0  0  0  0  0  0  0  0  0  0  0
  190.6470  179.0020  143.5940 S   0  0  0  0  0  0  0  0  0  0  0  0
  190.2310  178.5420  145.2960 C   0  0  0  0  0  2  0  0  0  0  0  0
  189.5040  177.7460  142.9600 C   0  0  2  0  0  3  0  0  0  0  0  0
  188.9350  176.9890  144.1410 C   0  0  2  0  0  3  0  0  0  0  0  0
  187.5100  176.5650  143.8190 C   0  0  0  0  0  1  0  0  0  0  0  0
  188.9450  177.0100  146.4920 C   0  0  0  0  0  2  0  0  0  0  0  0
  190.2510  177.1680  147.2530 C   0  0  0  0  0  2  0  0  0  0  0  0
  190.8690  175.8080  147.5280 C   0  0  0  0  0  2  0  0  0  0  0  0
  193.1780  175.2580  147.7840 O   0  0  0  0  0  1  0  0  0  0  0  0
  192.2290  175.7040  146.8640 C   0  0  0  0  0  2  0  0  0  0  0  0
  1  2  1  0  0  0  0
  2 16  1  1  0  0  0
  3  2  1  0  0  0  0
  4  7  1  0  0  0  0
  4  1  2  0  0  0  0
  5  8  1  0  0  0  0
  5  4  1  0  0  0  0
  6  5  2  0  0  0  0
  7 10  1  0  0  0  0
  8  3  2  0  0  0  0
  9 11  1  0  0  0  0
 10 15  1  0  0  0  0
 12  9  2  0  0  0  0
 13 12  1  0  0  0  0
 14 10  2  0  0  0  0
 14 12  1  0  0  0  0
 15 11  2  0  0  0  0
 17 23  1  0  0  0  0
 18 19  1  0  0  0  0
 19 17  1  0  0  0  0
 20 16  1  6  0  0  0
 20 18  1  0  0  0  0
 20 21  1  0  0  0  0
 21 22  1  6  0  0  0
 21 17  1  0  0  0  0
 23 24  1  0  0  0  0
 24 25  1  0  0  0  0
 27 25  1  0  0  0  0
 27 26  1  0  0  0  0
M  END
>  <MODEL>
8

>  <REMARK>
 VINA RESULT:      -6.7      2.067      2.566
  Name = 
  7 active torsions:
  status: ('A' for Active; 'I' for Inactive)
    1  A    between atoms: N_1  and  C_18
    2  A    between atoms: C_5  and  C_6
    3  A    between atoms: C_6  and  C_14
    4  A    between atoms: C_7  and  N_25
    5  A    between atoms: C_8  and  C_10
    6  A    between atoms: C_8  and  C_18
    7  A    between atoms: C_10  and  C_22
                            x       y       z     vdW  Elec       q    Type
                         _______ _______ _______ _____ _____    ______ ____

>  <TORSDO>
F 7

$$$$
=
 OpenBabel11062414433D

 27 29  0  0  1  0  0  0  0  0999 V2000
  187.1550  177.9560  144.0250 N   0  0  0  0  0  0  0  0  0  0  0  0
  186.2670  178.0340  142.8570 C   0  0  1  0  0  3  0  0  0  0  0  0
  184.9550  178.7120  143.1630 C   0  0  0  0  0  3  0  0  0  0  0  0
  186.7530  178.1140  145.2520 C   0  0  0  0  0  0  0  0  0  0  0  0
  185.3680  178.5350  145.4970 C   0  0  0  0  0  0  0  0  0  0  0  0
  184.9180  178.6260  146.6690 O   0  0  0  0  0  0  0  0  0  0  0  0
  187.6600  177.9750  146.3560 N   0  0  0  0  0  2  0  0  0  0  0  0
  184.5490  178.8950  144.3830 N   0  0  0  0  0  0  0  0  0  0  0  0
  191.6780  176.6330  146.1640 C   0  0  0  0  0  3  0  0  0  0  0  0
  189.0150  177.5030  146.3120 C   0  0  0  0  0  0  0  0  0  0  0  0
  190.9240  176.3770  147.3110 C   0  0  0  0  0  3  0  0  0  0  0  0
  191.1070  177.3270  145.0920 C   0  0  0  0  0  0  0  0  0  0  0  0
  191.8560  177.5840  143.9540 O   0  0  0  0  0  1  0  0  0  0  0  0
  189.7800  177.7610  145.1690 C   0  0  0  0  0  3  0  0  0  0  0  0
  189.5980  176.8120  147.3860 C   0  0  0  0  0  3  0  0  0  0  0  0
  186.9560  178.7400  141.7010 C   0  0  0  0  0  2  0  0  0  0  0  0
  188.7290  177.8020  138.6170 N   0  0  0  0  0  0  0  0  0  0  0  0
  189.2740  177.3790  141.1990 S   0  0  0  0  0  0  0  0  0  0  0  0
  189.8420  177.8780  139.5520 C   0  0  0  0  0  2  0  0  0  0  0  0
  187.5590  177.7350  140.7310 C   0  0  2  0  0  3  0  0  0  0  0  0
  187.5620  178.3060  139.3290 C   0  0  2  0  0  3  0  0  0  0  0  0
  186.2890  177.8780  138.6150 C   0  0  0  0  0  1  0  0  0  0  0  0
  189.0300  178.7400  137.5450 C   0  0  0  0  0  2  0  0  0  0  0  0
  189.4310  177.9870  136.2870 C   0  0  0  0  0  2  0  0  0  0  0  0
  188.8460  176.5850  136.3020 C   0  0  0  0  0  2  0  0  0  0  0  0
  191.1670  176.0770  136.5350 O   0  0  0  0  0  1  0  0  0  0  0  0
  189.9440  175.5560  136.1120 C   0  0  0  0  0  2  0  0  0  0  0  0
  1  4  2  0  0  0  0
  2 16  1  6  0  0  0
  2  3  1  0  0  0  0
  2  1  1  0  0  0  0
  3  8  2  0  0  0  0
  4  5  1  0  0  0  0
  4  7  1  0  0  0  0
  5  6  2  0  0  0  0
  8  5  1  0  0  0  0
  9 11  1  0  0  0  0
 10  7  1  0  0  0  0
 10 15  1  0  0  0  0
 11 15  2  0  0  0  0
 12 14  1  0  0  0  0
 12  9  2  0  0  0  0
 13 12  1  0  0  0  0
 14 10  2  0  0  0  0
 17 21  1  0  0  0  0
 17 19  1  0  0  0  0
 19 18  1  0  0  0  0
 20 18  1  0  0  0  0
 20 16  1  1  0  0  0
 21 22  1  6  0  0  0
 21 20  1  0  0  0  0
 23 17  1  0  0  0  0
 24 25  1  0  0  0  0
 24 23  1  0  0  0  0
 27 25  1  0  0  0  0
 27 26  1  0  0  0  0
M  END
>  <MODEL>
9

>  <REMARK>
 VINA RESULT:      -6.7      2.606      7.814
  Name = 
  7 active torsions:
  status: ('A' for Active; 'I' for Inactive)
    1  A    between atoms: N_1  and  C_18
    2  A    between atoms: C_5  and  C_6
    3  A    between atoms: C_6  and  C_14
    4  A    between atoms: C_7  and  N_25
    5  A    between atoms: C_8  and  C_10
    6  A    between atoms: C_8  and  C_18
    7  A    between atoms: C_10  and  C_22
                            x       y       z     vdW  Elec       q    Type
                         _______ _______ _______ _____ _____    ______ ____

>  <TORSDO>
F 7

$$$$
