=
 OpenBabel11062417333D

 47 52  0  0  1  0  0  0  0  0999 V2000
  183.6120  176.6060  138.9270 O   0  0  0  0  0  1  0  0  0  0  0  0
  183.5570  177.9670  139.2500 C   0  0  2  0  0  0  0  0  0  0  0  0
  184.8040  179.9860  138.7310 O   0  0  0  0  0  1  0  0  0  0  0  0
  184.9290  178.6120  138.9480 C   0  0  2  0  0  3  0  0  0  0  0  0
  185.6530  177.9550  137.7750 C   0  0  0  0  0  2  0  0  0  0  0  0
  184.3060  174.5110  135.4470 C   0  0  0  0  0  3  0  0  0  0  0  0
  187.4600  176.2060  136.1390 C   0  0  0  0  0  0  0  0  0  0  0  0
  186.4190  175.4310  136.2770 C   0  0  0  0  0  0  0  0  0  0  0  0
  190.3290  176.1380  136.8850 C   0  0  0  0  0  2  0  0  0  0  0  0
  187.6370  178.5840  139.0580 N   0  0  0  0  0  0  0  0  0  0  0  0
  187.9690  177.0120  137.2790 C   0  0  0  0  0  0  0  0  0  0  0  0
  187.1170  177.8300  138.0580 C   0  0  0  0  0  0  0  0  0  0  0  0
  183.9420  173.2220  137.3020 C   0  0  0  0  0  3  0  0  0  0  0  0
  189.7980  177.7770  138.6250 N   0  0  0  0  0  0  0  0  0  0  0  0
  188.9600  178.5610  139.3460 C   0  0  0  0  0  3  0  0  0  0  0  0
  183.4510  173.6500  135.9810 C   0  0  0  0  0  3  0  0  0  0  0  0
  188.0140  176.4200  134.7670 C   0  0  0  0  0  2  0  0  0  0  0  0
  190.4450  176.5100  135.4180 C   0  0  0  0  0  2  0  0  0  0  0  0
  189.3440  177.0130  137.5980 C   0  0  0  0  0  0  0  0  0  0  0  0
  185.3750  174.6630  136.4150 C   0  0  0  0  0  0  0  0  0  0  0  0
  185.0910  173.8280  137.5670 C   0  0  0  0  0  3  0  0  0  0  0  0
  189.3870  175.7780  134.6040 C   0  0  0  0  0  2  0  0  0  0  0  0
  183.1740  178.1250  140.7380 C   0  0  0  0  0  2  0  0  0  0  0  0
  184.3490  178.0620  141.7060 C   0  0  0  0  0  2  0  0  0  0  0  0
  184.1300  178.9840  142.8880 C   0  0  0  0  0  2  0  0  0  0  0  0
  184.4390  178.2300  144.1660 C   0  0  0  0  0  2  0  0  0  0  0  0
  186.3930  178.2440  146.8920 C   0  0  2  0  0  3  0  0  0  0  0  0
  184.8900  178.3940  146.9920 C   0  0  0  0  0  2  0  0  0  0  0  0
  185.6850  179.2090  145.9710 C   0  0  2  0  0  3  0  0  0  0  0  0
  186.7000  177.0770  146.1730 O   0  0  0  0  0  0  0  0  0  0  0  0
  185.7650  178.6000  144.6480 N   0  0  0  0  0  0  0  0  0  0  0  0
  186.5530  177.3820  144.8060 C   0  0  1  0  0  3  0  0  0  0  0  0
  188.2170  176.3070  143.2450 C   0  0  0  0  0  2  0  0  0  0  0  0
  188.0670  177.6860  142.6220 C   0  0  0  0  0  2  0  0  0  0  0  0
  187.9260  177.5040  144.1230 C   0  0  0  0  0  0  0  0  0  0  0  0
  189.0440  177.8190  144.9050 O   0  0  0  0  0  0  0  0  0  0  0  0
  189.9470  176.9020  144.6110 O   0  0  0  0  0  0  0  0  0  0  0  0
  191.9310  177.2580  142.8680 O   0  0  0  0  0  0  0  0  0  0  0  0
  191.3860  177.7830  144.3860 S   0  0  1  0  0  0  0  0  0  0  0  0
  190.8960  179.1960  144.1140 O   0  0  0  0  0  1  0  0  0  0  0  0
  182.4600  178.6350  138.3880 C   0  0  1  0  0  3  0  0  0  0  0  0
  181.8220  177.6610  137.4020 C   0  0  0  0  0  2  0  0  0  0  0  0
  181.8020  178.2240  136.1260 O   0  0  0  0  0  1  0  0  0  0  0  0
  181.3620  179.2520  139.2530 C   0  0  0  0  0  2  0  0  0  0  0  0
  180.9470  182.6240  137.9020 C   0  0  0  0  0  1  0  0  0  0  0  0
  181.4890  181.4590  138.5420 N   0  0  0  0  0  0  0  0  0  0  0  0
  180.8170  180.4140  138.6060 N   0  0  0  0  0  0  0  0  0  0  0  0
  2  1  1  6  0  0  0
  2 23  1  0  0  0  0
  4  3  1  6  0  0  0
  4  2  1  0  0  0  0
  5 12  1  0  0  0  0
  5  4  1  0  0  0  0
  6 16  2  0  0  0  0
  6 20  1  0  0  0  0
  7  8  2  0  0  0  0
  7 11  1  0  0  0  0
  8 20  2  0  0  0  0
  9 19  1  0  0  0  0
 10 15  1  0  0  0  0
 11 19  2  0  0  0  0
 11 12  1  0  0  0  0
 12 10  2  0  0  0  0
 13 21  2  0  0  0  0
 14 15  2  0  0  0  0
 16 13  1  0  0  0  0
 17  7  1  0  0  0  0
 18  9  1  0  0  0  0
 19 14  1  0  0  0  0
 20 21  1  0  0  0  0
 22 17  1  0  0  0  0
 22 18  1  0  0  0  0
 23 24  1  0  0  0  0
 24 25  1  0  0  0  0
 25 26  1  0  0  0  0
 26 31  1  0  0  0  0
 27 28  1  1  0  0  0
 29 27  1  0  0  0  0
 29 28  1  1  0  0  0
 30 27  1  0  0  0  0
 31 32  1  0  0  0  0
 31 29  1  0  0  0  0
 32 35  1  1  0  0  0
 32 30  1  0  0  0  0
 33 35  1  0  0  0  0
 34 33  1  0  0  0  0
 34 35  1  0  0  0  0
 35 36  1  0  0  0  0
 37 36  1  0  0  0  0
 39 38  2  6  0  0  0
 39 37  1  0  0  0  0
 40 39  1  0  0  0  0
 41 42  1  6  0  0  0
 41  2  1  0  0  0  0
 41 44  1  0  0  0  0
 43 42  1  0  0  0  0
 45 46  1  0  0  0  0
 46 47  2  0  0  0  0
 47 44  1  0  0  0  0
M  END
>  <MODEL>
1

>  <REMARK>
 VINA RESULT:      -7.5      0.000      0.000
  Name = 
  16 active torsions:
  status: ('A' for Active; 'I' for Inactive)
    1  A    between atoms: O_7  and  O_32
    2  A    between atoms: O_7  and  C_47
    3  A    between atoms: C_11  and  C_27
    4  A    between atoms: C_11  and  C_29
    5  A    between atoms: C_12  and  C_24
    6  A    between atoms: C_12  and  C_43
    7  A    between atoms: C_17  and  C_20
    8  A    between atoms: C_17  and  C_26
    9  A    between atoms: C_17  and  C_43
   10  A    between atoms: C_20  and  C_29
   11  A    between atoms: N_21  and  C_27
   12  A    between atoms: C_22  and  C_26
   13  A    between atoms: C_22  and  N_45
   14  A    between atoms: C_23  and  C_47
   15  A    between atoms: C_25  and  C_26
   16  A    between atoms: O_32  and  S_42
                            x       y       z     vdW  Elec       q    Type
                         _______ _______ _______ _____ _____    ______ ____

>  <TORSDO>
F 16

$$$$
=
 OpenBabel11062417333D

 47 52  0  0  1  0  0  0  0  0999 V2000
  181.8640  177.9830  140.3290 O   0  0  0  0  0  1  0  0  0  0  0  0
  182.3340  177.7240  139.0350 C   0  0  2  0  0  0  0  0  0  0  0  0
  181.4350  175.5830  139.7460 O   0  0  0  0  0  1  0  0  0  0  0  0
  182.0760  176.2390  138.6930 C   0  0  2  0  0  3  0  0  0  0  0  0
  183.3440  175.4880  138.2960 C   0  0  0  0  0  2  0  0  0  0  0  0
  187.4960  176.8410  138.1340 C   0  0  0  0  0  3  0  0  0  0  0  0
  185.5400  174.0460  136.8460 C   0  0  0  0  0  0  0  0  0  0  0  0
  186.0600  175.2370  136.9670 C   0  0  0  0  0  0  0  0  0  0  0  0
  184.7510  172.2370  134.6330 C   0  0  0  0  0  2  0  0  0  0  0  0
  181.7810  174.3250  136.8180 N   0  0  0  0  0  0  0  0  0  0  0  0
  184.1110  173.8690  136.4810 C   0  0  0  0  0  0  0  0  0  0  0  0
  183.0750  174.5560  137.1560 C   0  0  0  0  0  0  0  0  0  0  0  0
  187.0270  178.5630  136.7030 C   0  0  0  0  0  3  0  0  0  0  0  0
  182.4260  172.7980  135.1560 N   0  0  0  0  0  0  0  0  0  0  0  0
  181.4530  173.4610  135.8290 C   0  0  0  0  0  3  0  0  0  0  0  0
  187.7630  178.1180  137.8980 C   0  0  0  0  0  3  0  0  0  0  0  0
  186.3530  172.8650  137.2720 C   0  0  0  0  0  2  0  0  0  0  0  0
  185.5720  171.2800  135.4780 C   0  0  0  0  0  2  0  0  0  0  0  0
  183.7380  172.9700  135.4580 C   0  0  0  0  0  0  0  0  0  0  0  0
  186.5750  176.4270  137.0940 C   0  0  0  0  0  0  0  0  0  0  0  0
  186.3130  177.5560  136.2200 C   0  0  0  0  0  3  0  0  0  0  0  0
  186.7660  172.0050  136.0840 C   0  0  0  0  0  2  0  0  0  0  0  0
  183.8380  178.0670  138.9600 C   0  0  0  0  0  2  0  0  0  0  0  0
  184.2600  179.2650  139.8030 C   0  0  0  0  0  2  0  0  0  0  0  0
  185.4250  178.9120  140.7040 C   0  0  0  0  0  2  0  0  0  0  0  0
  184.8910  178.3590  142.0090 C   0  0  0  0  0  2  0  0  0  0  0  0
  184.8220  179.0190  145.2970 C   0  0  2  0  0  3  0  0  0  0  0  0
  183.5920  179.1770  144.4300 C   0  0  0  0  0  2  0  0  0  0  0  0
  184.9390  179.7390  143.9750 C   0  0  2  0  0  3  0  0  0  0  0  0
  185.3350  177.7200  145.1490 O   0  0  0  0  0  0  0  0  0  0  0  0
  185.7060  178.8410  143.1190 N   0  0  0  0  0  0  0  0  0  0  0  0
  186.0720  177.6990  143.9500 C   0  0  1  0  0  3  0  0  0  0  0  0
  188.2380  176.4450  143.6370 C   0  0  0  0  0  2  0  0  0  0  0  0
  188.6170  177.8300  143.1380 C   0  0  0  0  0  2  0  0  0  0  0  0
  187.5830  177.6690  144.2380 C   0  0  0  0  0  0  0  0  0  0  0  0
  188.0240  177.8630  145.5520 O   0  0  0  0  0  0  0  0  0  0  0  0
  189.1440  177.1720  145.6520 O   0  0  0  0  0  0  0  0  0  0  0  0
  191.0170  176.8080  147.5130 O   0  0  0  0  0  0  0  0  0  0  0  0
  189.3340  176.9140  147.3230 S   0  0  1  0  0  0  0  0  0  0  0  0
  188.9960  178.2660  147.9310 O   0  0  0  0  0  1  0  0  0  0  0  0
  181.5730  178.6330  138.0430 C   0  0  1  0  0  3  0  0  0  0  0  0
  180.7870  177.8330  137.0070 C   0  0  0  0  0  2  0  0  0  0  0  0
  181.3530  178.0070  135.7450 O   0  0  0  0  0  1  0  0  0  0  0  0
  180.6160  179.5790  138.7650 C   0  0  0  0  0  2  0  0  0  0  0  0
  181.0570  182.9590  137.4420 C   0  0  0  0  0  1  0  0  0  0  0  0
  180.6300  181.5990  137.6220 N   0  0  0  0  0  0  0  0  0  0  0  0
  181.0410  180.9410  138.5930 N   0  0  0  0  0  0  0  0  0  0  0  0
  2  1  1  1  0  0  0
  4  2  1  0  0  0  0
  4  3  1  1  0  0  0
  5  4  1  0  0  0  0
  7  8  2  0  0  0  0
  7 17  1  0  0  0  0
  8 20  2  0  0  0  0
  9 19  1  0  0  0  0
  9 18  1  0  0  0  0
 10 12  1  0  0  0  0
 11  7  1  0  0  0  0
 11 12  2  0  0  0  0
 12  5  1  0  0  0  0
 13 16  1  0  0  0  0
 14 19  2  0  0  0  0
 14 15  1  0  0  0  0
 15 10  2  0  0  0  0
 16  6  2  0  0  0  0
 18 22  1  0  0  0  0
 19 11  1  0  0  0  0
 20  6  1  0  0  0  0
 21 13  2  0  0  0  0
 21 20  1  0  0  0  0
 22 17  1  0  0  0  0
 23  2  1  0  0  0  0
 23 24  1  0  0  0  0
 24 25  1  0  0  0  0
 25 26  1  0  0  0  0
 26 31  1  0  0  0  0
 27 28  1  6  0  0  0
 29 28  1  6  0  0  0
 29 27  1  0  0  0  0
 30 27  1  0  0  0  0
 31 32  1  0  0  0  0
 31 29  1  0  0  0  0
 32 35  1  1  0  0  0
 32 30  1  0  0  0  0
 33 35  1  0  0  0  0
 34 33  1  0  0  0  0
 34 35  1  0  0  0  0
 35 36  1  0  0  0  0
 36 37  1  0  0  0  0
 37 39  1  0  0  0  0
 39 38  2  6  0  0  0
 39 40  1  0  0  0  0
 41 42  1  6  0  0  0
 41 44  1  0  0  0  0
 41  2  1  0  0  0  0
 43 42  1  0  0  0  0
 45 46  1  0  0  0  0
 46 47  2  0  0  0  0
 47 44  1  0  0  0  0
M  END
>  <MODEL>
2

>  <REMARK>
 VINA RESULT:      -6.9      2.266      4.148
  Name = 
  16 active torsions:
  status: ('A' for Active; 'I' for Inactive)
    1  A    between atoms: O_7  and  O_32
    2  A    between atoms: O_7  and  C_47
    3  A    between atoms: C_11  and  C_27
    4  A    between atoms: C_11  and  C_29
    5  A    between atoms: C_12  and  C_24
    6  A    between atoms: C_12  and  C_43
    7  A    between atoms: C_17  and  C_20
    8  A    between atoms: C_17  and  C_26
    9  A    between atoms: C_17  and  C_43
   10  A    between atoms: C_20  and  C_29
   11  A    between atoms: N_21  and  C_27
   12  A    between atoms: C_22  and  C_26
   13  A    between atoms: C_22  and  N_45
   14  A    between atoms: C_23  and  C_47
   15  A    between atoms: C_25  and  C_26
   16  A    between atoms: O_32  and  S_42
                            x       y       z     vdW  Elec       q    Type
                         _______ _______ _______ _____ _____    ______ ____

>  <TORSDO>
F 16

$$$$
=
 OpenBabel11062417333D

 47 52  0  0  1  0  0  0  0  0999 V2000
  186.6760  179.2200  137.0380 O   0  0  0  0  0  1  0  0  0  0  0  0
  186.8880  177.8570  137.2750 C   0  0  2  0  0  0  0  0  0  0  0  0
  186.3440  177.8820  134.9070 O   0  0  0  0  0  1  0  0  0  0  0  0
  186.4490  177.0550  136.0280 C   0  0  2  0  0  3  0  0  0  0  0  0
  185.1470  176.2860  136.2410 C   0  0  0  0  0  2  0  0  0  0  0  0
  181.2280  177.1570  137.9670 C   0  0  0  0  0  3  0  0  0  0  0  0
  182.9340  174.2790  136.5160 C   0  0  0  0  0  0  0  0  0  0  0  0
  182.5570  175.1870  137.3750 C   0  0  0  0  0  0  0  0  0  0  0  0
  183.6950  171.4130  136.5830 C   0  0  0  0  0  2  0  0  0  0  0  0
  186.6850  174.3860  136.1570 N   0  0  0  0  0  0  0  0  0  0  0  0
  184.3580  173.8670  136.4150 C   0  0  0  0  0  0  0  0  0  0  0  0
  185.4040  174.8120  136.2950 C   0  0  0  0  0  0  0  0  0  0  0  0
  182.0390  177.2740  140.1030 C   0  0  0  0  0  3  0  0  0  0  0  0
  186.0130  172.1400  136.2760 N   0  0  0  0  0  0  0  0  0  0  0  0
  186.9930  173.0680  136.1500 C   0  0  0  0  0  3  0  0  0  0  0  0
  181.1450  177.8580  139.0900 C   0  0  0  0  0  3  0  0  0  0  0  0
  181.9440  173.8000  135.5030 C   0  0  0  0  0  2  0  0  0  0  0  0
  182.6870  171.3940  135.4480 C   0  0  0  0  0  2  0  0  0  0  0  0
  184.7090  172.5000  136.3980 C   0  0  0  0  0  0  0  0  0  0  0  0
  182.1840  176.0980  138.2280 C   0  0  0  0  0  0  0  0  0  0  0  0
  182.6640  176.2230  139.5920 C   0  0  0  0  0  3  0  0  0  0  0  0
  181.5400  172.3510  135.7470 C   0  0  0  0  0  2  0  0  0  0  0  0
  186.0970  177.4270  138.5300 C   0  0  0  0  0  2  0  0  0  0  0  0
  185.3450  178.5560  139.2250 C   0  0  0  0  0  2  0  0  0  0  0  0
  186.0200  178.9400  140.5250 C   0  0  0  0  0  2  0  0  0  0  0  0
  185.0250  178.7960  141.6590 C   0  0  0  0  0  2  0  0  0  0  0  0
  184.5040  178.9610  144.9680 C   0  0  2  0  0  3  0  0  0  0  0  0
  183.4070  179.2790  143.9760 C   0  0  0  0  0  2  0  0  0  0  0  0
  184.8080  179.8660  143.7990 C   0  0  2  0  0  3  0  0  0  0  0  0
  185.0240  177.6850  144.6980 O   0  0  0  0  0  0  0  0  0  0  0  0
  185.6810  179.0850  142.9300 N   0  0  0  0  0  0  0  0  0  0  0  0
  185.9210  177.8220  143.6210 C   0  0  1  0  0  3  0  0  0  0  0  0
  188.0360  176.4490  143.5910 C   0  0  0  0  0  2  0  0  0  0  0  0
  188.5540  177.8090  143.1510 C   0  0  0  0  0  2  0  0  0  0  0  0
  187.3770  177.7100  144.1050 C   0  0  0  0  0  0  0  0  0  0  0  0
  187.6520  177.8840  145.4660 O   0  0  0  0  0  0  0  0  0  0  0  0
  188.9330  177.5980  145.6050 O   0  0  0  0  0  0  0  0  0  0  0  0
  190.7560  176.9350  147.4320 O   0  0  0  0  0  0  0  0  0  0  0  0
  189.0790  177.0860  147.2210 S   0  0  1  0  0  0  0  0  0  0  0  0
  188.7360  178.3340  148.0190 O   0  0  0  0  0  1  0  0  0  0  0  0
  188.3940  177.6300  137.5430 C   0  0  1  0  0  3  0  0  0  0  0  0
  189.0080  178.7440  138.3860 C   0  0  0  0  0  2  0  0  0  0  0  0
  189.3570  178.2500  139.6430 O   0  0  0  0  0  1  0  0  0  0  0  0
  188.6480  176.2910  138.2330 C   0  0  0  0  0  2  0  0  0  0  0  0
  191.6900  174.4310  137.4250 C   0  0  0  0  0  1  0  0  0  0  0  0
  190.6740  175.1630  138.1280 N   0  0  0  0  0  0  0  0  0  0  0  0
  189.6590  175.5540  137.5260 N   0  0  0  0  0  0  0  0  0  0  0  0
  2  1  1  6  0  0  0
  2 41  1  0  0  0  0
  2 23  1  0  0  0  0
  4  3  1  6  0  0  0
  4  5  1  0  0  0  0
  4  2  1  0  0  0  0
  5 12  1  0  0  0  0
  6 20  1  0  0  0  0
  6 16  2  0  0  0  0
  7  8  2  0  0  0  0
  8 20  2  0  0  0  0
 10 12  1  0  0  0  0
 11  7  1  0  0  0  0
 12 11  2  0  0  0  0
 14 19  2  0  0  0  0
 15 10  2  0  0  0  0
 15 14  1  0  0  0  0
 16 13  1  0  0  0  0
 17 22  1  0  0  0  0
 17  7  1  0  0  0  0
 18 22  1  0  0  0  0
 18  9  1  0  0  0  0
 19 11  1  0  0  0  0
 19  9  1  0  0  0  0
 20 21  1  0  0  0  0
 21 13  2  0  0  0  0
 23 24  1  0  0  0  0
 24 25  1  0  0  0  0
 25 26  1  0  0  0  0
 26 31  1  0  0  0  0
 27 28  1  6  0  0  0
 29 28  1  6  0  0  0
 29 27  1  0  0  0  0
 30 27  1  0  0  0  0
 31 32  1  0  0  0  0
 31 29  1  0  0  0  0
 32 35  1  1  0  0  0
 32 30  1  0  0  0  0
 33 35  1  0  0  0  0
 34 33  1  0  0  0  0
 34 35  1  0  0  0  0
 35 36  1  0  0  0  0
 36 37  1  0  0  0  0
 37 39  1  0  0  0  0
 39 38  2  6  0  0  0
 39 40  1  0  0  0  0
 41 44  1  1  0  0  0
 41 42  1  0  0  0  0
 42 43  1  0  0  0  0
 45 46  1  0  0  0  0
 47 46  2  0  0  0  0
 47 44  1  0  0  0  0
M  END
>  <MODEL>
3

>  <REMARK>
 VINA RESULT:      -6.7      2.554      5.604
  Name = 
  16 active torsions:
  status: ('A' for Active; 'I' for Inactive)
    1  A    between atoms: O_7  and  O_32
    2  A    between atoms: O_7  and  C_47
    3  A    between atoms: C_11  and  C_27
    4  A    between atoms: C_11  and  C_29
    5  A    between atoms: C_12  and  C_24
    6  A    between atoms: C_12  and  C_43
    7  A    between atoms: C_17  and  C_20
    8  A    between atoms: C_17  and  C_26
    9  A    between atoms: C_17  and  C_43
   10  A    between atoms: C_20  and  C_29
   11  A    between atoms: N_21  and  C_27
   12  A    between atoms: C_22  and  C_26
   13  A    between atoms: C_22  and  N_45
   14  A    between atoms: C_23  and  C_47
   15  A    between atoms: C_25  and  C_26
   16  A    between atoms: O_32  and  S_42
                            x       y       z     vdW  Elec       q    Type
                         _______ _______ _______ _____ _____    ______ ____

>  <TORSDO>
F 16

$$$$
=
 OpenBabel11062417333D

 47 52  0  0  1  0  0  0  0  0999 V2000
  183.2790  177.8760  141.3600 O   0  0  0  0  0  1  0  0  0  0  0  0
  183.3480  178.3030  140.0280 C   0  0  2  0  0  0  0  0  0  0  0  0
  182.7860  175.9480  139.8320 O   0  0  0  0  0  1  0  0  0  0  0  0
  182.9720  177.1240  139.1020 C   0  0  2  0  0  3  0  0  0  0  0  0
  183.9870  176.8960  137.9830 C   0  0  0  0  0  2  0  0  0  0  0  0
  188.3420  176.5380  137.9880 C   0  0  0  0  0  3  0  0  0  0  0  0
  185.4960  174.5790  136.8200 C   0  0  0  0  0  0  0  0  0  0  0  0
  186.4330  175.4880  136.8710 C   0  0  0  0  0  0  0  0  0  0  0  0
  184.1360  172.9820  134.7250 C   0  0  0  0  0  2  0  0  0  0  0  0
  182.1390  176.2660  136.5100 N   0  0  0  0  0  0  0  0  0  0  0  0
  184.1210  174.9230  136.3740 C   0  0  0  0  0  0  0  0  0  0  0  0
  183.4120  176.0210  136.9140 C   0  0  0  0  0  0  0  0  0  0  0  0
  188.6170  178.1440  136.3830 C   0  0  0  0  0  3  0  0  0  0  0  0
  182.1930  174.4390  135.0360 N   0  0  0  0  0  0  0  0  0  0  0  0
  181.5330  175.4910  135.5800 C   0  0  0  0  0  3  0  0  0  0  0  0
  189.0880  177.5830  137.6590 C   0  0  0  0  0  3  0  0  0  0  0  0
  185.7780  173.2310  137.4020 C   0  0  0  0  0  2  0  0  0  0  0  0
  184.4980  171.8810  135.7050 C   0  0  0  0  0  2  0  0  0  0  0  0
  183.4610  174.1290  135.4120 C   0  0  0  0  0  0  0  0  0  0  0  0
  187.3630  176.3980  136.9280 C   0  0  0  0  0  0  0  0  0  0  0  0
  187.5830  177.4400  135.9430 C   0  0  0  0  0  3  0  0  0  0  0  0
  185.8610  172.1550  136.3250 C   0  0  0  0  0  2  0  0  0  0  0  0
  184.7710  178.8230  139.7310 C   0  0  0  0  0  2  0  0  0  0  0  0
  185.7200  178.7940  140.9230 C   0  0  0  0  0  2  0  0  0  0  0  0
  187.1250  178.4270  140.4910 C   0  0  0  0  0  2  0  0  0  0  0  0
  188.0970  178.8200  141.5860 C   0  0  0  0  0  2  0  0  0  0  0  0
  190.3510  176.5450  142.5810 C   0  0  2  0  0  3  0  0  0  0  0  0
  190.3340  177.0780  141.1650 C   0  0  0  0  0  2  0  0  0  0  0  0
  189.0390  176.6250  141.8400 C   0  0  2  0  0  3  0  0  0  0  0  0
  190.4250  177.6190  143.4840 O   0  0  0  0  0  0  0  0  0  0  0  0
  188.2960  177.6960  142.4950 N   0  0  0  0  0  0  0  0  0  0  0  0
  189.1250  178.1460  143.6080 C   0  0  1  0  0  3  0  0  0  0  0  0
  189.3470  176.7360  145.6870 C   0  0  0  0  0  2  0  0  0  0  0  0
  189.1710  178.1240  146.2820 C   0  0  0  0  0  2  0  0  0  0  0  0
  188.5070  177.7660  144.9640 C   0  0  0  0  0  0  0  0  0  0  0  0
  187.1530  177.4150  145.0150 O   0  0  0  0  0  0  0  0  0  0  0  0
  186.8310  177.4460  146.2940 O   0  0  0  0  0  0  0  0  0  0  0  0
  185.7250  179.6550  147.2960 O   0  0  0  0  0  1  0  0  0  0  0  0
  185.3600  178.3020  146.3390 S   0  0  1  0  0  0  0  0  0  0  0  0
  185.2470  178.8840  144.9380 O   0  0  0  0  0  0  0  0  0  0  0  0
  182.3490  179.4660  139.8300 C   0  0  1  0  0  3  0  0  0  0  0  0
  182.7390  180.3750  138.6670 C   0  0  0  0  0  2  0  0  0  0  0  0
  181.9130  181.4980  138.6450 O   0  0  0  0  0  1  0  0  0  0  0  0
  180.9270  178.9560  139.6020 C   0  0  0  0  0  2  0  0  0  0  0  0
  179.7070  180.3980  142.7320 C   0  0  0  0  0  1  0  0  0  0  0  0
  180.5520  180.0000  141.6410 N   0  0  0  0  0  0  0  0  0  0  0  0
  180.0770  179.3570  140.6880 N   0  0  0  0  0  0  0  0  0  0  0  0
  2  1  1  1  0  0  0
  4  3  1  1  0  0  0
  4  2  1  0  0  0  0
  5  4  1  0  0  0  0
  7  8  2  0  0  0  0
  7 17  1  0  0  0  0
  8 20  2  0  0  0  0
  9 19  1  0  0  0  0
  9 18  1  0  0  0  0
 10 12  1  0  0  0  0
 11  7  1  0  0  0  0
 11 12  2  0  0  0  0
 12  5  1  0  0  0  0
 13 16  1  0  0  0  0
 14 19  2  0  0  0  0
 14 15  1  0  0  0  0
 15 10  2  0  0  0  0
 16  6  2  0  0  0  0
 18 22  1  0  0  0  0
 19 11  1  0  0  0  0
 20  6  1  0  0  0  0
 21 13  2  0  0  0  0
 21 20  1  0  0  0  0
 22 17  1  0  0  0  0
 23  2  1  0  0  0  0
 23 24  1  0  0  0  0
 25 24  1  0  0  0  0
 25 26  1  0  0  0  0
 26 31  1  0  0  0  0
 27 28  1  6  0  0  0
 27 30  1  0  0  0  0
 29 28  1  6  0  0  0
 29 31  1  0  0  0  0
 29 27  1  0  0  0  0
 30 32  1  0  0  0  0
 31 32  1  0  0  0  0
 32 35  1  1  0  0  0
 33 34  1  0  0  0  0
 35 36  1  0  0  0  0
 35 33  1  0  0  0  0
 35 34  1  0  0  0  0
 36 37  1  0  0  0  0
 37 39  1  0  0  0  0
 39 40  2  6  0  0  0
 39 38  1  0  0  0  0
 41 42  1  6  0  0  0
 41  2  1  0  0  0  0
 43 42  1  0  0  0  0
 44 41  1  0  0  0  0
 44 47  1  0  0  0  0
 46 45  1  0  0  0  0
 47 46  2  0  0  0  0
M  END
>  <MODEL>
4

>  <REMARK>
 VINA RESULT:      -6.6      2.445      4.896
  Name = 
  16 active torsions:
  status: ('A' for Active; 'I' for Inactive)
    1  A    between atoms: O_7  and  O_32
    2  A    between atoms: O_7  and  C_47
    3  A    between atoms: C_11  and  C_27
    4  A    between atoms: C_11  and  C_29
    5  A    between atoms: C_12  and  C_24
    6  A    between atoms: C_12  and  C_43
    7  A    between atoms: C_17  and  C_20
    8  A    between atoms: C_17  and  C_26
    9  A    between atoms: C_17  and  C_43
   10  A    between atoms: C_20  and  C_29
   11  A    between atoms: N_21  and  C_27
   12  A    between atoms: C_22  and  C_26
   13  A    between atoms: C_22  and  N_45
   14  A    between atoms: C_23  and  C_47
   15  A    between atoms: C_25  and  C_26
   16  A    between atoms: O_32  and  S_42
                            x       y       z     vdW  Elec       q    Type
                         _______ _______ _______ _____ _____    ______ ____

>  <TORSDO>
F 16

$$$$
=
 OpenBabel11062417333D

 47 52  0  0  1  0  0  0  0  0999 V2000
  183.4190  177.8410  141.2080 O   0  0  0  0  0  1  0  0  0  0  0  0
  183.2590  178.2380  139.8750 C   0  0  2  0  0  0  0  0  0  0  0  0
  182.4870  175.9350  139.8590 O   0  0  0  0  0  1  0  0  0  0  0  0
  182.5740  177.0970  139.0890 C   0  0  2  0  0  3  0  0  0  0  0  0
  183.2550  176.7980  137.7550 C   0  0  0  0  0  2  0  0  0  0  0  0
  187.5180  176.0820  137.1140 C   0  0  0  0  0  3  0  0  0  0  0  0
  184.4080  174.2080  136.7740 C   0  0  0  0  0  0  0  0  0  0  0  0
  185.3880  175.0310  136.5170 C   0  0  0  0  0  0  0  0  0  0  0  0
  182.6170  172.4180  135.2300 C   0  0  0  0  0  2  0  0  0  0  0  0
  181.1480  176.0990  136.7300 N   0  0  0  0  0  0  0  0  0  0  0  0
  182.9980  174.5900  136.5050 C   0  0  0  0  0  0  0  0  0  0  0  0
  182.4550  175.8150  136.9580 C   0  0  0  0  0  0  0  0  0  0  0  0
  187.5990  177.3840  135.2350 C   0  0  0  0  0  3  0  0  0  0  0  0
  180.8430  174.0640  135.6000 N   0  0  0  0  0  0  0  0  0  0  0  0
  180.3470  175.2400  136.0560 C   0  0  0  0  0  3  0  0  0  0  0  0
  188.2530  176.9960  136.4950 C   0  0  0  0  0  3  0  0  0  0  0  0
  184.7110  172.9500  137.5240 C   0  0  0  0  0  2  0  0  0  0  0  0
  183.0820  171.4600  136.3120 C   0  0  0  0  0  2  0  0  0  0  0  0
  182.1370  173.7120  135.8120 C   0  0  0  0  0  0  0  0  0  0  0  0
  186.3640  175.8570  136.2660 C   0  0  0  0  0  0  0  0  0  0  0  0
  186.4670  176.7080  135.0950 C   0  0  0  0  0  3  0  0  0  0  0  0
  184.5460  171.7140  136.6470 C   0  0  0  0  0  2  0  0  0  0  0  0
  184.6400  178.5870  139.2760 C   0  0  0  0  0  2  0  0  0  0  0  0
  185.7640  178.7080  140.2980 C   0  0  0  0  0  2  0  0  0  0  0  0
  187.0830  178.2500  139.7130 C   0  0  0  0  0  2  0  0  0  0  0  0
  188.2090  178.6970  140.6230 C   0  0  0  0  0  2  0  0  0  0  0  0
  190.8450  176.9440  141.7310 C   0  0  2  0  0  3  0  0  0  0  0  0
  190.8130  177.5330  140.3380 C   0  0  0  0  0  2  0  0  0  0  0  0
  189.6100  176.7630  140.8830 C   0  0  2  0  0  3  0  0  0  0  0  0
  190.6010  177.9570  142.6730 O   0  0  0  0  0  0  0  0  0  0  0  0
  188.5930  177.6010  141.5070 N   0  0  0  0  0  0  0  0  0  0  0  0
  189.2090  178.1690  142.7020 C   0  0  1  0  0  3  0  0  0  0  0  0
  187.1140  177.8830  144.0760 C   0  0  0  0  0  2  0  0  0  0  0  0
  187.5930  176.4460  143.9570 C   0  0  0  0  0  2  0  0  0  0  0  0
  188.5940  177.5870  143.9860 C   0  0  0  0  0  0  0  0  0  0  0  0
  189.2190  177.8470  145.2120 O   0  0  0  0  0  0  0  0  0  0  0  0
  188.2440  177.9030  146.0980 O   0  0  0  0  0  0  0  0  0  0  0  0
  190.4560  176.7220  147.0010 O   0  0  0  0  0  0  0  0  0  0  0  0
  188.8940  177.1690  147.4890 S   0  0  1  0  0  0  0  0  0  0  0  0
  189.1390  178.3410  148.4260 O   0  0  0  0  0  1  0  0  0  0  0  0
  182.3750  179.5060  139.8400 C   0  0  1  0  0  3  0  0  0  0  0  0
  182.7260  180.4260  138.6740 C   0  0  0  0  0  2  0  0  0  0  0  0
  181.6190  181.2050  138.3350 O   0  0  0  0  0  1  0  0  0  0  0  0
  180.8900  179.1550  139.7620 C   0  0  0  0  0  2  0  0  0  0  0  0
  179.7860  180.1150  143.1130 C   0  0  0  0  0  1  0  0  0  0  0  0
  180.4970  179.5080  142.0230 N   0  0  0  0  0  0  0  0  0  0  0  0
  180.1790  179.7690  140.8500 N   0  0  0  0  0  0  0  0  0  0  0  0
  2  1  1  1  0  0  0
  4  3  1  1  0  0  0
  4  2  1  0  0  0  0
  5  4  1  0  0  0  0
  7 17  1  0  0  0  0
  8  7  2  0  0  0  0
  9 19  1  0  0  0  0
  9 18  1  0  0  0  0
 10 12  1  0  0  0  0
 11  7  1  0  0  0  0
 11 12  2  0  0  0  0
 12  5  1  0  0  0  0
 13 16  1  0  0  0  0
 14 19  2  0  0  0  0
 14 15  1  0  0  0  0
 15 10  2  0  0  0  0
 16  6  2  0  0  0  0
 18 22  1  0  0  0  0
 19 11  1  0  0  0  0
 20  8  2  0  0  0  0
 20  6  1  0  0  0  0
 21 13  2  0  0  0  0
 21 20  1  0  0  0  0
 22 17  1  0  0  0  0
 23  2  1  0  0  0  0
 23 24  1  0  0  0  0
 25 24  1  0  0  0  0
 25 26  1  0  0  0  0
 26 31  1  0  0  0  0
 27 28  1  6  0  0  0
 27 30  1  0  0  0  0
 29 28  1  6  0  0  0
 29 31  1  0  0  0  0
 29 27  1  0  0  0  0
 30 32  1  0  0  0  0
 31 32  1  0  0  0  0
 32 35  1  1  0  0  0
 34 35  1  0  0  0  0
 34 33  1  0  0  0  0
 35 33  1  0  0  0  0
 35 36  1  0  0  0  0
 36 37  1  0  0  0  0
 37 39  1  0  0  0  0
 39 38  2  6  0  0  0
 39 40  1  0  0  0  0
 41 42  1  6  0  0  0
 41  2  1  0  0  0  0
 43 42  1  0  0  0  0
 44 41  1  0  0  0  0
 44 47  1  0  0  0  0
 46 45  1  0  0  0  0
 47 46  2  0  0  0  0
M  END
>  <MODEL>
5

>  <REMARK>
 VINA RESULT:      -6.4      2.327      5.095
  Name = 
  16 active torsions:
  status: ('A' for Active; 'I' for Inactive)
    1  A    between atoms: O_7  and  O_32
    2  A    between atoms: O_7  and  C_47
    3  A    between atoms: C_11  and  C_27
    4  A    between atoms: C_11  and  C_29
    5  A    between atoms: C_12  and  C_24
    6  A    between atoms: C_12  and  C_43
    7  A    between atoms: C_17  and  C_20
    8  A    between atoms: C_17  and  C_26
    9  A    between atoms: C_17  and  C_43
   10  A    between atoms: C_20  and  C_29
   11  A    between atoms: N_21  and  C_27
   12  A    between atoms: C_22  and  C_26
   13  A    between atoms: C_22  and  N_45
   14  A    between atoms: C_23  and  C_47
   15  A    between atoms: C_25  and  C_26
   16  A    between atoms: O_32  and  S_42
                            x       y       z     vdW  Elec       q    Type
                         _______ _______ _______ _____ _____    ______ ____

>  <TORSDO>
F 16

$$$$
=
 OpenBabel11062417333D

 47 52  0  0  1  0  0  0  0  0999 V2000
  184.7000  177.5040  142.5420 O   0  0  0  0  0  1  0  0  0  0  0  0
  184.3100  178.6930  141.9130 C   0  0  2  0  0  0  0  0  0  0  0  0
  183.0850  176.9940  140.6840 O   0  0  0  0  0  1  0  0  0  0  0  0
  183.4120  178.3510  140.7020 C   0  0  2  0  0  3  0  0  0  0  0  0
  184.0270  178.7660  139.3670 C   0  0  0  0  0  2  0  0  0  0  0  0
  187.8180  176.9880  138.1180 C   0  0  0  0  0  3  0  0  0  0  0  0
  184.3070  176.7510  137.1610 C   0  0  0  0  0  0  0  0  0  0  0  0
  185.5340  177.1880  137.2590 C   0  0  0  0  0  0  0  0  0  0  0  0
  182.1830  176.6930  135.0930 C   0  0  0  0  0  2  0  0  0  0  0  0
  181.9310  179.4450  138.3060 N   0  0  0  0  0  0  0  0  0  0  0  0
  183.1550  177.6870  137.2270 C   0  0  0  0  0  0  0  0  0  0  0  0
  183.0260  178.6440  138.2610 C   0  0  0  0  0  0  0  0  0  0  0  0
  188.5480  178.9080  137.1090 C   0  0  0  0  0  3  0  0  0  0  0  0
  181.0620  178.4650  136.3580 N   0  0  0  0  0  0  0  0  0  0  0  0
  180.9590  179.3640  137.3670 C   0  0  0  0  0  3  0  0  0  0  0  0
  188.8870  177.7580  137.9640 C   0  0  0  0  0  3  0  0  0  0  0  0
  184.0720  175.2750  137.1780 C   0  0  0  0  0  2  0  0  0  0  0  0
  182.1670  175.2400  135.5310 C   0  0  0  0  0  2  0  0  0  0  0  0
  182.1230  177.6220  136.2670 C   0  0  0  0  0  0  0  0  0  0  0  0
  186.7560  177.6260  137.3640 C   0  0  0  0  0  0  0  0  0  0  0  0
  187.2740  178.8340  136.7500 C   0  0  0  0  0  3  0  0  0  0  0  0
  183.5830  174.7640  135.8280 C   0  0  0  0  0  2  0  0  0  0  0  0
  185.5680  179.4780  141.4800 C   0  0  0  0  0  2  0  0  0  0  0  0
  186.7540  178.6090  141.0810 C   0  0  0  0  0  2  0  0  0  0  0  0
  187.7750  178.5350  142.1970 C   0  0  0  0  0  2  0  0  0  0  0  0
  189.0650  177.9590  141.6500 C   0  0  0  0  0  2  0  0  0  0  0  0
  191.9700  177.0270  143.0430 C   0  0  2  0  0  3  0  0  0  0  0  0
  191.8980  177.5240  141.6150 C   0  0  0  0  0  2  0  0  0  0  0  0
  190.9000  176.4840  142.1270 C   0  0  2  0  0  3  0  0  0  0  0  0
  191.3910  177.9780  143.8990 O   0  0  0  0  0  0  0  0  0  0  0  0
  189.6500  177.0460  142.6260 N   0  0  0  0  0  0  0  0  0  0  0  0
  189.9950  177.8100  143.8210 C   0  0  1  0  0  3  0  0  0  0  0  0
  188.8940  178.1640  146.0620 C   0  0  0  0  0  2  0  0  0  0  0  0
  187.9720  177.1310  145.4330 C   0  0  0  0  0  2  0  0  0  0  0  0
  189.4530  177.1430  145.0960 C   0  0  0  0  0  0  0  0  0  0  0  0
  190.2610  176.2220  145.7720 O   0  0  0  0  0  0  0  0  0  0  0  0
  190.4750  176.7510  146.9630 O   0  0  0  0  0  0  0  0  0  0  0  0
  192.4000  177.1990  148.7510 O   0  0  0  0  0  1  0  0  0  0  0  0
  192.0800  176.3230  147.3340 S   0  0  1  0  0  0  0  0  0  0  0  0
  191.9580  174.8900  147.8270 O   0  0  0  0  0  0  0  0  0  0  0  0
  183.5210  179.5520  142.9280 C   0  0  1  0  0  3  0  0  0  0  0  0
  182.3110  178.8150  143.4960 C   0  0  0  0  0  2  0  0  0  0  0  0
  181.1360  179.3760  142.9950 O   0  0  0  0  0  1  0  0  0  0  0  0
  184.4060  180.0130  144.0850 C   0  0  0  0  0  2  0  0  0  0  0  0
  185.0520  178.2380  147.2160 C   0  0  0  0  0  1  0  0  0  0  0  0
  185.1040  179.1880  146.1400 N   0  0  0  0  0  0  0  0  0  0  0  0
  184.3460  179.0630  145.1620 N   0  0  0  0  0  0  0  0  0  0  0  0
  2  1  1  1  0  0  0
  2 41  1  0  0  0  0
  4  3  1  6  0  0  0
  4  2  1  0  0  0  0
  5  4  1  0  0  0  0
  7 17  1  0  0  0  0
  7 11  1  0  0  0  0
  7  8  2  0  0  0  0
  8 20  2  0  0  0  0
  9 18  1  0  0  0  0
  9 19  1  0  0  0  0
 11 12  2  0  0  0  0
 12 10  1  0  0  0  0
 12  5  1  0  0  0  0
 13 16  1  0  0  0  0
 14 15  1  0  0  0  0
 15 10  2  0  0  0  0
 16  6  2  0  0  0  0
 18 22  1  0  0  0  0
 19 14  2  0  0  0  0
 19 11  1  0  0  0  0
 20  6  1  0  0  0  0
 21 13  2  0  0  0  0
 21 20  1  0  0  0  0
 22 17  1  0  0  0  0
 23  2  1  0  0  0  0
 24 23  1  0  0  0  0
 24 25  1  0  0  0  0
 26 25  1  0  0  0  0
 26 31  1  0  0  0  0
 27 28  1  6  0  0  0
 27 30  1  0  0  0  0
 29 28  1  6  0  0  0
 29 31  1  0  0  0  0
 29 27  1  0  0  0  0
 31 32  1  0  0  0  0
 32 30  1  0  0  0  0
 32 35  1  1  0  0  0
 34 33  1  0  0  0  0
 35 34  1  0  0  0  0
 35 36  1  0  0  0  0
 35 33  1  0  0  0  0
 36 37  1  0  0  0  0
 37 39  1  0  0  0  0
 39 40  2  1  0  0  0
 39 38  1  0  0  0  0
 41 42  1  1  0  0  0
 41 44  1  0  0  0  0
 43 42  1  0  0  0  0
 44 47  1  0  0  0  0
 46 45  1  0  0  0  0
 47 46  2  0  0  0  0
M  END
>  <MODEL>
6

>  <REMARK>
 VINA RESULT:      -6.4      2.317      5.695
  Name = 
  16 active torsions:
  status: ('A' for Active; 'I' for Inactive)
    1  A    between atoms: O_7  and  O_32
    2  A    between atoms: O_7  and  C_47
    3  A    between atoms: C_11  and  C_27
    4  A    between atoms: C_11  and  C_29
    5  A    between atoms: C_12  and  C_24
    6  A    between atoms: C_12  and  C_43
    7  A    between atoms: C_17  and  C_20
    8  A    between atoms: C_17  and  C_26
    9  A    between atoms: C_17  and  C_43
   10  A    between atoms: C_20  and  C_29
   11  A    between atoms: N_21  and  C_27
   12  A    between atoms: C_22  and  C_26
   13  A    between atoms: C_22  and  N_45
   14  A    between atoms: C_23  and  C_47
   15  A    between atoms: C_25  and  C_26
   16  A    between atoms: O_32  and  S_42
                            x       y       z     vdW  Elec       q    Type
                         _______ _______ _______ _____ _____    ______ ____

>  <TORSDO>
F 16

$$$$
=
 OpenBabel11062417333D

 47 52  0  0  1  0  0  0  0  0999 V2000
  189.2060  179.3100  138.5930 O   0  0  0  0  0  1  0  0  0  0  0  0
  188.7060  178.0350  138.3050 C   0  0  2  0  0  0  0  0  0  0  0  0
  187.3830  179.3080  136.7150 O   0  0  0  0  0  1  0  0  0  0  0  0
  187.3720  178.1780  137.5370 C   0  0  2  0  0  3  0  0  0  0  0  0
  186.1530  178.2040  138.4550 C   0  0  0  0  0  2  0  0  0  0  0  0
  185.0240  179.9270  142.3090 C   0  0  0  0  0  3  0  0  0  0  0  0
  183.4320  179.2970  139.0890 C   0  0  0  0  0  0  0  0  0  0  0  0
  183.9110  179.1050  140.2890 C   0  0  0  0  0  0  0  0  0  0  0  0
  181.1530  178.2970  137.4780 C   0  0  0  0  0  2  0  0  0  0  0  0
  185.0740  176.8940  136.6940 N   0  0  0  0  0  0  0  0  0  0  0  0
  183.6430  178.2950  138.0130 C   0  0  0  0  0  0  0  0  0  0  0  0
  184.9240  177.7720  137.7190 C   0  0  0  0  0  0  0  0  0  0  0  0
  184.9840  177.8970  143.3640 C   0  0  0  0  0  3  0  0  0  0  0  0
  182.7760  176.9650  136.2180 N   0  0  0  0  0  0  0  0  0  0  0  0
  184.0180  176.4890  135.9510 C   0  0  0  0  0  3  0  0  0  0  0  0
  185.3760  179.3150  143.4320 C   0  0  0  0  0  3  0  0  0  0  0  0
  182.8350  180.6290  138.7640 C   0  0  0  0  0  2  0  0  0  0  0  0
  180.9870  179.7910  137.2740 C   0  0  0  0  0  2  0  0  0  0  0  0
  182.5620  177.8600  137.2170 C   0  0  0  0  0  0  0  0  0  0  0  0
  184.3950  178.9150  141.4830 C   0  0  0  0  0  0  0  0  0  0  0  0
  184.3990  177.6530  142.1990 C   0  0  0  0  0  3  0  0  0  0  0  0
  181.3290  180.5390  138.5550 C   0  0  0  0  0  2  0  0  0  0  0  0
  188.5160  177.2510  139.6230 C   0  0  0  0  0  2  0  0  0  0  0  0
  188.4970  178.1140  140.8790 C   0  0  0  0  0  2  0  0  0  0  0  0
  188.2630  177.2710  142.1150 C   0  0  0  0  0  2  0  0  0  0  0  0
  188.9000  177.9570  143.3080 C   0  0  0  0  0  2  0  0  0  0  0  0
  191.8090  176.5380  144.1830 C   0  0  2  0  0  3  0  0  0  0  0  0
  191.5620  177.0370  142.7760 C   0  0  0  0  0  2  0  0  0  0  0  0
  190.5130  176.1870  143.4940 C   0  0  2  0  0  3  0  0  0  0  0  0
  191.5670  177.5760  145.0970 O   0  0  0  0  0  0  0  0  0  0  0  0
  189.4900  176.9580  144.1920 N   0  0  0  0  0  0  0  0  0  0  0  0
  190.1730  177.6530  145.2790 C   0  0  1  0  0  3  0  0  0  0  0  0
  189.2710  178.1830  147.5730 C   0  0  0  0  0  2  0  0  0  0  0  0
  188.3260  177.0790  147.1260 C   0  0  0  0  0  2  0  0  0  0  0  0
  189.7690  177.0920  146.6520 C   0  0  0  0  0  0  0  0  0  0  0  0
  190.6620  176.2530  147.3290 O   0  0  0  0  0  0  0  0  0  0  0  0
  191.5270  177.0600  147.9130 O   0  0  0  0  0  0  0  0  0  0  0  0
  193.6210  176.7570  149.5350 O   0  0  0  0  0  1  0  0  0  0  0  0
  192.9150  176.1010  148.1380 S   0  0  1  0  0  0  0  0  0  0  0  0
  192.3530  174.7720  148.6200 O   0  0  0  0  0  0  0  0  0  0  0  0
  189.7380  177.2840  137.4330 C   0  0  1  0  0  3  0  0  0  0  0  0
  190.6230  176.3500  138.2540 C   0  0  0  0  0  2  0  0  0  0  0  0
  191.9570  176.7410  138.1430 O   0  0  0  0  0  1  0  0  0  0  0  0
  189.0600  176.4760  136.3280 C   0  0  0  0  0  2  0  0  0  0  0  0
  190.2670  173.2160  135.1950 C   0  0  0  0  0  1  0  0  0  0  0  0
  189.7570  174.5580  135.2210 N   0  0  0  0  0  0  0  0  0  0  0  0
  189.5760  175.1350  136.3070 N   0  0  0  0  0  0  0  0  0  0  0  0
  2  1  1  1  0  0  0
  2 23  1  0  0  0  0
  4  3  1  1  0  0  0
  4  2  1  0  0  0  0
  4  5  1  0  0  0  0
  6 16  2  0  0  0  0
  7  8  2  0  0  0  0
  8 20  2  0  0  0  0
 10 12  1  0  0  0  0
 11  7  1  0  0  0  0
 12 11  2  0  0  0  0
 12  5  1  0  0  0  0
 13 16  1  0  0  0  0
 14 19  2  0  0  0  0
 15 14  1  0  0  0  0
 15 10  2  0  0  0  0
 17  7  1  0  0  0  0
 18  9  1  0  0  0  0
 18 22  1  0  0  0  0
 19  9  1  0  0  0  0
 19 11  1  0  0  0  0
 20 21  1  0  0  0  0
 20  6  1  0  0  0  0
 21 13  2  0  0  0  0
 22 17  1  0  0  0  0
 23 24  1  0  0  0  0
 24 25  1  0  0  0  0
 25 26  1  0  0  0  0
 26 31  1  0  0  0  0
 27 28  1  6  0  0  0
 27 30  1  0  0  0  0
 29 28  1  6  0  0  0
 29 27  1  0  0  0  0
 29 31  1  0  0  0  0
 30 32  1  0  0  0  0
 31 32  1  0  0  0  0
 32 35  1  1  0  0  0
 34 33  1  0  0  0  0
 35 34  1  0  0  0  0
 35 36  1  0  0  0  0
 35 33  1  0  0  0  0
 36 37  1  0  0  0  0
 37 39  1  0  0  0  0
 39 40  2  1  0  0  0
 39 38  1  0  0  0  0
 41 44  1  6  0  0  0
 41 42  1  0  0  0  0
 41  2  1  0  0  0  0
 43 42  1  0  0  0  0
 45 46  1  0  0  0  0
 46 47  2  0  0  0  0
 47 44  1  0  0  0  0
M  END
>  <MODEL>
7

>  <REMARK>
 VINA RESULT:      -6.4      2.770      6.874
  Name = 
  16 active torsions:
  status: ('A' for Active; 'I' for Inactive)
    1  A    between atoms: O_7  and  O_32
    2  A    between atoms: O_7  and  C_47
    3  A    between atoms: C_11  and  C_27
    4  A    between atoms: C_11  and  C_29
    5  A    between atoms: C_12  and  C_24
    6  A    between atoms: C_12  and  C_43
    7  A    between atoms: C_17  and  C_20
    8  A    between atoms: C_17  and  C_26
    9  A    between atoms: C_17  and  C_43
   10  A    between atoms: C_20  and  C_29
   11  A    between atoms: N_21  and  C_27
   12  A    between atoms: C_22  and  C_26
   13  A    between atoms: C_22  and  N_45
   14  A    between atoms: C_23  and  C_47
   15  A    between atoms: C_25  and  C_26
   16  A    between atoms: O_32  and  S_42
                            x       y       z     vdW  Elec       q    Type
                         _______ _______ _______ _____ _____    ______ ____

>  <TORSDO>
F 16

$$$$
=
 OpenBabel11062417333D

 47 52  0  0  1  0  0  0  0  0999 V2000
  188.7880  178.1560  135.9040 O   0  0  0  0  0  1  0  0  0  0  0  0
  188.3720  176.9660  136.5120 C   0  0  2  0  0  0  0  0  0  0  0  0
  186.4260  177.6490  135.2280 O   0  0  0  0  0  1  0  0  0  0  0  0
  186.9390  176.6320  136.0380 C   0  0  2  0  0  3  0  0  0  0  0  0
  185.9810  176.3400  137.1900 C   0  0  0  0  0  2  0  0  0  0  0  0
  182.6200  178.9000  138.3050 C   0  0  0  0  0  3  0  0  0  0  0  0
  183.0960  175.5600  136.9220 C   0  0  0  0  0  0  0  0  0  0  0  0
  183.0120  176.5410  137.7790 C   0  0  0  0  0  0  0  0  0  0  0  0
  182.4680  172.6620  136.8720 C   0  0  0  0  0  2  0  0  0  0  0  0
  186.4920  173.9480  137.2040 N   0  0  0  0  0  0  0  0  0  0  0  0
  184.1770  174.5450  137.0250 C   0  0  0  0  0  0  0  0  0  0  0  0
  185.5360  174.9110  137.1620 C   0  0  0  0  0  0  0  0  0  0  0  0
  182.9810  178.6370  140.5490 C   0  0  0  0  0  3  0  0  0  0  0  0
  184.8780  172.2540  137.0190 N   0  0  0  0  0  0  0  0  0  0  0  0
  186.1740  172.6340  137.1380 C   0  0  0  0  0  3  0  0  0  0  0  0
  182.6510  179.5630  139.4530 C   0  0  0  0  0  3  0  0  0  0  0  0
  182.2060  175.5830  135.7200 C   0  0  0  0  0  2  0  0  0  0  0  0
  181.7900  173.1030  135.5870 C   0  0  0  0  0  2  0  0  0  0  0  0
  183.8760  173.1680  136.9520 C   0  0  0  0  0  0  0  0  0  0  0  0
  182.9340  177.5230  138.6310 C   0  0  0  0  0  0  0  0  0  0  0  0
  183.1540  177.4160  140.0610 C   0  0  0  0  0  3  0  0  0  0  0  0
  181.1590  174.4770  135.7700 C   0  0  0  0  0  2  0  0  0  0  0  0
  188.4350  177.1250  138.0470 C   0  0  0  0  0  2  0  0  0  0  0  0
  189.2930  178.2890  138.5290 C   0  0  0  0  0  2  0  0  0  0  0  0
  190.1440  177.8840  139.7150 C   0  0  0  0  0  2  0  0  0  0  0  0
  189.2970  177.0760  140.6780 C   0  0  0  0  0  2  0  0  0  0  0  0
  186.9510  178.3150  142.7290 C   0  0  2  0  0  3  0  0  0  0  0  0
  186.7190  178.1970  141.2390 C   0  0  0  0  0  2  0  0  0  0  0  0
  188.0220  178.7890  141.7770 C   0  0  2  0  0  3  0  0  0  0  0  0
  187.3280  177.0630  143.2450 O   0  0  0  0  0  0  0  0  0  0  0  0
  189.1080  177.8260  141.9150 N   0  0  0  0  0  0  0  0  0  0  0  0
  188.6960  176.8930  142.9590 C   0  0  1  0  0  3  0  0  0  0  0  0
  190.8890  176.3770  144.0930 C   0  0  0  0  0  2  0  0  0  0  0  0
  190.8150  177.8870  144.2530 C   0  0  0  0  0  2  0  0  0  0  0  0
  189.5440  177.0570  144.2320 C   0  0  0  0  0  0  0  0  0  0  0  0
  188.9690  176.7520  145.4710 O   0  0  0  0  0  0  0  0  0  0  0  0
  189.0020  177.8780  146.1590 O   0  0  0  0  0  0  0  0  0  0  0  0
  189.3260  178.2590  148.7770 O   0  0  0  0  0  1  0  0  0  0  0  0
  188.3140  177.4750  147.6620 S   0  0  1  0  0  0  0  0  0  0  0  0
  187.0400  178.3050  147.7020 O   0  0  0  0  0  0  0  0  0  0  0  0
  189.3400  175.8340  136.0960 C   0  0  1  0  0  3  0  0  0  0  0  0
  189.0710  175.3300  134.6810 C   0  0  0  0  0  2  0  0  0  0  0  0
  188.7390  173.9750  134.7160 O   0  0  0  0  0  1  0  0  0  0  0  0
  190.7990  176.2770  136.1920 C   0  0  0  0  0  2  0  0  0  0  0  0
  193.3060  173.7300  136.9590 C   0  0  0  0  0  1  0  0  0  0  0  0
  192.4310  174.8640  137.0470 N   0  0  0  0  0  0  0  0  0  0  0  0
  191.6700  175.1380  136.1020 N   0  0  0  0  0  0  0  0  0  0  0  0
  2  1  1  6  0  0  0
  2 23  1  0  0  0  0
  4  3  1  1  0  0  0
  4  2  1  0  0  0  0
  4  5  1  0  0  0  0
  6 20  1  0  0  0  0
  6 16  2  0  0  0  0
  7 11  1  0  0  0  0
  7  8  2  0  0  0  0
  8 20  2  0  0  0  0
  9 19  1  0  0  0  0
 11 12  2  0  0  0  0
 12  5  1  0  0  0  0
 12 10  1  0  0  0  0
 14 15  1  0  0  0  0
 15 10  2  0  0  0  0
 16 13  1  0  0  0  0
 17 22  1  0  0  0  0
 17  7  1  0  0  0  0
 18 22  1  0  0  0  0
 18  9  1  0  0  0  0
 19 14  2  0  0  0  0
 19 11  1  0  0  0  0
 20 21  1  0  0  0  0
 21 13  2  0  0  0  0
 23 24  1  0  0  0  0
 24 25  1  0  0  0  0
 25 26  1  0  0  0  0
 26 31  1  0  0  0  0
 27 28  1  6  0  0  0
 27 30  1  0  0  0  0
 29 28  1  6  0  0  0
 29 31  1  0  0  0  0
 29 27  1  0  0  0  0
 31 32  1  0  0  0  0
 32 30  1  0  0  0  0
 32 35  1  1  0  0  0
 33 35  1  0  0  0  0
 33 34  1  0  0  0  0
 35 34  1  0  0  0  0
 35 36  1  0  0  0  0
 36 37  1  0  0  0  0
 37 39  1  0  0  0  0
 39 40  2  6  0  0  0
 39 38  1  0  0  0  0
 41 42  1  6  0  0  0
 41 44  1  0  0  0  0
 41  2  1  0  0  0  0
 42 43  1  0  0  0  0
 45 46  1  0  0  0  0
 47 44  1  0  0  0  0
 47 46  2  0  0  0  0
M  END
>  <MODEL>
8

>  <REMARK>
 VINA RESULT:      -6.2      3.080      6.555
  Name = 
  16 active torsions:
  status: ('A' for Active; 'I' for Inactive)
    1  A    between atoms: O_7  and  O_32
    2  A    between atoms: O_7  and  C_47
    3  A    between atoms: C_11  and  C_27
    4  A    between atoms: C_11  and  C_29
    5  A    between atoms: C_12  and  C_24
    6  A    between atoms: C_12  and  C_43
    7  A    between atoms: C_17  and  C_20
    8  A    between atoms: C_17  and  C_26
    9  A    between atoms: C_17  and  C_43
   10  A    between atoms: C_20  and  C_29
   11  A    between atoms: N_21  and  C_27
   12  A    between atoms: C_22  and  C_26
   13  A    between atoms: C_22  and  N_45
   14  A    between atoms: C_23  and  C_47
   15  A    between atoms: C_25  and  C_26
   16  A    between atoms: O_32  and  S_42
                            x       y       z     vdW  Elec       q    Type
                         _______ _______ _______ _____ _____    ______ ____

>  <TORSDO>
F 16

$$$$
=
 OpenBabel11062417333D

 47 52  0  0  1  0  0  0  0  0999 V2000
  182.7460  177.6120  140.5980 O   0  0  0  0  0  1  0  0  0  0  0  0
  183.0630  178.3580  139.4570 C   0  0  2  0  0  0  0  0  0  0  0  0
  182.4560  177.5420  137.2510 O   0  0  0  0  0  1  0  0  0  0  0  0
  183.3740  177.3900  138.2930 C   0  0  2  0  0  3  0  0  0  0  0  0
  183.4380  175.9290  138.7320 C   0  0  0  0  0  2  0  0  0  0  0  0
  187.6540  176.8660  138.0670 C   0  0  0  0  0  3  0  0  0  0  0  0
  185.2960  174.2740  137.0550 C   0  0  0  0  0  0  0  0  0  0  0  0
  185.9400  175.4090  137.0980 C   0  0  0  0  0  0  0  0  0  0  0  0
  184.0790  172.5480  134.9730 C   0  0  0  0  0  2  0  0  0  0  0  0
  181.6050  174.9220  137.4630 N   0  0  0  0  0  0  0  0  0  0  0  0
  183.8230  174.2390  136.8620 C   0  0  0  0  0  0  0  0  0  0  0  0
  182.9460  175.0250  137.6450 C   0  0  0  0  0  0  0  0  0  0  0  0
  187.1900  178.6230  136.6770 C   0  0  0  0  0  3  0  0  0  0  0  0
  181.8970  173.3360  135.7570 N   0  0  0  0  0  0  0  0  0  0  0  0
  181.0800  174.0930  136.5310 C   0  0  0  0  0  3  0  0  0  0  0  0
  188.0140  178.1100  137.7840 C   0  0  0  0  0  3  0  0  0  0  0  0
  186.0350  173.0200  137.3980 C   0  0  0  0  0  2  0  0  0  0  0  0
  184.8960  171.5170  135.7290 C   0  0  0  0  0  2  0  0  0  0  0  0
  183.2470  173.3790  135.9020 C   0  0  0  0  0  0  0  0  0  0  0  0
  186.5800  176.5430  137.1470 C   0  0  0  0  0  0  0  0  0  0  0  0
  186.3290  177.6900  136.2950 C   0  0  0  0  0  3  0  0  0  0  0  0
  186.2190  172.1210  136.1820 C   0  0  0  0  0  2  0  0  0  0  0  0
  184.2660  179.2760  139.7640 C   0  0  0  0  0  2  0  0  0  0  0  0
  185.3480  178.6390  140.6280 C   0  0  0  0  0  2  0  0  0  0  0  0
  185.2930  179.1660  142.0470 C   0  0  0  0  0  2  0  0  0  0  0  0
  185.5960  178.0340  143.0070 C   0  0  0  0  0  2  0  0  0  0  0  0
  184.8590  178.6250  146.2240 C   0  0  2  0  0  3  0  0  0  0  0  0
  183.7990  178.6780  145.1450 C   0  0  0  0  0  2  0  0  0  0  0  0
  185.1450  179.3770  144.9460 C   0  0  2  0  0  3  0  0  0  0  0  0
  185.5160  177.3850  146.1750 O   0  0  0  0  0  0  0  0  0  0  0  0
  186.1420  178.5730  144.2480 N   0  0  0  0  0  0  0  0  0  0  0  0
  186.4600  177.4570  145.1330 C   0  0  1  0  0  3  0  0  0  0  0  0
  187.9160  178.3670  146.9790 C   0  0  0  0  0  2  0  0  0  0  0  0
  188.2990  176.8960  146.9920 C   0  0  0  0  0  2  0  0  0  0  0  0
  187.8870  177.5690  145.6950 C   0  0  0  0  0  0  0  0  0  0  0  0
  188.9190  177.9790  144.8420 O   0  0  0  0  0  0  0  0  0  0  0  0
  189.7180  176.9340  144.7310 O   0  0  0  0  0  0  0  0  0  0  0  0
  190.5550  175.2500  142.8420 O   0  0  0  0  0  1  0  0  0  0  0  0
  190.0990  176.8680  143.0740 S   0  0  1  0  0  0  0  0  0  0  0  0
  188.7410  176.9510  142.3950 O   0  0  0  0  0  0  0  0  0  0  0  0
  181.8500  179.2450  139.0940 C   0  0  1  0  0  3  0  0  0  0  0  0
  180.7200  179.1310  140.1150 C   0  0  0  0  0  2  0  0  0  0  0  0
  180.6520  180.2970  140.8780 O   0  0  0  0  0  1  0  0  0  0  0  0
  182.2460  180.7140  138.9590 C   0  0  0  0  0  2  0  0  0  0  0  0
  180.4490  183.1010  136.8500 C   0  0  0  0  0  1  0  0  0  0  0  0
  181.1560  182.4950  137.9440 N   0  0  0  0  0  0  0  0  0  0  0  0
  181.5440  181.3170  137.8590 N   0  0  0  0  0  0  0  0  0  0  0  0
  2 23  1  0  0  0  0
  2  1  1  1  0  0  0
  4  3  1  6  0  0  0
  4  5  1  0  0  0  0
  4  2  1  0  0  0  0
  7  8  2  0  0  0  0
  7 17  1  0  0  0  0
  8 20  2  0  0  0  0
  9 18  1  0  0  0  0
  9 19  1  0  0  0  0
 10 12  1  0  0  0  0
 11  7  1  0  0  0  0
 11 12  2  0  0  0  0
 12  5  1  0  0  0  0
 13 16  1  0  0  0  0
 14 19  2  0  0  0  0
 14 15  1  0  0  0  0
 15 10  2  0  0  0  0
 16  6  2  0  0  0  0
 18 22  1  0  0  0  0
 19 11  1  0  0  0  0
 20  6  1  0  0  0  0
 21 13  2  0  0  0  0
 21 20  1  0  0  0  0
 22 17  1  0  0  0  0
 23 24  1  0  0  0  0
 24 25  1  0  0  0  0
 25 26  1  0  0  0  0
 26 31  1  0  0  0  0
 27 28  1  6  0  0  0
 29 28  1  6  0  0  0
 29 27  1  0  0  0  0
 30 27  1  0  0  0  0
 31 29  1  0  0  0  0
 31 32  1  0  0  0  0
 32 35  1  1  0  0  0
 32 30  1  0  0  0  0
 33 34  1  0  0  0  0
 35 33  1  0  0  0  0
 35 34  1  0  0  0  0
 36 35  1  0  0  0  0
 37 36  1  0  0  0  0
 38 39  1  0  0  0  0
 39 40  2  6  0  0  0
 39 37  1  0  0  0  0
 41 44  1  1  0  0  0
 41  2  1  0  0  0  0
 41 42  1  0  0  0  0
 42 43  1  0  0  0  0
 45 46  1  0  0  0  0
 47 46  2  0  0  0  0
 47 44  1  0  0  0  0
M  END
>  <MODEL>
9

>  <REMARK>
 VINA RESULT:      -6.1      2.140      4.136
  Name = 
  16 active torsions:
  status: ('A' for Active; 'I' for Inactive)
    1  A    between atoms: O_7  and  O_32
    2  A    between atoms: O_7  and  C_47
    3  A    between atoms: C_11  and  C_27
    4  A    between atoms: C_11  and  C_29
    5  A    between atoms: C_12  and  C_24
    6  A    between atoms: C_12  and  C_43
    7  A    between atoms: C_17  and  C_20
    8  A    between atoms: C_17  and  C_26
    9  A    between atoms: C_17  and  C_43
   10  A    between atoms: C_20  and  C_29
   11  A    between atoms: N_21  and  C_27
   12  A    between atoms: C_22  and  C_26
   13  A    between atoms: C_22  and  N_45
   14  A    between atoms: C_23  and  C_47
   15  A    between atoms: C_25  and  C_26
   16  A    between atoms: O_32  and  S_42
                            x       y       z     vdW  Elec       q    Type
                         _______ _______ _______ _____ _____    ______ ____

>  <TORSDO>
F 16

$$$$
