=
 OpenBabel11062414303D

 31 32  0  0  1  0  0  0  0  0999 V2000
  188.4710  177.5940  142.2050 C   0  0  2  0  0  3  0  0  0  0  0  0
  188.2360  178.6670  141.1500 C   0  0  2  0  0  3  0  0  0  0  0  0
  186.8240  179.0930  141.1670 N   0  0  0  0  0  0  0  0  0  0  0  0
  186.0200  178.4390  140.1410 C   0  0  0  0  0  1  0  0  0  0  0  0
  187.1140  177.4010  142.8460 C   0  0  0  0  0  2  0  0  0  0  0  0
  186.3090  178.6240  142.4440 C   0  0  0  0  0  2  0  0  0  0  0  0
  189.1150  177.5340  144.5640 N   0  0  0  0  0  2  0  0  0  0  0  0
  189.4630  178.0850  143.2640 C   0  0  1  0  0  3  0  0  0  0  0  0
  191.1810  177.6070  142.8780 S   0  0  0  0  0  0  0  0  0  0  0  0
  190.2760  177.7560  145.4100 C   0  0  2  0  0  3  0  0  0  0  0  0
  191.5140  177.3440  144.6400 C   0  0  0  0  0  2  0  0  0  0  0  0
  190.1710  176.9320  146.6860 C   0  0  0  0  0  2  0  0  0  0  0  0
  188.7500  176.9330  147.2330 C   0  0  0  0  0  2  0  0  0  0  0  0
  188.6360  177.8910  148.4030 C   0  0  0  0  0  2  0  0  0  0  0  0
  187.6710  178.8600  148.1310 O   0  0  0  0  0  0  0  0  0  0  0  0
  186.7540  178.2120  147.3040 C   0  0  0  0  0  1  0  0  0  0  0  0
  188.8170  179.1940  138.9280 O   0  0  0  0  0  0  0  0  0  0  0  0
  188.8220  178.3370  139.7970 C   0  0  0  0  0  0  0  0  0  0  0  0
  189.3480  176.9610  139.4890 C   0  0  0  0  0  2  0  0  0  0  0  0
  187.6910  176.2050  137.9030 N   0  0  0  0  0  0  0  0  0  0  0  0
  188.9510  176.4700  138.1310 C   0  0  0  0  0  0  0  0  0  0  0  0
  187.0610  175.6550  136.7360 C   0  0  0  0  0  0  0  0  0  0  0  0
  186.7930  174.1930  136.6870 C   0  0  0  0  0  1  0  0  0  0  0  0
  186.7290  176.3700  135.7530 O   0  0  0  0  0  0  0  0  0  0  0  0
  190.3510  177.2690  136.3750 O   0  0  0  0  0  1  0  0  0  0  0  0
  190.0730  176.1580  137.1750 C   0  0  1  0  0  3  0  0  0  0  0  0
  191.3420  175.6210  137.8480 C   0  0  0  0  0  3  0  0  0  0  0  0
  192.5390  176.4810  137.4510 C   0  0  0  0  0  2  0  0  0  0  0  0
  193.2880  176.8130  138.5800 O   0  0  0  0  0  1  0  0  0  0  0  0
  190.3860  173.4920  137.3040 O   0  0  0  0  0  1  0  0  0  0  0  0
  191.5950  174.1740  137.4370 C   0  0  0  0  0  2  0  0  0  0  0  0
  1  5  1  1  0  0  0
  1  8  1  0  0  0  0
  2 18  1  6  0  0  0
  2  3  1  0  0  0  0
  2  1  1  0  0  0  0
  3  6  1  0  0  0  0
  4  3  1  0  0  0  0
  6  5  1  0  0  0  0
  7 10  1  0  0  0  0
  8  9  1  6  0  0  0
  8  7  1  0  0  0  0
  9 11  1  0  0  0  0
 10 12  1  1  0  0  0
 11 10  1  0  0  0  0
 12 13  1  0  0  0  0
 13 14  1  0  0  0  0
 15 14  1  0  0  0  0
 16 15  1  0  0  0  0
 17 18  2  0  0  0  0
 19 18  1  0  0  0  0
 20 21  2  0  0  0  0
 21 19  1  0  0  0  0
 22 20  1  0  0  0  0
 23 22  1  0  0  0  0
 24 22  2  0  0  0  0
 26 25  1  1  0  0  0
 26 27  1  0  0  0  0
 26 21  1  0  0  0  0
 28 27  1  0  0  0  0
 28 29  1  0  0  0  0
 30 31  1  0  0  0  0
 31 27  1  0  0  0  0
M  END
>  <MODEL>
1

>  <REMARK>
 VINA RESULT:      -6.1      0.000      0.000
  Name = 
  13 active torsions:
  status: ('A' for Active; 'I' for Inactive)
    1  A    between atoms: C_1  and  O_11
    2  A    between atoms: C_1  and  C_15
    3  A    between atoms: C_2  and  N_13
    4  A    between atoms: C_4  and  C_14
    5  A    between atoms: C_5  and  C_15
    6  A    between atoms: C_5  and  C_20
    7  A    between atoms: C_6  and  C_30
    8  A    between atoms: C_7  and  C_17
    9  A    between atoms: C_17  and  C_31
   10  A    between atoms: C_19  and  C_22
   11  A    between atoms: C_19  and  C_31
   12  A    between atoms: C_22  and  C_30
   13  A    between atoms: C_29  and  C_30
                            x       y       z     vdW  Elec       q    Type
                         _______ _______ _______ _____ _____    ______ ____

>  <TORSDO>
F 13

$$$$
=
 OpenBabel11062414303D

 31 32  0  0  1  0  0  0  0  0999 V2000
  189.2320  177.9100  138.3020 C   0  0  2  0  0  3  0  0  0  0  0  0
  187.8450  177.2910  138.1960 C   0  0  2  0  0  3  0  0  0  0  0  0
  187.9260  175.9790  137.5250 N   0  0  0  0  0  0  0  0  0  0  0  0
  187.5970  176.0440  136.1050 C   0  0  0  0  0  1  0  0  0  0  0  0
  190.1430  176.8930  137.6490 C   0  0  0  0  0  2  0  0  0  0  0  0
  189.3320  175.6120  137.5960 C   0  0  0  0  0  2  0  0  0  0  0  0
  188.6190  177.5040  140.6350 N   0  0  0  0  0  2  0  0  0  0  0  0
  189.6360  178.0800  139.7700 C   0  0  1  0  0  3  0  0  0  0  0  0
  191.2320  177.2800  140.1470 S   0  0  0  0  0  0  0  0  0  0  0  0
  189.2340  177.3950  141.9480 C   0  0  2  0  0  3  0  0  0  0  0  0
  190.6150  176.7970  141.7800 C   0  0  0  0  0  2  0  0  0  0  0  0
  188.3980  176.5020  142.8560 C   0  0  0  0  0  2  0  0  0  0  0  0
  187.7870  177.2940  144.0040 C   0  0  0  0  0  2  0  0  0  0  0  0
  188.7870  177.4360  145.1360 C   0  0  0  0  0  2  0  0  0  0  0  0
  188.1590  177.1980  146.3580 O   0  0  0  0  0  0  0  0  0  0  0  0
  186.9150  177.8170  146.2340 C   0  0  0  0  0  1  0  0  0  0  0  0
  187.1310  179.2210  137.0470 O   0  0  0  0  0  0  0  0  0  0  0  0
  186.7850  178.2400  137.6870 C   0  0  0  0  0  0  0  0  0  0  0  0
  185.3300  178.0310  138.0080 C   0  0  0  0  0  2  0  0  0  0  0  0
  185.5680  178.5100  140.3630 N   0  0  0  0  0  0  0  0  0  0  0  0
  184.8980  178.7280  139.2620 C   0  0  0  0  0  0  0  0  0  0  0  0
  185.3250  178.9770  141.6990 C   0  0  0  0  0  0  0  0  0  0  0  0
  184.3370  178.2550  142.5430 C   0  0  0  0  0  1  0  0  0  0  0  0
  185.9210  179.9800  142.1770 O   0  0  0  0  0  0  0  0  0  0  0  0
  183.8610  180.8290  138.8240 O   0  0  0  0  0  1  0  0  0  0  0  0
  183.6090  179.5040  139.1890 C   0  0  1  0  0  3  0  0  0  0  0  0
  182.5420  178.8690  138.2910 C   0  0  0  0  0  3  0  0  0  0  0  0
  181.6200  179.9540  137.7410 C   0  0  0  0  0  2  0  0  0  0  0  0
  181.1800  179.6080  136.4630 O   0  0  0  0  0  1  0  0  0  0  0  0
  182.2070  176.5620  138.8480 O   0  0  0  0  0  1  0  0  0  0  0  0
  181.7200  177.8500  139.0730 C   0  0  0  0  0  2  0  0  0  0  0  0
  1  5  1  6  0  0  0
  1  8  1  0  0  0  0
  2 18  1  6  0  0  0
  2  1  1  0  0  0  0
  3  6  1  0  0  0  0
  3  2  1  0  0  0  0
  4  3  1  0  0  0  0
  6  5  1  0  0  0  0
  7 10  1  0  0  0  0
  8  9  1  6  0  0  0
  8  7  1  0  0  0  0
  9 11  1  0  0  0  0
 10 12  1  1  0  0  0
 11 10  1  0  0  0  0
 12 13  1  0  0  0  0
 13 14  1  0  0  0  0
 14 15  1  0  0  0  0
 16 15  1  0  0  0  0
 17 18  2  0  0  0  0
 18 19  1  0  0  0  0
 19 21  1  0  0  0  0
 20 22  1  0  0  0  0
 21 20  2  0  0  0  0
 22 24  2  0  0  0  0
 22 23  1  0  0  0  0
 26 25  1  6  0  0  0
 26 21  1  0  0  0  0
 27 31  1  0  0  0  0
 27 26  1  0  0  0  0
 28 27  1  0  0  0  0
 29 28  1  0  0  0  0
 30 31  1  0  0  0  0
M  END
>  <MODEL>
2

>  <REMARK>
 VINA RESULT:      -5.9      2.888      6.148
  Name = 
  13 active torsions:
  status: ('A' for Active; 'I' for Inactive)
    1  A    between atoms: C_1  and  O_11
    2  A    between atoms: C_1  and  C_15
    3  A    between atoms: C_2  and  N_13
    4  A    between atoms: C_4  and  C_14
    5  A    between atoms: C_5  and  C_15
    6  A    between atoms: C_5  and  C_20
    7  A    between atoms: C_6  and  C_30
    8  A    between atoms: C_7  and  C_17
    9  A    between atoms: C_17  and  C_31
   10  A    between atoms: C_19  and  C_22
   11  A    between atoms: C_19  and  C_31
   12  A    between atoms: C_22  and  C_30
   13  A    between atoms: C_29  and  C_30
                            x       y       z     vdW  Elec       q    Type
                         _______ _______ _______ _____ _____    ______ ____

>  <TORSDO>
F 13

$$$$
=
 OpenBabel11062414303D

 31 32  0  0  1  0  0  0  0  0999 V2000
  188.7300  178.0100  141.9520 C   0  0  2  0  0  3  0  0  0  0  0  0
  188.9500  177.1810  140.6930 C   0  0  2  0  0  3  0  0  0  0  0  0
  190.2680  176.5200  140.7470 N   0  0  0  0  0  0  0  0  0  0  0  0
  191.2960  177.2390  140.0010 C   0  0  0  0  0  1  0  0  0  0  0  0
  189.9970  177.8100  142.7540 C   0  0  0  0  0  2  0  0  0  0  0  0
  190.6620  176.5890  142.1460 C   0  0  0  0  0  2  0  0  0  0  0  0
  187.8580  177.4570  144.1690 N   0  0  0  0  0  2  0  0  0  0  0  0
  187.5380  177.4740  142.7500 C   0  0  1  0  0  3  0  0  0  0  0  0
  186.0350  178.4810  142.5120 S   0  0  0  0  0  0  0  0  0  0  0  0
  186.5890  177.2790  144.8570 C   0  0  2  0  0  3  0  0  0  0  0  0
  185.5780  178.2270  144.2470 C   0  0  0  0  0  2  0  0  0  0  0  0
  186.7420  177.5810  146.3420 C   0  0  0  0  0  2  0  0  0  0  0  0
  188.1610  178.0180  146.6770 C   0  0  0  0  0  2  0  0  0  0  0  0
  188.7760  177.0770  147.6970 C   0  0  0  0  0  2  0  0  0  0  0  0
  190.1590  177.2490  147.7290 O   0  0  0  0  0  0  0  0  0  0  0  0
  190.5880  176.8340  146.4690 C   0  0  0  0  0  1  0  0  0  0  0  0
  188.9170  179.0850  139.3070 O   0  0  0  0  0  0  0  0  0  0  0  0
  188.6150  177.9080  139.4120 C   0  0  0  0  0  0  0  0  0  0  0  0
  187.8640  177.2250  138.3010 C   0  0  0  0  0  2  0  0  0  0  0  0
  185.8060  178.3360  138.8990 N   0  0  0  0  0  0  0  0  0  0  0  0
  186.5880  177.9200  137.9380 C   0  0  0  0  0  0  0  0  0  0  0  0
  184.5100  178.9500  138.8320 C   0  0  0  0  0  0  0  0  0  0  0  0
  183.3210  178.0920  138.5840 C   0  0  0  0  0  1  0  0  0  0  0  0
  184.3470  180.1910  138.9770 O   0  0  0  0  0  0  0  0  0  0  0  0
  187.2520  178.5090  135.7260 O   0  0  0  0  0  1  0  0  0  0  0  0
  186.2240  177.9350  136.4760 C   0  0  1  0  0  3  0  0  0  0  0  0
  185.8160  176.5680  135.9150 C   0  0  0  0  0  3  0  0  0  0  0  0
  185.4720  175.6220  137.0620 C   0  0  0  0  0  2  0  0  0  0  0  0
  184.1860  175.1090  136.8920 O   0  0  0  0  0  1  0  0  0  0  0  0
  187.3550  174.7530  135.6300 O   0  0  0  0  0  1  0  0  0  0  0  0
  186.9470  175.9710  135.0840 C   0  0  0  0  0  2  0  0  0  0  0  0
  1  8  1  0  0  0  0
  1  5  1  1  0  0  0
  2 18  1  6  0  0  0
  2  3  1  0  0  0  0
  2  1  1  0  0  0  0
  3  6  1  0  0  0  0
  4  3  1  0  0  0  0
  6  5  1  0  0  0  0
  7 10  1  0  0  0  0
  8  9  1  1  0  0  0
  8  7  1  0  0  0  0
  9 11  1  0  0  0  0
 10 12  1  1  0  0  0
 11 10  1  0  0  0  0
 12 13  1  0  0  0  0
 13 14  1  0  0  0  0
 14 15  1  0  0  0  0
 16 15  1  0  0  0  0
 17 18  2  0  0  0  0
 19 18  1  0  0  0  0
 21 19  1  0  0  0  0
 21 20  2  0  0  0  0
 22 20  1  0  0  0  0
 22 24  2  0  0  0  0
 23 22  1  0  0  0  0
 26 25  1  6  0  0  0
 26 21  1  0  0  0  0
 27 26  1  0  0  0  0
 27 28  1  0  0  0  0
 29 28  1  0  0  0  0
 31 30  1  0  0  0  0
 31 27  1  0  0  0  0
M  END
>  <MODEL>
3

>  <REMARK>
 VINA RESULT:      -5.9      2.380      4.254
  Name = 
  13 active torsions:
  status: ('A' for Active; 'I' for Inactive)
    1  A    between atoms: C_1  and  O_11
    2  A    between atoms: C_1  and  C_15
    3  A    between atoms: C_2  and  N_13
    4  A    between atoms: C_4  and  C_14
    5  A    between atoms: C_5  and  C_15
    6  A    between atoms: C_5  and  C_20
    7  A    between atoms: C_6  and  C_30
    8  A    between atoms: C_7  and  C_17
    9  A    between atoms: C_17  and  C_31
   10  A    between atoms: C_19  and  C_22
   11  A    between atoms: C_19  and  C_31
   12  A    between atoms: C_22  and  C_30
   13  A    between atoms: C_29  and  C_30
                            x       y       z     vdW  Elec       q    Type
                         _______ _______ _______ _____ _____    ______ ____

>  <TORSDO>
F 13

$$$$
=
 OpenBabel11062414303D

 31 32  0  0  1  0  0  0  0  0999 V2000
  189.7990  177.4620  139.3110 C   0  0  2  0  0  3  0  0  0  0  0  0
  188.8790  176.9940  138.1910 C   0  0  2  0  0  3  0  0  0  0  0  0
  189.5880  176.0350  137.3210 N   0  0  0  0  0  0  0  0  0  0  0  0
  190.1270  176.6520  136.1140 C   0  0  0  0  0  1  0  0  0  0  0  0
  191.0990  176.7310  139.0540 C   0  0  0  0  0  2  0  0  0  0  0  0
  190.7370  175.6050  138.1020 C   0  0  0  0  0  2  0  0  0  0  0  0
  190.3340  176.6330  141.5490 N   0  0  0  0  0  2  0  0  0  0  0  0
  189.2450  177.0410  140.6760 C   0  0  1  0  0  3  0  0  0  0  0  0
  188.3230  178.3850  141.4950 S   0  0  0  0  0  0  0  0  0  0  0  0
  189.7720  176.5930  142.8890 C   0  0  2  0  0  3  0  0  0  0  0  0
  188.9640  177.8560  143.1050 C   0  0  0  0  0  2  0  0  0  0  0  0
  190.8800  176.5120  143.9310 C   0  0  0  0  0  2  0  0  0  0  0  0
  190.7000  177.5630  145.0170 C   0  0  0  0  0  2  0  0  0  0  0  0
  190.6670  176.9080  146.3850 C   0  0  0  0  0  2  0  0  0  0  0  0
  191.9330  176.9600  146.9670 O   0  0  0  0  0  0  0  0  0  0  0  0
  192.1700  175.6540  147.3950 C   0  0  0  0  0  1  0  0  0  0  0  0
  188.5370  179.2590  137.6380 O   0  0  0  0  0  0  0  0  0  0  0  0
  188.1410  178.1130  137.4940 C   0  0  0  0  0  0  0  0  0  0  0  0
  186.9000  177.8460  136.6870 C   0  0  0  0  0  2  0  0  0  0  0  0
  185.6760  178.8530  138.5090 N   0  0  0  0  0  0  0  0  0  0  0  0
  185.6360  178.0790  137.4560 C   0  0  0  0  0  0  0  0  0  0  0  0
  184.6460  179.1760  139.4550 C   0  0  0  0  0  0  0  0  0  0  0  0
  184.5320  178.3650  140.6960 C   0  0  0  0  0  1  0  0  0  0  0  0
  183.8360  180.1230  139.2690 O   0  0  0  0  0  0  0  0  0  0  0  0
  184.3990  177.1220  135.6570 O   0  0  0  0  0  1  0  0  0  0  0  0
  184.4390  177.2600  137.0460 C   0  0  1  0  0  3  0  0  0  0  0  0
  184.3380  175.9000  137.7470 C   0  0  0  0  0  3  0  0  0  0  0  0
  184.9200  174.8130  136.8470 C   0  0  0  0  0  2  0  0  0  0  0  0
  186.1930  174.4540  137.2890 O   0  0  0  0  0  1  0  0  0  0  0  0
  182.6470  175.7250  139.4360 O   0  0  0  0  0  1  0  0  0  0  0  0
  182.8840  175.5700  138.0700 C   0  0  0  0  0  2  0  0  0  0  0  0
  1  5  1  6  0  0  0
  1  8  1  0  0  0  0
  2 18  1  6  0  0  0
  2  1  1  0  0  0  0
  3  6  1  0  0  0  0
  3  2  1  0  0  0  0
  4  3  1  0  0  0  0
  6  5  1  0  0  0  0
  7 10  1  0  0  0  0
  8  9  1  1  0  0  0
  8  7  1  0  0  0  0
  9 11  1  0  0  0  0
 10 11  1  0  0  0  0
 10 12  1  1  0  0  0
 12 13  1  0  0  0  0
 13 14  1  0  0  0  0
 14 15  1  0  0  0  0
 15 16  1  0  0  0  0
 18 17  2  0  0  0  0
 19 21  1  0  0  0  0
 19 18  1  0  0  0  0
 20 22  1  0  0  0  0
 21 20  2  0  0  0  0
 22 23  1  0  0  0  0
 24 22  2  0  0  0  0
 26 25  1  6  0  0  0
 26 21  1  0  0  0  0
 26 27  1  0  0  0  0
 27 31  1  0  0  0  0
 28 29  1  0  0  0  0
 28 27  1  0  0  0  0
 31 30  1  0  0  0  0
M  END
>  <MODEL>
4

>  <REMARK>
 VINA RESULT:      -5.8      2.594      5.181
  Name = 
  13 active torsions:
  status: ('A' for Active; 'I' for Inactive)
    1  A    between atoms: C_1  and  O_11
    2  A    between atoms: C_1  and  C_15
    3  A    between atoms: C_2  and  N_13
    4  A    between atoms: C_4  and  C_14
    5  A    between atoms: C_5  and  C_15
    6  A    between atoms: C_5  and  C_20
    7  A    between atoms: C_6  and  C_30
    8  A    between atoms: C_7  and  C_17
    9  A    between atoms: C_17  and  C_31
   10  A    between atoms: C_19  and  C_22
   11  A    between atoms: C_19  and  C_31
   12  A    between atoms: C_22  and  C_30
   13  A    between atoms: C_29  and  C_30
                            x       y       z     vdW  Elec       q    Type
                         _______ _______ _______ _____ _____    ______ ____

>  <TORSDO>
F 13

$$$$
=
 OpenBabel11062414303D

 31 32  0  0  1  0  0  0  0  0999 V2000
  188.7170  178.1250  141.7210 C   0  0  2  0  0  3  0  0  0  0  0  0
  189.0330  177.2080  140.5470 C   0  0  2  0  0  3  0  0  0  0  0  0
  190.3250  176.5290  140.7680 N   0  0  0  0  0  0  0  0  0  0  0  0
  191.4340  177.1770  140.0770 C   0  0  0  0  0  1  0  0  0  0  0  0
  189.9000  177.9580  142.6510 C   0  0  0  0  0  2  0  0  0  0  0  0
  190.5880  176.6860  142.1900 C   0  0  0  0  0  2  0  0  0  0  0  0
  187.6450  177.6960  143.8770 N   0  0  0  0  0  2  0  0  0  0  0  0
  187.4440  177.6660  142.4370 C   0  0  1  0  0  3  0  0  0  0  0  0
  186.0060  178.7150  142.0350 S   0  0  0  0  0  0  0  0  0  0  0  0
  186.3190  177.5930  144.4640 C   0  0  2  0  0  3  0  0  0  0  0  0
  185.3990  178.5510  143.7350 C   0  0  0  0  0  2  0  0  0  0  0  0
  186.3610  177.9510  145.9430 C   0  0  0  0  0  2  0  0  0  0  0  0
  187.7100  177.6080  146.5600 C   0  0  0  0  0  2  0  0  0  0  0  0
  187.7590  178.0610  148.0070 C   0  0  0  0  0  2  0  0  0  0  0  0
  189.0840  178.1660  148.4270 O   0  0  0  0  0  0  0  0  0  0  0  0
  189.7830  177.3050  147.5820 C   0  0  0  0  0  1  0  0  0  0  0  0
  188.4660  179.0130  139.1430 O   0  0  0  0  0  0  0  0  0  0  0  0
  188.8360  177.8510  139.1940 C   0  0  0  0  0  0  0  0  0  0  0  0
  189.0250  177.0690  137.9230 C   0  0  0  0  0  2  0  0  0  0  0  0
  187.6950  175.1950  137.1820 N   0  0  0  0  0  0  0  0  0  0  0  0
  187.7500  176.4830  137.3980 C   0  0  0  0  0  0  0  0  0  0  0  0
  186.6420  174.3990  136.6160 C   0  0  0  0  0  0  0  0  0  0  0  0
  185.8420  173.5260  137.5140 C   0  0  0  0  0  1  0  0  0  0  0  0
  186.3750  174.4160  135.3840 O   0  0  0  0  0  0  0  0  0  0  0  0
  186.7230  177.6970  135.6230 O   0  0  0  0  0  1  0  0  0  0  0  0
  186.6760  177.4600  136.9980 C   0  0  1  0  0  3  0  0  0  0  0  0
  185.2660  177.0650  137.4510 C   0  0  0  0  0  3  0  0  0  0  0  0
  184.3030  177.1500  136.2690 C   0  0  0  0  0  2  0  0  0  0  0  0
  183.0280  177.5000  136.7130 O   0  0  0  0  0  1  0  0  0  0  0  0
  185.3670  179.2460  138.4400 O   0  0  0  0  0  1  0  0  0  0  0  0
  184.7830  177.9850  138.5680 C   0  0  0  0  0  2  0  0  0  0  0  0
  1  8  1  0  0  0  0
  1  5  1  1  0  0  0
  2 18  1  6  0  0  0
  2  3  1  0  0  0  0
  2  1  1  0  0  0  0
  3  6  1  0  0  0  0
  4  3  1  0  0  0  0
  6  5  1  0  0  0  0
  7 10  1  0  0  0  0
  8  9  1  1  0  0  0
  8  7  1  0  0  0  0
  9 11  1  0  0  0  0
 10 12  1  1  0  0  0
 11 10  1  0  0  0  0
 12 13  1  0  0  0  0
 13 14  1  0  0  0  0
 14 15  1  0  0  0  0
 16 15  1  0  0  0  0
 17 18  2  0  0  0  0
 19 18  1  0  0  0  0
 20 21  2  0  0  0  0
 21 19  1  0  0  0  0
 22 20  1  0  0  0  0
 22 23  1  0  0  0  0
 24 22  2  0  0  0  0
 26 25  1  6  0  0  0
 26 21  1  0  0  0  0
 26 27  1  0  0  0  0
 27 31  1  0  0  0  0
 28 29  1  0  0  0  0
 28 27  1  0  0  0  0
 30 31  1  0  0  0  0
M  END
>  <MODEL>
5

>  <REMARK>
 VINA RESULT:      -5.8      2.367      4.362
  Name = 
  13 active torsions:
  status: ('A' for Active; 'I' for Inactive)
    1  A    between atoms: C_1  and  O_11
    2  A    between atoms: C_1  and  C_15
    3  A    between atoms: C_2  and  N_13
    4  A    between atoms: C_4  and  C_14
    5  A    between atoms: C_5  and  C_15
    6  A    between atoms: C_5  and  C_20
    7  A    between atoms: C_6  and  C_30
    8  A    between atoms: C_7  and  C_17
    9  A    between atoms: C_17  and  C_31
   10  A    between atoms: C_19  and  C_22
   11  A    between atoms: C_19  and  C_31
   12  A    between atoms: C_22  and  C_30
   13  A    between atoms: C_29  and  C_30
                            x       y       z     vdW  Elec       q    Type
                         _______ _______ _______ _____ _____    ______ ____

>  <TORSDO>
F 13

$$$$
=
 OpenBabel11062414303D

 31 32  0  0  1  0  0  0  0  0999 V2000
  184.9840  178.9930  142.8460 C   0  0  2  0  0  3  0  0  0  0  0  0
  185.7020  177.8770  143.5950 C   0  0  2  0  0  3  0  0  0  0  0  0
  185.3920  177.9540  145.0360 N   0  0  0  0  0  0  0  0  0  0  0  0
  186.4310  178.6300  145.8060 C   0  0  0  0  0  1  0  0  0  0  0  0
  184.2350  179.7430  143.9270 C   0  0  0  0  0  2  0  0  0  0  0  0
  184.2130  178.8030  145.1180 C   0  0  0  0  0  2  0  0  0  0  0  0
  182.6450  178.9120  142.1370 N   0  0  0  0  0  2  0  0  0  0  0  0
  183.9790  178.4130  141.8460 C   0  0  1  0  0  3  0  0  0  0  0  0
  184.3910  178.8430  140.1210 S   0  0  0  0  0  0  0  0  0  0  0  0
  181.8440  178.6040  140.9630 C   0  0  2  0  0  3  0  0  0  0  0  0
  182.6290  179.0060  139.7320 C   0  0  0  0  0  2  0  0  0  0  0  0
  180.5270  179.3680  141.0010 C   0  0  0  0  0  2  0  0  0  0  0  0
  179.7570  179.2130  139.6970 C   0  0  0  0  0  2  0  0  0  0  0  0
  179.1890  180.5500  139.2580 C   0  0  0  0  0  2  0  0  0  0  0  0
  180.1660  181.5390  139.3620 O   0  0  0  0  0  0  0  0  0  0  0  0
  180.0790  182.2390  138.1590 C   0  0  0  0  0  1  0  0  0  0  0  0
  187.7390  178.6790  142.7240 O   0  0  0  0  0  0  0  0  0  0  0  0
  187.1600  177.7300  143.2280 C   0  0  0  0  0  0  0  0  0  0  0  0
  187.8840  176.4240  143.4150 C   0  0  0  0  0  2  0  0  0  0  0  0
  188.9300  176.8780  145.5430 N   0  0  0  0  0  0  0  0  0  0  0  0
  189.0930  176.5410  144.2910 C   0  0  0  0  0  0  0  0  0  0  0  0
  189.9070  177.1350  146.5640 C   0  0  0  0  0  0  0  0  0  0  0  0
  189.4910  177.8720  147.7860 C   0  0  0  0  0  1  0  0  0  0  0  0
  191.1050  176.7560  146.4570 O   0  0  0  0  0  0  0  0  0  0  0  0
  190.4830  175.2540  142.8440 O   0  0  0  0  0  1  0  0  0  0  0  0
  190.4310  176.4220  143.6080 C   0  0  1  0  0  3  0  0  0  0  0  0
  190.8270  177.6510  142.7810 C   0  0  0  0  0  3  0  0  0  0  0  0
  191.6090  177.2100  141.5470 C   0  0  0  0  0  2  0  0  0  0  0  0
  190.9590  177.6370  140.3880 O   0  0  0  0  0  1  0  0  0  0  0  0
  190.9340  179.7260  143.9740 O   0  0  0  0  0  1  0  0  0  0  0  0
  191.6800  178.6040  143.6110 C   0  0  0  0  0  2  0  0  0  0  0  0
  1  2  1  0  0  0  0
  1  5  1  1  0  0  0
  2 18  1  1  0  0  0
  2  3  1  0  0  0  0
  3  6  1  0  0  0  0
  3  4  1  0  0  0  0
  5  6  1  0  0  0  0
  8  9  1  6  0  0  0
  8  7  1  0  0  0  0
  8  1  1  0  0  0  0
 10 12  1  1  0  0  0
 10  7  1  0  0  0  0
 11  9  1  0  0  0  0
 11 10  1  0  0  0  0
 13 12  1  0  0  0  0
 14 15  1  0  0  0  0
 14 13  1  0  0  0  0
 16 15  1  0  0  0  0
 17 18  2  0  0  0  0
 18 19  1  0  0  0  0
 19 21  1  0  0  0  0
 20 22  1  0  0  0  0
 21 20  2  0  0  0  0
 22 23  1  0  0  0  0
 24 22  2  0  0  0  0
 26 25  1  6  0  0  0
 26 21  1  0  0  0  0
 27 26  1  0  0  0  0
 27 31  1  0  0  0  0
 28 27  1  0  0  0  0
 29 28  1  0  0  0  0
 31 30  1  0  0  0  0
M  END
>  <MODEL>
6

>  <REMARK>
 VINA RESULT:      -5.7      4.150      8.022
  Name = 
  13 active torsions:
  status: ('A' for Active; 'I' for Inactive)
    1  A    between atoms: C_1  and  O_11
    2  A    between atoms: C_1  and  C_15
    3  A    between atoms: C_2  and  N_13
    4  A    between atoms: C_4  and  C_14
    5  A    between atoms: C_5  and  C_15
    6  A    between atoms: C_5  and  C_20
    7  A    between atoms: C_6  and  C_30
    8  A    between atoms: C_7  and  C_17
    9  A    between atoms: C_17  and  C_31
   10  A    between atoms: C_19  and  C_22
   11  A    between atoms: C_19  and  C_31
   12  A    between atoms: C_22  and  C_30
   13  A    between atoms: C_29  and  C_30
                            x       y       z     vdW  Elec       q    Type
                         _______ _______ _______ _____ _____    ______ ____

>  <TORSDO>
F 13

$$$$
=
 OpenBabel11062414303D

 31 32  0  0  1  0  0  0  0  0999 V2000
  186.1190  177.9180  143.3510 C   0  0  2  0  0  3  0  0  0  0  0  0
  185.2120  178.9930  142.7660 C   0  0  2  0  0  3  0  0  0  0  0  0
  184.4040  179.6100  143.8360 N   0  0  0  0  0  0  0  0  0  0  0  0
  183.0590  179.0530  143.9260 C   0  0  0  0  0  1  0  0  0  0  0  0
  185.7980  177.9260  144.8300 C   0  0  0  0  0  2  0  0  0  0  0  0
  185.0780  179.2400  145.0710 C   0  0  0  0  0  2  0  0  0  0  0  0
  188.3670  177.8810  144.3130 N   0  0  0  0  0  2  0  0  0  0  0  0
  187.5920  178.2870  143.1520 C   0  0  1  0  0  3  0  0  0  0  0  0
  188.3120  177.4940  141.6740 S   0  0  0  0  0  0  0  0  0  0  0  0
  189.7600  177.9440  143.9010 C   0  0  2  0  0  3  0  0  0  0  0  0
  189.8860  177.2780  142.5460 C   0  0  0  0  0  2  0  0  0  0  0  0
  190.6470  177.2250  144.9080 C   0  0  0  0  0  2  0  0  0  0  0  0
  189.8560  176.7890  146.1330 C   0  0  0  0  0  2  0  0  0  0  0  0
  190.7000  176.9370  147.3860 C   0  0  0  0  0  2  0  0  0  0  0  0
  192.0510  176.8030  147.0670 O   0  0  0  0  0  0  0  0  0  0  0  0
  192.4400  175.6240  147.7010 C   0  0  0  0  0  1  0  0  0  0  0  0
  183.8640  177.4980  141.5420 O   0  0  0  0  0  0  0  0  0  0  0  0
  184.4650  178.5590  141.5260 C   0  0  0  0  0  0  0  0  0  0  0  0
  184.5070  179.3780  140.2650 C   0  0  0  0  0  2  0  0  0  0  0  0
  186.1450  178.4740  138.7390 N   0  0  0  0  0  0  0  0  0  0  0  0
  184.8810  178.5780  139.0550 C   0  0  0  0  0  0  0  0  0  0  0  0
  186.7630  177.8440  137.6060 C   0  0  0  0  0  0  0  0  0  0  0  0
  187.3270  178.7000  136.5290 C   0  0  0  0  0  1  0  0  0  0  0  0
  186.8420  176.5910  137.4950 O   0  0  0  0  0  0  0  0  0  0  0  0
  183.6860  176.6950  138.2150 O   0  0  0  0  0  1  0  0  0  0  0  0
  183.7440  178.0900  138.1950 C   0  0  1  0  0  3  0  0  0  0  0  0
  182.3860  178.7130  138.5340 C   0  0  0  0  0  3  0  0  0  0  0  0
  181.4700  177.6530  139.1410 C   0  0  0  0  0  2  0  0  0  0  0  0
  180.2830  177.5700  138.4130 O   0  0  0  0  0  1  0  0  0  0  0  0
  181.3510  180.6170  137.5100 O   0  0  0  0  0  1  0  0  0  0  0  0
  181.7340  179.2940  137.2840 C   0  0  0  0  0  2  0  0  0  0  0  0
  1  5  1  1  0  0  0
  2 18  1  6  0  0  0
  2  1  1  0  0  0  0
  2  3  1  0  0  0  0
  3  4  1  0  0  0  0
  3  6  1  0  0  0  0
  5  6  1  0  0  0  0
  8  9  1  6  0  0  0
  8  1  1  0  0  0  0
  8  7  1  0  0  0  0
  9 11  1  0  0  0  0
 10  7  1  0  0  0  0
 10 12  1  1  0  0  0
 11 10  1  0  0  0  0
 12 13  1  0  0  0  0
 13 14  1  0  0  0  0
 15 14  1  0  0  0  0
 15 16  1  0  0  0  0
 18 17  2  0  0  0  0
 19 18  1  0  0  0  0
 20 21  2  0  0  0  0
 21 19  1  0  0  0  0
 22 20  1  0  0  0  0
 23 22  1  0  0  0  0
 24 22  2  0  0  0  0
 26 25  1  1  0  0  0
 26 27  1  0  0  0  0
 26 21  1  0  0  0  0
 27 28  1  0  0  0  0
 29 28  1  0  0  0  0
 31 30  1  0  0  0  0
 31 27  1  0  0  0  0
M  END
>  <MODEL>
7

>  <REMARK>
 VINA RESULT:      -5.6      3.363      5.822
  Name = 
  13 active torsions:
  status: ('A' for Active; 'I' for Inactive)
    1  A    between atoms: C_1  and  O_11
    2  A    between atoms: C_1  and  C_15
    3  A    between atoms: C_2  and  N_13
    4  A    between atoms: C_4  and  C_14
    5  A    between atoms: C_5  and  C_15
    6  A    between atoms: C_5  and  C_20
    7  A    between atoms: C_6  and  C_30
    8  A    between atoms: C_7  and  C_17
    9  A    between atoms: C_17  and  C_31
   10  A    between atoms: C_19  and  C_22
   11  A    between atoms: C_19  and  C_31
   12  A    between atoms: C_22  and  C_30
   13  A    between atoms: C_29  and  C_30
                            x       y       z     vdW  Elec       q    Type
                         _______ _______ _______ _____ _____    ______ ____

>  <TORSDO>
F 13

$$$$
=
 OpenBabel11062414303D

 31 32  0  0  1  0  0  0  0  0999 V2000
  186.6070  177.9070  142.6030 C   0  0  2  0  0  3  0  0  0  0  0  0
  185.6500  179.0700  142.3770 C   0  0  2  0  0  3  0  0  0  0  0  0
  184.9630  179.4120  143.6370 N   0  0  0  0  0  0  0  0  0  0  0  0
  183.6310  178.8240  143.7370 C   0  0  0  0  0  1  0  0  0  0  0  0
  186.4440  177.5720  144.0700 C   0  0  0  0  0  2  0  0  0  0  0  0
  185.7610  178.7830  144.6780 C   0  0  0  0  0  2  0  0  0  0  0  0
  188.9180  177.8410  143.3990 N   0  0  0  0  0  2  0  0  0  0  0  0
  188.0530  178.3390  142.3420 C   0  0  1  0  0  3  0  0  0  0  0  0
  188.6840  177.7230  140.7440 S   0  0  0  0  0  0  0  0  0  0  0  0
  190.2760  177.9880  142.9000 C   0  0  2  0  0  3  0  0  0  0  0  0
  190.3200  177.4670  141.4780 C   0  0  0  0  0  2  0  0  0  0  0  0
  191.2500  177.1990  143.7640 C   0  0  0  0  0  2  0  0  0  0  0  0
  190.6090  176.7750  145.0780 C   0  0  0  0  0  2  0  0  0  0  0  0
  191.6780  176.4260  146.0970 C   0  0  0  0  0  2  0  0  0  0  0  0
  191.1780  176.5970  147.3880 O   0  0  0  0  0  0  0  0  0  0  0  0
  189.8550  176.9950  147.1950 C   0  0  0  0  0  1  0  0  0  0  0  0
  184.8570  179.7470  140.2640 O   0  0  0  0  0  0  0  0  0  0  0  0
  184.7740  178.9170  141.1550 C   0  0  0  0  0  0  0  0  0  0  0  0
  183.7670  177.8040  141.0510 C   0  0  0  0  0  2  0  0  0  0  0  0
  181.5750  178.8150  140.9970 N   0  0  0  0  0  0  0  0  0  0  0  0
  182.5180  178.2050  140.3280 C   0  0  0  0  0  0  0  0  0  0  0  0
  180.2680  179.2310  140.5750 C   0  0  0  0  0  0  0  0  0  0  0  0
  179.1280  178.2910  140.7380 C   0  0  0  0  0  1  0  0  0  0  0  0
  180.0550  180.3670  140.0710 O   0  0  0  0  0  0  0  0  0  0  0  0
  182.4190  178.7970  138.0210 O   0  0  0  0  0  1  0  0  0  0  0  0
  182.3790  177.7200  138.9090 C   0  0  1  0  0  3  0  0  0  0  0  0
  183.3830  176.6310  138.5150 C   0  0  0  0  0  3  0  0  0  0  0  0
  184.2380  177.1180  137.3480 C   0  0  0  0  0  2  0  0  0  0  0  0
  185.4930  177.5190  137.8070 O   0  0  0  0  0  1  0  0  0  0  0  0
  181.3460  175.3710  138.5900 O   0  0  0  0  0  1  0  0  0  0  0  0
  182.6570  175.3500  138.1150 C   0  0  0  0  0  2  0  0  0  0  0  0
  1  5  1  1  0  0  0
  2 18  1  6  0  0  0
  2  1  1  0  0  0  0
  2  3  1  0  0  0  0
  3  4  1  0  0  0  0
  3  6  1  0  0  0  0
  5  6  1  0  0  0  0
  8  9  1  6  0  0  0
  8  1  1  0  0  0  0
  8  7  1  0  0  0  0
  9 11  1  0  0  0  0
 10  7  1  0  0  0  0
 10 12  1  1  0  0  0
 11 10  1  0  0  0  0
 12 13  1  0  0  0  0
 13 14  1  0  0  0  0
 14 15  1  0  0  0  0
 16 15  1  0  0  0  0
 17 18  2  0  0  0  0
 19 18  1  0  0  0  0
 21 20  2  0  0  0  0
 21 19  1  0  0  0  0
 22 23  1  0  0  0  0
 22 20  1  0  0  0  0
 24 22  2  0  0  0  0
 26 25  1  6  0  0  0
 26 21  1  0  0  0  0
 27 26  1  0  0  0  0
 28 29  1  0  0  0  0
 28 27  1  0  0  0  0
 31 27  1  0  0  0  0
 31 30  1  0  0  0  0
M  END
>  <MODEL>
8

>  <REMARK>
 VINA RESULT:      -5.5      3.723      5.848
  Name = 
  13 active torsions:
  status: ('A' for Active; 'I' for Inactive)
    1  A    between atoms: C_1  and  O_11
    2  A    between atoms: C_1  and  C_15
    3  A    between atoms: C_2  and  N_13
    4  A    between atoms: C_4  and  C_14
    5  A    between atoms: C_5  and  C_15
    6  A    between atoms: C_5  and  C_20
    7  A    between atoms: C_6  and  C_30
    8  A    between atoms: C_7  and  C_17
    9  A    between atoms: C_17  and  C_31
   10  A    between atoms: C_19  and  C_22
   11  A    between atoms: C_19  and  C_31
   12  A    between atoms: C_22  and  C_30
   13  A    between atoms: C_29  and  C_30
                            x       y       z     vdW  Elec       q    Type
                         _______ _______ _______ _____ _____    ______ ____

>  <TORSDO>
F 13

$$$$
=
 OpenBabel11062414303D

 31 32  0  0  1  0  0  0  0  0999 V2000
  186.7680  177.7450  143.9960 C   0  0  2  0  0  3  0  0  0  0  0  0
  185.8990  178.9100  144.4520 C   0  0  2  0  0  3  0  0  0  0  0  0
  185.7920  178.9150  145.9240 N   0  0  0  0  0  0  0  0  0  0  0  0
  184.5630  178.2960  146.4070 C   0  0  0  0  0  1  0  0  0  0  0  0
  187.1660  177.0530  145.2810 C   0  0  0  0  0  2  0  0  0  0  0  0
  186.8790  178.0610  146.3780 C   0  0  0  0  0  2  0  0  0  0  0  0
  189.1530  178.2430  144.2060 N   0  0  0  0  0  2  0  0  0  0  0  0
  188.0260  178.2550  143.2870 C   0  0  1  0  0  3  0  0  0  0  0  0
  188.4600  177.2450  141.8310 S   0  0  0  0  0  0  0  0  0  0  0  0
  190.3390  178.3970  143.3780 C   0  0  2  0  0  3  0  0  0  0  0  0
  190.2220  177.4560  142.1970 C   0  0  0  0  0  2  0  0  0  0  0  0
  191.5920  178.0630  144.1760 C   0  0  0  0  0  2  0  0  0  0  0  0
  191.5720  176.6210  144.6640 C   0  0  0  0  0  2  0  0  0  0  0  0
  191.5970  176.5770  146.1800 C   0  0  0  0  0  2  0  0  0  0  0  0
  192.4150  175.5340  146.6120 O   0  0  0  0  0  0  0  0  0  0  0  0
  192.4450  175.6710  148.0000 C   0  0  0  0  0  1  0  0  0  0  0  0
  183.9700  180.0870  143.7840 O   0  0  0  0  0  0  0  0  0  0  0  0
  184.6050  179.0490  143.6850 C   0  0  0  0  0  0  0  0  0  0  0  0
  184.0610  177.9150  142.8590 C   0  0  0  0  0  2  0  0  0  0  0  0
  184.7240  178.7600  140.6970 N   0  0  0  0  0  0  0  0  0  0  0  0
  183.7540  178.3090  141.4470 C   0  0  0  0  0  0  0  0  0  0  0  0
  184.6910  179.2730  139.3560 C   0  0  0  0  0  0  0  0  0  0  0  0
  185.2700  178.4530  138.2590 C   0  0  0  0  0  1  0  0  0  0  0  0
  184.1880  180.3950  139.0790 O   0  0  0  0  0  0  0  0  0  0  0  0
  181.7710  179.5980  141.1540 O   0  0  0  0  0  1  0  0  0  0  0  0
  182.3000  178.3100  141.0510 C   0  0  1  0  0  3  0  0  0  0  0  0
  182.0230  177.6970  139.6740 C   0  0  0  0  0  3  0  0  0  0  0  0
  180.6620  178.1680  139.1660 C   0  0  0  0  0  2  0  0  0  0  0  0
  180.7770  178.6550  137.8640 O   0  0  0  0  0  1  0  0  0  0  0  0
  183.0480  175.6620  138.9340 O   0  0  0  0  0  1  0  0  0  0  0  0
  182.0390  176.1740  139.7500 C   0  0  0  0  0  2  0  0  0  0  0  0
  1  2  1  0  0  0  0
  1  5  1  1  0  0  0
  2 18  1  6  0  0  0
  2  3  1  0  0  0  0
  3  6  1  0  0  0  0
  3  4  1  0  0  0  0
  5  6  1  0  0  0  0
  8  9  1  6  0  0  0
  8  1  1  0  0  0  0
  8  7  1  0  0  0  0
  9 11  1  0  0  0  0
 10 12  1  1  0  0  0
 10  7  1  0  0  0  0
 11 10  1  0  0  0  0
 12 13  1  0  0  0  0
 13 14  1  0  0  0  0
 14 15  1  0  0  0  0
 15 16  1  0  0  0  0
 18 17  2  0  0  0  0
 19 18  1  0  0  0  0
 20 21  2  0  0  0  0
 21 19  1  0  0  0  0
 22 20  1  0  0  0  0
 23 22  1  0  0  0  0
 24 22  2  0  0  0  0
 26 25  1  6  0  0  0
 26 21  1  0  0  0  0
 27 31  1  0  0  0  0
 27 26  1  0  0  0  0
 28 27  1  0  0  0  0
 29 28  1  0  0  0  0
 30 31  1  0  0  0  0
M  END
>  <MODEL>
9

>  <REMARK>
 VINA RESULT:      -5.4      4.104      6.381
  Name = 
  13 active torsions:
  status: ('A' for Active; 'I' for Inactive)
    1  A    between atoms: C_1  and  O_11
    2  A    between atoms: C_1  and  C_15
    3  A    between atoms: C_2  and  N_13
    4  A    between atoms: C_4  and  C_14
    5  A    between atoms: C_5  and  C_15
    6  A    between atoms: C_5  and  C_20
    7  A    between atoms: C_6  and  C_30
    8  A    between atoms: C_7  and  C_17
    9  A    between atoms: C_17  and  C_31
   10  A    between atoms: C_19  and  C_22
   11  A    between atoms: C_19  and  C_31
   12  A    between atoms: C_22  and  C_30
   13  A    between atoms: C_29  and  C_30
                            x       y       z     vdW  Elec       q    Type
                         _______ _______ _______ _____ _____    ______ ____

>  <TORSDO>
F 13

$$$$
