=
 OpenBabel11062415043D

 31 34  0  0  1  0  0  0  0  0999 V2000
  187.0410  178.1520  141.8320 C   0  0  0  0  0  3  0  0  0  0  0  0
  186.0940  177.8590  145.4940 C   0  0  0  0  0  0  0  0  0  0  0  0
  184.0820  178.6590  144.1930 C   0  0  0  0  0  3  0  0  0  0  0  0
  188.1460  177.6160  142.3550 C   0  0  0  0  0  0  0  0  0  0  0  0
  186.7650  177.8230  144.1450 C   0  0  0  0  0  0  0  0  0  0  0  0
  184.8500  178.6920  142.9280 C   0  0  0  0  0  3  0  0  0  0  0  0
  187.9760  177.4070  143.8100 C   0  0  0  0  0  0  0  0  0  0  0  0
  184.6390  178.2650  145.3540 C   0  0  0  0  0  3  0  0  0  0  0  0
  186.1180  178.2950  142.9470 C   0  0  2  0  0  3  0  0  0  0  0  0
  186.7600  178.8190  146.3600 N   0  0  0  0  0  2  0  0  0  0  0  0
  188.1170  177.9380  148.4560 S   0  0  0  0  0  0  0  0  0  0  0  0
  186.8070  178.6280  147.7700 C   0  0  0  0  0  3  0  0  0  0  0  0
  188.9070  176.8410  144.7410 N   0  0  0  0  0  2  0  0  0  0  0  0
  190.8250  176.8030  146.3090 C   0  0  0  0  0  2  0  0  0  0  0  0
  190.4050  178.7580  144.9270 O   0  0  0  0  0  1  0  0  0  0  0  0
  190.2170  177.3840  145.0590 C   0  0  0  0  0  0  0  0  0  0  0  0
  191.4140  176.4750  144.9380 C   0  0  0  0  0  2  0  0  0  0  0  0
  189.5780  177.2100  141.3590 S   0  0  0  0  0  0  0  0  0  0  0  0
  189.1450  178.3310  140.1270 O   0  0  0  0  0  0  0  0  0  0  0  0
  190.5960  176.4320  136.6700 C   0  0  0  0  0  3  0  0  0  0  0  0
  189.5740  177.2960  136.5530 C   0  0  0  0  0  3  0  0  0  0  0  0
  190.3630  176.4900  139.1790 C   0  0  0  0  0  2  0  0  0  0  0  0
  189.8240  177.9050  138.9790 C   0  0  1  0  0  3  0  0  0  0  0  0
  191.5810  174.7690  138.0510 O   0  0  0  0  0  1  0  0  0  0  0  0
  191.2470  176.1220  137.9930 C   0  0  1  0  0  3  0  0  0  0  0  0
  188.9100  177.9620  137.7400 C   0  0  1  0  0  0  0  0  0  0  0  0
  188.6680  179.3000  137.4240 O   0  0  0  0  0  1  0  0  0  0  0  0
  187.5770  177.2560  138.0410 C   0  0  0  0  0  2  0  0  0  0  0  0
  185.6900  178.8700  138.3160 O   0  0  0  0  0  1  0  0  0  0  0  0
  186.0340  177.8210  136.3070 O   0  0  0  0  0  0  0  0  0  0  0  0
  186.3880  177.9880  137.5030 C   0  0  0  0  0  0  0  0  0  0  0  0
  1  4  2  0  0  0  0
  2 10  1  0  0  0  0
  3  8  1  0  0  0  0
  4  7  1  0  0  0  0
  5  2  1  0  0  0  0
  6  9  1  0  0  0  0
  6  3  2  0  0  0  0
  7  5  2  0  0  0  0
  7 13  1  0  0  0  0
  8  2  2  0  0  0  0
  9  1  1  6  0  0  0
  9  5  1  0  0  0  0
 10 12  1  0  0  0  0
 12 11  2  0  0  0  0
 13 16  1  0  0  0  0
 15 16  1  0  0  0  0
 16 14  1  0  0  0  0
 17 16  1  0  0  0  0
 17 14  1  0  0  0  0
 18  4  1  0  0  0  0
 19 18  1  0  0  0  0
 20 25  1  0  0  0  0
 21 20  2  0  0  0  0
 21 26  1  0  0  0  0
 23 22  1  0  0  0  0
 23 19  1  1  0  0  0
 25 24  1  6  0  0  0
 25 22  1  0  0  0  0
 26 27  1  6  0  0  0
 26 28  1  0  0  0  0
 26 23  1  0  0  0  0
 30 31  2  0  0  0  0
 31 28  1  0  0  0  0
 31 29  1  0  0  0  0
M  END
>  <MODEL>
1

>  <REMARK>
 VINA RESULT:      -8.1      0.000      0.000
  Name = 
  9 active torsions:
  status: ('A' for Active; 'I' for Inactive)
    1  A    between atoms: C_3  and  N_17
    2  A    between atoms: C_9  and  N_19
    3  A    between atoms: C_12  and  S_21
    4  A    between atoms: O_15  and  C_18
    5  A    between atoms: O_15  and  S_21
    6  A    between atoms: C_16  and  N_19
    7  A    between atoms: N_17  and  C_23
    8  A    between atoms: C_25  and  C_31
    9  A    between atoms: C_30  and  C_31
                            x       y       z     vdW  Elec       q    Type
                         _______ _______ _______ _____ _____    ______ ____

>  <TORSDO>
F 9

$$$$
=
 OpenBabel11062415043D

 31 34  0  0  1  0  0  0  0  0999 V2000
  185.1790  179.1450  142.6630 C   0  0  0  0  0  3  0  0  0  0  0  0
  186.8740  177.3530  145.5460 C   0  0  0  0  0  0  0  0  0  0  0  0
  184.8330  178.5580  146.4210 C   0  0  0  0  0  3  0  0  0  0  0  0
  186.1460  178.4740  142.0340 C   0  0  0  0  0  0  0  0  0  0  0  0
  186.4340  177.8920  144.2090 C   0  0  0  0  0  0  0  0  0  0  0  0
  184.5350  179.1270  145.0870 C   0  0  0  0  0  3  0  0  0  0  0  0
  186.9370  177.6830  143.0030 C   0  0  0  0  0  0  0  0  0  0  0  0
  185.8820  177.7400  146.6280 C   0  0  0  0  0  3  0  0  0  0  0  0
  185.3190  178.7940  144.0670 C   0  0  2  0  0  3  0  0  0  0  0  0
  188.1770  177.8950  145.9000 N   0  0  0  0  0  2  0  0  0  0  0  0
  190.4940  176.9160  146.7270 S   0  0  0  0  0  0  0  0  0  0  0  0
  188.9370  177.3410  146.9690 C   0  0  0  0  0  3  0  0  0  0  0  0
  188.0460  176.8130  142.7440 N   0  0  0  0  0  2  0  0  0  0  0  0
  190.4300  176.1520  142.8810 C   0  0  0  0  0  2  0  0  0  0  0  0
  189.7900  178.4920  143.0500 O   0  0  0  0  0  1  0  0  0  0  0  0
  189.4260  177.2330  142.5750 C   0  0  0  0  0  0  0  0  0  0  0  0
  190.2210  176.6300  141.4450 C   0  0  0  0  0  2  0  0  0  0  0  0
  186.3670  178.5510  140.2580 S   0  0  0  0  0  0  0  0  0  0  0  0
  184.9780  179.5430  140.0430 O   0  0  0  0  0  0  0  0  0  0  0  0
  183.0050  177.4750  136.9620 C   0  0  0  0  0  3  0  0  0  0  0  0
  182.2690  178.1330  137.8730 C   0  0  0  0  0  3  0  0  0  0  0  0
  185.0680  177.8240  138.3680 C   0  0  0  0  0  2  0  0  0  0  0  0
  184.3730  179.0890  138.8650 C   0  0  1  0  0  3  0  0  0  0  0  0
  184.9770  176.1970  136.6180 O   0  0  0  0  0  1  0  0  0  0  0  0
  184.5120  177.4550  136.9970 C   0  0  1  0  0  3  0  0  0  0  0  0
  182.8680  178.8290  139.0770 C   0  0  1  0  0  0  0  0  0  0  0  0
  182.2230  180.0550  139.2520 O   0  0  0  0  0  1  0  0  0  0  0  0
  182.6610  177.9570  140.3270 C   0  0  0  0  0  2  0  0  0  0  0  0
  180.2020  178.0750  140.7540 O   0  0  0  0  0  0  0  0  0  0  0  0
  181.6820  179.0100  142.2350 O   0  0  0  0  0  1  0  0  0  0  0  0
  181.4940  178.3860  141.1580 C   0  0  0  0  0  0  0  0  0  0  0  0
  2 10  1  0  0  0  0
  2  8  2  0  0  0  0
  3  8  1  0  0  0  0
  4  1  2  0  0  0  0
  4  7  1  0  0  0  0
  5  2  1  0  0  0  0
  6  3  2  0  0  0  0
  7  5  2  0  0  0  0
  9  1  1  6  0  0  0
  9  5  1  0  0  0  0
  9  6  1  0  0  0  0
 10 12  1  0  0  0  0
 11 12  2  0  0  0  0
 13  7  1  0  0  0  0
 16 13  1  0  0  0  0
 16 14  1  0  0  0  0
 16 15  1  0  0  0  0
 17 16  1  0  0  0  0
 17 14  1  0  0  0  0
 18  4  1  0  0  0  0
 19 18  1  0  0  0  0
 20 25  1  0  0  0  0
 20 21  2  0  0  0  0
 21 26  1  0  0  0  0
 22 23  1  0  0  0  0
 23 26  1  0  0  0  0
 23 19  1  1  0  0  0
 25 24  1  1  0  0  0
 25 22  1  0  0  0  0
 26 27  1  1  0  0  0
 26 28  1  0  0  0  0
 28 31  1  0  0  0  0
 29 31  2  0  0  0  0
 31 30  1  0  0  0  0
M  END
>  <MODEL>
2

>  <REMARK>
 VINA RESULT:      -7.5      2.763      4.537
  Name = 
  9 active torsions:
  status: ('A' for Active; 'I' for Inactive)
    1  A    between atoms: C_3  and  N_17
    2  A    between atoms: C_9  and  N_19
    3  A    between atoms: C_12  and  S_21
    4  A    between atoms: O_15  and  C_18
    5  A    between atoms: O_15  and  S_21
    6  A    between atoms: C_16  and  N_19
    7  A    between atoms: N_17  and  C_23
    8  A    between atoms: C_25  and  C_31
    9  A    between atoms: C_30  and  C_31
                            x       y       z     vdW  Elec       q    Type
                         _______ _______ _______ _____ _____    ______ ____

>  <TORSDO>
F 9

$$$$
=
 OpenBabel11062415043D

 31 34  0  0  1  0  0  0  0  0999 V2000
  190.6090  176.3540  143.1180 C   0  0  0  0  0  3  0  0  0  0  0  0
  189.9610  177.1700  146.7660 C   0  0  0  0  0  0  0  0  0  0  0  0
  192.1650  175.9490  146.5820 C   0  0  0  0  0  3  0  0  0  0  0  0
  189.4950  177.0860  143.0380 C   0  0  0  0  0  0  0  0  0  0  0  0
  189.9370  177.0440  145.2640 C   0  0  0  0  0  0  0  0  0  0  0  0
  192.0070  175.7810  145.1200 C   0  0  0  0  0  3  0  0  0  0  0  0
  189.0700  177.5230  144.3870 C   0  0  0  0  0  0  0  0  0  0  0  0
  191.2470  176.5930  147.3280 C   0  0  0  0  0  3  0  0  0  0  0  0
  190.9370  176.3070  144.5340 C   0  0  2  0  0  3  0  0  0  0  0  0
  188.8390  176.4490  147.3480 N   0  0  0  0  0  2  0  0  0  0  0  0
  187.8490  178.6690  148.3950 S   0  0  0  0  0  0  0  0  0  0  0  0
  188.0180  177.0470  148.3440 C   0  0  0  0  0  3  0  0  0  0  0  0
  187.9460  178.3360  144.7430 N   0  0  0  0  0  2  0  0  0  0  0  0
  185.6110  178.9330  145.3170 C   0  0  0  0  0  2  0  0  0  0  0  0
  186.3180  176.6070  145.3070 O   0  0  0  0  0  1  0  0  0  0  0  0
  186.5660  177.8850  144.8090 C   0  0  0  0  0  0  0  0  0  0  0  0
  185.5710  178.4940  143.8540 C   0  0  0  0  0  2  0  0  0  0  0  0
  188.7080  177.4650  141.4750 S   0  0  0  0  0  0  0  0  0  0  0  0
  189.8940  176.6050  140.5720 O   0  0  0  0  0  0  0  0  0  0  0  0
  189.6360  177.7290  136.5300 C   0  0  0  0  0  3  0  0  0  0  0  0
  190.4170  176.6880  136.8630 C   0  0  0  0  0  3  0  0  0  0  0  0
  189.3680  178.3140  138.9670 C   0  0  0  0  0  2  0  0  0  0  0  0
  189.5700  176.8230  139.2270 C   0  0  1  0  0  3  0  0  0  0  0  0
  188.8460  179.8600  137.2200 O   0  0  0  0  0  1  0  0  0  0  0  0
  188.8420  178.5060  137.5500 C   0  0  1  0  0  3  0  0  0  0  0  0
  190.6600  176.2580  138.2950 C   0  0  1  0  0  0  0  0  0  0  0  0
  190.6210  174.8640  138.3550 O   0  0  0  0  0  1  0  0  0  0  0  0
  192.0440  176.7530  138.7490 C   0  0  0  0  0  2  0  0  0  0  0  0
  193.9010  177.0380  137.1020 O   0  0  0  0  0  0  0  0  0  0  0  0
  193.4590  174.9780  138.0050 O   0  0  0  0  0  1  0  0  0  0  0  0
  193.1660  176.2000  137.9290 C   0  0  0  0  0  0  0  0  0  0  0  0
  2  8  2  0  0  0  0
  2 10  1  0  0  0  0
  3  8  1  0  0  0  0
  4  1  2  0  0  0  0
  4  7  1  0  0  0  0
  5  2  1  0  0  0  0
  6  3  2  0  0  0  0
  7 13  1  0  0  0  0
  7  5  2  0  0  0  0
  9  1  1  6  0  0  0
  9  6  1  0  0  0  0
  9  5  1  0  0  0  0
 10 12  1  0  0  0  0
 12 11  2  0  0  0  0
 13 16  1  0  0  0  0
 16 15  1  0  0  0  0
 16 14  1  0  0  0  0
 17 16  1  0  0  0  0
 17 14  1  0  0  0  0
 18  4  1  0  0  0  0
 19 18  1  0  0  0  0
 20 21  2  0  0  0  0
 20 25  1  0  0  0  0
 21 26  1  0  0  0  0
 22 23  1  0  0  0  0
 23 19  1  1  0  0  0
 25 24  1  6  0  0  0
 25 22  1  0  0  0  0
 26 27  1  1  0  0  0
 26 28  1  0  0  0  0
 26 23  1  0  0  0  0
 29 31  2  0  0  0  0
 31 30  1  0  0  0  0
 31 28  1  0  0  0  0
M  END
>  <MODEL>
3

>  <REMARK>
 VINA RESULT:      -7.2      1.764      4.747
  Name = 
  9 active torsions:
  status: ('A' for Active; 'I' for Inactive)
    1  A    between atoms: C_3  and  N_17
    2  A    between atoms: C_9  and  N_19
    3  A    between atoms: C_12  and  S_21
    4  A    between atoms: O_15  and  C_18
    5  A    between atoms: O_15  and  S_21
    6  A    between atoms: C_16  and  N_19
    7  A    between atoms: N_17  and  C_23
    8  A    between atoms: C_25  and  C_31
    9  A    between atoms: C_30  and  C_31
                            x       y       z     vdW  Elec       q    Type
                         _______ _______ _______ _____ _____    ______ ____

>  <TORSDO>
F 9

$$$$
=
 OpenBabel11062415043D

 31 34  0  0  1  0  0  0  0  0999 V2000
  184.7310  179.1610  143.1100 C   0  0  0  0  0  3  0  0  0  0  0  0
  187.3200  177.4170  145.2670 C   0  0  0  0  0  0  0  0  0  0  0  0
  185.4790  178.2990  146.7550 C   0  0  0  0  0  3  0  0  0  0  0  0
  185.5560  178.6570  142.1900 C   0  0  0  0  0  0  0  0  0  0  0  0
  186.4810  177.9790  144.1490 C   0  0  0  0  0  0  0  0  0  0  0  0
  184.7730  178.9100  145.6060 C   0  0  0  0  0  3  0  0  0  0  0  0
  186.6570  177.9120  142.8390 C   0  0  0  0  0  0  0  0  0  0  0  0
  186.6240  177.6080  146.6030 C   0  0  0  0  0  3  0  0  0  0  0  0
  185.2810  178.7420  144.3900 C   0  0  2  0  0  3  0  0  0  0  0  0
  188.6070  178.0930  145.3180 N   0  0  0  0  0  2  0  0  0  0  0  0
  191.0230  177.0170  145.4400 S   0  0  0  0  0  0  0  0  0  0  0  0
  189.6650  177.6000  146.1320 C   0  0  0  0  0  3  0  0  0  0  0  0
  187.7380  177.2050  142.2190 N   0  0  0  0  0  2  0  0  0  0  0  0
  189.6340  176.9200  140.6490 C   0  0  0  0  0  2  0  0  0  0  0  0
  189.7620  178.5490  142.4490 O   0  0  0  0  0  1  0  0  0  0  0  0
  188.9130  177.8170  141.6210 C   0  0  0  0  0  0  0  0  0  0  0  0
  188.8740  178.1490  140.1510 C   0  0  0  0  0  2  0  0  0  0  0  0
  185.2780  178.8730  140.4340 S   0  0  0  0  0  0  0  0  0  0  0  0
  183.7240  179.5700  140.6790 O   0  0  0  0  0  0  0  0  0  0  0  0
  180.9580  176.9860  138.8520 C   0  0  0  0  0  3  0  0  0  0  0  0
  180.4980  178.0530  139.5280 C   0  0  0  0  0  3  0  0  0  0  0  0
  183.2680  177.3920  139.7760 C   0  0  0  0  0  2  0  0  0  0  0  0
  182.8590  178.8610  139.8360 C   0  0  1  0  0  3  0  0  0  0  0  0
  182.6370  175.3080  138.7880 O   0  0  0  0  0  1  0  0  0  0  0  0
  182.4290  176.6840  138.7180 C   0  0  1  0  0  3  0  0  0  0  0  0
  181.3960  178.9940  140.3040 C   0  0  1  0  0  0  0  0  0  0  0  0
  180.9710  180.3040  140.0790 O   0  0  0  0  0  1  0  0  0  0  0  0
  181.2970  178.6720  141.8050 C   0  0  0  0  0  2  0  0  0  0  0  0
  178.9580  178.5660  142.6770 O   0  0  0  0  0  0  0  0  0  0  0  0
  180.1730  180.5020  142.8510 O   0  0  0  0  0  1  0  0  0  0  0  0
  180.1140  179.3050  142.4660 C   0  0  0  0  0  0  0  0  0  0  0  0
  2 10  1  0  0  0  0
  2  8  2  0  0  0  0
  4  7  1  0  0  0  0
  4  1  2  0  0  0  0
  5  9  1  0  0  0  0
  5  2  1  0  0  0  0
  6  3  2  0  0  0  0
  7  5  2  0  0  0  0
  8  3  1  0  0  0  0
  9  1  1  6  0  0  0
  9  6  1  0  0  0  0
 10 12  1  0  0  0  0
 11 12  2  0  0  0  0
 13  7  1  0  0  0  0
 14 16  1  0  0  0  0
 16 13  1  0  0  0  0
 16 15  1  0  0  0  0
 17 14  1  0  0  0  0
 17 16  1  0  0  0  0
 18 19  1  0  0  0  0
 18  4  1  0  0  0  0
 20 21  2  0  0  0  0
 21 26  1  0  0  0  0
 22 23  1  0  0  0  0
 23 26  1  0  0  0  0
 23 19  1  1  0  0  0
 25 24  1  1  0  0  0
 25 20  1  0  0  0  0
 25 22  1  0  0  0  0
 26 27  1  6  0  0  0
 26 28  1  0  0  0  0
 28 31  1  0  0  0  0
 31 29  2  0  0  0  0
 31 30  1  0  0  0  0
M  END
>  <MODEL>
4

>  <REMARK>
 VINA RESULT:      -7.2      3.647      5.903
  Name = 
  9 active torsions:
  status: ('A' for Active; 'I' for Inactive)
    1  A    between atoms: C_3  and  N_17
    2  A    between atoms: C_9  and  N_19
    3  A    between atoms: C_12  and  S_21
    4  A    between atoms: O_15  and  C_18
    5  A    between atoms: O_15  and  S_21
    6  A    between atoms: C_16  and  N_19
    7  A    between atoms: N_17  and  C_23
    8  A    between atoms: C_25  and  C_31
    9  A    between atoms: C_30  and  C_31
                            x       y       z     vdW  Elec       q    Type
                         _______ _______ _______ _____ _____    ______ ____

>  <TORSDO>
F 9

$$$$
=
 OpenBabel11062415043D

 31 34  0  0  1  0  0  0  0  0999 V2000
  187.0390  178.7690  141.2800 C   0  0  0  0  0  3  0  0  0  0  0  0
  187.6240  177.1010  144.6370 C   0  0  0  0  0  0  0  0  0  0  0  0
  185.3360  178.1730  144.6460 C   0  0  0  0  0  3  0  0  0  0  0  0
  188.2100  178.1600  141.0800 C   0  0  0  0  0  0  0  0  0  0  0  0
  187.6900  177.6050  143.2190 C   0  0  0  0  0  0  0  0  0  0  0  0
  185.5300  178.7170  143.2830 C   0  0  0  0  0  3  0  0  0  0  0  0
  188.6220  177.4260  142.2970 C   0  0  0  0  0  0  0  0  0  0  0  0
  186.2760  177.4260  145.2550 C   0  0  0  0  0  3  0  0  0  0  0  0
  186.6590  178.4320  142.6430 C   0  0  2  0  0  3  0  0  0  0  0  0
  188.6630  177.7280  145.4410 N   0  0  0  0  0  2  0  0  0  0  0  0
  188.8620  177.8810  148.0760 S   0  0  0  0  0  0  0  0  0  0  0  0
  189.1160  177.1300  146.6510 C   0  0  0  0  0  3  0  0  0  0  0  0
  189.7960  176.6300  142.4990 N   0  0  0  0  0  2  0  0  0  0  0  0
  191.9930  177.7280  142.1730 C   0  0  0  0  0  2  0  0  0  0  0  0
  191.6290  176.2410  144.0620 O   0  0  0  0  0  1  0  0  0  0  0  0
  191.0250  177.0820  143.1290 C   0  0  0  0  0  0  0  0  0  0  0  0
  191.2710  178.5660  143.2270 C   0  0  0  0  0  2  0  0  0  0  0  0
  189.0800  178.2460  139.5160 S   0  0  0  0  0  0  0  0  0  0  0  0
  189.4790  176.5720  139.5500 O   0  0  0  0  0  0  0  0  0  0  0  0
  188.4150  175.6540  135.5890 C   0  0  0  0  0  3  0  0  0  0  0  0
  189.6130  175.2540  136.0460 C   0  0  0  0  0  3  0  0  0  0  0  0
  188.0970  177.0710  137.6500 C   0  0  0  0  0  2  0  0  0  0  0  0
  188.9880  176.0470  138.3490 C   0  0  1  0  0  3  0  0  0  0  0  0
  186.7830  177.3780  135.6760 O   0  0  0  0  0  1  0  0  0  0  0  0
  187.4340  176.4140  136.4450 C   0  0  1  0  0  3  0  0  0  0  0  0
  190.1390  175.6120  137.4210 C   0  0  1  0  0  0  0  0  0  0  0  0
  190.7570  174.4870  137.9700 O   0  0  0  0  0  1  0  0  0  0  0  0
  191.1650  176.7510  137.2940 C   0  0  0  0  0  2  0  0  0  0  0  0
  193.3990  175.7180  136.8630 O   0  0  0  0  0  0  0  0  0  0  0  0
  192.9210  176.6310  138.9100 O   0  0  0  0  0  1  0  0  0  0  0  0
  192.5380  176.3600  137.7420 C   0  0  0  0  0  0  0  0  0  0  0  0
  2  8  2  0  0  0  0
  2 10  1  0  0  0  0
  3  8  1  0  0  0  0
  4  1  2  0  0  0  0
  4  7  1  0  0  0  0
  5  2  1  0  0  0  0
  6  3  2  0  0  0  0
  7 13  1  0  0  0  0
  7  5  2  0  0  0  0
  9  1  1  6  0  0  0
  9  5  1  0  0  0  0
  9  6  1  0  0  0  0
 10 12  1  0  0  0  0
 12 11  2  0  0  0  0
 13 16  1  0  0  0  0
 14 16  1  0  0  0  0
 14 17  1  0  0  0  0
 16 17  1  0  0  0  0
 16 15  1  0  0  0  0
 18 19  1  0  0  0  0
 18  4  1  0  0  0  0
 20 21  2  0  0  0  0
 20 25  1  0  0  0  0
 21 26  1  0  0  0  0
 22 23  1  0  0  0  0
 23 19  1  1  0  0  0
 25 24  1  6  0  0  0
 25 22  1  0  0  0  0
 26 27  1  1  0  0  0
 26 23  1  0  0  0  0
 28 26  1  0  0  0  0
 28 31  1  0  0  0  0
 29 31  2  0  0  0  0
 31 30  1  0  0  0  0
M  END
>  <MODEL>
5

>  <REMARK>
 VINA RESULT:      -6.9      1.716      3.493
  Name = 
  9 active torsions:
  status: ('A' for Active; 'I' for Inactive)
    1  A    between atoms: C_3  and  N_17
    2  A    between atoms: C_9  and  N_19
    3  A    between atoms: C_12  and  S_21
    4  A    between atoms: O_15  and  C_18
    5  A    between atoms: O_15  and  S_21
    6  A    between atoms: C_16  and  N_19
    7  A    between atoms: N_17  and  C_23
    8  A    between atoms: C_25  and  C_31
    9  A    between atoms: C_30  and  C_31
                            x       y       z     vdW  Elec       q    Type
                         _______ _______ _______ _____ _____    ______ ____

>  <TORSDO>
F 9

$$$$
=
 OpenBabel11062415043D

 31 34  0  0  1  0  0  0  0  0999 V2000
  187.1610  178.6660  141.3580 C   0  0  0  0  0  3  0  0  0  0  0  0
  187.5820  177.0560  144.7680 C   0  0  0  0  0  0  0  0  0  0  0  0
  185.3620  178.2610  144.7030 C   0  0  0  0  0  3  0  0  0  0  0  0
  188.2970  177.9840  141.1970 C   0  0  0  0  0  0  0  0  0  0  0  0
  187.7040  177.5180  143.3380 C   0  0  0  0  0  0  0  0  0  0  0  0
  185.6140  178.7560  143.3310 C   0  0  0  0  0  3  0  0  0  0  0  0
  188.6420  177.2590  142.4410 C   0  0  0  0  0  0  0  0  0  0  0  0
  186.2440  177.4760  145.3500 C   0  0  0  0  0  3  0  0  0  0  0  0
  186.7350  178.3880  142.7210 C   0  0  2  0  0  3  0  0  0  0  0  0
  188.6410  177.6410  145.5760 N   0  0  0  0  0  2  0  0  0  0  0  0
  188.8360  177.9820  148.1950 S   0  0  0  0  0  0  0  0  0  0  0  0
  188.9930  177.0870  146.8390 C   0  0  0  0  0  3  0  0  0  0  0  0
  189.7610  176.4000  142.6870 N   0  0  0  0  0  2  0  0  0  0  0  0
  191.9450  177.4970  142.2770 C   0  0  0  0  0  2  0  0  0  0  0  0
  191.6840  175.9240  144.1120 O   0  0  0  0  0  1  0  0  0  0  0  0
  191.0320  176.8130  143.2600 C   0  0  0  0  0  0  0  0  0  0  0  0
  191.2990  178.2890  143.4120 C   0  0  0  0  0  2  0  0  0  0  0  0
  189.1990  177.9760  139.6500 S   0  0  0  0  0  0  0  0  0  0  0  0
  188.0980  176.8750  138.9160 O   0  0  0  0  0  0  0  0  0  0  0  0
  188.6040  176.1230  134.8120 C   0  0  0  0  0  3  0  0  0  0  0  0
  187.5780  176.8960  135.2060 C   0  0  0  0  0  3  0  0  0  0  0  0
  189.0420  175.4750  137.2080 C   0  0  0  0  0  2  0  0  0  0  0  0
  188.4550  176.8390  137.5620 C   0  0  1  0  0  3  0  0  0  0  0  0
  189.9370  174.2380  135.3670 O   0  0  0  0  0  1  0  0  0  0  0  0
  189.5850  175.5210  135.7840 C   0  0  1  0  0  3  0  0  0  0  0  0
  187.2440  177.1530  136.6610 C   0  0  1  0  0  0  0  0  0  0  0  0
  186.9120  178.5010  136.8120 O   0  0  0  0  0  1  0  0  0  0  0  0
  186.0460  176.2800  137.0720 C   0  0  0  0  0  2  0  0  0  0  0  0
  184.0910  177.1100  135.7570 O   0  0  0  0  0  0  0  0  0  0  0  0
  184.2080  177.4790  138.0160 O   0  0  0  0  0  1  0  0  0  0  0  0
  184.7360  176.9970  136.9810 C   0  0  0  0  0  0  0  0  0  0  0  0
  2  8  2  0  0  0  0
  2 10  1  0  0  0  0
  3  8  1  0  0  0  0
  4  1  2  0  0  0  0
  4  7  1  0  0  0  0
  5  2  1  0  0  0  0
  6  3  2  0  0  0  0
  7 13  1  0  0  0  0
  7  5  2  0  0  0  0
  9  1  1  6  0  0  0
  9  6  1  0  0  0  0
  9  5  1  0  0  0  0
 10 12  1  0  0  0  0
 12 11  2  0  0  0  0
 13 16  1  0  0  0  0
 14 16  1  0  0  0  0
 14 17  1  0  0  0  0
 16 17  1  0  0  0  0
 16 15  1  0  0  0  0
 18  4  1  0  0  0  0
 19 18  1  0  0  0  0
 20 21  2  0  0  0  0
 20 25  1  0  0  0  0
 21 26  1  0  0  0  0
 22 23  1  0  0  0  0
 23 19  1  1  0  0  0
 25 24  1  6  0  0  0
 25 22  1  0  0  0  0
 26 27  1  1  0  0  0
 26 28  1  0  0  0  0
 26 23  1  0  0  0  0
 29 31  2  0  0  0  0
 31 28  1  0  0  0  0
 31 30  1  0  0  0  0
M  END
>  <MODEL>
6

>  <REMARK>
 VINA RESULT:      -6.9      1.798      2.275
  Name = 
  9 active torsions:
  status: ('A' for Active; 'I' for Inactive)
    1  A    between atoms: C_3  and  N_17
    2  A    between atoms: C_9  and  N_19
    3  A    between atoms: C_12  and  S_21
    4  A    between atoms: O_15  and  C_18
    5  A    between atoms: O_15  and  S_21
    6  A    between atoms: C_16  and  N_19
    7  A    between atoms: N_17  and  C_23
    8  A    between atoms: C_25  and  C_31
    9  A    between atoms: C_30  and  C_31
                            x       y       z     vdW  Elec       q    Type
                         _______ _______ _______ _____ _____    ______ ____

>  <TORSDO>
F 9

$$$$
=
 OpenBabel11062415043D

 31 34  0  0  1  0  0  0  0  0999 V2000
  183.9530  178.6040  143.3410 C   0  0  0  0  0  3  0  0  0  0  0  0
  180.9180  179.0840  141.1150 C   0  0  2  0  0  3  0  0  0  0  0  0
  180.1440  178.8280  143.5060 C   0  0  0  0  0  3  0  0  0  0  0  0
  184.5210  178.8400  142.1560 C   0  0  0  0  0  0  0  0  0  0  0  0
  182.2990  178.9650  141.7080 C   0  0  0  0  0  0  0  0  0  0  0  0
  181.5290  178.6180  143.9860 C   0  0  0  0  0  3  0  0  0  0  0  0
  183.4830  179.0690  141.1260 C   0  0  0  0  0  0  0  0  0  0  0  0
  179.8660  179.0560  142.2090 C   0  0  0  0  0  3  0  0  0  0  0  0
  182.5200  178.6840  143.1040 C   0  0  0  0  0  0  0  0  0  0  0  0
  180.6660  177.9770  140.2050 N   0  0  0  0  0  2  0  0  0  0  0  0
  180.0750  175.4230  139.8330 S   0  0  0  0  0  0  0  0  0  0  0  0
  179.9110  176.8440  140.6190 C   0  0  0  0  0  3  0  0  0  0  0  0
  183.6630  179.3730  139.7380 N   0  0  0  0  0  2  0  0  0  0  0  0
  183.7720  177.0510  138.8800 C   0  0  0  0  0  2  0  0  0  0  0  0
  185.5900  178.6070  138.4510 O   0  0  0  0  0  1  0  0  0  0  0  0
  184.2330  178.4780  138.7450 C   0  0  0  0  0  0  0  0  0  0  0  0
  183.3180  177.9020  137.6940 C   0  0  0  0  0  2  0  0  0  0  0  0
  186.2980  178.8860  141.9380 S   0  0  0  0  0  0  0  0  0  0  0  0
  186.5410  177.4990  142.9270 O   0  0  0  0  0  0  0  0  0  0  0  0
  189.2000  177.9650  146.1480 C   0  0  0  0  0  3  0  0  0  0  0  0
  189.6970  177.9170  144.9000 C   0  0  0  0  0  3  0  0  0  0  0  0
  186.9450  177.2470  145.2820 C   0  0  0  0  0  2  0  0  0  0  0  0
  187.3580  177.9300  143.9800 C   0  0  1  0  0  3  0  0  0  0  0  0
  187.5190  177.1230  147.5990 O   0  0  0  0  0  1  0  0  0  0  0  0
  187.7240  177.8650  146.4370 C   0  0  1  0  0  3  0  0  0  0  0  0
  188.8440  177.6560  143.6760 C   0  0  1  0  0  0  0  0  0  0  0  0
  189.2570  178.5110  142.6530 O   0  0  0  0  0  1  0  0  0  0  0  0
  189.0250  176.1950  143.2300 C   0  0  0  0  0  2  0  0  0  0  0  0
  191.4000  175.4990  143.5750 O   0  0  0  0  0  1  0  0  0  0  0  0
  190.6350  176.0080  141.4750 O   0  0  0  0  0  0  0  0  0  0  0  0
  190.3960  175.9050  142.7060 C   0  0  0  0  0  0  0  0  0  0  0  0
  2 10  1  6  0  0  0
  2  5  1  0  0  0  0
  2  8  1  0  0  0  0
  3  6  1  0  0  0  0
  4  1  2  0  0  0  0
  5  9  1  0  0  0  0
  7  5  2  0  0  0  0
  7  4  1  0  0  0  0
  8  3  2  0  0  0  0
  9  1  1  0  0  0  0
  9  6  2  0  0  0  0
 10 12  1  0  0  0  0
 11 12  2  0  0  0  0
 13  7  1  0  0  0  0
 15 16  1  0  0  0  0
 16 14  1  0  0  0  0
 16 13  1  0  0  0  0
 17 16  1  0  0  0  0
 17 14  1  0  0  0  0
 18  4  1  0  0  0  0
 18 19  1  0  0  0  0
 20 25  1  0  0  0  0
 21 20  2  0  0  0  0
 22 25  1  0  0  0  0
 23 19  1  6  0  0  0
 23 22  1  0  0  0  0
 25 24  1  1  0  0  0
 26 27  1  6  0  0  0
 26 23  1  0  0  0  0
 26 21  1  0  0  0  0
 28 26  1  0  0  0  0
 30 31  2  0  0  0  0
 31 28  1  0  0  0  0
 31 29  1  0  0  0  0
M  END
>  <MODEL>
7

>  <REMARK>
 VINA RESULT:      -6.8      3.854      7.390
  Name = 
  9 active torsions:
  status: ('A' for Active; 'I' for Inactive)
    1  A    between atoms: C_3  and  N_17
    2  A    between atoms: C_9  and  N_19
    3  A    between atoms: C_12  and  S_21
    4  A    between atoms: O_15  and  C_18
    5  A    between atoms: O_15  and  S_21
    6  A    between atoms: C_16  and  N_19
    7  A    between atoms: N_17  and  C_23
    8  A    between atoms: C_25  and  C_31
    9  A    between atoms: C_30  and  C_31
                            x       y       z     vdW  Elec       q    Type
                         _______ _______ _______ _____ _____    ______ ____

>  <TORSDO>
F 9

$$$$
=
 OpenBabel11062415043D

 31 34  0  0  1  0  0  0  0  0999 V2000
  184.9060  179.3170  143.3590 C   0  0  0  0  0  3  0  0  0  0  0  0
  187.3120  177.2230  145.4140 C   0  0  0  0  0  0  0  0  0  0  0  0
  185.6360  178.3000  146.9680 C   0  0  0  0  0  3  0  0  0  0  0  0
  185.6370  178.7310  142.4080 C   0  0  0  0  0  0  0  0  0  0  0  0
  186.5210  177.9070  144.3290 C   0  0  0  0  0  0  0  0  0  0  0  0
  184.9820  179.0150  145.8490 C   0  0  0  0  0  3  0  0  0  0  0  0
  186.6530  177.8430  143.0140 C   0  0  0  0  0  0  0  0  0  0  0  0
  186.6810  177.4740  146.7720 C   0  0  0  0  0  3  0  0  0  0  0  0
  185.4330  178.8080  144.6160 C   0  0  2  0  0  3  0  0  0  0  0  0
  188.6750  177.7330  145.4380 N   0  0  0  0  0  2  0  0  0  0  0  0
  191.1390  176.9290  145.9760 S   0  0  0  0  0  0  0  0  0  0  0  0
  189.6090  177.2860  146.4150 C   0  0  0  0  0  3  0  0  0  0  0  0
  187.6200  177.0180  142.3520 N   0  0  0  0  0  2  0  0  0  0  0  0
  189.6360  178.4590  142.4000 C   0  0  0  0  0  2  0  0  0  0  0  0
  188.6000  177.8620  140.2820 O   0  0  0  0  0  1  0  0  0  0  0  0
  188.7770  177.5000  141.6170 C   0  0  0  0  0  0  0  0  0  0  0  0
  190.1450  177.0560  142.0690 C   0  0  0  0  0  2  0  0  0  0  0  0
  185.3420  179.0130  140.6640 S   0  0  0  0  0  0  0  0  0  0  0  0
  183.8660  178.1280  140.6830 O   0  0  0  0  0  0  0  0  0  0  0  0
  180.5050  180.3300  139.4510 C   0  0  0  0  0  3  0  0  0  0  0  0
  180.3860  179.5020  140.5020 C   0  0  0  0  0  3  0  0  0  0  0  0
  182.7690  179.3510  138.9310 C   0  0  0  0  0  2  0  0  0  0  0  0
  182.8620  179.0700  140.4290 C   0  0  1  0  0  3  0  0  0  0  0  0
  181.5420  180.6430  137.3370 O   0  0  0  0  0  1  0  0  0  0  0  0
  181.8010  180.5050  138.7000 C   0  0  1  0  0  3  0  0  0  0  0  0
  181.5010  178.5910  140.9710 C   0  0  1  0  0  0  0  0  0  0  0  0
  181.5420  178.6170  142.3670 O   0  0  0  0  0  1  0  0  0  0  0  0
  181.2240  177.1560  140.4920 C   0  0  0  0  0  2  0  0  0  0  0  0
  178.9420  176.8580  139.5160 O   0  0  0  0  0  0  0  0  0  0  0  0
  179.3440  176.3210  141.7080 O   0  0  0  0  0  1  0  0  0  0  0  0
  179.7860  176.7620  140.6150 C   0  0  0  0  0  0  0  0  0  0  0  0
  2 10  1  0  0  0  0
  2  8  2  0  0  0  0
  4  7  1  0  0  0  0
  4  1  2  0  0  0  0
  5  9  1  0  0  0  0
  5  2  1  0  0  0  0
  6  3  2  0  0  0  0
  7  5  2  0  0  0  0
  8  3  1  0  0  0  0
  9  1  1  6  0  0  0
  9  6  1  0  0  0  0
 10 12  1  0  0  0  0
 11 12  2  0  0  0  0
 13  7  1  0  0  0  0
 15 16  1  0  0  0  0
 16 17  1  0  0  0  0
 16 13  1  0  0  0  0
 16 14  1  0  0  0  0
 17 14  1  0  0  0  0
 18 19  1  0  0  0  0
 18  4  1  0  0  0  0
 20 21  2  0  0  0  0
 21 26  1  0  0  0  0
 22 23  1  0  0  0  0
 23 19  1  6  0  0  0
 23 26  1  0  0  0  0
 25 24  1  6  0  0  0
 25 22  1  0  0  0  0
 25 20  1  0  0  0  0
 26 27  1  1  0  0  0
 28 31  1  0  0  0  0
 28 26  1  0  0  0  0
 29 31  2  0  0  0  0
 31 30  1  0  0  0  0
M  END
>  <MODEL>
8

>  <REMARK>
 VINA RESULT:      -6.7      3.720      6.148
  Name = 
  9 active torsions:
  status: ('A' for Active; 'I' for Inactive)
    1  A    between atoms: C_3  and  N_17
    2  A    between atoms: C_9  and  N_19
    3  A    between atoms: C_12  and  S_21
    4  A    between atoms: O_15  and  C_18
    5  A    between atoms: O_15  and  S_21
    6  A    between atoms: C_16  and  N_19
    7  A    between atoms: N_17  and  C_23
    8  A    between atoms: C_25  and  C_31
    9  A    between atoms: C_30  and  C_31
                            x       y       z     vdW  Elec       q    Type
                         _______ _______ _______ _____ _____    ______ ____

>  <TORSDO>
F 9

$$$$
=
 OpenBabel11062415043D

 31 34  0  0  1  0  0  0  0  0999 V2000
  184.3280  178.3610  142.1470 C   0  0  0  0  0  3  0  0  0  0  0  0
  182.5740  179.2060  138.8900 C   0  0  2  0  0  3  0  0  0  0  0  0
  180.8630  179.1550  140.7490 C   0  0  0  0  0  3  0  0  0  0  0  0
  185.3570  178.4670  141.3040 C   0  0  0  0  0  0  0  0  0  0  0  0
  183.5580  178.9050  139.9910 C   0  0  0  0  0  0  0  0  0  0  0  0
  181.8840  178.7590  141.7460 C   0  0  0  0  0  3  0  0  0  0  0  0
  184.8770  178.8100  139.9470 C   0  0  0  0  0  0  0  0  0  0  0  0
  181.1760  179.3750  139.4580 C   0  0  0  0  0  3  0  0  0  0  0  0
  183.1460  178.6450  141.3480 C   0  0  0  0  0  0  0  0  0  0  0  0
  182.5510  178.1160  137.9260 N   0  0  0  0  0  2  0  0  0  0  0  0
  182.3920  175.6490  138.8730 S   0  0  0  0  0  0  0  0  0  0  0  0
  181.7500  176.9600  138.1440 C   0  0  0  0  0  3  0  0  0  0  0  0
  185.6500  179.0330  138.7620 N   0  0  0  0  0  2  0  0  0  0  0  0
  187.2440  178.5540  136.9260 C   0  0  0  0  0  2  0  0  0  0  0  0
  185.6060  176.8880  137.5980 O   0  0  0  0  0  1  0  0  0  0  0  0
  186.3370  178.0060  137.9970 C   0  0  0  0  0  0  0  0  0  0  0  0
  187.8300  177.8720  138.1620 C   0  0  0  0  0  2  0  0  0  0  0  0
  187.0540  178.2400  141.8310 S   0  0  0  0  0  0  0  0  0  0  0  0
  186.6100  177.1290  143.0690 O   0  0  0  0  0  0  0  0  0  0  0  0
  189.7250  177.9040  145.7820 C   0  0  0  0  0  3  0  0  0  0  0  0
  188.4770  177.7550  146.2560 C   0  0  0  0  0  3  0  0  0  0  0  0
  188.8270  177.9830  143.4280 C   0  0  0  0  0  2  0  0  0  0  0  0
  187.6930  177.1070  143.9560 C   0  0  1  0  0  3  0  0  0  0  0  0
  191.0290  178.7370  143.9790 O   0  0  0  0  0  1  0  0  0  0  0  0
  190.0530  177.7980  144.3150 C   0  0  1  0  0  3  0  0  0  0  0  0
  187.2670  177.5690  145.3640 C   0  0  1  0  0  0  0  0  0  0  0  0
  186.4440  176.5920  145.9250 O   0  0  0  0  0  1  0  0  0  0  0  0
  186.4970  178.8970  145.2660 C   0  0  0  0  0  2  0  0  0  0  0  0
  184.0860  178.7540  145.9050 O   0  0  0  0  0  0  0  0  0  0  0  0
  185.6650  179.3310  147.4630 O   0  0  0  0  0  1  0  0  0  0  0  0
  185.3980  179.0150  146.2740 C   0  0  0  0  0  0  0  0  0  0  0  0
  2 10  1  6  0  0  0
  2  8  1  0  0  0  0
  2  5  1  0  0  0  0
  3  6  1  0  0  0  0
  4 18  1  0  0  0  0
  4  1  2  0  0  0  0
  5  9  1  0  0  0  0
  7  5  2  0  0  0  0
  7  4  1  0  0  0  0
  8  3  2  0  0  0  0
  9  6  2  0  0  0  0
  9  1  1  0  0  0  0
 10 12  1  0  0  0  0
 12 11  2  0  0  0  0
 13  7  1  0  0  0  0
 14 16  1  0  0  0  0
 14 17  1  0  0  0  0
 15 16  1  0  0  0  0
 16 17  1  0  0  0  0
 16 13  1  0  0  0  0
 18 19  1  0  0  0  0
 20 21  2  0  0  0  0
 22 23  1  0  0  0  0
 22 25  1  0  0  0  0
 23 19  1  6  0  0  0
 23 26  1  0  0  0  0
 25 24  1  6  0  0  0
 25 20  1  0  0  0  0
 26 27  1  1  0  0  0
 26 21  1  0  0  0  0
 28 26  1  0  0  0  0
 28 31  1  0  0  0  0
 29 31  2  0  0  0  0
 31 30  1  0  0  0  0
M  END
>  <MODEL>
9

>  <REMARK>
 VINA RESULT:      -6.7      3.854      7.503
  Name = 
  9 active torsions:
  status: ('A' for Active; 'I' for Inactive)
    1  A    between atoms: C_3  and  N_17
    2  A    between atoms: C_9  and  N_19
    3  A    between atoms: C_12  and  S_21
    4  A    between atoms: O_15  and  C_18
    5  A    between atoms: O_15  and  S_21
    6  A    between atoms: C_16  and  N_19
    7  A    between atoms: N_17  and  C_23
    8  A    between atoms: C_25  and  C_31
    9  A    between atoms: C_30  and  C_31
                            x       y       z     vdW  Elec       q    Type
                         _______ _______ _______ _____ _____    ______ ____

>  <TORSDO>
F 9

$$$$
