=
 OpenBabel11062415403D

 34 38  0  0  1  0  0  0  0  0999 V2000
  185.5090  178.6410  142.2640 C   0  0  0  0  0  0  0  0  0  0  0  0
  184.8200  178.8270  143.4620 C   0  0  0  0  0  0  0  0  0  0  0  0
  184.8850  178.7360  145.9190 C   0  0  0  0  0  3  0  0  0  0  0  0
  187.2760  178.1110  140.8690 N   0  0  0  0  0  0  0  0  0  0  0  0
  184.9600  178.8530  140.8890 C   0  0  0  0  0  2  0  0  0  0  0  0
  187.7100  177.6330  148.5660 Cl  0  0  0  0  0  0  0  0  0  0  0  0
  185.5050  178.5540  144.6740 C   0  0  0  0  0  0  0  0  0  0  0  0
  186.8530  178.0790  144.6390 C   0  0  0  0  0  0  0  0  0  0  0  0
  186.8670  177.9860  147.0740 C   0  0  0  0  0  0  0  0  0  0  0  0
  187.5080  177.7990  145.8510 C   0  0  0  0  0  3  0  0  0  0  0  0
  188.6430  178.2520  140.3950 C   0  0  0  0  0  1  0  0  0  0  0  0
  187.5230  177.8850  143.4050 C   0  0  0  0  0  0  0  0  0  0  0  0
  186.1590  178.5060  140.0780 C   0  0  0  0  0  0  0  0  0  0  0  0
  186.1990  178.5840  138.8230 O   0  0  0  0  0  0  0  0  0  0  0  0
  185.5560  178.4570  147.1090 C   0  0  0  0  0  3  0  0  0  0  0  0
  186.8250  178.2140  142.2210 C   0  0  0  0  0  0  0  0  0  0  0  0
  190.2940  175.9610  142.2130 N   0  0  0  0  0  2  0  0  0  0  0  0
  188.9170  177.3020  143.4230 C   0  0  1  0  0  3  0  0  0  0  0  0
  189.0090  175.9850  142.7750 N   0  0  0  0  0  2  0  0  0  0  0  0
  190.7290  178.8920  144.0450 C   0  0  0  0  0  1  0  0  0  0  0  0
  190.8820  177.2400  142.2380 C   0  0  0  0  0  0  0  0  0  0  0  0
  192.0030  177.4930  141.7240 O   0  0  0  0  0  0  0  0  0  0  0  0
  190.0090  178.2290  142.8850 C   0  0  1  0  0  3  0  0  0  0  0  0
  183.4590  179.2860  143.3950 N   0  0  0  0  0  2  0  0  0  0  0  0
  182.3400  178.4420  143.4380 N   0  0  0  0  0  2  0  0  0  0  0  0
  181.5890  179.7090  141.5240 C   0  0  0  0  0  3  0  0  0  0  0  0
  181.2210  179.1910  142.8870 C   0  0  1  0  0  3  0  0  0  0  0  0
  180.6690  177.7010  140.4770 C   0  0  0  0  0  0  0  0  0  0  0  0
  178.9310  176.5200  141.5940 O   0  0  0  0  0  1  0  0  0  0  0  0
  181.3580  179.0010  140.4150 C   0  0  0  0  0  3  0  0  0  0  0  0
  179.6530  177.7880  144.0490 F   0  0  0  0  0  0  0  0  0  0  0  0
  180.5540  177.0140  139.4280 O   0  0  0  0  0  0  0  0  0  0  0  0
  180.1510  177.1710  141.7880 C   0  0  2  0  0  3  0  0  0  0  0  0
  179.9680  178.3050  142.8040 C   0  0  2  0  0  3  0  0  0  0  0  0
  1  2  1  0  0  0  0
  2  7  2  0  0  0  0
  3 15  2  0  0  0  0
  4 16  1  0  0  0  0
  5  1  1  0  0  0  0
  7  3  1  0  0  0  0
  8  7  1  0  0  0  0
  8 10  1  0  0  0  0
  9 15  1  0  0  0  0
  9  6  1  0  0  0  0
 10  9  2  0  0  0  0
 11  4  1  0  0  0  0
 12  8  2  0  0  0  0
 13  4  1  0  0  0  0
 13  5  1  0  0  0  0
 14 13  2  0  0  0  0
 16  1  2  0  0  0  0
 16 12  1  0  0  0  0
 17 21  1  0  0  0  0
 17 19  1  0  0  0  0
 18 12  1  6  0  0  0
 19 18  1  0  0  0  0
 21 23  1  0  0  0  0
 22 21  2  0  0  0  0
 23 18  1  0  0  0  0
 23 20  1  1  0  0  0
 24 25  1  0  0  0  0
 24  2  1  0  0  0  0
 26 27  1  0  0  0  0
 27 25  1  6  0  0  0
 28 33  1  0  0  0  0
 30 28  1  0  0  0  0
 30 26  2  0  0  0  0
 32 28  2  0  0  0  0
 33 29  1  6  0  0  0
 33 34  1  0  0  0  0
 34 27  1  0  0  0  0
 34 31  1  1  0  0  0
M  END
>  <MODEL>
1

>  <REMARK>
 VINA RESULT:     -10.0      0.000      0.000
  Name = 
  4 active torsions:
  status: ('A' for Active; 'I' for Inactive)
    1  A    between atoms: C_2  and  N_17
    2  A    between atoms: C_7  and  N_30
    3  A    between atoms: C_14  and  C_20
    4  A    between atoms: N_17  and  N_30
                            x       y       z     vdW  Elec       q    Type
                         _______ _______ _______ _____ _____    ______ ____

>  <TORSDO>
F 4

$$$$
=
 OpenBabel11062415403D

 34 38  0  0  1  0  0  0  0  0999 V2000
  185.4980  178.5770  142.4840 C   0  0  0  0  0  0  0  0  0  0  0  0
  184.8480  178.7360  143.7080 C   0  0  0  0  0  0  0  0  0  0  0  0
  185.0020  178.6190  146.1600 C   0  0  0  0  0  3  0  0  0  0  0  0
  187.2240  178.0960  141.0220 N   0  0  0  0  0  0  0  0  0  0  0  0
  184.8960  178.7940  141.1320 C   0  0  0  0  0  2  0  0  0  0  0  0
  187.9400  177.5410  148.6930 Cl  0  0  0  0  0  0  0  0  0  0  0  0
  185.5810  178.4630  144.8920 C   0  0  0  0  0  0  0  0  0  0  0  0
  186.9350  178.0150  144.8040 C   0  0  0  0  0  0  0  0  0  0  0  0
  187.0370  177.8940  147.2360 C   0  0  0  0  0  0  0  0  0  0  0  0
  187.6380  177.7330  145.9890 C   0  0  0  0  0  3  0  0  0  0  0  0
  188.5700  178.2690  140.5020 C   0  0  0  0  0  1  0  0  0  0  0  0
  187.5650  177.8470  143.5450 C   0  0  0  0  0  0  0  0  0  0  0  0
  186.0720  178.4780  140.2760 C   0  0  0  0  0  0  0  0  0  0  0  0
  186.0670  178.5710  139.0200 O   0  0  0  0  0  0  0  0  0  0  0  0
  185.7200  178.3400  147.3230 C   0  0  0  0  0  3  0  0  0  0  0  0
  186.8190  178.1750  142.3900 C   0  0  0  0  0  0  0  0  0  0  0  0
  190.3190  175.9670  142.2480 N   0  0  0  0  0  2  0  0  0  0  0  0
  188.9690  177.2900  143.5070 C   0  0  1  0  0  3  0  0  0  0  0  0
  189.0590  175.9710  142.8640 N   0  0  0  0  0  2  0  0  0  0  0  0
  190.7750  178.9190  144.0400 C   0  0  0  0  0  1  0  0  0  0  0  0
  190.8820  177.2570  142.2390 C   0  0  0  0  0  0  0  0  0  0  0  0
  191.9750  177.5270  141.6760 O   0  0  0  0  0  0  0  0  0  0  0  0
  190.0190  178.2340  142.9170 C   0  0  1  0  0  3  0  0  0  0  0  0
  183.4770  179.1690  143.6940 N   0  0  0  0  0  2  0  0  0  0  0  0
  182.7380  179.4090  142.5270 N   0  0  0  0  0  2  0  0  0  0  0  0
  180.4930  179.5620  143.4030 C   0  0  0  0  0  3  0  0  0  0  0  0
  181.4770  178.6950  142.6680 C   0  0  1  0  0  3  0  0  0  0  0  0
  179.6630  180.4670  141.2900 C   0  0  0  0  0  0  0  0  0  0  0  0
  179.8420  179.1370  139.3240 O   0  0  0  0  0  1  0  0  0  0  0  0
  179.6770  180.4010  142.7610 C   0  0  0  0  0  3  0  0  0  0  0  0
  181.8460  177.5450  140.5910 F   0  0  0  0  0  0  0  0  0  0  0  0
  178.9540  181.3370  140.7190 O   0  0  0  0  0  0  0  0  0  0  0  0
  180.5250  179.5390  140.4740 C   0  0  2  0  0  3  0  0  0  0  0  0
  180.9230  178.3030  141.2890 C   0  0  2  0  0  3  0  0  0  0  0  0
  1  2  1  0  0  0  0
  2  7  2  0  0  0  0
  3 15  2  0  0  0  0
  4 16  1  0  0  0  0
  5  1  1  0  0  0  0
  7  3  1  0  0  0  0
  8  7  1  0  0  0  0
  8 10  1  0  0  0  0
  9 15  1  0  0  0  0
  9  6  1  0  0  0  0
 10  9  2  0  0  0  0
 11  4  1  0  0  0  0
 12  8  2  0  0  0  0
 13  4  1  0  0  0  0
 13  5  1  0  0  0  0
 14 13  2  0  0  0  0
 16  1  2  0  0  0  0
 16 12  1  0  0  0  0
 17 19  1  0  0  0  0
 18 12  1  6  0  0  0
 19 18  1  0  0  0  0
 21 17  1  0  0  0  0
 21 23  1  0  0  0  0
 22 21  2  0  0  0  0
 23 18  1  0  0  0  0
 23 20  1  1  0  0  0
 24  2  1  0  0  0  0
 25 24  1  0  0  0  0
 27 25  1  6  0  0  0
 27 26  1  0  0  0  0
 28 30  1  0  0  0  0
 30 26  2  0  0  0  0
 32 28  2  0  0  0  0
 33 29  1  6  0  0  0
 33 34  1  0  0  0  0
 33 28  1  0  0  0  0
 34 31  1  6  0  0  0
 34 27  1  0  0  0  0
M  END
>  <MODEL>
2

>  <REMARK>
 VINA RESULT:      -9.7      1.313      1.635
  Name = 
  4 active torsions:
  status: ('A' for Active; 'I' for Inactive)
    1  A    between atoms: C_2  and  N_17
    2  A    between atoms: C_7  and  N_30
    3  A    between atoms: C_14  and  C_20
    4  A    between atoms: N_17  and  N_30
                            x       y       z     vdW  Elec       q    Type
                         _______ _______ _______ _____ _____    ______ ____

>  <TORSDO>
F 4

$$$$
=
 OpenBabel11062415403D

 34 38  0  0  1  0  0  0  0  0999 V2000
  187.4070  178.3650  140.6210 C   0  0  0  0  0  0  0  0  0  0  0  0
  186.1570  178.8270  141.0320 C   0  0  0  0  0  0  0  0  0  0  0  0
  184.5800  179.1460  142.8920 C   0  0  0  0  0  3  0  0  0  0  0  0
  189.5050  177.4080  140.8090 N   0  0  0  0  0  0  0  0  0  0  0  0
  187.9460  178.4020  139.2270 C   0  0  0  0  0  2  0  0  0  0  0  0
  184.6940  178.1900  146.8010 Cl  0  0  0  0  0  0  0  0  0  0  0  0
  185.8110  178.6870  142.4000 C   0  0  0  0  0  0  0  0  0  0  0  0
  186.7240  178.0620  143.3050 C   0  0  0  0  0  0  0  0  0  0  0  0
  185.1230  178.3810  145.1160 C   0  0  0  0  0  0  0  0  0  0  0  0
  186.3540  177.9180  144.6550 C   0  0  0  0  0  3  0  0  0  0  0  0
  190.8400  177.3100  141.3730 C   0  0  0  0  0  1  0  0  0  0  0  0
  187.9820  177.5870  142.8560 C   0  0  0  0  0  0  0  0  0  0  0  0
  189.2830  177.7890  139.4540 C   0  0  0  0  0  0  0  0  0  0  0  0
  190.1490  177.6490  138.5510 O   0  0  0  0  0  0  0  0  0  0  0  0
  184.2370  178.9970  144.2360 C   0  0  0  0  0  3  0  0  0  0  0  0
  188.3120  177.7880  141.4970 C   0  0  0  0  0  0  0  0  0  0  0  0
  190.8390  175.7290  143.9450 N   0  0  0  0  0  2  0  0  0  0  0  0
  188.8730  176.8600  143.8370 C   0  0  1  0  0  3  0  0  0  0  0  0
  189.6320  175.7560  143.2310 N   0  0  0  0  0  2  0  0  0  0  0  0
  189.2160  178.0090  146.0180 C   0  0  0  0  0  1  0  0  0  0  0  0
  190.9810  176.8790  144.7440 C   0  0  0  0  0  0  0  0  0  0  0  0
  192.0140  177.1240  145.4220 O   0  0  0  0  0  0  0  0  0  0  0  0
  189.8100  177.7610  144.6450 C   0  0  1  0  0  3  0  0  0  0  0  0
  185.2980  179.4200  140.0430 N   0  0  0  0  0  2  0  0  0  0  0  0
  184.5450  178.6900  139.1130 N   0  0  0  0  0  2  0  0  0  0  0  0
  182.3760  179.4240  138.3450 C   0  0  0  0  0  3  0  0  0  0  0  0
  183.1470  178.8320  139.4920 C   0  0  1  0  0  3  0  0  0  0  0  0
  181.8470  177.1890  137.5070 C   0  0  0  0  0  0  0  0  0  0  0  0
  181.7620  175.3780  139.0480 O   0  0  0  0  0  1  0  0  0  0  0  0
  181.8020  178.6580  137.4130 C   0  0  0  0  0  3  0  0  0  0  0  0
  183.2910  176.9020  140.9170 F   0  0  0  0  0  0  0  0  0  0  0  0
  181.3830  176.4980  136.5630 O   0  0  0  0  0  0  0  0  0  0  0  0
  182.4870  176.5180  138.6930 C   0  0  2  0  0  3  0  0  0  0  0  0
  182.5560  177.4710  139.8920 C   0  0  2  0  0  3  0  0  0  0  0  0
  1  2  2  0  0  0  0
  1 16  1  0  0  0  0
  2  7  1  0  0  0  0
  3 15  1  0  0  0  0
  4 11  1  0  0  0  0
  4 16  1  0  0  0  0
  5 13  1  0  0  0  0
  5  1  1  0  0  0  0
  7  3  2  0  0  0  0
  7  8  1  0  0  0  0
  8 10  2  0  0  0  0
  9  6  1  0  0  0  0
 10  9  1  0  0  0  0
 12  8  1  0  0  0  0
 13  4  1  0  0  0  0
 14 13  2  0  0  0  0
 15  9  2  0  0  0  0
 16 12  2  0  0  0  0
 17 21  1  0  0  0  0
 18 12  1  6  0  0  0
 18 23  1  0  0  0  0
 19 18  1  0  0  0  0
 19 17  1  0  0  0  0
 21 22  2  0  0  0  0
 23 21  1  0  0  0  0
 23 20  1  1  0  0  0
 24  2  1  0  0  0  0
 25 24  1  0  0  0  0
 26 27  1  0  0  0  0
 27 25  1  6  0  0  0
 27 34  1  0  0  0  0
 28 33  1  0  0  0  0
 30 28  1  0  0  0  0
 30 26  2  0  0  0  0
 32 28  2  0  0  0  0
 33 29  1  1  0  0  0
 33 34  1  0  0  0  0
 34 31  1  1  0  0  0
M  END
>  <MODEL>
3

>  <REMARK>
 VINA RESULT:      -9.5      2.482      3.054
  Name = 
  4 active torsions:
  status: ('A' for Active; 'I' for Inactive)
    1  A    between atoms: C_2  and  N_17
    2  A    between atoms: C_7  and  N_30
    3  A    between atoms: C_14  and  C_20
    4  A    between atoms: N_17  and  N_30
                            x       y       z     vdW  Elec       q    Type
                         _______ _______ _______ _____ _____    ______ ____

>  <TORSDO>
F 4

$$$$
=
 OpenBabel11062415403D

 34 38  0  0  1  0  0  0  0  0999 V2000
  187.7710  178.1260  140.3210 C   0  0  0  0  0  0  0  0  0  0  0  0
  186.4760  178.5680  140.5920 C   0  0  0  0  0  0  0  0  0  0  0  0
  184.7350  178.9500  142.2860 C   0  0  0  0  0  3  0  0  0  0  0  0
  189.8740  177.2630  140.7500 N   0  0  0  0  0  0  0  0  0  0  0  0
  188.4280  178.0920  138.9780 C   0  0  0  0  0  2  0  0  0  0  0  0
  184.5400  178.2600  146.2480 Cl  0  0  0  0  0  0  0  0  0  0  0  0
  186.0180  178.5060  141.9330 C   0  0  0  0  0  0  0  0  0  0  0  0
  186.8680  177.9770  142.9520 C   0  0  0  0  0  0  0  0  0  0  0  0
  185.1070  178.3540  144.5950 C   0  0  0  0  0  0  0  0  0  0  0  0
  186.3880  177.9080  144.2730 C   0  0  0  0  0  3  0  0  0  0  0  0
  191.1570  177.2530  141.4300 C   0  0  0  0  0  1  0  0  0  0  0  0
  188.1750  177.5200  142.6450 C   0  0  0  0  0  0  0  0  0  0  0  0
  189.7590  177.5450  139.3580 C   0  0  0  0  0  0  0  0  0  0  0  0
  190.7030  177.3780  138.5430 O   0  0  0  0  0  0  0  0  0  0  0  0
  184.2810  178.8780  143.6040 C   0  0  0  0  0  3  0  0  0  0  0  0
  188.6140  177.6430  141.3070 C   0  0  0  0  0  0  0  0  0  0  0  0
  190.9700  175.8190  144.0910 N   0  0  0  0  0  2  0  0  0  0  0  0
  188.9990  176.8940  143.7450 C   0  0  1  0  0  3  0  0  0  0  0  0
  189.8210  175.7620  143.2890 N   0  0  0  0  0  2  0  0  0  0  0  0
  189.1560  178.2190  145.8460 C   0  0  0  0  0  1  0  0  0  0  0  0
  191.0310  177.0320  144.8030 C   0  0  0  0  0  0  0  0  0  0  0  0
  192.0050  177.3530  145.5340 O   0  0  0  0  0  0  0  0  0  0  0  0
  189.8570  177.8760  144.5450 C   0  0  1  0  0  3  0  0  0  0  0  0
  185.6870  179.0620  139.4960 N   0  0  0  0  0  2  0  0  0  0  0  0
  184.4760  179.7520  139.6450 N   0  0  0  0  0  2  0  0  0  0  0  0
  183.3640  177.7070  139.0040 C   0  0  0  0  0  3  0  0  0  0  0  0
  183.5350  179.1690  138.6990 C   0  0  1  0  0  3  0  0  0  0  0  0
  181.4730  178.2020  140.4720 C   0  0  0  0  0  0  0  0  0  0  0  0
  180.1900  180.1640  140.0660 O   0  0  0  0  0  1  0  0  0  0  0  0
  182.4260  177.2680  139.8480 C   0  0  0  0  0  3  0  0  0  0  0  0
  182.3440  181.2490  138.5360 F   0  0  0  0  0  0  0  0  0  0  0  0
  180.6670  177.7710  141.3370 O   0  0  0  0  0  0  0  0  0  0  0  0
  181.4930  179.6650  140.1190 C   0  0  2  0  0  3  0  0  0  0  0  0
  182.1820  179.8950  138.7690 C   0  0  2  0  0  3  0  0  0  0  0  0
  1  2  2  0  0  0  0
  1 16  1  0  0  0  0
  2  7  1  0  0  0  0
  3 15  1  0  0  0  0
  4 16  1  0  0  0  0
  4 11  1  0  0  0  0
  5 13  1  0  0  0  0
  5  1  1  0  0  0  0
  7  3  2  0  0  0  0
  7  8  1  0  0  0  0
  8 10  2  0  0  0  0
  9  6  1  0  0  0  0
 10  9  1  0  0  0  0
 12  8  1  0  0  0  0
 13  4  1  0  0  0  0
 14 13  2  0  0  0  0
 15  9  2  0  0  0  0
 16 12  2  0  0  0  0
 17 21  1  0  0  0  0
 18 12  1  6  0  0  0
 18 23  1  0  0  0  0
 19 18  1  0  0  0  0
 19 17  1  0  0  0  0
 21 22  2  0  0  0  0
 23 21  1  0  0  0  0
 23 20  1  1  0  0  0
 24 25  1  0  0  0  0
 24  2  1  0  0  0  0
 26 30  2  0  0  0  0
 27 34  1  0  0  0  0
 27 26  1  0  0  0  0
 27 25  1  1  0  0  0
 28 32  2  0  0  0  0
 30 28  1  0  0  0  0
 33 29  1  6  0  0  0
 33 28  1  0  0  0  0
 34 31  1  1  0  0  0
 34 33  1  0  0  0  0
M  END
>  <MODEL>
4

>  <REMARK>
 VINA RESULT:      -9.4      2.450      3.364
  Name = 
  4 active torsions:
  status: ('A' for Active; 'I' for Inactive)
    1  A    between atoms: C_2  and  N_17
    2  A    between atoms: C_7  and  N_30
    3  A    between atoms: C_14  and  C_20
    4  A    between atoms: N_17  and  N_30
                            x       y       z     vdW  Elec       q    Type
                         _______ _______ _______ _____ _____    ______ ____

>  <TORSDO>
F 4

$$$$
=
 OpenBabel11062415403D

 34 38  0  0  1  0  0  0  0  0999 V2000
  185.8110  178.8380  142.6190 C   0  0  0  0  0  0  0  0  0  0  0  0
  186.1500  179.0070  141.2770 C   0  0  0  0  0  0  0  0  0  0  0  0
  187.7810  178.5760  139.4870 C   0  0  0  0  0  3  0  0  0  0  0  0
  186.0310  178.1380  144.8130 N   0  0  0  0  0  0  0  0  0  0  0  0
  184.5750  179.3510  143.2870 C   0  0  0  0  0  2  0  0  0  0  0  0
  191.3670  176.7460  139.4040 Cl  0  0  0  0  0  0  0  0  0  0  0  0
  187.3810  178.4640  140.8270 C   0  0  0  0  0  0  0  0  0  0  0  0
  188.2420  177.7910  141.7490 C   0  0  0  0  0  0  0  0  0  0  0  0
  189.8400  177.4030  139.9500 C   0  0  0  0  0  0  0  0  0  0  0  0
  189.4660  177.2750  141.2860 C   0  0  0  0  0  3  0  0  0  0  0  0
  186.2230  177.1280  145.8390 C   0  0  0  0  0  1  0  0  0  0  0  0
  187.8780  177.6480  143.1120 C   0  0  0  0  0  0  0  0  0  0  0  0
  184.8020  178.8430  144.6680 C   0  0  0  0  0  0  0  0  0  0  0  0
  183.9780  178.9880  145.6090 O   0  0  0  0  0  0  0  0  0  0  0  0
  188.9980  178.0510  139.0490 C   0  0  0  0  0  3  0  0  0  0  0  0
  186.6220  178.1590  143.5120 C   0  0  0  0  0  0  0  0  0  0  0  0
  190.9000  176.0010  144.0880 N   0  0  0  0  0  2  0  0  0  0  0  0
  188.8620  177.0030  144.0590 C   0  0  1  0  0  3  0  0  0  0  0  0
  189.6590  175.9340  143.4380 N   0  0  0  0  0  2  0  0  0  0  0  0
  189.2400  178.2230  146.1950 C   0  0  0  0  0  1  0  0  0  0  0  0
  191.0070  177.1770  144.8550 C   0  0  0  0  0  0  0  0  0  0  0  0
  192.0550  177.5030  145.4720 O   0  0  0  0  0  0  0  0  0  0  0  0
  189.7790  177.9800  144.7980 C   0  0  1  0  0  3  0  0  0  0  0  0
  185.2300  179.7190  140.4320 N   0  0  0  0  0  2  0  0  0  0  0  0
  184.5240  179.1370  139.3690 N   0  0  0  0  0  2  0  0  0  0  0  0
  182.3010  179.7270  138.6350 C   0  0  0  0  0  3  0  0  0  0  0  0
  183.1180  179.1300  139.7460 C   0  0  1  0  0  3  0  0  0  0  0  0
  181.9740  177.5170  137.6440 C   0  0  0  0  0  0  0  0  0  0  0  0
  182.0460  175.6040  139.0590 O   0  0  0  0  0  1  0  0  0  0  0  0
  181.7990  178.9790  137.6490 C   0  0  0  0  0  3  0  0  0  0  0  0
  183.4300  177.1280  141.0380 F   0  0  0  0  0  0  0  0  0  0  0  0
  181.5750  176.8520  136.6520 O   0  0  0  0  0  0  0  0  0  0  0  0
  182.6680  176.8250  138.7880 C   0  0  2  0  0  3  0  0  0  0  0  0
  182.6490  177.6980  140.0490 C   0  0  2  0  0  3  0  0  0  0  0  0
  1  5  1  0  0  0  0
  1 16  1  0  0  0  0
  2  1  2  0  0  0  0
  3  7  1  0  0  0  0
  4 11  1  0  0  0  0
  5 13  1  0  0  0  0
  6  9  1  0  0  0  0
  7  2  1  0  0  0  0
  7  8  2  0  0  0  0
  8 12  1  0  0  0  0
  9 10  2  0  0  0  0
 10  8  1  0  0  0  0
 12 16  2  0  0  0  0
 13  4  1  0  0  0  0
 13 14  2  0  0  0  0
 15  3  2  0  0  0  0
 15  9  1  0  0  0  0
 16  4  1  0  0  0  0
 17 21  1  0  0  0  0
 18 12  1  6  0  0  0
 18 23  1  0  0  0  0
 19 18  1  0  0  0  0
 19 17  1  0  0  0  0
 21 22  2  0  0  0  0
 23 21  1  0  0  0  0
 23 20  1  1  0  0  0
 24  2  1  0  0  0  0
 25 24  1  0  0  0  0
 26 27  1  0  0  0  0
 27 25  1  6  0  0  0
 27 34  1  0  0  0  0
 28 30  1  0  0  0  0
 28 33  1  0  0  0  0
 30 26  2  0  0  0  0
 32 28  2  0  0  0  0
 33 29  1  1  0  0  0
 33 34  1  0  0  0  0
 34 31  1  1  0  0  0
M  END
>  <MODEL>
5

>  <REMARK>
 VINA RESULT:      -9.3      2.957      4.448
  Name = 
  4 active torsions:
  status: ('A' for Active; 'I' for Inactive)
    1  A    between atoms: C_2  and  N_17
    2  A    between atoms: C_7  and  N_30
    3  A    between atoms: C_14  and  C_20
    4  A    between atoms: N_17  and  N_30
                            x       y       z     vdW  Elec       q    Type
                         _______ _______ _______ _____ _____    ______ ____

>  <TORSDO>
F 4

$$$$
=
 OpenBabel11062415403D

 34 38  0  0  1  0  0  0  0  0999 V2000
  185.6530  178.7390  142.6900 C   0  0  0  0  0  0  0  0  0  0  0  0
  185.9070  178.8550  141.3240 C   0  0  0  0  0  0  0  0  0  0  0  0
  187.4250  178.3580  139.4530 C   0  0  0  0  0  3  0  0  0  0  0  0
  186.0140  178.1270  144.8910 N   0  0  0  0  0  0  0  0  0  0  0  0
  184.4590  179.2750  143.4140 C   0  0  0  0  0  2  0  0  0  0  0  0
  191.0060  176.5330  139.2160 Cl  0  0  0  0  0  0  0  0  0  0  0  0
  187.1090  178.2970  140.8190 C   0  0  0  0  0  0  0  0  0  0  0  0
  188.0290  177.6640  141.7110 C   0  0  0  0  0  0  0  0  0  0  0  0
  189.5130  177.2090  139.8310 C   0  0  0  0  0  0  0  0  0  0  0  0
  189.2240  177.1320  141.1930 C   0  0  0  0  0  3  0  0  0  0  0  0
  186.2740  177.1580  145.9420 C   0  0  0  0  0  1  0  0  0  0  0  0
  187.7520  177.5730  143.0980 C   0  0  0  0  0  0  0  0  0  0  0  0
  184.7750  178.8230  144.7970 C   0  0  0  0  0  0  0  0  0  0  0  0
  184.0110  179.0030  145.7810 O   0  0  0  0  0  0  0  0  0  0  0  0
  188.6130  177.8190  138.9610 C   0  0  0  0  0  3  0  0  0  0  0  0
  186.5220  178.0970  143.5560 C   0  0  0  0  0  0  0  0  0  0  0  0
  190.8480  175.9960  143.9490 N   0  0  0  0  0  2  0  0  0  0  0  0
  188.7970  176.9680  144.0070 C   0  0  1  0  0  3  0  0  0  0  0  0
  189.5750  175.8940  143.3710 N   0  0  0  0  0  2  0  0  0  0  0  0
  189.2740  178.2520  146.0850 C   0  0  0  0  0  1  0  0  0  0  0  0
  190.9800  177.1940  144.6770 C   0  0  0  0  0  0  0  0  0  0  0  0
  192.0550  177.5510  145.2260 O   0  0  0  0  0  0  0  0  0  0  0  0
  189.7380  177.9780  144.6670 C   0  0  1  0  0  3  0  0  0  0  0  0
  184.9320  179.5310  140.5110 N   0  0  0  0  0  2  0  0  0  0  0  0
  183.5990  179.1210  140.3740 N   0  0  0  0  0  2  0  0  0  0  0  0
  183.4320  176.9650  139.2990 C   0  0  0  0  0  3  0  0  0  0  0  0
  183.4890  178.4520  139.0860 C   0  0  1  0  0  3  0  0  0  0  0  0
  180.9900  177.0410  139.3860 C   0  0  0  0  0  0  0  0  0  0  0  0
  179.8550  178.7850  138.2320 O   0  0  0  0  0  1  0  0  0  0  0  0
  182.2730  176.3220  139.4660 C   0  0  0  0  0  3  0  0  0  0  0  0
  182.2690  180.3110  138.1760 F   0  0  0  0  0  0  0  0  0  0  0  0
  179.9220  176.4260  139.6470 O   0  0  0  0  0  0  0  0  0  0  0  0
  180.9540  178.5080  139.0470 C   0  0  2  0  0  3  0  0  0  0  0  0
  182.2410  178.9370  138.3320 C   0  0  2  0  0  3  0  0  0  0  0  0
  1  5  1  0  0  0  0
  1 16  1  0  0  0  0
  2  1  2  0  0  0  0
  3  7  1  0  0  0  0
  4 11  1  0  0  0  0
  5 13  1  0  0  0  0
  6  9  1  0  0  0  0
  7  2  1  0  0  0  0
  7  8  2  0  0  0  0
  8 12  1  0  0  0  0
  9 10  2  0  0  0  0
 10  8  1  0  0  0  0
 12 16  2  0  0  0  0
 13  4  1  0  0  0  0
 13 14  2  0  0  0  0
 15  3  2  0  0  0  0
 15  9  1  0  0  0  0
 16  4  1  0  0  0  0
 17 21  1  0  0  0  0
 18 12  1  6  0  0  0
 18 23  1  0  0  0  0
 19 17  1  0  0  0  0
 19 18  1  0  0  0  0
 21 22  2  0  0  0  0
 23 21  1  0  0  0  0
 23 20  1  1  0  0  0
 24  2  1  0  0  0  0
 25 24  1  0  0  0  0
 26 30  2  0  0  0  0
 27 26  1  0  0  0  0
 27 25  1  1  0  0  0
 28 30  1  0  0  0  0
 28 32  2  0  0  0  0
 33 29  1  6  0  0  0
 33 28  1  0  0  0  0
 34 31  1  1  0  0  0
 34 33  1  0  0  0  0
 34 27  1  0  0  0  0
M  END
>  <MODEL>
6

>  <REMARK>
 VINA RESULT:      -9.0      3.011      4.496
  Name = 
  4 active torsions:
  status: ('A' for Active; 'I' for Inactive)
    1  A    between atoms: C_2  and  N_17
    2  A    between atoms: C_7  and  N_30
    3  A    between atoms: C_14  and  C_20
    4  A    between atoms: N_17  and  N_30
                            x       y       z     vdW  Elec       q    Type
                         _______ _______ _______ _____ _____    ______ ____

>  <TORSDO>
F 4

$$$$
=
 OpenBabel11062415403D

 34 38  0  0  1  0  0  0  0  0999 V2000
  186.8020  178.4320  140.3700 C   0  0  0  0  0  0  0  0  0  0  0  0
  186.7030  178.5980  141.7510 C   0  0  0  0  0  0  0  0  0  0  0  0
  185.2270  178.7810  143.7090 C   0  0  0  0  0  3  0  0  0  0  0  0
  186.0850  178.1430  138.1900 N   0  0  0  0  0  0  0  0  0  0  0  0
  188.0690  178.3860  139.5760 C   0  0  0  0  0  2  0  0  0  0  0  0
  181.2260  178.8030  144.1570 Cl  0  0  0  0  0  0  0  0  0  0  0  0
  185.4070  178.6370  142.3260 C   0  0  0  0  0  0  0  0  0  0  0  0
  184.2530  178.5340  141.4880 C   0  0  0  0  0  0  0  0  0  0  0  0
  182.8270  178.7390  143.4540 C   0  0  0  0  0  0  0  0  0  0  0  0
  182.9760  178.5930  142.0760 C   0  0  0  0  0  3  0  0  0  0  0  0
  185.3520  177.4460  137.1470 C   0  0  0  0  0  1  0  0  0  0  0  0
  184.3840  178.3820  140.0850 C   0  0  0  0  0  0  0  0  0  0  0  0
  187.5090  178.1860  138.2120 C   0  0  0  0  0  0  0  0  0  0  0  0
  188.2170  178.0340  137.1820 O   0  0  0  0  0  0  0  0  0  0  0  0
  183.9510  178.8310  144.2720 C   0  0  0  0  0  3  0  0  0  0  0  0
  185.6910  178.2980  139.5540 C   0  0  0  0  0  0  0  0  0  0  0  0
  181.0850  177.3860  139.1230 N   0  0  0  0  0  2  0  0  0  0  0  0
  183.1320  178.3630  139.2390 C   0  0  1  0  0  3  0  0  0  0  0  0
  182.4450  177.0620  139.2390 N   0  0  0  0  0  2  0  0  0  0  0  0
  182.2980  180.5950  138.5210 C   0  0  0  0  0  1  0  0  0  0  0  0
  180.8740  178.7640  139.3170 C   0  0  0  0  0  0  0  0  0  0  0  0
  179.7300  179.2890  139.3370 O   0  0  0  0  0  0  0  0  0  0  0  0
  182.1350  179.4830  139.5400 C   0  0  1  0  0  3  0  0  0  0  0  0
  187.9200  178.7150  142.5070 N   0  0  0  0  0  2  0  0  0  0  0  0
  188.7070  177.6270  142.9080 N   0  0  0  0  0  2  0  0  0  0  0  0
  190.5910  178.9810  143.5770 C   0  0  0  0  0  3  0  0  0  0  0  0
  190.0880  177.9610  142.5940 C   0  0  1  0  0  3  0  0  0  0  0  0
  191.4270  177.2080  145.0370 C   0  0  0  0  0  0  0  0  0  0  0  0
  192.0350  175.1200  144.0730 O   0  0  0  0  0  1  0  0  0  0  0  0
  191.1830  178.6260  144.7200 C   0  0  0  0  0  3  0  0  0  0  0  0
  190.4810  175.7420  141.7590 F   0  0  0  0  0  0  0  0  0  0  0  0
  191.8960  176.9020  146.1650 O   0  0  0  0  0  0  0  0  0  0  0  0
  191.0720  176.1300  144.0480 C   0  0  2  0  0  3  0  0  0  0  0  0
  190.9680  176.7010  142.6280 C   0  0  2  0  0  3  0  0  0  0  0  0
  1  2  1  0  0  0  0
  2  7  2  0  0  0  0
  2 24  1  0  0  0  0
  3 15  2  0  0  0  0
  4 13  1  0  0  0  0
  4 16  1  0  0  0  0
  5  1  1  0  0  0  0
  7  3  1  0  0  0  0
  8 10  1  0  0  0  0
  8  7  1  0  0  0  0
  9  6  1  0  0  0  0
  9 15  1  0  0  0  0
 10  9  2  0  0  0  0
 11  4  1  0  0  0  0
 12  8  2  0  0  0  0
 13  5  1  0  0  0  0
 14 13  2  0  0  0  0
 16 12  1  0  0  0  0
 16  1  2  0  0  0  0
 17 19  1  0  0  0  0
 17 21  1  0  0  0  0
 18 23  1  0  0  0  0
 18 12  1  1  0  0  0
 19 18  1  0  0  0  0
 21 22  2  0  0  0  0
 21 23  1  0  0  0  0
 23 20  1  6  0  0  0
 24 25  1  0  0  0  0
 26 30  2  0  0  0  0
 27 34  1  0  0  0  0
 27 25  1  1  0  0  0
 27 26  1  0  0  0  0
 28 32  2  0  0  0  0
 30 28  1  0  0  0  0
 33 29  1  6  0  0  0
 33 28  1  0  0  0  0
 34 31  1  6  0  0  0
 34 33  1  0  0  0  0
M  END
>  <MODEL>
7

>  <REMARK>
 VINA RESULT:      -8.8      3.269      7.911
  Name = 
  4 active torsions:
  status: ('A' for Active; 'I' for Inactive)
    1  A    between atoms: C_2  and  N_17
    2  A    between atoms: C_7  and  N_30
    3  A    between atoms: C_14  and  C_20
    4  A    between atoms: N_17  and  N_30
                            x       y       z     vdW  Elec       q    Type
                         _______ _______ _______ _____ _____    ______ ____

>  <TORSDO>
F 4

$$$$
=
 OpenBabel11062415403D

 34 38  0  0  1  0  0  0  0  0999 V2000
  185.5620  178.6630  142.8260 C   0  0  0  0  0  0  0  0  0  0  0  0
  186.7730  178.5720  142.1420 C   0  0  0  0  0  0  0  0  0  0  0  0
  187.9100  178.3710  139.9700 C   0  0  0  0  0  3  0  0  0  0  0  0
  183.2690  178.7540  143.1210 N   0  0  0  0  0  0  0  0  0  0  0  0
  185.3930  178.7780  144.3080 C   0  0  0  0  0  2  0  0  0  0  0  0
  186.5870  178.0070  136.1850 Cl  0  0  0  0  0  0  0  0  0  0  0  0
  186.7330  178.4480  140.7290 C   0  0  0  0  0  0  0  0  0  0  0  0
  185.4740  178.3940  140.0540 C   0  0  0  0  0  0  0  0  0  0  0  0
  186.6420  178.1760  137.9260 C   0  0  0  0  0  0  0  0  0  0  0  0
  185.4560  178.2530  138.6550 C   0  0  0  0  0  3  0  0  0  0  0  0
  181.9520  179.3170  142.8800 C   0  0  0  0  0  1  0  0  0  0  0  0
  184.2580  178.4740  140.7780 C   0  0  0  0  0  0  0  0  0  0  0  0
  183.9080  178.8440  144.3910 C   0  0  0  0  0  0  0  0  0  0  0  0
  183.2750  178.9990  145.4680 O   0  0  0  0  0  0  0  0  0  0  0  0
  187.8690  178.2370  138.5820 C   0  0  0  0  0  3  0  0  0  0  0  0
  184.3380  178.6460  142.1790 C   0  0  0  0  0  0  0  0  0  0  0  0
  181.9170  179.0250  138.1290 N   0  0  0  0  0  2  0  0  0  0  0  0
  182.9570  178.3270  140.0240 C   0  0  1  0  0  3  0  0  0  0  0  0
  182.5870  179.5250  139.2550 N   0  0  0  0  0  2  0  0  0  0  0  0
  182.0790  176.0040  139.8550 C   0  0  0  0  0  1  0  0  0  0  0  0
  182.0800  177.6310  138.0200 C   0  0  0  0  0  0  0  0  0  0  0  0
  181.6370  176.9590  137.0520 O   0  0  0  0  0  0  0  0  0  0  0  0
  182.8640  177.0840  139.1360 C   0  0  1  0  0  3  0  0  0  0  0  0
  187.9880  178.6120  142.9100 N   0  0  0  0  0  2  0  0  0  0  0  0
  188.7790  177.4890  143.1930 N   0  0  0  0  0  2  0  0  0  0  0  0
  190.6700  178.8510  143.8270 C   0  0  0  0  0  3  0  0  0  0  0  0
  190.1490  177.8360  142.8470 C   0  0  1  0  0  3  0  0  0  0  0  0
  191.5550  177.0700  145.2480 C   0  0  0  0  0  0  0  0  0  0  0  0
  192.1530  174.9950  144.2480 O   0  0  0  0  0  1  0  0  0  0  0  0
  191.2930  178.4880  144.9510 C   0  0  0  0  0  3  0  0  0  0  0  0
  190.5360  175.6280  141.9810 F   0  0  0  0  0  0  0  0  0  0  0  0
  192.0550  176.7560  146.3610 O   0  0  0  0  0  0  0  0  0  0  0  0
  191.1820  175.9990  144.2580 C   0  0  2  0  0  3  0  0  0  0  0  0
  191.0390  176.5830  142.8470 C   0  0  2  0  0  3  0  0  0  0  0  0
  1  5  1  0  0  0  0
  2  1  2  0  0  0  0
  2 24  1  0  0  0  0
  3  7  1  0  0  0  0
  4 13  1  0  0  0  0
  5 13  1  0  0  0  0
  6  9  1  0  0  0  0
  7  2  1  0  0  0  0
  8  7  2  0  0  0  0
  8 12  1  0  0  0  0
  9 15  1  0  0  0  0
  9 10  2  0  0  0  0
 10  8  1  0  0  0  0
 11  4  1  0  0  0  0
 12 16  2  0  0  0  0
 13 14  2  0  0  0  0
 15  3  2  0  0  0  0
 16  1  1  0  0  0  0
 16  4  1  0  0  0  0
 17 19  1  0  0  0  0
 18 12  1  6  0  0  0
 19 18  1  0  0  0  0
 21 17  1  0  0  0  0
 21 23  1  0  0  0  0
 22 21  2  0  0  0  0
 23 20  1  1  0  0  0
 23 18  1  0  0  0  0
 24 25  1  0  0  0  0
 26 30  2  0  0  0  0
 27 25  1  1  0  0  0
 27 26  1  0  0  0  0
 28 32  2  0  0  0  0
 30 28  1  0  0  0  0
 33 29  1  6  0  0  0
 33 28  1  0  0  0  0
 34 31  1  6  0  0  0
 34 27  1  0  0  0  0
 34 33  1  0  0  0  0
M  END
>  <MODEL>
8

>  <REMARK>
 VINA RESULT:      -8.8      3.731      8.565
  Name = 
  4 active torsions:
  status: ('A' for Active; 'I' for Inactive)
    1  A    between atoms: C_2  and  N_17
    2  A    between atoms: C_7  and  N_30
    3  A    between atoms: C_14  and  C_20
    4  A    between atoms: N_17  and  N_30
                            x       y       z     vdW  Elec       q    Type
                         _______ _______ _______ _____ _____    ______ ____

>  <TORSDO>
F 4

$$$$
=
 OpenBabel11062415403D

 34 38  0  0  1  0  0  0  0  0999 V2000
  186.0920  178.4240  141.0750 C   0  0  0  0  0  0  0  0  0  0  0  0
  185.1860  178.5120  142.1320 C   0  0  0  0  0  0  0  0  0  0  0  0
  184.8430  178.5010  144.5670 C   0  0  0  0  0  3  0  0  0  0  0  0
  188.1380  178.1920  140.0220 N   0  0  0  0  0  0  0  0  0  0  0  0
  185.7580  178.4940  139.6190 C   0  0  0  0  0  2  0  0  0  0  0  0
  187.3230  178.0100  147.7010 Cl  0  0  0  0  0  0  0  0  0  0  0  0
  185.6900  178.4040  143.4530 C   0  0  0  0  0  0  0  0  0  0  0  0
  187.0860  178.1840  143.6670 C   0  0  0  0  0  0  0  0  0  0  0  0
  186.6990  178.1610  146.0730 C   0  0  0  0  0  0  0  0  0  0  0  0
  187.5630  178.0630  144.9840 C   0  0  0  0  0  3  0  0  0  0  0  0
  189.5180  178.5700  139.7710 C   0  0  0  0  0  1  0  0  0  0  0  0
  187.9820  178.0840  142.5730 C   0  0  0  0  0  0  0  0  0  0  0  0
  187.1200  178.3520  139.0370 C   0  0  0  0  0  0  0  0  0  0  0  0
  187.3610  178.4020  137.8030 O   0  0  0  0  0  0  0  0  0  0  0  0
  185.3400  178.3830  145.8660 C   0  0  0  0  0  3  0  0  0  0  0  0
  187.4510  178.2460  141.2730 C   0  0  0  0  0  0  0  0  0  0  0  0
  191.1530  178.3820  144.2030 N   0  0  0  0  0  2  0  0  0  0  0  0
  189.4330  177.7690  142.8520 C   0  0  1  0  0  3  0  0  0  0  0  0
  190.2040  178.9280  143.3270 N   0  0  0  0  0  2  0  0  0  0  0  0
  189.9980  175.3460  142.9440 C   0  0  0  0  0  1  0  0  0  0  0  0
  190.8540  177.0380  144.5000 C   0  0  0  0  0  0  0  0  0  0  0  0
  191.5150  176.3500  145.3220 O   0  0  0  0  0  0  0  0  0  0  0  0
  189.6650  176.5700  143.7750 C   0  0  1  0  0  3  0  0  0  0  0  0
  183.7970  178.7100  141.8160 N   0  0  0  0  0  2  0  0  0  0  0  0
  183.0080  177.7840  141.1190 N   0  0  0  0  0  2  0  0  0  0  0  0
  182.2800  179.5890  139.6880 C   0  0  0  0  0  3  0  0  0  0  0  0
  181.8400  178.5030  140.6310 C   0  0  1  0  0  3  0  0  0  0  0  0
  182.0520  178.0710  137.7850 C   0  0  0  0  0  0  0  0  0  0  0  0
  180.5010  176.2720  137.9330 O   0  0  0  0  0  1  0  0  0  0  0  0
  182.4040  179.3740  138.3760 C   0  0  0  0  0  3  0  0  0  0  0  0
  180.5000  176.5140  140.7790 F   0  0  0  0  0  0  0  0  0  0  0  0
  182.2740  177.8700  136.5620 O   0  0  0  0  0  0  0  0  0  0  0  0
  181.4800  176.9720  138.6410 C   0  0  2  0  0  3  0  0  0  0  0  0
  180.8700  177.5410  139.9280 C   0  0  2  0  0  3  0  0  0  0  0  0
  1 16  2  0  0  0  0
  1  2  1  0  0  0  0
  2  7  2  0  0  0  0
  3 15  2  0  0  0  0
  4 16  1  0  0  0  0
  5  1  1  0  0  0  0
  7  8  1  0  0  0  0
  7  3  1  0  0  0  0
  8 10  1  0  0  0  0
  9  6  1  0  0  0  0
 10  9  2  0  0  0  0
 11  4  1  0  0  0  0
 12  8  2  0  0  0  0
 13  5  1  0  0  0  0
 13  4  1  0  0  0  0
 14 13  2  0  0  0  0
 15  9  1  0  0  0  0
 16 12  1  0  0  0  0
 17 21  1  0  0  0  0
 18 12  1  1  0  0  0
 18 19  1  0  0  0  0
 18 23  1  0  0  0  0
 19 17  1  0  0  0  0
 21 22  2  0  0  0  0
 23 20  1  6  0  0  0
 23 21  1  0  0  0  0
 24  2  1  0  0  0  0
 25 24  1  0  0  0  0
 26 27  1  0  0  0  0
 27 25  1  6  0  0  0
 28 30  1  0  0  0  0
 28 33  1  0  0  0  0
 30 26  2  0  0  0  0
 32 28  2  0  0  0  0
 33 29  1  6  0  0  0
 33 34  1  0  0  0  0
 34 27  1  0  0  0  0
 34 31  1  1  0  0  0
M  END
>  <MODEL>
9

>  <REMARK>
 VINA RESULT:      -8.7      1.874      2.300
  Name = 
  4 active torsions:
  status: ('A' for Active; 'I' for Inactive)
    1  A    between atoms: C_2  and  N_17
    2  A    between atoms: C_7  and  N_30
    3  A    between atoms: C_14  and  C_20
    4  A    between atoms: N_17  and  N_30
                            x       y       z     vdW  Elec       q    Type
                         _______ _______ _______ _____ _____    ______ ____

>  <TORSDO>
F 4

$$$$
