=
 OpenBabel11062413233D

 46 52  0  0  1  0  0  0  0  0999 V2000
  185.2910  173.4840  135.1370 N   0  0  0  0  0  0  0  0  0  0  0  0
  178.9310  181.9040  137.1800 C   0  0  0  0  0  3  0  0  0  0  0  0
  188.4690  178.0170  140.0540 C   0  0  0  0  0  2  0  0  0  0  0  0
  180.5220  179.8540  141.2870 C   0  0  0  0  0  3  0  0  0  0  0  0
  180.8810  180.7140  137.2150 C   0  0  2  0  0  3  0  0  0  0  0  0
  181.3200  177.8340  136.3610 C   0  0  0  0  0  2  0  0  0  0  0  0
  188.9860  178.9550  137.4920 S   0  0  0  0  0  0  0  0  0  0  0  0
  188.1360  177.8610  136.3360 C   0  0  0  0  0  2  0  0  0  0  0  0
  185.0670  179.4880  141.0980 C   0  0  0  0  0  2  0  0  0  0  0  0
  188.4600  176.4410  136.7520 C   0  0  2  0  0  3  0  0  0  0  0  0
  191.0560  173.7830  135.6190 O   0  0  0  0  0  0  0  0  0  0  0  0
  182.4190  178.1950  142.4890 C   0  0  0  0  0  3  0  0  0  0  0  0
  182.6970  178.7740  141.2460 C   0  0  0  0  0  0  0  0  0  0  0  0
  181.5510  175.3770  135.9480 N   0  0  0  0  0  0  0  0  0  0  0  0
  179.4850  180.7980  136.6890 C   0  0  0  0  0  3  0  0  0  0  0  0
  190.5450  174.1870  137.9770 O   0  0  0  0  0  0  0  0  0  0  0  0
  179.7810  182.5400  138.1330 N   0  0  0  0  0  0  0  0  0  0  0  0
  188.8040  171.9590  136.4310 N   0  0  0  0  0  0  0  0  0  0  0  0
  184.9920  174.8760  134.9620 C   0  0  0  0  0  0  0  0  0  0  0  0
  181.6200  181.6220  139.2840 O   0  0  0  0  0  0  0  0  0  0  0  0
  190.0260  174.3300  136.5730 S   0  0  0  0  0  0  0  0  0  0  0  0
  185.8780  175.6950  134.5940 O   0  0  0  0  0  0  0  0  0  0  0  0
  180.2510  179.2650  142.5250 C   0  0  0  0  0  3  0  0  0  0  0  0
  188.4410  176.3930  138.2090 N   0  0  0  0  0  2  0  0  0  0  0  0
  188.5170  173.3810  136.4270 C   0  0  1  0  0  3  0  0  0  0  0  0
  182.0500  178.4930  137.5120 C   0  0  0  0  0  2  0  0  0  0  0  0
  182.5540  174.5690  135.5570 C   0  0  0  0  0  2  0  0  0  0  0  0
  186.3740  177.7910  142.1810 O   0  0  0  0  0  1  0  0  0  0  0  0
  183.3600  176.6640  135.5200 N   0  0  0  0  0  0  0  0  0  0  0  0
  187.7330  173.7520  135.1760 C   0  0  0  0  0  2  0  0  0  0  0  0
  189.7660  176.0210  136.2310 N   0  0  0  0  0  0  0  0  0  0  0  0
  181.7470  179.6240  140.6420 C   0  0  0  0  0  0  0  0  0  0  0  0
  187.9400  171.0840  136.0310 C   0  0  0  0  0  3  0  0  0  0  0  0
  186.4400  178.8430  141.2620 C   0  0  1  0  0  3  0  0  0  0  0  0
  186.5740  171.4790  135.5140 C   0  0  0  0  0  2  0  0  0  0  0  0
  189.7320  176.1400  134.8810 O   0  0  0  0  0  1  0  0  0  0  0  0
  181.2000  178.4380  143.1270 C   0  0  0  0  0  3  0  0  0  0  0  0
  181.2060  179.5690  138.1730 C   0  0  1  0  0  3  0  0  0  0  0  0
  189.0770  177.6060  138.7160 C   0  0  2  0  0  3  0  0  0  0  0  0
  182.0220  180.2560  139.3040 C   0  0  1  0  0  3  0  0  0  0  0  0
  182.0740  176.6240  135.9140 C   0  0  0  0  0  0  0  0  0  0  0  0
  184.0200  178.4880  140.6090 C   0  0  0  0  0  2  0  0  0  0  0  0
  183.6500  175.3710  135.2870 C   0  0  0  0  0  0  0  0  0  0  0  0
  186.4720  172.9430  135.2080 C   0  0  0  0  0  0  0  0  0  0  0  0
  180.8360  181.8120  138.1680 C   0  0  0  0  0  0  0  0  0  0  0  0
  186.9880  178.3510  139.9260 C   0  0  0  0  0  2  0  0  0  0  0  0
  1 44  2  0  0  0  0
  2 17  1  0  0  0  0
  4 23  1  0  0  0  0
  5 15  1  1  0  0  0
  5 45  1  0  0  0  0
  5 38  1  0  0  0  0
  6 26  1  0  0  0  0
  7 39  1  0  0  0  0
  8  7  1  0  0  0  0
  9 34  1  0  0  0  0
 10  8  1  1  0  0  0
 10 24  1  0  0  0  0
 11 21  2  0  0  0  0
 12 37  1  0  0  0  0
 13 12  2  0  0  0  0
 15  2  2  0  0  0  0
 17 45  2  0  0  0  0
 19  1  1  0  0  0  0
 19 43  1  0  0  0  0
 21 16  2  0  0  0  0
 22 19  2  0  0  0  0
 23 37  2  0  0  0  0
 24 39  1  0  0  0  0
 25 30  1  6  0  0  0
 25 18  1  0  0  0  0
 25 21  1  0  0  0  0
 27 14  1  0  0  0  0
 29 41  1  0  0  0  0
 30 44  1  0  0  0  0
 31 21  1  0  0  0  0
 31 10  1  0  0  0  0
 32 13  1  0  0  0  0
 32  4  2  0  0  0  0
 33 18  2  0  0  0  0
 34 28  1  1  0  0  0
 35 33  1  0  0  0  0
 36 31  1  0  0  0  0
 38 26  1  6  0  0  0
 38 40  1  0  0  0  0
 39  3  1  1  0  0  0
 40 20  1  1  0  0  0
 40 32  1  0  0  0  0
 41 14  2  0  0  0  0
 41  6  1  0  0  0  0
 42  9  1  0  0  0  0
 42 13  1  0  0  0  0
 43 29  2  0  0  0  0
 43 27  1  0  0  0  0
 44 35  1  0  0  0  0
 45 20  1  0  0  0  0
 46  3  1  0  0  0  0
 46 34  1  0  0  0  0
M  END
>  <MODEL>
1

>  <REMARK>
 VINA RESULT:      -7.2      0.000      0.000
  Name = 
  0 active torsions:
  status: ('A' for Active; 'I' for Inactive)
                            x       y       z     vdW  Elec       q    Type
                         _______ _______ _______ _____ _____    ______ ____

>  <TORSDO>
F 0

$$$$
=
 OpenBabel11062413233D

 46 52  0  0  1  0  0  0  0  0999 V2000
  184.3600  178.8480  142.8390 N   0  0  0  0  0  0  0  0  0  0  0  0
  191.9830  176.5640  135.6150 C   0  0  0  0  0  3  0  0  0  0  0  0
  181.3470  176.1450  136.6390 C   0  0  0  0  0  2  0  0  0  0  0  0
  188.8960  172.8530  136.1600 C   0  0  0  0  0  3  0  0  0  0  0  0
  189.8460  176.9160  136.3420 C   0  0  2  0  0  3  0  0  0  0  0  0
  188.8900  177.2960  139.1990 C   0  0  0  0  0  2  0  0  0  0  0  0
  181.7810  178.8700  136.3210 S   0  0  0  0  0  0  0  0  0  0  0  0
  182.5770  179.4670  137.8260 C   0  0  0  0  0  2  0  0  0  0  0  0
  184.6280  174.3880  135.6520 C   0  0  0  0  0  2  0  0  0  0  0  0
  181.7900  178.9100  138.9940 C   0  0  2  0  0  3  0  0  0  0  0  0
  178.9640  180.2700  141.2850 O   0  0  0  0  0  0  0  0  0  0  0  0
  186.3810  172.0130  137.0350 C   0  0  0  0  0  3  0  0  0  0  0  0
  186.5990  173.3680  136.7580 C   0  0  0  0  0  0  0  0  0  0  0  0
  188.1270  177.2810  141.5810 N   0  0  0  0  0  0  0  0  0  0  0  0
  191.3010  176.9830  136.6780 C   0  0  0  0  0  3  0  0  0  0  0  0
  178.9350  177.9950  140.3880 O   0  0  0  0  0  0  0  0  0  0  0  0
  191.1170  176.0670  134.5960 N   0  0  0  0  0  0  0  0  0  0  0  0
  180.3560  178.4580  143.2430 N   0  0  0  0  0  0  0  0  0  0  0  0
  185.0540  179.1840  141.6300 C   0  0  0  0  0  0  0  0  0  0  0  0
  188.8670  175.3990  134.7960 O   0  0  0  0  0  0  0  0  0  0  0  0
  179.8190  179.1640  140.7230 S   0  0  0  0  0  0  0  0  0  0  0  0
  184.5460  179.9620  140.7760 O   0  0  0  0  0  0  0  0  0  0  0  0
  188.6700  171.5040  136.4450 C   0  0  0  0  0  3  0  0  0  0  0  0
  181.4170  177.5400  138.6610 N   0  0  0  0  0  2  0  0  0  0  0  0
  181.0040  178.6440  141.9570 C   0  0  1  0  0  3  0  0  0  0  0  0
  188.0910  176.5820  138.1300 C   0  0  0  0  0  2  0  0  0  0  0  0
  187.0820  177.8050  142.2470 C   0  0  0  0  0  3  0  0  0  0  0  0
  182.6810  173.4660  136.7110 O   0  0  0  0  0  1  0  0  0  0  0  0
  186.9030  178.4950  140.1190 N   0  0  0  0  0  2  0  0  0  0  0  0
  182.1540  179.6310  142.0910 C   0  0  0  0  0  2  0  0  0  0  0  0
  180.6000  179.7240  139.2670 N   0  0  0  0  0  0  0  0  0  0  0  0
  187.8640  173.7930  136.3020 C   0  0  0  0  0  0  0  0  0  0  0  0
  181.0290  178.3900  144.3450 C   0  0  0  0  0  3  0  0  0  0  0  0
  183.1390  174.5430  135.9450 C   0  0  1  0  0  3  0  0  0  0  0  0
  182.5350  178.5180  144.3790 C   0  0  0  0  0  2  0  0  0  0  0  0
  181.0130  180.9920  139.5150 O   0  0  0  0  0  1  0  0  0  0  0  0
  187.4120  171.0840  136.8800 C   0  0  0  0  0  3  0  0  0  0  0  0
  188.9910  175.9080  137.1080 C   0  0  1  0  0  3  0  0  0  0  0  0
  181.0190  177.5010  137.2560 C   0  0  2  0  0  3  0  0  0  0  0  0
  188.1240  175.2450  136.0010 C   0  0  1  0  0  3  0  0  0  0  0  0
  187.9830  177.7160  140.3090 C   0  0  0  0  0  0  0  0  0  0  0  0
  185.4600  174.3210  136.9320 C   0  0  0  0  0  2  0  0  0  0  0  0
  186.3480  178.5550  141.3440 C   0  0  0  0  0  0  0  0  0  0  0  0
  183.1010  179.0500  143.0970 C   0  0  0  0  0  0  0  0  0  0  0  0
  189.9340  176.2260  135.0650 C   0  0  0  0  0  0  0  0  0  0  0  0
  182.8440  175.8630  136.6520 C   0  0  0  0  0  2  0  0  0  0  0  0
  1 44  2  0  0  0  0
  2 15  2  0  0  0  0
  3 46  1  0  0  0  0
  4 32  2  0  0  0  0
  4 23  1  0  0  0  0
  5 15  1  1  0  0  0
  5 38  1  0  0  0  0
  6 41  1  0  0  0  0
  7 39  1  0  0  0  0
  7  8  1  0  0  0  0
  9 34  1  0  0  0  0
  9 42  1  0  0  0  0
 10  8  1  6  0  0  0
 10 31  1  0  0  0  0
 13 42  1  0  0  0  0
 13 12  2  0  0  0  0
 14 27  1  0  0  0  0
 16 21  2  0  0  0  0
 17 45  2  0  0  0  0
 17  2  1  0  0  0  0
 18 33  2  0  0  0  0
 19  1  1  0  0  0  0
 20 45  1  0  0  0  0
 21 11  2  0  0  0  0
 21 25  1  0  0  0  0
 22 19  2  0  0  0  0
 23 37  2  0  0  0  0
 24 10  1  0  0  0  0
 25 30  1  1  0  0  0
 25 18  1  0  0  0  0
 26  6  1  0  0  0  0
 29 41  1  0  0  0  0
 29 43  1  0  0  0  0
 30 44  1  0  0  0  0
 31 36  1  0  0  0  0
 31 21  1  0  0  0  0
 32 13  1  0  0  0  0
 33 35  1  0  0  0  0
 34 46  1  0  0  0  0
 34 28  1  1  0  0  0
 37 12  1  0  0  0  0
 38 26  1  1  0  0  0
 39  3  1  6  0  0  0
 39 24  1  0  0  0  0
 40 20  1  6  0  0  0
 40 32  1  0  0  0  0
 40 38  1  0  0  0  0
 41 14  2  0  0  0  0
 43 19  1  0  0  0  0
 43 27  2  0  0  0  0
 44 35  1  0  0  0  0
 45  5  1  0  0  0  0
M  END
>  <MODEL>
2

>  <REMARK>
 VINA RESULT:      -4.6      3.017      9.838
  Name = 
  0 active torsions:
  status: ('A' for Active; 'I' for Inactive)
                            x       y       z     vdW  Elec       q    Type
                         _______ _______ _______ _____ _____    ______ ____

>  <TORSDO>
F 0

$$$$
