=
 OpenBabel11062413353D

 28 30  0  0  1  0  0  0  0  0999 V2000
  185.2340  179.6420  142.4650 N   0  0  0  0  0  0  0  0  0  0  0  0
  185.3130  178.9390  143.6090 C   0  0  0  0  0  0  0  0  0  0  0  0
  184.5490  178.8160  145.2390 S   0  0  0  0  0  0  0  0  0  0  0  0
  185.8340  177.6580  145.2260 C   0  0  1  0  0  3  0  0  0  0  0  0
  186.2720  177.9360  143.8330 C   0  0  0  0  0  0  0  0  0  0  0  0
  187.2040  177.5890  142.9280 N   0  0  0  0  0  0  0  0  0  0  0  0
  187.1610  178.2810  141.7370 C   0  0  0  0  0  0  0  0  0  0  0  0
  186.1700  179.3070  141.5120 C   0  0  0  0  0  3  0  0  0  0  0  0
  186.8710  178.3780  138.5860 N   0  0  0  0  0  1  0  0  0  0  0  0
  189.4280  177.5970  140.9640 N   0  0  0  0  0  0  0  0  0  0  0  0
  190.0130  177.4300  139.7860 N   0  0  0  0  0  0  0  0  0  0  0  0
  191.3960  177.0210  139.6290 C   0  0  0  0  0  1  0  0  0  0  0  0
  188.0330  178.0220  139.3270 C   0  0  0  0  0  0  0  0  0  0  0  0
  189.2030  177.6770  138.7670 N   0  0  0  0  0  0  0  0  0  0  0  0
  188.1620  177.9740  140.7010 C   0  0  0  0  0  0  0  0  0  0  0  0
  187.1290  177.3870  147.1850 C   0  0  0  0  0  3  0  0  0  0  0  0
  186.8700  178.0730  146.1340 N   0  0  0  0  0  0  0  0  0  0  0  0
  188.2770  177.7720  148.0600 C   0  0  0  0  0  2  0  0  0  0  0  0
  189.4740  178.1750  147.2070 C   0  0  0  0  0  2  0  0  0  0  0  0
  190.1840  176.9540  146.6320 C   0  0  2  0  0  3  0  0  0  0  0  0
  192.0820  175.6320  147.5760 C   0  0  0  0  0  3  0  0  0  0  0  0
  193.2520  175.5790  148.0350 O   0  0  0  0  0  0  0  0  0  0  0  0
  191.5430  176.8760  147.1430 N   0  0  0  0  0  2  0  0  0  0  0  0
  190.1540  176.9430  145.1000 C   0  0  0  0  0  2  0  0  0  0  0  0
  191.7880  175.6910  143.8840 O   0  0  0  0  0  1  0  0  0  0  0  0
  191.5450  176.9310  144.4760 C   0  0  1  0  0  3  0  0  0  0  0  0
  191.6270  178.0230  143.4260 C   0  0  0  0  0  2  0  0  0  0  0  0
  191.1760  179.3470  144.0100 C   0  0  0  0  0  1  0  0  0  0  0  0
  1  2  1  0  0  0  0
  2  5  2  0  0  0  0
  2  3  1  0  0  0  0
  4  3  1  0  0  0  0
  4 17  1  1  0  0  0
  5  4  1  0  0  0  0
  6  5  1  0  0  0  0
  7  6  2  0  0  0  0
  8  7  1  0  0  0  0
  8  1  2  0  0  0  0
  9 13  1  0  0  0  0
 11 10  1  0  0  0  0
 12 11  1  0  0  0  0
 13 15  1  0  0  0  0
 14 13  2  0  0  0  0
 14 11  1  0  0  0  0
 15 10  2  0  0  0  0
 15  7  1  0  0  0  0
 16 18  1  0  0  0  0
 17 16  2  0  0  0  0
 19 18  1  0  0  0  0
 20 24  1  6  0  0  0
 20 23  1  0  0  0  0
 20 19  1  0  0  0  0
 21 22  2  0  0  0  0
 23 21  1  0  0  0  0
 26 25  1  6  0  0  0
 26 24  1  0  0  0  0
 27 28  1  0  0  0  0
 27 26  1  0  0  0  0
M  END
>  <MODEL>
1

>  <REMARK>
 VINA RESULT:      -7.8      0.000      0.000
  Name = 
  9 active torsions:
  status: ('A' for Active; 'I' for Inactive)
    1  A    between atoms: C_1  and  C_28
    2  A    between atoms: C_6  and  C_7
    3  A    between atoms: C_6  and  C_14
    4  A    between atoms: C_10  and  N_27
    5  A    between atoms: C_14  and  C_26
    6  A    between atoms: C_19  and  C_24
    7  A    between atoms: N_22  and  C_26
    8  A    between atoms: C_25  and  C_26
    9  A    between atoms: C_25  and  C_28
                            x       y       z     vdW  Elec       q    Type
                         _______ _______ _______ _____ _____    ______ ____

>  <TORSDO>
F 9

$$$$
=
 OpenBabel11062413353D

 28 30  0  0  1  0  0  0  0  0999 V2000
  186.9790  177.3060  137.4600 N   0  0  0  0  0  0  0  0  0  0  0  0
  187.8160  177.6370  138.4590 C   0  0  0  0  0  0  0  0  0  0  0  0
  189.5380  177.4560  138.9690 S   0  0  0  0  0  0  0  0  0  0  0  0
  188.7440  178.2950  140.2570 C   0  0  1  0  0  3  0  0  0  0  0  0
  187.4060  178.3300  139.6120 C   0  0  0  0  0  0  0  0  0  0  0  0
  186.1380  178.7210  139.8270 N   0  0  0  0  0  0  0  0  0  0  0  0
  185.2420  178.4060  138.8270 C   0  0  0  0  0  0  0  0  0  0  0  0
  185.6720  177.6980  137.6440 C   0  0  0  0  0  3  0  0  0  0  0  0
  182.7820  176.6000  139.6710 N   0  0  0  0  0  1  0  0  0  0  0  0
  183.3520  180.0290  138.8170 N   0  0  0  0  0  0  0  0  0  0  0  0
  182.0530  179.9660  139.0750 N   0  0  0  0  0  0  0  0  0  0  0  0
  181.1650  181.1100  138.9960 C   0  0  0  0  0  1  0  0  0  0  0  0
  182.7590  177.9910  139.3690 C   0  0  0  0  0  0  0  0  0  0  0  0
  181.6520  178.7490  139.4120 N   0  0  0  0  0  0  0  0  0  0  0  0
  183.8280  178.7810  138.9960 C   0  0  0  0  0  0  0  0  0  0  0  0
  189.2760  177.7870  142.5040 C   0  0  0  0  0  3  0  0  0  0  0  0
  188.6810  177.4500  141.4200 N   0  0  0  0  0  0  0  0  0  0  0  0
  189.1120  176.9520  143.7320 C   0  0  0  0  0  2  0  0  0  0  0  0
  187.6580  176.9720  144.1890 C   0  0  0  0  0  2  0  0  0  0  0  0
  187.4720  177.8560  145.4180 C   0  0  2  0  0  3  0  0  0  0  0  0
  188.6460  177.8640  147.6230 C   0  0  0  0  0  3  0  0  0  0  0  0
  189.7100  177.9140  148.2910 O   0  0  0  0  0  0  0  0  0  0  0  0
  188.6970  177.8910  146.2010 N   0  0  0  0  0  2  0  0  0  0  0  0
  186.2720  177.4170  146.2630 C   0  0  0  0  0  2  0  0  0  0  0  0
  185.6100  179.4980  147.2340 O   0  0  0  0  0  1  0  0  0  0  0  0
  185.1920  178.4870  146.3680 C   0  0  1  0  0  3  0  0  0  0  0  0
  184.9340  179.0680  144.9900 C   0  0  0  0  0  2  0  0  0  0  0  0
  183.4490  179.0510  144.6840 C   0  0  0  0  0  1  0  0  0  0  0  0
  1  8  2  0  0  0  0
  1  2  1  0  0  0  0
  2  3  1  0  0  0  0
  2  5  2  0  0  0  0
  3  4  1  0  0  0  0
  4 17  1  1  0  0  0
  5  6  1  0  0  0  0
  5  4  1  0  0  0  0
  7 15  1  0  0  0  0
  7  6  2  0  0  0  0
  8  7  1  0  0  0  0
 10 15  2  0  0  0  0
 10 11  1  0  0  0  0
 11 14  1  0  0  0  0
 12 11  1  0  0  0  0
 13 14  2  0  0  0  0
 13  9  1  0  0  0  0
 15 13  1  0  0  0  0
 16 18  1  0  0  0  0
 17 16  2  0  0  0  0
 18 19  1  0  0  0  0
 20 19  1  6  0  0  0
 20 23  1  0  0  0  0
 20 24  1  0  0  0  0
 21 22  2  0  0  0  0
 23 21  1  0  0  0  0
 24 26  1  0  0  0  0
 26 25  1  1  0  0  0
 27 26  1  0  0  0  0
 28 27  1  0  0  0  0
M  END
>  <MODEL>
2

>  <REMARK>
 VINA RESULT:      -7.3      3.511      5.900
  Name = 
  9 active torsions:
  status: ('A' for Active; 'I' for Inactive)
    1  A    between atoms: C_1  and  C_28
    2  A    between atoms: C_6  and  C_7
    3  A    between atoms: C_6  and  C_14
    4  A    between atoms: C_10  and  N_27
    5  A    between atoms: C_14  and  C_26
    6  A    between atoms: C_19  and  C_24
    7  A    between atoms: N_22  and  C_26
    8  A    between atoms: C_25  and  C_26
    9  A    between atoms: C_25  and  C_28
                            x       y       z     vdW  Elec       q    Type
                         _______ _______ _______ _____ _____    ______ ____

>  <TORSDO>
F 9

$$$$
=
 OpenBabel11062413353D

 28 30  0  0  1  0  0  0  0  0999 V2000
  188.8750  178.6090  138.3780 N   0  0  0  0  0  0  0  0  0  0  0  0
  188.6240  178.2060  139.6350 C   0  0  0  0  0  0  0  0  0  0  0  0
  187.6380  178.6440  141.0820 S   0  0  0  0  0  0  0  0  0  0  0  0
  188.5910  177.2790  141.5510 C   0  0  1  0  0  3  0  0  0  0  0  0
  189.2700  177.1120  140.2390 C   0  0  0  0  0  0  0  0  0  0  0  0
  190.2040  176.3710  139.6180 N   0  0  0  0  0  0  0  0  0  0  0  0
  190.4940  176.7450  138.3230 C   0  0  0  0  0  0  0  0  0  0  0  0
  189.8230  177.8670  137.7090 C   0  0  0  0  0  3  0  0  0  0  0  0
  190.4490  173.7390  137.3310 N   0  0  0  0  0  1  0  0  0  0  0  0
  192.6970  176.5200  137.1830 N   0  0  0  0  0  0  0  0  0  0  0  0
  193.3320  175.5500  136.5410 N   0  0  0  0  0  0  0  0  0  0  0  0
  194.6470  175.7080  135.9490 C   0  0  0  0  0  1  0  0  0  0  0  0
  191.4970  174.6850  137.1470 C   0  0  0  0  0  0  0  0  0  0  0  0
  192.6410  174.4200  136.4960 N   0  0  0  0  0  0  0  0  0  0  0  0
  191.5210  175.9960  137.5820 C   0  0  0  0  0  0  0  0  0  0  0  0
  190.3570  176.8210  143.0540 C   0  0  0  0  0  3  0  0  0  0  0  0
  189.5630  177.6810  142.5330 N   0  0  0  0  0  0  0  0  0  0  0  0
  191.4290  177.2720  143.9910 C   0  0  0  0  0  2  0  0  0  0  0  0
  191.4160  176.4180  145.2540 C   0  0  0  0  0  2  0  0  0  0  0  0
  190.8960  177.2040  146.4530 C   0  0  2  0  0  3  0  0  0  0  0  0
  192.4310  175.8130  147.8490 C   0  0  0  0  0  3  0  0  0  0  0  0
  193.2020  175.6970  148.8360 O   0  0  0  0  0  0  0  0  0  0  0  0
  191.8060  177.0630  147.5780 N   0  0  0  0  0  2  0  0  0  0  0  0
  189.4670  176.7990  146.8260 C   0  0  0  0  0  2  0  0  0  0  0  0
  187.6940  177.2280  145.2810 O   0  0  0  0  0  1  0  0  0  0  0  0
  188.4180  177.7900  146.3330 C   0  0  1  0  0  3  0  0  0  0  0  0
  187.4790  178.1280  147.4760 C   0  0  0  0  0  2  0  0  0  0  0  0
  188.1940  177.9750  148.8050 C   0  0  0  0  0  1  0  0  0  0  0  0
  1  2  1  0  0  0  0
  2  5  2  0  0  0  0
  2  3  1  0  0  0  0
  3  4  1  0  0  0  0
  4 17  1  1  0  0  0
  5  4  1  0  0  0  0
  6  5  1  0  0  0  0
  7  6  2  0  0  0  0
  8  7  1  0  0  0  0
  8  1  2  0  0  0  0
 10 15  2  0  0  0  0
 11 10  1  0  0  0  0
 12 11  1  0  0  0  0
 13  9  1  0  0  0  0
 13 15  1  0  0  0  0
 14 11  1  0  0  0  0
 14 13  2  0  0  0  0
 15  7  1  0  0  0  0
 16 18  1  0  0  0  0
 17 16  2  0  0  0  0
 18 19  1  0  0  0  0
 20 19  1  6  0  0  0
 20 24  1  0  0  0  0
 20 23  1  0  0  0  0
 21 22  2  0  0  0  0
 23 21  1  0  0  0  0
 26 25  1  6  0  0  0
 26 24  1  0  0  0  0
 26 27  1  0  0  0  0
 27 28  1  0  0  0  0
M  END
>  <MODEL>
3

>  <REMARK>
 VINA RESULT:      -7.1      2.699      4.598
  Name = 
  9 active torsions:
  status: ('A' for Active; 'I' for Inactive)
    1  A    between atoms: C_1  and  C_28
    2  A    between atoms: C_6  and  C_7
    3  A    between atoms: C_6  and  C_14
    4  A    between atoms: C_10  and  N_27
    5  A    between atoms: C_14  and  C_26
    6  A    between atoms: C_19  and  C_24
    7  A    between atoms: N_22  and  C_26
    8  A    between atoms: C_25  and  C_26
    9  A    between atoms: C_25  and  C_28
                            x       y       z     vdW  Elec       q    Type
                         _______ _______ _______ _____ _____    ______ ____

>  <TORSDO>
F 9

$$$$
=
 OpenBabel11062413353D

 28 30  0  0  1  0  0  0  0  0999 V2000
  186.6330  177.3080  137.0920 N   0  0  0  0  0  0  0  0  0  0  0  0
  187.5590  177.6750  137.9950 C   0  0  0  0  0  0  0  0  0  0  0  0
  189.3420  177.6440  138.2730 S   0  0  0  0  0  0  0  0  0  0  0  0
  188.6490  178.3370  139.6980 C   0  0  1  0  0  3  0  0  0  0  0  0
  187.2400  178.2670  139.2300 C   0  0  0  0  0  0  0  0  0  0  0  0
  185.9800  178.5180  139.6270 N   0  0  0  0  0  0  0  0  0  0  0  0
  184.9950  178.1610  138.7310 C   0  0  0  0  0  0  0  0  0  0  0  0
  185.3300  177.5570  137.4630 C   0  0  0  0  0  3  0  0  0  0  0  0
  183.3650  180.8720  138.8530 N   0  0  0  0  0  1  0  0  0  0  0  0
  182.7340  177.4000  139.4480 N   0  0  0  0  0  0  0  0  0  0  0  0
  181.5720  177.9910  139.6900 N   0  0  0  0  0  0  0  0  0  0  0  0
  180.3780  177.2750  140.0970 C   0  0  0  0  0  1  0  0  0  0  0  0
  182.8780  179.5670  139.1480 C   0  0  0  0  0  0  0  0  0  0  0  0
  181.6150  179.3040  139.5210 N   0  0  0  0  0  0  0  0  0  0  0  0
  183.5870  178.3830  139.1000 C   0  0  0  0  0  0  0  0  0  0  0  0
  189.1490  177.8800  141.9630 C   0  0  0  0  0  3  0  0  0  0  0  0
  188.8190  177.4360  140.8070 N   0  0  0  0  0  0  0  0  0  0  0  0
  189.2170  176.9450  143.1260 C   0  0  0  0  0  2  0  0  0  0  0  0
  187.8150  176.6520  143.6460 C   0  0  0  0  0  2  0  0  0  0  0  0
  187.6090  177.2210  145.0460 C   0  0  2  0  0  3  0  0  0  0  0  0
  185.5740  178.2360  146.0810 C   0  0  0  0  0  3  0  0  0  0  0  0
  184.6420  179.0800  146.0520 O   0  0  0  0  0  0  0  0  0  0  0  0
  186.5400  178.2060  145.0360 N   0  0  0  0  0  2  0  0  0  0  0  0
  188.9050  177.7980  145.6260 C   0  0  0  0  0  2  0  0  0  0  0  0
  190.6640  176.6480  146.7640 O   0  0  0  0  0  1  0  0  0  0  0  0
  189.3510  177.0980  146.9040 C   0  0  1  0  0  3  0  0  0  0  0  0
  189.2660  178.0760  148.0610 C   0  0  0  0  0  2  0  0  0  0  0  0
  188.0070  177.8250  148.8680 C   0  0  0  0  0  1  0  0  0  0  0  0
  1  8  2  0  0  0  0
  1  2  1  0  0  0  0
  2  3  1  0  0  0  0
  2  5  2  0  0  0  0
  3  4  1  0  0  0  0
  4 17  1  1  0  0  0
  5  6  1  0  0  0  0
  5  4  1  0  0  0  0
  7 15  1  0  0  0  0
  7  6  2  0  0  0  0
  8  7  1  0  0  0  0
  9 13  1  0  0  0  0
 10 11  1  0  0  0  0
 11 12  1  0  0  0  0
 13 14  2  0  0  0  0
 14 11  1  0  0  0  0
 15 13  1  0  0  0  0
 15 10  2  0  0  0  0
 16 18  1  0  0  0  0
 17 16  2  0  0  0  0
 18 19  1  0  0  0  0
 20 19  1  6  0  0  0
 20 24  1  0  0  0  0
 22 21  2  0  0  0  0
 23 20  1  0  0  0  0
 23 21  1  0  0  0  0
 24 26  1  0  0  0  0
 26 25  1  6  0  0  0
 26 27  1  0  0  0  0
 27 28  1  0  0  0  0
M  END
>  <MODEL>
4

>  <REMARK>
 VINA RESULT:      -7.0      3.552      5.991
  Name = 
  9 active torsions:
  status: ('A' for Active; 'I' for Inactive)
    1  A    between atoms: C_1  and  C_28
    2  A    between atoms: C_6  and  C_7
    3  A    between atoms: C_6  and  C_14
    4  A    between atoms: C_10  and  N_27
    5  A    between atoms: C_14  and  C_26
    6  A    between atoms: C_19  and  C_24
    7  A    between atoms: N_22  and  C_26
    8  A    between atoms: C_25  and  C_26
    9  A    between atoms: C_25  and  C_28
                            x       y       z     vdW  Elec       q    Type
                         _______ _______ _______ _____ _____    ______ ____

>  <TORSDO>
F 9

$$$$
=
 OpenBabel11062413353D

 28 30  0  0  1  0  0  0  0  0999 V2000
  189.0400  177.4640  145.2280 N   0  0  0  0  0  0  0  0  0  0  0  0
  189.3310  177.0290  143.9900 C   0  0  0  0  0  0  0  0  0  0  0  0
  190.7140  176.4290  142.9980 S   0  0  0  0  0  0  0  0  0  0  0  0
  189.3540  176.4940  141.9300 C   0  0  1  0  0  3  0  0  0  0  0  0
  188.3870  176.9810  142.9480 C   0  0  0  0  0  0  0  0  0  0  0  0
  187.1080  177.3700  143.0910 N   0  0  0  0  0  0  0  0  0  0  0  0
  186.7620  177.8220  144.3470 C   0  0  0  0  0  0  0  0  0  0  0  0
  187.7360  177.8640  145.4120 C   0  0  0  0  0  3  0  0  0  0  0  0
  185.4430  178.9110  147.0110 N   0  0  0  0  0  1  0  0  0  0  0  0
  184.4320  178.3290  143.6270 N   0  0  0  0  0  0  0  0  0  0  0  0
  183.3470  178.8130  144.2160 N   0  0  0  0  0  0  0  0  0  0  0  0
  182.0870  179.0180  143.5280 C   0  0  0  0  0  1  0  0  0  0  0  0
  184.8140  178.7650  145.7420 C   0  0  0  0  0  0  0  0  0  0  0  0
  183.5340  179.0900  145.4980 N   0  0  0  0  0  0  0  0  0  0  0  0
  185.3840  178.2860  144.5790 C   0  0  0  0  0  0  0  0  0  0  0  0
  189.1020  177.3900  139.7570 C   0  0  0  0  0  3  0  0  0  0  0  0
  189.5580  177.5240  140.9470 N   0  0  0  0  0  0  0  0  0  0  0  0
  189.2290  178.5130  138.7810 C   0  0  0  0  0  2  0  0  0  0  0  0
  188.3770  178.2360  137.5480 C   0  0  0  0  0  2  0  0  0  0  0  0
  187.0850  177.5130  137.9140 C   0  0  2  0  0  3  0  0  0  0  0  0
  187.7870  175.2640  137.0820 C   0  0  0  0  0  3  0  0  0  0  0  0
  187.6180  174.2860  136.3100 O   0  0  0  0  0  0  0  0  0  0  0  0
  186.8880  176.3670  137.0420 N   0  0  0  0  0  2  0  0  0  0  0  0
  185.8770  178.4540  137.8950 C   0  0  0  0  0  2  0  0  0  0  0  0
  186.0280  178.9090  140.2360 O   0  0  0  0  0  1  0  0  0  0  0  0
  185.1450  178.5140  139.2310 C   0  0  1  0  0  3  0  0  0  0  0  0
  184.0070  179.5120  139.1280 C   0  0  0  0  0  2  0  0  0  0  0  0
  182.7640  178.9590  139.7970 C   0  0  0  0  0  1  0  0  0  0  0  0
  1  8  1  0  0  0  0
  2  1  2  0  0  0  0
  3  2  1  0  0  0  0
  4 17  1  6  0  0  0
  4  5  1  0  0  0  0
  4  3  1  0  0  0  0
  5  6  2  0  0  0  0
  5  2  1  0  0  0  0
  6  7  1  0  0  0  0
  7 15  1  0  0  0  0
  7  8  2  0  0  0  0
 10 11  1  0  0  0  0
 10 15  2  0  0  0  0
 11 14  1  0  0  0  0
 12 11  1  0  0  0  0
 13  9  1  0  0  0  0
 14 13  2  0  0  0  0
 15 13  1  0  0  0  0
 16 17  2  0  0  0  0
 18 16  1  0  0  0  0
 19 18  1  0  0  0  0
 20 19  1  6  0  0  0
 22 21  2  0  0  0  0
 23 21  1  0  0  0  0
 23 20  1  0  0  0  0
 24 20  1  0  0  0  0
 24 26  1  0  0  0  0
 26 25  1  1  0  0  0
 27 26  1  0  0  0  0
 27 28  1  0  0  0  0
M  END
>  <MODEL>
5

>  <REMARK>
 VINA RESULT:      -7.0      3.555      7.879
  Name = 
  9 active torsions:
  status: ('A' for Active; 'I' for Inactive)
    1  A    between atoms: C_1  and  C_28
    2  A    between atoms: C_6  and  C_7
    3  A    between atoms: C_6  and  C_14
    4  A    between atoms: C_10  and  N_27
    5  A    between atoms: C_14  and  C_26
    6  A    between atoms: C_19  and  C_24
    7  A    between atoms: N_22  and  C_26
    8  A    between atoms: C_25  and  C_26
    9  A    between atoms: C_25  and  C_28
                            x       y       z     vdW  Elec       q    Type
                         _______ _______ _______ _____ _____    ______ ____

>  <TORSDO>
F 9

$$$$
=
 OpenBabel11062413353D

 28 30  0  0  1  0  0  0  0  0999 V2000
  187.7690  176.1240  137.1150 N   0  0  0  0  0  0  0  0  0  0  0  0
  188.8100  176.6340  137.7950 C   0  0  0  0  0  0  0  0  0  0  0  0
  190.5850  176.4060  138.0290 S   0  0  0  0  0  0  0  0  0  0  0  0
  190.1230  177.6830  139.1010 C   0  0  1  0  0  3  0  0  0  0  0  0
  188.6860  177.6860  138.7210 C   0  0  0  0  0  0  0  0  0  0  0  0
  187.5150  178.2740  139.0180 N   0  0  0  0  0  0  0  0  0  0  0  0
  186.4170  177.7850  138.3430 C   0  0  0  0  0  0  0  0  0  0  0  0
  186.5530  176.7080  137.3900 C   0  0  0  0  0  3  0  0  0  0  0  0
  185.4690  179.4670  140.8520 N   0  0  0  0  0  1  0  0  0  0  0  0
  184.0320  178.2630  137.8020 N   0  0  0  0  0  0  0  0  0  0  0  0
  183.0430  178.9160  138.3960 N   0  0  0  0  0  0  0  0  0  0  0  0
  181.7150  179.0460  137.8280 C   0  0  0  0  0  1  0  0  0  0  0  0
  184.6840  179.1000  139.7220 C   0  0  0  0  0  0  0  0  0  0  0  0
  183.3950  179.4380  139.5620 N   0  0  0  0  0  0  0  0  0  0  0  0
  185.0930  178.3630  138.6280 C   0  0  0  0  0  0  0  0  0  0  0  0
  191.3030  177.5000  141.1410 C   0  0  0  0  0  3  0  0  0  0  0  0
  190.2470  177.2390  140.4640 N   0  0  0  0  0  0  0  0  0  0  0  0
  191.3710  177.1260  142.5850 C   0  0  0  0  0  2  0  0  0  0  0  0
  191.0990  178.3460  143.4570 C   0  0  0  0  0  2  0  0  0  0  0  0
  190.5930  177.9430  144.8380 C   0  0  2  0  0  3  0  0  0  0  0  0
  191.4180  176.5590  146.7470 C   0  0  0  0  0  3  0  0  0  0  0  0
  192.3680  176.1160  147.4420 O   0  0  0  0  0  0  0  0  0  0  0  0
  191.6840  177.4080  145.6360 N   0  0  0  0  0  2  0  0  0  0  0  0
  189.4190  176.9630  144.7540 C   0  0  0  0  0  2  0  0  0  0  0  0
  187.8420  176.9720  142.9570 O   0  0  0  0  0  1  0  0  0  0  0  0
  188.1590  177.5900  144.1680 C   0  0  1  0  0  3  0  0  0  0  0  0
  187.0140  177.4120  145.1480 C   0  0  0  0  0  2  0  0  0  0  0  0
  187.5020  177.6240  146.5680 C   0  0  0  0  0  1  0  0  0  0  0  0
  1  8  2  0  0  0  0
  1  2  1  0  0  0  0
  2  3  1  0  0  0  0
  2  5  2  0  0  0  0
  3  4  1  0  0  0  0
  4 17  1  1  0  0  0
  5  6  1  0  0  0  0
  5  4  1  0  0  0  0
  7 15  1  0  0  0  0
  7  6  2  0  0  0  0
  8  7  1  0  0  0  0
 10 11  1  0  0  0  0
 10 15  2  0  0  0  0
 11 14  1  0  0  0  0
 12 11  1  0  0  0  0
 13  9  1  0  0  0  0
 14 13  2  0  0  0  0
 15 13  1  0  0  0  0
 16 18  1  0  0  0  0
 17 16  2  0  0  0  0
 18 19  1  0  0  0  0
 20 19  1  6  0  0  0
 20 23  1  0  0  0  0
 21 22  2  0  0  0  0
 23 21  1  0  0  0  0
 24 20  1  0  0  0  0
 26 25  1  6  0  0  0
 26 24  1  0  0  0  0
 26 27  1  0  0  0  0
 27 28  1  0  0  0  0
M  END
>  <MODEL>
6

>  <REMARK>
 VINA RESULT:      -6.9      2.954      5.484
  Name = 
  9 active torsions:
  status: ('A' for Active; 'I' for Inactive)
    1  A    between atoms: C_1  and  C_28
    2  A    between atoms: C_6  and  C_7
    3  A    between atoms: C_6  and  C_14
    4  A    between atoms: C_10  and  N_27
    5  A    between atoms: C_14  and  C_26
    6  A    between atoms: C_19  and  C_24
    7  A    between atoms: N_22  and  C_26
    8  A    between atoms: C_25  and  C_26
    9  A    between atoms: C_25  and  C_28
                            x       y       z     vdW  Elec       q    Type
                         _______ _______ _______ _____ _____    ______ ____

>  <TORSDO>
F 9

$$$$
=
 OpenBabel11062413353D

 28 30  0  0  1  0  0  0  0  0999 V2000
  183.9990  179.0030  145.7140 N   0  0  0  0  0  0  0  0  0  0  0  0
  185.1990  178.4040  145.8030 C   0  0  0  0  0  0  0  0  0  0  0  0
  186.4710  177.9760  147.0100 S   0  0  0  0  0  0  0  0  0  0  0  0
  187.0830  177.4700  145.4730 C   0  0  1  0  0  3  0  0  0  0  0  0
  185.8960  177.9010  144.6900 C   0  0  0  0  0  0  0  0  0  0  0  0
  185.4300  177.9780  143.4310 N   0  0  0  0  0  0  0  0  0  0  0  0
  184.1990  178.5830  143.2890 C   0  0  0  0  0  0  0  0  0  0  0  0
  183.4880  179.0920  144.4380 C   0  0  0  0  0  3  0  0  0  0  0  0
  185.6650  179.2370  140.5600 N   0  0  0  0  0  1  0  0  0  0  0  0
  182.3220  178.5740  141.6520 N   0  0  0  0  0  0  0  0  0  0  0  0
  182.2090  178.7620  140.3450 N   0  0  0  0  0  0  0  0  0  0  0  0
  180.9490  178.6850  139.6300 C   0  0  0  0  0  1  0  0  0  0  0  0
  184.2730  179.0060  140.7500 C   0  0  0  0  0  0  0  0  0  0  0  0
  183.3670  179.0270  139.7590 N   0  0  0  0  0  0  0  0  0  0  0  0
  183.6300  178.7240  141.9390 C   0  0  0  0  0  0  0  0  0  0  0  0
  189.3900  177.7930  145.0730 C   0  0  0  0  0  3  0  0  0  0  0  0
  188.2080  178.2880  145.1070 N   0  0  0  0  0  0  0  0  0  0  0  0
  190.5310  178.6260  144.5890 C   0  0  0  0  0  2  0  0  0  0  0  0
  191.3080  177.8760  143.5130 C   0  0  0  0  0  2  0  0  0  0  0  0
  190.4450  176.8160  142.8380 C   0  0  2  0  0  3  0  0  0  0  0  0
  192.0360  175.3200  144.0520 C   0  0  0  0  0  3  0  0  0  0  0  0
  192.4310  174.1660  144.3560 O   0  0  0  0  0  0  0  0  0  0  0  0
  190.8960  175.4860  143.2150 N   0  0  0  0  0  2  0  0  0  0  0  0
  190.4080  176.9910  141.3170 C   0  0  0  0  0  2  0  0  0  0  0  0
  188.5500  178.4470  141.6920 O   0  0  0  0  0  1  0  0  0  0  0  0
  189.0640  177.4990  140.8070 C   0  0  1  0  0  3  0  0  0  0  0  0
  189.2590  178.1280  139.4400 C   0  0  0  0  0  2  0  0  0  0  0  0
  189.9840  177.1660  138.5190 C   0  0  0  0  0  1  0  0  0  0  0  0
  1  2  1  0  0  0  0
  2  3  1  0  0  0  0
  4 17  1  6  0  0  0
  4  3  1  0  0  0  0
  5  4  1  0  0  0  0
  5  2  2  0  0  0  0
  6  5  1  0  0  0  0
  7  6  2  0  0  0  0
  7  8  1  0  0  0  0
  8  1  2  0  0  0  0
  9 13  1  0  0  0  0
 10 15  2  0  0  0  0
 11 10  1  0  0  0  0
 12 11  1  0  0  0  0
 13 15  1  0  0  0  0
 14 11  1  0  0  0  0
 14 13  2  0  0  0  0
 15  7  1  0  0  0  0
 16 17  2  0  0  0  0
 18 16  1  0  0  0  0
 19 18  1  0  0  0  0
 20 24  1  6  0  0  0
 20 23  1  0  0  0  0
 20 19  1  0  0  0  0
 21 22  2  0  0  0  0
 23 21  1  0  0  0  0
 26 24  1  0  0  0  0
 26 25  1  1  0  0  0
 27 26  1  0  0  0  0
 28 27  1  0  0  0  0
M  END
>  <MODEL>
7

>  <REMARK>
 VINA RESULT:      -6.9      2.458      4.596
  Name = 
  9 active torsions:
  status: ('A' for Active; 'I' for Inactive)
    1  A    between atoms: C_1  and  C_28
    2  A    between atoms: C_6  and  C_7
    3  A    between atoms: C_6  and  C_14
    4  A    between atoms: C_10  and  N_27
    5  A    between atoms: C_14  and  C_26
    6  A    between atoms: C_19  and  C_24
    7  A    between atoms: N_22  and  C_26
    8  A    between atoms: C_25  and  C_26
    9  A    between atoms: C_25  and  C_28
                            x       y       z     vdW  Elec       q    Type
                         _______ _______ _______ _____ _____    ______ ____

>  <TORSDO>
F 9

$$$$
=
 OpenBabel11062413353D

 28 30  0  0  1  0  0  0  0  0999 V2000
  189.4420  177.4380  145.9410 N   0  0  0  0  0  0  0  0  0  0  0  0
  189.8370  176.8520  144.7970 C   0  0  0  0  0  0  0  0  0  0  0  0
  191.2960  176.1310  144.0180 S   0  0  0  0  0  0  0  0  0  0  0  0
  190.0390  176.0640  142.8310 C   0  0  1  0  0  3  0  0  0  0  0  0
  188.9900  176.6760  143.6880 C   0  0  0  0  0  0  0  0  0  0  0  0
  187.7090  177.0820  143.6650 N   0  0  0  0  0  0  0  0  0  0  0  0
  187.2570  177.6860  144.8180 C   0  0  0  0  0  0  0  0  0  0  0  0
  188.1310  177.8600  145.9550 C   0  0  0  0  0  3  0  0  0  0  0  0
  185.6320  178.8530  147.2720 N   0  0  0  0  0  1  0  0  0  0  0  0
  185.0460  178.2160  143.7990 N   0  0  0  0  0  0  0  0  0  0  0  0
  183.9050  178.7300  144.2360 N   0  0  0  0  0  0  0  0  0  0  0  0
  182.7460  178.9420  143.3890 C   0  0  0  0  0  1  0  0  0  0  0  0
  185.1650  178.6910  145.9370 C   0  0  0  0  0  0  0  0  0  0  0  0
  183.9340  179.0320  145.5260 N   0  0  0  0  0  0  0  0  0  0  0  0
  185.8700  178.1780  144.8650 C   0  0  0  0  0  0  0  0  0  0  0  0
  189.8940  176.7440  140.5710 C   0  0  0  0  0  3  0  0  0  0  0  0
  190.3440  176.9650  141.7510 N   0  0  0  0  0  0  0  0  0  0  0  0
  190.1300  177.7430  139.4870 C   0  0  0  0  0  2  0  0  0  0  0  0
  188.8250  178.4390  139.1210 C   0  0  0  0  0  2  0  0  0  0  0  0
  188.7210  178.6750  137.6170 C   0  0  2  0  0  3  0  0  0  0  0  0
  186.3130  178.2100  138.0960 C   0  0  0  0  0  3  0  0  0  0  0  0
  185.1140  178.1760  137.7200 O   0  0  0  0  0  0  0  0  0  0  0  0
  187.3280  178.6520  137.2010 N   0  0  0  0  0  2  0  0  0  0  0  0
  189.5660  177.6750  136.8220 C   0  0  0  0  0  2  0  0  0  0  0  0
  189.2580  176.4600  134.7860 O   0  0  0  0  0  1  0  0  0  0  0  0
  188.7250  176.6560  136.0610 C   0  0  1  0  0  3  0  0  0  0  0  0
  188.7270  175.3430  136.8230 C   0  0  0  0  0  2  0  0  0  0  0  0
  187.3070  174.8460  137.0130 C   0  0  0  0  0  1  0  0  0  0  0  0
  1  8  1  0  0  0  0
  2  1  2  0  0  0  0
  3  2  1  0  0  0  0
  4 17  1  6  0  0  0
  4  5  1  0  0  0  0
  4  3  1  0  0  0  0
  5  2  1  0  0  0  0
  6  5  2  0  0  0  0
  6  7  1  0  0  0  0
  7 15  1  0  0  0  0
  7  8  2  0  0  0  0
 10 11  1  0  0  0  0
 10 15  2  0  0  0  0
 11 14  1  0  0  0  0
 12 11  1  0  0  0  0
 13  9  1  0  0  0  0
 14 13  2  0  0  0  0
 15 13  1  0  0  0  0
 16 17  2  0  0  0  0
 18 16  1  0  0  0  0
 19 18  1  0  0  0  0
 20 24  1  6  0  0  0
 20 19  1  0  0  0  0
 22 21  2  0  0  0  0
 23 20  1  0  0  0  0
 23 21  1  0  0  0  0
 26 25  1  6  0  0  0
 26 24  1  0  0  0  0
 26 27  1  0  0  0  0
 27 28  1  0  0  0  0
M  END
>  <MODEL>
8

>  <REMARK>
 VINA RESULT:      -6.8      3.925      7.831
  Name = 
  9 active torsions:
  status: ('A' for Active; 'I' for Inactive)
    1  A    between atoms: C_1  and  C_28
    2  A    between atoms: C_6  and  C_7
    3  A    between atoms: C_6  and  C_14
    4  A    between atoms: C_10  and  N_27
    5  A    between atoms: C_14  and  C_26
    6  A    between atoms: C_19  and  C_24
    7  A    between atoms: N_22  and  C_26
    8  A    between atoms: C_25  and  C_26
    9  A    between atoms: C_25  and  C_28
                            x       y       z     vdW  Elec       q    Type
                         _______ _______ _______ _____ _____    ______ ____

>  <TORSDO>
F 9

$$$$
=
 OpenBabel11062413353D

 28 30  0  0  1  0  0  0  0  0999 V2000
  189.6670  177.6760  137.0840 N   0  0  0  0  0  0  0  0  0  0  0  0
  189.3340  177.5310  138.3780 C   0  0  0  0  0  0  0  0  0  0  0  0
  188.3070  178.2810  139.6590 S   0  0  0  0  0  0  0  0  0  0  0  0
  189.1600  176.9870  140.4280 C   0  0  1  0  0  3  0  0  0  0  0  0
  189.8890  176.5430  139.2110 C   0  0  0  0  0  0  0  0  0  0  0  0
  190.8080  175.6550  138.7940 N   0  0  0  0  0  0  0  0  0  0  0  0
  191.1790  175.7630  137.4710 C   0  0  0  0  0  0  0  0  0  0  0  0
  190.6010  176.7780  136.6200 C   0  0  0  0  0  3  0  0  0  0  0  0
  194.2070  176.3320  136.7430 N   0  0  0  0  0  1  0  0  0  0  0  0
  191.9740  173.5360  136.6880 N   0  0  0  0  0  0  0  0  0  0  0  0
  193.1230  173.0480  136.2430 N   0  0  0  0  0  0  0  0  0  0  0  0
  193.3080  171.6620  135.8540 C   0  0  0  0  0  1  0  0  0  0  0  0
  193.5190  175.0920  136.6290 C   0  0  0  0  0  0  0  0  0  0  0  0
  194.0860  173.9570  136.1910 N   0  0  0  0  0  0  0  0  0  0  0  0
  192.1970  174.8410  136.9420 C   0  0  0  0  0  0  0  0  0  0  0  0
  190.2800  176.9610  142.5100 C   0  0  0  0  0  3  0  0  0  0  0  0
  190.1050  177.5230  141.3710 N   0  0  0  0  0  0  0  0  0  0  0  0
  191.3400  177.4660  143.4320 C   0  0  0  0  0  2  0  0  0  0  0  0
  190.7370  178.4360  144.4420 C   0  0  0  0  0  2  0  0  0  0  0  0
  190.5000  177.7620  145.7900 C   0  0  2  0  0  3  0  0  0  0  0  0
  191.7650  176.3980  147.4560 C   0  0  0  0  0  3  0  0  0  0  0  0
  192.7640  175.6940  147.7560 O   0  0  0  0  0  0  0  0  0  0  0  0
  191.6380  176.9290  146.1420 N   0  0  0  0  0  2  0  0  0  0  0  0
  189.1900  176.9680  145.8090 C   0  0  0  0  0  2  0  0  0  0  0  0
  187.3740  177.2120  144.2740 O   0  0  0  0  0  1  0  0  0  0  0  0
  187.9830  177.7970  145.3850 C   0  0  1  0  0  3  0  0  0  0  0  0
  186.9960  177.8600  146.5350 C   0  0  0  0  0  2  0  0  0  0  0  0
  185.8010  178.7120  146.1540 C   0  0  0  0  0  1  0  0  0  0  0  0
  1  2  1  0  0  0  0
  2  5  2  0  0  0  0
  2  3  1  0  0  0  0
  3  4  1  0  0  0  0
  4 17  1  1  0  0  0
  5  4  1  0  0  0  0
  6  5  1  0  0  0  0
  7  6  2  0  0  0  0
  8  1  2  0  0  0  0
  8  7  1  0  0  0  0
 10 15  2  0  0  0  0
 11 10  1  0  0  0  0
 12 11  1  0  0  0  0
 13  9  1  0  0  0  0
 13 15  1  0  0  0  0
 14 11  1  0  0  0  0
 14 13  2  0  0  0  0
 15  7  1  0  0  0  0
 16 18  1  0  0  0  0
 17 16  2  0  0  0  0
 18 19  1  0  0  0  0
 20 19  1  6  0  0  0
 20 24  1  0  0  0  0
 20 23  1  0  0  0  0
 21 22  2  0  0  0  0
 23 21  1  0  0  0  0
 26 25  1  6  0  0  0
 26 24  1  0  0  0  0
 26 27  1  0  0  0  0
 28 27  1  0  0  0  0
M  END
>  <MODEL>
9

>  <REMARK>
 VINA RESULT:      -6.7      3.447      5.580
  Name = 
  9 active torsions:
  status: ('A' for Active; 'I' for Inactive)
    1  A    between atoms: C_1  and  C_28
    2  A    between atoms: C_6  and  C_7
    3  A    between atoms: C_6  and  C_14
    4  A    between atoms: C_10  and  N_27
    5  A    between atoms: C_14  and  C_26
    6  A    between atoms: C_19  and  C_24
    7  A    between atoms: N_22  and  C_26
    8  A    between atoms: C_25  and  C_26
    9  A    between atoms: C_25  and  C_28
                            x       y       z     vdW  Elec       q    Type
                         _______ _______ _______ _____ _____    ______ ____

>  <TORSDO>
F 9

$$$$
