=
 OpenBabel11062415533D

 41 45  0  0  1  0  0  0  0  0999 V2000
  191.2350  176.7990  146.1690 C   0  0  0  0  0  2  0  0  0  0  0  0
  190.4250  177.4760  145.0800 C   0  0  2  0  0  3  0  0  0  0  0  0
  189.4260  177.4690  142.9150 C   0  0  1  0  0  0  0  0  0  0  0  0
  189.4300  177.6620  147.6780 C   0  0  0  0  0  0  0  0  0  0  0  0
  188.4770  177.8840  146.5170 C   0  0  1  0  0  3  0  0  0  0  0  0
  187.4460  176.2580  143.7340 O   0  0  0  0  0  1  0  0  0  0  0  0
  188.9920  177.1020  145.3090 C   0  0  1  0  0  3  0  0  0  0  0  0
  188.2930  177.3420  143.9800 C   0  0  1  0  0  3  0  0  0  0  0  0
  190.7590  177.2410  147.4520 O   0  0  0  0  0  0  0  0  0  0  0  0
  189.5870  178.9420  142.5290 C   0  0  0  0  0  1  0  0  0  0  0  0
  190.6990  177.0550  143.6550 C   0  0  0  0  0  2  0  0  0  0  0  0
  189.0720  177.9610  148.8500 O   0  0  0  0  0  0  0  0  0  0  0  0
  187.0820  177.4790  146.8750 C   0  0  0  0  0  3  0  0  0  0  0  0
  185.0730  178.3540  145.4580 C   0  0  0  0  0  3  0  0  0  0  0  0
  186.0680  177.9100  146.1720 C   0  0  0  0  0  0  0  0  0  0  0  0
  185.2460  179.5920  144.6500 C   0  0  0  0  0  2  0  0  0  0  0  0
  184.4760  179.4710  143.3440 C   0  0  2  0  0  3  0  0  0  0  0  0
  183.0930  178.9140  143.6280 C   0  0  0  0  0  1  0  0  0  0  0  0
  185.1750  178.5990  142.4610 O   0  0  0  0  0  0  0  0  0  0  0  0
  186.5720  178.9240  140.6480 O   0  0  0  0  0  0  0  0  0  0  0  0
  185.4000  178.9110  141.1210 C   0  0  0  0  0  0  0  0  0  0  0  0
  184.4980  180.0970  139.2720 O   0  0  0  0  0  1  0  0  0  0  0  0
  184.2300  179.1010  140.2170 C   0  0  0  0  0  2  0  0  0  0  0  0
  189.2910  176.6560  141.7540 O   0  0  0  0  0  0  0  0  0  0  0  0
  193.4090  176.8290  138.3910 O   0  0  0  0  0  0  0  0  0  0  0  0
  189.9920  176.8330  138.3040 C   0  0  1  0  0  3  0  0  0  0  0  0
  190.5670  176.4340  136.1830 C   0  0  0  0  0  2  0  0  0  0  0  0
  192.3140  176.4430  138.0180 C   0  0  0  0  0  0  0  0  0  0  0  0
  188.9560  176.9180  139.3880 C   0  0  0  0  0  2  0  0  0  0  0  0
  191.1830  176.2250  138.9690 C   0  0  1  0  0  3  0  0  0  0  0  0
  191.2410  176.9420  140.3010 C   0  0  0  0  0  2  0  0  0  0  0  0
  192.0520  176.1520  136.5570 C   0  0  1  0  0  3  0  0  0  0  0  0
  189.7840  177.3200  140.6110 C   0  0  2  0  0  3  0  0  0  0  0  0
  189.6490  176.0520  137.1910 O   0  0  0  0  0  0  0  0  0  0  0  0
  192.3920  174.8250  136.2570 O   0  0  0  0  0  0  0  0  0  0  0  0
  193.7930  174.7930  136.3300 C   0  0  2  0  0  3  0  0  0  0  0  0
  195.8800  175.0710  135.1140 O   0  0  0  0  0  0  0  0  0  0  0  0
  194.4770  175.0910  134.9850 C   0  0  2  0  0  3  0  0  0  0  0  0
  195.2750  176.3390  135.0190 C   0  0  0  0  0  2  0  0  0  0  0  0
  194.2790  173.4620  136.8960 C   0  0  0  0  0  2  0  0  0  0  0  0
  194.0050  172.4300  135.9950 O   0  0  0  0  0  1  0  0  0  0  0  0
  1  9  1  0  0  0  0
  2 11  1  6  0  0  0
  2  7  1  0  0  0  0
  2  1  1  0  0  0  0
  3 10  1  6  0  0  0
  3 11  1  0  0  0  0
  3  8  1  0  0  0  0
  4 12  2  0  0  0  0
  5 13  1  1  0  0  0
  5  4  1  0  0  0  0
  6  8  1  0  0  0  0
  7  5  1  0  0  0  0
  8  7  1  0  0  0  0
  9  4  1  0  0  0  0
 14 15  2  0  0  0  0
 15 13  2  0  0  0  0
 16 14  1  0  0  0  0
 17 18  1  0  0  0  0
 17 16  1  0  0  0  0
 19 17  1  0  0  0  0
 20 21  2  0  0  0  0
 21 19  1  0  0  0  0
 22 23  1  0  0  0  0
 23 21  1  0  0  0  0
 24  3  1  0  0  0  0
 26 30  1  0  0  0  0
 26 29  1  0  0  0  0
 27 32  1  0  0  0  0
 27 34  1  0  0  0  0
 28 25  2  0  0  0  0
 28 30  1  0  0  0  0
 29 33  1  0  0  0  0
 30 31  1  0  0  0  0
 31 33  1  0  0  0  0
 32 28  1  0  0  0  0
 33 24  1  0  0  0  0
 34 26  1  0  0  0  0
 35 36  1  0  0  0  0
 35 32  1  0  0  0  0
 36 40  1  0  0  0  0
 38 39  1  0  0  0  0
 38 37  1  0  0  0  0
 38 36  1  0  0  0  0
 39 37  1  0  0  0  0
 41 40  1  0  0  0  0
M  END
>  <MODEL>
1

>  <REMARK>
 VINA RESULT:      -8.5      0.000      0.000
  Name = 
  12 active torsions:
  status: ('A' for Active; 'I' for Inactive)
    1  A    between atoms: C_2  and  C_16
    2  A    between atoms: C_4  and  C_41
    3  A    between atoms: O_11  and  C_28
    4  A    between atoms: O_11  and  C_40
    5  A    between atoms: C_12  and  O_29
    6  A    between atoms: C_13  and  C_40
    7  A    between atoms: C_14  and  C_33
    8  A    between atoms: C_21  and  C_33
    9  A    between atoms: O_25  and  C_32
   10  A    between atoms: O_25  and  C_33
   11  A    between atoms: C_28  and  C_41
   12  A    between atoms: O_29  and  C_34
                            x       y       z     vdW  Elec       q    Type
                         _______ _______ _______ _____ _____    ______ ____

>  <TORSDO>
F 12

$$$$
=
 OpenBabel11062415533D

 41 45  0  0  1  0  0  0  0  0999 V2000
  188.7680  177.8190  147.6960 C   0  0  0  0  0  2  0  0  0  0  0  0
  188.3460  177.3640  146.3110 C   0  0  2  0  0  3  0  0  0  0  0  0
  187.1900  177.7300  144.2590 C   0  0  1  0  0  0  0  0  0  0  0  0
  191.0230  176.9820  146.9930 C   0  0  0  0  0  0  0  0  0  0  0  0
  190.6420  177.0000  145.5230 C   0  0  1  0  0  3  0  0  0  0  0  0
  189.0590  179.0410  143.3360 O   0  0  0  0  0  1  0  0  0  0  0  0
  189.3890  177.8580  145.3550 C   0  0  1  0  0  3  0  0  0  0  0  0
  188.7220  177.8510  143.9890 C   0  0  1  0  0  3  0  0  0  0  0  0
  190.0700  177.2840  147.9900 O   0  0  0  0  0  0  0  0  0  0  0  0
  186.7370  176.3040  143.9360 C   0  0  0  0  0  1  0  0  0  0  0  0
  187.0480  177.9170  145.7700 C   0  0  0  0  0  2  0  0  0  0  0  0
  192.1700  176.5880  147.3390 O   0  0  0  0  0  0  0  0  0  0  0  0
  191.7680  177.5060  144.6760 C   0  0  0  0  0  3  0  0  0  0  0  0
  191.5960  177.3760  142.0760 C   0  0  0  0  0  3  0  0  0  0  0  0
  191.6920  177.4470  143.3730 C   0  0  0  0  0  0  0  0  0  0  0  0
  190.6610  176.3930  141.4640 C   0  0  0  0  0  2  0  0  0  0  0  0
  190.4630  176.7130  139.9900 C   0  0  2  0  0  3  0  0  0  0  0  0
  191.8190  176.8730  139.3260 C   0  0  0  0  0  1  0  0  0  0  0  0
  189.7190  177.9210  139.8630 O   0  0  0  0  0  0  0  0  0  0  0  0
  188.7110  179.3000  138.3040 O   0  0  0  0  0  0  0  0  0  0  0  0
  188.8320  178.1480  138.8110 C   0  0  0  0  0  0  0  0  0  0  0  0
  187.3840  177.3960  137.0860 O   0  0  0  0  0  1  0  0  0  0  0  0
  188.1220  176.9880  138.2020 C   0  0  0  0  0  2  0  0  0  0  0  0
  186.3600  178.6830  143.6030 O   0  0  0  0  0  0  0  0  0  0  0  0
  181.5940  178.1420  141.3030 O   0  0  0  0  0  0  0  0  0  0  0  0
  184.8190  178.8700  140.4380 C   0  0  1  0  0  3  0  0  0  0  0  0
  183.6510  179.4460  138.6240 C   0  0  0  0  0  2  0  0  0  0  0  0
  182.4730  178.7990  140.7720 C   0  0  0  0  0  0  0  0  0  0  0  0
  186.1020  178.8460  141.2190 C   0  0  0  0  0  2  0  0  0  0  0  0
  183.7600  179.1090  141.4630 C   0  0  1  0  0  3  0  0  0  0  0  0
  184.1730  178.2090  142.6080 C   0  0  0  0  0  2  0  0  0  0  0  0
  182.2900  179.3510  139.3750 C   0  0  1  0  0  3  0  0  0  0  0  0
  185.7030  178.1050  142.4960 C   0  0  2  0  0  3  0  0  0  0  0  0
  184.7230  179.8600  139.4500 O   0  0  0  0  0  0  0  0  0  0  0  0
  181.6660  180.6060  139.4250 O   0  0  0  0  0  0  0  0  0  0  0  0
  180.3880  180.3870  138.8860 C   0  0  2  0  0  3  0  0  0  0  0  0
  179.0830  180.4520  136.8370 O   0  0  0  0  0  0  0  0  0  0  0  0
  180.2100  180.9950  137.4850 C   0  0  2  0  0  3  0  0  0  0  0  0
  180.3390  179.9830  136.4080 C   0  0  0  0  0  2  0  0  0  0  0  0
  179.3050  180.8950  139.8330 C   0  0  0  0  0  2  0  0  0  0  0  0
  179.8360  181.0840  141.1120 O   0  0  0  0  0  1  0  0  0  0  0  0
  1  9  1  0  0  0  0
  2 11  1  6  0  0  0
  2  1  1  0  0  0  0
  3 10  1  6  0  0  0
  3 11  1  0  0  0  0
  4 12  2  0  0  0  0
  4  9  1  0  0  0  0
  5 13  1  6  0  0  0
  5  4  1  0  0  0  0
  6  8  1  0  0  0  0
  7  5  1  0  0  0  0
  7  2  1  0  0  0  0
  8  3  1  0  0  0  0
  8  7  1  0  0  0  0
 14 15  2  0  0  0  0
 15 13  2  0  0  0  0
 16 14  1  0  0  0  0
 17 16  1  0  0  0  0
 18 17  1  0  0  0  0
 19 17  1  0  0  0  0
 20 21  2  0  0  0  0
 21 19  1  0  0  0  0
 22 23  1  0  0  0  0
 23 21  1  0  0  0  0
 24  3  1  0  0  0  0
 26 29  1  0  0  0  0
 26 30  1  0  0  0  0
 27 32  1  0  0  0  0
 27 34  1  0  0  0  0
 28 25  2  0  0  0  0
 28 30  1  0  0  0  0
 29 33  1  0  0  0  0
 30 31  1  0  0  0  0
 32 35  1  0  0  0  0
 32 28  1  0  0  0  0
 33 31  1  0  0  0  0
 33 24  1  0  0  0  0
 34 26  1  0  0  0  0
 36 35  1  0  0  0  0
 36 40  1  0  0  0  0
 37 38  1  0  0  0  0
 38 36  1  0  0  0  0
 39 37  1  0  0  0  0
 39 38  1  0  0  0  0
 40 41  1  0  0  0  0
M  END
>  <MODEL>
2

>  <REMARK>
 VINA RESULT:      -7.7      3.000      8.519
  Name = 
  12 active torsions:
  status: ('A' for Active; 'I' for Inactive)
    1  A    between atoms: C_2  and  C_16
    2  A    between atoms: C_4  and  C_41
    3  A    between atoms: O_11  and  C_28
    4  A    between atoms: O_11  and  C_40
    5  A    between atoms: C_12  and  O_29
    6  A    between atoms: C_13  and  C_40
    7  A    between atoms: C_14  and  C_33
    8  A    between atoms: C_21  and  C_33
    9  A    between atoms: O_25  and  C_32
   10  A    between atoms: O_25  and  C_33
   11  A    between atoms: C_28  and  C_41
   12  A    between atoms: O_29  and  C_34
                            x       y       z     vdW  Elec       q    Type
                         _______ _______ _______ _____ _____    ______ ____

>  <TORSDO>
F 12

$$$$
=
 OpenBabel11062415533D

 41 45  0  0  1  0  0  0  0  0999 V2000
  184.6410  177.7170  137.9990 C   0  0  0  0  0  2  0  0  0  0  0  0
  186.1220  177.8000  137.6810 C   0  0  2  0  0  3  0  0  0  0  0  0
  188.4010  177.3680  138.2340 C   0  0  1  0  0  0  0  0  0  0  0  0
  184.4390  176.9960  135.6070 C   0  0  0  0  0  0  0  0  0  0  0  0
  185.9170  176.6540  135.5200 C   0  0  1  0  0  3  0  0  0  0  0  0
  188.2690  175.0680  137.3640 O   0  0  0  0  0  1  0  0  0  0  0  0
  186.4770  176.5480  136.9370 C   0  0  1  0  0  3  0  0  0  0  0  0
  187.9840  176.4060  137.0780 C   0  0  1  0  0  3  0  0  0  0  0  0
  183.9030  177.5900  136.7710 O   0  0  0  0  0  0  0  0  0  0  0  0
  189.0720  178.6070  137.6370 C   0  0  0  0  0  1  0  0  0  0  0  0
  187.0780  177.8240  138.8510 C   0  0  0  0  0  2  0  0  0  0  0  0
  183.7010  176.8530  134.5960 O   0  0  0  0  0  0  0  0  0  0  0  0
  186.1360  175.3900  134.7490 C   0  0  0  0  0  3  0  0  0  0  0  0
  185.0930  173.1550  135.6020 C   0  0  0  0  0  3  0  0  0  0  0  0
  185.6180  174.2650  135.1660 C   0  0  0  0  0  0  0  0  0  0  0  0
  184.7260  173.0330  137.0380 C   0  0  0  0  0  2  0  0  0  0  0  0
  183.3600  172.3780  137.1720 C   0  0  2  0  0  3  0  0  0  0  0  0
  183.3790  171.0330  136.4680 C   0  0  0  0  0  1  0  0  0  0  0  0
  182.3720  173.2170  136.5800 O   0  0  0  0  0  0  0  0  0  0  0  0
  181.8330  175.1390  137.7480 O   0  0  0  0  0  0  0  0  0  0  0  0
  181.4950  173.9920  137.3380 C   0  0  0  0  0  0  0  0  0  0  0  0
  179.8670  172.3500  136.7980 O   0  0  0  0  0  1  0  0  0  0  0  0
  180.1010  173.5070  137.5480 C   0  0  0  0  0  2  0  0  0  0  0  0
  189.2090  176.8020  139.2600 O   0  0  0  0  0  0  0  0  0  0  0  0
  187.8370  177.7670  144.3090 O   0  0  0  0  0  0  0  0  0  0  0  0
  190.6300  177.7700  142.3380 C   0  0  1  0  0  3  0  0  0  0  0  0
  191.4550  177.8720  144.4110 C   0  0  0  0  0  2  0  0  0  0  0  0
  188.9840  177.4710  144.0190 C   0  0  0  0  0  0  0  0  0  0  0  0
  190.8190  177.5980  140.8580 C   0  0  0  0  0  2  0  0  0  0  0  0
  189.3670  177.0340  142.6430 C   0  0  1  0  0  3  0  0  0  0  0  0
  188.4510  177.4250  141.5040 C   0  0  0  0  0  2  0  0  0  0  0  0
  190.0830  177.5210  145.0570 C   0  0  1  0  0  3  0  0  0  0  0  0
  189.3900  177.7140  140.3220 C   0  0  2  0  0  3  0  0  0  0  0  0
  191.6550  177.2640  143.1480 O   0  0  0  0  0  0  0  0  0  0  0  0
  190.1600  176.3000  145.7440 O   0  0  0  0  0  0  0  0  0  0  0  0
  190.1580  176.6580  147.1010 C   0  0  2  0  0  3  0  0  0  0  0  0
  189.3350  178.2220  148.7700 O   0  0  0  0  0  0  0  0  0  0  0  0
  189.2730  177.8790  147.4050 C   0  0  2  0  0  3  0  0  0  0  0  0
  188.1690  177.5590  148.3420 C   0  0  0  0  0  2  0  0  0  0  0  0
  191.5810  176.8880  147.6050 C   0  0  0  0  0  2  0  0  0  0  0  0
  192.1490  175.6760  148.0060 O   0  0  0  0  0  1  0  0  0  0  0  0
  2  1  1  1  0  0  0
  2 11  1  0  0  0  0
  3 10  1  6  0  0  0
  3 11  1  0  0  0  0
  3 24  1  0  0  0  0
  4  9  1  0  0  0  0
  5 13  1  1  0  0  0
  5  4  1  0  0  0  0
  5  7  1  0  0  0  0
  7  8  1  0  0  0  0
  7  2  1  0  0  0  0
  8  6  1  0  0  0  0
  8  3  1  0  0  0  0
  9  1  1  0  0  0  0
 12  4  2  0  0  0  0
 13 15  2  0  0  0  0
 14 16  1  0  0  0  0
 15 14  2  0  0  0  0
 16 17  1  0  0  0  0
 18 17  1  0  0  0  0
 19 17  1  0  0  0  0
 19 21  1  0  0  0  0
 21 23  1  0  0  0  0
 21 20  2  0  0  0  0
 22 23  1  0  0  0  0
 24 33  1  0  0  0  0
 26 30  1  0  0  0  0
 26 34  1  0  0  0  0
 27 32  1  0  0  0  0
 28 25  2  0  0  0  0
 28 32  1  0  0  0  0
 29 26  1  0  0  0  0
 30 28  1  0  0  0  0
 31 30  1  0  0  0  0
 32 35  1  0  0  0  0
 33 29  1  0  0  0  0
 33 31  1  0  0  0  0
 34 27  1  0  0  0  0
 35 36  1  0  0  0  0
 36 38  1  0  0  0  0
 36 40  1  0  0  0  0
 38 39  1  0  0  0  0
 38 37  1  0  0  0  0
 39 37  1  0  0  0  0
 40 41  1  0  0  0  0
M  END
>  <MODEL>
3

>  <REMARK>
 VINA RESULT:      -6.7      4.201      9.501
  Name = 
  12 active torsions:
  status: ('A' for Active; 'I' for Inactive)
    1  A    between atoms: C_2  and  C_16
    2  A    between atoms: C_4  and  C_41
    3  A    between atoms: O_11  and  C_28
    4  A    between atoms: O_11  and  C_40
    5  A    between atoms: C_12  and  O_29
    6  A    between atoms: C_13  and  C_40
    7  A    between atoms: C_14  and  C_33
    8  A    between atoms: C_21  and  C_33
    9  A    between atoms: O_25  and  C_32
   10  A    between atoms: O_25  and  C_33
   11  A    between atoms: C_28  and  C_41
   12  A    between atoms: O_29  and  C_34
                            x       y       z     vdW  Elec       q    Type
                         _______ _______ _______ _____ _____    ______ ____

>  <TORSDO>
F 12

$$$$
=
 OpenBabel11062415533D

 41 45  0  0  1  0  0  0  0  0999 V2000
  181.2710  181.0760  138.7940 C   0  0  0  0  0  2  0  0  0  0  0  0
  180.8820  179.6470  138.4650 C   0  0  2  0  0  3  0  0  0  0  0  0
  181.4560  177.4290  137.8040 C   0  0  1  0  0  0  0  0  0  0  0  0
  179.7420  180.7590  140.7550 C   0  0  0  0  0  0  0  0  0  0  0  0
  179.7850  179.2460  140.6240 C   0  0  1  0  0  3  0  0  0  0  0  0
  182.0720  176.8070  140.1050 O   0  0  0  0  0  1  0  0  0  0  0  0
  180.9730  178.8670  139.7420 C   0  0  1  0  0  3  0  0  0  0  0  0
  181.0860  177.4110  139.3200 C   0  0  1  0  0  3  0  0  0  0  0  0
  180.3820  181.5850  139.8040 O   0  0  0  0  0  0  0  0  0  0  0  0
  180.2200  177.0540  136.9830 C   0  0  0  0  0  1  0  0  0  0  0  0
  181.7710  178.8950  137.5020 C   0  0  0  0  0  2  0  0  0  0  0  0
  179.0380  181.2920  141.6550 O   0  0  0  0  0  0  0  0  0  0  0  0
  179.8690  178.5880  141.9660 C   0  0  0  0  0  3  0  0  0  0  0  0
  182.0990  178.6830  143.3180 C   0  0  0  0  0  3  0  0  0  0  0  0
  180.9800  178.6300  142.6530 C   0  0  0  0  0  0  0  0  0  0  0  0
  183.3720  178.9330  142.5910 C   0  0  0  0  0  2  0  0  0  0  0  0
  184.5510  178.4750  143.4360 C   0  0  2  0  0  3  0  0  0  0  0  0
  184.7110  179.4120  144.6200 C   0  0  0  0  0  1  0  0  0  0  0  0
  185.7360  178.4910  142.6460 O   0  0  0  0  0  0  0  0  0  0  0  0
  186.8910  177.0310  144.0180 O   0  0  0  0  0  0  0  0  0  0  0  0
  186.8620  177.7330  142.9670 C   0  0  0  0  0  0  0  0  0  0  0  0
  188.3940  178.9370  141.6110 O   0  0  0  0  0  1  0  0  0  0  0  0
  187.9820  177.6540  141.9870 C   0  0  0  0  0  2  0  0  0  0  0  0
  182.5750  176.6370  137.4220 O   0  0  0  0  0  0  0  0  0  0  0  0
  187.4660  178.4090  138.5320 O   0  0  0  0  0  0  0  0  0  0  0  0
  185.7270  177.0820  135.9060 C   0  0  1  0  0  3  0  0  0  0  0  0
  187.8550  176.9440  135.2440 C   0  0  0  0  0  2  0  0  0  0  0  0
  187.2780  177.6280  137.6140 C   0  0  0  0  0  0  0  0  0  0  0  0
  184.2720  176.7540  135.7230 C   0  0  0  0  0  2  0  0  0  0  0  0
  185.9510  176.9840  137.3790 C   0  0  1  0  0  3  0  0  0  0  0  0
  184.7310  177.6630  137.9640 C   0  0  0  0  0  2  0  0  0  0  0  0
  188.3990  177.2610  136.6680 C   0  0  1  0  0  3  0  0  0  0  0  0
  183.6200  177.4430  136.9240 C   0  0  2  0  0  3  0  0  0  0  0  0
  186.6310  176.2330  135.2540 O   0  0  0  0  0  0  0  0  0  0  0  0
  189.1250  176.1730  137.1720 O   0  0  0  0  0  0  0  0  0  0  0  0
  190.4700  176.5130  136.9530 C   0  0  2  0  0  3  0  0  0  0  0  0
  192.4800  175.9860  135.6920 O   0  0  0  0  0  0  0  0  0  0  0  0
  191.2170  175.4940  136.0760 C   0  0  2  0  0  3  0  0  0  0  0  0
  191.4740  176.0060  134.7080 C   0  0  0  0  0  2  0  0  0  0  0  0
  191.2010  176.7180  138.2770 C   0  0  0  0  0  2  0  0  0  0  0  0
  190.5660  175.9980  139.2920 O   0  0  0  0  0  1  0  0  0  0  0  0
  1  9  1  0  0  0  0
  2 11  1  6  0  0  0
  2  1  1  0  0  0  0
  2  7  1  0  0  0  0
  3 10  1  6  0  0  0
  3  8  1  0  0  0  0
  4 12  2  0  0  0  0
  5  4  1  0  0  0  0
  5 13  1  1  0  0  0
  7  5  1  0  0  0  0
  8  7  1  0  0  0  0
  8  6  1  0  0  0  0
  9  4  1  0  0  0  0
 11  3  1  0  0  0  0
 13 15  2  0  0  0  0
 15 14  2  0  0  0  0
 16 14  1  0  0  0  0
 16 17  1  0  0  0  0
 17 18  1  0  0  0  0
 19 21  1  0  0  0  0
 19 17  1  0  0  0  0
 21 20  2  0  0  0  0
 22 23  1  0  0  0  0
 23 21  1  0  0  0  0
 24  3  1  0  0  0  0
 26 30  1  0  0  0  0
 27 34  1  0  0  0  0
 27 32  1  0  0  0  0
 28 25  2  0  0  0  0
 29 26  1  0  0  0  0
 29 33  1  0  0  0  0
 30 28  1  0  0  0  0
 30 31  1  0  0  0  0
 32 35  1  0  0  0  0
 32 28  1  0  0  0  0
 33 24  1  0  0  0  0
 33 31  1  0  0  0  0
 34 26  1  0  0  0  0
 36 35  1  0  0  0  0
 36 40  1  0  0  0  0
 37 38  1  0  0  0  0
 38 36  1  0  0  0  0
 39 37  1  0  0  0  0
 39 38  1  0  0  0  0
 40 41  1  0  0  0  0
M  END
>  <MODEL>
4

>  <REMARK>
 VINA RESULT:      -6.7      3.195      7.252
  Name = 
  12 active torsions:
  status: ('A' for Active; 'I' for Inactive)
    1  A    between atoms: C_2  and  C_16
    2  A    between atoms: C_4  and  C_41
    3  A    between atoms: O_11  and  C_28
    4  A    between atoms: O_11  and  C_40
    5  A    between atoms: C_12  and  O_29
    6  A    between atoms: C_13  and  C_40
    7  A    between atoms: C_14  and  C_33
    8  A    between atoms: C_21  and  C_33
    9  A    between atoms: O_25  and  C_32
   10  A    between atoms: O_25  and  C_33
   11  A    between atoms: C_28  and  C_41
   12  A    between atoms: O_29  and  C_34
                            x       y       z     vdW  Elec       q    Type
                         _______ _______ _______ _____ _____    ______ ____

>  <TORSDO>
F 12

$$$$
=
 OpenBabel11062415533D

 41 45  0  0  1  0  0  0  0  0999 V2000
  188.6880  174.4880  137.4920 C   0  0  0  0  0  2  0  0  0  0  0  0
  188.6170  175.9120  136.9750 C   0  0  2  0  0  3  0  0  0  0  0  0
  187.6330  178.0840  136.9740 C   0  0  1  0  0  0  0  0  0  0  0  0
  191.1530  174.9290  137.5900 C   0  0  0  0  0  0  0  0  0  0  0  0
  190.9510  176.4330  137.5300 C   0  0  1  0  0  3  0  0  0  0  0  0
  188.9570  178.7830  138.9280 O   0  0  0  0  0  1  0  0  0  0  0  0
  189.4920  176.7420  137.8650 C   0  0  1  0  0  3  0  0  0  0  0  0
  189.0260  178.1760  137.6710 C   0  0  1  0  0  3  0  0  0  0  0  0
  190.0560  174.0470  137.4690 O   0  0  0  0  0  0  0  0  0  0  0  0
  187.7860  178.4590  135.4980 C   0  0  0  0  0  1  0  0  0  0  0  0
  187.2720  176.5980  137.0280 C   0  0  0  0  0  2  0  0  0  0  0  0
  192.3200  174.4530  137.6370 O   0  0  0  0  0  0  0  0  0  0  0  0
  191.8860  177.1430  138.4580 C   0  0  0  0  0  3  0  0  0  0  0  0
  191.3770  177.2040  141.0170 C   0  0  0  0  0  3  0  0  0  0  0  0
  191.6420  177.1790  139.7410 C   0  0  0  0  0  0  0  0  0  0  0  0
  189.9800  176.9880  141.4780 C   0  0  0  0  0  2  0  0  0  0  0  0
  189.9810  176.2550  142.8110 C   0  0  2  0  0  3  0  0  0  0  0  0
  188.5650  176.2120  143.3590 C   0  0  0  0  0  1  0  0  0  0  0  0
  190.8310  176.9390  143.7270 O   0  0  0  0  0  0  0  0  0  0  0  0
  192.0250  175.2790  144.8080 O   0  0  0  0  0  0  0  0  0  0  0  0
  191.3320  176.3340  144.8800 C   0  0  0  0  0  0  0  0  0  0  0  0
  189.7980  177.2850  146.4230 O   0  0  0  0  0  1  0  0  0  0  0  0
  191.1520  177.0190  146.1920 C   0  0  0  0  0  2  0  0  0  0  0  0
  186.5800  178.8290  137.5770 O   0  0  0  0  0  0  0  0  0  0  0  0
  184.2740  178.3590  142.3480 O   0  0  0  0  0  0  0  0  0  0  0  0
  183.4810  178.0030  139.0420 C   0  0  1  0  0  3  0  0  0  0  0  0
  181.4920  178.0030  140.0580 C   0  0  0  0  0  2  0  0  0  0  0  0
  183.6040  178.5480  141.3470 C   0  0  0  0  0  0  0  0  0  0  0  0
  184.3170  178.0450  137.7950 C   0  0  0  0  0  2  0  0  0  0  0  0
  184.2250  178.8490  140.0220 C   0  0  1  0  0  3  0  0  0  0  0  0
  185.6670  178.4370  139.8150 C   0  0  0  0  0  2  0  0  0  0  0  0
  182.0930  178.5010  141.4050 C   0  0  1  0  0  3  0  0  0  0  0  0
  185.7440  177.9910  138.3460 C   0  0  2  0  0  3  0  0  0  0  0  0
  182.1750  178.4950  138.9190 O   0  0  0  0  0  0  0  0  0  0  0  0
  181.5790  179.7620  141.7370 O   0  0  0  0  0  0  0  0  0  0  0  0
  180.1960  179.6480  141.5200 C   0  0  2  0  0  3  0  0  0  0  0  0
  178.9310  180.6500  139.7020 O   0  0  0  0  0  0  0  0  0  0  0  0
  179.5690  180.9220  140.9290 C   0  0  2  0  0  3  0  0  0  0  0  0
  180.1770  181.3020  139.6310 C   0  0  0  0  0  2  0  0  0  0  0  0
  179.4760  179.2410  142.8030 C   0  0  0  0  0  2  0  0  0  0  0  0
  179.3610  177.8500  142.8670 O   0  0  0  0  0  1  0  0  0  0  0  0
  2 11  1  1  0  0  0
  2  1  1  0  0  0  0
  2  7  1  0  0  0  0
  3 10  1  6  0  0  0
  3 11  1  0  0  0  0
  3 24  1  0  0  0  0
  3  8  1  0  0  0  0
  4 12  2  0  0  0  0
  5  4  1  0  0  0  0
  5  7  1  0  0  0  0
  5 13  1  1  0  0  0
  8  7  1  0  0  0  0
  8  6  1  0  0  0  0
  9  1  1  0  0  0  0
  9  4  1  0  0  0  0
 13 15  2  0  0  0  0
 14 16  1  0  0  0  0
 15 14  2  0  0  0  0
 16 17  1  0  0  0  0
 17 18  1  0  0  0  0
 17 19  1  0  0  0  0
 19 21  1  0  0  0  0
 20 21  2  0  0  0  0
 21 23  1  0  0  0  0
 23 22  1  0  0  0  0
 24 33  1  0  0  0  0
 26 30  1  0  0  0  0
 27 32  1  0  0  0  0
 28 32  1  0  0  0  0
 28 25  2  0  0  0  0
 29 33  1  0  0  0  0
 29 26  1  0  0  0  0
 30 28  1  0  0  0  0
 31 30  1  0  0  0  0
 32 35  1  0  0  0  0
 33 31  1  0  0  0  0
 34 26  1  0  0  0  0
 34 27  1  0  0  0  0
 36 35  1  0  0  0  0
 36 40  1  0  0  0  0
 37 38  1  0  0  0  0
 38 36  1  0  0  0  0
 39 37  1  0  0  0  0
 39 38  1  0  0  0  0
 40 41  1  0  0  0  0
M  END
>  <MODEL>
5

>  <REMARK>
 VINA RESULT:      -6.6      2.714     10.066
  Name = 
  12 active torsions:
  status: ('A' for Active; 'I' for Inactive)
    1  A    between atoms: C_2  and  C_16
    2  A    between atoms: C_4  and  C_41
    3  A    between atoms: O_11  and  C_28
    4  A    between atoms: O_11  and  C_40
    5  A    between atoms: C_12  and  O_29
    6  A    between atoms: C_13  and  C_40
    7  A    between atoms: C_14  and  C_33
    8  A    between atoms: C_21  and  C_33
    9  A    between atoms: O_25  and  C_32
   10  A    between atoms: O_25  and  C_33
   11  A    between atoms: C_28  and  C_41
   12  A    between atoms: O_29  and  C_34
                            x       y       z     vdW  Elec       q    Type
                         _______ _______ _______ _____ _____    ______ ____

>  <TORSDO>
F 12

$$$$
=
 OpenBabel11062415533D

 41 45  0  0  1  0  0  0  0  0999 V2000
  179.6100  179.0190  139.1130 C   0  0  0  0  0  2  0  0  0  0  0  0
  181.1250  178.9630  139.1680 C   0  0  2  0  0  3  0  0  0  0  0  0
  183.1500  178.3650  140.2740 C   0  0  1  0  0  0  0  0  0  0  0  0
  179.9300  178.2130  136.7620 C   0  0  0  0  0  0  0  0  0  0  0  0
  181.3460  177.7450  137.0480 C   0  0  1  0  0  3  0  0  0  0  0  0
  183.0220  176.0490  139.4490 O   0  0  0  0  0  1  0  0  0  0  0  0
  181.5320  177.6540  138.5620 C   0  0  1  0  0  3  0  0  0  0  0  0
  182.9410  177.3920  139.0720 C   0  0  1  0  0  3  0  0  0  0  0  0
  179.1840  178.9000  137.7450 O   0  0  0  0  0  0  0  0  0  0  0  0
  184.0590  179.5160  139.8330 C   0  0  0  0  0  1  0  0  0  0  0  0
  181.7650  178.9580  140.5360 C   0  0  0  0  0  2  0  0  0  0  0  0
  179.4490  178.0880  135.6030 O   0  0  0  0  0  0  0  0  0  0  0  0
  181.6290  176.4340  136.3840 C   0  0  0  0  0  3  0  0  0  0  0  0
  184.0430  175.8960  135.5510 C   0  0  0  0  0  3  0  0  0  0  0  0
  182.8340  176.1530  135.9630 C   0  0  0  0  0  0  0  0  0  0  0  0
  184.9810  177.0200  135.2860 C   0  0  0  0  0  2  0  0  0  0  0  0
  186.3190  176.7490  135.9570 C   0  0  2  0  0  3  0  0  0  0  0  0
  186.5290  175.2490  136.0640 C   0  0  0  0  0  1  0  0  0  0  0  0
  186.3240  177.3310  137.2570 O   0  0  0  0  0  0  0  0  0  0  0  0
  187.4610  178.4660  138.9200 O   0  0  0  0  0  0  0  0  0  0  0  0
  187.3400  178.1800  137.6950 C   0  0  0  0  0  0  0  0  0  0  0  0
  189.0550  179.7510  137.2190 O   0  0  0  0  0  1  0  0  0  0  0  0
  188.3650  178.6430  136.7160 C   0  0  0  0  0  2  0  0  0  0  0  0
  183.6290  177.7790  141.4790 O   0  0  0  0  0  0  0  0  0  0  0  0
  186.1090  178.7910  146.0760 O   0  0  0  0  0  0  0  0  0  0  0  0
  186.8680  178.2560  142.7870 C   0  0  1  0  0  3  0  0  0  0  0  0
  188.8430  178.0710  143.8140 C   0  0  0  0  0  2  0  0  0  0  0  0
  186.6990  178.2580  145.1520 C   0  0  0  0  0  0  0  0  0  0  0  0
  186.0080  178.1150  141.5630 C   0  0  0  0  0  2  0  0  0  0  0  0
  185.9950  177.8100  143.9130 C   0  0  1  0  0  3  0  0  0  0  0  0
  184.6610  178.4520  143.5960 C   0  0  0  0  0  2  0  0  0  0  0  0
  188.1890  178.0090  145.2260 C   0  0  1  0  0  3  0  0  0  0  0  0
  184.6370  178.5750  142.0640 C   0  0  2  0  0  3  0  0  0  0  0  0
  188.0450  177.4940  142.7970 O   0  0  0  0  0  0  0  0  0  0  0  0
  188.4470  176.7720  145.8330 O   0  0  0  0  0  0  0  0  0  0  0  0
  189.2860  177.0780  146.9170 C   0  0  2  0  0  3  0  0  0  0  0  0
  191.5700  176.7720  147.6890 O   0  0  0  0  0  0  0  0  0  0  0  0
  190.4990  176.1390  147.0290 C   0  0  2  0  0  3  0  0  0  0  0  0
  191.6790  176.6490  146.2910 C   0  0  0  0  0  2  0  0  0  0  0  0
  188.4990  177.0960  148.2250 C   0  0  0  0  0  2  0  0  0  0  0  0
  188.7940  178.2560  148.9460 O   0  0  0  0  0  1  0  0  0  0  0  0
  2  1  1  1  0  0  0
  2 11  1  0  0  0  0
  3 10  1  6  0  0  0
  3 11  1  0  0  0  0
  3 24  1  0  0  0  0
  4  5  1  0  0  0  0
  4  9  1  0  0  0  0
  5 13  1  6  0  0  0
  5  7  1  0  0  0  0
  7  8  1  0  0  0  0
  7  2  1  0  0  0  0
  8  6  1  0  0  0  0
  8  3  1  0  0  0  0
  9  1  1  0  0  0  0
 12  4  2  0  0  0  0
 14 15  2  0  0  0  0
 15 13  2  0  0  0  0
 16 14  1  0  0  0  0
 16 17  1  0  0  0  0
 17 18  1  0  0  0  0
 17 19  1  0  0  0  0
 19 21  1  0  0  0  0
 21 20  2  0  0  0  0
 23 22  1  0  0  0  0
 23 21  1  0  0  0  0
 24 33  1  0  0  0  0
 26 34  1  0  0  0  0
 26 30  1  0  0  0  0
 27 32  1  0  0  0  0
 28 32  1  0  0  0  0
 28 25  2  0  0  0  0
 29 33  1  0  0  0  0
 29 26  1  0  0  0  0
 30 28  1  0  0  0  0
 31 30  1  0  0  0  0
 32 35  1  0  0  0  0
 33 31  1  0  0  0  0
 34 27  1  0  0  0  0
 35 36  1  0  0  0  0
 36 38  1  0  0  0  0
 36 40  1  0  0  0  0
 38 37  1  0  0  0  0
 39 38  1  0  0  0  0
 39 37  1  0  0  0  0
 40 41  1  0  0  0  0
M  END
>  <MODEL>
6

>  <REMARK>
 VINA RESULT:      -6.6      3.898      9.870
  Name = 
  12 active torsions:
  status: ('A' for Active; 'I' for Inactive)
    1  A    between atoms: C_2  and  C_16
    2  A    between atoms: C_4  and  C_41
    3  A    between atoms: O_11  and  C_28
    4  A    between atoms: O_11  and  C_40
    5  A    between atoms: C_12  and  O_29
    6  A    between atoms: C_13  and  C_40
    7  A    between atoms: C_14  and  C_33
    8  A    between atoms: C_21  and  C_33
    9  A    between atoms: O_25  and  C_32
   10  A    between atoms: O_25  and  C_33
   11  A    between atoms: C_28  and  C_41
   12  A    between atoms: O_29  and  C_34
                            x       y       z     vdW  Elec       q    Type
                         _______ _______ _______ _____ _____    ______ ____

>  <TORSDO>
F 12

$$$$
=
 OpenBabel11062415533D

 41 45  0  0  1  0  0  0  0  0999 V2000
  185.0440  178.6690  141.8160 C   0  0  0  0  0  2  0  0  0  0  0  0
  186.1730  177.8900  142.4640 C   0  0  2  0  0  3  0  0  0  0  0  0
  188.4970  177.5120  142.8420 C   0  0  1  0  0  0  0  0  0  0  0  0
  184.0240  178.5770  144.1030 C   0  0  0  0  0  0  0  0  0  0  0  0
  185.3550  178.2370  144.7520 C   0  0  1  0  0  3  0  0  0  0  0  0
  188.5840  179.2380  144.5950 O   0  0  0  0  0  1  0  0  0  0  0  0
  186.4750  178.5670  143.7660 C   0  0  1  0  0  3  0  0  0  0  0  0
  187.8800  178.1200  144.1400 C   0  0  1  0  0  3  0  0  0  0  0  0
  183.9090  178.6740  142.6990 O   0  0  0  0  0  0  0  0  0  0  0  0
  188.5150  175.9860  142.9630 C   0  0  0  0  0  1  0  0  0  0  0  0
  187.4980  177.8660  141.7380 C   0  0  0  0  0  2  0  0  0  0  0  0
  182.9850  178.6670  144.8120 O   0  0  0  0  0  0  0  0  0  0  0  0
  185.5320  178.9710  146.0450 C   0  0  0  0  0  3  0  0  0  0  0  0
  187.3680  178.2020  147.7320 C   0  0  0  0  0  3  0  0  0  0  0  0
  186.4490  178.5950  146.8970 C   0  0  0  0  0  0  0  0  0  0  0  0
  187.8770  176.8060  147.6560 C   0  0  0  0  0  2  0  0  0  0  0  0
  189.3980  176.8070  147.6600 C   0  0  2  0  0  3  0  0  0  0  0  0
  189.8950  178.0650  148.3490 C   0  0  0  0  0  1  0  0  0  0  0  0
  189.8760  176.7710  146.3190 O   0  0  0  0  0  0  0  0  0  0  0  0
  191.7820  177.6310  145.3310 O   0  0  0  0  0  0  0  0  0  0  0  0
  191.2340  176.7150  146.0080 C   0  0  0  0  0  0  0  0  0  0  0  0
  192.7930  176.1030  147.6910 O   0  0  0  0  0  1  0  0  0  0  0  0
  192.0650  175.6260  146.5970 C   0  0  0  0  0  2  0  0  0  0  0  0
  189.7790  178.0030  142.4670 O   0  0  0  0  0  0  0  0  0  0  0  0
  190.7950  175.0350  138.1710 O   0  0  0  0  0  0  0  0  0  0  0  0
  192.4890  176.7810  140.5710 C   0  0  1  0  0  3  0  0  0  0  0  0
  194.0470  176.3770  139.0240 C   0  0  0  0  0  2  0  0  0  0  0  0
  191.6110  175.8450  138.5770 C   0  0  0  0  0  0  0  0  0  0  0  0
  192.0340  177.4690  141.8270 C   0  0  0  0  0  2  0  0  0  0  0  0
  191.2950  176.8070  139.6750 C   0  0  1  0  0  3  0  0  0  0  0  0
  190.1530  176.4570  140.6050 C   0  0  0  0  0  2  0  0  0  0  0  0
  192.9940  175.9210  137.9710 C   0  0  1  0  0  3  0  0  0  0  0  0
  190.6000  176.9600  141.9870 C   0  0  2  0  0  3  0  0  0  0  0  0
  193.5680  177.3760  139.9040 O   0  0  0  0  0  0  0  0  0  0  0  0
  192.9960  176.7850  136.8670 O   0  0  0  0  0  0  0  0  0  0  0  0
  193.5310  176.0190  135.8190 C   0  0  2  0  0  3  0  0  0  0  0  0
  194.2250  173.8000  135.1110 O   0  0  0  0  0  0  0  0  0  0  0  0
  193.5380  174.5100  136.1150 C   0  0  2  0  0  3  0  0  0  0  0  0
  192.8190  173.7270  135.0800 C   0  0  0  0  0  2  0  0  0  0  0  0
  194.9330  176.5010  135.4550 C   0  0  0  0  0  2  0  0  0  0  0  0
  195.0400  177.8760  135.6740 O   0  0  0  0  0  1  0  0  0  0  0  0
  1  2  1  0  0  0  0
  1  9  1  0  0  0  0
  2 11  1  6  0  0  0
  2  7  1  0  0  0  0
  3 10  1  1  0  0  0
  3  8  1  0  0  0  0
  4  5  1  0  0  0  0
  4 12  2  0  0  0  0
  5 13  1  1  0  0  0
  7  8  1  0  0  0  0
  7  5  1  0  0  0  0
  8  6  1  0  0  0  0
  9  4  1  0  0  0  0
 11  3  1  0  0  0  0
 13 15  2  0  0  0  0
 15 14  2  0  0  0  0
 16 17  1  0  0  0  0
 16 14  1  0  0  0  0
 17 18  1  0  0  0  0
 19 17  1  0  0  0  0
 20 21  2  0  0  0  0
 21 19  1  0  0  0  0
 21 23  1  0  0  0  0
 23 22  1  0  0  0  0
 24  3  1  0  0  0  0
 25 28  2  0  0  0  0
 26 29  1  0  0  0  0
 27 34  1  0  0  0  0
 28 30  1  0  0  0  0
 29 33  1  0  0  0  0
 30 26  1  0  0  0  0
 30 31  1  0  0  0  0
 31 33  1  0  0  0  0
 32 28  1  0  0  0  0
 32 27  1  0  0  0  0
 33 24  1  0  0  0  0
 34 26  1  0  0  0  0
 35 32  1  0  0  0  0
 36 38  1  0  0  0  0
 36 35  1  0  0  0  0
 37 38  1  0  0  0  0
 39 37  1  0  0  0  0
 39 38  1  0  0  0  0
 40 41  1  0  0  0  0
 40 36  1  0  0  0  0
M  END
>  <MODEL>
7

>  <REMARK>
 VINA RESULT:      -6.2      1.720      5.087
  Name = 
  12 active torsions:
  status: ('A' for Active; 'I' for Inactive)
    1  A    between atoms: C_2  and  C_16
    2  A    between atoms: C_4  and  C_41
    3  A    between atoms: O_11  and  C_28
    4  A    between atoms: O_11  and  C_40
    5  A    between atoms: C_12  and  O_29
    6  A    between atoms: C_13  and  C_40
    7  A    between atoms: C_14  and  C_33
    8  A    between atoms: C_21  and  C_33
    9  A    between atoms: O_25  and  C_32
   10  A    between atoms: O_25  and  C_33
   11  A    between atoms: C_28  and  C_41
   12  A    between atoms: O_29  and  C_34
                            x       y       z     vdW  Elec       q    Type
                         _______ _______ _______ _____ _____    ______ ____

>  <TORSDO>
F 12

$$$$
=
 OpenBabel11062415533D

 41 45  0  0  1  0  0  0  0  0999 V2000
  187.7700  179.0300  136.7520 C   0  0  0  0  0  2  0  0  0  0  0  0
  188.7480  177.8730  136.6780 C   0  0  2  0  0  3  0  0  0  0  0  0
  190.3020  176.3870  137.7080 C   0  0  1  0  0  0  0  0  0  0  0  0
  186.3050  177.5340  135.3760 C   0  0  0  0  0  0  0  0  0  0  0  0
  187.1100  176.3000  135.7460 C   0  0  1  0  0  3  0  0  0  0  0  0
  188.5000  174.9070  138.4990 O   0  0  0  0  0  1  0  0  0  0  0  0
  187.9680  176.6260  136.9680 C   0  0  1  0  0  3  0  0  0  0  0  0
  188.9990  175.5900  137.3870 C   0  0  1  0  0  3  0  0  0  0  0  0
  186.7160  178.8180  135.7970 O   0  0  0  0  0  0  0  0  0  0  0  0
  191.3010  176.1920  136.5650 C   0  0  0  0  0  1  0  0  0  0  0  0
  189.8720  177.8540  137.6880 C   0  0  0  0  0  2  0  0  0  0  0  0
  185.3210  177.4310  134.5940 O   0  0  0  0  0  0  0  0  0  0  0  0
  186.2170  175.1270  136.0030 C   0  0  0  0  0  3  0  0  0  0  0  0
  183.9920  175.4570  137.3270 C   0  0  0  0  0  3  0  0  0  0  0  0
  185.1000  175.2800  136.6640 C   0  0  0  0  0  0  0  0  0  0  0  0
  183.8550  176.6380  138.2210 C   0  0  0  0  0  2  0  0  0  0  0  0
  182.7970  176.3670  139.2800 C   0  0  2  0  0  3  0  0  0  0  0  0
  181.7840  175.3780  138.7330 C   0  0  0  0  0  1  0  0  0  0  0  0
  182.1450  177.5860  139.6220 O   0  0  0  0  0  0  0  0  0  0  0  0
  182.6450  179.8330  139.3980 O   0  0  0  0  0  0  0  0  0  0  0  0
  182.8450  178.7340  139.9900 C   0  0  0  0  0  0  0  0  0  0  0  0
  184.8980  179.4350  140.9570 O   0  0  0  0  0  1  0  0  0  0  0  0
  183.7400  178.6830  141.1820 C   0  0  0  0  0  2  0  0  0  0  0  0
  190.9120  176.1100  138.9640 O   0  0  0  0  0  0  0  0  0  0  0  0
  187.7080  178.2640  142.6230 O   0  0  0  0  0  0  0  0  0  0  0  0
  191.0250  177.5770  142.1680 C   0  0  1  0  0  3  0  0  0  0  0  0
  190.8840  178.0440  144.3470 C   0  0  0  0  0  2  0  0  0  0  0  0
  188.7930  177.8040  142.9370 C   0  0  0  0  0  0  0  0  0  0  0  0
  191.7960  177.0740  140.9810 C   0  0  0  0  0  2  0  0  0  0  0  0
  189.6430  177.0470  141.9690 C   0  0  1  0  0  3  0  0  0  0  0  0
  189.3920  177.2700  140.4930 C   0  0  0  0  0  2  0  0  0  0  0  0
  189.3280  177.9710  144.3410 C   0  0  1  0  0  3  0  0  0  0  0  0
  190.7830  177.2070  139.8420 C   0  0  2  0  0  3  0  0  0  0  0  0
  191.4930  177.1620  143.4220 O   0  0  0  0  0  0  0  0  0  0  0  0
  188.8810  176.9250  145.1610 O   0  0  0  0  0  0  0  0  0  0  0  0
  188.3140  177.5660  146.2740 C   0  0  2  0  0  3  0  0  0  0  0  0
  189.4340  178.0840  148.3690 O   0  0  0  0  0  0  0  0  0  0  0  0
  188.8570  177.0430  147.6150 C   0  0  2  0  0  3  0  0  0  0  0  0
  190.3270  177.2010  147.7310 C   0  0  0  0  0  2  0  0  0  0  0  0
  186.7910  177.4720  146.2380 C   0  0  0  0  0  2  0  0  0  0  0  0
  186.2610  178.5520  145.5270 O   0  0  0  0  0  1  0  0  0  0  0  0
  2  1  1  1  0  0  0
  2  7  1  0  0  0  0
  2 11  1  0  0  0  0
  3 10  1  6  0  0  0
  3 24  1  0  0  0  0
  4  5  1  0  0  0  0
  4  9  1  0  0  0  0
  5 13  1  1  0  0  0
  5  7  1  0  0  0  0
  7  8  1  0  0  0  0
  8  3  1  0  0  0  0
  8  6  1  0  0  0  0
  9  1  1  0  0  0  0
 11  3  1  0  0  0  0
 12  4  2  0  0  0  0
 13 15  2  0  0  0  0
 14 16  1  0  0  0  0
 15 14  2  0  0  0  0
 16 17  1  0  0  0  0
 17 19  1  0  0  0  0
 18 17  1  0  0  0  0
 19 21  1  0  0  0  0
 20 21  2  0  0  0  0
 21 23  1  0  0  0  0
 22 23  1  0  0  0  0
 24 33  1  0  0  0  0
 25 28  2  0  0  0  0
 26 34  1  0  0  0  0
 28 32  1  0  0  0  0
 29 26  1  0  0  0  0
 30 26  1  0  0  0  0
 30 28  1  0  0  0  0
 31 30  1  0  0  0  0
 32 27  1  0  0  0  0
 32 35  1  0  0  0  0
 33 31  1  0  0  0  0
 33 29  1  0  0  0  0
 34 27  1  0  0  0  0
 35 36  1  0  0  0  0
 36 38  1  0  0  0  0
 38 39  1  0  0  0  0
 38 37  1  0  0  0  0
 39 37  1  0  0  0  0
 40 36  1  0  0  0  0
 41 40  1  0  0  0  0
M  END
>  <MODEL>
8

>  <REMARK>
 VINA RESULT:      -6.0      2.645      8.665
  Name = 
  12 active torsions:
  status: ('A' for Active; 'I' for Inactive)
    1  A    between atoms: C_2  and  C_16
    2  A    between atoms: C_4  and  C_41
    3  A    between atoms: O_11  and  C_28
    4  A    between atoms: O_11  and  C_40
    5  A    between atoms: C_12  and  O_29
    6  A    between atoms: C_13  and  C_40
    7  A    between atoms: C_14  and  C_33
    8  A    between atoms: C_21  and  C_33
    9  A    between atoms: O_25  and  C_32
   10  A    between atoms: O_25  and  C_33
   11  A    between atoms: C_28  and  C_41
   12  A    between atoms: O_29  and  C_34
                            x       y       z     vdW  Elec       q    Type
                         _______ _______ _______ _____ _____    ______ ____

>  <TORSDO>
F 12

$$$$
=
 OpenBabel11062415533D

 41 45  0  0  1  0  0  0  0  0999 V2000
  181.1710  180.3910  137.6940 C   0  0  0  0  0  2  0  0  0  0  0  0
  182.2400  179.4750  138.2590 C   0  0  2  0  0  3  0  0  0  0  0  0
  183.8670  178.9460  139.9200 C   0  0  1  0  0  0  0  0  0  0  0  0
  179.8850  178.2610  137.3890 C   0  0  0  0  0  0  0  0  0  0  0  0
  180.7710  177.5120  138.3690 C   0  0  1  0  0  3  0  0  0  0  0  0
  182.1600  177.9950  141.4170 O   0  0  0  0  0  1  0  0  0  0  0  0
  181.5510  178.5310  139.1980 C   0  0  1  0  0  3  0  0  0  0  0  0
  182.6450  177.9930  140.1070 C   0  0  1  0  0  3  0  0  0  0  0  0
  180.1750  179.5960  137.0270 O   0  0  0  0  0  0  0  0  0  0  0  0
  184.9220  178.2440  139.0620 C   0  0  0  0  0  1  0  0  0  0  0  0
  183.3220  180.1150  139.0980 C   0  0  0  0  0  2  0  0  0  0  0  0
  178.9440  177.6580  136.8050 O   0  0  0  0  0  0  0  0  0  0  0  0
  179.9650  176.6010  139.2420 C   0  0  0  0  0  3  0  0  0  0  0  0
  179.8800  174.0450  138.7200 C   0  0  0  0  0  3  0  0  0  0  0  0
  179.9160  175.3190  138.9900 C   0  0  0  0  0  0  0  0  0  0  0  0
  180.1950  173.5810  137.3420 C   0  0  0  0  0  2  0  0  0  0  0  0
  181.1990  174.5210  136.6940 C   0  0  2  0  0  3  0  0  0  0  0  0
  180.7270  174.8690  135.2930 C   0  0  0  0  0  1  0  0  0  0  0  0
  182.4720  173.8840  136.6290 O   0  0  0  0  0  0  0  0  0  0  0  0
  183.4060  175.0550  138.3910 O   0  0  0  0  0  0  0  0  0  0  0  0
  183.5660  174.3180  137.3760 C   0  0  0  0  0  0  0  0  0  0  0  0
  184.8670  172.9890  135.9000 O   0  0  0  0  0  1  0  0  0  0  0  0
  184.9210  173.7940  137.0430 C   0  0  0  0  0  2  0  0  0  0  0  0
  184.4480  179.4620  141.1120 O   0  0  0  0  0  0  0  0  0  0  0  0
  188.2290  176.3860  143.2440 O   0  0  0  0  0  0  0  0  0  0  0  0
  185.5620  178.2760  144.2400 C   0  0  1  0  0  3  0  0  0  0  0  0
  186.6570  177.8760  146.1450 C   0  0  0  0  0  2  0  0  0  0  0  0
  187.6690  177.2390  143.9110 C   0  0  0  0  0  0  0  0  0  0  0  0
  184.4880  178.9900  143.4690 C   0  0  0  0  0  2  0  0  0  0  0  0
  186.7250  178.2260  143.3060 C   0  0  1  0  0  3  0  0  0  0  0  0
  186.0920  177.8670  141.9790 C   0  0  0  0  0  2  0  0  0  0  0  0
  187.9170  177.3450  145.3990 C   0  0  1  0  0  3  0  0  0  0  0  0
  184.6660  178.4340  142.0550 C   0  0  2  0  0  3  0  0  0  0  0  0
  185.9660  178.8880  145.4350 O   0  0  0  0  0  0  0  0  0  0  0  0
  189.0230  178.1700  145.6510 O   0  0  0  0  0  0  0  0  0  0  0  0
  190.1150  177.2900  145.7050 C   0  0  2  0  0  3  0  0  0  0  0  0
  192.0400  176.8040  147.1080 O   0  0  0  0  0  0  0  0  0  0  0  0
  190.6600  177.0900  147.1300 C   0  0  2  0  0  3  0  0  0  0  0  0
  191.1770  175.7180  147.3500 C   0  0  0  0  0  2  0  0  0  0  0  0
  191.2270  177.7450  144.7640 C   0  0  0  0  0  2  0  0  0  0  0  0
  191.6480  176.6760  143.9680 O   0  0  0  0  0  1  0  0  0  0  0  0
  2  1  1  1  0  0  0
  2 11  1  0  0  0  0
  2  7  1  0  0  0  0
  3 10  1  6  0  0  0
  3  8  1  0  0  0  0
  3 24  1  0  0  0  0
  4  5  1  0  0  0  0
  5  7  1  0  0  0  0
  5 13  1  1  0  0  0
  7  8  1  0  0  0  0
  8  6  1  0  0  0  0
  9  4  1  0  0  0  0
  9  1  1  0  0  0  0
 11  3  1  0  0  0  0
 12  4  2  0  0  0  0
 14 15  2  0  0  0  0
 15 13  2  0  0  0  0
 16 14  1  0  0  0  0
 17 16  1  0  0  0  0
 18 17  1  0  0  0  0
 19 17  1  0  0  0  0
 19 21  1  0  0  0  0
 21 20  2  0  0  0  0
 22 23  1  0  0  0  0
 23 21  1  0  0  0  0
 24 33  1  0  0  0  0
 25 28  2  0  0  0  0
 26 34  1  0  0  0  0
 28 32  1  0  0  0  0
 29 26  1  0  0  0  0
 30 28  1  0  0  0  0
 30 26  1  0  0  0  0
 31 33  1  0  0  0  0
 31 30  1  0  0  0  0
 32 35  1  0  0  0  0
 32 27  1  0  0  0  0
 33 29  1  0  0  0  0
 34 27  1  0  0  0  0
 35 36  1  0  0  0  0
 36 38  1  0  0  0  0
 37 38  1  0  0  0  0
 37 39  1  0  0  0  0
 38 39  1  0  0  0  0
 40 36  1  0  0  0  0
 41 40  1  0  0  0  0
M  END
>  <MODEL>
9

>  <REMARK>
 VINA RESULT:      -6.0      4.962      9.615
  Name = 
  12 active torsions:
  status: ('A' for Active; 'I' for Inactive)
    1  A    between atoms: C_2  and  C_16
    2  A    between atoms: C_4  and  C_41
    3  A    between atoms: O_11  and  C_28
    4  A    between atoms: O_11  and  C_40
    5  A    between atoms: C_12  and  O_29
    6  A    between atoms: C_13  and  C_40
    7  A    between atoms: C_14  and  C_33
    8  A    between atoms: C_21  and  C_33
    9  A    between atoms: O_25  and  C_32
   10  A    between atoms: O_25  and  C_33
   11  A    between atoms: C_28  and  C_41
   12  A    between atoms: O_29  and  C_34
                            x       y       z     vdW  Elec       q    Type
                         _______ _______ _______ _____ _____    ______ ____

>  <TORSDO>
F 12

$$$$
