=
 OpenBabel11062413443D

 35 38  0  0  1  0  0  0  0  0999 V2000
  189.1520  176.9790  136.2690 S   0  0  0  0  0  0  0  0  0  0  0  0
  189.2540  178.0210  140.0830 C   0  0  0  0  0  0  0  0  0  0  0  0
  190.1560  177.4750  141.1290 C   0  0  0  0  0  0  0  0  0  0  0  0
  188.3320  178.8280  140.3780 O   0  0  0  0  0  0  0  0  0  0  0  0
  191.2030  176.7120  140.7820 C   0  0  0  0  0  3  0  0  0  0  0  0
  189.4330  177.5600  138.6960 C   0  0  0  0  0  0  0  0  0  0  0  0
  188.5690  177.7960  137.6230 C   0  0  0  0  0  0  0  0  0  0  0  0
  191.6220  176.4350  139.3550 C   0  0  1  0  0  3  0  0  0  0  0  0
  191.4490  175.4730  136.4180 N   0  0  0  0  0  1  0  0  0  0  0  0
  190.4960  176.3280  137.0400 C   0  0  0  0  0  0  0  0  0  0  0  0
  190.5220  176.7430  138.3670 C   0  0  0  0  0  0  0  0  0  0  0  0
  189.5110  176.5610  143.4640 C   0  0  1  0  0  0  0  0  0  0  0  0
  190.2400  175.2730  143.0770 C   0  0  0  0  0  1  0  0  0  0  0  0
  190.8560  179.7840  143.4270 O   0  0  0  0  0  1  0  0  0  0  0  0
  189.9630  176.9610  144.8770 C   0  0  1  0  0  3  0  0  0  0  0  0
  189.9520  177.7460  142.5990 C   0  0  1  0  0  3  0  0  0  0  0  0
  191.1240  178.4230  143.2920 C   0  0  2  0  0  3  0  0  0  0  0  0
  191.2290  177.7850  144.6690 C   0  0  0  0  0  2  0  0  0  0  0  0
  187.9950  176.3530  143.3190 C   0  0  0  0  0  2  0  0  0  0  0  0
  187.2270  177.6620  143.1970 C   0  0  0  0  0  1  0  0  0  0  0  0
  188.9350  177.8140  145.6250 C   0  0  0  0  0  2  0  0  0  0  0  0
  188.6170  177.1960  146.9730 C   0  0  1  0  0  3  0  0  0  0  0  0
  189.7700  177.2250  147.7790 O   0  0  0  0  0  0  0  0  0  0  0  0
  188.7950  178.2060  148.0360 C   0  0  2  0  0  3  0  0  0  0  0  0
  188.0590  177.8370  149.1600 O   0  0  0  0  0  1  0  0  0  0  0  0
  193.7940  177.1450  140.0770 O   0  0  0  0  0  1  0  0  0  0  0  0
  192.8510  177.2810  139.0580 C   0  0  0  0  0  2  0  0  0  0  0  0
  187.3100  178.6050  137.6540 C   0  0  0  0  0  2  0  0  0  0  0  0
  186.1500  177.7580  137.9100 N   0  0  0  0  0  0  0  0  0  0  0  0
  185.0730  178.1800  138.4970 C   0  0  0  0  0  3  0  0  0  0  0  0
  184.9610  179.4960  138.9340 O   0  0  0  0  0  0  0  0  0  0  0  0
  184.5820  179.7570  140.1900 O   0  0  0  0  0  0  0  0  0  0  0  0
  183.8600  178.6290  140.5770 C   0  0  0  0  0  2  0  0  0  0  0  0
  183.8380  178.5240  142.0890 C   0  0  0  0  0  2  0  0  0  0  0  0
  182.5700  178.8500  142.5690 O   0  0  0  0  0  1  0  0  0  0  0  0
  1 10  1  0  0  0  0
  1  7  1  0  0  0  0
  2  4  2  0  0  0  0
  2  3  1  0  0  0  0
  5  3  2  0  0  0  0
  6  2  1  0  0  0  0
  7 28  1  0  0  0  0
  7  6  2  0  0  0  0
  8 27  1  6  0  0  0
  8  5  1  0  0  0  0
  9 10  1  0  0  0  0
 10 11  2  0  0  0  0
 11  6  1  0  0  0  0
 11  8  1  0  0  0  0
 12 13  1  6  0  0  0
 12 15  1  0  0  0  0
 15 21  1  6  0  0  0
 16  3  1  6  0  0  0
 16 17  1  0  0  0  0
 16 12  1  0  0  0  0
 17 14  1  1  0  0  0
 17 18  1  0  0  0  0
 18 15  1  0  0  0  0
 19 12  1  0  0  0  0
 20 19  1  0  0  0  0
 22 21  1  6  0  0  0
 22 23  1  0  0  0  0
 22 24  1  0  0  0  0
 23 24  1  0  0  0  0
 24 25  1  1  0  0  0
 27 26  1  0  0  0  0
 28 29  1  0  0  0  0
 29 30  2  0  0  0  0
 30 31  1  0  0  0  0
 31 32  1  0  0  0  0
 32 33  1  0  0  0  0
 33 34  1  0  0  0  0
 34 35  1  0  0  0  0
M  END
>  <MODEL>
1

>  <REMARK>
 VINA RESULT:      -7.6      0.000      0.000
  Name = 
  11 active torsions:
  status: ('A' for Active; 'I' for Inactive)
    1  A    between atoms: C_1  and  C_26
    2  A    between atoms: C_2  and  C_31
    3  A    between atoms: C_8  and  C_24
    4  A    between atoms: C_11  and  C_20
    5  A    between atoms: C_12  and  C_31
    6  A    between atoms: N_13  and  C_17
    7  A    between atoms: C_16  and  C_27
    8  A    between atoms: C_17  and  C_21
    9  A    between atoms: O_19  and  C_20
   10  A    between atoms: O_19  and  O_33
   11  A    between atoms: C_23  and  O_33
                            x       y       z     vdW  Elec       q    Type
                         _______ _______ _______ _____ _____    ______ ____

>  <TORSDO>
F 11

$$$$
=
 OpenBabel11062413443D

 35 38  0  0  1  0  0  0  0  0999 V2000
  189.3660  177.2620  136.7180 S   0  0  0  0  0  0  0  0  0  0  0  0
  189.8210  177.0260  140.6400 C   0  0  0  0  0  0  0  0  0  0  0  0
  189.2670  177.9570  141.6560 C   0  0  0  0  0  0  0  0  0  0  0  0
  190.6080  176.0990  140.9710 O   0  0  0  0  0  0  0  0  0  0  0  0
  188.3410  178.8620  141.3050 C   0  0  0  0  0  3  0  0  0  0  0  0
  189.4640  177.2400  139.2280 C   0  0  0  0  0  0  0  0  0  0  0  0
  190.0360  176.6080  138.1200 C   0  0  0  0  0  0  0  0  0  0  0  0
  187.7100  178.9490  139.9330 C   0  0  1  0  0  3  0  0  0  0  0  0
  187.4820  179.2610  136.8620 N   0  0  0  0  0  1  0  0  0  0  0  0
  188.3540  178.3430  137.5130 C   0  0  0  0  0  0  0  0  0  0  0  0
  188.5110  178.2090  138.8880 C   0  0  0  0  0  0  0  0  0  0  0  0
  188.8030  177.1750  144.0810 C   0  0  1  0  0  0  0  0  0  0  0  0
  188.2830  175.8690  143.4780 C   0  0  0  0  0  1  0  0  0  0  0  0
  191.9480  178.5910  143.5310 O   0  0  0  0  0  1  0  0  0  0  0  0
  189.7500  176.8230  145.2390 C   0  0  1  0  0  3  0  0  0  0  0  0
  189.7020  177.9340  143.1000 C   0  0  1  0  0  3  0  0  0  0  0  0
  191.1350  177.4770  143.3280 C   0  0  2  0  0  3  0  0  0  0  0  0
  191.1140  176.6250  144.5880 C   0  0  0  0  0  2  0  0  0  0  0  0
  187.6130  178.0610  144.4820 C   0  0  0  0  0  2  0  0  0  0  0  0
  186.4370  177.2630  145.0250 C   0  0  0  0  0  1  0  0  0  0  0  0
  189.8600  177.9310  146.2900 C   0  0  0  0  0  2  0  0  0  0  0  0
  189.4830  177.3990  147.6590 C   0  0  1  0  0  3  0  0  0  0  0  0
  189.6290  178.4250  148.6100 O   0  0  0  0  0  0  0  0  0  0  0  0
  188.3190  178.1470  148.1780 C   0  0  2  0  0  3  0  0  0  0  0  0
  187.6690  177.3860  149.1470 O   0  0  0  0  0  1  0  0  0  0  0  0
  185.3630  179.3950  140.1170 O   0  0  0  0  0  1  0  0  0  0  0  0
  186.3060  178.3710  140.0300 C   0  0  0  0  0  2  0  0  0  0  0  0
  191.0940  175.5500  138.1460 C   0  0  0  0  0  2  0  0  0  0  0  0
  191.9900  175.6790  137.0020 N   0  0  0  0  0  0  0  0  0  0  0  0
  193.2490  175.9690  137.1110 C   0  0  0  0  0  3  0  0  0  0  0  0
  193.8330  176.1880  138.3550 O   0  0  0  0  0  0  0  0  0  0  0  0
  194.8380  175.4110  138.7710 O   0  0  0  0  0  0  0  0  0  0  0  0
  195.1640  174.6370  137.6580 C   0  0  0  0  0  2  0  0  0  0  0  0
  195.9200  173.3980  138.0950 C   0  0  0  0  0  2  0  0  0  0  0  0
  195.1510  172.6680  139.0010 O   0  0  0  0  0  1  0  0  0  0  0  0
  1 10  1  0  0  0  0
  1  7  1  0  0  0  0
  2  4  2  0  0  0  0
  2  3  1  0  0  0  0
  5  3  2  0  0  0  0
  6  2  1  0  0  0  0
  7 28  1  0  0  0  0
  7  6  2  0  0  0  0
  8 27  1  1  0  0  0
  8  5  1  0  0  0  0
  9 10  1  0  0  0  0
 10 11  2  0  0  0  0
 11  6  1  0  0  0  0
 11  8  1  0  0  0  0
 12 13  1  6  0  0  0
 12 19  1  0  0  0  0
 12 15  1  0  0  0  0
 15 21  1  1  0  0  0
 16  3  1  6  0  0  0
 16 17  1  0  0  0  0
 16 12  1  0  0  0  0
 17 14  1  1  0  0  0
 17 18  1  0  0  0  0
 18 15  1  0  0  0  0
 19 20  1  0  0  0  0
 22 21  1  6  0  0  0
 22 24  1  0  0  0  0
 22 23  1  0  0  0  0
 24 23  1  0  0  0  0
 24 25  1  1  0  0  0
 27 26  1  0  0  0  0
 29 30  2  0  0  0  0
 29 28  1  0  0  0  0
 30 31  1  0  0  0  0
 31 32  1  0  0  0  0
 33 34  1  0  0  0  0
 33 32  1  0  0  0  0
 34 35  1  0  0  0  0
M  END
>  <MODEL>
2

>  <REMARK>
 VINA RESULT:      -7.6      1.940      5.731
  Name = 
  11 active torsions:
  status: ('A' for Active; 'I' for Inactive)
    1  A    between atoms: C_1  and  C_26
    2  A    between atoms: C_2  and  C_31
    3  A    between atoms: C_8  and  C_24
    4  A    between atoms: C_11  and  C_20
    5  A    between atoms: C_12  and  C_31
    6  A    between atoms: N_13  and  C_17
    7  A    between atoms: C_16  and  C_27
    8  A    between atoms: C_17  and  C_21
    9  A    between atoms: O_19  and  C_20
   10  A    between atoms: O_19  and  O_33
   11  A    between atoms: C_23  and  O_33
                            x       y       z     vdW  Elec       q    Type
                         _______ _______ _______ _____ _____    ______ ____

>  <TORSDO>
F 11

$$$$
=
 OpenBabel11062413443D

 35 38  0  0  1  0  0  0  0  0999 V2000
  188.0430  177.7260  143.6280 S   0  0  0  0  0  0  0  0  0  0  0  0
  185.4740  178.7020  140.7830 C   0  0  0  0  0  0  0  0  0  0  0  0
  183.9940  178.6040  140.8520 C   0  0  0  0  0  0  0  0  0  0  0  0
  186.0540  179.0230  139.7110 O   0  0  0  0  0  0  0  0  0  0  0  0
  183.3890  178.3770  142.0280 C   0  0  0  0  0  3  0  0  0  0  0  0
  186.2530  178.3680  141.9870 C   0  0  0  0  0  0  0  0  0  0  0  0
  187.6390  178.2030  142.0620 C   0  0  0  0  0  0  0  0  0  0  0  0
  184.1060  178.3130  143.3570 C   0  0  1  0  0  3  0  0  0  0  0  0
  186.0950  177.3780  145.5380 N   0  0  0  0  0  1  0  0  0  0  0  0
  186.4670  177.7290  144.2090 C   0  0  0  0  0  0  0  0  0  0  0  0
  185.5940  178.1100  143.1960 C   0  0  0  0  0  0  0  0  0  0  0  0
  182.8770  177.4970  138.7940 C   0  0  1  0  0  0  0  0  0  0  0  0
  182.6700  176.2590  139.6680 C   0  0  0  0  0  1  0  0  0  0  0  0
  181.8090  180.7410  139.5250 O   0  0  0  0  0  1  0  0  0  0  0  0
  181.5580  177.7950  138.0650 C   0  0  1  0  0  3  0  0  0  0  0  0
  183.1130  178.7550  139.6360 C   0  0  1  0  0  3  0  0  0  0  0  0
  181.7630  179.4000  139.9040 C   0  0  2  0  0  3  0  0  0  0  0  0
  180.7580  178.6600  139.0330 C   0  0  0  0  0  2  0  0  0  0  0  0
  184.0790  177.2690  137.8620 C   0  0  0  0  0  2  0  0  0  0  0  0
  184.2150  175.8190  137.4170 C   0  0  0  0  0  1  0  0  0  0  0  0
  181.7480  178.5660  136.7560 C   0  0  0  0  0  2  0  0  0  0  0  0
  180.5070  179.3750  136.4350 C   0  0  1  0  0  3  0  0  0  0  0  0
  180.8610  180.7300  136.2960 O   0  0  0  0  0  0  0  0  0  0  0  0
  180.6560  180.0060  135.1070 C   0  0  2  0  0  3  0  0  0  0  0  0
  179.3980  180.3170  134.5940 O   0  0  0  0  0  1  0  0  0  0  0  0
  183.3820  179.3490  145.3930 O   0  0  0  0  0  1  0  0  0  0  0  0
  183.8270  179.6130  144.0980 C   0  0  0  0  0  2  0  0  0  0  0  0
  188.6190  178.3790  140.9450 C   0  0  0  0  0  2  0  0  0  0  0  0
  189.7500  177.4700  141.0940 N   0  0  0  0  0  0  0  0  0  0  0  0
  190.5020  177.0970  140.1040 C   0  0  0  0  0  3  0  0  0  0  0  0
  190.2640  177.5480  138.8100 O   0  0  0  0  0  0  0  0  0  0  0  0
  189.4470  176.8660  138.0000 O   0  0  0  0  0  0  0  0  0  0  0  0
  189.3760  177.6410  136.8440 C   0  0  0  0  0  2  0  0  0  0  0  0
  189.0510  179.0770  137.2040 C   0  0  0  0  0  2  0  0  0  0  0  0
  187.7140  179.3480  136.9110 O   0  0  0  0  0  1  0  0  0  0  0  0
  1 10  1  0  0  0  0
  2  3  1  0  0  0  0
  2  6  1  0  0  0  0
  3  5  2  0  0  0  0
  4  2  2  0  0  0  0
  5  8  1  0  0  0  0
  6  7  2  0  0  0  0
  6 11  1  0  0  0  0
  7  1  1  0  0  0  0
  8 27  1  6  0  0  0
 10  9  1  0  0  0  0
 11  8  1  0  0  0  0
 11 10  2  0  0  0  0
 12 16  1  0  0  0  0
 12 13  1  1  0  0  0
 15 21  1  6  0  0  0
 15 12  1  0  0  0  0
 15 18  1  0  0  0  0
 16 17  1  0  0  0  0
 16  3  1  1  0  0  0
 17 14  1  6  0  0  0
 18 17  1  0  0  0  0
 19 12  1  0  0  0  0
 20 19  1  0  0  0  0
 22 21  1  6  0  0  0
 23 22  1  0  0  0  0
 24 25  1  1  0  0  0
 24 23  1  0  0  0  0
 24 22  1  0  0  0  0
 27 26  1  0  0  0  0
 28 29  1  0  0  0  0
 28  7  1  0  0  0  0
 30 29  2  0  0  0  0
 31 30  1  0  0  0  0
 32 31  1  0  0  0  0
 33 34  1  0  0  0  0
 33 32  1  0  0  0  0
 35 34  1  0  0  0  0
M  END
>  <MODEL>
3

>  <REMARK>
 VINA RESULT:      -7.0      3.454      9.087
  Name = 
  11 active torsions:
  status: ('A' for Active; 'I' for Inactive)
    1  A    between atoms: C_1  and  C_26
    2  A    between atoms: C_2  and  C_31
    3  A    between atoms: C_8  and  C_24
    4  A    between atoms: C_11  and  C_20
    5  A    between atoms: C_12  and  C_31
    6  A    between atoms: N_13  and  C_17
    7  A    between atoms: C_16  and  C_27
    8  A    between atoms: C_17  and  C_21
    9  A    between atoms: O_19  and  C_20
   10  A    between atoms: O_19  and  O_33
   11  A    between atoms: C_23  and  O_33
                            x       y       z     vdW  Elec       q    Type
                         _______ _______ _______ _____ _____    ______ ____

>  <TORSDO>
F 11

$$$$
=
 OpenBabel11062413443D

 35 38  0  0  1  0  0  0  0  0999 V2000
  189.6270  177.2670  136.7190 S   0  0  0  0  0  0  0  0  0  0  0  0
  189.9310  177.0180  140.6550 C   0  0  0  0  0  0  0  0  0  0  0  0
  189.3020  177.9210  141.6530 C   0  0  0  0  0  0  0  0  0  0  0  0
  190.7390  176.1190  141.0110 O   0  0  0  0  0  0  0  0  0  0  0  0
  188.3580  178.7920  141.2690 C   0  0  0  0  0  3  0  0  0  0  0  0
  189.6240  177.2290  139.2300 C   0  0  0  0  0  0  0  0  0  0  0  0
  190.2640  176.6280  138.1430 C   0  0  0  0  0  0  0  0  0  0  0  0
  187.7800  178.8660  139.8740 C   0  0  1  0  0  3  0  0  0  0  0  0
  187.6650  179.1920  136.7970 N   0  0  0  0  0  1  0  0  0  0  0  0
  188.5440  178.3030  137.4770 C   0  0  0  0  0  0  0  0  0  0  0  0
  188.6500  178.1650  138.8570 C   0  0  0  0  0  0  0  0  0  0  0  0
  188.7330  177.1600  144.0620 C   0  0  1  0  0  0  0  0  0  0  0  0
  188.2230  175.8560  143.4470 C   0  0  0  0  0  1  0  0  0  0  0  0
  191.9130  178.5380  143.6290 O   0  0  0  0  0  1  0  0  0  0  0  0
  189.6290  176.8070  145.2590 C   0  0  1  0  0  3  0  0  0  0  0  0
  189.6790  177.9030  143.1130 C   0  0  1  0  0  3  0  0  0  0  0  0
  191.0960  177.4320  143.4000 C   0  0  2  0  0  3  0  0  0  0  0  0
  191.0160  176.5890  144.6640 C   0  0  0  0  0  2  0  0  0  0  0  0
  187.5380  178.0630  144.4090 C   0  0  0  0  0  2  0  0  0  0  0  0
  186.3750  177.2940  145.0200 C   0  0  0  0  0  1  0  0  0  0  0  0
  189.7100  177.9200  146.3060 C   0  0  0  0  0  2  0  0  0  0  0  0
  189.3410  177.3840  147.6760 C   0  0  1  0  0  3  0  0  0  0  0  0
  189.6640  178.3460  148.6510 O   0  0  0  0  0  0  0  0  0  0  0  0
  188.3090  178.2490  148.2850 C   0  0  2  0  0  3  0  0  0  0  0  0
  187.6200  177.5350  149.2640 O   0  0  0  0  0  1  0  0  0  0  0  0
  185.4330  179.1500  139.4850 O   0  0  0  0  0  1  0  0  0  0  0  0
  186.3960  178.2360  139.9090 C   0  0  0  0  0  2  0  0  0  0  0  0
  191.3590  175.6090  138.2050 C   0  0  0  0  0  2  0  0  0  0  0  0
  191.5340  174.9500  136.9160 N   0  0  0  0  0  0  0  0  0  0  0  0
  190.7980  173.9590  136.5150 C   0  0  0  0  0  3  0  0  0  0  0  0
  189.7790  173.4500  137.3140 O   0  0  0  0  0  0  0  0  0  0  0  0
  188.5010  173.7220  137.0280 O   0  0  0  0  0  0  0  0  0  0  0  0
  187.8250  172.5330  137.2960 C   0  0  0  0  0  2  0  0  0  0  0  0
  186.6060  172.4200  136.4020 C   0  0  0  0  0  2  0  0  0  0  0  0
  185.4450  172.4660  137.1740 O   0  0  0  0  0  1  0  0  0  0  0  0
  1 10  1  0  0  0  0
  1  7  1  0  0  0  0
  2  4  2  0  0  0  0
  2  3  1  0  0  0  0
  5  3  2  0  0  0  0
  6  2  1  0  0  0  0
  7 28  1  0  0  0  0
  7  6  2  0  0  0  0
  8 27  1  1  0  0  0
  8  5  1  0  0  0  0
  9 10  1  0  0  0  0
 10 11  2  0  0  0  0
 11  6  1  0  0  0  0
 11  8  1  0  0  0  0
 12 13  1  6  0  0  0
 12 19  1  0  0  0  0
 12 15  1  0  0  0  0
 15 21  1  1  0  0  0
 16  3  1  6  0  0  0
 16 17  1  0  0  0  0
 16 12  1  0  0  0  0
 17 14  1  1  0  0  0
 17 18  1  0  0  0  0
 18 15  1  0  0  0  0
 19 20  1  0  0  0  0
 22 21  1  6  0  0  0
 22 24  1  0  0  0  0
 22 23  1  0  0  0  0
 24 23  1  0  0  0  0
 24 25  1  1  0  0  0
 26 27  1  0  0  0  0
 29 28  1  0  0  0  0
 30 29  2  0  0  0  0
 30 31  1  0  0  0  0
 32 33  1  0  0  0  0
 32 31  1  0  0  0  0
 34 35  1  0  0  0  0
 34 33  1  0  0  0  0
M  END
>  <MODEL>
4

>  <REMARK>
 VINA RESULT:      -6.9      2.604      4.476
  Name = 
  11 active torsions:
  status: ('A' for Active; 'I' for Inactive)
    1  A    between atoms: C_1  and  C_26
    2  A    between atoms: C_2  and  C_31
    3  A    between atoms: C_8  and  C_24
    4  A    between atoms: C_11  and  C_20
    5  A    between atoms: C_12  and  C_31
    6  A    between atoms: N_13  and  C_17
    7  A    between atoms: C_16  and  C_27
    8  A    between atoms: C_17  and  C_21
    9  A    between atoms: O_19  and  C_20
   10  A    between atoms: O_19  and  O_33
   11  A    between atoms: C_23  and  O_33
                            x       y       z     vdW  Elec       q    Type
                         _______ _______ _______ _____ _____    ______ ____

>  <TORSDO>
F 11

$$$$
=
 OpenBabel11062413443D

 35 38  0  0  1  0  0  0  0  0999 V2000
  188.8910  177.6890  142.4500 S   0  0  0  0  0  0  0  0  0  0  0  0
  185.3390  178.8610  141.1630 C   0  0  0  0  0  0  0  0  0  0  0  0
  184.0370  178.6680  141.8520 C   0  0  0  0  0  0  0  0  0  0  0  0
  185.3930  179.3480  140.0020 O   0  0  0  0  0  0  0  0  0  0  0  0
  184.0070  178.2600  143.1290 C   0  0  0  0  0  3  0  0  0  0  0  0
  186.5660  178.4250  141.8520 C   0  0  0  0  0  0  0  0  0  0  0  0
  187.8450  178.3340  141.2960 C   0  0  0  0  0  0  0  0  0  0  0  0
  185.2320  178.0720  143.9940 C   0  0  1  0  0  3  0  0  0  0  0  0
  187.9730  176.9890  144.9450 N   0  0  0  0  0  1  0  0  0  0  0  0
  187.7270  177.5250  143.6500 C   0  0  0  0  0  0  0  0  0  0  0  0
  186.5000  177.9790  143.1790 C   0  0  0  0  0  0  0  0  0  0  0  0
  182.4280  178.1120  139.9000 C   0  0  1  0  0  0  0  0  0  0  0  0
  182.8920  176.6600  140.0330 C   0  0  0  0  0  1  0  0  0  0  0  0
  181.0830  180.0880  142.4460 O   0  0  0  0  0  1  0  0  0  0  0  0
  180.8950  178.1180  139.8090 C   0  0  1  0  0  3  0  0  0  0  0  0
  182.7150  178.9180  141.1710 C   0  0  1  0  0  3  0  0  0  0  0  0
  181.5000  178.8100  142.0790 C   0  0  2  0  0  3  0  0  0  0  0  0
  180.4130  178.1370  141.2550 C   0  0  0  0  0  2  0  0  0  0  0  0
  183.1380  178.7670  138.7040 C   0  0  0  0  0  2  0  0  0  0  0  0
  183.3610  177.8020  137.5480 C   0  0  0  0  0  1  0  0  0  0  0  0
  180.3340  179.3460  139.0850 C   0  0  0  0  0  2  0  0  0  0  0  0
  179.6260  178.9290  137.8110 C   0  0  1  0  0  3  0  0  0  0  0  0
  178.9530  180.0410  137.2720 O   0  0  0  0  0  0  0  0  0  0  0  0
  180.1740  179.6890  136.6680 C   0  0  2  0  0  3  0  0  0  0  0  0
  179.9170  179.0010  135.4840 O   0  0  0  0  0  1  0  0  0  0  0  0
  184.2570  179.1980  145.8710 O   0  0  0  0  0  1  0  0  0  0  0  0
  185.3080  179.2490  144.9560 C   0  0  0  0  0  2  0  0  0  0  0  0
  188.2390  178.7070  139.9010 C   0  0  0  0  0  2  0  0  0  0  0  0
  188.0210  177.5960  138.9820 N   0  0  0  0  0  0  0  0  0  0  0  0
  188.9840  176.9530  138.3980 C   0  0  0  0  0  3  0  0  0  0  0  0
  190.3150  177.2980  138.6130 O   0  0  0  0  0  0  0  0  0  0  0  0
  191.1370  176.4480  139.2370 O   0  0  0  0  0  0  0  0  0  0  0  0
  191.6450  175.6450  138.2180 C   0  0  0  0  0  2  0  0  0  0  0  0
  192.4720  176.4840  137.2640 C   0  0  0  0  0  2  0  0  0  0  0  0
  193.8120  176.4620  137.6510 O   0  0  0  0  0  1  0  0  0  0  0  0
  1 10  1  0  0  0  0
  2  6  1  0  0  0  0
  2  3  1  0  0  0  0
  3  5  2  0  0  0  0
  4  2  2  0  0  0  0
  5  8  1  0  0  0  0
  6 11  1  0  0  0  0
  7  6  2  0  0  0  0
  7  1  1  0  0  0  0
  8 27  1  1  0  0  0
 10  9  1  0  0  0  0
 11 10  2  0  0  0  0
 11  8  1  0  0  0  0
 12 13  1  1  0  0  0
 12 16  1  0  0  0  0
 15 21  1  6  0  0  0
 15 12  1  0  0  0  0
 15 18  1  0  0  0  0
 16  3  1  1  0  0  0
 16 17  1  0  0  0  0
 17 14  1  6  0  0  0
 18 17  1  0  0  0  0
 19 12  1  0  0  0  0
 20 19  1  0  0  0  0
 22 21  1  1  0  0  0
 23 22  1  0  0  0  0
 24 25  1  6  0  0  0
 24 23  1  0  0  0  0
 24 22  1  0  0  0  0
 27 26  1  0  0  0  0
 28  7  1  0  0  0  0
 29 28  1  0  0  0  0
 30 31  1  0  0  0  0
 30 29  2  0  0  0  0
 31 32  1  0  0  0  0
 33 32  1  0  0  0  0
 34 35  1  0  0  0  0
 34 33  1  0  0  0  0
M  END
>  <MODEL>
5

>  <REMARK>
 VINA RESULT:      -6.5      3.232      8.963
  Name = 
  11 active torsions:
  status: ('A' for Active; 'I' for Inactive)
    1  A    between atoms: C_1  and  C_26
    2  A    between atoms: C_2  and  C_31
    3  A    between atoms: C_8  and  C_24
    4  A    between atoms: C_11  and  C_20
    5  A    between atoms: C_12  and  C_31
    6  A    between atoms: N_13  and  C_17
    7  A    between atoms: C_16  and  C_27
    8  A    between atoms: C_17  and  C_21
    9  A    between atoms: O_19  and  C_20
   10  A    between atoms: O_19  and  O_33
   11  A    between atoms: C_23  and  O_33
                            x       y       z     vdW  Elec       q    Type
                         _______ _______ _______ _____ _____    ______ ____

>  <TORSDO>
F 11

$$$$
=
 OpenBabel11062413443D

 35 38  0  0  1  0  0  0  0  0999 V2000
  189.5970  177.7120  136.7820 S   0  0  0  0  0  0  0  0  0  0  0  0
  189.5000  176.7830  140.6260 C   0  0  0  0  0  0  0  0  0  0  0  0
  188.7980  177.5300  141.7020 C   0  0  0  0  0  0  0  0  0  0  0  0
  190.2430  175.8030  140.8950 O   0  0  0  0  0  0  0  0  0  0  0  0
  187.9200  178.4940  141.3890 C   0  0  0  0  0  3  0  0  0  0  0  0
  189.3420  177.2480  139.2370 C   0  0  0  0  0  0  0  0  0  0  0  0
  190.0710  176.8130  138.1270 C   0  0  0  0  0  0  0  0  0  0  0  0
  187.4870  178.8290  139.9800 C   0  0  1  0  0  3  0  0  0  0  0  0
  187.6890  179.6790  137.0090 N   0  0  0  0  0  1  0  0  0  0  0  0
  188.4710  178.6500  137.6040 C   0  0  0  0  0  0  0  0  0  0  0  0
  188.4350  178.2740  138.9430 C   0  0  0  0  0  0  0  0  0  0  0  0
  190.2660  177.8820  143.8070 C   0  0  1  0  0  0  0  0  0  0  0  0
  190.4850  179.3150  143.3200 C   0  0  0  0  0  1  0  0  0  0  0  0
  187.1800  176.3420  144.3620 O   0  0  0  0  0  1  0  0  0  0  0  0
  189.9110  177.9330  145.3010 C   0  0  1  0  0  3  0  0  0  0  0  0
  189.0270  177.2470  143.1660 C   0  0  1  0  0  3  0  0  0  0  0  0
  187.8340  177.5360  144.0650 C   0  0  2  0  0  3  0  0  0  0  0  0
  188.4010  178.1370  145.3420 C   0  0  0  0  0  2  0  0  0  0  0  0
  191.5060  177.0350  143.4780 C   0  0  0  0  0  2  0  0  0  0  0  0
  192.3990  177.6790  142.4270 C   0  0  0  0  0  1  0  0  0  0  0  0
  190.2560  176.6430  146.0510 C   0  0  0  0  0  2  0  0  0  0  0  0
  191.6960  176.6760  146.5230 C   0  0  1  0  0  3  0  0  0  0  0  0
  191.7380  177.1470  147.8490 O   0  0  0  0  0  0  0  0  0  0  0  0
  191.8640  175.7580  147.6680 C   0  0  2  0  0  3  0  0  0  0  0  0
  193.2060  175.4000  147.7880 O   0  0  0  0  0  1  0  0  0  0  0  0
  185.1380  179.2790  139.8390 O   0  0  0  0  0  1  0  0  0  0  0  0
  186.0900  178.2620  139.7750 C   0  0  0  0  0  2  0  0  0  0  0  0
  191.1270  175.7520  138.1140 C   0  0  0  0  0  2  0  0  0  0  0  0
  192.3150  176.2060  137.4000 N   0  0  0  0  0  0  0  0  0  0  0  0
  193.3030  175.4250  137.0880 C   0  0  0  0  0  3  0  0  0  0  0  0
  193.2910  174.0770  137.4310 O   0  0  0  0  0  0  0  0  0  0  0  0
  194.3580  173.5230  138.0170 O   0  0  0  0  0  0  0  0  0  0  0  0
  195.2240  174.5910  138.2440 C   0  0  0  0  0  2  0  0  0  0  0  0
  196.1450  174.2710  139.4040 C   0  0  0  0  0  2  0  0  0  0  0  0
  196.3510  175.4140  140.1760 O   0  0  0  0  0  1  0  0  0  0  0  0
  1 10  1  0  0  0  0
  1  7  1  0  0  0  0
  2  4  2  0  0  0  0
  2  3  1  0  0  0  0
  5  3  2  0  0  0  0
  6  2  1  0  0  0  0
  7  6  2  0  0  0  0
  8 27  1  6  0  0  0
  8  5  1  0  0  0  0
  9 10  1  0  0  0  0
 10 11  2  0  0  0  0
 11  6  1  0  0  0  0
 11  8  1  0  0  0  0
 12 13  1  6  0  0  0
 12 15  1  0  0  0  0
 15 18  1  0  0  0  0
 15 21  1  1  0  0  0
 16  3  1  6  0  0  0
 16 12  1  0  0  0  0
 16 17  1  0  0  0  0
 17 14  1  1  0  0  0
 17 18  1  0  0  0  0
 19 12  1  0  0  0  0
 20 19  1  0  0  0  0
 22 21  1  1  0  0  0
 22 24  1  0  0  0  0
 22 23  1  0  0  0  0
 24 25  1  6  0  0  0
 24 23  1  0  0  0  0
 27 26  1  0  0  0  0
 28  7  1  0  0  0  0
 29 28  1  0  0  0  0
 30 29  2  0  0  0  0
 30 31  1  0  0  0  0
 31 32  1  0  0  0  0
 32 33  1  0  0  0  0
 33 34  1  0  0  0  0
 34 35  1  0  0  0  0
M  END
>  <MODEL>
6

>  <REMARK>
 VINA RESULT:      -6.4      2.361      6.158
  Name = 
  11 active torsions:
  status: ('A' for Active; 'I' for Inactive)
    1  A    between atoms: C_1  and  C_26
    2  A    between atoms: C_2  and  C_31
    3  A    between atoms: C_8  and  C_24
    4  A    between atoms: C_11  and  C_20
    5  A    between atoms: C_12  and  C_31
    6  A    between atoms: N_13  and  C_17
    7  A    between atoms: C_16  and  C_27
    8  A    between atoms: C_17  and  C_21
    9  A    between atoms: O_19  and  C_20
   10  A    between atoms: O_19  and  O_33
   11  A    between atoms: C_23  and  O_33
                            x       y       z     vdW  Elec       q    Type
                         _______ _______ _______ _____ _____    ______ ____

>  <TORSDO>
F 11

$$$$
=
 OpenBabel11062413443D

 35 38  0  0  1  0  0  0  0  0999 V2000
  185.2560  178.6280  146.9720 S   0  0  0  0  0  0  0  0  0  0  0  0
  187.9790  177.8770  144.2040 C   0  0  0  0  0  0  0  0  0  0  0  0
  187.7260  177.5010  142.7890 C   0  0  0  0  0  0  0  0  0  0  0  0
  189.1470  177.8800  144.6750 O   0  0  0  0  0  0  0  0  0  0  0  0
  186.4940  177.6160  142.2720 C   0  0  0  0  0  3  0  0  0  0  0  0
  186.8230  178.2000  145.0570 C   0  0  0  0  0  0  0  0  0  0  0  0
  186.8360  178.3740  146.4440 C   0  0  0  0  0  0  0  0  0  0  0  0
  185.3150  178.2180  143.0040 C   0  0  1  0  0  3  0  0  0  0  0  0
  183.1610  178.6290  145.1900 N   0  0  0  0  0  1  0  0  0  0  0  0
  184.5570  178.5170  145.4490 C   0  0  0  0  0  0  0  0  0  0  0  0
  185.5430  178.2890  144.4950 C   0  0  0  0  0  0  0  0  0  0  0  0
  189.1210  177.8190  140.6300 C   0  0  1  0  0  0  0  0  0  0  0  0
  189.0980  179.3190  140.9290 C   0  0  0  0  0  1  0  0  0  0  0  0
  190.2330  175.3050  142.7850 O   0  0  0  0  0  1  0  0  0  0  0  0
  190.5640  177.4230  140.2800 C   0  0  1  0  0  3  0  0  0  0  0  0
  188.8150  176.9870  141.8790 C   0  0  1  0  0  3  0  0  0  0  0  0
  190.1330  176.6790  142.5730 C   0  0  2  0  0  3  0  0  0  0  0  0
  191.2290  177.1280  141.6190 C   0  0  0  0  0  2  0  0  0  0  0  0
  188.0920  177.5010  139.5340 C   0  0  0  0  0  2  0  0  0  0  0  0
  188.1670  178.4620  138.3560 C   0  0  0  0  0  1  0  0  0  0  0  0
  190.6540  176.1750  139.3980 C   0  0  0  0  0  2  0  0  0  0  0  0
  191.3650  176.4970  138.0980 C   0  0  1  0  0  3  0  0  0  0  0  0
  192.7480  176.3050  138.2680 O   0  0  0  0  0  0  0  0  0  0  0  0
  192.0480  175.2880  137.5940 C   0  0  2  0  0  3  0  0  0  0  0  0
  192.2670  175.4120  136.2240 O   0  0  0  0  0  1  0  0  0  0  0  0
  185.6510  179.7260  141.1720 O   0  0  0  0  0  1  0  0  0  0  0  0
  185.0780  179.6100  142.4380 C   0  0  0  0  0  2  0  0  0  0  0  0
  188.0350  178.3150  147.3380 C   0  0  0  0  0  2  0  0  0  0  0  0
  188.3290  176.9410  147.7280 N   0  0  0  0  0  0  0  0  0  0  0  0
  189.4940  176.3890  147.5790 C   0  0  0  0  0  3  0  0  0  0  0  0
  190.5560  177.0920  147.0170 O   0  0  0  0  0  0  0  0  0  0  0  0
  191.7400  177.1290  147.6380 O   0  0  0  0  0  0  0  0  0  0  0  0
  192.1320  175.7930  147.7170 C   0  0  0  0  0  2  0  0  0  0  0  0
  193.1810  175.6280  148.7990 C   0  0  0  0  0  2  0  0  0  0  0  0
  193.5080  176.8720  149.3370 O   0  0  0  0  0  1  0  0  0  0  0  0
  2  4  2  0  0  0  0
  2  6  1  0  0  0  0
  3  2  1  0  0  0  0
  5  3  2  0  0  0  0
  5  8  1  0  0  0  0
  6  7  2  0  0  0  0
  7  1  1  0  0  0  0
  7 28  1  0  0  0  0
  8 27  1  6  0  0  0
  8 11  1  0  0  0  0
  9 10  1  0  0  0  0
 10  1  1  0  0  0  0
 11  6  1  0  0  0  0
 11 10  2  0  0  0  0
 12 13  1  1  0  0  0
 12 16  1  0  0  0  0
 15 21  1  6  0  0  0
 15 12  1  0  0  0  0
 15 18  1  0  0  0  0
 16 17  1  0  0  0  0
 16  3  1  1  0  0  0
 17 14  1  6  0  0  0
 18 17  1  0  0  0  0
 19 12  1  0  0  0  0
 20 19  1  0  0  0  0
 22 23  1  0  0  0  0
 22 21  1  1  0  0  0
 24 25  1  6  0  0  0
 24 22  1  0  0  0  0
 24 23  1  0  0  0  0
 26 27  1  0  0  0  0
 28 29  1  0  0  0  0
 30 29  2  0  0  0  0
 31 30  1  0  0  0  0
 31 32  1  0  0  0  0
 32 33  1  0  0  0  0
 33 34  1  0  0  0  0
 34 35  1  0  0  0  0
M  END
>  <MODEL>
7

>  <REMARK>
 VINA RESULT:      -6.4      3.661      8.468
  Name = 
  11 active torsions:
  status: ('A' for Active; 'I' for Inactive)
    1  A    between atoms: C_1  and  C_26
    2  A    between atoms: C_2  and  C_31
    3  A    between atoms: C_8  and  C_24
    4  A    between atoms: C_11  and  C_20
    5  A    between atoms: C_12  and  C_31
    6  A    between atoms: N_13  and  C_17
    7  A    between atoms: C_16  and  C_27
    8  A    between atoms: C_17  and  C_21
    9  A    between atoms: O_19  and  C_20
   10  A    between atoms: O_19  and  O_33
   11  A    between atoms: C_23  and  O_33
                            x       y       z     vdW  Elec       q    Type
                         _______ _______ _______ _____ _____    ______ ____

>  <TORSDO>
F 11

$$$$
=
 OpenBabel11062413443D

 35 38  0  0  1  0  0  0  0  0999 V2000
  183.9510  179.0020  145.4530 S   0  0  0  0  0  0  0  0  0  0  0  0
  186.7700  178.0590  142.8440 C   0  0  0  0  0  0  0  0  0  0  0  0
  188.2360  178.0560  143.0840 C   0  0  0  0  0  0  0  0  0  0  0  0
  186.3010  177.8500  141.6940 O   0  0  0  0  0  0  0  0  0  0  0  0
  188.7130  178.1630  144.3330 C   0  0  0  0  0  3  0  0  0  0  0  0
  185.8780  178.3600  143.9770 C   0  0  0  0  0  0  0  0  0  0  0  0
  184.5050  178.6090  143.9100 C   0  0  0  0  0  0  0  0  0  0  0  0
  187.8530  178.1810  145.5760 C   0  0  1  0  0  3  0  0  0  0  0  0
  185.6830  179.0920  147.5870 N   0  0  0  0  0  1  0  0  0  0  0  0
  185.4470  178.8580  146.2030 C   0  0  0  0  0  0  0  0  0  0  0  0
  186.4080  178.4910  145.2670 C   0  0  0  0  0  0  0  0  0  0  0  0
  190.3300  176.8680  142.1300 C   0  0  1  0  0  0  0  0  0  0  0  0
  189.7740  175.5750  142.7290 C   0  0  0  0  0  1  0  0  0  0  0  0
  188.6680  178.9970  139.9170 O   0  0  0  0  0  1  0  0  0  0  0  0
  190.7700  176.5770  140.6870 C   0  0  1  0  0  3  0  0  0  0  0  0
  189.2400  177.9320  141.9650 C   0  0  1  0  0  3  0  0  0  0  0  0
  188.6350  177.7710  140.5800 C   0  0  2  0  0  3  0  0  0  0  0  0
  189.5150  176.7720  139.8450 C   0  0  0  0  0  2  0  0  0  0  0  0
  191.4470  177.4110  143.0360 C   0  0  0  0  0  2  0  0  0  0  0  0
  191.6800  176.5490  144.2690 C   0  0  0  0  0  1  0  0  0  0  0  0
  191.8580  177.5280  140.1810 C   0  0  0  0  0  2  0  0  0  0  0  0
  192.9400  176.7530  139.4550 C   0  0  1  0  0  3  0  0  0  0  0  0
  192.3460  175.7140  138.7130 O   0  0  0  0  0  0  0  0  0  0  0  0
  192.7330  176.8610  137.9950 C   0  0  2  0  0  3  0  0  0  0  0  0
  193.9320  176.6040  137.3330 O   0  0  0  0  0  1  0  0  0  0  0  0
  188.6280  176.9310  147.4690 O   0  0  0  0  0  1  0  0  0  0  0  0
  187.9710  176.8190  146.2440 C   0  0  0  0  0  2  0  0  0  0  0  0
  183.6510  178.5730  142.6820 C   0  0  0  0  0  2  0  0  0  0  0  0
  182.2840  178.9830  142.9830 N   0  0  0  0  0  0  0  0  0  0  0  0
  181.3350  179.0100  142.0990 C   0  0  0  0  0  3  0  0  0  0  0  0
  181.5720  178.6470  140.7760 O   0  0  0  0  0  0  0  0  0  0  0  0
  181.6890  179.5870  139.8320 O   0  0  0  0  0  0  0  0  0  0  0  0
  182.6110  179.0600  138.9290 C   0  0  0  0  0  2  0  0  0  0  0  0
  183.9490  179.7520  139.0960 C   0  0  0  0  0  2  0  0  0  0  0  0
  184.9810  178.8810  138.7480 O   0  0  0  0  0  1  0  0  0  0  0  0
  1 10  1  0  0  0  0
  2  3  1  0  0  0  0
  2  6  1  0  0  0  0
  3  5  2  0  0  0  0
  4  2  2  0  0  0  0
  5  8  1  0  0  0  0
  6 11  1  0  0  0  0
  7  6  2  0  0  0  0
  7  1  1  0  0  0  0
  8 27  1  6  0  0  0
 10  9  1  0  0  0  0
 11  8  1  0  0  0  0
 11 10  2  0  0  0  0
 12 13  1  1  0  0  0
 12 19  1  0  0  0  0
 15 21  1  6  0  0  0
 15 12  1  0  0  0  0
 16 12  1  0  0  0  0
 16  3  1  1  0  0  0
 17 14  1  6  0  0  0
 17 16  1  0  0  0  0
 18 17  1  0  0  0  0
 18 15  1  0  0  0  0
 19 20  1  0  0  0  0
 22 21  1  1  0  0  0
 23 22  1  0  0  0  0
 24 25  1  6  0  0  0
 24 23  1  0  0  0  0
 24 22  1  0  0  0  0
 27 26  1  0  0  0  0
 28 29  1  0  0  0  0
 28  7  1  0  0  0  0
 30 29  2  0  0  0  0
 31 30  1  0  0  0  0
 32 31  1  0  0  0  0
 33 34  1  0  0  0  0
 33 32  1  0  0  0  0
 35 34  1  0  0  0  0
M  END
>  <MODEL>
8

>  <REMARK>
 VINA RESULT:      -6.3      3.369      6.790
  Name = 
  11 active torsions:
  status: ('A' for Active; 'I' for Inactive)
    1  A    between atoms: C_1  and  C_26
    2  A    between atoms: C_2  and  C_31
    3  A    between atoms: C_8  and  C_24
    4  A    between atoms: C_11  and  C_20
    5  A    between atoms: C_12  and  C_31
    6  A    between atoms: N_13  and  C_17
    7  A    between atoms: C_16  and  C_27
    8  A    between atoms: C_17  and  C_21
    9  A    between atoms: O_19  and  C_20
   10  A    between atoms: O_19  and  O_33
   11  A    between atoms: C_23  and  O_33
                            x       y       z     vdW  Elec       q    Type
                         _______ _______ _______ _____ _____    ______ ____

>  <TORSDO>
F 11

$$$$
=
 OpenBabel11062413443D

 35 38  0  0  1  0  0  0  0  0999 V2000
  187.8190  177.8630  143.3630 S   0  0  0  0  0  0  0  0  0  0  0  0
  185.2330  178.8820  140.5490 C   0  0  0  0  0  0  0  0  0  0  0  0
  183.7550  178.7550  140.6140 C   0  0  0  0  0  0  0  0  0  0  0  0
  185.8070  179.2490  139.4890 O   0  0  0  0  0  0  0  0  0  0  0  0
  183.1540  178.4790  141.7810 C   0  0  0  0  0  3  0  0  0  0  0  0
  186.0180  178.5240  141.7430 C   0  0  0  0  0  0  0  0  0  0  0  0
  187.4060  178.3820  141.8130 C   0  0  0  0  0  0  0  0  0  0  0  0
  183.8720  178.3850  143.1090 C   0  0  1  0  0  3  0  0  0  0  0  0
  185.8770  177.4170  145.2590 N   0  0  0  0  0  1  0  0  0  0  0  0
  186.2430  177.8170  143.9430 C   0  0  0  0  0  0  0  0  0  0  0  0
  185.3630  178.2150  142.9420 C   0  0  0  0  0  0  0  0  0  0  0  0
  182.6720  177.7000  138.5110 C   0  0  1  0  0  0  0  0  0  0  0  0
  182.4990  176.4230  139.3350 C   0  0  0  0  0  1  0  0  0  0  0  0
  181.5120  180.8810  139.3670 O   0  0  0  0  0  1  0  0  0  0  0  0
  181.3460  177.9890  137.7920 C   0  0  1  0  0  3  0  0  0  0  0  0
  182.8720  178.9290  139.4030 C   0  0  1  0  0  3  0  0  0  0  0  0
  181.5030  179.5260  139.6920 C   0  0  2  0  0  3  0  0  0  0  0  0
  180.5210  178.7930  138.7910 C   0  0  0  0  0  2  0  0  0  0  0  0
  183.8810  177.5420  137.5740 C   0  0  0  0  0  2  0  0  0  0  0  0
  184.1800  176.0880  137.2350 C   0  0  0  0  0  1  0  0  0  0  0  0
  181.5160  178.8160  136.5140 C   0  0  0  0  0  2  0  0  0  0  0  0
  180.3510  179.7720  136.3450 C   0  0  1  0  0  3  0  0  0  0  0  0
  180.8450  181.0520  136.0360 O   0  0  0  0  0  0  0  0  0  0  0  0
  180.3370  180.2970  134.9640 C   0  0  2  0  0  3  0  0  0  0  0  0
  179.0580  180.7510  134.6500 O   0  0  0  0  0  1  0  0  0  0  0  0
  183.1410  179.3420  145.1810 O   0  0  0  0  0  1  0  0  0  0  0  0
  183.5690  179.6550  143.8910 C   0  0  0  0  0  2  0  0  0  0  0  0
  188.3830  178.6130  140.7030 C   0  0  0  0  0  2  0  0  0  0  0  0
  189.0810  177.3800  140.3560 N   0  0  0  0  0  0  0  0  0  0  0  0
  190.0420  176.8780  141.0690 C   0  0  0  0  0  3  0  0  0  0  0  0
  190.4810  177.5070  142.2300 O   0  0  0  0  0  0  0  0  0  0  0  0
  191.6610  177.1780  142.7680 O   0  0  0  0  0  0  0  0  0  0  0  0
  191.5660  177.5940  144.0950 C   0  0  0  0  0  2  0  0  0  0  0  0
  191.6530  176.3950  145.0170 C   0  0  0  0  0  2  0  0  0  0  0  0
  192.0930  176.7970  146.2780 O   0  0  0  0  0  1  0  0  0  0  0  0
  1 10  1  0  0  0  0
  2  3  1  0  0  0  0
  2  6  1  0  0  0  0
  3  5  2  0  0  0  0
  4  2  2  0  0  0  0
  5  8  1  0  0  0  0
  6  7  2  0  0  0  0
  6 11  1  0  0  0  0
  7  1  1  0  0  0  0
  8 27  1  1  0  0  0
 10  9  1  0  0  0  0
 11  8  1  0  0  0  0
 11 10  2  0  0  0  0
 12 13  1  1  0  0  0
 12 16  1  0  0  0  0
 15 21  1  6  0  0  0
 15 12  1  0  0  0  0
 15 18  1  0  0  0  0
 16 17  1  0  0  0  0
 16  3  1  1  0  0  0
 17 14  1  6  0  0  0
 18 17  1  0  0  0  0
 19 12  1  0  0  0  0
 20 19  1  0  0  0  0
 22 21  1  6  0  0  0
 23 22  1  0  0  0  0
 24 25  1  1  0  0  0
 24 23  1  0  0  0  0
 24 22  1  0  0  0  0
 27 26  1  0  0  0  0
 28  7  1  0  0  0  0
 29 28  1  0  0  0  0
 29 30  2  0  0  0  0
 30 31  1  0  0  0  0
 31 32  1  0  0  0  0
 32 33  1  0  0  0  0
 33 34  1  0  0  0  0
 34 35  1  0  0  0  0
M  END
>  <MODEL>
9

>  <REMARK>
 VINA RESULT:      -6.3      3.459      9.446
  Name = 
  11 active torsions:
  status: ('A' for Active; 'I' for Inactive)
    1  A    between atoms: C_1  and  C_26
    2  A    between atoms: C_2  and  C_31
    3  A    between atoms: C_8  and  C_24
    4  A    between atoms: C_11  and  C_20
    5  A    between atoms: C_12  and  C_31
    6  A    between atoms: N_13  and  C_17
    7  A    between atoms: C_16  and  C_27
    8  A    between atoms: C_17  and  C_21
    9  A    between atoms: O_19  and  C_20
   10  A    between atoms: O_19  and  O_33
   11  A    between atoms: C_23  and  O_33
                            x       y       z     vdW  Elec       q    Type
                         _______ _______ _______ _____ _____    ______ ____

>  <TORSDO>
F 11

$$$$
