=
 OpenBabel11062413223D

 46 50  0  0  1  0  0  0  0  0999 V2000
  189.7370  177.4210  138.0110 C   0  0  0  0  0  0  0  0  0  0  0  0
  189.8450  177.6100  136.8090 O   0  0  0  0  0  0  0  0  0  0  0  0
  188.2880  178.0180  138.8790 S   0  0  0  0  0  0  0  0  0  0  0  0
  184.8570  177.3300  137.4750 N   0  0  0  0  0  0  0  0  0  0  0  0
  186.9180  176.2830  137.3930 O   0  0  0  0  0  0  0  0  0  0  0  0
  187.2130  177.6730  137.4570 C   0  0  1  0  0  3  0  0  0  0  0  0
  184.9950  174.9820  137.3520 O   0  0  0  0  0  0  0  0  0  0  0  0
  185.8540  178.3800  137.6390 C   0  0  0  0  0  2  0  0  0  0  0  0
  185.5550  176.1090  137.3930 C   0  0  0  0  0  0  0  0  0  0  0  0
  183.4360  177.4520  137.7820 C   0  0  2  0  0  3  0  0  0  0  0  0
  182.5950  177.0720  136.6000 C   0  0  0  0  0  0  0  0  0  0  0  0
  182.5610  177.8000  135.5730 O   0  0  0  0  0  0  0  0  0  0  0  0
  181.8670  175.8900  136.6290 O   0  0  0  0  0  1  0  0  0  0  0  0
  183.1160  178.8560  138.2900 C   0  0  0  0  0  2  0  0  0  0  0  0
  180.2750  179.0900  139.5370 C   0  0  0  0  0  3  0  0  0  0  0  0
  182.3660  178.7580  142.5420 C   0  0  0  0  0  0  0  0  0  0  0  0
  183.9250  178.7020  140.6680 C   0  0  0  0  0  3  0  0  0  0  0  0
  181.5590  178.9400  140.2740 C   0  0  0  0  0  0  0  0  0  0  0  0
  182.8600  178.8460  139.7620 C   0  0  0  0  0  0  0  0  0  0  0  0
  183.6790  178.6610  142.0520 C   0  0  0  0  0  3  0  0  0  0  0  0
  179.9480  179.0020  141.9240 N   0  0  0  0  0  0  0  0  0  0  0  0
  182.1060  178.7120  144.0060 C   0  0  0  0  0  1  0  0  0  0  0  0
  179.2200  179.1240  140.6610 C   0  0  0  0  0  2  0  0  0  0  0  0
  181.3230  178.8970  141.6200 C   0  0  0  0  0  0  0  0  0  0  0  0
  190.7890  176.6660  138.7690 C   0  0  2  0  0  3  0  0  0  0  0  0
  190.9790  177.2000  143.5070 N   0  0  0  0  0  0  0  0  0  0  0  0
  191.0010  177.1410  141.2080 C   0  0  0  0  0  0  0  0  0  0  0  0
  191.2640  177.5700  144.8620 C   0  0  0  0  0  0  0  0  0  0  0  0
  191.3010  177.4530  139.9430 C   0  0  0  0  0  2  0  0  0  0  0  0
  190.1140  176.0150  141.6250 C   0  0  0  0  0  3  0  0  0  0  0  0
  192.0730  178.5070  145.1000 O   0  0  0  0  0  0  0  0  0  0  0  0
  191.5370  177.8970  142.3630 C   0  0  0  0  0  3  0  0  0  0  0  0
  190.1090  176.0860  143.1450 C   0  0  0  0  0  3  0  0  0  0  0  0
  190.5790  176.8690  145.9990 C   0  0  1  0  0  3  0  0  0  0  0  0
  191.4980  176.1890  146.8020 O   0  0  0  0  0  1  0  0  0  0  0  0
  189.7120  177.8150  146.8290 C   0  0  0  0  0  2  0  0  0  0  0  0
  186.2630  179.0210  147.2420 C   0  0  0  0  0  3  0  0  0  0  0  0
  188.2600  177.7710  146.4530 C   0  0  0  0  0  0  0  0  0  0  0  0
  187.7780  178.0770  148.7710 F   0  0  0  0  0  0  0  0  0  0  0  0
  185.4850  179.0650  146.1600 C   0  0  0  0  0  3  0  0  0  0  0  0
  187.2090  177.9010  147.5190 C   0  0  1  0  0  3  0  0  0  0  0  0
  186.5710  177.3860  144.6390 C   0  0  0  0  0  3  0  0  0  0  0  0
  185.5090  178.0880  145.0540 C   0  0  0  0  0  3  0  0  0  0  0  0
  187.9370  177.4520  145.1950 C   0  0  0  0  0  3  0  0  0  0  0  0
  191.9220  176.2060  137.8500 C   0  0  0  0  0  2  0  0  0  0  0  0
  193.2030  176.7560  138.2680 N   0  0  0  0  0  1  0  0  0  0  0  0
  1 25  1  0  0  0  0
  1  3  1  0  0  0  0
  2  1  2  0  0  0  0
  4  8  1  0  0  0  0
  4 10  1  0  0  0  0
  5  9  1  0  0  0  0
  5  6  1  0  0  0  0
  6  8  1  0  0  0  0
  6  3  1  1  0  0  0
  7  9  2  0  0  0  0
  9  4  1  0  0  0  0
 10 14  1  6  0  0  0
 11 13  1  0  0  0  0
 11 10  1  0  0  0  0
 12 11  2  0  0  0  0
 14 19  1  0  0  0  0
 15 18  2  0  0  0  0
 15 23  1  0  0  0  0
 16 22  1  0  0  0  0
 17 20  1  0  0  0  0
 18 24  1  0  0  0  0
 19 18  1  0  0  0  0
 19 17  2  0  0  0  0
 20 16  2  0  0  0  0
 23 21  1  0  0  0  0
 24 21  2  0  0  0  0
 24 16  1  0  0  0  0
 25 45  1  6  0  0  0
 25 29  1  0  0  0  0
 26 28  1  0  0  0  0
 27 30  1  0  0  0  0
 27 32  2  0  0  0  0
 28 31  2  0  0  0  0
 28 34  1  0  0  0  0
 29 27  1  0  0  0  0
 30 33  2  0  0  0  0
 32 26  1  0  0  0  0
 33 26  1  0  0  0  0
 34 35  1  1  0  0  0
 34 36  1  0  0  0  0
 37 41  1  0  0  0  0
 38 36  1  0  0  0  0
 38 41  1  0  0  0  0
 40 37  2  0  0  0  0
 41 39  1  1  0  0  0
 42 43  2  0  0  0  0
 42 44  1  0  0  0  0
 43 40  1  0  0  0  0
 44 38  2  0  0  0  0
 45 46  1  0  0  0  0
M  END
>  <MODEL>
1

>  <REMARK>
 VINA RESULT:      -8.8      0.000      0.000
  Name = 
  12 active torsions:
  status: ('A' for Active; 'I' for Inactive)
    1  A    between atoms: C_2  and  C_37
    2  A    between atoms: C_4  and  C_17
    3  A    between atoms: N_5  and  C_37
    4  A    between atoms: C_7  and  C_25
    5  A    between atoms: C_7  and  C_37
    6  A    between atoms: C_11  and  S_15
    7  A    between atoms: C_12  and  C_19
    8  A    between atoms: C_13  and  C_21
    9  A    between atoms: S_15  and  C_33
   10  A    between atoms: C_17  and  C_21
   11  A    between atoms: C_19  and  C_28
   12  A    between atoms: C_19  and  C_33
                            x       y       z     vdW  Elec       q    Type
                         _______ _______ _______ _____ _____    ______ ____

>  <TORSDO>
F 12

$$$$
=
 OpenBabel11062413223D

 46 50  0  0  1  0  0  0  0  0999 V2000
  192.0690  176.9510  139.5940 C   0  0  0  0  0  0  0  0  0  0  0  0
  193.1330  177.2080  140.1370 O   0  0  0  0  0  0  0  0  0  0  0  0
  190.5400  177.1080  140.5150 S   0  0  0  0  0  0  0  0  0  0  0  0
  190.5000  177.6820  144.2410 N   0  0  0  0  0  0  0  0  0  0  0  0
  191.6200  178.6020  142.4380 O   0  0  0  0  0  0  0  0  0  0  0  0
  191.4280  177.2350  142.0940 C   0  0  1  0  0  3  0  0  0  0  0  0
  191.1030  179.9590  144.2490 O   0  0  0  0  0  0  0  0  0  0  0  0
  190.5720  176.6360  143.2290 C   0  0  0  0  0  2  0  0  0  0  0  0
  191.0890  178.8340  143.6830 C   0  0  0  0  0  0  0  0  0  0  0  0
  189.6170  177.6820  145.4020 C   0  0  2  0  0  3  0  0  0  0  0  0
  190.3800  177.3890  146.6600 C   0  0  0  0  0  0  0  0  0  0  0  0
  189.8200  177.4670  147.7850 O   0  0  0  0  0  1  0  0  0  0  0  0
  191.7110  177.0010  146.5800 O   0  0  0  0  0  0  0  0  0  0  0  0
  188.4560  176.7140  145.1910 C   0  0  0  0  0  2  0  0  0  0  0  0
  187.3900  177.8600  142.5020 C   0  0  0  0  0  3  0  0  0  0  0  0
  184.6850  178.7850  144.8120 C   0  0  0  0  0  0  0  0  0  0  0  0
  186.3400  177.6410  146.1900 C   0  0  0  0  0  3  0  0  0  0  0  0
  186.7190  177.9360  143.8270 C   0  0  2  0  0  3  0  0  0  0  0  0
  187.1620  177.4510  145.0650 C   0  0  0  0  0  0  0  0  0  0  0  0
  185.1070  178.3070  146.0630 C   0  0  0  0  0  3  0  0  0  0  0  0
  185.2600  178.9820  142.3790 N   0  0  0  0  0  0  0  0  0  0  0  0
  183.3800  179.4870  144.6780 C   0  0  0  0  0  1  0  0  0  0  0  0
  186.3940  178.5610  141.5560 C   0  0  0  0  0  3  0  0  0  0  0  0
  185.5200  178.5810  143.7080 C   0  0  0  0  0  0  0  0  0  0  0  0
  192.0220  176.5330  138.1540 C   0  0  2  0  0  3  0  0  0  0  0  0
  187.4820  176.1670  136.7290 N   0  0  0  0  0  0  0  0  0  0  0  0
  189.6620  176.1190  137.4620 C   0  0  0  0  0  0  0  0  0  0  0  0
  186.1840  175.7470  136.2910 C   0  0  0  0  0  0  0  0  0  0  0  0
  190.8430  175.6450  137.8710 C   0  0  0  0  0  2  0  0  0  0  0  0
  189.3430  177.5630  137.2610 C   0  0  0  0  0  3  0  0  0  0  0  0
  185.9170  174.5180  136.2080 O   0  0  0  0  0  0  0  0  0  0  0  0
  188.5140  175.2370  137.1500 C   0  0  0  0  0  3  0  0  0  0  0  0
  187.8960  177.5640  136.7890 C   0  0  0  0  0  3  0  0  0  0  0  0
  185.1300  176.7640  135.9610 C   0  0  1  0  0  3  0  0  0  0  0  0
  185.1690  177.1120  134.6080 O   0  0  0  0  0  1  0  0  0  0  0  0
  183.7310  176.3080  136.3750 C   0  0  0  0  0  2  0  0  0  0  0  0
  181.5900  176.6740  139.3420 C   0  0  0  0  0  3  0  0  0  0  0  0
  183.1250  177.1620  137.4500 C   0  0  0  0  0  0  0  0  0  0  0  0
  181.1360  175.8680  137.1800 F   0  0  0  0  0  0  0  0  0  0  0  0
  181.9500  177.5680  140.2630 C   0  0  0  0  0  3  0  0  0  0  0  0
  181.7030  176.9260  137.8750 C   0  0  1  0  0  3  0  0  0  0  0  0
  183.3910  179.1530  138.9510 C   0  0  0  0  0  3  0  0  0  0  0  0
  182.5870  178.8700  139.9830 C   0  0  0  0  0  3  0  0  0  0  0  0
  183.8130  178.2210  137.8870 C   0  0  0  0  0  3  0  0  0  0  0  0
  193.3390  175.8950  137.7090 C   0  0  0  0  0  2  0  0  0  0  0  0
  194.0870  176.7790  136.8280 N   0  0  0  0  0  1  0  0  0  0  0  0
  1  2  2  0  0  0  0
  1  3  1  0  0  0  0
  4 10  1  0  0  0  0
  5  9  1  0  0  0  0
  6  3  1  6  0  0  0
  6  5  1  0  0  0  0
  6  8  1  0  0  0  0
  8  4  1  0  0  0  0
  9  4  1  0  0  0  0
  9  7  2  0  0  0  0
 10 14  1  6  0  0  0
 10 11  1  0  0  0  0
 11 12  1  0  0  0  0
 13 11  2  0  0  0  0
 16 20  2  0  0  0  0
 18 15  1  6  0  0  0
 18 19  1  0  0  0  0
 19 14  1  0  0  0  0
 19 17  2  0  0  0  0
 20 17  1  0  0  0  0
 21 24  2  0  0  0  0
 22 16  1  0  0  0  0
 23 21  1  0  0  0  0
 23 15  2  0  0  0  0
 24 18  1  0  0  0  0
 24 16  1  0  0  0  0
 25 45  1  1  0  0  0
 25  1  1  0  0  0  0
 26 33  1  0  0  0  0
 26 32  1  0  0  0  0
 27 29  1  0  0  0  0
 28 26  1  0  0  0  0
 29 25  1  0  0  0  0
 30 27  1  0  0  0  0
 31 28  2  0  0  0  0
 32 27  2  0  0  0  0
 33 30  2  0  0  0  0
 34 35  1  6  0  0  0
 34 28  1  0  0  0  0
 34 36  1  0  0  0  0
 36 38  1  0  0  0  0
 37 40  2  0  0  0  0
 38 41  1  0  0  0  0
 38 44  2  0  0  0  0
 41 39  1  6  0  0  0
 41 37  1  0  0  0  0
 42 43  2  0  0  0  0
 43 40  1  0  0  0  0
 44 42  1  0  0  0  0
 46 45  1  0  0  0  0
M  END
>  <MODEL>
2

>  <REMARK>
 VINA RESULT:      -8.7      2.810      8.243
  Name = 
  12 active torsions:
  status: ('A' for Active; 'I' for Inactive)
    1  A    between atoms: C_2  and  C_37
    2  A    between atoms: C_4  and  C_17
    3  A    between atoms: N_5  and  C_37
    4  A    between atoms: C_7  and  C_25
    5  A    between atoms: C_7  and  C_37
    6  A    between atoms: C_11  and  S_15
    7  A    between atoms: C_12  and  C_19
    8  A    between atoms: C_13  and  C_21
    9  A    between atoms: S_15  and  C_33
   10  A    between atoms: C_17  and  C_21
   11  A    between atoms: C_19  and  C_28
   12  A    between atoms: C_19  and  C_33
                            x       y       z     vdW  Elec       q    Type
                         _______ _______ _______ _____ _____    ______ ____

>  <TORSDO>
F 12

$$$$
=
 OpenBabel11062413223D

 46 50  0  0  1  0  0  0  0  0999 V2000
  190.1530  176.1760  138.1860 C   0  0  0  0  0  0  0  0  0  0  0  0
  190.9240  175.3000  138.5500 O   0  0  0  0  0  0  0  0  0  0  0  0
  189.9010  177.6210  139.2130 S   0  0  0  0  0  0  0  0  0  0  0  0
  190.3890  177.1360  142.9200 N   0  0  0  0  0  0  0  0  0  0  0  0
  191.7090  177.8410  141.1570 O   0  0  0  0  0  0  0  0  0  0  0  0
  190.8230  176.8830  140.5930 C   0  0  1  0  0  3  0  0  0  0  0  0
  192.0740  178.7460  143.2640 O   0  0  0  0  0  0  0  0  0  0  0  0
  189.8520  176.4940  141.7270 C   0  0  0  0  0  2  0  0  0  0  0  0
  191.4500  177.9630  142.5000 C   0  0  0  0  0  0  0  0  0  0  0  0
  189.7040  177.2550  144.2030 C   0  0  2  0  0  3  0  0  0  0  0  0
  190.6240  176.9190  145.3390 C   0  0  0  0  0  0  0  0  0  0  0  0
  190.4500  177.4250  146.4790 O   0  0  0  0  0  1  0  0  0  0  0  0
  191.6630  176.0210  145.1360 O   0  0  0  0  0  0  0  0  0  0  0  0
  188.4370  176.4030  144.2140 C   0  0  0  0  0  2  0  0  0  0  0  0
  187.2030  177.6940  146.7630 C   0  0  0  0  0  3  0  0  0  0  0  0
  184.9450  178.9430  144.1460 C   0  0  0  0  0  0  0  0  0  0  0  0
  186.5690  177.5490  142.9770 C   0  0  0  0  0  3  0  0  0  0  0  0
  186.7060  177.8330  145.3670 C   0  0  0  0  0  0  0  0  0  0  0  0
  187.2150  177.2630  144.1930 C   0  0  0  0  0  0  0  0  0  0  0  0
  185.4370  178.3840  142.9550 C   0  0  0  0  0  3  0  0  0  0  0  0
  185.2640  179.1190  146.6270 N   0  0  0  0  0  0  0  0  0  0  0  0
  183.7490  179.8290  144.1210 C   0  0  0  0  0  1  0  0  0  0  0  0
  186.2270  178.5640  147.5780 C   0  0  0  0  0  2  0  0  0  0  0  0
  185.6080  178.6460  145.3410 C   0  0  0  0  0  0  0  0  0  0  0  0
  189.4350  176.0710  136.8730 C   0  0  2  0  0  3  0  0  0  0  0  0
  184.7670  175.1320  137.1890 N   0  0  0  0  0  0  0  0  0  0  0  0
  187.0520  175.3580  137.0480 C   0  0  0  0  0  0  0  0  0  0  0  0
  183.4550  174.5570  137.2030 C   0  0  0  0  0  0  0  0  0  0  0  0
  188.3430  175.0390  136.9180 C   0  0  0  0  0  2  0  0  0  0  0  0
  186.5240  176.7470  137.1960 C   0  0  0  0  0  3  0  0  0  0  0  0
  183.3120  173.3150  137.0440 O   0  0  0  0  0  0  0  0  0  0  0  0
  185.9760  174.3410  137.0560 C   0  0  0  0  0  3  0  0  0  0  0  0
  185.0160  176.5650  137.2980 C   0  0  0  0  0  3  0  0  0  0  0  0
  182.2510  175.4210  137.4400 C   0  0  1  0  0  3  0  0  0  0  0  0
  181.2840  175.2270  136.4490 O   0  0  0  0  0  1  0  0  0  0  0  0
  181.6590  175.2270  138.8360 C   0  0  0  0  0  2  0  0  0  0  0  0
  179.5310  177.3680  140.9370 C   0  0  0  0  0  3  0  0  0  0  0  0
  181.4190  176.5180  139.5630 C   0  0  0  0  0  0  0  0  0  0  0  0
  179.1450  176.3490  138.8540 F   0  0  0  0  0  0  0  0  0  0  0  0
  180.1310  178.1770  141.8090 C   0  0  0  0  0  3  0  0  0  0  0  0
  180.0480  177.1330  139.5560 C   0  0  1  0  0  3  0  0  0  0  0  0
  182.4270  178.4390  140.8220 C   0  0  0  0  0  3  0  0  0  0  0  0
  181.4140  178.8710  141.5840 C   0  0  0  0  0  3  0  0  0  0  0  0
  182.4720  177.1750  140.0590 C   0  0  0  0  0  3  0  0  0  0  0  0
  190.4070  175.8270  135.7180 C   0  0  0  0  0  2  0  0  0  0  0  0
  190.0440  174.6390  134.9600 N   0  0  0  0  0  1  0  0  0  0  0  0
  1  2  2  0  0  0  0
  1  3  1  0  0  0  0
  4 10  1  0  0  0  0
  5  9  1  0  0  0  0
  6  3  1  6  0  0  0
  6  5  1  0  0  0  0
  6  8  1  0  0  0  0
  8  4  1  0  0  0  0
  9  4  1  0  0  0  0
  9  7  2  0  0  0  0
 10 14  1  6  0  0  0
 10 11  1  0  0  0  0
 11 12  1  0  0  0  0
 13 11  2  0  0  0  0
 15 23  1  0  0  0  0
 16 24  1  0  0  0  0
 17 19  2  0  0  0  0
 18 15  2  0  0  0  0
 19 14  1  0  0  0  0
 19 18  1  0  0  0  0
 20 17  1  0  0  0  0
 20 16  2  0  0  0  0
 21 23  1  0  0  0  0
 22 16  1  0  0  0  0
 24 18  1  0  0  0  0
 24 21  2  0  0  0  0
 25 45  1  6  0  0  0
 25 29  1  0  0  0  0
 25  1  1  0  0  0  0
 26 28  1  0  0  0  0
 26 33  1  0  0  0  0
 27 32  2  0  0  0  0
 27 30  1  0  0  0  0
 28 34  1  0  0  0  0
 29 27  1  0  0  0  0
 30 33  2  0  0  0  0
 31 28  2  0  0  0  0
 32 26  1  0  0  0  0
 34 35  1  6  0  0  0
 34 36  1  0  0  0  0
 36 38  1  0  0  0  0
 37 40  2  0  0  0  0
 38 44  2  0  0  0  0
 41 39  1  1  0  0  0
 41 38  1  0  0  0  0
 41 37  1  0  0  0  0
 42 43  2  0  0  0  0
 43 40  1  0  0  0  0
 44 42  1  0  0  0  0
 46 45  1  0  0  0  0
M  END
>  <MODEL>
3

>  <REMARK>
 VINA RESULT:      -8.7      2.897      8.292
  Name = 
  12 active torsions:
  status: ('A' for Active; 'I' for Inactive)
    1  A    between atoms: C_2  and  C_37
    2  A    between atoms: C_4  and  C_17
    3  A    between atoms: N_5  and  C_37
    4  A    between atoms: C_7  and  C_25
    5  A    between atoms: C_7  and  C_37
    6  A    between atoms: C_11  and  S_15
    7  A    between atoms: C_12  and  C_19
    8  A    between atoms: C_13  and  C_21
    9  A    between atoms: S_15  and  C_33
   10  A    between atoms: C_17  and  C_21
   11  A    between atoms: C_19  and  C_28
   12  A    between atoms: C_19  and  C_33
                            x       y       z     vdW  Elec       q    Type
                         _______ _______ _______ _____ _____    ______ ____

>  <TORSDO>
F 12

$$$$
=
 OpenBabel11062413223D

 46 50  0  0  1  0  0  0  0  0999 V2000
  188.8290  175.6920  137.4070 C   0  0  0  0  0  0  0  0  0  0  0  0
  188.0580  174.8070  137.7460 O   0  0  0  0  0  0  0  0  0  0  0  0
  190.5140  175.6850  138.0160 S   0  0  0  0  0  0  0  0  0  0  0  0
  189.9020  177.7140  141.1350 N   0  0  0  0  0  0  0  0  0  0  0  0
  188.9150  177.5490  139.0490 O   0  0  0  0  0  0  0  0  0  0  0  0
  190.2970  177.2970  138.8240 C   0  0  1  0  0  3  0  0  0  0  0  0
  187.5830  178.0480  140.8850 O   0  0  0  0  0  0  0  0  0  0  0  0
  190.9500  177.2780  140.2220 C   0  0  0  0  0  2  0  0  0  0  0  0
  188.7120  177.7980  140.3850 C   0  0  0  0  0  0  0  0  0  0  0  0
  189.9600  177.6430  142.5910 C   0  0  2  0  0  3  0  0  0  0  0  0
  191.3750  177.5090  143.0690 C   0  0  0  0  0  0  0  0  0  0  0  0
  191.8750  176.3750  143.2930 O   0  0  0  0  0  1  0  0  0  0  0  0
  192.1510  178.6480  143.2400 O   0  0  0  0  0  0  0  0  0  0  0  0
  189.0670  176.5170  143.1080 C   0  0  0  0  0  2  0  0  0  0  0  0
  189.7750  176.9600  146.1050 C   0  0  0  0  0  3  0  0  0  0  0  0
  186.2690  178.0610  146.0120 C   0  0  0  0  0  0  0  0  0  0  0  0
  186.7810  177.3630  143.7330 C   0  0  0  0  0  3  0  0  0  0  0  0
  188.4630  177.2250  145.4540 C   0  0  0  0  0  0  0  0  0  0  0  0
  188.0920  177.0290  144.1170 C   0  0  0  0  0  0  0  0  0  0  0  0
  185.8730  177.8750  144.6780 C   0  0  0  0  0  3  0  0  0  0  0  0
  188.1540  177.8490  147.6530 N   0  0  0  0  0  0  0  0  0  0  0  0
  185.3090  178.6050  147.0110 C   0  0  0  0  0  1  0  0  0  0  0  0
  189.5400  177.3890  147.5680 C   0  0  0  0  0  2  0  0  0  0  0  0
  187.5790  177.7250  146.3690 C   0  0  0  0  0  0  0  0  0  0  0  0
  188.3930  176.7720  136.4600 C   0  0  2  0  0  3  0  0  0  0  0  0
  183.8290  177.8760  137.3090 N   0  0  0  0  0  0  0  0  0  0  0  0
  185.9520  177.2000  136.7380 C   0  0  0  0  0  0  0  0  0  0  0  0
  182.4100  178.0740  137.2800 C   0  0  0  0  0  0  0  0  0  0  0  0
  186.9510  176.6170  136.0670 C   0  0  0  0  0  2  0  0  0  0  0  0
  186.1190  178.0410  137.9600 C   0  0  0  0  0  3  0  0  0  0  0  0
  181.7270  177.5850  136.3410 O   0  0  0  0  0  0  0  0  0  0  0  0
  184.5350  177.0740  136.3270 C   0  0  0  0  0  3  0  0  0  0  0  0
  184.7010  178.4630  138.3200 C   0  0  0  0  0  3  0  0  0  0  0  0
  181.7290  178.8350  138.3800 C   0  0  1  0  0  3  0  0  0  0  0  0
  180.6990  179.6360  137.8790 O   0  0  0  0  0  1  0  0  0  0  0  0
  181.2260  177.9200  139.4970 C   0  0  0  0  0  2  0  0  0  0  0  0
  180.0370  178.6710  142.8940 C   0  0  0  0  0  3  0  0  0  0  0  0
  181.4640  178.4760  140.8700 C   0  0  0  0  0  0  0  0  0  0  0  0
  179.2310  179.3150  140.7820 F   0  0  0  0  0  0  0  0  0  0  0  0
  180.9140  178.5860  143.8940 C   0  0  0  0  0  3  0  0  0  0  0  0
  180.3760  179.2490  141.5600 C   0  0  1  0  0  3  0  0  0  0  0  0
  183.1140  178.8790  142.7160 C   0  0  0  0  0  3  0  0  0  0  0  0
  182.3420  178.9510  143.8070 C   0  0  0  0  0  3  0  0  0  0  0  0
  182.6990  178.4110  141.3780 C   0  0  0  0  0  3  0  0  0  0  0  0
  189.3130  176.8560  135.2410 C   0  0  0  0  0  2  0  0  0  0  0  0
  189.5480  175.5430  134.6610 N   0  0  0  0  0  1  0  0  0  0  0  0
  1  2  2  0  0  0  0
  1  3  1  0  0  0  0
  4 10  1  0  0  0  0
  5  9  1  0  0  0  0
  6  3  1  1  0  0  0
  6  5  1  0  0  0  0
  6  8  1  0  0  0  0
  8  4  1  0  0  0  0
  9  7  2  0  0  0  0
  9  4  1  0  0  0  0
 10 11  1  0  0  0  0
 10 14  1  6  0  0  0
 11 13  2  0  0  0  0
 11 12  1  0  0  0  0
 14 19  1  0  0  0  0
 15 23  1  0  0  0  0
 16 24  1  0  0  0  0
 16 22  1  0  0  0  0
 17 19  2  0  0  0  0
 17 20  1  0  0  0  0
 18 15  2  0  0  0  0
 18 24  1  0  0  0  0
 19 18  1  0  0  0  0
 20 16  2  0  0  0  0
 23 21  1  0  0  0  0
 24 21  2  0  0  0  0
 25 45  1  6  0  0  0
 25  1  1  0  0  0  0
 26 33  1  0  0  0  0
 27 30  1  0  0  0  0
 28 26  1  0  0  0  0
 28 34  1  0  0  0  0
 29 25  1  0  0  0  0
 29 27  1  0  0  0  0
 30 33  2  0  0  0  0
 31 28  2  0  0  0  0
 32 27  2  0  0  0  0
 32 26  1  0  0  0  0
 34 35  1  6  0  0  0
 34 36  1  0  0  0  0
 36 38  1  0  0  0  0
 37 40  2  0  0  0  0
 38 44  2  0  0  0  0
 38 41  1  0  0  0  0
 41 39  1  6  0  0  0
 41 37  1  0  0  0  0
 42 43  2  0  0  0  0
 43 40  1  0  0  0  0
 44 42  1  0  0  0  0
 46 45  1  0  0  0  0
M  END
>  <MODEL>
4

>  <REMARK>
 VINA RESULT:      -8.4      2.638      8.134
  Name = 
  12 active torsions:
  status: ('A' for Active; 'I' for Inactive)
    1  A    between atoms: C_2  and  C_37
    2  A    between atoms: C_4  and  C_17
    3  A    between atoms: N_5  and  C_37
    4  A    between atoms: C_7  and  C_25
    5  A    between atoms: C_7  and  C_37
    6  A    between atoms: C_11  and  S_15
    7  A    between atoms: C_12  and  C_19
    8  A    between atoms: C_13  and  C_21
    9  A    between atoms: S_15  and  C_33
   10  A    between atoms: C_17  and  C_21
   11  A    between atoms: C_19  and  C_28
   12  A    between atoms: C_19  and  C_33
                            x       y       z     vdW  Elec       q    Type
                         _______ _______ _______ _____ _____    ______ ____

>  <TORSDO>
F 12

$$$$
=
 OpenBabel11062413223D

 46 50  0  0  1  0  0  0  0  0999 V2000
  179.9780  178.2000  141.2510 C   0  0  0  0  0  0  0  0  0  0  0  0
  179.6490  177.1690  141.8180 O   0  0  0  0  0  0  0  0  0  0  0  0
  179.9270  178.2850  139.4630 S   0  0  0  0  0  0  0  0  0  0  0  0
  183.5070  177.2680  138.8570 N   0  0  0  0  0  0  0  0  0  0  0  0
  181.4570  176.7370  137.9260 O   0  0  0  0  0  0  0  0  0  0  0  0
  181.1840  176.9850  139.3000 C   0  0  1  0  0  3  0  0  0  0  0  0
  183.3380  176.7470  136.5650 O   0  0  0  0  0  0  0  0  0  0  0  0
  182.5190  177.4620  139.9100 C   0  0  0  0  0  2  0  0  0  0  0  0
  182.8020  176.8940  137.6950 C   0  0  0  0  0  0  0  0  0  0  0  0
  184.8730  177.7800  138.8670 C   0  0  2  0  0  3  0  0  0  0  0  0
  184.9300  179.1500  139.4760 C   0  0  0  0  0  0  0  0  0  0  0  0
  185.6630  179.3800  140.4740 O   0  0  0  0  0  1  0  0  0  0  0  0
  184.1850  180.1800  138.9180 O   0  0  0  0  0  0  0  0  0  0  0  0
  185.4670  177.7480  137.4620 C   0  0  0  0  0  2  0  0  0  0  0  0
  186.4300  174.8480  136.8730 C   0  0  0  0  0  3  0  0  0  0  0  0
  189.6200  176.5620  137.5010 C   0  0  0  0  0  0  0  0  0  0  0  0
  187.9070  178.2730  137.7880 C   0  0  0  0  0  3  0  0  0  0  0  0
  187.2870  176.0160  137.2120 C   0  0  2  0  0  3  0  0  0  0  0  0
  186.9020  177.3330  137.4990 C   0  0  0  0  0  0  0  0  0  0  0  0
  189.2600  177.8890  137.7910 C   0  0  0  0  0  3  0  0  0  0  0  0
  188.7730  174.2810  136.8940 N   0  0  0  0  0  0  0  0  0  0  0  0
  191.0520  176.1560  137.5020 C   0  0  0  0  0  1  0  0  0  0  0  0
  187.4470  173.7080  136.6630 C   0  0  0  0  0  3  0  0  0  0  0  0
  188.6030  175.6470  137.2140 C   0  0  0  0  0  0  0  0  0  0  0  0
  180.3970  179.4090  142.0350 C   0  0  2  0  0  3  0  0  0  0  0  0
  184.1190  178.6730  144.9280 N   0  0  0  0  0  0  0  0  0  0  0  0
  182.1910  178.9550  143.7050 C   0  0  0  0  0  0  0  0  0  0  0  0
  185.0150  178.4510  146.0240 C   0  0  0  0  0  0  0  0  0  0  0  0
  180.8920  179.0390  143.4050 C   0  0  0  0  0  2  0  0  0  0  0  0
  183.3090  179.1790  142.7410 C   0  0  0  0  0  3  0  0  0  0  0  0
  184.5550  178.2540  147.1810 O   0  0  0  0  0  0  0  0  0  0  0  0
  182.6750  178.6260  145.0660 C   0  0  0  0  0  3  0  0  0  0  0  0
  184.5670  178.9750  143.5740 C   0  0  0  0  0  3  0  0  0  0  0  0
  186.4990  178.4190  145.7960 C   0  0  1  0  0  3  0  0  0  0  0  0
  187.1990  178.6640  146.9800 O   0  0  0  0  0  1  0  0  0  0  0  0
  186.9590  177.1180  145.1380 C   0  0  0  0  0  2  0  0  0  0  0  0
  190.2820  176.3770  143.7480 C   0  0  0  0  0  3  0  0  0  0  0  0
  188.0100  177.3250  144.0880 C   0  0  0  0  0  0  0  0  0  0  0  0
  189.6170  177.1980  145.8490 F   0  0  0  0  0  0  0  0  0  0  0  0
  190.4160  176.3790  142.4220 C   0  0  0  0  0  3  0  0  0  0  0  0
  189.4590  177.3820  144.4830 C   0  0  1  0  0  3  0  0  0  0  0  0
  188.5040  177.8300  141.6810 C   0  0  0  0  0  3  0  0  0  0  0  0
  189.7140  177.2890  141.4960 C   0  0  0  0  0  3  0  0  0  0  0  0
  187.6190  177.6200  142.8440 C   0  0  0  0  0  3  0  0  0  0  0  0
  179.2840  180.4560  142.0910 C   0  0  0  0  0  2  0  0  0  0  0  0
  179.4620  181.4770  141.0700 N   0  0  0  0  0  1  0  0  0  0  0  0
  1  2  2  0  0  0  0
  1 25  1  0  0  0  0
  3  1  1  0  0  0  0
  4 10  1  0  0  0  0
  4  8  1  0  0  0  0
  5  6  1  0  0  0  0
  6  3  1  6  0  0  0
  6  8  1  0  0  0  0
  7  9  2  0  0  0  0
  9  5  1  0  0  0  0
  9  4  1  0  0  0  0
 10 14  1  6  0  0  0
 10 11  1  0  0  0  0
 11 12  1  0  0  0  0
 13 11  2  0  0  0  0
 14 19  1  0  0  0  0
 16 22  1  0  0  0  0
 16 20  2  0  0  0  0
 17 20  1  0  0  0  0
 18 15  1  6  0  0  0
 18 24  1  0  0  0  0
 18 19  1  0  0  0  0
 19 17  2  0  0  0  0
 21 24  2  0  0  0  0
 23 15  2  0  0  0  0
 23 21  1  0  0  0  0
 24 16  1  0  0  0  0
 25 45  1  1  0  0  0
 25 29  1  0  0  0  0
 26 32  1  0  0  0  0
 26 28  1  0  0  0  0
 27 32  2  0  0  0  0
 28 31  2  0  0  0  0
 29 27  1  0  0  0  0
 30 33  2  0  0  0  0
 30 27  1  0  0  0  0
 33 26  1  0  0  0  0
 34 28  1  0  0  0  0
 34 35  1  1  0  0  0
 36 34  1  0  0  0  0
 37 41  1  0  0  0  0
 38 41  1  0  0  0  0
 38 36  1  0  0  0  0
 40 37  2  0  0  0  0
 41 39  1  1  0  0  0
 42 44  1  0  0  0  0
 43 42  2  0  0  0  0
 43 40  1  0  0  0  0
 44 38  2  0  0  0  0
 46 45  1  0  0  0  0
M  END
>  <MODEL>
5

>  <REMARK>
 VINA RESULT:      -8.2      2.850      7.455
  Name = 
  12 active torsions:
  status: ('A' for Active; 'I' for Inactive)
    1  A    between atoms: C_2  and  C_37
    2  A    between atoms: C_4  and  C_17
    3  A    between atoms: N_5  and  C_37
    4  A    between atoms: C_7  and  C_25
    5  A    between atoms: C_7  and  C_37
    6  A    between atoms: C_11  and  S_15
    7  A    between atoms: C_12  and  C_19
    8  A    between atoms: C_13  and  C_21
    9  A    between atoms: S_15  and  C_33
   10  A    between atoms: C_17  and  C_21
   11  A    between atoms: C_19  and  C_28
   12  A    between atoms: C_19  and  C_33
                            x       y       z     vdW  Elec       q    Type
                         _______ _______ _______ _____ _____    ______ ____

>  <TORSDO>
F 12

$$$$
=
 OpenBabel11062413223D

 46 50  0  0  1  0  0  0  0  0999 V2000
  183.1000  177.6970  138.7590 C   0  0  0  0  0  0  0  0  0  0  0  0
  183.7540  177.7130  137.7280 O   0  0  0  0  0  0  0  0  0  0  0  0
  182.5410  176.1340  139.4330 S   0  0  0  0  0  0  0  0  0  0  0  0
  181.2110  173.9570  136.6560 N   0  0  0  0  0  0  0  0  0  0  0  0
  182.0470  176.1090  136.8150 O   0  0  0  0  0  0  0  0  0  0  0  0
  181.3880  175.8770  138.0540 C   0  0  1  0  0  3  0  0  0  0  0  0
  182.4140  174.9030  134.8650 O   0  0  0  0  0  0  0  0  0  0  0  0
  180.9330  174.4030  138.0150 C   0  0  0  0  0  2  0  0  0  0  0  0
  181.9230  174.9950  136.0210 C   0  0  0  0  0  0  0  0  0  0  0  0
  181.1670  172.5760  136.1890 C   0  0  2  0  0  3  0  0  0  0  0  0
  179.7520  172.1060  136.0280 C   0  0  0  0  0  0  0  0  0  0  0  0
  179.0330  172.5380  135.0890 O   0  0  0  0  0  0  0  0  0  0  0  0
  179.2380  171.1650  136.9100 O   0  0  0  0  0  1  0  0  0  0  0  0
  181.9740  171.6720  137.1170 C   0  0  0  0  0  2  0  0  0  0  0  0
  184.5380  173.3980  137.4760 C   0  0  0  0  0  3  0  0  0  0  0  0
  185.8050  170.6320  135.4140 C   0  0  0  0  0  0  0  0  0  0  0  0
  183.4370  170.1520  135.7430 C   0  0  0  0  0  3  0  0  0  0  0  0
  184.4240  172.1270  136.7110 C   0  0  0  0  0  0  0  0  0  0  0  0
  183.2940  171.3240  136.5080 C   0  0  0  0  0  0  0  0  0  0  0  0
  184.6870  169.8090  135.1970 C   0  0  0  0  0  3  0  0  0  0  0  0
  186.6420  172.7270  136.5080 N   0  0  0  0  0  0  0  0  0  0  0  0
  187.1280  170.2670  134.8390 C   0  0  0  0  0  1  0  0  0  0  0  0
  186.0270  173.7720  137.3270 C   0  0  0  0  0  2  0  0  0  0  0  0
  185.6370  171.7900  136.1810 C   0  0  0  0  0  0  0  0  0  0  0  0
  182.7810  178.9690  139.4880 C   0  0  2  0  0  3  0  0  0  0  0  0
  184.4160  178.8320  143.9690 N   0  0  0  0  0  0  0  0  0  0  0  0
  183.4300  178.8150  141.8910 C   0  0  0  0  0  0  0  0  0  0  0  0
  184.6000  178.7690  145.3890 C   0  0  0  0  0  0  0  0  0  0  0  0
  182.4940  178.7190  140.9420 C   0  0  0  0  0  2  0  0  0  0  0  0
  184.8650  179.1450  141.6460 C   0  0  0  0  0  3  0  0  0  0  0  0
  183.6100  178.5590  146.1410 O   0  0  0  0  0  0  0  0  0  0  0  0
  183.1350  178.6040  143.3260 C   0  0  0  0  0  3  0  0  0  0  0  0
  185.4930  179.1370  143.0330 C   0  0  0  0  0  3  0  0  0  0  0  0
  185.9700  178.9200  145.9830 C   0  0  1  0  0  3  0  0  0  0  0  0
  185.9210  179.6060  147.2000 O   0  0  0  0  0  1  0  0  0  0  0  0
  186.6920  177.5810  146.1310 C   0  0  0  0  0  2  0  0  0  0  0  0
  190.1000  176.8220  147.2840 C   0  0  0  0  0  3  0  0  0  0  0  0
  188.1800  177.6890  145.9680 C   0  0  0  0  0  0  0  0  0  0  0  0
  188.2990  177.9000  148.3430 F   0  0  0  0  0  0  0  0  0  0  0  0
  191.0440  176.6400  146.3600 C   0  0  0  0  0  3  0  0  0  0  0  0
  189.0500  177.8780  147.1780 C   0  0  1  0  0  3  0  0  0  0  0  0
  190.1110  177.8680  144.3780 C   0  0  0  0  0  3  0  0  0  0  0  0
  191.1350  177.3700  145.0810 C   0  0  0  0  0  3  0  0  0  0  0  0
  188.6800  177.7820  144.7310 C   0  0  0  0  0  3  0  0  0  0  0  0
  181.6510  179.7410  138.8050 C   0  0  0  0  0  2  0  0  0  0  0  0
  180.5680  180.0300  139.7330 N   0  0  0  0  0  1  0  0  0  0  0  0
  1  3  1  0  0  0  0
  1 25  1  0  0  0  0
  2  1  2  0  0  0  0
  4  8  1  0  0  0  0
  5  6  1  0  0  0  0
  6  3  1  1  0  0  0
  7  9  2  0  0  0  0
  8  6  1  0  0  0  0
  9  4  1  0  0  0  0
  9  5  1  0  0  0  0
 10  4  1  0  0  0  0
 10 14  1  1  0  0  0
 11 10  1  0  0  0  0
 11 13  1  0  0  0  0
 12 11  2  0  0  0  0
 16 24  1  0  0  0  0
 17 19  2  0  0  0  0
 18 15  2  0  0  0  0
 19 18  1  0  0  0  0
 19 14  1  0  0  0  0
 20 16  2  0  0  0  0
 20 17  1  0  0  0  0
 21 23  1  0  0  0  0
 22 16  1  0  0  0  0
 23 15  1  0  0  0  0
 24 21  2  0  0  0  0
 24 18  1  0  0  0  0
 25 45  1  6  0  0  0
 25 29  1  0  0  0  0
 26 28  1  0  0  0  0
 27 32  2  0  0  0  0
 28 34  1  0  0  0  0
 28 31  2  0  0  0  0
 29 27  1  0  0  0  0
 30 27  1  0  0  0  0
 30 33  2  0  0  0  0
 32 26  1  0  0  0  0
 33 26  1  0  0  0  0
 34 36  1  0  0  0  0
 34 35  1  1  0  0  0
 38 36  1  0  0  0  0
 38 41  1  0  0  0  0
 40 37  2  0  0  0  0
 41 37  1  0  0  0  0
 41 39  1  1  0  0  0
 42 44  1  0  0  0  0
 42 43  2  0  0  0  0
 43 40  1  0  0  0  0
 44 38  2  0  0  0  0
 45 46  1  0  0  0  0
M  END
>  <MODEL>
6

>  <REMARK>
 VINA RESULT:      -7.9      3.806      7.338
  Name = 
  12 active torsions:
  status: ('A' for Active; 'I' for Inactive)
    1  A    between atoms: C_2  and  C_37
    2  A    between atoms: C_4  and  C_17
    3  A    between atoms: N_5  and  C_37
    4  A    between atoms: C_7  and  C_25
    5  A    between atoms: C_7  and  C_37
    6  A    between atoms: C_11  and  S_15
    7  A    between atoms: C_12  and  C_19
    8  A    between atoms: C_13  and  C_21
    9  A    between atoms: S_15  and  C_33
   10  A    between atoms: C_17  and  C_21
   11  A    between atoms: C_19  and  C_28
   12  A    between atoms: C_19  and  C_33
                            x       y       z     vdW  Elec       q    Type
                         _______ _______ _______ _____ _____    ______ ____

>  <TORSDO>
F 12

$$$$
=
 OpenBabel11062413223D

 46 50  0  0  1  0  0  0  0  0999 V2000
  185.6920  175.7640  135.8090 C   0  0  0  0  0  0  0  0  0  0  0  0
  185.0470  175.8160  134.7730 O   0  0  0  0  0  0  0  0  0  0  0  0
  185.0910  174.7850  137.1830 S   0  0  0  0  0  0  0  0  0  0  0  0
  182.2130  176.8510  138.4760 N   0  0  0  0  0  0  0  0  0  0  0  0
  182.4960  174.6640  137.7740 O   0  0  0  0  0  0  0  0  0  0  0  0
  183.4030  175.4250  136.9850 C   0  0  1  0  0  3  0  0  0  0  0  0
  180.9460  175.1160  139.4430 O   0  0  0  0  0  0  0  0  0  0  0  0
  183.3190  176.8670  137.5270 C   0  0  0  0  0  2  0  0  0  0  0  0
  181.8130  175.5060  138.6170 C   0  0  0  0  0  0  0  0  0  0  0  0
  181.8850  177.9150  139.4180 C   0  0  2  0  0  3  0  0  0  0  0  0
  180.6520  178.6530  138.9880 C   0  0  0  0  0  0  0  0  0  0  0  0
  180.7180  179.8520  138.6090 O   0  0  0  0  0  0  0  0  0  0  0  0
  179.4280  177.9980  138.9840 O   0  0  0  0  0  1  0  0  0  0  0  0
  183.0790  178.8480  139.6090 C   0  0  0  0  0  2  0  0  0  0  0  0
  181.3580  179.0070  142.1960 C   0  0  0  0  0  3  0  0  0  0  0  0
  184.7060  178.3940  143.5830 C   0  0  0  0  0  0  0  0  0  0  0  0
  185.0210  178.4810  141.1670 C   0  0  0  0  0  3  0  0  0  0  0  0
  182.8260  178.7790  142.1190 C   0  0  0  0  0  0  0  0  0  0  0  0
  183.6460  178.7140  140.9840 C   0  0  0  0  0  0  0  0  0  0  0  0
  185.5480  178.3230  142.4610 C   0  0  0  0  0  3  0  0  0  0  0  0
  182.3490  178.7190  144.3750 N   0  0  0  0  0  0  0  0  0  0  0  0
  185.2640  178.2250  144.9520 C   0  0  0  0  0  1  0  0  0  0  0  0
  181.0680  178.9570  143.7100 C   0  0  0  0  0  2  0  0  0  0  0  0
  183.3420  178.6240  143.3750 C   0  0  0  0  0  0  0  0  0  0  0  0
  187.0010  176.4870  135.9370 C   0  0  2  0  0  3  0  0  0  0  0  0
  189.1350  177.4850  140.0860 N   0  0  0  0  0  0  0  0  0  0  0  0
  187.9480  177.1590  138.1430 C   0  0  0  0  0  0  0  0  0  0  0  0
  189.5950  178.0450  141.3220 C   0  0  0  0  0  0  0  0  0  0  0  0
  187.0470  177.3400  137.1730 C   0  0  0  0  0  2  0  0  0  0  0  0
  188.9930  176.0930  138.1530 C   0  0  0  0  0  3  0  0  0  0  0  0
  189.0500  179.0840  141.7820 O   0  0  0  0  0  0  0  0  0  0  0  0
  188.0120  178.0250  139.3430 C   0  0  0  0  0  3  0  0  0  0  0  0
  189.7530  176.3260  139.4510 C   0  0  0  0  0  3  0  0  0  0  0  0
  190.7010  177.3810  142.0900 C   0  0  1  0  0  3  0  0  0  0  0  0
  191.5090  178.3230  142.7320 O   0  0  0  0  0  1  0  0  0  0  0  0
  190.1810  176.3350  143.0760 C   0  0  0  0  0  2  0  0  0  0  0  0
  188.6480  177.1140  146.3260 C   0  0  0  0  0  3  0  0  0  0  0  0
  190.3060  176.7590  144.5100 C   0  0  0  0  0  0  0  0  0  0  0  0
  188.3020  178.0150  144.1830 F   0  0  0  0  0  0  0  0  0  0  0  0
  189.3340  176.8070  147.4280 C   0  0  0  0  0  3  0  0  0  0  0  0
  189.2850  177.6870  145.1040 C   0  0  1  0  0  3  0  0  0  0  0  0
  191.7030  176.7360  146.5930 C   0  0  0  0  0  3  0  0  0  0  0  0
  190.8010  176.8950  147.5700 C   0  0  0  0  0  3  0  0  0  0  0  0
  191.4170  176.4300  145.1770 C   0  0  0  0  0  3  0  0  0  0  0  0
  187.3270  177.2880  134.6760 C   0  0  0  0  0  2  0  0  0  0  0  0
  188.6470  177.8940  134.7570 N   0  0  0  0  0  1  0  0  0  0  0  0
  1 25  1  0  0  0  0
  1  3  1  0  0  0  0
  2  1  2  0  0  0  0
  4  9  1  0  0  0  0
  4 10  1  0  0  0  0
  5  9  1  0  0  0  0
  6  3  1  1  0  0  0
  6  8  1  0  0  0  0
  6  5  1  0  0  0  0
  8  4  1  0  0  0  0
  9  7  2  0  0  0  0
 10 14  1  6  0  0  0
 11 10  1  0  0  0  0
 12 11  2  0  0  0  0
 13 11  1  0  0  0  0
 14 19  1  0  0  0  0
 15 23  1  0  0  0  0
 16 22  1  0  0  0  0
 17 20  1  0  0  0  0
 18 15  2  0  0  0  0
 18 24  1  0  0  0  0
 19 17  2  0  0  0  0
 19 18  1  0  0  0  0
 20 16  2  0  0  0  0
 23 21  1  0  0  0  0
 24 16  1  0  0  0  0
 24 21  2  0  0  0  0
 25 45  1  6  0  0  0
 25 29  1  0  0  0  0
 26 28  1  0  0  0  0
 27 30  1  0  0  0  0
 27 32  2  0  0  0  0
 28 31  2  0  0  0  0
 28 34  1  0  0  0  0
 29 27  1  0  0  0  0
 30 33  2  0  0  0  0
 32 26  1  0  0  0  0
 33 26  1  0  0  0  0
 34 35  1  1  0  0  0
 34 36  1  0  0  0  0
 36 38  1  0  0  0  0
 37 40  2  0  0  0  0
 38 41  1  0  0  0  0
 38 44  2  0  0  0  0
 40 43  1  0  0  0  0
 41 39  1  6  0  0  0
 41 37  1  0  0  0  0
 42 43  2  0  0  0  0
 44 42  1  0  0  0  0
 45 46  1  0  0  0  0
M  END
>  <MODEL>
7

>  <REMARK>
 VINA RESULT:      -7.7      2.323      3.995
  Name = 
  12 active torsions:
  status: ('A' for Active; 'I' for Inactive)
    1  A    between atoms: C_2  and  C_37
    2  A    between atoms: C_4  and  C_17
    3  A    between atoms: N_5  and  C_37
    4  A    between atoms: C_7  and  C_25
    5  A    between atoms: C_7  and  C_37
    6  A    between atoms: C_11  and  S_15
    7  A    between atoms: C_12  and  C_19
    8  A    between atoms: C_13  and  C_21
    9  A    between atoms: S_15  and  C_33
   10  A    between atoms: C_17  and  C_21
   11  A    between atoms: C_19  and  C_28
   12  A    between atoms: C_19  and  C_33
                            x       y       z     vdW  Elec       q    Type
                         _______ _______ _______ _____ _____    ______ ____

>  <TORSDO>
F 12

$$$$
=
 OpenBabel11062413223D

 46 50  0  0  1  0  0  0  0  0999 V2000
  188.4010  177.8650  136.5170 C   0  0  0  0  0  0  0  0  0  0  0  0
  188.7610  179.0310  136.4860 O   0  0  0  0  0  0  0  0  0  0  0  0
  186.7250  177.4390  136.0470 S   0  0  0  0  0  0  0  0  0  0  0  0
  183.9760  177.9500  138.5770 N   0  0  0  0  0  0  0  0  0  0  0  0
  186.1020  178.8030  138.2490 O   0  0  0  0  0  0  0  0  0  0  0  0
  186.1650  177.4630  137.7740 C   0  0  1  0  0  3  0  0  0  0  0  0
  184.4780  180.1670  139.1940 O   0  0  0  0  0  0  0  0  0  0  0  0
  184.7250  176.9190  137.8680 C   0  0  0  0  0  2  0  0  0  0  0  0
  184.8360  179.0580  138.7170 C   0  0  0  0  0  0  0  0  0  0  0  0
  182.5250  178.0050  138.7120 C   0  0  2  0  0  3  0  0  0  0  0  0
  181.8510  177.7320  137.4010 C   0  0  0  0  0  0  0  0  0  0  0  0
  181.8590  178.5920  136.4810 O   0  0  0  0  0  0  0  0  0  0  0  0
  181.2320  176.5060  137.1900 O   0  0  0  0  0  1  0  0  0  0  0  0
  182.0940  179.3390  139.3160 C   0  0  0  0  0  2  0  0  0  0  0  0
  183.5450  178.9120  142.0360 C   0  0  0  0  0  3  0  0  0  0  0  0
  180.0190  178.8100  143.0660 C   0  0  0  0  0  0  0  0  0  0  0  0
  179.9700  179.1460  140.6520 C   0  0  0  0  0  3  0  0  0  0  0  0
  182.0750  178.9580  141.8120 C   0  0  0  0  0  0  0  0  0  0  0  0
  181.3760  179.1330  140.6100 C   0  0  0  0  0  0  0  0  0  0  0  0
  179.2950  178.9840  141.8750 C   0  0  0  0  0  3  0  0  0  0  0  0
  182.3040  178.6480  144.0850 N   0  0  0  0  0  0  0  0  0  0  0  0
  179.3040  178.6400  144.3610 C   0  0  0  0  0  1  0  0  0  0  0  0
  183.6680  178.7090  143.5590 C   0  0  0  0  0  2  0  0  0  0  0  0
  181.4160  178.8030  142.9980 C   0  0  0  0  0  0  0  0  0  0  0  0
  189.3530  176.7760  136.9160 C   0  0  2  0  0  3  0  0  0  0  0  0
  190.6930  177.0680  141.4870 N   0  0  0  0  0  0  0  0  0  0  0  0
  190.2250  177.0630  139.2350 C   0  0  0  0  0  0  0  0  0  0  0  0
  191.3690  177.2570  142.7360 C   0  0  0  0  0  0  0  0  0  0  0  0
  190.3620  177.2590  137.9200 C   0  0  0  0  0  2  0  0  0  0  0  0
  189.0660  176.3800  139.8820 C   0  0  0  0  0  3  0  0  0  0  0  0
  192.5150  177.7820  142.7560 O   0  0  0  0  0  0  0  0  0  0  0  0
  191.2390  177.5100  140.2170 C   0  0  0  0  0  3  0  0  0  0  0  0
  189.3970  176.4080  141.3680 C   0  0  0  0  0  3  0  0  0  0  0  0
  190.7070  176.8630  144.0240 C   0  0  1  0  0  3  0  0  0  0  0  0
  191.5530  176.0750  144.8080 O   0  0  0  0  0  1  0  0  0  0  0  0
  190.1900  178.0700  144.8070 C   0  0  0  0  0  2  0  0  0  0  0  0
  188.1220  178.2430  147.8420 C   0  0  0  0  0  3  0  0  0  0  0  0
  188.9000  177.8020  145.5240 C   0  0  0  0  0  0  0  0  0  0  0  0
  190.2200  177.2620  147.4380 F   0  0  0  0  0  0  0  0  0  0  0  0
  186.8110  178.4300  147.6930 C   0  0  0  0  0  3  0  0  0  0  0  0
  188.9230  177.3480  146.9560 C   0  0  1  0  0  3  0  0  0  0  0  0
  186.4050  177.6030  145.3560 C   0  0  0  0  0  3  0  0  0  0  0  0
  185.9910  177.8730  146.6000 C   0  0  0  0  0  3  0  0  0  0  0  0
  187.7640  177.8160  144.8190 C   0  0  0  0  0  3  0  0  0  0  0  0
  190.0190  176.1360  135.6970 C   0  0  0  0  0  2  0  0  0  0  0  0
  191.4590  176.0300  135.8730 N   0  0  0  0  0  1  0  0  0  0  0  0
  1 25  1  0  0  0  0
  2  1  2  0  0  0  0
  3  1  1  0  0  0  0
  4 10  1  0  0  0  0
  4  9  1  0  0  0  0
  5  9  1  0  0  0  0
  6  3  1  6  0  0  0
  6  8  1  0  0  0  0
  6  5  1  0  0  0  0
  8  4  1  0  0  0  0
  9  7  2  0  0  0  0
 10 14  1  6  0  0  0
 11 10  1  0  0  0  0
 12 11  2  0  0  0  0
 13 11  1  0  0  0  0
 14 19  1  0  0  0  0
 15 23  1  0  0  0  0
 16 22  1  0  0  0  0
 17 20  1  0  0  0  0
 18 15  2  0  0  0  0
 18 24  1  0  0  0  0
 19 17  2  0  0  0  0
 19 18  1  0  0  0  0
 20 16  2  0  0  0  0
 23 21  1  0  0  0  0
 24 16  1  0  0  0  0
 24 21  2  0  0  0  0
 25 45  1  6  0  0  0
 25 29  1  0  0  0  0
 26 28  1  0  0  0  0
 27 30  1  0  0  0  0
 27 32  2  0  0  0  0
 28 31  2  0  0  0  0
 28 34  1  0  0  0  0
 29 27  1  0  0  0  0
 30 33  2  0  0  0  0
 32 26  1  0  0  0  0
 33 26  1  0  0  0  0
 34 36  1  0  0  0  0
 34 35  1  1  0  0  0
 36 38  1  0  0  0  0
 38 41  1  0  0  0  0
 40 37  2  0  0  0  0
 41 39  1  1  0  0  0
 41 37  1  0  0  0  0
 42 43  2  0  0  0  0
 43 40  1  0  0  0  0
 44 42  1  0  0  0  0
 44 38  2  0  0  0  0
 45 46  1  0  0  0  0
M  END
>  <MODEL>
8

>  <REMARK>
 VINA RESULT:      -7.7      1.784      2.530
  Name = 
  12 active torsions:
  status: ('A' for Active; 'I' for Inactive)
    1  A    between atoms: C_2  and  C_37
    2  A    between atoms: C_4  and  C_17
    3  A    between atoms: N_5  and  C_37
    4  A    between atoms: C_7  and  C_25
    5  A    between atoms: C_7  and  C_37
    6  A    between atoms: C_11  and  S_15
    7  A    between atoms: C_12  and  C_19
    8  A    between atoms: C_13  and  C_21
    9  A    between atoms: S_15  and  C_33
   10  A    between atoms: C_17  and  C_21
   11  A    between atoms: C_19  and  C_28
   12  A    between atoms: C_19  and  C_33
                            x       y       z     vdW  Elec       q    Type
                         _______ _______ _______ _____ _____    ______ ____

>  <TORSDO>
F 12

$$$$
=
 OpenBabel11062413223D

 46 50  0  0  1  0  0  0  0  0999 V2000
  189.3000  177.2330  136.6280 C   0  0  0  0  0  0  0  0  0  0  0  0
  189.7710  177.3840  135.5110 O   0  0  0  0  0  0  0  0  0  0  0  0
  188.0000  178.3250  137.2000 S   0  0  0  0  0  0  0  0  0  0  0  0
  184.5320  176.8540  137.0350 N   0  0  0  0  0  0  0  0  0  0  0  0
  186.6840  176.0510  136.7590 O   0  0  0  0  0  0  0  0  0  0  0  0
  186.7300  177.3950  136.2950 C   0  0  1  0  0  3  0  0  0  0  0  0
  185.0640  174.6400  137.6400 O   0  0  0  0  0  0  0  0  0  0  0  0
  185.3350  177.9850  136.5870 C   0  0  0  0  0  2  0  0  0  0  0  0
  185.4070  175.7570  137.1700 C   0  0  0  0  0  0  0  0  0  0  0  0
  183.2100  176.9390  137.6440 C   0  0  2  0  0  3  0  0  0  0  0  0
  182.1540  176.4160  136.7160 C   0  0  0  0  0  0  0  0  0  0  0  0
  182.0010  175.1770  136.5470 O   0  0  0  0  0  1  0  0  0  0  0  0
  181.3200  177.3080  136.0550 O   0  0  0  0  0  0  0  0  0  0  0  0
  182.9210  178.3660  138.1020 C   0  0  0  0  0  2  0  0  0  0  0  0
  185.3310  178.7930  140.0230 C   0  0  0  0  0  3  0  0  0  0  0  0
  182.5280  178.6300  142.3940 C   0  0  0  0  0  0  0  0  0  0  0  0
  181.5230  178.3260  140.1940 C   0  0  0  0  0  3  0  0  0  0  0  0
  183.9030  178.6420  140.4110 C   0  0  0  0  0  0  0  0  0  0  0  0
  182.7880  178.4340  139.5880 C   0  0  0  0  0  0  0  0  0  0  0  0
  181.3940  178.4220  141.5910 C   0  0  0  0  0  3  0  0  0  0  0  0
  185.0150  178.9520  142.4080 N   0  0  0  0  0  0  0  0  0  0  0  0
  182.3910  178.7340  143.8730 C   0  0  0  0  0  1  0  0  0  0  0  0
  186.0470  179.0030  141.3720 C   0  0  0  0  0  2  0  0  0  0  0  0
  183.7740  178.7370  141.7680 C   0  0  0  0  0  0  0  0  0  0  0  0
  189.7750  176.1240  137.5190 C   0  0  2  0  0  3  0  0  0  0  0  0
  190.6320  177.4180  142.0320 N   0  0  0  0  0  0  0  0  0  0  0  0
  190.4330  176.8600  139.8090 C   0  0  0  0  0  0  0  0  0  0  0  0
  191.1930  177.7940  143.2950 C   0  0  0  0  0  0  0  0  0  0  0  0
  190.7650  176.6150  138.5380 C   0  0  0  0  0  2  0  0  0  0  0  0
  189.0610  176.7150  140.3790 C   0  0  0  0  0  3  0  0  0  0  0  0
  192.4330  177.9960  143.3970 O   0  0  0  0  0  0  0  0  0  0  0  0
  191.4200  177.3090  140.8180 C   0  0  0  0  0  3  0  0  0  0  0  0
  189.2210  177.1000  141.8430 C   0  0  0  0  0  3  0  0  0  0  0  0
  190.3070  177.9810  144.4920 C   0  0  1  0  0  3  0  0  0  0  0  0
  189.6670  179.2230  144.4600 O   0  0  0  0  0  1  0  0  0  0  0  0
  189.2990  176.8430  144.6550 C   0  0  0  0  0  2  0  0  0  0  0  0
  188.0460  178.2520  147.8120 C   0  0  0  0  0  3  0  0  0  0  0  0
  188.1610  177.1860  145.5710 C   0  0  0  0  0  0  0  0  0  0  0  0
  189.5760  176.5220  147.3750 F   0  0  0  0  0  0  0  0  0  0  0  0
  186.8690  178.8780  147.7900 C   0  0  0  0  0  3  0  0  0  0  0  0
  188.3120  176.9950  147.0530 C   0  0  1  0  0  3  0  0  0  0  0  0
  185.7600  177.8870  145.7660 C   0  0  0  0  0  3  0  0  0  0  0  0
  185.7120  178.4890  146.9610 C   0  0  0  0  0  3  0  0  0  0  0  0
  186.9790  177.4980  145.0280 C   0  0  0  0  0  3  0  0  0  0  0  0
  190.3210  174.9460  136.7100 C   0  0  0  0  0  2  0  0  0  0  0  0
  189.9030  173.6730  137.2760 N   0  0  0  0  0  1  0  0  0  0  0  0
  1  3  1  0  0  0  0
  1 25  1  0  0  0  0
  2  1  2  0  0  0  0
  4  9  1  0  0  0  0
  4 10  1  0  0  0  0
  5  9  1  0  0  0  0
  6  8  1  0  0  0  0
  6  5  1  0  0  0  0
  6  3  1  1  0  0  0
  8  4  1  0  0  0  0
  9  7  2  0  0  0  0
 10 14  1  6  0  0  0
 11 10  1  0  0  0  0
 12 11  1  0  0  0  0
 13 11  2  0  0  0  0
 14 19  1  0  0  0  0
 15 18  2  0  0  0  0
 15 23  1  0  0  0  0
 16 22  1  0  0  0  0
 17 20  1  0  0  0  0
 18 24  1  0  0  0  0
 19 17  2  0  0  0  0
 19 18  1  0  0  0  0
 20 16  2  0  0  0  0
 23 21  1  0  0  0  0
 24 16  1  0  0  0  0
 24 21  2  0  0  0  0
 25 45  1  6  0  0  0
 25 29  1  0  0  0  0
 26 28  1  0  0  0  0
 27 30  1  0  0  0  0
 27 32  2  0  0  0  0
 28 31  2  0  0  0  0
 28 34  1  0  0  0  0
 29 27  1  0  0  0  0
 30 33  2  0  0  0  0
 32 26  1  0  0  0  0
 33 26  1  0  0  0  0
 34 35  1  6  0  0  0
 34 36  1  0  0  0  0
 36 38  1  0  0  0  0
 38 41  1  0  0  0  0
 40 37  2  0  0  0  0
 41 39  1  6  0  0  0
 41 37  1  0  0  0  0
 42 43  2  0  0  0  0
 43 40  1  0  0  0  0
 44 38  2  0  0  0  0
 44 42  1  0  0  0  0
 45 46  1  0  0  0  0
M  END
>  <MODEL>
9

>  <REMARK>
 VINA RESULT:      -7.5      1.634      2.345
  Name = 
  12 active torsions:
  status: ('A' for Active; 'I' for Inactive)
    1  A    between atoms: C_2  and  C_37
    2  A    between atoms: C_4  and  C_17
    3  A    between atoms: N_5  and  C_37
    4  A    between atoms: C_7  and  C_25
    5  A    between atoms: C_7  and  C_37
    6  A    between atoms: C_11  and  S_15
    7  A    between atoms: C_12  and  C_19
    8  A    between atoms: C_13  and  C_21
    9  A    between atoms: S_15  and  C_33
   10  A    between atoms: C_17  and  C_21
   11  A    between atoms: C_19  and  C_28
   12  A    between atoms: C_19  and  C_33
                            x       y       z     vdW  Elec       q    Type
                         _______ _______ _______ _____ _____    ______ ____

>  <TORSDO>
F 12

$$$$
