=
 OpenBabel11062417013D

 26 27  0  0  1  0  0  0  0  0999 V2000
  188.6530  176.6170  141.9880 N   0  0  0  0  0  0  0  0  0  0  0  0
  189.1180  177.7920  144.8940 C   0  0  0  0  0  0  0  0  0  0  0  0
  190.5660  175.4950  142.9970 C   0  0  0  0  0  2  0  0  0  0  0  0
  190.3010  177.0380  147.3040 C   0  0  0  0  0  3  0  0  0  0  0  0
  188.4380  177.8490  142.3410 C   0  0  0  0  0  0  0  0  0  0  0  0
  188.0220  178.7730  141.3450 N   0  0  0  0  0  1  0  0  0  0  0  0
  189.0770  177.7080  147.3270 C   0  0  0  0  0  0  0  0  0  0  0  0
  188.4840  178.3030  143.7070 N   0  0  0  0  0  2  0  0  0  0  0  0
  190.3670  177.1160  144.9210 C   0  0  0  0  0  0  0  0  0  0  0  0
  189.0480  175.5350  142.8700 C   0  0  0  0  0  2  0  0  0  0  0  0
  191.1400  176.7250  143.6960 C   0  0  2  0  0  3  0  0  0  0  0  0
  190.9040  176.7570  146.1200 N   0  0  0  0  0  0  0  0  0  0  0  0
  188.5110  178.1040  146.1140 C   0  0  0  0  0  3  0  0  0  0  0  0
  188.4340  178.0830  148.6300 C   0  0  0  0  0  0  0  0  0  0  0  0
  187.7490  177.0030  149.1580 F   0  0  0  0  0  0  0  0  0  0  0  0
  189.3930  178.4880  149.5420 F   0  0  0  0  0  0  0  0  0  0  0  0
  187.5450  179.1210  148.4180 F   0  0  0  0  0  0  0  0  0  0  0  0
  191.4500  177.8760  142.7460 C   0  0  0  0  0  2  0  0  0  0  0  0
  192.0850  177.3700  141.5420 N   0  0  0  0  0  0  0  0  0  0  0  0
  191.4850  177.5970  140.2730 C   0  0  0  0  0  3  0  0  0  0  0  0
  191.8510  176.8650  139.2150 C   0  0  0  0  0  2  0  0  0  0  0  0
  190.9220  176.4330  139.4830 C   0  0  0  0  0  2  0  0  0  0  0  0
  190.3620  176.9020  138.1080 C   0  0  0  0  0  0  0  0  0  0  0  0
  191.0660  176.8440  137.1120 O   0  0  0  0  0  0  0  0  0  0  0  0
  189.0520  178.9290  137.5840 C   0  0  0  0  0  1  0  0  0  0  0  0
  188.9860  177.4780  138.0230 C   0  0  0  0  0  2  0  0  0  0  0  0
  1  5  2  0  0  0  0
  1 10  1  0  0  0  0
  2  9  2  0  0  0  0
  2 13  1  0  0  0  0
  3 11  1  0  0  0  0
  4  7  1  0  0  0  0
  5  8  1  0  0  0  0
  6  5  1  0  0  0  0
  7 14  1  0  0  0  0
  8  2  1  0  0  0  0
  9 12  1  0  0  0  0
 10  3  1  0  0  0  0
 11 18  1  6  0  0  0
 11  9  1  0  0  0  0
 12  4  2  0  0  0  0
 13  7  2  0  0  0  0
 14 15  1  0  0  0  0
 14 16  1  0  0  0  0
 17 14  1  0  0  0  0
 19 18  1  0  0  0  0
 20 19  2  0  0  0  0
 21 22  1  0  0  0  0
 21 20  1  0  0  0  0
 23 22  1  0  0  0  0
 24 23  2  0  0  0  0
 25 26  1  0  0  0  0
 26 23  1  0  0  0  0
M  END
>  <MODEL>
1

>  <REMARK>
 VINA RESULT:      -7.0      0.000      0.000
  Name = 
  7 active torsions:
  status: ('A' for Active; 'I' for Inactive)
    1  A    between atoms: C_1  and  C_13
    2  A    between atoms: N_2  and  C_3
    3  A    between atoms: N_2  and  C_18
    4  A    between atoms: C_3  and  C_22
    5  A    between atoms: C_8  and  C_15
    6  A    between atoms: C_8  and  C_21
    7  A    between atoms: C_15  and  C_18
                            x       y       z     vdW  Elec       q    Type
                         _______ _______ _______ _____ _____    ______ ____

>  <TORSDO>
F 7

$$$$
=
 OpenBabel11062417013D

 26 27  0  0  1  0  0  0  0  0999 V2000
  191.6430  178.0400  144.9240 N   0  0  0  0  0  0  0  0  0  0  0  0
  188.5300  177.5440  145.2480 C   0  0  0  0  0  0  0  0  0  0  0  0
  190.5130  178.7530  142.8870 C   0  0  0  0  0  2  0  0  0  0  0  0
  186.1280  178.4850  144.1910 C   0  0  0  0  0  3  0  0  0  0  0  0
  191.1050  177.0580  145.5840 C   0  0  0  0  0  0  0  0  0  0  0  0
  191.9640  176.0830  146.1600 N   0  0  0  0  0  1  0  0  0  0  0  0
  186.2180  178.2410  145.5620 C   0  0  0  0  0  0  0  0  0  0  0  0
  189.6960  176.9680  145.8650 N   0  0  0  0  0  2  0  0  0  0  0  0
  188.3870  177.8000  143.8590 C   0  0  0  0  0  0  0  0  0  0  0  0
  190.9280  179.1380  144.3010 C   0  0  0  0  0  2  0  0  0  0  0  0
  189.4870  177.6220  142.8530 C   0  0  2  0  0  3  0  0  0  0  0  0
  187.1990  178.2680  143.3850 N   0  0  0  0  0  0  0  0  0  0  0  0
  187.4180  177.7440  146.0720 C   0  0  0  0  0  3  0  0  0  0  0  0
  185.0210  178.4140  146.4500 C   0  0  0  0  0  0  0  0  0  0  0  0
  183.9640  178.9480  145.7360 F   0  0  0  0  0  0  0  0  0  0  0  0
  184.6300  177.1940  146.9740 F   0  0  0  0  0  0  0  0  0  0  0  0
  185.3430  179.2690  147.4880 F   0  0  0  0  0  0  0  0  0  0  0  0
  190.1130  176.2320  142.8330 C   0  0  0  0  0  2  0  0  0  0  0  0
  190.4560  175.8600  141.4730 N   0  0  0  0  0  0  0  0  0  0  0  0
  190.5130  176.8530  140.4560 C   0  0  0  0  0  3  0  0  0  0  0  0
  190.5610  176.4950  139.1680 C   0  0  0  0  0  2  0  0  0  0  0  0
  189.5520  176.7930  139.2860 C   0  0  0  0  0  2  0  0  0  0  0  0
  188.8970  178.1800  139.0200 C   0  0  0  0  0  0  0  0  0  0  0  0
  188.1140  178.6490  139.8310 O   0  0  0  0  0  0  0  0  0  0  0  0
  188.3580  178.3160  136.6140 C   0  0  0  0  0  1  0  0  0  0  0  0
  189.1810  178.9040  137.7450 C   0  0  0  0  0  2  0  0  0  0  0  0
  1  5  2  0  0  0  0
  2  8  1  0  0  0  0
  2 13  1  0  0  0  0
  3 10  1  0  0  0  0
  4  7  1  0  0  0  0
  5  8  1  0  0  0  0
  5  6  1  0  0  0  0
  7 13  2  0  0  0  0
  7 14  1  0  0  0  0
  9  2  2  0  0  0  0
 10  1  1  0  0  0  0
 11 18  1  1  0  0  0
 11  3  1  0  0  0  0
 11  9  1  0  0  0  0
 12  9  1  0  0  0  0
 12  4  2  0  0  0  0
 14 16  1  0  0  0  0
 14 17  1  0  0  0  0
 15 14  1  0  0  0  0
 19 18  1  0  0  0  0
 20 19  2  0  0  0  0
 21 22  1  0  0  0  0
 21 20  1  0  0  0  0
 23 22  1  0  0  0  0
 23 24  2  0  0  0  0
 25 26  1  0  0  0  0
 26 23  1  0  0  0  0
M  END
>  <MODEL>
2

>  <REMARK>
 VINA RESULT:      -6.9      2.136      3.522
  Name = 
  7 active torsions:
  status: ('A' for Active; 'I' for Inactive)
    1  A    between atoms: C_1  and  C_13
    2  A    between atoms: N_2  and  C_3
    3  A    between atoms: N_2  and  C_18
    4  A    between atoms: C_3  and  C_22
    5  A    between atoms: C_8  and  C_15
    6  A    between atoms: C_8  and  C_21
    7  A    between atoms: C_15  and  C_18
                            x       y       z     vdW  Elec       q    Type
                         _______ _______ _______ _____ _____    ______ ____

>  <TORSDO>
F 7

$$$$
=
 OpenBabel11062417013D

 26 27  0  0  1  0  0  0  0  0999 V2000
  189.5340  178.4850  144.5310 N   0  0  0  0  0  0  0  0  0  0  0  0
  189.6420  177.4320  141.5430 C   0  0  0  0  0  0  0  0  0  0  0  0
  191.8580  178.4170  143.8000 C   0  0  0  0  0  2  0  0  0  0  0  0
  191.3350  177.5500  139.3310 C   0  0  0  0  0  3  0  0  0  0  0  0
  188.7290  177.6040  144.0170 C   0  0  0  0  0  0  0  0  0  0  0  0
  187.7550  177.0060  144.8630 N   0  0  0  0  0  1  0  0  0  0  0  0
  189.9580  177.6750  139.1410 C   0  0  0  0  0  0  0  0  0  0  0  0
  188.6900  177.2870  142.6130 N   0  0  0  0  0  2  0  0  0  0  0  0
  191.0490  177.3020  141.6850 C   0  0  0  0  0  0  0  0  0  0  0  0
  190.5620  179.2180  143.8150 C   0  0  0  0  0  2  0  0  0  0  0  0
  191.7500  177.1200  143.0000 C   0  0  2  0  0  3  0  0  0  0  0  0
  191.8400  177.3750  140.5790 N   0  0  0  0  0  0  0  0  0  0  0  0
  189.1210  177.5870  140.2560 C   0  0  0  0  0  3  0  0  0  0  0  0
  189.3830  177.8020  137.7610 C   0  0  0  0  0  0  0  0  0  0  0  0
  189.2920  179.1340  137.3970 F   0  0  0  0  0  0  0  0  0  0  0  0
  190.1850  177.1470  136.8430 F   0  0  0  0  0  0  0  0  0  0  0  0
  188.1190  177.2410  137.7400 F   0  0  0  0  0  0  0  0  0  0  0  0
  191.2610  175.9350  143.8240 C   0  0  0  0  0  2  0  0  0  0  0  0
  192.0420  175.8190  145.0410 N   0  0  0  0  0  2  0  0  0  0  0  0
  191.3880  175.6470  146.2920 C   0  0  0  0  0  2  0  0  0  0  0  0
  191.9890  176.0310  147.4240 C   0  0  0  0  0  2  0  0  0  0  0  0
  191.2900  176.8090  147.2610 C   0  0  0  0  0  2  0  0  0  0  0  0
  189.8240  177.0210  147.7420 C   0  0  0  0  0  0  0  0  0  0  0  0
  189.0260  176.0990  147.6860 O   0  0  0  0  0  0  0  0  0  0  0  0
  187.8870  178.3750  148.4580 C   0  0  0  0  0  1  0  0  0  0  0  0
  189.3840  178.3690  148.2110 C   0  0  0  0  0  2  0  0  0  0  0  0
  2  9  1  0  0  0  0
  2  8  1  0  0  0  0
  3 10  1  0  0  0  0
  4 12  1  0  0  0  0
  5  1  2  0  0  0  0
  5  6  1  0  0  0  0
  7  4  2  0  0  0  0
  7 13  1  0  0  0  0
  8  5  1  0  0  0  0
  9 11  1  0  0  0  0
 10  1  1  0  0  0  0
 11  3  1  0  0  0  0
 11 18  1  1  0  0  0
 12  9  2  0  0  0  0
 13  2  2  0  0  0  0
 14  7  1  0  0  0  0
 15 14  1  0  0  0  0
 16 14  1  0  0  0  0
 17 14  1  0  0  0  0
 18 19  1  0  0  0  0
 19 20  1  0  0  0  0
 20 21  1  0  0  0  0
 22 21  1  0  0  0  0
 22 23  1  0  0  0  0
 23 26  1  0  0  0  0
 24 23  2  0  0  0  0
 26 25  1  0  0  0  0
M  END
>  <MODEL>
3

>  <REMARK>
 VINA RESULT:      -6.9      4.587      7.471
  Name = 
  7 active torsions:
  status: ('A' for Active; 'I' for Inactive)
    1  A    between atoms: C_1  and  C_13
    2  A    between atoms: N_2  and  C_3
    3  A    between atoms: N_2  and  C_18
    4  A    between atoms: C_3  and  C_22
    5  A    between atoms: C_8  and  C_15
    6  A    between atoms: C_8  and  C_21
    7  A    between atoms: C_15  and  C_18
                            x       y       z     vdW  Elec       q    Type
                         _______ _______ _______ _____ _____    ______ ____

>  <TORSDO>
F 7

$$$$
=
 OpenBabel11062417013D

 26 27  0  0  1  0  0  0  0  0999 V2000
  184.5200  177.4130  138.5320 N   0  0  0  0  0  0  0  0  0  0  0  0
  182.7680  180.0080  139.0210 C   0  0  0  0  0  0  0  0  0  0  0  0
  182.4160  176.7610  139.5730 C   0  0  0  0  0  2  0  0  0  0  0  0
  180.0900  180.7040  139.3670 C   0  0  0  0  0  3  0  0  0  0  0  0
  184.9880  178.5870  138.8340 C   0  0  0  0  0  0  0  0  0  0  0  0
  186.3890  178.7260  139.0270 N   0  0  0  0  0  1  0  0  0  0  0  0
  180.9070  181.5150  138.5780 C   0  0  0  0  0  0  0  0  0  0  0  0
  184.1800  179.7790  138.8670 N   0  0  0  0  0  2  0  0  0  0  0  0
  181.8990  179.2190  139.8210 C   0  0  0  0  0  0  0  0  0  0  0  0
  183.1300  177.0930  138.2690 C   0  0  0  0  0  2  0  0  0  0  0  0
  182.3120  177.9560  140.5190 C   0  0  2  0  0  3  0  0  0  0  0  0
  180.5960  179.5900  139.9560 N   0  0  0  0  0  0  0  0  0  0  0  0
  182.2520  181.1680  138.4370 C   0  0  0  0  0  3  0  0  0  0  0  0
  180.3770  182.7830  137.9770 C   0  0  0  0  0  0  0  0  0  0  0  0
  179.4250  183.3490  138.8070 F   0  0  0  0  0  0  0  0  0  0  0  0
  181.4010  183.6950  137.7930 F   0  0  0  0  0  0  0  0  0  0  0  0
  179.7970  182.5010  136.7530 F   0  0  0  0  0  0  0  0  0  0  0  0
  183.5120  178.1040  141.4460 C   0  0  0  0  0  2  0  0  0  0  0  0
  183.1740  178.9640  142.5650 N   0  0  0  0  0  2  0  0  0  0  0  0
  183.6470  178.6530  143.8700 C   0  0  0  0  0  2  0  0  0  0  0  0
  184.9600  178.6220  144.1210 C   0  0  0  0  0  2  0  0  0  0  0  0
  184.6690  179.5500  144.5380 C   0  0  0  0  0  2  0  0  0  0  0  0
  185.3670  178.8240  145.7260 C   0  0  0  0  0  0  0  0  0  0  0  0
  184.8330  178.8010  146.8230 O   0  0  0  0  0  0  0  0  0  0  0  0
  187.1950  177.5800  146.8260 C   0  0  0  0  0  1  0  0  0  0  0  0
  186.7160  178.2140  145.5340 C   0  0  0  0  0  2  0  0  0  0  0  0
  1  5  2  0  0  0  0
  2  9  1  0  0  0  0
  3 11  1  0  0  0  0
  4 12  1  0  0  0  0
  5  8  1  0  0  0  0
  5  6  1  0  0  0  0
  7  4  2  0  0  0  0
  8  2  1  0  0  0  0
  9 12  2  0  0  0  0
  9 11  1  0  0  0  0
 10  1  1  0  0  0  0
 10  3  1  0  0  0  0
 11 18  1  6  0  0  0
 13  7  1  0  0  0  0
 13  2  2  0  0  0  0
 14  7  1  0  0  0  0
 14 15  1  0  0  0  0
 16 14  1  0  0  0  0
 17 14  1  0  0  0  0
 18 19  1  0  0  0  0
 19 20  1  0  0  0  0
 20 21  1  0  0  0  0
 21 22  1  0  0  0  0
 22 23  1  0  0  0  0
 23 24  2  0  0  0  0
 26 23  1  0  0  0  0
 26 25  1  0  0  0  0
M  END
>  <MODEL>
4

>  <REMARK>
 VINA RESULT:      -6.5      7.506     10.222
  Name = 
  7 active torsions:
  status: ('A' for Active; 'I' for Inactive)
    1  A    between atoms: C_1  and  C_13
    2  A    between atoms: N_2  and  C_3
    3  A    between atoms: N_2  and  C_18
    4  A    between atoms: C_3  and  C_22
    5  A    between atoms: C_8  and  C_15
    6  A    between atoms: C_8  and  C_21
    7  A    between atoms: C_15  and  C_18
                            x       y       z     vdW  Elec       q    Type
                         _______ _______ _______ _____ _____    ______ ____

>  <TORSDO>
F 7

$$$$
=
 OpenBabel11062417013D

 26 27  0  0  1  0  0  0  0  0999 V2000
  190.7230  177.2130  143.8310 N   0  0  0  0  0  0  0  0  0  0  0  0
  191.3840  177.3290  140.7340 C   0  0  0  0  0  0  0  0  0  0  0  0
  188.9900  176.0160  142.6070 C   0  0  0  0  0  2  0  0  0  0  0  0
  190.8170  175.9030  138.4060 C   0  0  0  0  0  3  0  0  0  0  0  0
  191.2920  178.2110  143.2220 C   0  0  0  0  0  0  0  0  0  0  0  0
  191.5910  179.3780  143.9770 N   0  0  0  0  0  1  0  0  0  0  0  0
  192.1090  176.3880  138.6080 C   0  0  0  0  0  0  0  0  0  0  0  0
  191.7420  178.1560  141.8560 N   0  0  0  0  0  2  0  0  0  0  0  0
  190.0820  176.8230  140.4800 C   0  0  0  0  0  0  0  0  0  0  0  0
  190.3770  175.9380  143.2320 C   0  0  0  0  0  2  0  0  0  0  0  0
  188.9220  176.9740  141.4200 C   0  0  2  0  0  3  0  0  0  0  0  0
  189.8510  176.1230  139.3350 N   0  0  0  0  0  0  0  0  0  0  0  0
  192.3710  177.1240  139.7650 C   0  0  0  0  0  3  0  0  0  0  0  0
  193.1670  176.2090  137.5590 C   0  0  0  0  0  0  0  0  0  0  0  0
  193.9100  177.3680  137.4210 F   0  0  0  0  0  0  0  0  0  0  0  0
  194.0190  175.1750  137.9060 F   0  0  0  0  0  0  0  0  0  0  0  0
  192.5650  175.9120  136.3500 F   0  0  0  0  0  0  0  0  0  0  0  0
  188.6060  178.4110  141.8150 C   0  0  0  0  0  2  0  0  0  0  0  0
  187.2910  178.7840  141.3280 N   0  0  0  0  0  2  0  0  0  0  0  0
  186.2340  179.0290  142.2480 C   0  0  0  0  0  2  0  0  0  0  0  0
  185.1580  178.2350  142.2640 C   0  0  0  0  0  2  0  0  0  0  0  0
  185.7030  177.9010  143.1090 C   0  0  0  0  0  2  0  0  0  0  0  0
  186.0950  178.0970  144.6020 C   0  0  0  0  0  0  0  0  0  0  0  0
  187.1890  177.7270  144.9980 O   0  0  0  0  0  0  0  0  0  0  0  0
  185.6640  178.6460  146.9710 C   0  0  0  0  0  1  0  0  0  0  0  0
  185.1090  178.6810  145.5600 C   0  0  0  0  0  2  0  0  0  0  0  0
  2  8  1  0  0  0  0
  3 10  1  0  0  0  0
  4  7  2  0  0  0  0
  4 12  1  0  0  0  0
  5  1  2  0  0  0  0
  5  6  1  0  0  0  0
  7 13  1  0  0  0  0
  8  5  1  0  0  0  0
  9  2  1  0  0  0  0
  9 11  1  0  0  0  0
 10  1  1  0  0  0  0
 11 18  1  1  0  0  0
 11  3  1  0  0  0  0
 12  9  2  0  0  0  0
 13  2  2  0  0  0  0
 14 16  1  0  0  0  0
 14  7  1  0  0  0  0
 15 14  1  0  0  0  0
 17 14  1  0  0  0  0
 19 18  1  0  0  0  0
 19 20  1  0  0  0  0
 20 21  1  0  0  0  0
 21 22  1  0  0  0  0
 22 23  1  0  0  0  0
 23 24  2  0  0  0  0
 23 26  1  0  0  0  0
 26 25  1  0  0  0  0
M  END
>  <MODEL>
5

>  <REMARK>
 VINA RESULT:      -6.4      5.138      7.678
  Name = 
  7 active torsions:
  status: ('A' for Active; 'I' for Inactive)
    1  A    between atoms: C_1  and  C_13
    2  A    between atoms: N_2  and  C_3
    3  A    between atoms: N_2  and  C_18
    4  A    between atoms: C_3  and  C_22
    5  A    between atoms: C_8  and  C_15
    6  A    between atoms: C_8  and  C_21
    7  A    between atoms: C_15  and  C_18
                            x       y       z     vdW  Elec       q    Type
                         _______ _______ _______ _____ _____    ______ ____

>  <TORSDO>
F 7

$$$$
=
 OpenBabel11062417013D

 26 27  0  0  1  0  0  0  0  0999 V2000
  191.0100  176.9300  144.0250 N   0  0  0  0  0  0  0  0  0  0  0  0
  191.4650  177.2500  140.9050 C   0  0  0  0  0  0  0  0  0  0  0  0
  189.2630  175.7110  142.8420 C   0  0  0  0  0  2  0  0  0  0  0  0
  190.8200  175.9260  138.5380 C   0  0  0  0  0  3  0  0  0  0  0  0
  191.4880  177.9880  143.4420 C   0  0  0  0  0  0  0  0  0  0  0  0
  191.7770  179.1270  144.2430 N   0  0  0  0  0  1  0  0  0  0  0  0
  192.0970  176.4670  138.6880 C   0  0  0  0  0  0  0  0  0  0  0  0
  191.8530  178.0320  142.0490 N   0  0  0  0  0  2  0  0  0  0  0  0
  190.1750  176.6900  140.7020 C   0  0  0  0  0  0  0  0  0  0  0  0
  190.6890  175.6730  143.3750 C   0  0  0  0  0  2  0  0  0  0  0  0
  189.0720  176.7280  141.7190 C   0  0  2  0  0  3  0  0  0  0  0  0
  189.9060  176.0430  139.5350 N   0  0  0  0  0  0  0  0  0  0  0  0
  192.3960  177.1510  139.8680 C   0  0  0  0  0  3  0  0  0  0  0  0
  193.0930  176.4010  137.5680 C   0  0  0  0  0  0  0  0  0  0  0  0
  192.4440  176.3750  136.3460 F   0  0  0  0  0  0  0  0  0  0  0  0
  193.9290  177.5040  137.6000 F   0  0  0  0  0  0  0  0  0  0  0  0
  193.8540  175.2540  137.6990 F   0  0  0  0  0  0  0  0  0  0  0  0
  188.7110  178.1230  142.2150 C   0  0  0  0  0  2  0  0  0  0  0  0
  187.5560  178.0570  143.0910 N   0  0  0  0  0  0  0  0  0  0  0  0
  187.7270  178.1390  144.5010 C   0  0  0  0  0  3  0  0  0  0  0  0
  186.6650  178.2970  145.2990 C   0  0  0  0  0  2  0  0  0  0  0  0
  186.8890  177.2680  145.4160 C   0  0  0  0  0  2  0  0  0  0  0  0
  186.9380  177.7820  146.8850 C   0  0  0  0  0  0  0  0  0  0  0  0
  186.1850  178.6740  147.2430 O   0  0  0  0  0  0  0  0  0  0  0  0
  189.0300  178.2530  148.1090 C   0  0  0  0  0  1  0  0  0  0  0  0
  187.9480  177.2260  147.8340 C   0  0  0  0  0  2  0  0  0  0  0  0
  2  8  1  0  0  0  0
  3 10  1  0  0  0  0
  4  7  2  0  0  0  0
  4 12  1  0  0  0  0
  5  1  2  0  0  0  0
  5  6  1  0  0  0  0
  7 13  1  0  0  0  0
  8  5  1  0  0  0  0
  9  2  1  0  0  0  0
  9 11  1  0  0  0  0
 10  1  1  0  0  0  0
 11 18  1  1  0  0  0
 11  3  1  0  0  0  0
 12  9  2  0  0  0  0
 13  2  2  0  0  0  0
 14 16  1  0  0  0  0
 14 17  1  0  0  0  0
 14  7  1  0  0  0  0
 15 14  1  0  0  0  0
 18 19  1  0  0  0  0
 19 20  2  0  0  0  0
 20 21  1  0  0  0  0
 21 22  1  0  0  0  0
 22 23  1  0  0  0  0
 23 24  2  0  0  0  0
 23 26  1  0  0  0  0
 26 25  1  0  0  0  0
M  END
>  <MODEL>
6

>  <REMARK>
 VINA RESULT:      -6.4      5.150      7.967
  Name = 
  7 active torsions:
  status: ('A' for Active; 'I' for Inactive)
    1  A    between atoms: C_1  and  C_13
    2  A    between atoms: N_2  and  C_3
    3  A    between atoms: N_2  and  C_18
    4  A    between atoms: C_3  and  C_22
    5  A    between atoms: C_8  and  C_15
    6  A    between atoms: C_8  and  C_21
    7  A    between atoms: C_15  and  C_18
                            x       y       z     vdW  Elec       q    Type
                         _______ _______ _______ _____ _____    ______ ____

>  <TORSDO>
F 7

$$$$
=
 OpenBabel11062417013D

 26 27  0  0  1  0  0  0  0  0999 V2000
  189.4440  175.5000  143.6380 N   0  0  0  0  0  0  0  0  0  0  0  0
  189.9640  176.9760  140.8830 C   0  0  0  0  0  0  0  0  0  0  0  0
  187.8190  177.2990  143.3860 C   0  0  0  0  0  2  0  0  0  0  0  0
  188.5790  178.5470  139.0420 C   0  0  0  0  0  3  0  0  0  0  0  0
  190.6090  175.6780  143.0920 C   0  0  0  0  0  0  0  0  0  0  0  0
  191.7600  175.2380  143.8010 N   0  0  0  0  0  1  0  0  0  0  0  0
  189.4500  177.5620  138.5760 C   0  0  0  0  0  0  0  0  0  0  0  0
  190.7910  176.1870  141.7570 N   0  0  0  0  0  2  0  0  0  0  0  0
  189.0730  177.9960  141.3090 C   0  0  0  0  0  0  0  0  0  0  0  0
  188.1650  175.8540  143.0500 C   0  0  0  0  0  2  0  0  0  0  0  0
  188.7730  178.3060  142.7470 C   0  0  2  0  0  3  0  0  0  0  0  0
  188.4090  178.7340  140.3770 N   0  0  0  0  0  0  0  0  0  0  0  0
  190.1580  176.8020  139.5090 C   0  0  0  0  0  3  0  0  0  0  0  0
  189.6970  177.3920  137.1060 C   0  0  0  0  0  0  0  0  0  0  0  0
  190.9930  176.9650  136.8800 F   0  0  0  0  0  0  0  0  0  0  0  0
  188.8250  176.4560  136.5770 F   0  0  0  0  0  0  0  0  0  0  0  0
  189.5020  178.6030  136.4670 F   0  0  0  0  0  0  0  0  0  0  0  0
  189.9980  178.6110  143.6010 C   0  0  0  0  0  2  0  0  0  0  0  0
  189.6160  178.7230  144.9970 N   0  0  0  0  0  0  0  0  0  0  0  0
  190.1510  177.8190  145.9560 C   0  0  0  0  0  3  0  0  0  0  0  0
  189.6460  177.7750  147.1930 C   0  0  0  0  0  2  0  0  0  0  0  0
  189.2240  176.9140  146.7420 C   0  0  0  0  0  2  0  0  0  0  0  0
  188.0590  177.7220  147.3860 C   0  0  0  0  0  0  0  0  0  0  0  0
  188.2480  178.3440  148.4190 O   0  0  0  0  0  0  0  0  0  0  0  0
  186.0090  179.0220  146.9360 C   0  0  0  0  0  1  0  0  0  0  0  0
  186.6980  177.6810  146.7730 C   0  0  0  0  0  2  0  0  0  0  0  0
  2  9  1  0  0  0  0
  2  8  1  0  0  0  0
  4 12  1  0  0  0  0
  5  1  2  0  0  0  0
  5  6  1  0  0  0  0
  7  4  2  0  0  0  0
  7 13  1  0  0  0  0
  8  5  1  0  0  0  0
  9 11  1  0  0  0  0
 10  3  1  0  0  0  0
 10  1  1  0  0  0  0
 11  3  1  0  0  0  0
 11 18  1  1  0  0  0
 12  9  2  0  0  0  0
 13  2  2  0  0  0  0
 14  7  1  0  0  0  0
 15 14  1  0  0  0  0
 16 14  1  0  0  0  0
 17 14  1  0  0  0  0
 18 19  1  0  0  0  0
 19 20  2  0  0  0  0
 20 21  1  0  0  0  0
 22 21  1  0  0  0  0
 22 23  1  0  0  0  0
 23 24  2  0  0  0  0
 26 25  1  0  0  0  0
 26 23  1  0  0  0  0
M  END
>  <MODEL>
7

>  <REMARK>
 VINA RESULT:      -6.2      5.020      7.753
  Name = 
  7 active torsions:
  status: ('A' for Active; 'I' for Inactive)
    1  A    between atoms: C_1  and  C_13
    2  A    between atoms: N_2  and  C_3
    3  A    between atoms: N_2  and  C_18
    4  A    between atoms: C_3  and  C_22
    5  A    between atoms: C_8  and  C_15
    6  A    between atoms: C_8  and  C_21
    7  A    between atoms: C_15  and  C_18
                            x       y       z     vdW  Elec       q    Type
                         _______ _______ _______ _____ _____    ______ ____

>  <TORSDO>
F 7

$$$$
=
 OpenBabel11062417013D

 26 27  0  0  1  0  0  0  0  0999 V2000
  189.4020  177.3040  136.0180 N   0  0  0  0  0  0  0  0  0  0  0  0
  189.1120  177.0380  139.1620 C   0  0  0  0  0  0  0  0  0  0  0  0
  187.7730  178.9380  136.8020 C   0  0  0  0  0  2  0  0  0  0  0  0
  188.3100  178.5840  141.3400 C   0  0  0  0  0  3  0  0  0  0  0  0
  189.4930  176.1940  136.6880 C   0  0  0  0  0  0  0  0  0  0  0  0
  189.6730  174.9830  135.9650 N   0  0  0  0  0  1  0  0  0  0  0  0
  189.4320  177.7640  141.4640 C   0  0  0  0  0  0  0  0  0  0  0  0
  189.5400  176.1360  138.1260 N   0  0  0  0  0  2  0  0  0  0  0  0
  187.9720  177.8820  139.0860 C   0  0  0  0  0  0  0  0  0  0  0  0
  189.2500  178.6300  136.5860 C   0  0  0  0  0  2  0  0  0  0  0  0
  187.1250  178.0440  137.8580 C   0  0  2  0  0  3  0  0  0  0  0  0
  187.6210  178.6280  140.1700 N   0  0  0  0  0  0  0  0  0  0  0  0
  189.8050  176.9750  140.3750 C   0  0  0  0  0  3  0  0  0  0  0  0
  190.1610  177.6580  142.7710 C   0  0  0  0  0  0  0  0  0  0  0  0
  191.4950  177.9860  142.6070 F   0  0  0  0  0  0  0  0  0  0  0  0
  189.6060  178.5160  143.7040 F   0  0  0  0  0  0  0  0  0  0  0  0
  190.0700  176.3600  143.2410 F   0  0  0  0  0  0  0  0  0  0  0  0
  186.5660  176.7430  137.2940 C   0  0  0  0  0  2  0  0  0  0  0  0
  185.1420  176.6560  137.5600 N   0  0  0  0  0  0  0  0  0  0  0  0
  184.3520  177.8380  137.5970 C   0  0  0  0  0  3  0  0  0  0  0  0
  183.0410  177.7630  137.8520 C   0  0  0  0  0  2  0  0  0  0  0  0
  183.4350  178.0990  138.7760 C   0  0  0  0  0  2  0  0  0  0  0  0
  184.1080  179.0390  139.8180 C   0  0  0  0  0  0  0  0  0  0  0  0
  184.5380  180.1270  139.4680 O   0  0  0  0  0  0  0  0  0  0  0  0
  182.9560  178.6280  141.9630 C   0  0  0  0  0  1  0  0  0  0  0  0
  184.2820  178.5820  141.2290 C   0  0  0  0  0  2  0  0  0  0  0  0
  1 10  1  0  0  0  0
  1  5  2  0  0  0  0
  2 13  1  0  0  0  0
  3 11  1  0  0  0  0
  4  7  1  0  0  0  0
  5  8  1  0  0  0  0
  6  5  1  0  0  0  0
  7 14  1  0  0  0  0
  8  2  1  0  0  0  0
  9  2  2  0  0  0  0
  9 12  1  0  0  0  0
 10  3  1  0  0  0  0
 11 18  1  6  0  0  0
 11  9  1  0  0  0  0
 12  4  2  0  0  0  0
 13  7  2  0  0  0  0
 14 17  1  0  0  0  0
 14 16  1  0  0  0  0
 15 14  1  0  0  0  0
 18 19  1  0  0  0  0
 19 20  2  0  0  0  0
 20 21  1  0  0  0  0
 21 22  1  0  0  0  0
 22 23  1  0  0  0  0
 23 26  1  0  0  0  0
 24 23  2  0  0  0  0
 26 25  1  0  0  0  0
M  END
>  <MODEL>
8

>  <REMARK>
 VINA RESULT:      -6.2      4.334      6.888
  Name = 
  7 active torsions:
  status: ('A' for Active; 'I' for Inactive)
    1  A    between atoms: C_1  and  C_13
    2  A    between atoms: N_2  and  C_3
    3  A    between atoms: N_2  and  C_18
    4  A    between atoms: C_3  and  C_22
    5  A    between atoms: C_8  and  C_15
    6  A    between atoms: C_8  and  C_21
    7  A    between atoms: C_15  and  C_18
                            x       y       z     vdW  Elec       q    Type
                         _______ _______ _______ _____ _____    ______ ____

>  <TORSDO>
F 7

$$$$
=
 OpenBabel11062417013D

 26 27  0  0  1  0  0  0  0  0999 V2000
  181.5040  177.6650  139.9310 N   0  0  0  0  0  0  0  0  0  0  0  0
  184.0750  178.5010  141.5840 C   0  0  0  0  0  0  0  0  0  0  0  0
  183.3440  178.0580  138.3840 C   0  0  0  0  0  2  0  0  0  0  0  0
  186.8490  178.5000  141.3040 C   0  0  0  0  0  3  0  0  0  0  0  0
  181.4960  178.3630  141.0280 C   0  0  0  0  0  0  0  0  0  0  0  0
  180.2500  178.8540  141.5050 N   0  0  0  0  0  1  0  0  0  0  0  0
  186.2890  178.1390  142.5300 C   0  0  0  0  0  0  0  0  0  0  0  0
  182.6620  178.5670  141.8480 N   0  0  0  0  0  2  0  0  0  0  0  0
  184.6910  178.8690  140.3590 C   0  0  0  0  0  0  0  0  0  0  0  0
  182.6700  177.0600  139.3170 C   0  0  0  0  0  2  0  0  0  0  0  0
  183.9370  179.2580  139.1210 C   0  0  2  0  0  3  0  0  0  0  0  0
  186.0490  178.8460  140.2620 N   0  0  0  0  0  0  0  0  0  0  0  0
  184.9000  178.1710  142.6640 C   0  0  0  0  0  3  0  0  0  0  0  0
  187.1640  177.8200  143.7070 C   0  0  0  0  0  0  0  0  0  0  0  0
  186.6830  178.4390  144.8470 F   0  0  0  0  0  0  0  0  0  0  0  0
  187.1980  176.4540  143.9260 F   0  0  0  0  0  0  0  0  0  0  0  0
  188.4480  178.2700  143.4560 F   0  0  0  0  0  0  0  0  0  0  0  0
  182.9510  180.4040  139.3090 C   0  0  0  0  0  2  0  0  0  0  0  0
  182.0530  180.4810  138.1720 N   0  0  0  0  0  2  0  0  0  0  0  0
  180.9900  181.4260  138.1660 C   0  0  0  0  0  2  0  0  0  0  0  0
  181.2160  182.6900  137.7900 C   0  0  1  0  0  3  0  0  0  0  0  0
  180.7420  182.2770  136.9370 C   0  0  0  0  0  1  0  0  0  0  0  0
  180.8510  183.7950  137.2690 C   0  0  2  0  0  3  0  0  0  0  0  0
  181.9230  184.3670  137.1540 O   0  0  0  0  0  1  0  0  0  0  0  0
  179.5320  185.8750  137.1000 C   0  0  0  0  0  1  0  0  0  0  0  0
  179.6590  184.5300  137.7880 C   0  0  0  0  0  2  0  0  0  0  0  0
  1  5  2  0  0  0  0
  2  8  1  0  0  0  0
  2 13  1  0  0  0  0
  3 11  1  0  0  0  0
  3 10  1  0  0  0  0
  4  7  1  0  0  0  0
  5  6  1  0  0  0  0
  5  8  1  0  0  0  0
  7 13  2  0  0  0  0
  7 14  1  0  0  0  0
  9  2  2  0  0  0  0
 10  1  1  0  0  0  0
 11 18  1  1  0  0  0
 11  9  1  0  0  0  0
 12  9  1  0  0  0  0
 12  4  2  0  0  0  0
 14 16  1  0  0  0  0
 14 15  1  0  0  0  0
 17 14  1  0  0  0  0
 19 18  1  0  0  0  0
 20 19  1  0  0  0  0
 21 22  1  6  0  0  0
 21 20  1  0  0  0  0
 23 24  1  1  0  0  0
 23 26  1  0  0  0  0
 23 21  1  0  0  0  0
 25 26  1  0  0  0  0
M  END
>  <MODEL>
9

>  <REMARK>
 VINA RESULT:      -6.1      6.888      8.736
  Name = 
  7 active torsions:
  status: ('A' for Active; 'I' for Inactive)
    1  A    between atoms: C_1  and  C_13
    2  A    between atoms: N_2  and  C_3
    3  A    between atoms: N_2  and  C_18
    4  A    between atoms: C_3  and  C_22
    5  A    between atoms: C_8  and  C_15
    6  A    between atoms: C_8  and  C_21
    7  A    between atoms: C_15  and  C_18
                            x       y       z     vdW  Elec       q    Type
                         _______ _______ _______ _____ _____    ______ ____

>  <TORSDO>
F 7

$$$$
