=
 OpenBabel11062416043D

 36 41  0  0  1  0  0  0  0  0999 V2000
  188.5100  175.1810  136.9830 O   0  0  0  0  0  0  0  0  0  0  0  0
  185.3600  176.8280  137.6250 C   0  0  2  0  0  3  0  0  0  0  0  0
  187.9920  176.7290  138.6240 O   0  0  0  0  0  0  0  0  0  0  0  0
  186.5010  176.3730  136.6910 C   0  0  2  0  0  3  0  0  0  0  0  0
  187.5320  174.3070  136.5450 C   0  0  0  0  0  0  0  0  0  0  0  0
  188.8360  177.6670  135.3710 O   0  0  0  0  0  0  0  0  0  0  0  0
  186.3740  174.9130  136.4000 C   0  0  0  0  0  0  0  0  0  0  0  0
  189.1300  177.5490  138.8260 C   0  0  1  0  0  3  0  0  0  0  0  0
  183.6170  177.1320  135.7840 C   0  0  0  0  0  1  0  0  0  0  0  0
  187.9480  176.4630  137.2410 C   0  0  2  0  0  0  0  0  0  0  0  0
  188.7540  179.6080  137.6140 O   0  0  0  0  0  1  0  0  0  0  0  0
  189.4010  178.3700  137.5660 C   0  0  2  0  0  3  0  0  0  0  0  0
  183.9850  176.3850  137.0620 C   0  0  1  0  0  3  0  0  0  0  0  0
  183.9660  174.9040  136.8000 C   0  0  0  0  0  0  0  0  0  0  0  0
  188.7320  177.5260  136.5790 C   0  0  0  0  0  0  0  0  0  0  0  0
  183.0070  174.2370  137.1520 O   0  0  0  0  0  0  0  0  0  0  0  0
  185.0850  174.2520  136.0360 C   0  0  0  0  0  2  0  0  0  0  0  0
  185.5800  178.6040  139.3540 C   0  0  0  0  0  2  0  0  0  0  0  0
  184.2280  178.7920  138.7130 C   0  0  0  0  0  2  0  0  0  0  0  0
  185.4110  178.3400  137.8700 C   0  0  0  0  0  3  0  0  0  0  0  0
  188.9950  178.3920  140.0880 C   0  0  0  0  0  2  0  0  0  0  0  0
  188.9980  177.5330  141.2600 N   0  0  0  0  0  0  0  0  0  0  0  0
  188.8970  177.5850  143.7080 C   0  0  1  0  0  0  0  0  0  0  0  0
  189.3960  176.1410  143.5410 C   0  0  0  0  0  2  0  0  0  0  0  0
  189.6530  178.2530  144.8390 C   0  0  0  0  0  1  0  0  0  0  0  0
  190.1990  176.6950  141.1900 C   0  0  0  0  0  2  0  0  0  0  0  0
  190.5500  176.0420  142.5410 C   0  0  0  0  0  2  0  0  0  0  0  0
  189.0970  178.4030  142.4270 C   0  0  0  0  0  2  0  0  0  0  0  0
  187.4800  177.5650  144.0310 N   0  0  0  0  0  0  0  0  0  0  0  0
  186.4490  177.1970  144.8840 O   0  0  0  0  0  0  0  0  0  0  0  0
  185.3150  178.3970  142.9260 O   0  0  0  0  0  0  0  0  0  0  0  0
  186.1550  177.8800  143.7080 C   0  0  0  0  0  0  0  0  0  0  0  0
  187.7340  172.9440  136.3050 O   0  0  0  0  0  0  0  0  0  0  0  0
  188.2580  171.1270  134.8190 O   0  0  0  0  0  1  0  0  0  0  0  0
  189.2870  173.1580  134.5970 O   0  0  0  0  0  0  0  0  0  0  0  0
  188.4560  172.4420  135.2170 C   0  0  0  0  0  0  0  0  0  0  0  0
  1 10  1  0  0  0  0
  2 20  1  6  0  0  0
  3  8  1  0  0  0  0
  4  7  1  1  0  0  0
  4 10  1  0  0  0  0
  4  2  1  0  0  0  0
  5  1  1  0  0  0  0
  6 15  2  0  0  0  0
  7  5  2  0  0  0  0
  8 21  1  1  0  0  0
 10 15  1  6  0  0  0
 10  3  1  0  0  0  0
 12 11  1  1  0  0  0
 12  8  1  0  0  0  0
 13  9  1  6  0  0  0
 13  2  1  0  0  0  0
 14 13  1  0  0  0  0
 14 16  2  0  0  0  0
 15 12  1  0  0  0  0
 17  7  1  0  0  0  0
 17 14  1  0  0  0  0
 19 18  1  0  0  0  0
 20 19  1  0  0  0  0
 20 18  1  0  0  0  0
 21 22  1  0  0  0  0
 22 28  1  0  0  0  0
 23 29  1  0  0  0  0
 23 25  1  1  0  0  0
 24 23  1  0  0  0  0
 26 22  1  0  0  0  0
 26 27  1  0  0  0  0
 27 24  1  0  0  0  0
 28 23  1  0  0  0  0
 29 30  1  0  0  0  0
 31 32  2  0  0  0  0
 32 29  1  0  0  0  0
 32 30  1  0  0  0  0
 33  5  1  0  0  0  0
 34 36  1  0  0  0  0
 35 36  2  0  0  0  0
 36 33  1  0  0  0  0
M  END
>  <MODEL>
1

>  <REMARK>
 VINA RESULT:      -7.0      0.000      0.000
  Name = 
  6 active torsions:
  status: ('A' for Active; 'I' for Inactive)
    1  A    between atoms: C_4  and  C_33
    2  A    between atoms: N_7  and  C_10
    3  A    between atoms: N_9  and  C_19
    4  A    between atoms: C_11  and  O_25
    5  A    between atoms: C_16  and  C_19
    6  A    between atoms: O_25  and  C_35
                            x       y       z     vdW  Elec       q    Type
                         _______ _______ _______ _____ _____    ______ ____

>  <TORSDO>
F 6

$$$$
=
 OpenBabel11062416043D

 36 41  0  0  1  0  0  0  0  0999 V2000
  187.1650  178.1920  139.1190 O   0  0  0  0  0  0  0  0  0  0  0  0
  190.3710  176.5500  139.3880 C   0  0  2  0  0  3  0  0  0  0  0  0
  188.0200  176.4650  137.8370 O   0  0  0  0  0  0  0  0  0  0  0  0
  189.4800  177.8080  139.3050 C   0  0  2  0  0  3  0  0  0  0  0  0
  187.5280  178.2910  140.4490 C   0  0  0  0  0  0  0  0  0  0  0  0
  188.7880  179.8110  137.2140 O   0  0  0  0  0  0  0  0  0  0  0  0
  188.8100  178.0470  140.6180 C   0  0  0  0  0  0  0  0  0  0  0  0
  187.5660  176.6420  136.5070 C   0  0  1  0  0  3  0  0  0  0  0  0
  192.3820  177.7200  140.4390 C   0  0  0  0  0  1  0  0  0  0  0  0
  188.2720  177.7590  138.3350 C   0  0  2  0  0  0  0  0  0  0  0  0
  189.3740  177.6550  135.2600 O   0  0  0  0  0  1  0  0  0  0  0  0
  188.1720  177.9180  135.9230 C   0  0  2  0  0  3  0  0  0  0  0  0
  191.3230  176.6360  140.6080 C   0  0  1  0  0  3  0  0  0  0  0  0
  190.5490  176.8840  141.8740 C   0  0  0  0  0  0  0  0  0  0  0  0
  188.4620  178.6360  137.1610 C   0  0  0  0  0  0  0  0  0  0  0  0
  190.8050  176.2410  142.8790 O   0  0  0  0  0  0  0  0  0  0  0  0
  189.5160  177.9740  141.9330 C   0  0  0  0  0  2  0  0  0  0  0  0
  190.7880  174.9680  137.5130 C   0  0  0  0  0  2  0  0  0  0  0  0
  192.1070  175.1600  138.2160 C   0  0  0  0  0  2  0  0  0  0  0  0
  191.1420  176.3280  138.0830 C   0  0  0  0  0  3  0  0  0  0  0  0
  187.8200  175.4000  135.6600 C   0  0  0  0  0  2  0  0  0  0  0  0
  186.5670  174.7110  135.4030 N   0  0  0  0  0  0  0  0  0  0  0  0
  184.6260  173.7260  136.5270 C   0  0  1  0  0  0  0  0  0  0  0  0
  184.4290  173.0800  135.1460 C   0  0  0  0  0  2  0  0  0  0  0  0
  184.3700  172.6940  137.6080 C   0  0  0  0  0  1  0  0  0  0  0  0
  186.8730  173.5270  134.5940 C   0  0  0  0  0  2  0  0  0  0  0  0
  185.7300  172.4940  134.5940 C   0  0  0  0  0  2  0  0  0  0  0  0
  186.0460  174.2780  136.6940 C   0  0  0  0  0  2  0  0  0  0  0  0
  183.6810  174.8190  136.6810 N   0  0  0  0  0  0  0  0  0  0  0  0
  182.4030  175.3330  136.5100 O   0  0  0  0  0  0  0  0  0  0  0  0
  183.7530  177.2190  137.5960 O   0  0  0  0  0  0  0  0  0  0  0  0
  183.3900  176.1270  137.0870 C   0  0  0  0  0  0  0  0  0  0  0  0
  186.6470  178.5900  141.4930 O   0  0  0  0  0  0  0  0  0  0  0  0
  184.3320  178.3670  142.1070 O   0  0  0  0  0  1  0  0  0  0  0  0
  184.9680  179.7730  140.4180 O   0  0  0  0  0  0  0  0  0  0  0  0
  185.3070  178.9450  141.3050 C   0  0  0  0  0  0  0  0  0  0  0  0
  1  5  1  0  0  0  0
  2 20  1  6  0  0  0
  2 13  1  0  0  0  0
  3 10  1  0  0  0  0
  4  2  1  0  0  0  0
  4  7  1  1  0  0  0
  5  7  2  0  0  0  0
  5 33  1  0  0  0  0
  7 17  1  0  0  0  0
  8 21  1  6  0  0  0
  8  3  1  0  0  0  0
 10 15  1  6  0  0  0
 10  1  1  0  0  0  0
 10  4  1  0  0  0  0
 12 11  1  1  0  0  0
 12  8  1  0  0  0  0
 12 15  1  0  0  0  0
 13  9  1  6  0  0  0
 13 14  1  0  0  0  0
 14 17  1  0  0  0  0
 14 16  2  0  0  0  0
 15  6  2  0  0  0  0
 18 20  1  0  0  0  0
 18 19  1  0  0  0  0
 20 19  1  0  0  0  0
 22 21  1  0  0  0  0
 22 28  1  0  0  0  0
 23 29  1  0  0  0  0
 23 28  1  0  0  0  0
 23 25  1  1  0  0  0
 24 23  1  0  0  0  0
 26 27  1  0  0  0  0
 26 22  1  0  0  0  0
 27 24  1  0  0  0  0
 29 32  1  0  0  0  0
 30 29  1  0  0  0  0
 30 32  1  0  0  0  0
 32 31  2  0  0  0  0
 35 36  2  0  0  0  0
 36 33  1  0  0  0  0
 36 34  1  0  0  0  0
M  END
>  <MODEL>
2

>  <REMARK>
 VINA RESULT:      -6.9      2.827      7.347
  Name = 
  6 active torsions:
  status: ('A' for Active; 'I' for Inactive)
    1  A    between atoms: C_4  and  C_33
    2  A    between atoms: N_7  and  C_10
    3  A    between atoms: N_9  and  C_19
    4  A    between atoms: C_11  and  O_25
    5  A    between atoms: C_16  and  C_19
    6  A    between atoms: O_25  and  C_35
                            x       y       z     vdW  Elec       q    Type
                         _______ _______ _______ _____ _____    ______ ____

>  <TORSDO>
F 6

$$$$
=
 OpenBabel11062416043D

 36 41  0  0  1  0  0  0  0  0999 V2000
  187.0930  178.3600  139.2010 O   0  0  0  0  0  0  0  0  0  0  0  0
  190.1980  176.5170  139.2830 C   0  0  2  0  0  3  0  0  0  0  0  0
  187.7670  176.5980  137.8600 O   0  0  0  0  0  0  0  0  0  0  0  0
  189.3850  177.8290  139.2590 C   0  0  2  0  0  3  0  0  0  0  0  0
  187.5310  178.4200  140.5110 C   0  0  0  0  0  0  0  0  0  0  0  0
  188.7110  179.8970  137.2260 O   0  0  0  0  0  0  0  0  0  0  0  0
  188.8010  178.0940  140.6090 C   0  0  0  0  0  0  0  0  0  0  0  0
  187.2560  176.8190  136.5570 C   0  0  1  0  0  3  0  0  0  0  0  0
  192.3320  177.5460  140.2360 C   0  0  0  0  0  1  0  0  0  0  0  0
  188.1260  177.8680  138.3550 C   0  0  2  0  0  0  0  0  0  0  0  0
  189.0560  177.7330  135.2250 O   0  0  0  0  0  1  0  0  0  0  0  0
  187.9090  178.0620  135.9530 C   0  0  2  0  0  3  0  0  0  0  0  0
  191.2170  176.5280  140.4520 C   0  0  1  0  0  3  0  0  0  0  0  0
  190.5270  176.8090  141.7600 C   0  0  0  0  0  0  0  0  0  0  0  0
  188.3090  178.7450  137.1810 C   0  0  0  0  0  0  0  0  0  0  0  0
  190.7960  176.1390  142.7440 O   0  0  0  0  0  0  0  0  0  0  0  0
  189.5700  177.9610  141.8830 C   0  0  0  0  0  2  0  0  0  0  0  0
  190.3620  174.9690  137.3420 C   0  0  0  0  0  2  0  0  0  0  0  0
  191.7240  174.9970  137.9880 C   0  0  0  0  0  2  0  0  0  0  0  0
  190.8830  176.2630  137.9370 C   0  0  0  0  0  3  0  0  0  0  0  0
  187.3860  175.5750  135.6870 C   0  0  0  0  0  2  0  0  0  0  0  0
  186.5420  174.5150  136.2100 N   0  0  0  0  0  0  0  0  0  0  0  0
  185.1360  172.6310  135.5180 C   0  0  1  0  0  0  0  0  0  0  0  0
  184.6350  172.7570  136.9660 C   0  0  0  0  0  2  0  0  0  0  0  0
  183.9570  172.4030  134.5940 C   0  0  0  0  0  1  0  0  0  0  0  0
  185.5250  175.1400  137.0620 C   0  0  0  0  0  2  0  0  0  0  0  0
  184.3310  174.2080  137.3460 C   0  0  0  0  0  2  0  0  0  0  0  0
  185.8820  173.8920  135.0680 C   0  0  0  0  0  2  0  0  0  0  0  0
  186.0390  171.4970  135.4240 N   0  0  0  0  0  0  0  0  0  0  0  0
  186.2410  170.1240  135.3750 O   0  0  0  0  0  0  0  0  0  0  0  0
  188.5820  171.1580  135.2750 O   0  0  0  0  0  0  0  0  0  0  0  0
  187.3380  170.9800  135.3370 C   0  0  0  0  0  0  0  0  0  0  0  0
  186.7260  178.7610  141.6030 O   0  0  0  0  0  0  0  0  0  0  0  0
  184.5170  178.5260  142.5240 O   0  0  0  0  0  1  0  0  0  0  0  0
  184.8500  179.6070  140.5360 O   0  0  0  0  0  0  0  0  0  0  0  0
  185.3490  178.9910  141.5160 C   0  0  0  0  0  0  0  0  0  0  0  0
  1  5  1  0  0  0  0
  2 20  1  6  0  0  0
  2 13  1  0  0  0  0
  3 10  1  0  0  0  0
  4  2  1  0  0  0  0
  4  7  1  1  0  0  0
  5  7  2  0  0  0  0
  5 33  1  0  0  0  0
  7 17  1  0  0  0  0
  8 21  1  6  0  0  0
  8  3  1  0  0  0  0
 10 15  1  6  0  0  0
 10  1  1  0  0  0  0
 10  4  1  0  0  0  0
 12 11  1  6  0  0  0
 12  8  1  0  0  0  0
 12 15  1  0  0  0  0
 13  9  1  6  0  0  0
 13 14  1  0  0  0  0
 14 17  1  0  0  0  0
 14 16  2  0  0  0  0
 15  6  2  0  0  0  0
 18 20  1  0  0  0  0
 18 19  1  0  0  0  0
 20 19  1  0  0  0  0
 21 22  1  0  0  0  0
 22 26  1  0  0  0  0
 23 25  1  6  0  0  0
 23 24  1  0  0  0  0
 24 27  1  0  0  0  0
 26 27  1  0  0  0  0
 28 23  1  0  0  0  0
 28 22  1  0  0  0  0
 29 23  1  0  0  0  0
 30 29  1  0  0  0  0
 31 32  2  0  0  0  0
 32 30  1  0  0  0  0
 32 29  1  0  0  0  0
 35 36  2  0  0  0  0
 36 33  1  0  0  0  0
 36 34  1  0  0  0  0
M  END
>  <MODEL>
3

>  <REMARK>
 VINA RESULT:      -6.7      2.618      7.816
  Name = 
  6 active torsions:
  status: ('A' for Active; 'I' for Inactive)
    1  A    between atoms: C_4  and  C_33
    2  A    between atoms: N_7  and  C_10
    3  A    between atoms: N_9  and  C_19
    4  A    between atoms: C_11  and  O_25
    5  A    between atoms: C_16  and  C_19
    6  A    between atoms: O_25  and  C_35
                            x       y       z     vdW  Elec       q    Type
                         _______ _______ _______ _____ _____    ______ ____

>  <TORSDO>
F 6

$$$$
=
 OpenBabel11062416043D

 36 41  0  0  1  0  0  0  0  0999 V2000
  189.2800  177.7700  139.4440 O   0  0  0  0  0  0  0  0  0  0  0  0
  190.3950  175.7100  136.6950 C   0  0  2  0  0  3  0  0  0  0  0  0
  188.0180  176.4770  137.9980 O   0  0  0  0  0  0  0  0  0  0  0  0
  190.3690  177.0310  137.4920 C   0  0  2  0  0  3  0  0  0  0  0  0
  190.5600  177.3630  139.7740 C   0  0  0  0  0  0  0  0  0  0  0  0
  189.0810  179.6990  137.1800 O   0  0  0  0  0  0  0  0  0  0  0  0
  191.2040  176.9030  138.7240 C   0  0  0  0  0  0  0  0  0  0  0  0
  186.7960  177.1540  137.7610 C   0  0  1  0  0  3  0  0  0  0  0  0
  192.6040  176.1680  135.4980 C   0  0  0  0  0  1  0  0  0  0  0  0
  189.0050  177.4800  138.0780 C   0  0  2  0  0  0  0  0  0  0  0  0
  186.9960  178.2700  135.6250 O   0  0  0  0  0  1  0  0  0  0  0  0
  187.0670  178.4560  137.0080 C   0  0  2  0  0  3  0  0  0  0  0  0
  191.8550  175.2470  136.4560 C   0  0  1  0  0  3  0  0  0  0  0  0
  192.6070  175.1570  137.7560 C   0  0  0  0  0  0  0  0  0  0  0  0
  188.4630  178.6660  137.3860 C   0  0  0  0  0  0  0  0  0  0  0  0
  193.3060  174.1830  137.9870 O   0  0  0  0  0  0  0  0  0  0  0  0
  192.5680  176.2940  138.7380 C   0  0  0  0  0  2  0  0  0  0  0  0
  188.4330  174.8940  135.4010 C   0  0  0  0  0  2  0  0  0  0  0  0
  189.6580  174.5340  134.6000 C   0  0  0  0  0  2  0  0  0  0  0  0
  189.6190  175.8380  135.3800 C   0  0  0  0  0  3  0  0  0  0  0  0
  185.7810  176.2490  137.0720 C   0  0  0  0  0  2  0  0  0  0  0  0
  184.4870  176.9090  137.0170 N   0  0  0  0  0  0  0  0  0  0  0  0
  182.4220  177.2460  138.2910 C   0  0  1  0  0  0  0  0  0  0  0  0
  181.9100  177.7150  136.9190 C   0  0  0  0  0  2  0  0  0  0  0  0
  181.3680  176.3800  138.9530 C   0  0  0  0  0  1  0  0  0  0  0  0
  183.8200  176.4700  135.7870 C   0  0  0  0  0  2  0  0  0  0  0  0
  182.3050  176.7520  135.7970 C   0  0  0  0  0  2  0  0  0  0  0  0
  183.7180  176.4390  138.1640 C   0  0  0  0  0  2  0  0  0  0  0  0
  182.6760  178.4070  139.1270 N   0  0  0  0  0  0  0  0  0  0  0  0
  182.2040  179.4130  139.9590 O   0  0  0  0  0  0  0  0  0  0  0  0
  184.7310  179.7960  139.7970 O   0  0  0  0  0  0  0  0  0  0  0  0
  183.5630  179.3450  139.6690 C   0  0  0  0  0  0  0  0  0  0  0  0
  191.1010  177.4100  141.0630 O   0  0  0  0  0  0  0  0  0  0  0  0
  189.8170  177.9350  143.0270 O   0  0  0  0  0  1  0  0  0  0  0  0
  190.3540  175.7700  142.5200 O   0  0  0  0  0  0  0  0  0  0  0  0
  190.4210  176.9890  142.2110 C   0  0  0  0  0  0  0  0  0  0  0  0
  1  5  1  0  0  0  0
  2 20  1  6  0  0  0
  2  4  1  0  0  0  0
  3 10  1  0  0  0  0
  4 10  1  0  0  0  0
  4  7  1  1  0  0  0
  5 33  1  0  0  0  0
  6 15  2  0  0  0  0
  7 17  1  0  0  0  0
  7  5  2  0  0  0  0
  8 21  1  6  0  0  0
  8  3  1  0  0  0  0
 10 15  1  6  0  0  0
 10  1  1  0  0  0  0
 12 11  1  6  0  0  0
 12 15  1  0  0  0  0
 12  8  1  0  0  0  0
 13  9  1  6  0  0  0
 13  2  1  0  0  0  0
 13 14  1  0  0  0  0
 14 16  2  0  0  0  0
 14 17  1  0  0  0  0
 19 20  1  0  0  0  0
 19 18  1  0  0  0  0
 20 18  1  0  0  0  0
 22 21  1  0  0  0  0
 22 28  1  0  0  0  0
 23 25  1  1  0  0  0
 23 29  1  0  0  0  0
 24 23  1  0  0  0  0
 26 27  1  0  0  0  0
 26 22  1  0  0  0  0
 27 24  1  0  0  0  0
 28 23  1  0  0  0  0
 29 32  1  0  0  0  0
 29 30  1  0  0  0  0
 32 31  2  0  0  0  0
 32 30  1  0  0  0  0
 33 36  1  0  0  0  0
 36 35  2  0  0  0  0
 36 34  1  0  0  0  0
M  END
>  <MODEL>
4

>  <REMARK>
 VINA RESULT:      -6.6      3.022      6.882
  Name = 
  6 active torsions:
  status: ('A' for Active; 'I' for Inactive)
    1  A    between atoms: C_4  and  C_33
    2  A    between atoms: N_7  and  C_10
    3  A    between atoms: N_9  and  C_19
    4  A    between atoms: C_11  and  O_25
    5  A    between atoms: C_16  and  C_19
    6  A    between atoms: O_25  and  C_35
                            x       y       z     vdW  Elec       q    Type
                         _______ _______ _______ _____ _____    ______ ____

>  <TORSDO>
F 6

$$$$
=
 OpenBabel11062416043D

 36 41  0  0  1  0  0  0  0  0999 V2000
  184.3250  177.2160  139.2370 O   0  0  0  0  0  0  0  0  0  0  0  0
  181.7830  178.0950  141.6490 C   0  0  2  0  0  3  0  0  0  0  0  0
  184.5050  177.3740  141.5390 O   0  0  0  0  0  0  0  0  0  0  0  0
  182.5710  178.3320  140.3420 C   0  0  2  0  0  3  0  0  0  0  0  0
  183.1230  176.8220  138.6780 C   0  0  0  0  0  0  0  0  0  0  0  0
  184.7460  180.1590  139.4500 O   0  0  0  0  0  0  0  0  0  0  0  0
  182.1020  177.3870  139.2840 C   0  0  0  0  0  0  0  0  0  0  0  0
  185.7950  177.8760  141.8430 C   0  0  1  0  0  3  0  0  0  0  0  0
  179.7570  179.5050  140.9930 C   0  0  0  0  0  1  0  0  0  0  0  0
  184.0940  178.0460  140.3700 C   0  0  2  0  0  0  0  0  0  0  0  0
  185.5560  180.2380  142.3040 O   0  0  0  0  0  1  0  0  0  0  0  0
  185.9230  179.3090  141.3270 C   0  0  2  0  0  3  0  0  0  0  0  0
  180.2570  178.1160  141.3760 C   0  0  1  0  0  3  0  0  0  0  0  0
  179.8940  177.1360  140.2930 C   0  0  0  0  0  0  0  0  0  0  0  0
  184.8960  179.2840  140.2880 C   0  0  0  0  0  0  0  0  0  0  0  0
  178.9310  176.4010  140.4370 O   0  0  0  0  0  0  0  0  0  0  0  0
  180.6610  177.1120  139.0010 C   0  0  0  0  0  2  0  0  0  0  0  0
  182.7410  178.3730  143.9280 C   0  0  0  0  0  2  0  0  0  0  0  0
  181.3380  178.9230  143.9800 C   0  0  0  0  0  2  0  0  0  0  0  0
  182.1800  179.1090  142.7270 C   0  0  0  0  0  3  0  0  0  0  0  0
  186.1170  177.7280  143.3250 C   0  0  0  0  0  2  0  0  0  0  0  0
  187.5530  177.8160  143.5310 N   0  0  0  0  0  0  0  0  0  0  0  0
  189.6600  176.6710  143.0330 C   0  0  1  0  0  0  0  0  0  0  0  0
  190.1730  177.5950  144.1500 C   0  0  0  0  0  2  0  0  0  0  0  0
  190.2450  175.2840  143.2180 C   0  0  0  0  0  1  0  0  0  0  0  0
  187.7860  177.9130  144.9760 C   0  0  0  0  0  2  0  0  0  0  0  0
  189.2430  177.5990  145.3660 C   0  0  0  0  0  2  0  0  0  0  0  0
  188.1310  176.5700  143.0420 C   0  0  0  0  0  2  0  0  0  0  0  0
  190.0850  177.1970  141.7470 N   0  0  0  0  0  0  0  0  0  0  0  0
  191.0960  177.4620  140.8330 O   0  0  0  0  0  0  0  0  0  0  0  0
  188.9500  178.3430  139.7460 O   0  0  0  0  0  0  0  0  0  0  0  0
  189.7870  177.8260  140.5320 C   0  0  0  0  0  0  0  0  0  0  0  0
  182.9990  175.9190  137.6170 O   0  0  0  0  0  0  0  0  0  0  0  0
  184.5820  174.1420  137.9650 O   0  0  0  0  0  1  0  0  0  0  0  0
  182.3740  173.6870  137.5830 O   0  0  0  0  0  0  0  0  0  0  0  0
  183.2790  174.5520  137.7190 C   0  0  0  0  0  0  0  0  0  0  0  0
  2 20  1  1  0  0  0
  3  8  1  0  0  0  0
  4  7  1  6  0  0  0
  4 10  1  0  0  0  0
  4  2  1  0  0  0  0
  5  1  1  0  0  0  0
  5  7  2  0  0  0  0
  6 15  2  0  0  0  0
  8 21  1  1  0  0  0
 10  1  1  6  0  0  0
 10  3  1  0  0  0  0
 12  8  1  0  0  0  0
 12 11  1  1  0  0  0
 13  9  1  6  0  0  0
 13  2  1  0  0  0  0
 14 16  2  0  0  0  0
 14 13  1  0  0  0  0
 15 10  1  0  0  0  0
 15 12  1  0  0  0  0
 17  7  1  0  0  0  0
 17 14  1  0  0  0  0
 18 19  1  0  0  0  0
 20 18  1  0  0  0  0
 20 19  1  0  0  0  0
 21 22  1  0  0  0  0
 22 26  1  0  0  0  0
 23 28  1  0  0  0  0
 23 25  1  1  0  0  0
 23 24  1  0  0  0  0
 24 27  1  0  0  0  0
 26 27  1  0  0  0  0
 28 22  1  0  0  0  0
 29 23  1  0  0  0  0
 30 29  1  0  0  0  0
 31 32  2  0  0  0  0
 32 30  1  0  0  0  0
 32 29  1  0  0  0  0
 33 36  1  0  0  0  0
 33  5  1  0  0  0  0
 35 36  2  0  0  0  0
 36 34  1  0  0  0  0
M  END
>  <MODEL>
5

>  <REMARK>
 VINA RESULT:      -6.2      3.021      5.207
  Name = 
  6 active torsions:
  status: ('A' for Active; 'I' for Inactive)
    1  A    between atoms: C_4  and  C_33
    2  A    between atoms: N_7  and  C_10
    3  A    between atoms: N_9  and  C_19
    4  A    between atoms: C_11  and  O_25
    5  A    between atoms: C_16  and  C_19
    6  A    between atoms: O_25  and  C_35
                            x       y       z     vdW  Elec       q    Type
                         _______ _______ _______ _____ _____    ______ ____

>  <TORSDO>
F 6

$$$$
=
 OpenBabel11062416043D

 36 41  0  0  1  0  0  0  0  0999 V2000
  190.0140  175.6930  137.5980 O   0  0  0  0  0  0  0  0  0  0  0  0
  186.4830  175.4080  136.8950 C   0  0  2  0  0  3  0  0  0  0  0  0
  188.2400  176.7560  138.6360 O   0  0  0  0  0  0  0  0  0  0  0  0
  187.9510  175.6170  136.4670 C   0  0  2  0  0  3  0  0  0  0  0  0
  189.8340  174.4220  137.0830 C   0  0  0  0  0  0  0  0  0  0  0  0
  189.6440  177.9330  135.6660 O   0  0  0  0  0  0  0  0  0  0  0  0
  188.6760  174.3100  136.4710 C   0  0  0  0  0  0  0  0  0  0  0  0
  188.6600  178.0620  138.9910 C   0  0  1  0  0  3  0  0  0  0  0  0
  185.6370  174.6930  134.5940 C   0  0  0  0  0  1  0  0  0  0  0  0
  188.8450  176.4790  137.3940 C   0  0  2  0  0  0  0  0  0  0  0  0
  187.7970  179.5740  137.3110 O   0  0  0  0  0  1  0  0  0  0  0  0
  188.9350  178.8740  137.7260 C   0  0  2  0  0  3  0  0  0  0  0  0
  185.8230  174.2860  136.0520 C   0  0  1  0  0  3  0  0  0  0  0  0
  186.6340  173.0200  136.1200 C   0  0  0  0  0  0  0  0  0  0  0  0
  189.1850  177.7830  136.7880 C   0  0  0  0  0  0  0  0  0  0  0  0
  186.0760  171.9500  136.3010 O   0  0  0  0  0  0  0  0  0  0  0  0
  188.1180  173.0540  135.8850 C   0  0  0  0  0  2  0  0  0  0  0  0
  185.1260  177.0480  138.1830 C   0  0  0  0  0  2  0  0  0  0  0  0
  184.2190  176.4780  137.1220 C   0  0  0  0  0  2  0  0  0  0  0  0
  185.6900  176.7170  136.8140 C   0  0  0  0  0  3  0  0  0  0  0  0
  187.6730  178.7270  139.9430 C   0  0  0  0  0  2  0  0  0  0  0  0
  188.0600  178.4660  141.3190 N   0  0  0  0  0  0  0  0  0  0  0  0
  189.4630  177.0070  142.7000 C   0  0  1  0  0  0  0  0  0  0  0  0
  188.5760  177.5780  143.8180 C   0  0  0  0  0  2  0  0  0  0  0  0
  189.6470  175.5180  142.9130 C   0  0  0  0  0  1  0  0  0  0  0  0
  186.8310  178.2440  142.0880 C   0  0  0  0  0  2  0  0  0  0  0  0
  187.0920  177.5580  143.4430 C   0  0  0  0  0  2  0  0  0  0  0  0
  188.8440  177.2360  141.3160 C   0  0  0  0  0  2  0  0  0  0  0  0
  190.7610  177.6570  142.7420 N   0  0  0  0  0  0  0  0  0  0  0  0
  192.0110  177.8800  142.1810 O   0  0  0  0  0  0  0  0  0  0  0  0
  191.9830  179.2550  144.3410 O   0  0  0  0  0  0  0  0  0  0  0  0
  191.6800  178.4980  143.3820 C   0  0  0  0  0  0  0  0  0  0  0  0
  190.7530  173.3750  137.2130 O   0  0  0  0  0  0  0  0  0  0  0  0
  192.2550  172.1370  135.8010 O   0  0  0  0  0  0  0  0  0  0  0  0
  192.7680  174.2590  136.4840 O   0  0  0  0  0  1  0  0  0  0  0  0
  191.9530  173.2980  136.4990 C   0  0  0  0  0  0  0  0  0  0  0  0
  2 20  1  6  0  0  0
  3  8  1  0  0  0  0
  4  7  1  1  0  0  0
  4  2  1  0  0  0  0
  4 10  1  0  0  0  0
  5 33  1  0  0  0  0
  5  1  1  0  0  0  0
  6 15  2  0  0  0  0
  7  5  2  0  0  0  0
  8 21  1  6  0  0  0
 10 15  1  6  0  0  0
 10  1  1  0  0  0  0
 10  3  1  0  0  0  0
 12 11  1  6  0  0  0
 12  8  1  0  0  0  0
 13  9  1  6  0  0  0
 13 14  1  0  0  0  0
 13  2  1  0  0  0  0
 14 16  2  0  0  0  0
 15 12  1  0  0  0  0
 17 14  1  0  0  0  0
 17  7  1  0  0  0  0
 19 18  1  0  0  0  0
 20 19  1  0  0  0  0
 20 18  1  0  0  0  0
 21 22  1  0  0  0  0
 22 26  1  0  0  0  0
 23 29  1  0  0  0  0
 23 25  1  1  0  0  0
 23 24  1  0  0  0  0
 26 27  1  0  0  0  0
 27 24  1  0  0  0  0
 28 22  1  0  0  0  0
 28 23  1  0  0  0  0
 29 32  1  0  0  0  0
 30 29  1  0  0  0  0
 30 32  1  0  0  0  0
 32 31  2  0  0  0  0
 34 36  2  0  0  0  0
 35 36  1  0  0  0  0
 36 33  1  0  0  0  0
M  END
>  <MODEL>
6

>  <REMARK>
 VINA RESULT:      -5.9      2.159      3.066
  Name = 
  6 active torsions:
  status: ('A' for Active; 'I' for Inactive)
    1  A    between atoms: C_4  and  C_33
    2  A    between atoms: N_7  and  C_10
    3  A    between atoms: N_9  and  C_19
    4  A    between atoms: C_11  and  O_25
    5  A    between atoms: C_16  and  C_19
    6  A    between atoms: O_25  and  C_35
                            x       y       z     vdW  Elec       q    Type
                         _______ _______ _______ _____ _____    ______ ____

>  <TORSDO>
F 6

$$$$
=
 OpenBabel11062416043D

 36 41  0  0  1  0  0  0  0  0999 V2000
  182.8100  176.8260  140.1860 O   0  0  0  0  0  0  0  0  0  0  0  0
  181.8960  178.6050  137.1780 C   0  0  2  0  0  3  0  0  0  0  0  0
  183.6420  176.5700  138.0420 O   0  0  0  0  0  0  0  0  0  0  0  0
  181.5520  177.8140  138.4580 C   0  0  2  0  0  3  0  0  0  0  0  0
  182.3840  178.0740  140.6020 C   0  0  0  0  0  0  0  0  0  0  0  0
  180.6910  175.0360  139.0960 O   0  0  0  0  0  0  0  0  0  0  0  0
  181.7060  178.6900  139.6590 C   0  0  0  0  0  0  0  0  0  0  0  0
  183.9230  175.1950  137.8430 C   0  0  1  0  0  3  0  0  0  0  0  0
  179.6060  179.7070  136.9270 C   0  0  0  0  0  1  0  0  0  0  0  0
  182.4680  176.6160  138.8200 C   0  0  2  0  0  0  0  0  0  0  0  0
  182.0770  174.2610  136.5880 O   0  0  0  0  0  1  0  0  0  0  0  0
  182.6190  174.3970  137.8700 C   0  0  2  0  0  3  0  0  0  0  0  0
  181.1000  179.9350  137.1300 C   0  0  1  0  0  3  0  0  0  0  0  0
  181.3200  180.7360  138.3850 C   0  0  0  0  0  0  0  0  0  0  0  0
  181.7870  175.3180  138.6390 C   0  0  0  0  0  0  0  0  0  0  0  0
  181.5450  181.9330  138.3100 O   0  0  0  0  0  0  0  0  0  0  0  0
  181.1830  180.0880  139.7340 C   0  0  0  0  0  2  0  0  0  0  0  0
  182.9710  177.6010  135.1720 C   0  0  0  0  0  2  0  0  0  0  0  0
  181.9340  178.5710  134.6650 C   0  0  0  0  0  2  0  0  0  0  0  0
  181.6620  177.7590  135.9230 C   0  0  0  0  0  3  0  0  0  0  0  0
  184.7520  174.9700  136.5850 C   0  0  0  0  0  2  0  0  0  0  0  0
  186.1580  175.2020  136.8700 N   0  0  0  0  0  0  0  0  0  0  0  0
  187.8990  176.9240  136.7850 C   0  0  1  0  0  0  0  0  0  0  0  0
  188.8120  175.6990  136.9530 C   0  0  0  0  0  2  0  0  0  0  0  0
  188.4920  177.8570  135.7480 C   0  0  0  0  0  1  0  0  0  0  0  0
  186.9290  174.1900  136.1420 C   0  0  0  0  0  2  0  0  0  0  0  0
  188.4210  174.5560  136.0140 C   0  0  0  0  0  2  0  0  0  0  0  0
  186.4890  176.5200  136.3400 C   0  0  0  0  0  2  0  0  0  0  0  0
  187.8040  177.6250  138.0550 N   0  0  0  0  0  0  0  0  0  0  0  0
  187.1700  178.5540  138.8670 O   0  0  0  0  0  0  0  0  0  0  0  0
  189.1220  177.6550  140.2600 O   0  0  0  0  0  0  0  0  0  0  0  0
  188.2880  177.8770  139.3440 C   0  0  0  0  0  0  0  0  0  0  0  0
  182.6550  178.6280  141.8570 O   0  0  0  0  0  0  0  0  0  0  0  0
  184.9330  179.3780  141.6780 O   0  0  0  0  0  0  0  0  0  0  0  0
  184.2110  178.2540  143.5340 O   0  0  0  0  0  1  0  0  0  0  0  0
  183.9390  178.7360  142.4020 C   0  0  0  0  0  0  0  0  0  0  0  0
  1  5  1  0  0  0  0
  2 20  1  6  0  0  0
  2  4  1  0  0  0  0
  4 10  1  0  0  0  0
  4  7  1  1  0  0  0
  5 33  1  0  0  0  0
  7 17  1  0  0  0  0
  7  5  2  0  0  0  0
  8 21  1  6  0  0  0
  8 12  1  0  0  0  0
  8  3  1  0  0  0  0
 10  3  1  6  0  0  0
 10  1  1  0  0  0  0
 12 11  1  6  0  0  0
 12 15  1  0  0  0  0
 13  9  1  1  0  0  0
 13  2  1  0  0  0  0
 13 14  1  0  0  0  0
 14 17  1  0  0  0  0
 15 10  1  0  0  0  0
 15  6  2  0  0  0  0
 16 14  2  0  0  0  0
 18 20  1  0  0  0  0
 19 18  1  0  0  0  0
 19 20  1  0  0  0  0
 21 22  1  0  0  0  0
 23 25  1  6  0  0  0
 23 24  1  0  0  0  0
 23 29  1  0  0  0  0
 26 22  1  0  0  0  0
 27 26  1  0  0  0  0
 27 24  1  0  0  0  0
 28 23  1  0  0  0  0
 28 22  1  0  0  0  0
 29 30  1  0  0  0  0
 29 32  1  0  0  0  0
 30 32  1  0  0  0  0
 32 31  2  0  0  0  0
 33 36  1  0  0  0  0
 34 36  2  0  0  0  0
 36 35  1  0  0  0  0
M  END
>  <MODEL>
7

>  <REMARK>
 VINA RESULT:      -5.8      3.328      7.090
  Name = 
  6 active torsions:
  status: ('A' for Active; 'I' for Inactive)
    1  A    between atoms: C_4  and  C_33
    2  A    between atoms: N_7  and  C_10
    3  A    between atoms: N_9  and  C_19
    4  A    between atoms: C_11  and  O_25
    5  A    between atoms: C_16  and  C_19
    6  A    between atoms: O_25  and  C_35
                            x       y       z     vdW  Elec       q    Type
                         _______ _______ _______ _____ _____    ______ ____

>  <TORSDO>
F 6

$$$$
=
 OpenBabel11062416043D

 36 41  0  0  1  0  0  0  0  0999 V2000
  186.1740  177.7340  137.2580 O   0  0  0  0  0  0  0  0  0  0  0  0
  186.4490  174.1780  136.6880 C   0  0  2  0  0  3  0  0  0  0  0  0
  184.6800  176.0570  137.8180 O   0  0  0  0  0  0  0  0  0  0  0  0
  186.5170  175.6480  136.2220 C   0  0  2  0  0  3  0  0  0  0  0  0
  187.5290  177.4580  137.2500 C   0  0  0  0  0  0  0  0  0  0  0  0
  184.7870  177.4770  134.6320 O   0  0  0  0  0  0  0  0  0  0  0  0
  187.7780  176.2820  136.7150 C   0  0  0  0  0  0  0  0  0  0  0  0
  183.3690  176.5720  137.6670 C   0  0  1  0  0  3  0  0  0  0  0  0
  187.9030  173.2390  134.8100 C   0  0  0  0  0  1  0  0  0  0  0  0
  185.4390  176.6170  136.7700 C   0  0  2  0  0  0  0  0  0  0  0  0
  182.5280  175.7810  135.5410 O   0  0  0  0  0  1  0  0  0  0  0  0
  183.1040  176.8760  136.1920 C   0  0  2  0  0  3  0  0  0  0  0  0
  187.7530  173.4270  136.3160 C   0  0  1  0  0  3  0  0  0  0  0  0
  188.9580  174.1510  136.8530 C   0  0  0  0  0  0  0  0  0  0  0  0
  184.4790  177.0330  135.7270 C   0  0  0  0  0  0  0  0  0  0  0  0
  189.8430  173.5250  137.4140 O   0  0  0  0  0  0  0  0  0  0  0  0
  189.1180  175.6290  136.6320 C   0  0  0  0  0  2  0  0  0  0  0  0
  184.3760  172.9290  137.2670 C   0  0  0  0  0  2  0  0  0  0  0  0
  185.2330  171.9900  136.4570 C   0  0  0  0  0  2  0  0  0  0  0  0
  185.2100  173.4740  136.1240 C   0  0  0  0  0  3  0  0  0  0  0  0
  182.3310  175.6520  138.2980 C   0  0  0  0  0  2  0  0  0  0  0  0
  181.3080  176.4420  138.9620 N   0  0  0  0  0  0  0  0  0  0  0  0
  180.9990  178.3330  140.4890 C   0  0  1  0  0  0  0  0  0  0  0  0
  179.5810  177.7460  140.5800 C   0  0  0  0  0  2  0  0  0  0  0  0
  181.4690  178.7340  141.8740 C   0  0  0  0  0  1  0  0  0  0  0  0
  180.4540  175.5170  139.7140 C   0  0  0  0  0  2  0  0  0  0  0  0
  179.5980  176.2280  140.7800 C   0  0  0  0  0  2  0  0  0  0  0  0
  181.9910  177.3230  139.9020 C   0  0  0  0  0  2  0  0  0  0  0  0
  180.9730  179.5100  139.6370 N   0  0  0  0  0  0  0  0  0  0  0  0
  180.7650  180.8730  139.4810 O   0  0  0  0  0  0  0  0  0  0  0  0
  181.3710  180.0070  137.1480 O   0  0  0  0  0  0  0  0  0  0  0  0
  181.1160  180.1020  138.3770 C   0  0  0  0  0  0  0  0  0  0  0  0
  188.5160  178.3050  137.7630 O   0  0  0  0  0  0  0  0  0  0  0  0
  188.0420  178.7530  140.0780 O   0  0  0  0  0  1  0  0  0  0  0  0
  190.0740  177.9230  139.4360 O   0  0  0  0  0  0  0  0  0  0  0  0
  188.9220  178.3090  139.1020 C   0  0  0  0  0  0  0  0  0  0  0  0
  2 20  1  6  0  0  0
  4  2  1  0  0  0  0
  4  7  1  1  0  0  0
  4 10  1  0  0  0  0
  5  1  1  0  0  0  0
  5 33  1  0  0  0  0
  6 15  2  0  0  0  0
  7  5  2  0  0  0  0
  8  3  1  0  0  0  0
  8 21  1  6  0  0  0
 10 15  1  6  0  0  0
 10  1  1  0  0  0  0
 10  3  1  0  0  0  0
 12 11  1  6  0  0  0
 12  8  1  0  0  0  0
 13  9  1  6  0  0  0
 13  2  1  0  0  0  0
 13 14  1  0  0  0  0
 14 16  2  0  0  0  0
 15 12  1  0  0  0  0
 17  7  1  0  0  0  0
 17 14  1  0  0  0  0
 19 18  1  0  0  0  0
 20 19  1  0  0  0  0
 20 18  1  0  0  0  0
 21 22  1  0  0  0  0
 22 26  1  0  0  0  0
 22 28  1  0  0  0  0
 23 24  1  0  0  0  0
 23 25  1  1  0  0  0
 24 27  1  0  0  0  0
 26 27  1  0  0  0  0
 28 23  1  0  0  0  0
 29 23  1  0  0  0  0
 30 29  1  0  0  0  0
 31 32  2  0  0  0  0
 32 30  1  0  0  0  0
 32 29  1  0  0  0  0
 33 36  1  0  0  0  0
 36 35  2  0  0  0  0
 36 34  1  0  0  0  0
M  END
>  <MODEL>
8

>  <REMARK>
 VINA RESULT:      -5.8      3.402      6.700
  Name = 
  6 active torsions:
  status: ('A' for Active; 'I' for Inactive)
    1  A    between atoms: C_4  and  C_33
    2  A    between atoms: N_7  and  C_10
    3  A    between atoms: N_9  and  C_19
    4  A    between atoms: C_11  and  O_25
    5  A    between atoms: C_16  and  C_19
    6  A    between atoms: O_25  and  C_35
                            x       y       z     vdW  Elec       q    Type
                         _______ _______ _______ _____ _____    ______ ____

>  <TORSDO>
F 6

$$$$
=
 OpenBabel11062416043D

 36 41  0  0  1  0  0  0  0  0999 V2000
  189.3050  177.8070  139.4540 O   0  0  0  0  0  0  0  0  0  0  0  0
  190.1810  175.7010  136.6540 C   0  0  2  0  0  3  0  0  0  0  0  0
  187.9130  176.5660  138.0830 O   0  0  0  0  0  0  0  0  0  0  0  0
  190.2530  177.0230  137.4470 C   0  0  2  0  0  3  0  0  0  0  0  0
  190.5830  177.3480  139.7140 C   0  0  0  0  0  0  0  0  0  0  0  0
  189.0610  179.7400  137.1990 O   0  0  0  0  0  0  0  0  0  0  0  0
  191.1490  176.8610  138.6320 C   0  0  0  0  0  0  0  0  0  0  0  0
  186.7080  177.2920  137.9110 C   0  0  1  0  0  3  0  0  0  0  0  0
  192.3380  176.0670  135.3360 C   0  0  0  0  0  1  0  0  0  0  0  0
  188.9440  177.5270  138.1060 C   0  0  2  0  0  0  0  0  0  0  0  0
  186.8370  178.3980  135.7640 O   0  0  0  0  0  1  0  0  0  0  0  0
  186.9910  178.5820  137.1410 C   0  0  2  0  0  3  0  0  0  0  0  0
  191.6060  175.1780  136.3360 C   0  0  1  0  0  3  0  0  0  0  0  0
  192.4240  175.0580  137.5930 C   0  0  0  0  0  0  0  0  0  0  0  0
  188.4130  178.7350  137.4410 C   0  0  0  0  0  0  0  0  0  0  0  0
  193.0940  174.0570  137.7890 O   0  0  0  0  0  0  0  0  0  0  0  0
  192.4860  176.1960  138.5720 C   0  0  0  0  0  2  0  0  0  0  0  0
  188.1310  174.9480  135.4620 C   0  0  0  0  0  2  0  0  0  0  0  0
  189.3010  174.5610  134.5940 C   0  0  0  0  0  2  0  0  0  0  0  0
  189.3400  175.8600  135.3830 C   0  0  0  0  0  3  0  0  0  0  0  0
  185.6210  176.4300  137.2820 C   0  0  0  0  0  2  0  0  0  0  0  0
  184.3210  176.8080  137.8110 N   0  0  0  0  0  0  0  0  0  0  0  0
  182.0050  177.2500  137.1430 C   0  0  1  0  0  0  0  0  0  0  0  0
  181.9540  177.8860  138.5420 C   0  0  0  0  0  2  0  0  0  0  0  0
  181.2830  178.1440  136.1550 C   0  0  0  0  0  1  0  0  0  0  0  0
  184.4940  178.0630  138.5490 C   0  0  0  0  0  2  0  0  0  0  0  0
  183.1600  178.7910  138.8070 C   0  0  0  0  0  2  0  0  0  0  0  0
  183.4480  177.0490  136.6670 C   0  0  0  0  0  2  0  0  0  0  0  0
  181.3450  175.9570  137.1840 N   0  0  0  0  0  0  0  0  0  0  0  0
  181.0840  174.7230  136.6030 O   0  0  0  0  0  0  0  0  0  0  0  0
  179.7380  174.7450  138.7810 O   0  0  0  0  0  0  0  0  0  0  0  0
  180.4910  175.0470  137.8190 C   0  0  0  0  0  0  0  0  0  0  0  0
  191.1960  177.3740  140.9710 O   0  0  0  0  0  0  0  0  0  0  0  0
  189.9740  178.1510  142.8910 O   0  0  0  0  0  1  0  0  0  0  0  0
  190.4270  175.9270  142.6120 O   0  0  0  0  0  0  0  0  0  0  0  0
  190.5280  177.1030  142.1700 C   0  0  0  0  0  0  0  0  0  0  0  0
  1  5  1  0  0  0  0
  2 20  1  6  0  0  0
  2  4  1  0  0  0  0
  3 10  1  0  0  0  0
  4 10  1  0  0  0  0
  4  7  1  1  0  0  0
  5 33  1  0  0  0  0
  6 15  2  0  0  0  0
  7  5  2  0  0  0  0
  8 21  1  6  0  0  0
  8  3  1  0  0  0  0
 10 15  1  6  0  0  0
 10  1  1  0  0  0  0
 12 11  1  6  0  0  0
 12 15  1  0  0  0  0
 12  8  1  0  0  0  0
 13  9  1  6  0  0  0
 13  2  1  0  0  0  0
 13 14  1  0  0  0  0
 14 16  2  0  0  0  0
 14 17  1  0  0  0  0
 17  7  1  0  0  0  0
 19 20  1  0  0  0  0
 19 18  1  0  0  0  0
 20 18  1  0  0  0  0
 21 22  1  0  0  0  0
 22 26  1  0  0  0  0
 23 25  1  6  0  0  0
 23 29  1  0  0  0  0
 23 24  1  0  0  0  0
 24 27  1  0  0  0  0
 26 27  1  0  0  0  0
 28 23  1  0  0  0  0
 28 22  1  0  0  0  0
 29 32  1  0  0  0  0
 30 29  1  0  0  0  0
 30 32  1  0  0  0  0
 32 31  2  0  0  0  0
 33 36  1  0  0  0  0
 36 35  2  0  0  0  0
 36 34  1  0  0  0  0
M  END
>  <MODEL>
9

>  <REMARK>
 VINA RESULT:      -5.5      3.108      7.180
  Name = 
  6 active torsions:
  status: ('A' for Active; 'I' for Inactive)
    1  A    between atoms: C_4  and  C_33
    2  A    between atoms: N_7  and  C_10
    3  A    between atoms: N_9  and  C_19
    4  A    between atoms: C_11  and  O_25
    5  A    between atoms: C_16  and  C_19
    6  A    between atoms: O_25  and  C_35
                            x       y       z     vdW  Elec       q    Type
                         _______ _______ _______ _____ _____    ______ ____

>  <TORSDO>
F 6

$$$$
