=
 OpenBabel11062416223D

 29 33  0  0  1  0  0  0  0  0999 V2000
  185.7190  177.5030  143.3870 N   0  0  0  0  0  0  0  0  0  0  0  0
  189.2860  177.0520  142.1590 C   0  0  0  0  0  0  0  0  0  0  0  0
  187.9690  177.5090  142.3170 C   0  0  0  0  0  0  0  0  0  0  0  0
  188.1930  178.6900  140.2520 N   0  0  0  0  0  0  0  0  0  0  0  0
  187.1470  177.1820  143.5440 C   0  0  1  0  0  3  0  0  0  0  0  0
  186.0810  178.7630  141.4120 N   0  0  0  0  0  2  0  0  0  0  0  0
  189.4700  178.2460  140.1250 C   0  0  0  0  0  3  0  0  0  0  0  0
  189.8830  176.1980  143.1310 N   0  0  0  0  0  1  0  0  0  0  0  0
  187.4380  178.3360  141.3230 C   0  0  0  0  0  0  0  0  0  0  0  0
  185.2260  178.2580  142.4450 C   0  0  0  0  0  0  0  0  0  0  0  0
  190.0060  177.4310  141.0710 N   0  0  0  0  0  0  0  0  0  0  0  0
  181.7440  179.3290  143.5770 C   0  0  0  0  0  2  0  0  0  0  0  0
  183.2270  177.4530  140.2420 C   0  0  0  0  0  2  0  0  0  0  0  0
  182.0190  177.4190  139.3380 C   0  0  0  0  0  2  0  0  0  0  0  0
  181.4850  178.8370  141.2530 C   0  0  1  0  0  3  0  0  0  0  0  0
  183.7810  178.5800  142.4290 C   0  0  0  0  0  0  0  0  0  0  0  0
  179.6200  179.0730  142.6880 C   0  0  0  0  0  1  0  0  0  0  0  0
  183.0180  178.6700  141.1210 C   0  0  1  0  0  3  0  0  0  0  0  0
  180.8670  177.9060  140.1910 C   0  0  2  0  0  3  0  0  0  0  0  0
  180.2430  176.7990  140.7750 O   0  0  0  0  0  1  0  0  0  0  0  0
  183.1660  178.8790  143.5760 C   0  0  0  0  0  3  0  0  0  0  0  0
  180.9770  178.5540  142.6090 N   0  0  0  0  0  0  0  0  0  0  0  0
  188.6860  176.9340  145.5250 C   0  0  0  0  0  2  0  0  0  0  0  0
  189.1140  177.5740  146.8400 C   0  0  0  0  0  2  0  0  0  0  0  0
  186.6330  178.4100  145.7000 C   0  0  0  0  0  3  0  0  0  0  0  0
  186.7390  178.3910  147.0380 C   0  0  0  0  0  3  0  0  0  0  0  0
  187.8940  177.7300  147.7440 C   0  0  2  0  0  3  0  0  0  0  0  0
  187.7160  177.8620  144.7940 C   0  0  2  0  0  3  0  0  0  0  0  0
  188.2310  178.4520  148.8730 F   0  0  0  0  0  0  0  0  0  0  0  0
  1  5  1  0  0  0  0
  2  3  2  0  0  0  0
  2  8  1  0  0  0  0
  4  9  2  0  0  0  0
  5  3  1  6  0  0  0
  5 28  1  0  0  0  0
  6 10  1  0  0  0  0
  7  4  1  0  0  0  0
  7 11  2  0  0  0  0
  9  6  1  0  0  0  0
  9  3  1  0  0  0  0
 10  1  2  0  0  0  0
 11  2  1  0  0  0  0
 14 19  1  0  0  0  0
 14 13  1  0  0  0  0
 15 22  1  1  0  0  0
 16 10  1  0  0  0  0
 16 21  2  0  0  0  0
 18 13  1  6  0  0  0
 18 15  1  0  0  0  0
 18 16  1  0  0  0  0
 19 20  1  1  0  0  0
 19 15  1  0  0  0  0
 21 12  1  0  0  0  0
 22 17  1  0  0  0  0
 22 12  1  0  0  0  0
 23 24  1  0  0  0  0
 24 27  1  0  0  0  0
 25 26  2  0  0  0  0
 26 27  1  0  0  0  0
 27 29  1  1  0  0  0
 28 23  1  1  0  0  0
 28 25  1  0  0  0  0
M  END
>  <MODEL>
1

>  <REMARK>
 VINA RESULT:      -9.9      0.000      0.000
  Name = 
  2 active torsions:
  status: ('A' for Active; 'I' for Inactive)
    1  A    between atoms: C_12  and  C_27
    2  A    between atoms: C_16  and  C_21
                            x       y       z     vdW  Elec       q    Type
                         _______ _______ _______ _____ _____    ______ ____

>  <TORSDO>
F 2

$$$$
=
 OpenBabel11062416223D

 29 33  0  0  1  0  0  0  0  0999 V2000
  186.0480  179.0170  141.6600 N   0  0  0  0  0  0  0  0  0  0  0  0
  182.5260  179.1110  143.0800 C   0  0  0  0  0  0  0  0  0  0  0  0
  183.6430  178.8260  142.2810 C   0  0  0  0  0  0  0  0  0  0  0  0
  182.1680  177.8780  140.6580 N   0  0  0  0  0  0  0  0  0  0  0  0
  185.0550  179.1160  142.7410 C   0  0  1  0  0  3  0  0  0  0  0  0
  184.5300  177.9620  140.1780 N   0  0  0  0  0  2  0  0  0  0  0  0
  181.1010  178.1520  141.4520 C   0  0  0  0  0  3  0  0  0  0  0  0
  182.6770  179.7530  144.3440 N   0  0  0  0  0  1  0  0  0  0  0  0
  183.4270  178.2040  141.0480 C   0  0  0  0  0  0  0  0  0  0  0  0
  185.8340  178.4550  140.5030 C   0  0  0  0  0  0  0  0  0  0  0  0
  181.2840  178.7670  142.6500 N   0  0  0  0  0  0  0  0  0  0  0  0
  187.7210  178.2530  137.1930 C   0  0  0  0  0  2  0  0  0  0  0  0
  188.7020  177.5030  141.1070 C   0  0  0  0  0  2  0  0  0  0  0  0
  190.1910  177.2780  141.0190 C   0  0  0  0  0  2  0  0  0  0  0  0
  189.4300  178.1220  138.8580 C   0  0  1  0  0  3  0  0  0  0  0  0
  186.9330  178.3410  139.5170 C   0  0  0  0  0  0  0  0  0  0  0  0
  189.8480  177.5500  136.6010 C   0  0  0  0  0  1  0  0  0  0  0  0
  188.3830  178.4330  139.9530 C   0  0  1  0  0  3  0  0  0  0  0  0
  190.5060  177.2510  139.5380 C   0  0  2  0  0  3  0  0  0  0  0  0
  190.4570  175.9270  139.0940 O   0  0  0  0  0  1  0  0  0  0  0  0
  186.6380  178.2430  138.2180 C   0  0  0  0  0  3  0  0  0  0  0  0
  188.8580  177.4700  137.6650 N   0  0  0  0  0  0  0  0  0  0  0  0
  185.4460  179.0100  145.2300 C   0  0  0  0  0  2  0  0  0  0  0  0
  185.9920  178.1390  146.3540 C   0  0  0  0  0  2  0  0  0  0  0  0
  186.7590  177.4930  143.6800 C   0  0  0  0  0  3  0  0  0  0  0  0
  187.6420  177.2590  144.6640 C   0  0  0  0  0  3  0  0  0  0  0  0
  187.4500  177.7940  146.0600 C   0  0  2  0  0  3  0  0  0  0  0  0
  185.4530  178.2210  143.9200 C   0  0  2  0  0  3  0  0  0  0  0  0
  187.9150  176.8770  146.9820 F   0  0  0  0  0  0  0  0  0  0  0  0
  2  8  1  0  0  0  0
  3  5  1  0  0  0  0
  3  2  2  0  0  0  0
  4  9  2  0  0  0  0
  4  7  1  0  0  0  0
  5  1  1  6  0  0  0
  5 28  1  0  0  0  0
  6 10  1  0  0  0  0
  6  9  1  0  0  0  0
  7 11  2  0  0  0  0
  9  3  1  0  0  0  0
 10  1  2  0  0  0  0
 11  2  1  0  0  0  0
 12 22  1  0  0  0  0
 12 21  1  0  0  0  0
 14 13  1  0  0  0  0
 15 22  1  6  0  0  0
 15 19  1  0  0  0  0
 15 18  1  0  0  0  0
 16 18  1  0  0  0  0
 16 10  1  0  0  0  0
 17 22  1  0  0  0  0
 18 13  1  1  0  0  0
 19 20  1  6  0  0  0
 19 14  1  0  0  0  0
 21 16  2  0  0  0  0
 23 24  1  0  0  0  0
 25 26  2  0  0  0  0
 26 27  1  0  0  0  0
 27 24  1  0  0  0  0
 27 29  1  1  0  0  0
 28 25  1  6  0  0  0
 28 23  1  0  0  0  0
M  END
>  <MODEL>
2

>  <REMARK>
 VINA RESULT:      -9.1      2.633      6.404
  Name = 
  2 active torsions:
  status: ('A' for Active; 'I' for Inactive)
    1  A    between atoms: C_12  and  C_27
    2  A    between atoms: C_16  and  C_21
                            x       y       z     vdW  Elec       q    Type
                         _______ _______ _______ _____ _____    ______ ____

>  <TORSDO>
F 2

$$$$
=
 OpenBabel11062416223D

 29 33  0  0  1  0  0  0  0  0999 V2000
  188.3790  178.4520  142.2450 N   0  0  0  0  0  0  0  0  0  0  0  0
  188.1450  177.9070  138.4930 C   0  0  0  0  0  0  0  0  0  0  0  0
  188.4470  177.7550  139.8540 C   0  0  0  0  0  0  0  0  0  0  0  0
  190.0160  176.0550  139.2570 N   0  0  0  0  0  0  0  0  0  0  0  0
  187.7250  178.5360  140.9300 C   0  0  1  0  0  3  0  0  0  0  0  0
  189.7980  176.6760  141.5770 N   0  0  0  0  0  2  0  0  0  0  0  0
  189.6990  176.2090  137.9460 C   0  0  0  0  0  3  0  0  0  0  0  0
  187.1780  178.8610  138.0620 N   0  0  0  0  0  1  0  0  0  0  0  0
  189.4120  176.8090  140.2110 C   0  0  0  0  0  0  0  0  0  0  0  0
  189.2940  177.5810  142.5660 C   0  0  0  0  0  0  0  0  0  0  0  0
  188.7740  177.1310  137.5720 N   0  0  0  0  0  0  0  0  0  0  0  0
  191.6620  177.0980  145.5180 C   0  0  0  0  0  2  0  0  0  0  0  0
  187.6110  177.6420  145.1470 C   0  0  0  0  0  2  0  0  0  0  0  0
  187.1870  177.8250  146.5830 C   0  0  0  0  0  2  0  0  0  0  0  0
  189.6280  177.8620  146.5110 C   0  0  1  0  0  3  0  0  0  0  0  0
  189.8270  177.5360  143.9470 C   0  0  0  0  0  0  0  0  0  0  0  0
  191.3520  176.8900  147.8050 C   0  0  0  0  0  1  0  0  0  0  0  0
  189.0460  178.1320  145.1030 C   0  0  1  0  0  3  0  0  0  0  0  0
  188.4210  177.5210  147.4070 C   0  0  2  0  0  3  0  0  0  0  0  0
  188.4030  176.1680  147.7580 O   0  0  0  0  0  1  0  0  0  0  0  0
  191.0500  177.0420  144.1600 C   0  0  0  0  0  3  0  0  0  0  0  0
  190.6550  176.8040  146.5300 N   0  0  0  0  0  0  0  0  0  0  0  0
  185.3520  179.1030  140.2930 C   0  0  0  0  0  2  0  0  0  0  0  0
  183.8910  178.7470  140.5420 C   0  0  0  0  0  2  0  0  0  0  0  0
  185.8180  177.8780  142.4630 C   0  0  0  0  0  3  0  0  0  0  0  0
  184.5880  178.1930  142.9000 C   0  0  0  0  0  3  0  0  0  0  0  0
  183.5820  178.9010  142.0300 C   0  0  2  0  0  3  0  0  0  0  0  0
  186.2550  178.1150  141.0320 C   0  0  2  0  0  3  0  0  0  0  0  0
  182.3120  178.4300  142.3000 F   0  0  0  0  0  0  0  0  0  0  0  0
  1 10  2  0  0  0  0
  2  3  2  0  0  0  0
  3  9  1  0  0  0  0
  4  9  2  0  0  0  0
  5  3  1  6  0  0  0
  5 28  1  0  0  0  0
  5  1  1  0  0  0  0
  6 10  1  0  0  0  0
  7  4  1  0  0  0  0
  8  2  1  0  0  0  0
  9  6  1  0  0  0  0
 10 16  1  0  0  0  0
 11  7  2  0  0  0  0
 11  2  1  0  0  0  0
 12 22  1  0  0  0  0
 13 14  1  0  0  0  0
 14 19  1  0  0  0  0
 15 22  1  6  0  0  0
 15 19  1  0  0  0  0
 16 21  2  0  0  0  0
 16 18  1  0  0  0  0
 18 13  1  1  0  0  0
 18 15  1  0  0  0  0
 19 20  1  6  0  0  0
 21 12  1  0  0  0  0
 22 17  1  0  0  0  0
 23 24  1  0  0  0  0
 24 27  1  0  0  0  0
 25 26  2  0  0  0  0
 27 29  1  6  0  0  0
 27 26  1  0  0  0  0
 28 23  1  1  0  0  0
 28 25  1  0  0  0  0
M  END
>  <MODEL>
3

>  <REMARK>
 VINA RESULT:      -9.0      3.395      7.041
  Name = 
  2 active torsions:
  status: ('A' for Active; 'I' for Inactive)
    1  A    between atoms: C_12  and  C_27
    2  A    between atoms: C_16  and  C_21
                            x       y       z     vdW  Elec       q    Type
                         _______ _______ _______ _____ _____    ______ ____

>  <TORSDO>
F 2

$$$$
=
 OpenBabel11062416223D

 29 33  0  0  1  0  0  0  0  0999 V2000
  187.9090  176.8170  142.0270 N   0  0  0  0  0  0  0  0  0  0  0  0
  190.1660  176.8690  138.9710 C   0  0  0  0  0  0  0  0  0  0  0  0
  189.2220  177.2190  139.9480 C   0  0  0  0  0  0  0  0  0  0  0  0
  188.5020  179.0030  138.5300 N   0  0  0  0  0  0  0  0  0  0  0  0
  189.1340  176.4980  141.2750 C   0  0  1  0  0  3  0  0  0  0  0  0
  187.3640  178.6490  140.6270 N   0  0  0  0  0  2  0  0  0  0  0  0
  189.4310  178.6540  137.6030 C   0  0  0  0  0  3  0  0  0  0  0  0
  191.0450  175.7650  139.1690 N   0  0  0  0  0  1  0  0  0  0  0  0
  188.3830  178.3060  139.6900 C   0  0  0  0  0  0  0  0  0  0  0  0
  187.1180  177.8200  141.7680 C   0  0  0  0  0  0  0  0  0  0  0  0
  190.2510  177.5930  137.8250 N   0  0  0  0  0  0  0  0  0  0  0  0
  183.6660  178.9250  142.9580 C   0  0  0  0  0  2  0  0  0  0  0  0
  187.1580  177.8880  144.8490 C   0  0  0  0  0  2  0  0  0  0  0  0
  186.7280  177.8380  146.2940 C   0  0  0  0  0  2  0  0  0  0  0  0
  184.7210  178.0660  144.9220 C   0  0  1  0  0  3  0  0  0  0  0  0
  185.9540  178.0940  142.6420 C   0  0  0  0  0  0  0  0  0  0  0  0
  182.7570  179.3780  145.0410 C   0  0  0  0  0  1  0  0  0  0  0  0
  185.9040  177.5610  144.0620 C   0  0  1  0  0  3  0  0  0  0  0  0
  185.3130  178.3770  146.3110 C   0  0  2  0  0  3  0  0  0  0  0  0
  185.3610  179.7520  146.5560 O   0  0  0  0  0  1  0  0  0  0  0  0
  184.9000  178.7450  142.1420 C   0  0  0  0  0  3  0  0  0  0  0  0
  184.0230  179.2270  144.3390 N   0  0  0  0  0  0  0  0  0  0  0  0
  190.5430  175.6650  143.1920 C   0  0  0  0  0  2  0  0  0  0  0  0
  191.6910  176.0300  144.1260 C   0  0  0  0  0  2  0  0  0  0  0  0
  190.3920  178.1520  142.7240 C   0  0  0  0  0  3  0  0  0  0  0  0
  190.8750  178.4080  143.9500 C   0  0  0  0  0  3  0  0  0  0  0  0
  191.3410  177.3130  144.8750 C   0  0  2  0  0  3  0  0  0  0  0  0
  190.3750  176.7560  142.1350 C   0  0  2  0  0  3  0  0  0  0  0  0
  192.4300  177.7470  145.6060 F   0  0  0  0  0  0  0  0  0  0  0  0
  2  8  1  0  0  0  0
  2  3  2  0  0  0  0
  4  9  2  0  0  0  0
  5  3  1  6  0  0  0
  5  1  1  0  0  0  0
  5 28  1  0  0  0  0
  6 10  1  0  0  0  0
  7 11  2  0  0  0  0
  7  4  1  0  0  0  0
  9  3  1  0  0  0  0
  9  6  1  0  0  0  0
 10  1  2  0  0  0  0
 10 16  1  0  0  0  0
 11  2  1  0  0  0  0
 12 22  1  0  0  0  0
 13 14  1  0  0  0  0
 14 19  1  0  0  0  0
 15 22  1  6  0  0  0
 15 19  1  0  0  0  0
 16 18  1  0  0  0  0
 18 13  1  1  0  0  0
 18 15  1  0  0  0  0
 19 20  1  6  0  0  0
 21 16  2  0  0  0  0
 21 12  1  0  0  0  0
 22 17  1  0  0  0  0
 23 24  1  0  0  0  0
 24 27  1  0  0  0  0
 25 26  2  0  0  0  0
 26 27  1  0  0  0  0
 27 29  1  6  0  0  0
 28 25  1  1  0  0  0
 28 23  1  0  0  0  0
M  END
>  <MODEL>
4

>  <REMARK>
 VINA RESULT:      -8.9      2.792      4.324
  Name = 
  2 active torsions:
  status: ('A' for Active; 'I' for Inactive)
    1  A    between atoms: C_12  and  C_27
    2  A    between atoms: C_16  and  C_21
                            x       y       z     vdW  Elec       q    Type
                         _______ _______ _______ _____ _____    ______ ____

>  <TORSDO>
F 2

$$$$
=
 OpenBabel11062416223D

 29 33  0  0  1  0  0  0  0  0999 V2000
  187.0920  177.2630  143.5660 N   0  0  0  0  0  0  0  0  0  0  0  0
  190.8230  176.5830  143.3440 C   0  0  0  0  0  0  0  0  0  0  0  0
  189.5390  177.1050  143.1260 C   0  0  0  0  0  0  0  0  0  0  0  0
  190.3600  178.1390  141.1350 N   0  0  0  0  0  0  0  0  0  0  0  0
  188.4080  176.8930  144.1090 C   0  0  1  0  0  3  0  0  0  0  0  0
  188.0260  178.3770  141.6940 N   0  0  0  0  0  2  0  0  0  0  0  0
  191.5980  177.6350  141.3710 C   0  0  0  0  0  3  0  0  0  0  0  0
  191.0960  175.7700  144.4810 N   0  0  0  0  0  1  0  0  0  0  0  0
  189.3330  177.8870  141.9870 C   0  0  0  0  0  0  0  0  0  0  0  0
  186.9050  177.9750  142.4900 C   0  0  0  0  0  0  0  0  0  0  0  0
  191.8210  176.8610  142.4650 N   0  0  0  0  0  0  0  0  0  0  0  0
  183.1660  178.7280  142.6110 C   0  0  0  0  0  2  0  0  0  0  0  0
  185.8850  178.1650  139.5880 C   0  0  0  0  0  2  0  0  0  0  0  0
  185.0790  178.5380  138.3690 C   0  0  0  0  0  2  0  0  0  0  0  0
  183.7840  179.1600  140.3440 C   0  0  1  0  0  3  0  0  0  0  0  0
  185.5340  178.3570  142.0790 C   0  0  0  0  0  0  0  0  0  0  0  0
  181.5210  178.9390  140.9940 C   0  0  0  0  0  1  0  0  0  0  0  0
  185.2730  178.9720  140.7170 C   0  0  1  0  0  3  0  0  0  0  0  0
  183.6620  178.7300  138.8680 C   0  0  2  0  0  3  0  0  0  0  0  0
  182.9740  177.5200  138.7370 O   0  0  0  0  0  1  0  0  0  0  0  0
  184.5320  178.2360  142.9530 C   0  0  0  0  0  3  0  0  0  0  0  0
  182.8600  178.4160  141.2200 N   0  0  0  0  0  0  0  0  0  0  0  0
  189.4510  176.7410  146.4000 C   0  0  0  0  0  2  0  0  0  0  0  0
  189.5620  177.4360  147.7510 C   0  0  0  0  0  2  0  0  0  0  0  0
  187.4060  178.1950  146.0380 C   0  0  0  0  0  3  0  0  0  0  0  0
  187.2010  178.2290  147.3640 C   0  0  0  0  0  3  0  0  0  0  0  0
  188.1650  177.6110  148.3430 C   0  0  2  0  0  3  0  0  0  0  0  0
  188.6710  177.6280  145.4290 C   0  0  2  0  0  3  0  0  0  0  0  0
  188.2290  178.3790  149.4890 F   0  0  0  0  0  0  0  0  0  0  0  0
  1  5  1  0  0  0  0
  2  8  1  0  0  0  0
  3  2  2  0  0  0  0
  4  7  1  0  0  0  0
  4  9  2  0  0  0  0
  5  3  1  6  0  0  0
  5 28  1  0  0  0  0
  6  9  1  0  0  0  0
  6 10  1  0  0  0  0
  7 11  2  0  0  0  0
  9  3  1  0  0  0  0
 10  1  2  0  0  0  0
 11  2  1  0  0  0  0
 12 21  1  0  0  0  0
 14 19  1  0  0  0  0
 14 13  1  0  0  0  0
 15 18  1  0  0  0  0
 15 22  1  1  0  0  0
 16 10  1  0  0  0  0
 16 21  2  0  0  0  0
 17 22  1  0  0  0  0
 18 13  1  6  0  0  0
 18 16  1  0  0  0  0
 19 20  1  1  0  0  0
 19 15  1  0  0  0  0
 22 12  1  0  0  0  0
 23 24  1  0  0  0  0
 24 27  1  0  0  0  0
 25 26  2  0  0  0  0
 26 27  1  0  0  0  0
 27 29  1  1  0  0  0
 28 25  1  1  0  0  0
 28 23  1  0  0  0  0
M  END
>  <MODEL>
5

>  <REMARK>
 VINA RESULT:      -8.8      1.598      2.069
  Name = 
  2 active torsions:
  status: ('A' for Active; 'I' for Inactive)
    1  A    between atoms: C_12  and  C_27
    2  A    between atoms: C_16  and  C_21
                            x       y       z     vdW  Elec       q    Type
                         _______ _______ _______ _____ _____    ______ ____

>  <TORSDO>
F 2

$$$$
=
 OpenBabel11062416223D

 29 33  0  0  1  0  0  0  0  0999 V2000
  184.9690  177.8230  142.3600 N   0  0  0  0  0  0  0  0  0  0  0  0
  188.7010  177.2350  141.9630 C   0  0  0  0  0  0  0  0  0  0  0  0
  187.3940  177.7170  141.7980 C   0  0  0  0  0  0  0  0  0  0  0  0
  188.0830  178.7180  139.7410 N   0  0  0  0  0  0  0  0  0  0  0  0
  186.3210  177.5030  142.8440 C   0  0  1  0  0  3  0  0  0  0  0  0
  185.7750  178.9090  140.4140 N   0  0  0  0  0  2  0  0  0  0  0  0
  189.3450  178.2520  139.9250 C   0  0  0  0  0  3  0  0  0  0  0  0
  189.0550  176.4600  143.1050 N   0  0  0  0  0  1  0  0  0  0  0  0
  187.1080  178.4620  140.6510 C   0  0  0  0  0  0  0  0  0  0  0  0
  184.7080  178.5010  141.2770 C   0  0  0  0  0  0  0  0  0  0  0  0
  189.6450  177.5140  141.0270 N   0  0  0  0  0  0  0  0  0  0  0  0
  181.6390  179.6350  139.3150 C   0  0  0  0  0  2  0  0  0  0  0  0
  182.3980  178.8930  143.2790 C   0  0  0  0  0  2  0  0  0  0  0  0
  181.0190  178.9820  143.8840 C   0  0  0  0  0  2  0  0  0  0  0  0
  180.7760  179.0130  141.4540 C   0  0  1  0  0  3  0  0  0  0  0  0
  183.3080  178.8350  140.9270 C   0  0  0  0  0  0  0  0  0  0  0  0
  179.4970  180.2790  139.9200 C   0  0  0  0  0  1  0  0  0  0  0  0
  182.1640  178.4520  141.8470 C   0  0  1  0  0  3  0  0  0  0  0  0
  180.1240  179.4830  142.7700 C   0  0  2  0  0  3  0  0  0  0  0  0
  180.0560  180.8780  142.8440 O   0  0  0  0  0  1  0  0  0  0  0  0
  183.0470  179.4020  139.7470 C   0  0  0  0  0  3  0  0  0  0  0  0
  180.8400  180.0880  140.4470 N   0  0  0  0  0  0  0  0  0  0  0  0
  187.0940  177.3350  145.2380 C   0  0  0  0  0  2  0  0  0  0  0  0
  187.2440  178.1120  146.5400 C   0  0  0  0  0  2  0  0  0  0  0  0
  185.4840  179.1720  144.5560 C   0  0  0  0  0  3  0  0  0  0  0  0
  185.1770  179.3750  145.8470 C   0  0  0  0  0  3  0  0  0  0  0  0
  185.8800  178.6500  146.9650 C   0  0  2  0  0  3  0  0  0  0  0  0
  186.6310  178.2800  144.1280 C   0  0  2  0  0  3  0  0  0  0  0  0
  186.0210  179.4890  148.0540 F   0  0  0  0  0  0  0  0  0  0  0  0
  1  5  1  0  0  0  0
  2  8  1  0  0  0  0
  3  2  2  0  0  0  0
  4  7  1  0  0  0  0
  4  9  2  0  0  0  0
  5  3  1  6  0  0  0
  5 28  1  0  0  0  0
  6  9  1  0  0  0  0
  6 10  1  0  0  0  0
  7 11  2  0  0  0  0
  9  3  1  0  0  0  0
 10  1  2  0  0  0  0
 11  2  1  0  0  0  0
 12 21  1  0  0  0  0
 12 22  1  0  0  0  0
 13 14  1  0  0  0  0
 15 22  1  6  0  0  0
 15 18  1  0  0  0  0
 15 19  1  0  0  0  0
 16 10  1  0  0  0  0
 16 18  1  0  0  0  0
 17 22  1  0  0  0  0
 18 13  1  1  0  0  0
 19 20  1  6  0  0  0
 19 14  1  0  0  0  0
 21 16  2  0  0  0  0
 23 24  1  0  0  0  0
 24 27  1  0  0  0  0
 25 26  2  0  0  0  0
 26 27  1  0  0  0  0
 27 29  1  1  0  0  0
 28 25  1  1  0  0  0
 28 23  1  0  0  0  0
M  END
>  <MODEL>
6

>  <REMARK>
 VINA RESULT:      -8.7      1.570      2.333
  Name = 
  2 active torsions:
  status: ('A' for Active; 'I' for Inactive)
    1  A    between atoms: C_12  and  C_27
    2  A    between atoms: C_16  and  C_21
                            x       y       z     vdW  Elec       q    Type
                         _______ _______ _______ _____ _____    ______ ____

>  <TORSDO>
F 2

$$$$
=
 OpenBabel11062416223D

 29 33  0  0  1  0  0  0  0  0999 V2000
  190.0880  176.1070  139.4880 N   0  0  0  0  0  0  0  0  0  0  0  0
  188.3990  176.5810  136.1190 C   0  0  0  0  0  0  0  0  0  0  0  0
  188.9620  176.8160  137.3820 C   0  0  0  0  0  0  0  0  0  0  0  0
  188.0000  179.0030  137.3400 N   0  0  0  0  0  0  0  0  0  0  0  0
  189.8430  175.7970  138.0710 C   0  0  1  0  0  3  0  0  0  0  0  0
  189.2290  178.3070  139.2950 N   0  0  0  0  0  2  0  0  0  0  0  0
  187.4750  178.7600  136.1120 C   0  0  0  0  0  3  0  0  0  0  0  0
  188.5860  175.3330  135.4570 N   0  0  0  0  0  1  0  0  0  0  0  0
  188.7330  178.0570  137.9820 C   0  0  0  0  0  0  0  0  0  0  0  0
  189.8530  177.2610  140.0480 C   0  0  0  0  0  0  0  0  0  0  0  0
  187.6720  177.5560  135.5130 N   0  0  0  0  0  0  0  0  0  0  0  0
  191.8740  177.5030  143.2750 C   0  0  0  0  0  2  0  0  0  0  0  0
  187.8670  177.5270  142.3890 C   0  0  0  0  0  2  0  0  0  0  0  0
  187.2540  177.8780  143.7230 C   0  0  0  0  0  2  0  0  0  0  0  0
  189.6710  178.1770  143.9050 C   0  0  1  0  0  3  0  0  0  0  0  0
  190.2140  177.4870  141.4660 C   0  0  0  0  0  0  0  0  0  0  0  0
  191.3050  177.6130  145.5180 C   0  0  0  0  0  1  0  0  0  0  0  0
  189.2430  178.1610  142.4190 C   0  0  1  0  0  3  0  0  0  0  0  0
  188.3990  177.8440  144.7120 C   0  0  2  0  0  3  0  0  0  0  0  0
  188.4650  176.5670  145.2770 O   0  0  0  0  0  1  0  0  0  0  0  0
  191.4420  177.1720  141.8870 C   0  0  0  0  0  3  0  0  0  0  0  0
  190.7820  177.2560  144.2080 N   0  0  0  0  0  0  0  0  0  0  0  0
  191.5270  174.1280  137.2140 C   0  0  0  0  0  2  0  0  0  0  0  0
  192.9170  173.9820  136.6070 C   0  0  0  0  0  2  0  0  0  0  0  0
  192.2880  176.4420  137.9140 C   0  0  0  0  0  3  0  0  0  0  0  0
  193.5550  176.0040  137.9690 C   0  0  0  0  0  3  0  0  0  0  0  0
  193.9440  174.6110  137.5460 C   0  0  2  0  0  3  0  0  0  0  0  0
  191.1680  175.6100  137.3240 C   0  0  2  0  0  3  0  0  0  0  0  0
  195.1860  174.6310  136.9430 F   0  0  0  0  0  0  0  0  0  0  0  0
  1 10  2  0  0  0  0
  2  3  2  0  0  0  0
  3  9  1  0  0  0  0
  4  9  2  0  0  0  0
  5  3  1  6  0  0  0
  5  1  1  0  0  0  0
  6 10  1  0  0  0  0
  7  4  1  0  0  0  0
  8  2  1  0  0  0  0
  9  6  1  0  0  0  0
 10 16  1  0  0  0  0
 11  7  2  0  0  0  0
 11  2  1  0  0  0  0
 12 22  1  0  0  0  0
 13 14  1  0  0  0  0
 14 19  1  0  0  0  0
 15 22  1  6  0  0  0
 15 19  1  0  0  0  0
 16 21  2  0  0  0  0
 16 18  1  0  0  0  0
 18 13  1  1  0  0  0
 18 15  1  0  0  0  0
 19 20  1  6  0  0  0
 21 12  1  0  0  0  0
 22 17  1  0  0  0  0
 24 23  1  0  0  0  0
 24 27  1  0  0  0  0
 25 26  2  0  0  0  0
 27 29  1  6  0  0  0
 27 26  1  0  0  0  0
 28 23  1  1  0  0  0
 28 25  1  0  0  0  0
 28  5  1  0  0  0  0
M  END
>  <MODEL>
7

>  <REMARK>
 VINA RESULT:      -8.6      5.165      8.349
  Name = 
  2 active torsions:
  status: ('A' for Active; 'I' for Inactive)
    1  A    between atoms: C_12  and  C_27
    2  A    between atoms: C_16  and  C_21
                            x       y       z     vdW  Elec       q    Type
                         _______ _______ _______ _____ _____    ______ ____

>  <TORSDO>
F 2

$$$$
=
 OpenBabel11062416223D

 29 33  0  0  1  0  0  0  0  0999 V2000
  187.1190  177.3330  142.7770 N   0  0  0  0  0  0  0  0  0  0  0  0
  190.1470  177.0740  140.4970 C   0  0  0  0  0  0  0  0  0  0  0  0
  188.9590  177.5060  141.1070 C   0  0  0  0  0  0  0  0  0  0  0  0
  188.6380  179.0130  139.2800 N   0  0  0  0  0  0  0  0  0  0  0  0
  188.5120  176.9830  142.4540 C   0  0  1  0  0  3  0  0  0  0  0  0
  186.9590  178.9020  141.0090 N   0  0  0  0  0  2  0  0  0  0  0  0
  189.7970  178.5900  138.7140 C   0  0  0  0  0  3  0  0  0  0  0  0
  190.9540  176.0680  141.1030 N   0  0  0  0  0  1  0  0  0  0  0  0
  188.2070  178.4890  140.4570 C   0  0  0  0  0  0  0  0  0  0  0  0
  186.4150  178.2360  142.1540 C   0  0  0  0  0  0  0  0  0  0  0  0
  190.5390  177.6260  139.3200 N   0  0  0  0  0  0  0  0  0  0  0  0
  183.4180  178.8750  144.4270 C   0  0  0  0  0  2  0  0  0  0  0  0
  183.8910  178.3160  140.3880 C   0  0  0  0  0  2  0  0  0  0  0  0
  182.5110  178.6310  139.8650 C   0  0  0  0  0  2  0  0  0  0  0  0
  182.5830  179.2640  142.2230 C   0  0  1  0  0  3  0  0  0  0  0  0
  185.0470  178.5630  142.6160 C   0  0  0  0  0  0  0  0  0  0  0  0
  181.1320  178.9910  144.0700 C   0  0  0  0  0  1  0  0  0  0  0  0
  184.0180  179.1340  141.6590 C   0  0  1  0  0  3  0  0  0  0  0  0
  181.6430  178.7920  141.0950 C   0  0  2  0  0  3  0  0  0  0  0  0
  181.0570  177.5580  141.3940 O   0  0  0  0  0  1  0  0  0  0  0  0
  184.7460  178.4350  143.9110 C   0  0  0  0  0  3  0  0  0  0  0  0
  182.3730  178.5160  143.4760 N   0  0  0  0  0  0  0  0  0  0  0  0
  190.4850  176.3600  143.8940 C   0  0  0  0  0  2  0  0  0  0  0  0
  191.3050  176.7810  145.1080 C   0  0  0  0  0  2  0  0  0  0  0  0
  188.7080  177.9270  144.7970 C   0  0  0  0  0  3  0  0  0  0  0  0
  189.1600  177.7140  146.0430 C   0  0  0  0  0  3  0  0  0  0  0  0
  190.3880  176.8870  146.3230 C   0  0  2  0  0  3  0  0  0  0  0  0
  189.4540  177.4430  143.5720 C   0  0  2  0  0  3  0  0  0  0  0  0
  191.0800  177.4200  147.3930 F   0  0  0  0  0  0  0  0  0  0  0  0
  2  8  1  0  0  0  0
  2  3  2  0  0  0  0
  4  9  2  0  0  0  0
  5  3  1  6  0  0  0
  5  1  1  0  0  0  0
  5 28  1  0  0  0  0
  6 10  1  0  0  0  0
  7  4  1  0  0  0  0
  7 11  2  0  0  0  0
  9  6  1  0  0  0  0
  9  3  1  0  0  0  0
 10 16  1  0  0  0  0
 10  1  2  0  0  0  0
 11  2  1  0  0  0  0
 14 13  1  0  0  0  0
 14 19  1  0  0  0  0
 15 22  1  1  0  0  0
 16 21  2  0  0  0  0
 18 13  1  6  0  0  0
 18 15  1  0  0  0  0
 18 16  1  0  0  0  0
 19 20  1  1  0  0  0
 19 15  1  0  0  0  0
 21 12  1  0  0  0  0
 22 17  1  0  0  0  0
 22 12  1  0  0  0  0
 23 24  1  0  0  0  0
 24 27  1  0  0  0  0
 25 26  2  0  0  0  0
 26 27  1  0  0  0  0
 27 29  1  1  0  0  0
 28 23  1  1  0  0  0
 28 25  1  0  0  0  0
M  END
>  <MODEL>
8

>  <REMARK>
 VINA RESULT:      -8.5      1.547      1.908
  Name = 
  2 active torsions:
  status: ('A' for Active; 'I' for Inactive)
    1  A    between atoms: C_12  and  C_27
    2  A    between atoms: C_16  and  C_21
                            x       y       z     vdW  Elec       q    Type
                         _______ _______ _______ _____ _____    ______ ____

>  <TORSDO>
F 2

$$$$
=
 OpenBabel11062416223D

 29 33  0  0  1  0  0  0  0  0999 V2000
  187.8420  177.2150  141.9580 N   0  0  0  0  0  0  0  0  0  0  0  0
  189.4690  177.2630  145.3910 C   0  0  0  0  0  0  0  0  0  0  0  0
  189.2060  177.4670  144.0280 C   0  0  0  0  0  0  0  0  0  0  0  0
  191.4500  178.2450  143.7690 N   0  0  0  0  0  0  0  0  0  0  0  0
  187.8370  177.2260  143.4290 C   0  0  1  0  0  3  0  0  0  0  0  0
  190.0310  178.1140  141.8240 N   0  0  0  0  0  2  0  0  0  0  0  0
  191.6810  178.0520  145.0930 C   0  0  0  0  0  3  0  0  0  0  0  0
  188.4620  176.7530  146.2600 N   0  0  0  0  0  1  0  0  0  0  0  0
  190.2380  177.9600  143.2260 C   0  0  0  0  0  0  0  0  0  0  0  0
  188.8180  177.6570  141.2150 C   0  0  0  0  0  0  0  0  0  0  0  0
  190.6960  177.5610  145.8920 N   0  0  0  0  0  0  0  0  0  0  0  0
  187.3330  178.0230  137.7190 C   0  0  0  0  0  2  0  0  0  0  0  0
  190.7830  176.3780  139.2150 C   0  0  0  0  0  2  0  0  0  0  0  0
  191.5510  176.0620  137.9550 C   0  0  0  0  0  2  0  0  0  0  0  0
  189.6090  177.4060  137.3340 C   0  0  1  0  0  3  0  0  0  0  0  0
  188.6830  177.6720  139.7400 C   0  0  0  0  0  0  0  0  0  0  0  0
  187.9860  177.3000  135.6170 C   0  0  0  0  0  1  0  0  0  0  0  0
  189.9020  177.5550  138.8450 C   0  0  1  0  0  3  0  0  0  0  0  0
  190.5860  176.3290  136.8200 C   0  0  2  0  0  3  0  0  0  0  0  0
  189.9240  175.1390  136.5050 O   0  0  0  0  0  1  0  0  0  0  0  0
  187.4800  177.8780  139.1960 C   0  0  0  0  0  3  0  0  0  0  0  0
  188.2030  177.0720  137.0380 N   0  0  0  0  0  0  0  0  0  0  0  0
  186.0570  177.6690  145.1580 C   0  0  0  0  0  2  0  0  0  0  0  0
  184.9430  178.6280  145.5620 C   0  0  0  0  0  2  0  0  0  0  0  0
  185.8880  178.7450  142.8690 C   0  0  0  0  0  3  0  0  0  0  0  0
  184.5930  179.0150  143.0960 C   0  0  0  0  0  3  0  0  0  0  0  0
  183.9330  178.7340  144.4210 C   0  0  2  0  0  3  0  0  0  0  0  0
  186.8120  178.2360  143.9560 C   0  0  2  0  0  3  0  0  0  0  0  0
  183.0050  179.7170  144.7020 F   0  0  0  0  0  0  0  0  0  0  0  0
  2 11  1  0  0  0  0
  2  8  1  0  0  0  0
  3  2  2  0  0  0  0
  4  7  1  0  0  0  0
  5  1  1  6  0  0  0
  5 28  1  0  0  0  0
  5  3  1  0  0  0  0
  6  9  1  0  0  0  0
  7 11  2  0  0  0  0
  9  4  2  0  0  0  0
  9  3  1  0  0  0  0
 10  6  1  0  0  0  0
 10  1  2  0  0  0  0
 12 21  1  0  0  0  0
 14 13  1  0  0  0  0
 15 22  1  1  0  0  0
 15 18  1  0  0  0  0
 16 10  1  0  0  0  0
 17 22  1  0  0  0  0
 18 13  1  1  0  0  0
 18 16  1  0  0  0  0
 19 20  1  1  0  0  0
 19 15  1  0  0  0  0
 19 14  1  0  0  0  0
 21 16  2  0  0  0  0
 22 12  1  0  0  0  0
 23 24  1  0  0  0  0
 25 26  2  0  0  0  0
 26 27  1  0  0  0  0
 27 29  1  1  0  0  0
 27 24  1  0  0  0  0
 28 25  1  6  0  0  0
 28 23  1  0  0  0  0
M  END
>  <MODEL>
9

>  <REMARK>
 VINA RESULT:      -8.5      3.571      6.288
  Name = 
  2 active torsions:
  status: ('A' for Active; 'I' for Inactive)
    1  A    between atoms: C_12  and  C_27
    2  A    between atoms: C_16  and  C_21
                            x       y       z     vdW  Elec       q    Type
                         _______ _______ _______ _____ _____    ______ ____

>  <TORSDO>
F 2

$$$$
