=
 OpenBabel11062416573D

 62 68  0  0  1  0  0  0  0  0999 V2000
  188.4580  177.3600  136.5420 C   0  0  0  0  0  2  0  0  0  0  0  0
  189.7620  177.1600  140.4350 C   0  0  0  0  0  0  0  0  0  0  0  0
  189.9630  176.2220  138.1840 C   0  0  0  0  0  0  0  0  0  0  0  0
  190.4970  176.4460  139.3890 C   0  0  0  0  0  3  0  0  0  0  0  0
  189.7240  177.8390  142.8920 C   0  0  0  0  0  0  0  0  0  0  0  0
  190.3750  177.3340  141.7170 N   0  0  0  0  0  2  0  0  0  0  0  0
  188.5720  177.6170  140.1960 N   0  0  0  0  0  0  0  0  0  0  0  0
  190.4750  177.9750  144.1000 N   0  0  0  0  0  2  0  0  0  0  0  0
  187.9380  177.4490  138.9510 N   0  0  0  0  0  0  0  0  0  0  0  0
  188.4970  178.1360  142.8740 O   0  0  0  0  0  0  0  0  0  0  0  0
  188.5390  176.6360  137.8820 C   0  0  1  0  0  3  0  0  0  0  0  0
  192.1450  175.1640  137.5020 C   0  0  1  0  0  3  0  0  0  0  0  0
  191.1760  173.1600  136.6150 O   0  0  0  0  0  0  0  0  0  0  0  0
  190.1490  174.0110  137.0560 C   0  0  0  0  0  2  0  0  0  0  0  0
  190.7070  175.4060  137.1590 C   0  0  1  0  0  3  0  0  0  0  0  0
  192.3920  173.7480  137.0200 C   0  0  0  0  0  2  0  0  0  0  0  0
  193.0010  176.1040  136.7930 N   0  0  0  0  0  2  0  0  0  0  0  0
  194.3210  175.6720  136.9840 N   0  0  0  0  0  1  0  0  0  0  0  0
  186.5360  177.8270  138.8480 C   0  0  0  0  0  2  0  0  0  0  0  0
  184.8530  178.5330  140.4880 C   0  0  2  0  0  3  0  0  0  0  0  0
  186.1910  178.8310  139.9360 C   0  0  2  0  0  3  0  0  0  0  0  0
  185.0520  179.5610  139.5480 O   0  0  0  0  0  0  0  0  0  0  0  0
  184.7290  179.1190  141.8090 N   0  0  0  0  0  2  0  0  0  0  0  0
  183.6370  178.4260  142.4700 C   0  0  0  0  0  2  0  0  0  0  0  0
  183.8280  178.4910  143.9470 C   0  0  0  0  0  3  0  0  0  0  0  0
  184.0470  179.6600  144.5380 C   0  0  0  0  0  2  0  0  0  0  0  0
  189.8750  178.4500  145.3390 C   0  0  0  0  0  2  0  0  0  0  0  0
  187.7890  177.2450  145.9600 C   0  0  0  0  0  2  0  0  0  0  0  0
  187.1880  178.1020  146.9670 N   0  0  0  0  0  2  0  0  0  0  0  0
  189.6330  177.5480  147.8910 S   0  0  0  0  0  0  0  0  0  0  0  0
  187.8600  177.7780  148.2140 C   0  0  0  0  0  2  0  0  0  0  0  0
  189.2960  177.2880  146.1300 C   0  0  2  0  0  3  0  0  0  0  0  0
  186.8720  178.1330  134.7670 C   0  0  0  0  0  1  0  0  0  0  0  0
  187.0090  177.3910  136.0860 C   0  0  1  0  0  3  0  0  0  0  0  0
  186.4030  175.9930  136.0230 C   0  0  0  0  0  2  0  0  0  0  0  0
  186.1720  173.8680  134.6020 C   0  0  2  0  0  3  0  0  0  0  0  0
  187.4800  174.0700  135.0880 O   0  0  0  0  0  0  0  0  0  0  0  0
  186.7700  175.2360  134.7440 C   0  0  2  0  0  3  0  0  0  0  0  0
  185.2380  173.4560  135.7460 C   0  0  2  0  0  3  0  0  0  0  0  0
  182.7200  173.3630  136.1760 N   0  0  0  0  0  0  0  0  0  0  0  0
  182.4120  172.1200  136.9110 C   0  0  1  0  0  3  0  0  0  0  0  0
  181.2980  173.6830  136.4050 C   0  0  1  0  0  3  0  0  0  0  0  0
  183.8500  173.9940  135.5650 C   0  0  0  0  0  0  0  0  0  0  0  0
  180.9750  172.4380  137.1580 C   0  0  0  0  0  2  0  0  0  0  0  0
  183.6900  175.0420  134.8830 O   0  0  0  0  0  0  0  0  0  0  0  0
  182.0860  176.5460  138.9330 C   0  0  0  0  0  2  0  0  0  0  0  0
  181.1130  174.9330  137.2790 C   0  0  1  0  0  3  0  0  0  0  0  0
  181.7370  177.2870  136.4910 C   0  0  0  0  0  2  0  0  0  0  0  0
  182.0080  177.7190  137.9430 C   0  0  1  0  0  3  0  0  0  0  0  0
  182.2900  175.2080  138.2330 C   0  0  0  0  0  2  0  0  0  0  0  0
  180.7170  176.1440  136.4190 C   0  0  0  0  0  2  0  0  0  0  0  0
  180.9890  178.6580  138.3860 N   0  0  0  0  0  2  0  0  0  0  0  0
  181.5520  179.3990  139.5040 C   0  0  0  0  0  2  0  0  0  0  0  0
  180.4440  179.9800  140.3670 C   0  0  0  0  0  2  0  0  0  0  0  0
  179.9330  177.8750  141.4520 O   0  0  0  0  0  1  0  0  0  0  0  0
  180.1850  179.8310  142.8400 C   0  0  0  0  0  3  0  0  0  0  0  0
  180.2510  179.1860  141.5690 N   0  0  0  0  0  0  0  0  0  0  0  0
  179.8670  179.1850  143.8750 O   0  0  0  0  0  0  0  0  0  0  0  0
  183.7410  170.0750  136.3720 C   0  0  0  0  0  1  0  0  0  0  0  0
  182.5340  170.9130  135.9870 C   0  0  0  0  0  2  0  0  0  0  0  0
  185.7000  172.7780  137.9890 O   0  0  0  0  0  1  0  0  0  0  0  0
  185.8280  173.8400  137.0940 C   0  0  0  0  0  2  0  0  0  0  0  0
  2  6  1  0  0  0  0
  3  4  2  0  0  0  0
  4  2  1  0  0  0  0
  5  8  1  0  0  0  0
  6  5  1  0  0  0  0
  7  2  2  0  0  0  0
  8 27  1  0  0  0  0
  9  7  1  0  0  0  0
 10  5  2  0  0  0  0
 11  1  1  6  0  0  0
 11  3  1  0  0  0  0
 11  9  1  0  0  0  0
 12 17  1  6  0  0  0
 13 16  1  0  0  0  0
 13 14  1  0  0  0  0
 14 15  1  0  0  0  0
 15 12  1  0  0  0  0
 15  3  1  1  0  0  0
 16 12  1  0  0  0  0
 17 18  1  0  0  0  0
 19  9  1  0  0  0  0
 20 23  1  1  0  0  0
 21 19  1  6  0  0  0
 21 20  1  0  0  0  0
 22 21  1  0  0  0  0
 22 20  1  0  0  0  0
 23 24  1  0  0  0  0
 24 25  1  0  0  0  0
 25 26  2  0  0  0  0
 28 32  1  0  0  0  0
 28 29  1  0  0  0  0
 29 31  1  0  0  0  0
 30 31  1  0  0  0  0
 32 27  1  6  0  0  0
 32 30  1  0  0  0  0
 34 33  1  6  0  0  0
 34  1  1  0  0  0  0
 35 34  1  0  0  0  0
 36 38  1  0  0  0  0
 36 37  1  0  0  0  0
 36 39  1  1  0  0  0
 38 37  1  0  0  0  0
 38 35  1  1  0  0  0
 39 62  1  1  0  0  0
 40 42  1  0  0  0  0
 40 41  1  0  0  0  0
 41 60  1  6  0  0  0
 41 44  1  0  0  0  0
 42 44  1  1  0  0  0
 42 47  1  0  0  0  0
 43 39  1  0  0  0  0
 43 40  1  0  0  0  0
 45 43  2  0  0  0  0
 47 51  1  6  0  0  0
 47 50  1  0  0  0  0
 48 49  1  0  0  0  0
 49 52  1  1  0  0  0
 49 46  1  0  0  0  0
 50 46  1  0  0  0  0
 51 48  1  0  0  0  0
 52 53  1  0  0  0  0
 53 54  1  0  0  0  0
 54 57  1  0  0  0  0
 55 57  1  0  0  0  0
 56 58  2  0  0  0  0
 57 56  1  0  0  0  0
 60 59  1  0  0  0  0
 62 61  1  0  0  0  0
M  END
>  <MODEL>
1

>  <REMARK>
 VINA RESULT:      -6.7      0.000      0.000
  Name = 
  22 active torsions:
  status: ('A' for Active; 'I' for Inactive)
    1  A    between atoms: C_2  and  N_50
    2  A    between atoms: C_4  and  N_5
    3  A    between atoms: C_7  and  C_16
    4  A    between atoms: C_8  and  C_10
    5  A    between atoms: C_9  and  C_55
    6  A    between atoms: C_10  and  N_50
    7  A    between atoms: C_13  and  C_25
    8  A    between atoms: C_13  and  N_40
    9  A    between atoms: C_15  and  C_44
   10  A    between atoms: C_15  and  C_56
   11  A    between atoms: C_17  and  N_31
   12  A    between atoms: C_17  and  C_52
   13  A    between atoms: C_18  and  C_39
   14  A    between atoms: C_20  and  C_42
   15  A    between atoms: C_23  and  C_56
   16  A    between atoms: C_23  and  C_59
   17  A    between atoms: C_30  and  C_55
   18  A    between atoms: N_37  and  C_58
   19  A    between atoms: C_46  and  N_48
   20  A    between atoms: C_47  and  C_58
   21  A    between atoms: N_48  and  C_52
   22  A    between atoms: C_51  and  C_55
                            x       y       z     vdW  Elec       q    Type
                         _______ _______ _______ _____ _____    ______ ____

>  <TORSDO>
F 22

$$$$
=
 OpenBabel11062416573D

 62 68  0  0  1  0  0  0  0  0999 V2000
  189.0320  178.3560  139.9320 C   0  0  0  0  0  2  0  0  0  0  0  0
  191.9180  176.0910  138.0790 C   0  0  0  0  0  0  0  0  0  0  0  0
  189.5200  176.5190  138.3060 C   0  0  0  0  0  0  0  0  0  0  0  0
  190.5430  176.0590  137.5770 C   0  0  0  0  0  3  0  0  0  0  0  0
  194.3200  175.3330  137.6840 C   0  0  0  0  0  0  0  0  0  0  0  0
  192.9640  175.5460  137.2670 N   0  0  0  0  0  2  0  0  0  0  0  0
  192.1720  176.5970  139.2450 N   0  0  0  0  0  0  0  0  0  0  0  0
  195.2600  174.7980  136.7510 N   0  0  0  0  0  2  0  0  0  0  0  0
  191.1640  177.1250  140.0730 N   0  0  0  0  0  0  0  0  0  0  0  0
  194.6790  175.5860  138.8690 O   0  0  0  0  0  0  0  0  0  0  0  0
  189.7400  177.0230  139.7150 C   0  0  1  0  0  3  0  0  0  0  0  0
  187.8040  177.2530  136.6140 C   0  0  1  0  0  3  0  0  0  0  0  0
  186.8160  175.0910  136.3170 O   0  0  0  0  0  0  0  0  0  0  0  0
  187.8290  175.0040  137.2850 C   0  0  0  0  0  2  0  0  0  0  0  0
  188.1060  176.3920  137.8010 C   0  0  1  0  0  3  0  0  0  0  0  0
  186.8860  176.3890  135.7710 C   0  0  0  0  0  2  0  0  0  0  0  0
  187.1240  178.4710  137.0300 N   0  0  0  0  0  2  0  0  0  0  0  0
  188.0540  179.5140  136.9150 N   0  0  0  0  0  1  0  0  0  0  0  0
  191.5270  177.4910  141.4340 C   0  0  0  0  0  2  0  0  0  0  0  0
  191.2060  176.9340  143.8020 C   0  0  2  0  0  3  0  0  0  0  0  0
  190.8700  176.5380  142.4180 C   0  0  2  0  0  3  0  0  0  0  0  0
  191.8670  175.8730  143.1550 O   0  0  0  0  0  0  0  0  0  0  0  0
  190.2230  176.3890  144.7180 N   0  0  0  0  0  2  0  0  0  0  0  0
  188.9580  177.0240  144.3950 C   0  0  0  0  0  2  0  0  0  0  0  0
  188.5530  177.9250  145.5120 C   0  0  0  0  0  3  0  0  0  0  0  0
  187.9200  177.4290  146.5690 C   0  0  0  0  0  2  0  0  0  0  0  0
  196.6440  174.5240  137.1120 C   0  0  0  0  0  2  0  0  0  0  0  0
  196.1460  172.4050  135.9070 C   0  0  0  0  0  2  0  0  0  0  0  0
  196.1300  171.4090  136.9640 N   0  0  0  0  0  2  0  0  0  0  0  0
  198.5310  172.5690  137.1340 S   0  0  0  0  0  0  0  0  0  0  0  0
  197.5210  171.0590  137.1990 C   0  0  0  0  0  2  0  0  0  0  0  0
  197.2180  173.4290  136.2280 C   0  0  2  0  0  3  0  0  0  0  0  0
  188.0890  179.3440  142.0300 C   0  0  0  0  0  1  0  0  0  0  0  0
  188.0050  178.1930  141.0400 C   0  0  1  0  0  3  0  0  0  0  0  0
  186.5960  178.0150  140.4860 C   0  0  0  0  0  2  0  0  0  0  0  0
  184.4380  179.3870  140.7000 C   0  0  2  0  0  3  0  0  0  0  0  0
  184.8010  179.1310  139.3620 O   0  0  0  0  0  0  0  0  0  0  0  0
  185.8690  179.3420  140.2540 C   0  0  2  0  0  3  0  0  0  0  0  0
  183.9340  178.1030  141.3690 C   0  0  2  0  0  3  0  0  0  0  0  0
  181.4770  178.3390  140.7060 N   0  0  0  0  0  0  0  0  0  0  0  0
  180.9390  179.5710  141.3160 C   0  0  1  0  0  3  0  0  0  0  0  0
  180.1690  178.2750  140.0250 C   0  0  1  0  0  3  0  0  0  0  0  0
  182.6890  177.5780  140.7180 C   0  0  0  0  0  0  0  0  0  0  0  0
  179.6160  179.5220  140.6250 C   0  0  0  0  0  2  0  0  0  0  0  0
  182.7310  176.4550  140.1460 O   0  0  0  0  0  0  0  0  0  0  0  0
  179.1890  178.7920  136.2860 C   0  0  0  0  0  2  0  0  0  0  0  0
  180.2980  178.3930  138.4990 C   0  0  1  0  0  3  0  0  0  0  0  0
  180.6880  180.6230  137.3030 C   0  0  0  0  0  2  0  0  0  0  0  0
  179.9680  180.0950  136.0490 C   0  0  1  0  0  3  0  0  0  0  0  0
  178.9500  178.5190  137.7660 C   0  0  0  0  0  2  0  0  0  0  0  0
  181.3120  179.4860  138.1210 C   0  0  0  0  0  2  0  0  0  0  0  0
  180.9220  179.8990  134.9680 N   0  0  0  0  0  2  0  0  0  0  0  0
  180.9040  178.4810  134.6400 C   0  0  0  0  0  2  0  0  0  0  0  0
  182.3200  177.9310  134.5950 C   0  0  0  0  0  2  0  0  0  0  0  0
  183.7400  177.4510  136.4980 O   0  0  0  0  0  1  0  0  0  0  0  0
  181.8540  176.0010  136.1000 C   0  0  0  0  0  3  0  0  0  0  0  0
  182.6180  177.1680  135.7950 N   0  0  0  0  0  0  0  0  0  0  0  0
  182.1910  175.2400  137.0470 O   0  0  0  0  0  0  0  0  0  0  0  0
  179.8090  178.2270  143.0930 C   0  0  0  0  0  1  0  0  0  0  0  0
  180.7560  179.3820  142.8180 C   0  0  0  0  0  2  0  0  0  0  0  0
  184.2690  179.5460  143.2430 O   0  0  0  0  0  1  0  0  0  0  0  0
  183.7550  178.3050  142.8650 C   0  0  0  0  0  2  0  0  0  0  0  0
  1 34  1  0  0  0  0
  2  7  2  0  0  0  0
  3 11  1  0  0  0  0
  4  2  1  0  0  0  0
  4  3  2  0  0  0  0
  5 10  2  0  0  0  0
  6  5  1  0  0  0  0
  6  2  1  0  0  0  0
  7  9  1  0  0  0  0
  8 27  1  0  0  0  0
  8  5  1  0  0  0  0
  9 19  1  0  0  0  0
 11  1  1  6  0  0  0
 11  9  1  0  0  0  0
 12 17  1  1  0  0  0
 12 15  1  0  0  0  0
 13 14  1  0  0  0  0
 14 15  1  0  0  0  0
 15  3  1  6  0  0  0
 16 13  1  0  0  0  0
 16 12  1  0  0  0  0
 18 17  1  0  0  0  0
 20 23  1  1  0  0  0
 21 19  1  6  0  0  0
 21 22  1  0  0  0  0
 21 20  1  0  0  0  0
 22 20  1  0  0  0  0
 24 23  1  0  0  0  0
 24 25  1  0  0  0  0
 25 26  2  0  0  0  0
 28 32  1  0  0  0  0
 28 29  1  0  0  0  0
 29 31  1  0  0  0  0
 30 31  1  0  0  0  0
 32 27  1  1  0  0  0
 32 30  1  0  0  0  0
 34 33  1  1  0  0  0
 35 34  1  0  0  0  0
 36 39  1  1  0  0  0
 37 38  1  0  0  0  0
 37 36  1  0  0  0  0
 38 35  1  1  0  0  0
 38 36  1  0  0  0  0
 39 62  1  1  0  0  0
 40 43  1  0  0  0  0
 40 41  1  0  0  0  0
 41 60  1  1  0  0  0
 42 44  1  1  0  0  0
 42 40  1  0  0  0  0
 43 39  1  0  0  0  0
 44 41  1  0  0  0  0
 45 43  2  0  0  0  0
 46 50  1  0  0  0  0
 47 50  1  6  0  0  0
 47 42  1  0  0  0  0
 48 51  1  0  0  0  0
 49 52  1  6  0  0  0
 49 46  1  0  0  0  0
 49 48  1  0  0  0  0
 51 47  1  0  0  0  0
 53 52  1  0  0  0  0
 54 53  1  0  0  0  0
 54 57  1  0  0  0  0
 56 58  2  0  0  0  0
 57 56  1  0  0  0  0
 57 55  1  0  0  0  0
 60 59  1  0  0  0  0
 62 61  1  0  0  0  0
M  END
>  <MODEL>
2

>  <REMARK>
 VINA RESULT:      -6.1      3.080      7.413
  Name = 
  22 active torsions:
  status: ('A' for Active; 'I' for Inactive)
    1  A    between atoms: C_2  and  N_50
    2  A    between atoms: C_4  and  N_5
    3  A    between atoms: C_7  and  C_16
    4  A    between atoms: C_8  and  C_10
    5  A    between atoms: C_9  and  C_55
    6  A    between atoms: C_10  and  N_50
    7  A    between atoms: C_13  and  C_25
    8  A    between atoms: C_13  and  N_40
    9  A    between atoms: C_15  and  C_44
   10  A    between atoms: C_15  and  C_56
   11  A    between atoms: C_17  and  N_31
   12  A    between atoms: C_17  and  C_52
   13  A    between atoms: C_18  and  C_39
   14  A    between atoms: C_20  and  C_42
   15  A    between atoms: C_23  and  C_56
   16  A    between atoms: C_23  and  C_59
   17  A    between atoms: C_30  and  C_55
   18  A    between atoms: N_37  and  C_58
   19  A    between atoms: C_46  and  N_48
   20  A    between atoms: C_47  and  C_58
   21  A    between atoms: N_48  and  C_52
   22  A    between atoms: C_51  and  C_55
                            x       y       z     vdW  Elec       q    Type
                         _______ _______ _______ _____ _____    ______ ____

>  <TORSDO>
F 22

$$$$
=
 OpenBabel11062416573D

 62 68  0  0  1  0  0  0  0  0999 V2000
  187.0350  178.6230  139.7630 C   0  0  0  0  0  2  0  0  0  0  0  0
  190.7170  176.8740  139.2370 C   0  0  0  0  0  0  0  0  0  0  0  0
  188.3620  176.8670  138.5750 C   0  0  0  0  0  0  0  0  0  0  0  0
  189.6370  176.5820  138.2910 C   0  0  0  0  0  3  0  0  0  0  0  0
  193.1890  176.5540  139.7710 C   0  0  0  0  0  0  0  0  0  0  0  0
  192.0580  176.5090  138.8900 N   0  0  0  0  0  2  0  0  0  0  0  0
  190.4520  177.4460  140.3690 N   0  0  0  0  0  0  0  0  0  0  0  0
  194.4750  176.1760  139.2740 N   0  0  0  0  0  2  0  0  0  0  0  0
  189.1430  177.8020  140.7440 N   0  0  0  0  0  0  0  0  0  0  0  0
  193.0550  176.8960  140.9800 O   0  0  0  0  0  0  0  0  0  0  0  0
  187.9780  177.4360  139.9230 C   0  0  1  0  0  3  0  0  0  0  0  0
  187.4690  176.9620  136.2210 C   0  0  1  0  0  3  0  0  0  0  0  0
  186.6510  174.7110  136.1810 O   0  0  0  0  0  0  0  0  0  0  0  0
  187.1950  174.9790  137.4470 C   0  0  0  0  0  2  0  0  0  0  0  0
  187.2630  176.4740  137.6220 C   0  0  1  0  0  3  0  0  0  0  0  0
  186.9490  175.8230  135.3670 C   0  0  0  0  0  2  0  0  0  0  0  0
  186.6950  178.1740  135.9880 N   0  0  0  0  0  2  0  0  0  0  0  0
  187.4580  178.9820  135.1340 N   0  0  0  0  0  1  0  0  0  0  0  0
  188.9310  178.2600  142.1100 C   0  0  0  0  0  2  0  0  0  0  0  0
  189.6140  177.7640  144.4130 C   0  0  2  0  0  3  0  0  0  0  0  0
  190.0550  177.7630  143.0030 C   0  0  2  0  0  3  0  0  0  0  0  0
  190.4280  178.7870  143.8920 O   0  0  0  0  0  0  0  0  0  0  0  0
  190.4390  176.8520  145.1830 N   0  0  0  0  0  2  0  0  0  0  0  0
  190.0950  177.0590  146.5780 C   0  0  0  0  0  2  0  0  0  0  0  0
  191.2750  176.7440  147.4340 C   0  0  0  0  0  3  0  0  0  0  0  0
  192.1020  175.7630  147.0900 C   0  0  0  0  0  2  0  0  0  0  0  0
  195.6620  176.1660  140.1170 C   0  0  0  0  0  2  0  0  0  0  0  0
  197.8850  175.1050  139.7690 C   0  0  0  0  0  2  0  0  0  0  0  0
  198.1270  175.2800  138.3480 N   0  0  0  0  0  2  0  0  0  0  0  0
  195.7960  173.9830  138.5040 S   0  0  0  0  0  0  0  0  0  0  0  0
  197.4040  174.2060  137.6870 C   0  0  0  0  0  2  0  0  0  0  0  0
  196.4040  174.8470  139.9760 C   0  0  2  0  0  3  0  0  0  0  0  0
  185.9390  178.7900  142.0070 C   0  0  0  0  0  1  0  0  0  0  0  0
  185.7690  178.3570  140.5600 C   0  0  1  0  0  3  0  0  0  0  0  0
  184.5460  178.9950  139.9110 C   0  0  0  0  0  2  0  0  0  0  0  0
  183.1720  178.8440  137.7480 C   0  0  2  0  0  3  0  0  0  0  0  0
  183.8640  177.6530  138.0490 O   0  0  0  0  0  0  0  0  0  0  0  0
  184.5290  178.8470  138.3870 C   0  0  2  0  0  3  0  0  0  0  0  0
  182.0050  179.0410  138.7220 C   0  0  2  0  0  3  0  0  0  0  0  0
  180.2320  178.2150  137.0760 N   0  0  0  0  0  0  0  0  0  0  0  0
  180.3180  179.0240  135.8440 C   0  0  1  0  0  3  0  0  0  0  0  0
  179.2540  177.4160  136.3130 C   0  0  1  0  0  3  0  0  0  0  0  0
  180.8290  178.1770  138.3770 C   0  0  0  0  0  0  0  0  0  0  0  0
  179.3380  178.2170  135.0600 C   0  0  0  0  0  2  0  0  0  0  0  0
  180.3830  177.3820  139.2480 O   0  0  0  0  0  0  0  0  0  0  0  0
  181.6220  174.3340  135.9910 C   0  0  0  0  0  2  0  0  0  0  0  0
  179.7260  175.9710  136.0910 C   0  0  1  0  0  3  0  0  0  0  0  0
  180.0100  174.2890  137.9990 C   0  0  0  0  0  2  0  0  0  0  0  0
  181.1050  173.5510  137.2080 C   0  0  1  0  0  3  0  0  0  0  0  0
  181.2570  175.8120  136.0530 C   0  0  0  0  0  2  0  0  0  0  0  0
  179.0280  175.0130  137.0710 C   0  0  0  0  0  2  0  0  0  0  0  0
  180.6210  172.2490  136.7750 N   0  0  0  0  0  2  0  0  0  0  0  0
  181.7000  171.6240  136.0260 C   0  0  0  0  0  2  0  0  0  0  0  0
  182.7430  171.0560  136.9750 C   0  0  0  0  0  2  0  0  0  0  0  0
  184.6830  172.4130  137.4850 O   0  0  0  0  0  1  0  0  0  0  0  0
  184.6150  171.2960  135.3480 C   0  0  0  0  0  3  0  0  0  0  0  0
  184.0690  171.5500  136.6430 N   0  0  0  0  0  0  0  0  0  0  0  0
  185.6920  171.8420  134.9850 O   0  0  0  0  0  0  0  0  0  0  0  0
  180.5410  181.4450  135.2710 C   0  0  0  0  0  1  0  0  0  0  0  0
  179.7690  180.4260  136.0910 C   0  0  0  0  0  2  0  0  0  0  0  0
  180.4270  180.6430  139.5280 O   0  0  0  0  0  1  0  0  0  0  0  0
  181.6240  180.5100  138.8230 C   0  0  0  0  0  2  0  0  0  0  0  0
  1 34  1  0  0  0  0
  2  7  2  0  0  0  0
  3 11  1  0  0  0  0
  4  3  2  0  0  0  0
  4  2  1  0  0  0  0
  5 10  2  0  0  0  0
  6  2  1  0  0  0  0
  6  5  1  0  0  0  0
  7  9  1  0  0  0  0
  8  5  1  0  0  0  0
  8 27  1  0  0  0  0
  9 19  1  0  0  0  0
 11  1  1  6  0  0  0
 11  9  1  0  0  0  0
 12 17  1  1  0  0  0
 12 15  1  0  0  0  0
 13 14  1  0  0  0  0
 14 15  1  0  0  0  0
 15  3  1  1  0  0  0
 16 13  1  0  0  0  0
 16 12  1  0  0  0  0
 18 17  1  0  0  0  0
 20 23  1  1  0  0  0
 21 19  1  6  0  0  0
 21 22  1  0  0  0  0
 21 20  1  0  0  0  0
 22 20  1  0  0  0  0
 23 24  1  0  0  0  0
 24 25  1  0  0  0  0
 26 25  2  0  0  0  0
 28 32  1  0  0  0  0
 29 28  1  0  0  0  0
 30 32  1  0  0  0  0
 31 29  1  0  0  0  0
 31 30  1  0  0  0  0
 32 27  1  6  0  0  0
 34 33  1  1  0  0  0
 35 34  1  0  0  0  0
 36 37  1  0  0  0  0
 36 38  1  0  0  0  0
 36 39  1  1  0  0  0
 37 38  1  0  0  0  0
 38 35  1  1  0  0  0
 39 62  1  6  0  0  0
 40 43  1  0  0  0  0
 41 60  1  1  0  0  0
 41 40  1  0  0  0  0
 42 44  1  6  0  0  0
 42 40  1  0  0  0  0
 43 39  1  0  0  0  0
 43 45  2  0  0  0  0
 44 41  1  0  0  0  0
 46 50  1  0  0  0  0
 46 49  1  0  0  0  0
 47 50  1  1  0  0  0
 47 42  1  0  0  0  0
 47 51  1  0  0  0  0
 49 52  1  6  0  0  0
 49 48  1  0  0  0  0
 51 48  1  0  0  0  0
 53 52  1  0  0  0  0
 53 54  1  0  0  0  0
 56 57  1  0  0  0  0
 57 54  1  0  0  0  0
 57 55  1  0  0  0  0
 58 56  2  0  0  0  0
 59 60  1  0  0  0  0
 62 61  1  0  0  0  0
M  END
>  <MODEL>
3

>  <REMARK>
 VINA RESULT:      -5.8      2.873      7.227
  Name = 
  22 active torsions:
  status: ('A' for Active; 'I' for Inactive)
    1  A    between atoms: C_2  and  N_50
    2  A    between atoms: C_4  and  N_5
    3  A    between atoms: C_7  and  C_16
    4  A    between atoms: C_8  and  C_10
    5  A    between atoms: C_9  and  C_55
    6  A    between atoms: C_10  and  N_50
    7  A    between atoms: C_13  and  C_25
    8  A    between atoms: C_13  and  N_40
    9  A    between atoms: C_15  and  C_44
   10  A    between atoms: C_15  and  C_56
   11  A    between atoms: C_17  and  N_31
   12  A    between atoms: C_17  and  C_52
   13  A    between atoms: C_18  and  C_39
   14  A    between atoms: C_20  and  C_42
   15  A    between atoms: C_23  and  C_56
   16  A    between atoms: C_23  and  C_59
   17  A    between atoms: C_30  and  C_55
   18  A    between atoms: N_37  and  C_58
   19  A    between atoms: C_46  and  N_48
   20  A    between atoms: C_47  and  C_58
   21  A    between atoms: N_48  and  C_52
   22  A    between atoms: C_51  and  C_55
                            x       y       z     vdW  Elec       q    Type
                         _______ _______ _______ _____ _____    ______ ____

>  <TORSDO>
F 22

$$$$
=
 OpenBabel11062416573D

 62 68  0  0  1  0  0  0  0  0999 V2000
  189.4900  178.3520  140.5290 C   0  0  0  0  0  2  0  0  0  0  0  0
  192.2400  176.2480  138.3160 C   0  0  0  0  0  0  0  0  0  0  0  0
  189.8700  176.7660  138.6330 C   0  0  0  0  0  0  0  0  0  0  0  0
  190.8630  176.3690  137.8310 C   0  0  0  0  0  3  0  0  0  0  0  0
  194.5950  175.4310  137.7800 C   0  0  0  0  0  0  0  0  0  0  0  0
  193.2520  175.7790  137.4160 N   0  0  0  0  0  2  0  0  0  0  0  0
  192.5260  176.5530  139.5420 N   0  0  0  0  0  0  0  0  0  0  0  0
  195.5010  174.9960  136.7640 N   0  0  0  0  0  2  0  0  0  0  0  0
  191.5510  177.0010  140.4530 N   0  0  0  0  0  0  0  0  0  0  0  0
  194.9710  175.4770  138.9850 O   0  0  0  0  0  0  0  0  0  0  0  0
  190.1230  177.0330  140.1010 C   0  0  1  0  0  3  0  0  0  0  0  0
  188.2780  177.5190  136.8320 C   0  0  1  0  0  3  0  0  0  0  0  0
  186.9570  175.5200  136.8250 O   0  0  0  0  0  0  0  0  0  0  0  0
  187.9520  175.4100  137.8100 C   0  0  0  0  0  2  0  0  0  0  0  0
  188.4490  176.7950  138.1320 C   0  0  1  0  0  3  0  0  0  0  0  0
  187.2280  176.7020  136.1050 C   0  0  0  0  0  2  0  0  0  0  0  0
  187.8030  178.8750  137.0660 N   0  0  0  0  0  2  0  0  0  0  0  0
  186.7840  179.1130  136.1330 N   0  0  0  0  0  1  0  0  0  0  0  0
  191.9390  177.1320  141.8500 C   0  0  0  0  0  2  0  0  0  0  0  0
  191.1350  176.7960  144.1440 C   0  0  2  0  0  3  0  0  0  0  0  0
  190.9440  176.3970  142.7340 C   0  0  2  0  0  3  0  0  0  0  0  0
  191.6440  175.5840  143.6430 O   0  0  0  0  0  0  0  0  0  0  0  0
  189.9250  176.5240  144.8960 N   0  0  0  0  0  2  0  0  0  0  0  0
  189.7560  177.6280  145.8240 C   0  0  0  0  0  2  0  0  0  0  0  0
  188.6140  177.3390  146.7380 C   0  0  0  0  0  3  0  0  0  0  0  0
  188.6070  177.8370  147.9700 C   0  0  0  0  0  2  0  0  0  0  0  0
  196.8690  174.5950  137.0620 C   0  0  0  0  0  2  0  0  0  0  0  0
  196.0730  172.6960  135.6670 C   0  0  0  0  0  2  0  0  0  0  0  0
  195.7270  171.6780  136.6420 N   0  0  0  0  0  2  0  0  0  0  0  0
  198.2840  172.2760  137.1340 S   0  0  0  0  0  0  0  0  0  0  0  0
  196.9770  171.0220  136.9900 C   0  0  0  0  0  2  0  0  0  0  0  0
  197.2940  173.4440  136.1650 C   0  0  2  0  0  3  0  0  0  0  0  0
  188.6730  179.2160  142.7320 C   0  0  0  0  0  1  0  0  0  0  0  0
  188.5670  178.0970  141.7090 C   0  0  1  0  0  3  0  0  0  0  0  0
  187.1280  177.8610  141.2630 C   0  0  0  0  0  2  0  0  0  0  0  0
  185.0830  179.2590  140.5930 C   0  0  2  0  0  3  0  0  0  0  0  0
  185.6190  178.5130  139.5230 O   0  0  0  0  0  0  0  0  0  0  0  0
  186.5560  179.0200  140.4430 C   0  0  2  0  0  3  0  0  0  0  0  0
  184.3810  178.3290  141.5900 C   0  0  2  0  0  3  0  0  0  0  0  0
  181.8590  178.1200  141.2340 N   0  0  0  0  0  0  0  0  0  0  0  0
  181.1760  179.0960  142.1070 C   0  0  1  0  0  3  0  0  0  0  0  0
  180.5090  177.8770  140.6890 C   0  0  1  0  0  3  0  0  0  0  0  0
  183.1880  177.6500  140.9860 C   0  0  0  0  0  0  0  0  0  0  0  0
  179.8080  178.8660  141.5570 C   0  0  0  0  0  2  0  0  0  0  0  0
  183.3720  176.6650  140.2210 O   0  0  0  0  0  0  0  0  0  0  0  0
  178.9570  178.9560  137.2790 C   0  0  0  0  0  2  0  0  0  0  0  0
  180.4000  178.2540  139.2040 C   0  0  1  0  0  3  0  0  0  0  0  0
  180.5450  180.6680  138.3660 C   0  0  0  0  0  2  0  0  0  0  0  0
  179.6570  180.3200  137.1590 C   0  0  1  0  0  3  0  0  0  0  0  0
  178.9540  178.4290  138.7080 C   0  0  0  0  0  2  0  0  0  0  0  0
  181.3160  179.4460  138.8770 C   0  0  0  0  0  2  0  0  0  0  0  0
  180.4390  180.3550  135.9320 N   0  0  0  0  0  2  0  0  0  0  0  0
  180.9000  181.7240  135.7630 C   0  0  0  0  0  2  0  0  0  0  0  0
  179.7180  182.6660  135.6120 C   0  0  0  0  0  2  0  0  0  0  0  0
  178.9420  184.8160  136.4150 O   0  0  0  0  0  1  0  0  0  0  0  0
  181.1710  184.1210  137.0180 C   0  0  0  0  0  3  0  0  0  0  0  0
  179.9020  183.8630  136.4150 N   0  0  0  0  0  0  0  0  0  0  0  0
  181.4010  185.2220  137.5880 O   0  0  0  0  0  0  0  0  0  0  0  0
  179.8980  178.8460  144.2380 C   0  0  0  0  0  1  0  0  0  0  0  0
  181.2430  178.6430  143.5610 C   0  0  0  0  0  2  0  0  0  0  0  0
  184.5600  178.3960  143.9710 O   0  0  0  0  0  1  0  0  0  0  0  0
  184.0290  179.0700  142.8700 C   0  0  0  0  0  2  0  0  0  0  0  0
  1 34  1  0  0  0  0
  2  7  2  0  0  0  0
  3 11  1  0  0  0  0
  4  2  1  0  0  0  0
  4  3  2  0  0  0  0
  5 10  2  0  0  0  0
  6  5  1  0  0  0  0
  6  2  1  0  0  0  0
  7  9  1  0  0  0  0
  8 27  1  0  0  0  0
  8  5  1  0  0  0  0
  9 19  1  0  0  0  0
 11  9  1  0  0  0  0
 11  1  1  6  0  0  0
 12 17  1  1  0  0  0
 12 15  1  0  0  0  0
 13 14  1  0  0  0  0
 14 15  1  0  0  0  0
 15  3  1  6  0  0  0
 16 13  1  0  0  0  0
 16 12  1  0  0  0  0
 18 17  1  0  0  0  0
 20 23  1  1  0  0  0
 21 19  1  6  0  0  0
 21 22  1  0  0  0  0
 21 20  1  0  0  0  0
 22 20  1  0  0  0  0
 23 24  1  0  0  0  0
 24 25  1  0  0  0  0
 25 26  2  0  0  0  0
 28 32  1  0  0  0  0
 28 29  1  0  0  0  0
 29 31  1  0  0  0  0
 31 30  1  0  0  0  0
 32 27  1  1  0  0  0
 32 30  1  0  0  0  0
 34 33  1  1  0  0  0
 35 34  1  0  0  0  0
 36 39  1  1  0  0  0
 37 38  1  0  0  0  0
 37 36  1  0  0  0  0
 38 36  1  0  0  0  0
 38 35  1  1  0  0  0
 39 62  1  1  0  0  0
 40 41  1  0  0  0  0
 41 60  1  1  0  0  0
 42 40  1  0  0  0  0
 42 44  1  1  0  0  0
 43 40  1  0  0  0  0
 43 39  1  0  0  0  0
 44 41  1  0  0  0  0
 45 43  2  0  0  0  0
 46 50  1  0  0  0  0
 47 50  1  1  0  0  0
 47 42  1  0  0  0  0
 48 51  1  0  0  0  0
 49 52  1  6  0  0  0
 49 46  1  0  0  0  0
 49 48  1  0  0  0  0
 51 47  1  0  0  0  0
 53 52  1  0  0  0  0
 54 53  1  0  0  0  0
 54 57  1  0  0  0  0
 56 58  2  0  0  0  0
 57 55  1  0  0  0  0
 57 56  1  0  0  0  0
 60 59  1  0  0  0  0
 62 61  1  0  0  0  0
M  END
>  <MODEL>
4

>  <REMARK>
 VINA RESULT:      -5.8      3.622      7.562
  Name = 
  22 active torsions:
  status: ('A' for Active; 'I' for Inactive)
    1  A    between atoms: C_2  and  N_50
    2  A    between atoms: C_4  and  N_5
    3  A    between atoms: C_7  and  C_16
    4  A    between atoms: C_8  and  C_10
    5  A    between atoms: C_9  and  C_55
    6  A    between atoms: C_10  and  N_50
    7  A    between atoms: C_13  and  C_25
    8  A    between atoms: C_13  and  N_40
    9  A    between atoms: C_15  and  C_44
   10  A    between atoms: C_15  and  C_56
   11  A    between atoms: C_17  and  N_31
   12  A    between atoms: C_17  and  C_52
   13  A    between atoms: C_18  and  C_39
   14  A    between atoms: C_20  and  C_42
   15  A    between atoms: C_23  and  C_56
   16  A    between atoms: C_23  and  C_59
   17  A    between atoms: C_30  and  C_55
   18  A    between atoms: N_37  and  C_58
   19  A    between atoms: C_46  and  N_48
   20  A    between atoms: C_47  and  C_58
   21  A    between atoms: N_48  and  C_52
   22  A    between atoms: C_51  and  C_55
                            x       y       z     vdW  Elec       q    Type
                         _______ _______ _______ _____ _____    ______ ____

>  <TORSDO>
F 22

$$$$
=
 OpenBabel11062416573D

 62 68  0  0  1  0  0  0  0  0999 V2000
  187.4450  178.9020  142.3000 C   0  0  0  0  0  2  0  0  0  0  0  0
  190.1400  176.6240  140.1940 C   0  0  0  0  0  0  0  0  0  0  0  0
  189.7600  177.9590  142.2080 C   0  0  0  0  0  0  0  0  0  0  0  0
  190.4310  176.9870  141.5820 C   0  0  0  0  0  3  0  0  0  0  0  0
  190.8900  175.2610  138.1740 C   0  0  0  0  0  0  0  0  0  0  0  0
  190.9220  175.6000  139.5670 N   0  0  0  0  0  2  0  0  0  0  0  0
  189.1950  177.2320  139.5480 N   0  0  0  0  0  0  0  0  0  0  0  0
  191.7160  174.1970  137.6970 N   0  0  0  0  0  2  0  0  0  0  0  0
  188.4210  178.2520  140.1310 N   0  0  0  0  0  0  0  0  0  0  0  0
  190.1640  175.9080  137.3670 O   0  0  0  0  0  0  0  0  0  0  0  0
  188.7190  178.7760  141.4730 C   0  0  1  0  0  3  0  0  0  0  0  0
  190.0820  177.2580  144.6060 C   0  0  1  0  0  3  0  0  0  0  0  0
  192.0420  178.5820  144.9850 O   0  0  0  0  0  0  0  0  0  0  0  0
  191.5810  178.8080  143.6780 C   0  0  0  0  0  2  0  0  0  0  0  0
  190.1400  178.3720  143.6070 C   0  0  1  0  0  3  0  0  0  0  0  0
  191.2650  177.5320  145.5140 C   0  0  0  0  0  2  0  0  0  0  0  0
  188.8350  177.3140  145.3560 N   0  0  0  0  0  2  0  0  0  0  0  0
  189.1520  177.0230  146.6900 N   0  0  0  0  0  1  0  0  0  0  0  0
  187.5200  178.9990  139.2640 C   0  0  0  0  0  2  0  0  0  0  0  0
  187.7780  178.8760  136.8280 C   0  0  2  0  0  3  0  0  0  0  0  0
  187.2200  178.1910  138.0120 C   0  0  2  0  0  3  0  0  0  0  0  0
  186.4100  178.9540  137.1520 O   0  0  0  0  0  0  0  0  0  0  0  0
  187.9530  177.9220  135.7490 N   0  0  0  0  0  2  0  0  0  0  0  0
  186.7930  178.0550  134.8860 C   0  0  0  0  0  2  0  0  0  0  0  0
  186.2330  176.7040  134.5940 C   0  0  0  0  0  3  0  0  0  0  0  0
  186.7910  175.6240  135.1300 C   0  0  0  0  0  2  0  0  0  0  0  0
  191.7610  173.8180  136.2920 C   0  0  0  0  0  2  0  0  0  0  0  0
  193.6440  172.5870  135.2300 C   0  0  0  0  0  2  0  0  0  0  0  0
  194.2270  171.8400  136.3300 N   0  0  0  0  0  2  0  0  0  0  0  0
  194.2870  174.3940  137.1100 S   0  0  0  0  0  0  0  0  0  0  0  0
  195.1010  172.7720  137.0220 C   0  0  0  0  0  2  0  0  0  0  0  0
  193.1780  173.9310  135.7550 C   0  0  2  0  0  3  0  0  0  0  0  0
  186.8390  176.7110  143.3480 C   0  0  0  0  0  1  0  0  0  0  0  0
  186.6330  177.6260  142.1520 C   0  0  1  0  0  3  0  0  0  0  0  0
  185.1580  177.9180  141.9000 C   0  0  0  0  0  2  0  0  0  0  0  0
  183.5070  179.2750  140.4800 C   0  0  2  0  0  3  0  0  0  0  0  0
  184.3830  178.4860  139.7080 O   0  0  0  0  0  0  0  0  0  0  0  0
  184.9320  179.0370  140.8810 C   0  0  2  0  0  3  0  0  0  0  0  0
  182.4830  178.3870  141.1960 C   0  0  2  0  0  3  0  0  0  0  0  0
  181.1880  178.2960  138.9940 N   0  0  0  0  0  0  0  0  0  0  0  0
  181.3050  179.6060  138.3230 C   0  0  1  0  0  3  0  0  0  0  0  0
  180.5190  177.8760  137.7470 C   0  0  1  0  0  3  0  0  0  0  0  0
  181.5690  177.6890  140.2330 C   0  0  0  0  0  0  0  0  0  0  0  0
  180.6390  179.1900  137.0530 C   0  0  0  0  0  2  0  0  0  0  0  0
  181.1580  176.5320  140.5170 O   0  0  0  0  0  0  0  0  0  0  0  0
  183.4190  175.4720  136.7410 C   0  0  0  0  0  2  0  0  0  0  0  0
  181.2950  176.7760  137.0080 C   0  0  1  0  0  3  0  0  0  0  0  0
  181.3610  174.3440  137.8030 C   0  0  0  0  0  2  0  0  0  0  0  0
  182.7470  174.1550  137.1620 C   0  0  1  0  0  3  0  0  0  0  0  0
  182.7800  176.6870  137.4020 C   0  0  0  0  0  2  0  0  0  0  0  0
  180.5500  175.4340  137.0930 C   0  0  0  0  0  2  0  0  0  0  0  0
  182.6510  173.2720  136.0090 N   0  0  0  0  0  2  0  0  0  0  0  0
  183.9810  173.1890  135.4260 C   0  0  0  0  0  2  0  0  0  0  0  0
  184.7120  171.9620  135.9450 C   0  0  0  0  0  2  0  0  0  0  0  0
  185.9830  173.1360  137.6410 O   0  0  0  0  0  1  0  0  0  0  0  0
  187.2020  172.0270  135.8810 C   0  0  0  0  0  3  0  0  0  0  0  0
  185.9800  172.3320  136.5530 N   0  0  0  0  0  0  0  0  0  0  0  0
  188.3010  172.4710  136.3090 O   0  0  0  0  0  0  0  0  0  0  0  0
  179.1260  180.8280  138.3390 C   0  0  0  0  0  1  0  0  0  0  0  0
  180.4600  180.6490  139.0450 C   0  0  0  0  0  2  0  0  0  0  0  0
  180.8860  178.3240  142.9720 O   0  0  0  0  0  1  0  0  0  0  0  0
  181.7130  179.1790  142.2410 C   0  0  0  0  0  2  0  0  0  0  0  0
  2  4  1  0  0  0  0
  4  3  2  0  0  0  0
  5  6  1  0  0  0  0
  6  2  1  0  0  0  0
  7  9  1  0  0  0  0
  7  2  2  0  0  0  0
  8  5  1  0  0  0  0
  9 11  1  0  0  0  0
 10  5  2  0  0  0  0
 11  3  1  0  0  0  0
 11  1  1  1  0  0  0
 12 17  1  1  0  0  0
 12 16  1  0  0  0  0
 13 16  1  0  0  0  0
 14 13  1  0  0  0  0
 15  3  1  6  0  0  0
 15 14  1  0  0  0  0
 15 12  1  0  0  0  0
 17 18  1  0  0  0  0
 19  9  1  0  0  0  0
 20 23  1  6  0  0  0
 20 22  1  0  0  0  0
 20 21  1  0  0  0  0
 21 19  1  1  0  0  0
 22 21  1  0  0  0  0
 24 23  1  0  0  0  0
 25 24  1  0  0  0  0
 25 26  2  0  0  0  0
 27  8  1  0  0  0  0
 28 32  1  0  0  0  0
 28 29  1  0  0  0  0
 29 31  1  0  0  0  0
 31 30  1  0  0  0  0
 32 27  1  1  0  0  0
 32 30  1  0  0  0  0
 34  1  1  0  0  0  0
 34 33  1  1  0  0  0
 35 34  1  0  0  0  0
 36 38  1  0  0  0  0
 36 39  1  1  0  0  0
 37 36  1  0  0  0  0
 37 38  1  0  0  0  0
 38 35  1  1  0  0  0
 39 62  1  1  0  0  0
 40 43  1  0  0  0  0
 41 40  1  0  0  0  0
 41 60  1  1  0  0  0
 42 44  1  6  0  0  0
 42 40  1  0  0  0  0
 43 45  2  0  0  0  0
 43 39  1  0  0  0  0
 44 41  1  0  0  0  0
 46 49  1  0  0  0  0
 46 50  1  0  0  0  0
 47 51  1  1  0  0  0
 47 50  1  0  0  0  0
 47 42  1  0  0  0  0
 49 52  1  6  0  0  0
 49 48  1  0  0  0  0
 51 48  1  0  0  0  0
 53 54  1  0  0  0  0
 53 52  1  0  0  0  0
 54 57  1  0  0  0  0
 56 58  2  0  0  0  0
 56 57  1  0  0  0  0
 57 55  1  0  0  0  0
 59 60  1  0  0  0  0
 62 61  1  0  0  0  0
M  END
>  <MODEL>
5

>  <REMARK>
 VINA RESULT:      -5.6      2.502      7.937
  Name = 
  22 active torsions:
  status: ('A' for Active; 'I' for Inactive)
    1  A    between atoms: C_2  and  N_50
    2  A    between atoms: C_4  and  N_5
    3  A    between atoms: C_7  and  C_16
    4  A    between atoms: C_8  and  C_10
    5  A    between atoms: C_9  and  C_55
    6  A    between atoms: C_10  and  N_50
    7  A    between atoms: C_13  and  C_25
    8  A    between atoms: C_13  and  N_40
    9  A    between atoms: C_15  and  C_44
   10  A    between atoms: C_15  and  C_56
   11  A    between atoms: C_17  and  N_31
   12  A    between atoms: C_17  and  C_52
   13  A    between atoms: C_18  and  C_39
   14  A    between atoms: C_20  and  C_42
   15  A    between atoms: C_23  and  C_56
   16  A    between atoms: C_23  and  C_59
   17  A    between atoms: C_30  and  C_55
   18  A    between atoms: N_37  and  C_58
   19  A    between atoms: C_46  and  N_48
   20  A    between atoms: C_47  and  C_58
   21  A    between atoms: N_48  and  C_52
   22  A    between atoms: C_51  and  C_55
                            x       y       z     vdW  Elec       q    Type
                         _______ _______ _______ _____ _____    ______ ____

>  <TORSDO>
F 22

$$$$
=
 OpenBabel11062416573D

 62 68  0  0  1  0  0  0  0  0999 V2000
  187.3310  177.4600  136.6810 C   0  0  0  0  0  2  0  0  0  0  0  0
  191.0320  175.8700  135.8640 C   0  0  0  0  0  0  0  0  0  0  0  0
  188.6120  175.5650  135.6700 C   0  0  0  0  0  0  0  0  0  0  0  0
  189.8440  175.3030  135.2210 C   0  0  0  0  0  3  0  0  0  0  0  0
  193.5780  175.8360  135.9840 C   0  0  0  0  0  0  0  0  0  0  0  0
  192.3260  175.5190  135.3600 N   0  0  0  0  0  2  0  0  0  0  0  0
  190.9030  176.6680  136.8770 N   0  0  0  0  0  0  0  0  0  0  0  0
  194.7930  175.4340  135.3480 N   0  0  0  0  0  2  0  0  0  0  0  0
  189.6460  177.0190  137.4040 N   0  0  0  0  0  0  0  0  0  0  0  0
  193.6140  176.4360  137.0950 O   0  0  0  0  0  0  0  0  0  0  0  0
  188.4040  176.4030  136.9130 C   0  0  1  0  0  3  0  0  0  0  0  0
  186.6350  174.0370  135.9920 C   0  0  1  0  0  3  0  0  0  0  0  0
  185.1310  175.2930  134.6150 O   0  0  0  0  0  0  0  0  0  0  0  0
  186.3930  175.9080  134.5950 C   0  0  0  0  0  2  0  0  0  0  0  0
  187.4140  174.8970  135.0450 C   0  0  1  0  0  3  0  0  0  0  0  0
  185.1950  174.2640  135.5760 C   0  0  0  0  0  2  0  0  0  0  0  0
  187.0040  172.6380  135.8280 N   0  0  0  0  0  2  0  0  0  0  0  0
  188.0450  172.3850  136.7320 N   0  0  0  0  0  1  0  0  0  0  0  0
  189.6200  177.7630  138.6550 C   0  0  0  0  0  2  0  0  0  0  0  0
  189.5540  177.5520  141.0990 C   0  0  2  0  0  3  0  0  0  0  0  0
  189.6490  176.8000  139.8300 C   0  0  2  0  0  3  0  0  0  0  0  0
  190.7840  177.0650  140.6190 O   0  0  0  0  0  0  0  0  0  0  0  0
  189.0780  176.6760  142.1520 N   0  0  0  0  0  2  0  0  0  0  0  0
  190.2200  176.3900  143.0010 C   0  0  0  0  0  2  0  0  0  0  0  0
  190.0830  177.1350  144.2860 C   0  0  0  0  0  3  0  0  0  0  0  0
  189.0090  177.8840  144.5080 C   0  0  0  0  0  2  0  0  0  0  0  0
  196.1000  175.6910  135.9370 C   0  0  0  0  0  2  0  0  0  0  0  0
  196.1820  174.2800  137.9840 C   0  0  0  0  0  2  0  0  0  0  0  0
  197.1010  174.9940  138.8530 N   0  0  0  0  0  2  0  0  0  0  0  0
  198.4720  174.5460  136.6050 S   0  0  0  0  0  0  0  0  0  0  0  0
  198.4340  174.6100  138.4200 C   0  0  0  0  0  2  0  0  0  0  0  0
  196.6650  174.4220  136.5530 C   0  0  2  0  0  3  0  0  0  0  0  0
  186.5550  178.3370  138.8930 C   0  0  0  0  0  1  0  0  0  0  0  0
  186.2820  177.3460  137.7740 C   0  0  1  0  0  3  0  0  0  0  0  0
  184.8680  177.4810  137.2200 C   0  0  0  0  0  2  0  0  0  0  0  0
  182.4810  176.5530  137.3830 C   0  0  2  0  0  3  0  0  0  0  0  0
  183.0590  176.8180  138.6410 O   0  0  0  0  0  0  0  0  0  0  0  0
  183.9410  176.3420  137.6530 C   0  0  2  0  0  3  0  0  0  0  0  0
  182.1450  177.8650  136.6660 C   0  0  2  0  0  3  0  0  0  0  0  0
  180.3800  178.2260  138.4790 N   0  0  0  0  0  0  0  0  0  0  0  0
  179.8590  176.9100  138.9000 C   0  0  1  0  0  3  0  0  0  0  0  0
  179.5600  178.7470  139.5900 C   0  0  1  0  0  3  0  0  0  0  0  0
  181.2780  178.7600  137.5010 C   0  0  0  0  0  0  0  0  0  0  0  0
  179.0330  177.4240  140.0320 C   0  0  0  0  0  2  0  0  0  0  0  0
  181.3730  180.0080  137.3530 O   0  0  0  0  0  0  0  0  0  0  0  0
  180.5210  180.4800  142.9480 C   0  0  0  0  0  2  0  0  0  0  0  0
  180.4100  179.4090  140.6850 C   0  0  1  0  0  3  0  0  0  0  0  0
  181.4500  178.1000  142.6230 C   0  0  0  0  0  2  0  0  0  0  0  0
  181.3900  179.3490  143.5200 C   0  0  1  0  0  3  0  0  0  0  0  0
  179.5870  179.9940  141.8470 C   0  0  0  0  0  2  0  0  0  0  0  0
  181.5410  178.4700  141.1380 C   0  0  0  0  0  2  0  0  0  0  0  0
  182.7330  179.8520  143.7720 N   0  0  0  0  0  2  0  0  0  0  0  0
  183.6420  178.7270  143.6190 C   0  0  0  0  0  2  0  0  0  0  0  0
  185.0050  179.0650  144.2010 C   0  0  0  0  0  2  0  0  0  0  0  0
  183.8820  178.5370  146.2810 O   0  0  0  0  0  1  0  0  0  0  0  0
  186.2380  179.0480  146.3660 C   0  0  0  0  0  3  0  0  0  0  0  0
  185.0380  178.8070  145.6300 N   0  0  0  0  0  0  0  0  0  0  0  0
  186.2470  178.9790  147.6240 O   0  0  0  0  0  0  0  0  0  0  0  0
  179.5060  174.9870  137.3440 C   0  0  0  0  0  1  0  0  0  0  0  0
  178.9600  176.3250  137.8160 C   0  0  0  0  0  2  0  0  0  0  0  0
  182.0340  176.3980  134.7840 O   0  0  0  0  0  1  0  0  0  0  0  0
  181.5360  177.5960  135.2990 C   0  0  0  0  0  2  0  0  0  0  0  0
  1 34  1  0  0  0  0
  2  7  2  0  0  0  0
  3 11  1  0  0  0  0
  4  3  2  0  0  0  0
  4  2  1  0  0  0  0
  5 10  2  0  0  0  0
  6  2  1  0  0  0  0
  6  5  1  0  0  0  0
  7  9  1  0  0  0  0
  8 27  1  0  0  0  0
  8  5  1  0  0  0  0
  9 19  1  0  0  0  0
 11  1  1  6  0  0  0
 11  9  1  0  0  0  0
 12 17  1  6  0  0  0
 13 16  1  0  0  0  0
 14 13  1  0  0  0  0
 14 15  1  0  0  0  0
 15  3  1  1  0  0  0
 15 12  1  0  0  0  0
 16 12  1  0  0  0  0
 17 18  1  0  0  0  0
 20 23  1  1  0  0  0
 21 19  1  6  0  0  0
 21 22  1  0  0  0  0
 21 20  1  0  0  0  0
 22 20  1  0  0  0  0
 23 24  1  0  0  0  0
 24 25  1  0  0  0  0
 25 26  2  0  0  0  0
 28 29  1  0  0  0  0
 30 31  1  0  0  0  0
 31 29  1  0  0  0  0
 32 27  1  1  0  0  0
 32 30  1  0  0  0  0
 32 28  1  0  0  0  0
 34 33  1  1  0  0  0
 35 34  1  0  0  0  0
 36 39  1  6  0  0  0
 36 38  1  0  0  0  0
 36 37  1  0  0  0  0
 38 35  1  6  0  0  0
 38 37  1  0  0  0  0
 39 62  1  6  0  0  0
 39 43  1  0  0  0  0
 40 41  1  0  0  0  0
 40 42  1  0  0  0  0
 41 60  1  6  0  0  0
 41 44  1  0  0  0  0
 42 44  1  1  0  0  0
 42 47  1  0  0  0  0
 43 40  1  0  0  0  0
 45 43  2  0  0  0  0
 46 49  1  0  0  0  0
 47 51  1  1  0  0  0
 47 50  1  0  0  0  0
 48 49  1  0  0  0  0
 49 52  1  6  0  0  0
 50 46  1  0  0  0  0
 51 48  1  0  0  0  0
 53 52  1  0  0  0  0
 53 54  1  0  0  0  0
 54 57  1  0  0  0  0
 56 58  2  0  0  0  0
 57 55  1  0  0  0  0
 57 56  1  0  0  0  0
 59 60  1  0  0  0  0
 61 62  1  0  0  0  0
M  END
>  <MODEL>
6

>  <REMARK>
 VINA RESULT:      -5.3      3.139      6.836
  Name = 
  22 active torsions:
  status: ('A' for Active; 'I' for Inactive)
    1  A    between atoms: C_2  and  N_50
    2  A    between atoms: C_4  and  N_5
    3  A    between atoms: C_7  and  C_16
    4  A    between atoms: C_8  and  C_10
    5  A    between atoms: C_9  and  C_55
    6  A    between atoms: C_10  and  N_50
    7  A    between atoms: C_13  and  C_25
    8  A    between atoms: C_13  and  N_40
    9  A    between atoms: C_15  and  C_44
   10  A    between atoms: C_15  and  C_56
   11  A    between atoms: C_17  and  N_31
   12  A    between atoms: C_17  and  C_52
   13  A    between atoms: C_18  and  C_39
   14  A    between atoms: C_20  and  C_42
   15  A    between atoms: C_23  and  C_56
   16  A    between atoms: C_23  and  C_59
   17  A    between atoms: C_30  and  C_55
   18  A    between atoms: N_37  and  C_58
   19  A    between atoms: C_46  and  N_48
   20  A    between atoms: C_47  and  C_58
   21  A    between atoms: N_48  and  C_52
   22  A    between atoms: C_51  and  C_55
                            x       y       z     vdW  Elec       q    Type
                         _______ _______ _______ _____ _____    ______ ____

>  <TORSDO>
F 22

$$$$
=
 OpenBabel11062416573D

 62 68  0  0  1  0  0  0  0  0999 V2000
  191.0720  177.1720  137.5840 C   0  0  0  0  0  2  0  0  0  0  0  0
  188.9390  174.1790  135.7450 C   0  0  0  0  0  0  0  0  0  0  0  0
  191.1290  175.2390  135.9970 C   0  0  0  0  0  0  0  0  0  0  0  0
  190.4020  174.1590  135.6940 C   0  0  0  0  0  3  0  0  0  0  0  0
  186.7960  172.9150  135.1870 C   0  0  0  0  0  0  0  0  0  0  0  0
  188.2170  173.0010  135.3690 N   0  0  0  0  0  2  0  0  0  0  0  0
  188.3170  175.2540  136.1160 N   0  0  0  0  0  0  0  0  0  0  0  0
  186.2150  171.6600  134.8290 N   0  0  0  0  0  2  0  0  0  0  0  0
  188.9980  176.4320  136.4750 N   0  0  0  0  0  0  0  0  0  0  0  0
  186.0660  173.9380  135.3100 O   0  0  0  0  0  0  0  0  0  0  0  0
  190.4580  176.5530  136.3340 C   0  0  1  0  0  3  0  0  0  0  0  0
  193.3620  174.9730  137.1330 C   0  0  1  0  0  3  0  0  0  0  0  0
  194.3840  173.7180  135.3660 O   0  0  0  0  0  0  0  0  0  0  0  0
  193.0780  174.0670  134.9860 C   0  0  0  0  0  2  0  0  0  0  0  0
  192.6290  175.2160  135.8500 C   0  0  1  0  0  3  0  0  0  0  0  0
  194.5300  174.1000  136.7160 C   0  0  0  0  0  2  0  0  0  0  0  0
  193.8350  176.2300  137.6930 N   0  0  0  0  0  2  0  0  0  0  0  0
  194.0800  176.0000  139.0540 N   0  0  0  0  0  1  0  0  0  0  0  0
  188.2060  177.6340  136.6890 C   0  0  0  0  0  2  0  0  0  0  0  0
  185.7670  177.6910  136.9470 C   0  0  2  0  0  3  0  0  0  0  0  0
  187.0370  177.3260  137.6090 C   0  0  2  0  0  3  0  0  0  0  0  0
  186.3610  178.5210  137.9160 O   0  0  0  0  0  0  0  0  0  0  0  0
  184.6710  176.9630  137.5580 N   0  0  0  0  0  2  0  0  0  0  0  0
  183.4480  177.4940  136.9830 C   0  0  0  0  0  2  0  0  0  0  0  0
  182.3850  176.4500  137.0210 C   0  0  0  0  0  3  0  0  0  0  0  0
  181.1160  176.8000  137.1960 C   0  0  0  0  0  2  0  0  0  0  0  0
  184.7860  171.5040  134.5950 C   0  0  0  0  0  2  0  0  0  0  0  0
  183.4250  170.7880  136.5510 C   0  0  0  0  0  2  0  0  0  0  0  0
  182.1400  170.4480  135.9660 N   0  0  0  0  0  2  0  0  0  0  0  0
  182.5930  172.9760  135.2330 S   0  0  0  0  0  0  0  0  0  0  0  0
  181.4300  171.7060  135.8110 C   0  0  0  0  0  2  0  0  0  0  0  0
  183.9930  171.9790  135.8020 C   0  0  2  0  0  3  0  0  0  0  0  0
  190.6260  175.2070  139.0690 C   0  0  0  0  0  1  0  0  0  0  0  0
  190.3170  176.6710  138.8040 C   0  0  1  0  0  3  0  0  0  0  0  0
  190.5760  177.5430  140.0280 C   0  0  0  0  0  2  0  0  0  0  0  0
  189.0060  178.4600  141.8400 C   0  0  2  0  0  3  0  0  0  0  0  0
  188.3490  177.6390  140.9000 O   0  0  0  0  0  0  0  0  0  0  0  0
  189.3890  178.4390  140.3900 C   0  0  2  0  0  3  0  0  0  0  0  0
  189.9020  177.6120  142.7510 C   0  0  2  0  0  3  0  0  0  0  0  0
  189.3160  177.0930  145.1840 N   0  0  0  0  0  0  0  0  0  0  0  0
  190.2630  177.8110  146.0610 C   0  0  1  0  0  3  0  0  0  0  0  0
  188.6350  176.7420  146.4450 C   0  0  1  0  0  3  0  0  0  0  0  0
  189.1110  176.8680  143.7860 C   0  0  0  0  0  0  0  0  0  0  0  0
  189.5770  177.4700  147.3420 C   0  0  0  0  0  2  0  0  0  0  0  0
  188.2300  176.0510  143.4050 O   0  0  0  0  0  0  0  0  0  0  0  0
  185.7460  179.3380  146.7900 C   0  0  0  0  0  2  0  0  0  0  0  0
  187.2160  177.3250  146.5260 C   0  0  1  0  0  3  0  0  0  0  0  0
  185.9580  178.2140  144.4820 C   0  0  0  0  0  2  0  0  0  0  0  0
  185.1720  179.1930  145.3720 C   0  0  1  0  0  3  0  0  0  0  0  0
  187.1740  178.8190  146.8940 C   0  0  0  0  0  2  0  0  0  0  0  0
  186.4120  176.9750  145.2630 C   0  0  0  0  0  2  0  0  0  0  0  0
  183.7770  178.7870  145.4550 N   0  0  0  0  0  2  0  0  0  0  0  0
  183.2720  178.7220  144.0920 C   0  0  0  0  0  2  0  0  0  0  0  0
  181.8870  179.3420  144.0090 C   0  0  0  0  0  2  0  0  0  0  0  0
  182.0890  178.6370  141.7000 O   0  0  0  0  0  1  0  0  0  0  0  0
  180.1120  179.8600  142.3400 C   0  0  0  0  0  3  0  0  0  0  0  0
  181.3380  179.2060  142.6710 N   0  0  0  0  0  0  0  0  0  0  0  0
  179.6960  179.8850  141.1500 O   0  0  0  0  0  0  0  0  0  0  0  0
  191.6650  175.9160  146.8910 C   0  0  0  0  0  1  0  0  0  0  0  0
  191.6380  177.1530  146.0080 C   0  0  0  0  0  2  0  0  0  0  0  0
  190.5490  179.7670  143.5520 O   0  0  0  0  0  1  0  0  0  0  0  0
  191.0010  178.4590  143.3720 C   0  0  0  0  0  2  0  0  0  0  0  0
  1 34  1  0  0  0  0
  2  7  2  0  0  0  0
  3 11  1  0  0  0  0
  4  2  1  0  0  0  0
  4  3  2  0  0  0  0
  5 10  2  0  0  0  0
  5  6  1  0  0  0  0
  6  2  1  0  0  0  0
  7  9  1  0  0  0  0
  8  5  1  0  0  0  0
  9 19  1  0  0  0  0
 11  9  1  0  0  0  0
 11  1  1  1  0  0  0
 12 17  1  6  0  0  0
 13 16  1  0  0  0  0
 14 13  1  0  0  0  0
 14 15  1  0  0  0  0
 15  3  1  1  0  0  0
 15 12  1  0  0  0  0
 16 12  1  0  0  0  0
 17 18  1  0  0  0  0
 20 23  1  1  0  0  0
 20 21  1  0  0  0  0
 20 22  1  0  0  0  0
 21 19  1  6  0  0  0
 21 22  1  0  0  0  0
 24 25  1  0  0  0  0
 24 23  1  0  0  0  0
 25 26  2  0  0  0  0
 27  8  1  0  0  0  0
 29 28  1  0  0  0  0
 30 32  1  0  0  0  0
 30 31  1  0  0  0  0
 31 29  1  0  0  0  0
 32 27  1  6  0  0  0
 32 28  1  0  0  0  0
 34 33  1  1  0  0  0
 34 35  1  0  0  0  0
 36 39  1  1  0  0  0
 37 36  1  0  0  0  0
 38 35  1  1  0  0  0
 38 37  1  0  0  0  0
 38 36  1  0  0  0  0
 39 62  1  1  0  0  0
 39 43  1  0  0  0  0
 40 41  1  0  0  0  0
 40 42  1  0  0  0  0
 41 60  1  1  0  0  0
 41 44  1  0  0  0  0
 42 47  1  0  0  0  0
 42 44  1  1  0  0  0
 43 40  1  0  0  0  0
 45 43  2  0  0  0  0
 46 50  1  0  0  0  0
 47 51  1  6  0  0  0
 47 50  1  0  0  0  0
 48 51  1  0  0  0  0
 48 49  1  0  0  0  0
 49 52  1  1  0  0  0
 49 46  1  0  0  0  0
 53 52  1  0  0  0  0
 54 53  1  0  0  0  0
 55 57  1  0  0  0  0
 56 57  1  0  0  0  0
 57 54  1  0  0  0  0
 58 56  2  0  0  0  0
 60 59  1  0  0  0  0
 62 61  1  0  0  0  0
M  END
>  <MODEL>
7

>  <REMARK>
 VINA RESULT:      -5.1      2.827      8.492
  Name = 
  22 active torsions:
  status: ('A' for Active; 'I' for Inactive)
    1  A    between atoms: C_2  and  N_50
    2  A    between atoms: C_4  and  N_5
    3  A    between atoms: C_7  and  C_16
    4  A    between atoms: C_8  and  C_10
    5  A    between atoms: C_9  and  C_55
    6  A    between atoms: C_10  and  N_50
    7  A    between atoms: C_13  and  C_25
    8  A    between atoms: C_13  and  N_40
    9  A    between atoms: C_15  and  C_44
   10  A    between atoms: C_15  and  C_56
   11  A    between atoms: C_17  and  N_31
   12  A    between atoms: C_17  and  C_52
   13  A    between atoms: C_18  and  C_39
   14  A    between atoms: C_20  and  C_42
   15  A    between atoms: C_23  and  C_56
   16  A    between atoms: C_23  and  C_59
   17  A    between atoms: C_30  and  C_55
   18  A    between atoms: N_37  and  C_58
   19  A    between atoms: C_46  and  N_48
   20  A    between atoms: C_47  and  C_58
   21  A    between atoms: N_48  and  C_52
   22  A    between atoms: C_51  and  C_55
                            x       y       z     vdW  Elec       q    Type
                         _______ _______ _______ _____ _____    ______ ____

>  <TORSDO>
F 22

$$$$
=
 OpenBabel11062416573D

 62 68  0  0  1  0  0  0  0  0999 V2000
  191.7910  177.4410  139.7330 C   0  0  0  0  0  2  0  0  0  0  0  0
  189.8840  174.8120  137.2160 C   0  0  0  0  0  0  0  0  0  0  0  0
  192.0120  175.8650  137.8030 C   0  0  0  0  0  0  0  0  0  0  0  0
  191.3470  174.8460  137.2500 C   0  0  0  0  0  3  0  0  0  0  0  0
  187.8280  173.6200  136.2930 C   0  0  0  0  0  0  0  0  0  0  0  0
  189.2320  173.7100  136.5730 N   0  0  0  0  0  2  0  0  0  0  0  0
  189.1990  175.7720  137.7540 N   0  0  0  0  0  0  0  0  0  0  0  0
  187.3180  172.4440  135.6610 N   0  0  0  0  0  2  0  0  0  0  0  0
  189.8110  176.8750  138.3780 N   0  0  0  0  0  0  0  0  0  0  0  0
  187.0500  174.5750  136.5710 O   0  0  0  0  0  0  0  0  0  0  0  0
  191.2700  177.0650  138.3510 C   0  0  1  0  0  3  0  0  0  0  0  0
  194.1670  174.5740  137.6130 C   0  0  1  0  0  3  0  0  0  0  0  0
  195.2670  176.1490  136.1820 O   0  0  0  0  0  0  0  0  0  0  0  0
  193.9940  176.6400  136.5120 C   0  0  0  0  0  2  0  0  0  0  0  0
  193.5170  175.9170  137.7440 C   0  0  1  0  0  3  0  0  0  0  0  0
  195.3390  174.8350  136.6880 C   0  0  0  0  0  2  0  0  0  0  0  0
  194.6310  174.1060  138.9120 N   0  0  0  0  0  2  0  0  0  0  0  0
  195.8040  173.3750  138.6820 N   0  0  0  0  0  1  0  0  0  0  0  0
  188.9590  177.9860  138.7770 C   0  0  0  0  0  2  0  0  0  0  0  0
  186.8390  178.3730  137.6060 C   0  0  2  0  0  3  0  0  0  0  0  0
  187.4990  177.5830  138.6660 C   0  0  2  0  0  3  0  0  0  0  0  0
  186.6880  178.6930  138.9690 O   0  0  0  0  0  0  0  0  0  0  0  0
  185.6490  177.6800  137.1500 N   0  0  0  0  0  2  0  0  0  0  0  0
  185.7130  177.6560  135.7000 C   0  0  0  0  0  2  0  0  0  0  0  0
  184.4610  177.0560  135.1560 C   0  0  0  0  0  3  0  0  0  0  0  0
  183.5270  177.8350  134.6230 C   0  0  0  0  0  2  0  0  0  0  0  0
  185.9110  172.2940  135.3160 C   0  0  0  0  0  2  0  0  0  0  0  0
  184.3600  170.6850  136.4070 C   0  0  0  0  0  2  0  0  0  0  0  0
  183.0930  170.9290  135.7420 N   0  0  0  0  0  2  0  0  0  0  0  0
  183.8250  173.2970  136.7380 S   0  0  0  0  0  0  0  0  0  0  0  0
  182.5130  172.0850  136.4050 C   0  0  0  0  0  2  0  0  0  0  0  0
  185.0850  172.0090  136.5590 C   0  0  2  0  0  3  0  0  0  0  0  0
  190.2960  175.6150  140.5650 C   0  0  0  0  0  1  0  0  0  0  0  0
  190.7570  177.0480  140.7740 C   0  0  1  0  0  3  0  0  0  0  0  0
  191.2610  177.2870  142.1940 C   0  0  0  0  0  2  0  0  0  0  0  0
  190.0740  178.7110  143.9680 C   0  0  2  0  0  3  0  0  0  0  0  0
  189.5200  178.8560  142.6790 O   0  0  0  0  0  0  0  0  0  0  0  0
  190.9160  178.6790  142.7270 C   0  0  2  0  0  3  0  0  0  0  0  0
  189.7280  177.3330  144.5420 C   0  0  2  0  0  3  0  0  0  0  0  0
  187.2870  177.6980  145.2100 N   0  0  0  0  0  0  0  0  0  0  0  0
  187.2450  178.6320  146.3530 C   0  0  1  0  0  3  0  0  0  0  0  0
  185.8170  177.8270  145.2340 C   0  0  1  0  0  3  0  0  0  0  0  0
  188.2660  177.0190  144.4170 C   0  0  0  0  0  0  0  0  0  0  0  0
  185.7600  178.7770  146.3810 C   0  0  0  0  0  2  0  0  0  0  0  0
  187.9000  176.1590  143.5710 O   0  0  0  0  0  0  0  0  0  0  0  0
  184.5920  178.1870  141.5500 C   0  0  0  0  0  2  0  0  0  0  0  0
  185.2640  178.4610  143.9490 C   0  0  1  0  0  3  0  0  0  0  0  0
  182.7740  178.4590  143.3550 C   0  0  0  0  0  2  0  0  0  0  0  0
  183.1160  178.4890  141.8550 C   0  0  1  0  0  3  0  0  0  0  0  0
  185.3040  177.5290  142.7250 C   0  0  0  0  0  2  0  0  0  0  0  0
  183.8840  179.0910  144.2040 C   0  0  0  0  0  2  0  0  0  0  0  0
  182.7580  179.7790  141.2840 N   0  0  0  0  0  2  0  0  0  0  0  0
  182.9360  179.6690  139.8440 C   0  0  0  0  0  2  0  0  0  0  0  0
  181.5950  179.4600  139.1600 C   0  0  0  0  0  2  0  0  0  0  0  0
  181.4380  180.2280  136.8680 O   0  0  0  0  0  1  0  0  0  0  0  0
  181.2030  181.8620  138.6270 C   0  0  0  0  0  3  0  0  0  0  0  0
  181.3400  180.5100  138.1880 N   0  0  0  0  0  0  0  0  0  0  0  0
  181.1350  182.8050  137.7940 O   0  0  0  0  0  0  0  0  0  0  0  0
  188.9730  178.6300  148.1580 C   0  0  0  0  0  1  0  0  0  0  0  0
  187.7310  177.9380  147.6220 C   0  0  0  0  0  2  0  0  0  0  0  0
  191.5940  176.9700  145.9880 O   0  0  0  0  0  1  0  0  0  0  0  0
  190.2180  177.2030  145.9750 C   0  0  0  0  0  2  0  0  0  0  0  0
  1 34  1  0  0  0  0
  2  4  1  0  0  0  0
  2  7  2  0  0  0  0
  3 11  1  0  0  0  0
  4  3  2  0  0  0  0
  5 10  2  0  0  0  0
  5  6  1  0  0  0  0
  6  2  1  0  0  0  0
  7  9  1  0  0  0  0
  8  5  1  0  0  0  0
  9 19  1  0  0  0  0
 11  9  1  0  0  0  0
 11  1  1  1  0  0  0
 12 15  1  0  0  0  0
 12 17  1  1  0  0  0
 13 14  1  0  0  0  0
 13 16  1  0  0  0  0
 14 15  1  0  0  0  0
 15  3  1  6  0  0  0
 16 12  1  0  0  0  0
 18 17  1  0  0  0  0
 20 23  1  1  0  0  0
 20 21  1  0  0  0  0
 20 22  1  0  0  0  0
 21 19  1  6  0  0  0
 21 22  1  0  0  0  0
 24 23  1  0  0  0  0
 25 24  1  0  0  0  0
 26 25  2  0  0  0  0
 27  8  1  0  0  0  0
 28 32  1  0  0  0  0
 29 31  1  0  0  0  0
 29 28  1  0  0  0  0
 31 30  1  0  0  0  0
 32 27  1  6  0  0  0
 32 30  1  0  0  0  0
 34 33  1  1  0  0  0
 34 35  1  0  0  0  0
 36 39  1  6  0  0  0
 37 38  1  0  0  0  0
 37 36  1  0  0  0  0
 38 35  1  6  0  0  0
 38 36  1  0  0  0  0
 39 62  1  1  0  0  0
 40 42  1  0  0  0  0
 40 41  1  0  0  0  0
 41 44  1  0  0  0  0
 41 60  1  1  0  0  0
 42 44  1  1  0  0  0
 43 39  1  0  0  0  0
 43 40  1  0  0  0  0
 45 43  2  0  0  0  0
 46 49  1  0  0  0  0
 46 50  1  0  0  0  0
 47 50  1  6  0  0  0
 47 51  1  0  0  0  0
 47 42  1  0  0  0  0
 48 51  1  0  0  0  0
 49 52  1  1  0  0  0
 49 48  1  0  0  0  0
 53 52  1  0  0  0  0
 54 53  1  0  0  0  0
 55 57  1  0  0  0  0
 57 56  1  0  0  0  0
 57 54  1  0  0  0  0
 58 56  2  0  0  0  0
 60 59  1  0  0  0  0
 62 61  1  0  0  0  0
M  END
>  <MODEL>
8

>  <REMARK>
 VINA RESULT:      -4.9      2.904      8.152
  Name = 
  22 active torsions:
  status: ('A' for Active; 'I' for Inactive)
    1  A    between atoms: C_2  and  N_50
    2  A    between atoms: C_4  and  N_5
    3  A    between atoms: C_7  and  C_16
    4  A    between atoms: C_8  and  C_10
    5  A    between atoms: C_9  and  C_55
    6  A    between atoms: C_10  and  N_50
    7  A    between atoms: C_13  and  C_25
    8  A    between atoms: C_13  and  N_40
    9  A    between atoms: C_15  and  C_44
   10  A    between atoms: C_15  and  C_56
   11  A    between atoms: C_17  and  N_31
   12  A    between atoms: C_17  and  C_52
   13  A    between atoms: C_18  and  C_39
   14  A    between atoms: C_20  and  C_42
   15  A    between atoms: C_23  and  C_56
   16  A    between atoms: C_23  and  C_59
   17  A    between atoms: C_30  and  C_55
   18  A    between atoms: N_37  and  C_58
   19  A    between atoms: C_46  and  N_48
   20  A    between atoms: C_47  and  C_58
   21  A    between atoms: N_48  and  C_52
   22  A    between atoms: C_51  and  C_55
                            x       y       z     vdW  Elec       q    Type
                         _______ _______ _______ _____ _____    ______ ____

>  <TORSDO>
F 22

$$$$
=
 OpenBabel11062416573D

 62 68  0  0  1  0  0  0  0  0999 V2000
  187.5680  178.9740  142.1010 C   0  0  0  0  0  2  0  0  0  0  0  0
  190.2480  176.6110  140.0700 C   0  0  0  0  0  0  0  0  0  0  0  0
  189.8440  177.9360  142.0860 C   0  0  0  0  0  0  0  0  0  0  0  0
  190.4980  176.9440  141.4740 C   0  0  0  0  0  3  0  0  0  0  0  0
  191.0190  175.2420  138.0620 C   0  0  0  0  0  0  0  0  0  0  0  0
  191.0100  175.5620  139.4600 N   0  0  0  0  0  2  0  0  0  0  0  0
  189.3550  177.2660  139.3960 N   0  0  0  0  0  0  0  0  0  0  0  0
  191.8190  174.1500  137.6030 N   0  0  0  0  0  2  0  0  0  0  0  0
  188.6010  178.3110  139.9630 N   0  0  0  0  0  0  0  0  0  0  0  0
  190.3540  175.9290  137.2370 O   0  0  0  0  0  0  0  0  0  0  0  0
  188.8680  178.8050  141.3230 C   0  0  1  0  0  3  0  0  0  0  0  0
  190.5080  177.1460  144.3840 C   0  0  1  0  0  3  0  0  0  0  0  0
  192.0390  178.9360  144.8220 O   0  0  0  0  0  0  0  0  0  0  0  0
  191.4470  179.1360  143.5650 C   0  0  0  0  0  2  0  0  0  0  0  0
  190.1860  178.3140  143.5040 C   0  0  1  0  0  3  0  0  0  0  0  0
  191.6240  177.6650  145.2700 C   0  0  0  0  0  2  0  0  0  0  0  0
  189.3480  176.7780  145.1840 N   0  0  0  0  0  2  0  0  0  0  0  0
  189.1020  177.8470  146.0570 N   0  0  0  0  0  1  0  0  0  0  0  0
  187.7680  179.1050  139.0720 C   0  0  0  0  0  2  0  0  0  0  0  0
  188.3510  179.0040  136.6910 C   0  0  2  0  0  3  0  0  0  0  0  0
  187.5590  178.3640  137.7620 C   0  0  2  0  0  3  0  0  0  0  0  0
  186.9690  179.2340  136.8260 O   0  0  0  0  0  0  0  0  0  0  0  0
  188.5690  178.0580  135.6130 N   0  0  0  0  0  2  0  0  0  0  0  0
  187.2780  177.8430  134.9840 C   0  0  0  0  0  2  0  0  0  0  0  0
  186.9730  176.3840  134.9600 C   0  0  0  0  0  3  0  0  0  0  0  0
  187.9110  175.5150  134.5990 C   0  0  0  0  0  2  0  0  0  0  0  0
  191.9040  173.7870  136.1960 C   0  0  0  0  0  2  0  0  0  0  0  0
  194.1130  172.6640  136.4150 C   0  0  0  0  0  2  0  0  0  0  0  0
  194.6220  173.1590  137.6810 N   0  0  0  0  0  2  0  0  0  0  0  0
  194.1300  175.3440  136.2250 S   0  0  0  0  0  0  0  0  0  0  0  0
  195.2050  174.4590  137.3930 C   0  0  0  0  0  2  0  0  0  0  0  0
  193.3510  173.7840  135.7320 C   0  0  2  0  0  3  0  0  0  0  0  0
  187.0440  176.7930  143.2120 C   0  0  0  0  0  1  0  0  0  0  0  0
  186.7690  177.6850  142.0120 C   0  0  1  0  0  3  0  0  0  0  0  0
  185.2790  177.9520  141.8260 C   0  0  0  0  0  2  0  0  0  0  0  0
  183.6020  179.1360  140.2860 C   0  0  2  0  0  3  0  0  0  0  0  0
  184.6800  178.5540  139.5880 O   0  0  0  0  0  0  0  0  0  0  0  0
  184.9920  179.0950  140.8500 C   0  0  2  0  0  3  0  0  0  0  0  0
  182.6630  178.0470  140.8180 C   0  0  2  0  0  3  0  0  0  0  0  0
  181.7280  177.9720  138.4400 N   0  0  0  0  0  0  0  0  0  0  0  0
  181.9190  179.2960  137.8150 C   0  0  1  0  0  3  0  0  0  0  0  0
  181.2690  177.5630  137.0980 C   0  0  1  0  0  3  0  0  0  0  0  0
  181.9250  177.3500  139.7140 C   0  0  0  0  0  0  0  0  0  0  0  0
  181.4670  178.8920  136.4510 C   0  0  0  0  0  2  0  0  0  0  0  0
  181.5000  176.1800  139.9120 O   0  0  0  0  0  0  0  0  0  0  0  0
  184.2800  175.1380  136.5920 C   0  0  0  0  0  2  0  0  0  0  0  0
  182.1740  176.4920  136.4720 C   0  0  1  0  0  3  0  0  0  0  0  0
  182.0160  174.0090  137.0750 C   0  0  0  0  0  2  0  0  0  0  0  0
  183.5080  173.8180  136.7500 C   0  0  1  0  0  3  0  0  0  0  0  0
  183.5290  176.3240  137.1830 C   0  0  0  0  0  2  0  0  0  0  0  0
  181.4060  175.1730  136.2850 C   0  0  0  0  0  2  0  0  0  0  0  0
  183.6610  173.0210  135.5420 N   0  0  0  0  0  2  0  0  0  0  0  0
  183.6130  171.6250  135.9470 C   0  0  0  0  0  2  0  0  0  0  0  0
  182.5590  170.8770  135.1470 C   0  0  0  0  0  2  0  0  0  0  0  0
  181.3290  170.8620  137.2340 O   0  0  0  0  0  1  0  0  0  0  0  0
  180.1040  170.4530  135.1970 C   0  0  0  0  0  3  0  0  0  0  0  0
  181.3070  170.8020  135.8820 N   0  0  0  0  0  0  0  0  0  0  0  0
  179.0400  170.2320  135.8350 O   0  0  0  0  0  0  0  0  0  0  0  0
  181.5820  181.6910  138.4410 C   0  0  0  0  0  1  0  0  0  0  0  0
  180.9500  180.3100  138.4130 C   0  0  0  0  0  2  0  0  0  0  0  0
  180.8940  179.5790  141.2980 O   0  0  0  0  0  1  0  0  0  0  0  0
  181.7200  178.6090  141.8690 C   0  0  0  0  0  2  0  0  0  0  0  0
  2  4  1  0  0  0  0
  4  3  2  0  0  0  0
  5  6  1  0  0  0  0
  6  2  1  0  0  0  0
  7  9  1  0  0  0  0
  7  2  2  0  0  0  0
  8  5  1  0  0  0  0
  9 11  1  0  0  0  0
 10  5  2  0  0  0  0
 11  3  1  0  0  0  0
 11  1  1  1  0  0  0
 12 17  1  1  0  0  0
 12 16  1  0  0  0  0
 13 16  1  0  0  0  0
 14 13  1  0  0  0  0
 15  3  1  6  0  0  0
 15 14  1  0  0  0  0
 15 12  1  0  0  0  0
 17 18  1  0  0  0  0
 19  9  1  0  0  0  0
 20 23  1  6  0  0  0
 20 22  1  0  0  0  0
 20 21  1  0  0  0  0
 21 19  1  1  0  0  0
 22 21  1  0  0  0  0
 24 23  1  0  0  0  0
 25 24  1  0  0  0  0
 26 25  2  0  0  0  0
 27  8  1  0  0  0  0
 28 29  1  0  0  0  0
 30 31  1  0  0  0  0
 31 29  1  0  0  0  0
 32 27  1  1  0  0  0
 32 30  1  0  0  0  0
 32 28  1  0  0  0  0
 34  1  1  0  0  0  0
 34 33  1  1  0  0  0
 35 34  1  0  0  0  0
 36 39  1  1  0  0  0
 36 38  1  0  0  0  0
 37 36  1  0  0  0  0
 37 38  1  0  0  0  0
 38 35  1  1  0  0  0
 39 62  1  1  0  0  0
 40 43  1  0  0  0  0
 41 60  1  1  0  0  0
 41 40  1  0  0  0  0
 42 44  1  6  0  0  0
 42 40  1  0  0  0  0
 43 45  2  0  0  0  0
 43 39  1  0  0  0  0
 44 41  1  0  0  0  0
 46 49  1  0  0  0  0
 46 50  1  0  0  0  0
 47 51  1  1  0  0  0
 47 42  1  0  0  0  0
 47 50  1  0  0  0  0
 49 52  1  6  0  0  0
 49 48  1  0  0  0  0
 51 48  1  0  0  0  0
 52 53  1  0  0  0  0
 54 57  1  0  0  0  0
 54 53  1  0  0  0  0
 56 58  2  0  0  0  0
 56 57  1  0  0  0  0
 57 55  1  0  0  0  0
 60 59  1  0  0  0  0
 61 62  1  0  0  0  0
M  END
>  <MODEL>
9

>  <REMARK>
 VINA RESULT:      -4.8      2.745      7.819
  Name = 
  22 active torsions:
  status: ('A' for Active; 'I' for Inactive)
    1  A    between atoms: C_2  and  N_50
    2  A    between atoms: C_4  and  N_5
    3  A    between atoms: C_7  and  C_16
    4  A    between atoms: C_8  and  C_10
    5  A    between atoms: C_9  and  C_55
    6  A    between atoms: C_10  and  N_50
    7  A    between atoms: C_13  and  C_25
    8  A    between atoms: C_13  and  N_40
    9  A    between atoms: C_15  and  C_44
   10  A    between atoms: C_15  and  C_56
   11  A    between atoms: C_17  and  N_31
   12  A    between atoms: C_17  and  C_52
   13  A    between atoms: C_18  and  C_39
   14  A    between atoms: C_20  and  C_42
   15  A    between atoms: C_23  and  C_56
   16  A    between atoms: C_23  and  C_59
   17  A    between atoms: C_30  and  C_55
   18  A    between atoms: N_37  and  C_58
   19  A    between atoms: C_46  and  N_48
   20  A    between atoms: C_47  and  C_58
   21  A    between atoms: N_48  and  C_52
   22  A    between atoms: C_51  and  C_55
                            x       y       z     vdW  Elec       q    Type
                         _______ _______ _______ _____ _____    ______ ____

>  <TORSDO>
F 22

$$$$
