=
 OpenBabel11062415433D

 34 37  0  0  1  0  0  0  0  0999 V2000
  184.7630  178.3910  145.9190 C   0  0  0  0  0  3  0  0  0  0  0  0
  187.8380  177.9670  145.9510 C   0  0  0  0  0  0  0  0  0  0  0  0
  185.1580  178.0320  147.3110 C   0  0  0  0  0  2  0  0  0  0  0  0
  186.9650  177.7800  144.9460 C   0  0  0  0  0  3  0  0  0  0  0  0
  187.5260  178.7580  147.1660 C   0  0  0  0  0  3  0  0  0  0  0  0
  185.5660  178.2530  144.8620 C   0  0  0  0  0  0  0  0  0  0  0  0
  186.3360  178.8260  147.7610 C   0  0  0  0  0  3  0  0  0  0  0  0
  191.8940  175.7400  147.6780 O   0  0  0  0  0  0  0  0  0  0  0  0
  191.2440  176.2640  146.7370 C   0  0  0  0  0  0  0  0  0  0  0  0
  189.2020  177.4190  145.7850 C   0  0  0  0  0  0  0  0  0  0  0  0
  190.8710  177.7780  142.2410 C   0  0  1  0  0  3  0  0  0  0  0  0
  191.8520  176.4010  145.4470 N   0  0  0  0  0  0  0  0  0  0  0  0
  191.2120  176.9690  144.4760 C   0  0  0  0  0  0  0  0  0  0  0  0
  189.2690  178.1610  143.0740 S   0  0  0  0  0  0  0  0  0  0  0  0
  189.8280  176.7220  146.9780 C   0  0  0  0  0  2  0  0  0  0  0  0
  189.8770  177.5000  144.6220 C   0  0  0  0  0  0  0  0  0  0  0  0
  191.7630  177.1110  143.1830 N   0  0  0  0  0  2  0  0  0  0  0  0
  190.5770  176.6920  140.8160 S   0  0  0  0  0  0  0  0  0  0  0  0
  188.9680  177.4570  140.4620 C   0  0  0  0  0  2  0  0  0  0  0  0
  189.0770  178.4390  138.9390 S   0  0  0  0  0  0  0  0  0  0  0  0
  187.3380  178.3360  138.6580 N   0  0  0  0  0  1  0  0  0  0  0  0
  185.0000  178.5320  143.5110 C   0  0  0  0  0  2  0  0  0  0  0  0
  183.7720  179.3100  143.6210 N   0  0  0  0  0  2  0  0  0  0  0  0
  181.3580  178.8120  143.7990 C   0  0  0  0  0  3  0  0  0  0  0  0
  182.5270  178.9240  143.0310 C   0  0  0  0  0  0  0  0  0  0  0  0
  180.1540  178.4320  143.1990 C   0  0  0  0  0  3  0  0  0  0  0  0
  180.1120  178.1660  141.8280 C   0  0  0  0  0  3  0  0  0  0  0  0
  181.2710  178.2850  141.0560 C   0  0  0  0  0  0  0  0  0  0  0  0
  182.4770  178.6590  141.6590 C   0  0  0  0  0  3  0  0  0  0  0  0
  181.2200  177.9350  139.3020 S   0  0  0  0  0  0  0  0  0  0  0  0
  182.0790  179.4760  138.8550 C   0  0  0  0  0  2  0  0  0  0  0  0
  184.4590  180.1930  139.0360 O   0  0  0  0  0  1  0  0  0  0  0  0
  183.9280  178.1410  138.1640 O   0  0  0  0  0  0  0  0  0  0  0  0
  183.5350  179.2240  138.6710 C   0  0  0  0  0  0  0  0  0  0  0  0
  1  3  1  0  0  0  0
  2  5  1  0  0  0  0
  3  7  1  0  0  0  0
  4  2  2  0  0  0  0
  5  7  2  0  0  0  0
  6  4  1  0  0  0  0
  6  1  2  0  0  0  0
  9 15  1  0  0  0  0
  9  8  2  0  0  0  0
 10  2  1  0  0  0  0
 10 15  1  0  0  0  0
 11 18  1  6  0  0  0
 11 14  1  0  0  0  0
 11 17  1  0  0  0  0
 12  9  1  0  0  0  0
 13 16  1  0  0  0  0
 13 12  2  0  0  0  0
 14 16  1  0  0  0  0
 16 10  2  0  0  0  0
 17 13  1  0  0  0  0
 19 18  1  0  0  0  0
 20 19  1  0  0  0  0
 21 20  1  0  0  0  0
 22 23  1  0  0  0  0
 22  6  1  0  0  0  0
 25 23  1  0  0  0  0
 25 24  2  0  0  0  0
 26 24  1  0  0  0  0
 27 26  2  0  0  0  0
 28 29  2  0  0  0  0
 28 27  1  0  0  0  0
 29 25  1  0  0  0  0
 30 28  1  0  0  0  0
 31 30  1  0  0  0  0
 33 34  2  0  0  0  0
 34 31  1  0  0  0  0
 34 32  1  0  0  0  0
M  END
>  <MODEL>
1

>  <REMARK>
 VINA RESULT:      -8.6      0.000      0.000
  Name = 
  10 active torsions:
  status: ('A' for Active; 'I' for Inactive)
    1  A    between atoms: S_4  and  C_17
    2  A    between atoms: C_6  and  N_18
    3  A    between atoms: C_7  and  C_11
    4  A    between atoms: C_9  and  S_22
    5  A    between atoms: C_13  and  S_23
    6  A    between atoms: C_13  and  C_27
    7  A    between atoms: C_17  and  S_22
    8  A    between atoms: N_18  and  C_21
    9  A    between atoms: C_21  and  C_32
   10  A    between atoms: S_23  and  C_28
                            x       y       z     vdW  Elec       q    Type
                         _______ _______ _______ _____ _____    ______ ____

>  <TORSDO>
F 10

$$$$
=
 OpenBabel11062415433D

 34 37  0  0  1  0  0  0  0  0999 V2000
  190.1030  177.5120  142.7550 C   0  0  0  0  0  3  0  0  0  0  0  0
  190.3580  176.9310  139.7160 C   0  0  0  0  0  0  0  0  0  0  0  0
  191.4290  176.8690  142.5240 C   0  0  0  0  0  2  0  0  0  0  0  0
  189.2540  176.9890  140.4800 C   0  0  0  0  0  3  0  0  0  0  0  0
  191.6690  177.4850  140.1330 C   0  0  0  0  0  3  0  0  0  0  0  0
  189.1270  177.5420  141.8460 C   0  0  0  0  0  0  0  0  0  0  0  0
  192.1440  177.4980  141.3770 C   0  0  0  0  0  3  0  0  0  0  0  0
  191.7590  173.8560  136.1140 O   0  0  0  0  0  0  0  0  0  0  0  0
  190.9920  174.7460  136.5620 C   0  0  0  0  0  0  0  0  0  0  0  0
  190.2240  176.3560  138.3600 C   0  0  0  0  0  0  0  0  0  0  0  0
  187.4010  177.8250  136.0480 C   0  0  1  0  0  3  0  0  0  0  0  0
  189.9670  175.2870  135.7210 N   0  0  0  0  0  0  0  0  0  0  0  0
  189.1900  176.2280  136.1530 C   0  0  0  0  0  0  0  0  0  0  0  0
  188.0420  178.0270  137.7670 S   0  0  0  0  0  0  0  0  0  0  0  0
  191.1520  175.2150  137.9860 C   0  0  0  0  0  2  0  0  0  0  0  0
  189.3050  176.7920  137.4770 C   0  0  0  0  0  0  0  0  0  0  0  0
  188.1540  176.7790  135.3660 N   0  0  0  0  0  2  0  0  0  0  0  0
  185.6440  177.3670  136.0990 S   0  0  0  0  0  0  0  0  0  0  0  0
  185.5250  177.7030  137.8800 C   0  0  0  0  0  2  0  0  0  0  0  0
  183.8730  178.3430  138.2750 S   0  0  0  0  0  0  0  0  0  0  0  0
  184.5350  179.7290  139.1440 N   0  0  0  0  0  1  0  0  0  0  0  0
  187.8080  178.1070  142.2530 C   0  0  0  0  0  2  0  0  0  0  0  0
  187.1760  177.2590  143.2570 N   0  0  0  0  0  2  0  0  0  0  0  0
  185.6510  178.1720  144.9740 C   0  0  0  0  0  3  0  0  0  0  0  0
  186.9090  177.6760  144.5990 C   0  0  0  0  0  0  0  0  0  0  0  0
  185.4150  178.5740  146.2920 C   0  0  0  0  0  3  0  0  0  0  0  0
  186.4340  178.4780  147.2430 C   0  0  0  0  0  3  0  0  0  0  0  0
  187.6870  177.9760  146.8780 C   0  0  0  0  0  0  0  0  0  0  0  0
  187.9230  177.5800  145.5570 C   0  0  0  0  0  3  0  0  0  0  0  0
  188.9960  177.8620  148.0920 S   0  0  0  0  0  0  0  0  0  0  0  0
  189.8620  176.5340  147.1990 C   0  0  0  0  0  2  0  0  0  0  0  0
  192.0540  177.1210  148.2310 O   0  0  0  0  0  1  0  0  0  0  0  0
  191.8690  176.8790  145.9590 O   0  0  0  0  0  0  0  0  0  0  0  0
  191.3140  176.8450  147.0890 C   0  0  0  0  0  0  0  0  0  0  0  0
  2  5  1  0  0  0  0
  2  4  2  0  0  0  0
  3  1  1  0  0  0  0
  4  6  1  0  0  0  0
  5  7  2  0  0  0  0
  6 22  1  0  0  0  0
  6  1  2  0  0  0  0
  7  3  1  0  0  0  0
  8  9  2  0  0  0  0
  9 15  1  0  0  0  0
 10  2  1  0  0  0  0
 11 18  1  1  0  0  0
 11 14  1  0  0  0  0
 12 13  2  0  0  0  0
 12  9  1  0  0  0  0
 13 16  1  0  0  0  0
 15 10  1  0  0  0  0
 16 14  1  0  0  0  0
 16 10  2  0  0  0  0
 17 11  1  0  0  0  0
 17 13  1  0  0  0  0
 18 19  1  0  0  0  0
 19 20  1  0  0  0  0
 20 21  1  0  0  0  0
 22 23  1  0  0  0  0
 23 25  1  0  0  0  0
 24 26  1  0  0  0  0
 25 24  2  0  0  0  0
 25 29  1  0  0  0  0
 26 27  2  0  0  0  0
 28 27  1  0  0  0  0
 28 30  1  0  0  0  0
 29 28  2  0  0  0  0
 31 30  1  0  0  0  0
 33 34  2  0  0  0  0
 34 31  1  0  0  0  0
 34 32  1  0  0  0  0
M  END
>  <MODEL>
2

>  <REMARK>
 VINA RESULT:      -8.3      3.890      8.039
  Name = 
  10 active torsions:
  status: ('A' for Active; 'I' for Inactive)
    1  A    between atoms: S_4  and  C_17
    2  A    between atoms: C_6  and  N_18
    3  A    between atoms: C_7  and  C_11
    4  A    between atoms: C_9  and  S_22
    5  A    between atoms: C_13  and  S_23
    6  A    between atoms: C_13  and  C_27
    7  A    between atoms: C_17  and  S_22
    8  A    between atoms: N_18  and  C_21
    9  A    between atoms: C_21  and  C_32
   10  A    between atoms: S_23  and  C_28
                            x       y       z     vdW  Elec       q    Type
                         _______ _______ _______ _____ _____    ______ ____

>  <TORSDO>
F 10

$$$$
=
 OpenBabel11062415433D

 34 37  0  0  1  0  0  0  0  0999 V2000
  184.6260  178.6750  145.2120 C   0  0  0  0  0  3  0  0  0  0  0  0
  187.6460  178.1080  145.6520 C   0  0  0  0  0  0  0  0  0  0  0  0
  184.7750  178.0100  146.5380 C   0  0  0  0  0  2  0  0  0  0  0  0
  186.9540  178.1820  144.5020 C   0  0  0  0  0  3  0  0  0  0  0  0
  187.1410  178.6360  146.9420 C   0  0  0  0  0  3  0  0  0  0  0  0
  185.5950  178.7280  144.2960 C   0  0  0  0  0  0  0  0  0  0  0  0
  185.8690  178.6330  147.3370 C   0  0  0  0  0  3  0  0  0  0  0  0
  191.5250  175.8370  147.6990 O   0  0  0  0  0  0  0  0  0  0  0  0
  190.9590  176.3660  146.7080 C   0  0  0  0  0  0  0  0  0  0  0  0
  189.0120  177.5430  145.5960 C   0  0  0  0  0  0  0  0  0  0  0  0
  190.9600  177.8710  142.1940 C   0  0  1  0  0  3  0  0  0  0  0  0
  191.6670  176.4930  145.4700 N   0  0  0  0  0  0  0  0  0  0  0  0
  191.1130  177.0650  144.4500 C   0  0  0  0  0  0  0  0  0  0  0  0
  189.3020  178.2760  142.8970 S   0  0  0  0  0  0  0  0  0  0  0  0
  189.5340  176.8420  146.8360 C   0  0  0  0  0  2  0  0  0  0  0  0
  189.7780  177.6130  144.4900 C   0  0  0  0  0  0  0  0  0  0  0  0
  191.7660  177.1960  143.2040 N   0  0  0  0  0  2  0  0  0  0  0  0
  190.7650  176.7840  140.7520 S   0  0  0  0  0  0  0  0  0  0  0  0
  189.0250  177.2530  140.5320 C   0  0  0  0  0  2  0  0  0  0  0  0
  188.6220  177.3060  138.7630 S   0  0  0  0  0  0  0  0  0  0  0  0
  189.0110  179.0230  138.6480 N   0  0  0  0  0  1  0  0  0  0  0  0
  185.2700  179.3150  142.9640 C   0  0  0  0  0  2  0  0  0  0  0  0
  184.9420  178.2630  142.0090 N   0  0  0  0  0  2  0  0  0  0  0  0
  184.5250  178.5330  139.5880 C   0  0  0  0  0  3  0  0  0  0  0  0
  184.0490  178.4380  140.9050 C   0  0  0  0  0  0  0  0  0  0  0  0
  183.6320  178.7040  138.5270 C   0  0  0  0  0  3  0  0  0  0  0  0
  182.2590  178.7780  138.7750 C   0  0  0  0  0  3  0  0  0  0  0  0
  181.7780  178.6750  140.0840 C   0  0  0  0  0  0  0  0  0  0  0  0
  182.6730  178.5100  141.1460 C   0  0  0  0  0  3  0  0  0  0  0  0
  180.0210  178.7800  140.4050 S   0  0  0  0  0  0  0  0  0  0  0  0
  180.1900  178.2370  142.1340 C   0  0  0  0  0  2  0  0  0  0  0  0
  180.0120  180.6120  142.8690 O   0  0  0  0  0  0  0  0  0  0  0  0
  178.9310  178.9550  144.0260 O   0  0  0  0  0  1  0  0  0  0  0  0
  179.6680  179.2810  143.0590 C   0  0  0  0  0  0  0  0  0  0  0  0
  1  3  1  0  0  0  0
  2  5  1  0  0  0  0
  3  7  1  0  0  0  0
  4  2  2  0  0  0  0
  5  7  2  0  0  0  0
  6  4  1  0  0  0  0
  6  1  2  0  0  0  0
  9 15  1  0  0  0  0
  9  8  2  0  0  0  0
 10  2  1  0  0  0  0
 10 15  1  0  0  0  0
 11 18  1  6  0  0  0
 11 14  1  0  0  0  0
 11 17  1  0  0  0  0
 12  9  1  0  0  0  0
 13 16  1  0  0  0  0
 13 12  2  0  0  0  0
 14 16  1  0  0  0  0
 16 10  2  0  0  0  0
 17 13  1  0  0  0  0
 19 18  1  0  0  0  0
 20 19  1  0  0  0  0
 21 20  1  0  0  0  0
 22  6  1  0  0  0  0
 23 22  1  0  0  0  0
 24 25  1  0  0  0  0
 25 29  2  0  0  0  0
 25 23  1  0  0  0  0
 26 27  1  0  0  0  0
 26 24  2  0  0  0  0
 27 28  2  0  0  0  0
 28 30  1  0  0  0  0
 28 29  1  0  0  0  0
 30 31  1  0  0  0  0
 31 34  1  0  0  0  0
 32 34  2  0  0  0  0
 34 33  1  0  0  0  0
M  END
>  <MODEL>
3

>  <REMARK>
 VINA RESULT:      -8.3      1.866      2.698
  Name = 
  10 active torsions:
  status: ('A' for Active; 'I' for Inactive)
    1  A    between atoms: S_4  and  C_17
    2  A    between atoms: C_6  and  N_18
    3  A    between atoms: C_7  and  C_11
    4  A    between atoms: C_9  and  S_22
    5  A    between atoms: C_13  and  S_23
    6  A    between atoms: C_13  and  C_27
    7  A    between atoms: C_17  and  S_22
    8  A    between atoms: N_18  and  C_21
    9  A    between atoms: C_21  and  C_32
   10  A    between atoms: S_23  and  C_28
                            x       y       z     vdW  Elec       q    Type
                         _______ _______ _______ _____ _____    ______ ____

>  <TORSDO>
F 10

$$$$
=
 OpenBabel11062415433D

 34 37  0  0  1  0  0  0  0  0999 V2000
  189.5620  177.2250  145.0180 C   0  0  0  0  0  3  0  0  0  0  0  0
  190.5980  177.5560  142.1100 C   0  0  0  0  0  0  0  0  0  0  0  0
  191.0490  177.3240  145.0730 C   0  0  0  0  0  2  0  0  0  0  0  0
  189.4960  176.9270  142.5530 C   0  0  0  0  0  3  0  0  0  0  0  0
  191.3670  178.5260  142.9260 C   0  0  0  0  0  3  0  0  0  0  0  0
  188.8750  177.0230  143.8920 C   0  0  0  0  0  0  0  0  0  0  0  0
  191.5480  178.4590  144.2440 C   0  0  0  0  0  3  0  0  0  0  0  0
  193.9230  176.3140  138.6750 O   0  0  0  0  0  0  0  0  0  0  0  0
  192.7600  176.6630  139.0030 C   0  0  0  0  0  0  0  0  0  0  0  0
  191.0070  177.3190  140.7080 C   0  0  0  0  0  0  0  0  0  0  0  0
  188.3150  177.9660  137.9130 C   0  0  1  0  0  3  0  0  0  0  0  0
  191.7790  176.9050  137.9870 N   0  0  0  0  0  0  0  0  0  0  0  0
  190.5870  177.2980  138.3040 C   0  0  0  0  0  0  0  0  0  0  0  0
  188.4510  178.0030  139.7540 S   0  0  0  0  0  0  0  0  0  0  0  0
  192.4110  176.8010  140.4630 C   0  0  0  0  0  2  0  0  0  0  0  0
  190.1740  177.5240  139.6690 C   0  0  0  0  0  0  0  0  0  0  0  0
  189.5830  177.5320  137.3390 N   0  0  0  0  0  2  0  0  0  0  0  0
  187.0020  176.8140  137.4190 S   0  0  0  0  0  0  0  0  0  0  0  0
  185.7860  178.1500  137.2340 C   0  0  0  0  0  2  0  0  0  0  0  0
  184.5510  178.0460  138.5590 S   0  0  0  0  0  0  0  0  0  0  0  0
  184.8220  179.7190  139.0480 N   0  0  0  0  0  1  0  0  0  0  0  0
  187.4020  176.8190  143.9970 C   0  0  0  0  0  2  0  0  0  0  0  0
  186.6890  177.8370  143.2350 N   0  0  0  0  0  2  0  0  0  0  0  0
  184.9140  178.5880  144.7820 C   0  0  0  0  0  3  0  0  0  0  0  0
  185.3360  178.2260  143.4940 C   0  0  0  0  0  0  0  0  0  0  0  0
  183.5870  178.9630  145.0090 C   0  0  0  0  0  3  0  0  0  0  0  0
  182.6760  178.9820  143.9500 C   0  0  0  0  0  3  0  0  0  0  0  0
  183.0930  178.6320  142.6620 C   0  0  0  0  0  0  0  0  0  0  0  0
  184.4200  178.2510  142.4370 C   0  0  0  0  0  3  0  0  0  0  0  0
  181.9260  178.6460  141.3070 S   0  0  0  0  0  0  0  0  0  0  0  0
  180.6440  179.5050  142.2710 C   0  0  0  0  0  2  0  0  0  0  0  0
  179.2400  181.4980  141.7520 O   0  0  0  0  0  1  0  0  0  0  0  0
  179.3900  179.7630  140.2610 O   0  0  0  0  0  0  0  0  0  0  0  0
  179.7320  180.2580  141.3660 C   0  0  0  0  0  0  0  0  0  0  0  0
  1  3  1  0  0  0  0
  2  4  2  0  0  0  0
  2  5  1  0  0  0  0
  4  6  1  0  0  0  0
  5  7  2  0  0  0  0
  6 22  1  0  0  0  0
  6  1  2  0  0  0  0
  7  3  1  0  0  0  0
  8  9  2  0  0  0  0
  9 15  1  0  0  0  0
 10  2  1  0  0  0  0
 11 18  1  1  0  0  0
 11 14  1  0  0  0  0
 12 13  2  0  0  0  0
 12  9  1  0  0  0  0
 13 16  1  0  0  0  0
 15 10  1  0  0  0  0
 16 14  1  0  0  0  0
 16 10  2  0  0  0  0
 17 11  1  0  0  0  0
 17 13  1  0  0  0  0
 19 18  1  0  0  0  0
 19 20  1  0  0  0  0
 20 21  1  0  0  0  0
 23 25  1  0  0  0  0
 23 22  1  0  0  0  0
 24 26  1  0  0  0  0
 25 24  2  0  0  0  0
 27 26  2  0  0  0  0
 28 27  1  0  0  0  0
 29 28  2  0  0  0  0
 29 25  1  0  0  0  0
 30 31  1  0  0  0  0
 30 28  1  0  0  0  0
 33 34  2  0  0  0  0
 34 32  1  0  0  0  0
 34 31  1  0  0  0  0
M  END
>  <MODEL>
4

>  <REMARK>
 VINA RESULT:      -8.2      3.095      5.052
  Name = 
  10 active torsions:
  status: ('A' for Active; 'I' for Inactive)
    1  A    between atoms: S_4  and  C_17
    2  A    between atoms: C_6  and  N_18
    3  A    between atoms: C_7  and  C_11
    4  A    between atoms: C_9  and  S_22
    5  A    between atoms: C_13  and  S_23
    6  A    between atoms: C_13  and  C_27
    7  A    between atoms: C_17  and  S_22
    8  A    between atoms: N_18  and  C_21
    9  A    between atoms: C_21  and  C_32
   10  A    between atoms: S_23  and  C_28
                            x       y       z     vdW  Elec       q    Type
                         _______ _______ _______ _____ _____    ______ ____

>  <TORSDO>
F 10

$$$$
=
 OpenBabel11062415433D

 34 37  0  0  1  0  0  0  0  0999 V2000
  189.6350  177.0580  144.8760 C   0  0  0  0  0  3  0  0  0  0  0  0
  190.5050  177.4640  141.9230 C   0  0  0  0  0  0  0  0  0  0  0  0
  191.1250  177.0680  144.8380 C   0  0  0  0  0  2  0  0  0  0  0  0
  189.3960  176.8800  142.4100 C   0  0  0  0  0  3  0  0  0  0  0  0
  191.3820  178.3480  142.7280 C   0  0  0  0  0  3  0  0  0  0  0  0
  188.8670  176.9500  143.7900 C   0  0  0  0  0  0  0  0  0  0  0  0
  191.6400  178.2090  144.0280 C   0  0  0  0  0  3  0  0  0  0  0  0
  193.5360  176.2220  138.2260 O   0  0  0  0  0  0  0  0  0  0  0  0
  192.4150  176.6080  138.6450 C   0  0  0  0  0  0  0  0  0  0  0  0
  190.8100  177.2690  140.4890 C   0  0  0  0  0  0  0  0  0  0  0  0
  187.9770  178.1580  137.9080 C   0  0  1  0  0  3  0  0  0  0  0  0
  191.3830  176.9380  137.7080 N   0  0  0  0  0  0  0  0  0  0  0  0
  190.2350  177.3700  138.1190 C   0  0  0  0  0  0  0  0  0  0  0  0
  188.2340  178.1090  139.7360 S   0  0  0  0  0  0  0  0  0  0  0  0
  192.1690  176.6990  140.1300 C   0  0  0  0  0  2  0  0  0  0  0  0
  189.9230  177.5560  139.5160 C   0  0  0  0  0  0  0  0  0  0  0  0
  189.1820  177.6910  137.2340 N   0  0  0  0  0  2  0  0  0  0  0  0
  186.5800  177.0880  137.4580 S   0  0  0  0  0  0  0  0  0  0  0  0
  187.0130  177.1270  135.6940 C   0  0  0  0  0  2  0  0  0  0  0  0
  185.5830  176.6170  134.6990 S   0  0  0  0  0  0  0  0  0  0  0  0
  184.4380  177.1940  135.9110 N   0  0  0  0  0  1  0  0  0  0  0  0
  187.3930  176.8270  143.9820 C   0  0  0  0  0  2  0  0  0  0  0  0
  186.6920  177.8610  143.2290 N   0  0  0  0  0  2  0  0  0  0  0  0
  184.9160  178.6340  144.7630 C   0  0  0  0  0  3  0  0  0  0  0  0
  185.3390  178.2520  143.4810 C   0  0  0  0  0  0  0  0  0  0  0  0
  183.5890  179.0110  144.9840 C   0  0  0  0  0  3  0  0  0  0  0  0
  182.6780  179.0120  143.9250 C   0  0  0  0  0  3  0  0  0  0  0  0
  183.0960  178.6410  142.6430 C   0  0  0  0  0  0  0  0  0  0  0  0
  184.4230  178.2580  142.4240 C   0  0  0  0  0  3  0  0  0  0  0  0
  181.9290  178.6320  141.2870 S   0  0  0  0  0  0  0  0  0  0  0  0
  183.2000  178.2340  140.0470 C   0  0  0  0  0  2  0  0  0  0  0  0
  184.8320  179.8880  139.1460 O   0  0  0  0  0  1  0  0  0  0  0  0
  182.6050  180.0570  138.6320 O   0  0  0  0  0  0  0  0  0  0  0  0
  183.5220  179.4360  139.2300 C   0  0  0  0  0  0  0  0  0  0  0  0
  2  4  2  0  0  0  0
  2  5  1  0  0  0  0
  3  1  1  0  0  0  0
  4  6  1  0  0  0  0
  5  7  2  0  0  0  0
  6 22  1  0  0  0  0
  6  1  2  0  0  0  0
  7  3  1  0  0  0  0
  8  9  2  0  0  0  0
  9 15  1  0  0  0  0
 10  2  1  0  0  0  0
 11 18  1  1  0  0  0
 11 14  1  0  0  0  0
 12 13  2  0  0  0  0
 12  9  1  0  0  0  0
 13 16  1  0  0  0  0
 15 10  1  0  0  0  0
 16 14  1  0  0  0  0
 16 10  2  0  0  0  0
 17 11  1  0  0  0  0
 17 13  1  0  0  0  0
 19 18  1  0  0  0  0
 20 19  1  0  0  0  0
 20 21  1  0  0  0  0
 23 25  1  0  0  0  0
 23 22  1  0  0  0  0
 24 26  1  0  0  0  0
 25 24  2  0  0  0  0
 27 26  2  0  0  0  0
 28 27  1  0  0  0  0
 29 28  2  0  0  0  0
 29 25  1  0  0  0  0
 30 28  1  0  0  0  0
 31 30  1  0  0  0  0
 32 34  1  0  0  0  0
 33 34  2  0  0  0  0
 34 31  1  0  0  0  0
M  END
>  <MODEL>
5

>  <REMARK>
 VINA RESULT:      -8.1      2.913      4.996
  Name = 
  10 active torsions:
  status: ('A' for Active; 'I' for Inactive)
    1  A    between atoms: S_4  and  C_17
    2  A    between atoms: C_6  and  N_18
    3  A    between atoms: C_7  and  C_11
    4  A    between atoms: C_9  and  S_22
    5  A    between atoms: C_13  and  S_23
    6  A    between atoms: C_13  and  C_27
    7  A    between atoms: C_17  and  S_22
    8  A    between atoms: N_18  and  C_21
    9  A    between atoms: C_21  and  C_32
   10  A    between atoms: S_23  and  C_28
                            x       y       z     vdW  Elec       q    Type
                         _______ _______ _______ _____ _____    ______ ____

>  <TORSDO>
F 10

$$$$
=
 OpenBabel11062415433D

 34 37  0  0  1  0  0  0  0  0999 V2000
  185.0770  178.3500  145.8920 C   0  0  0  0  0  3  0  0  0  0  0  0
  187.8460  177.8330  144.5870 C   0  0  0  0  0  0  0  0  0  0  0  0
  185.8940  177.5580  146.8560 C   0  0  0  0  0  2  0  0  0  0  0  0
  186.6480  178.0010  144.0000 C   0  0  0  0  0  3  0  0  0  0  0  0
  188.1250  178.2110  145.9930 C   0  0  0  0  0  3  0  0  0  0  0  0
  185.4060  178.5240  144.6110 C   0  0  0  0  0  0  0  0  0  0  0  0
  187.2620  178.1290  147.0040 C   0  0  0  0  0  3  0  0  0  0  0  0
  192.0510  175.3170  143.9680 O   0  0  0  0  0  0  0  0  0  0  0  0
  191.1030  176.0030  143.5060 C   0  0  0  0  0  0  0  0  0  0  0  0
  188.9530  177.3180  143.7520 C   0  0  0  0  0  0  0  0  0  0  0  0
  188.9420  178.2990  139.9420 C   0  0  1  0  0  3  0  0  0  0  0  0
  191.1000  176.3680  142.1210 N   0  0  0  0  0  0  0  0  0  0  0  0
  190.1510  177.1020  141.6360 C   0  0  0  0  0  0  0  0  0  0  0  0
  187.8970  178.5330  141.4460 S   0  0  0  0  0  0  0  0  0  0  0  0
  189.9750  176.4160  144.4170 C   0  0  0  0  0  2  0  0  0  0  0  0
  189.0610  177.6030  142.4390 C   0  0  0  0  0  0  0  0  0  0  0  0
  190.0960  177.4710  140.2740 N   0  0  0  0  0  2  0  0  0  0  0  0
  187.9700  177.4860  138.6410 S   0  0  0  0  0  0  0  0  0  0  0  0
  189.4420  177.1670  137.6270 C   0  0  0  0  0  2  0  0  0  0  0  0
  189.3560  175.4930  136.9290 S   0  0  0  0  0  0  0  0  0  0  0  0
  190.6610  174.9120  137.9650 N   0  0  0  0  0  1  0  0  0  0  0  0
  184.4360  179.2330  143.7270 C   0  0  0  0  0  2  0  0  0  0  0  0
  183.0720  179.0370  144.2050 N   0  0  0  0  0  2  0  0  0  0  0  0
  180.6400  178.7870  143.8480 C   0  0  0  0  0  3  0  0  0  0  0  0
  181.9490  178.8290  143.3440 C   0  0  0  0  0  0  0  0  0  0  0  0
  179.5580  178.5830  142.9870 C   0  0  0  0  0  3  0  0  0  0  0  0
  179.7790  178.4230  141.6170 C   0  0  0  0  0  3  0  0  0  0  0  0
  181.0800  178.4730  141.1060 C   0  0  0  0  0  0  0  0  0  0  0  0
  182.1620  178.6720  141.9710 C   0  0  0  0  0  3  0  0  0  0  0  0
  181.3640  178.2590  139.3540 S   0  0  0  0  0  0  0  0  0  0  0  0
  183.1720  178.1720  139.5430 C   0  0  0  0  0  2  0  0  0  0  0  0
  183.0720  180.5230  138.7240 O   0  0  0  0  0  0  0  0  0  0  0  0
  184.9340  179.7540  139.8170 O   0  0  0  0  0  1  0  0  0  0  0  0
  183.7760  179.5230  139.3800 C   0  0  0  0  0  0  0  0  0  0  0  0
  1  3  1  0  0  0  0
  2  5  1  0  0  0  0
  3  7  1  0  0  0  0
  4  2  2  0  0  0  0
  4  6  1  0  0  0  0
  5  7  2  0  0  0  0
  6  1  2  0  0  0  0
  9  8  2  0  0  0  0
  9 15  1  0  0  0  0
 10 15  1  0  0  0  0
 10  2  1  0  0  0  0
 11 18  1  6  0  0  0
 11 17  1  0  0  0  0
 11 14  1  0  0  0  0
 12  9  1  0  0  0  0
 13 12  2  0  0  0  0
 13 16  1  0  0  0  0
 14 16  1  0  0  0  0
 16 10  2  0  0  0  0
 17 13  1  0  0  0  0
 19 18  1  0  0  0  0
 20 19  1  0  0  0  0
 20 21  1  0  0  0  0
 22 23  1  0  0  0  0
 22  6  1  0  0  0  0
 25 24  1  0  0  0  0
 25 23  1  0  0  0  0
 26 24  2  0  0  0  0
 27 26  1  0  0  0  0
 28 27  2  0  0  0  0
 28 29  1  0  0  0  0
 29 25  2  0  0  0  0
 30 31  1  0  0  0  0
 30 28  1  0  0  0  0
 32 34  2  0  0  0  0
 34 31  1  0  0  0  0
 34 33  1  0  0  0  0
M  END
>  <MODEL>
6

>  <REMARK>
 VINA RESULT:      -8.1      1.733      2.222
  Name = 
  10 active torsions:
  status: ('A' for Active; 'I' for Inactive)
    1  A    between atoms: S_4  and  C_17
    2  A    between atoms: C_6  and  N_18
    3  A    between atoms: C_7  and  C_11
    4  A    between atoms: C_9  and  S_22
    5  A    between atoms: C_13  and  S_23
    6  A    between atoms: C_13  and  C_27
    7  A    between atoms: C_17  and  S_22
    8  A    between atoms: N_18  and  C_21
    9  A    between atoms: C_21  and  C_32
   10  A    between atoms: S_23  and  C_28
                            x       y       z     vdW  Elec       q    Type
                         _______ _______ _______ _____ _____    ______ ____

>  <TORSDO>
F 10

$$$$
=
 OpenBabel11062415433D

 34 37  0  0  1  0  0  0  0  0999 V2000
  189.7670  176.4850  143.6950 C   0  0  0  0  0  3  0  0  0  0  0  0
  189.8740  177.4560  140.7480 C   0  0  0  0  0  0  0  0  0  0  0  0
  191.0670  176.0400  143.1160 C   0  0  0  0  0  2  0  0  0  0  0  0
  188.8070  177.1310  141.4980 C   0  0  0  0  0  3  0  0  0  0  0  0
  191.2130  177.7410  141.3170 C   0  0  0  0  0  3  0  0  0  0  0  0
  188.7520  176.9490  142.9650 C   0  0  0  0  0  0  0  0  0  0  0  0
  191.7440  177.1490  142.3860 C   0  0  0  0  0  3  0  0  0  0  0  0
  187.5620  179.4060  136.8430 O   0  0  0  0  0  0  0  0  0  0  0  0
  188.4460  178.6580  137.3370 C   0  0  0  0  0  0  0  0  0  0  0  0
  189.6680  177.6110  139.2920 C   0  0  0  0  0  0  0  0  0  0  0  0
  191.9320  175.4480  136.9100 C   0  0  1  0  0  3  0  0  0  0  0  0
  189.2670  177.8650  136.4730 N   0  0  0  0  0  0  0  0  0  0  0  0
  190.1580  177.0640  136.9640 C   0  0  0  0  0  0  0  0  0  0  0  0
  191.7150  175.7710  138.7150 S   0  0  0  0  0  0  0  0  0  0  0  0
  188.6370  178.6250  138.8320 C   0  0  0  0  0  2  0  0  0  0  0  0
  190.3740  176.9100  138.3830 C   0  0  0  0  0  0  0  0  0  0  0  0
  191.0020  176.2760  136.1510 N   0  0  0  0  0  2  0  0  0  0  0  0
  193.6340  175.8450  136.4170 S   0  0  0  0  0  0  0  0  0  0  0  0
  194.3420  174.8680  137.7750 C   0  0  0  0  0  2  0  0  0  0  0  0
  195.9150  174.1330  137.2490 S   0  0  0  0  0  0  0  0  0  0  0  0
  196.4360  175.6240  136.4620 N   0  0  0  0  0  1  0  0  0  0  0  0
  187.4640  177.2410  143.6590 C   0  0  0  0  0  2  0  0  0  0  0  0
  186.5280  177.8890  142.7480 N   0  0  0  0  0  2  0  0  0  0  0  0
  184.8690  178.6190  144.4270 C   0  0  0  0  0  3  0  0  0  0  0  0
  185.1970  178.2670  143.1090 C   0  0  0  0  0  0  0  0  0  0  0  0
  183.5610  178.9850  144.7550 C   0  0  0  0  0  3  0  0  0  0  0  0
  182.5730  179.0040  143.7670 C   0  0  0  0  0  3  0  0  0  0  0  0
  182.8950  178.6640  142.4490 C   0  0  0  0  0  0  0  0  0  0  0  0
  184.2040  178.2930  142.1240 C   0  0  0  0  0  3  0  0  0  0  0  0
  181.6300  178.6790  141.1850 S   0  0  0  0  0  0  0  0  0  0  0  0
  182.8190  178.4040  139.8340 C   0  0  0  0  0  2  0  0  0  0  0  0
  184.4700  180.1280  139.1170 O   0  0  0  0  0  1  0  0  0  0  0  0
  182.2390  180.4000  138.6660 O   0  0  0  0  0  0  0  0  0  0  0  0
  183.1530  179.6930  139.1670 C   0  0  0  0  0  0  0  0  0  0  0  0
  2  5  1  0  0  0  0
  2  4  2  0  0  0  0
  3  1  1  0  0  0  0
  4  6  1  0  0  0  0
  5  7  2  0  0  0  0
  6 22  1  0  0  0  0
  6  1  2  0  0  0  0
  7  3  1  0  0  0  0
  8  9  2  0  0  0  0
  9 15  1  0  0  0  0
 10  2  1  0  0  0  0
 11 18  1  6  0  0  0
 11 14  1  0  0  0  0
 12 13  2  0  0  0  0
 12  9  1  0  0  0  0
 13 16  1  0  0  0  0
 15 10  1  0  0  0  0
 16 14  1  0  0  0  0
 16 10  2  0  0  0  0
 17 11  1  0  0  0  0
 17 13  1  0  0  0  0
 18 19  1  0  0  0  0
 20 19  1  0  0  0  0
 21 20  1  0  0  0  0
 23 25  1  0  0  0  0
 23 22  1  0  0  0  0
 24 26  1  0  0  0  0
 25 24  2  0  0  0  0
 27 26  2  0  0  0  0
 28 27  1  0  0  0  0
 29 28  2  0  0  0  0
 29 25  1  0  0  0  0
 30 28  1  0  0  0  0
 31 30  1  0  0  0  0
 32 34  1  0  0  0  0
 33 34  2  0  0  0  0
 34 31  1  0  0  0  0
M  END
>  <MODEL>
7

>  <REMARK>
 VINA RESULT:      -8.0      3.429      6.071
  Name = 
  10 active torsions:
  status: ('A' for Active; 'I' for Inactive)
    1  A    between atoms: S_4  and  C_17
    2  A    between atoms: C_6  and  N_18
    3  A    between atoms: C_7  and  C_11
    4  A    between atoms: C_9  and  S_22
    5  A    between atoms: C_13  and  S_23
    6  A    between atoms: C_13  and  C_27
    7  A    between atoms: C_17  and  S_22
    8  A    between atoms: N_18  and  C_21
    9  A    between atoms: C_21  and  C_32
   10  A    between atoms: S_23  and  C_28
                            x       y       z     vdW  Elec       q    Type
                         _______ _______ _______ _____ _____    ______ ____

>  <TORSDO>
F 10

$$$$
=
 OpenBabel11062415433D

 34 37  0  0  1  0  0  0  0  0999 V2000
  184.0090  178.6270  142.3470 C   0  0  0  0  0  3  0  0  0  0  0  0
  186.1890  178.4140  144.5480 C   0  0  0  0  0  0  0  0  0  0  0  0
  183.3210  178.3840  143.6480 C   0  0  0  0  0  2  0  0  0  0  0  0
  186.2670  178.1060  143.2420 C   0  0  0  0  0  3  0  0  0  0  0  0
  185.1130  179.2560  145.1240 C   0  0  0  0  0  3  0  0  0  0  0  0
  185.3230  178.4780  142.1660 C   0  0  0  0  0  0  0  0  0  0  0  0
  183.8460  179.2820  144.7150 C   0  0  0  0  0  3  0  0  0  0  0  0
  187.9310  176.8260  148.8890 O   0  0  0  0  0  0  0  0  0  0  0  0
  188.1030  177.1300  147.6810 C   0  0  0  0  0  0  0  0  0  0  0  0
  187.2820  177.9490  145.4290 C   0  0  0  0  0  0  0  0  0  0  0  0
  190.9020  177.8170  143.8940 C   0  0  1  0  0  3  0  0  0  0  0  0
  189.4210  177.0890  147.1200 N   0  0  0  0  0  0  0  0  0  0  0  0
  189.6230  177.4320  145.8890 C   0  0  0  0  0  0  0  0  0  0  0  0
  189.1780  178.2170  143.3690 S   0  0  0  0  0  0  0  0  0  0  0  0
  186.9150  177.5160  146.8360 C   0  0  0  0  0  2  0  0  0  0  0  0
  188.5630  177.8790  145.0160 C   0  0  0  0  0  0  0  0  0  0  0  0
  190.9010  177.3900  145.2880 N   0  0  0  0  0  2  0  0  0  0  0  0
  191.5640  176.4830  142.8550 S   0  0  0  0  0  0  0  0  0  0  0  0
  190.2060  176.6300  141.6580 C   0  0  0  0  0  2  0  0  0  0  0  0
  190.8640  177.1290  140.0410 S   0  0  0  0  0  0  0  0  0  0  0  0
  189.2490  177.2660  139.3420 N   0  0  0  0  0  1  0  0  0  0  0  0
  185.8610  178.6320  140.7840 C   0  0  0  0  0  2  0  0  0  0  0  0
  184.9320  179.3920  139.9550 N   0  0  0  0  0  2  0  0  0  0  0  0
  182.8010  179.3330  138.7060 C   0  0  0  0  0  3  0  0  0  0  0  0
  184.0720  178.8020  138.9760 C   0  0  0  0  0  0  0  0  0  0  0  0
  181.9790  178.7380  137.7450 C   0  0  0  0  0  3  0  0  0  0  0  0
  182.4230  177.6130  137.0460 C   0  0  0  0  0  3  0  0  0  0  0  0
  183.6920  177.0860  137.3030 C   0  0  0  0  0  0  0  0  0  0  0  0
  184.5120  177.6780  138.2700 C   0  0  0  0  0  3  0  0  0  0  0  0
  184.2590  175.6400  136.4160 S   0  0  0  0  0  0  0  0  0  0  0  0
  183.8490  174.5040  137.7790 C   0  0  0  0  0  2  0  0  0  0  0  0
  185.8330  173.0080  137.9710 O   0  0  0  0  0  1  0  0  0  0  0  0
  183.8910  172.2430  137.0240 O   0  0  0  0  0  0  0  0  0  0  0  0
  184.5150  173.1880  137.5750 C   0  0  0  0  0  0  0  0  0  0  0  0
  1  3  1  0  0  0  0
  2  5  1  0  0  0  0
  2 10  1  0  0  0  0
  3  7  1  0  0  0  0
  4  2  2  0  0  0  0
  6  1  2  0  0  0  0
  6  4  1  0  0  0  0
  7  5  2  0  0  0  0
  9  8  2  0  0  0  0
 10 15  1  0  0  0  0
 11 18  1  6  0  0  0
 11 17  1  0  0  0  0
 12  9  1  0  0  0  0
 13 12  2  0  0  0  0
 14 11  1  0  0  0  0
 14 16  1  0  0  0  0
 15  9  1  0  0  0  0
 16 10  2  0  0  0  0
 16 13  1  0  0  0  0
 17 13  1  0  0  0  0
 19 18  1  0  0  0  0
 20 19  1  0  0  0  0
 21 20  1  0  0  0  0
 22  6  1  0  0  0  0
 23 22  1  0  0  0  0
 24 25  1  0  0  0  0
 25 23  1  0  0  0  0
 26 24  2  0  0  0  0
 27 28  2  0  0  0  0
 27 26  1  0  0  0  0
 28 29  1  0  0  0  0
 29 25  2  0  0  0  0
 30 28  1  0  0  0  0
 30 31  1  0  0  0  0
 33 34  2  0  0  0  0
 34 31  1  0  0  0  0
 34 32  1  0  0  0  0
M  END
>  <MODEL>
8

>  <REMARK>
 VINA RESULT:      -8.0      2.712      3.874
  Name = 
  10 active torsions:
  status: ('A' for Active; 'I' for Inactive)
    1  A    between atoms: S_4  and  C_17
    2  A    between atoms: C_6  and  N_18
    3  A    between atoms: C_7  and  C_11
    4  A    between atoms: C_9  and  S_22
    5  A    between atoms: C_13  and  S_23
    6  A    between atoms: C_13  and  C_27
    7  A    between atoms: C_17  and  S_22
    8  A    between atoms: N_18  and  C_21
    9  A    between atoms: C_21  and  C_32
   10  A    between atoms: S_23  and  C_28
                            x       y       z     vdW  Elec       q    Type
                         _______ _______ _______ _____ _____    ______ ____

>  <TORSDO>
F 10

$$$$
=
 OpenBabel11062415433D

 34 37  0  0  1  0  0  0  0  0999 V2000
  181.8880  178.7670  142.9270 C   0  0  0  0  0  3  0  0  0  0  0  0
  184.9470  178.7620  142.4000 C   0  0  0  0  0  0  0  0  0  0  0  0
  182.5780  178.7090  144.2480 C   0  0  0  0  0  2  0  0  0  0  0  0
  183.9520  178.2910  141.6290 C   0  0  0  0  0  3  0  0  0  0  0  0
  184.7330  179.7020  143.5260 C   0  0  0  0  0  3  0  0  0  0  0  0
  182.5020  178.5550  141.7620 C   0  0  0  0  0  0  0  0  0  0  0  0
  183.6720  179.7160  144.3320 C   0  0  0  0  0  3  0  0  0  0  0  0
  188.6700  178.3070  139.1860 O   0  0  0  0  0  0  0  0  0  0  0  0
  188.1980  178.1830  140.3450 C   0  0  0  0  0  0  0  0  0  0  0  0
  186.3310  178.3770  142.0440 C   0  0  0  0  0  0  0  0  0  0  0  0
  188.5360  176.7630  144.8740 C   0  0  1  0  0  3  0  0  0  0  0  0
  188.9960  177.5900  141.3750 N   0  0  0  0  0  0  0  0  0  0  0  0
  188.5160  177.4220  142.5650 C   0  0  0  0  0  0  0  0  0  0  0  0
  186.8510  177.4840  144.6600 S   0  0  0  0  0  0  0  0  0  0  0  0
  186.8040  178.6780  140.6350 C   0  0  0  0  0  2  0  0  0  0  0  0
  187.1700  177.8010  142.9270 C   0  0  0  0  0  0  0  0  0  0  0  0
  189.2710  176.8580  143.6180 N   0  0  0  0  0  2  0  0  0  0  0  0
  189.4310  177.6700  146.1670 S   0  0  0  0  0  0  0  0  0  0  0  0
  191.0450  177.3180  145.4120 C   0  0  0  0  0  2  0  0  0  0  0  0
  191.8740  175.9870  146.3250 S   0  0  0  0  0  0  0  0  0  0  0  0
  191.9280  176.9370  147.8110 N   0  0  0  0  0  1  0  0  0  0  0  0
  181.6680  178.5200  140.5260 C   0  0  0  0  0  2  0  0  0  0  0  0
  182.0440  179.6030  139.6240 N   0  0  0  0  0  2  0  0  0  0  0  0
  181.7450  178.7410  137.3280 C   0  0  0  0  0  3  0  0  0  0  0  0
  181.5430  179.7410  138.2910 C   0  0  0  0  0  0  0  0  0  0  0  0
  181.2450  178.9000  136.0320 C   0  0  0  0  0  3  0  0  0  0  0  0
  180.5380  180.0560  135.6940 C   0  0  0  0  0  3  0  0  0  0  0  0
  180.3250  181.0520  136.6520 C   0  0  0  0  0  0  0  0  0  0  0  0
  180.8300  180.8940  137.9470 C   0  0  0  0  0  3  0  0  0  0  0  0
  179.4280  182.5370  136.2180 S   0  0  0  0  0  0  0  0  0  0  0  0
  180.9400  183.4680  135.8180 C   0  0  0  0  0  2  0  0  0  0  0  0
  180.2110  185.4540  137.1350 O   0  0  0  0  0  0  0  0  0  0  0  0
  182.3000  184.5630  137.4410 O   0  0  0  0  0  1  0  0  0  0  0  0
  181.1910  184.5150  136.8470 C   0  0  0  0  0  0  0  0  0  0  0  0
  1  3  1  0  0  0  0
  2  5  1  0  0  0  0
  3  7  1  0  0  0  0
  4  6  1  0  0  0  0
  4  2  2  0  0  0  0
  5  7  2  0  0  0  0
  6  1  2  0  0  0  0
  8  9  2  0  0  0  0
  9 15  1  0  0  0  0
  9 12  1  0  0  0  0
 10  2  1  0  0  0  0
 10 16  2  0  0  0  0
 11 18  1  1  0  0  0
 12 13  2  0  0  0  0
 13 16  1  0  0  0  0
 13 17  1  0  0  0  0
 14 11  1  0  0  0  0
 15 10  1  0  0  0  0
 16 14  1  0  0  0  0
 17 11  1  0  0  0  0
 19 18  1  0  0  0  0
 19 20  1  0  0  0  0
 20 21  1  0  0  0  0
 22  6  1  0  0  0  0
 23 22  1  0  0  0  0
 24 25  1  0  0  0  0
 25 23  1  0  0  0  0
 26 24  2  0  0  0  0
 27 26  1  0  0  0  0
 27 28  2  0  0  0  0
 28 29  1  0  0  0  0
 29 25  2  0  0  0  0
 30 28  1  0  0  0  0
 31 30  1  0  0  0  0
 31 34  1  0  0  0  0
 34 32  2  0  0  0  0
 34 33  1  0  0  0  0
M  END
>  <MODEL>
9

>  <REMARK>
 VINA RESULT:      -8.0      3.341      5.705
  Name = 
  10 active torsions:
  status: ('A' for Active; 'I' for Inactive)
    1  A    between atoms: S_4  and  C_17
    2  A    between atoms: C_6  and  N_18
    3  A    between atoms: C_7  and  C_11
    4  A    between atoms: C_9  and  S_22
    5  A    between atoms: C_13  and  S_23
    6  A    between atoms: C_13  and  C_27
    7  A    between atoms: C_17  and  S_22
    8  A    between atoms: N_18  and  C_21
    9  A    between atoms: C_21  and  C_32
   10  A    between atoms: S_23  and  C_28
                            x       y       z     vdW  Elec       q    Type
                         _______ _______ _______ _____ _____    ______ ____

>  <TORSDO>
F 10

$$$$
