=
 OpenBabel11062413303D

 30 31  0  0  1  0  0  0  0  0999 V2000
  188.4000  175.9700  143.2700 C   0  0  0  0  0  2  0  0  0  0  0  0
  186.8360  177.9390  143.1980 C   0  0  0  0  0  0  0  0  0  0  0  0
  189.1140  178.1520  142.2770 C   0  0  1  0  0  3  0  0  0  0  0  0
  187.1490  176.6220  143.8480 C   0  0  0  0  0  2  0  0  0  0  0  0
  187.7570  178.6230  142.5750 N   0  0  0  0  0  0  0  0  0  0  0  0
  189.5440  176.9820  143.1780 C   0  0  1  0  0  3  0  0  0  0  0  0
  189.0130  177.0890  145.6530 C   0  0  0  0  0  2  0  0  0  0  0  0
  191.4030  176.9510  144.8730 C   0  0  0  0  0  3  0  0  0  0  0  0
  189.5900  177.4570  147.0150 C   0  0  0  0  0  2  0  0  0  0  0  0
  191.7850  176.6100  146.1140 C   0  0  0  0  0  3  0  0  0  0  0  0
  190.8310  176.6080  147.2820 C   0  0  0  0  0  2  0  0  0  0  0  0
  190.0160  177.4660  144.5570 C   0  0  1  0  0  3  0  0  0  0  0  0
  185.5290  178.4900  143.4230 N   0  0  0  0  0  0  0  0  0  0  0  0
  184.5970  178.7570  142.5480 C   0  0  0  0  0  0  0  0  0  0  0  0
  185.0270  179.6410  140.3920 O   0  0  0  0  0  1  0  0  0  0  0  0
  183.5650  177.8410  140.5700 N   0  0  0  0  0  1  0  0  0  0  0  0
  184.7690  178.4610  141.0900 C   0  0  2  0  0  3  0  0  0  0  0  0
  183.3690  179.3000  142.9590 O   0  0  0  0  0  0  0  0  0  0  0  0
  182.6830  178.9760  144.1370 C   0  0  0  0  0  0  0  0  0  0  0  0
  183.3050  179.1840  145.3610 O   0  0  0  0  0  1  0  0  0  0  0  0
  181.5180  178.4970  144.1120 O   0  0  0  0  0  0  0  0  0  0  0  0
  189.2060  177.7790  140.8010 C   0  0  0  0  0  2  0  0  0  0  0  0
  190.8630  177.1590  140.3650 S   0  0  0  0  0  0  0  0  0  0  0  0
  190.3100  176.2980  138.8920 C   0  0  0  0  0  0  0  0  0  0  0  0
  190.9490  175.3490  138.4680 O   0  0  0  0  0  0  0  0  0  0  0  0
  189.0220  176.7000  138.2390 C   0  0  0  0  0  2  0  0  0  0  0  0
  189.2050  177.7880  137.1860 C   0  0  0  0  0  2  0  0  0  0  0  0
  187.8730  178.3210  136.6770 C   0  0  0  0  0  2  0  0  0  0  0  0
  185.8240  177.9930  137.4380 C   0  0  0  0  0  1  0  0  0  0  0  0
  187.0330  178.6130  137.7520 O   0  0  0  0  0  0  0  0  0  0  0  0
  1  4  1  0  0  0  0
  2 13  1  0  0  0  0
  2  4  1  0  0  0  0
  3 22  1  6  0  0  0
  3  5  1  0  0  0  0
  3  6  1  0  0  0  0
  5  2  2  0  0  0  0
  6  1  1  1  0  0  0
  6 12  1  0  0  0  0
  7  9  1  0  0  0  0
  8 10  2  0  0  0  0
  9 11  1  0  0  0  0
 10 11  1  0  0  0  0
 12  8  1  1  0  0  0
 12  7  1  0  0  0  0
 14 18  1  0  0  0  0
 14 13  2  0  0  0  0
 16 17  1  0  0  0  0
 17 15  1  6  0  0  0
 17 14  1  0  0  0  0
 18 19  1  0  0  0  0
 19 20  1  0  0  0  0
 21 19  2  0  0  0  0
 23 22  1  0  0  0  0
 24 23  1  0  0  0  0
 25 24  2  0  0  0  0
 26 24  1  0  0  0  0
 27 26  1  0  0  0  0
 28 27  1  0  0  0  0
 28 30  1  0  0  0  0
 29 30  1  0  0  0  0
M  END
>  <MODEL>
1

>  <REMARK>
 VINA RESULT:      -7.4      0.000      0.000
  Name = 
  12 active torsions:
  status: ('A' for Active; 'I' for Inactive)
    1  A    between atoms: C_2  and  O_19
    2  A    between atoms: C_3  and  C_11
    3  A    between atoms: C_3  and  S_15
    4  A    between atoms: C_6  and  N_8
    5  A    between atoms: C_10  and  O_19
    6  A    between atoms: C_10  and  C_26
    7  A    between atoms: C_13  and  C_14
    8  A    between atoms: C_13  and  C_22
    9  A    between atoms: C_14  and  S_15
   10  A    between atoms: C_18  and  C_22
   11  A    between atoms: C_18  and  O_28
   12  A    between atoms: C_25  and  C_30
                            x       y       z     vdW  Elec       q    Type
                         _______ _______ _______ _____ _____    ______ ____

>  <TORSDO>
F 12

$$$$
=
 OpenBabel11062413303D

 30 31  0  0  1  0  0  0  0  0999 V2000
  190.8130  178.7600  142.9450 C   0  0  0  0  0  2  0  0  0  0  0  0
  190.3470  176.9340  141.2790 C   0  0  0  0  0  0  0  0  0  0  0  0
  188.5250  177.7750  142.7120 C   0  0  1  0  0  3  0  0  0  0  0  0
  191.3970  177.6530  142.0760 C   0  0  0  0  0  2  0  0  0  0  0  0
  189.0930  176.9510  141.6390 N   0  0  0  0  0  0  0  0  0  0  0  0
  189.5900  178.2560  143.7130 C   0  0  1  0  0  3  0  0  0  0  0  0
  191.3960  177.2980  145.2100 C   0  0  0  0  0  2  0  0  0  0  0  0
  188.9780  177.1770  145.9020 C   0  0  0  0  0  3  0  0  0  0  0  0
  191.6560  176.2970  146.3280 C   0  0  0  0  0  2  0  0  0  0  0  0
  189.3560  176.8970  147.1590 C   0  0  0  0  0  3  0  0  0  0  0  0
  190.7950  176.6560  147.5370 C   0  0  0  0  0  2  0  0  0  0  0  0
  189.9440  177.1670  144.7380 C   0  0  1  0  0  3  0  0  0  0  0  0
  190.7950  176.1000  140.1980 N   0  0  0  0  0  0  0  0  0  0  0  0
  190.4390  176.1330  138.9430 C   0  0  0  0  0  0  0  0  0  0  0  0
  188.2070  176.5820  138.2840 O   0  0  0  0  0  1  0  0  0  0  0  0
  189.9260  177.6390  137.1300 N   0  0  0  0  0  1  0  0  0  0  0  0
  189.4730  177.1510  138.4190 C   0  0  2  0  0  3  0  0  0  0  0  0
  190.9900  175.2280  138.0220 O   0  0  0  0  0  0  0  0  0  0  0  0
  192.3340  175.1780  137.6260 C   0  0  0  0  0  0  0  0  0  0  0  0
  192.8830  173.9600  137.2470 O   0  0  0  0  0  0  0  0  0  0  0  0
  193.0550  176.2110  137.6090 O   0  0  0  0  0  1  0  0  0  0  0  0
  187.7690  178.9500  142.1000 C   0  0  0  0  0  2  0  0  0  0  0  0
  186.5890  178.4010  140.8240 S   0  0  0  0  0  0  0  0  0  0  0  0
  185.1350  178.8760  141.7610 C   0  0  0  0  0  0  0  0  0  0  0  0
  184.0240  178.6130  141.3300 O   0  0  0  0  0  0  0  0  0  0  0  0
  185.2980  179.5200  143.1050 C   0  0  0  0  0  2  0  0  0  0  0  0
  185.0740  178.5480  144.2590 C   0  0  0  0  0  2  0  0  0  0  0  0
  183.8850  178.9470  145.1210 C   0  0  0  0  0  2  0  0  0  0  0  0
  185.5430  178.6310  146.5470 C   0  0  0  0  0  1  0  0  0  0  0  0
  184.1520  178.6670  146.4610 O   0  0  0  0  0  0  0  0  0  0  0  0
  2  5  2  0  0  0  0
  2  4  1  0  0  0  0
  3 22  1  6  0  0  0
  3  6  1  0  0  0  0
  4  1  1  0  0  0  0
  5  3  1  0  0  0  0
  6  1  1  6  0  0  0
  6 12  1  0  0  0  0
  7  9  1  0  0  0  0
  8 10  2  0  0  0  0
  9 11  1  0  0  0  0
 10 11  1  0  0  0  0
 12  7  1  1  0  0  0
 12  8  1  0  0  0  0
 13  2  1  0  0  0  0
 14 13  2  0  0  0  0
 15 17  1  0  0  0  0
 17 16  1  6  0  0  0
 17 14  1  0  0  0  0
 18 14  1  0  0  0  0
 19 18  1  0  0  0  0
 20 19  2  0  0  0  0
 21 19  1  0  0  0  0
 23 24  1  0  0  0  0
 23 22  1  0  0  0  0
 24 26  1  0  0  0  0
 25 24  2  0  0  0  0
 26 27  1  0  0  0  0
 27 28  1  0  0  0  0
 28 30  1  0  0  0  0
 30 29  1  0  0  0  0
M  END
>  <MODEL>
2

>  <REMARK>
 VINA RESULT:      -7.4      2.248      6.853
  Name = 
  12 active torsions:
  status: ('A' for Active; 'I' for Inactive)
    1  A    between atoms: C_2  and  O_19
    2  A    between atoms: C_3  and  C_11
    3  A    between atoms: C_3  and  S_15
    4  A    between atoms: C_6  and  N_8
    5  A    between atoms: C_10  and  O_19
    6  A    between atoms: C_10  and  C_26
    7  A    between atoms: C_13  and  C_14
    8  A    between atoms: C_13  and  C_22
    9  A    between atoms: C_14  and  S_15
   10  A    between atoms: C_18  and  C_22
   11  A    between atoms: C_18  and  O_28
   12  A    between atoms: C_25  and  C_30
                            x       y       z     vdW  Elec       q    Type
                         _______ _______ _______ _____ _____    ______ ____

>  <TORSDO>
F 12

$$$$
=
 OpenBabel11062413303D

 30 31  0  0  1  0  0  0  0  0999 V2000
  187.9680  176.0800  143.6730 C   0  0  0  0  0  2  0  0  0  0  0  0
  187.6340  178.0430  142.1370 C   0  0  0  0  0  0  0  0  0  0  0  0
  189.8610  177.6120  143.1030 C   0  0  1  0  0  3  0  0  0  0  0  0
  186.9720  177.0470  143.0460 C   0  0  0  0  0  2  0  0  0  0  0  0
  188.9040  178.3200  142.2460 N   0  0  0  0  0  0  0  0  0  0  0  0
  189.1730  176.8340  144.2370 C   0  0  1  0  0  3  0  0  0  0  0  0
  187.3710  177.4760  145.8980 C   0  0  0  0  0  2  0  0  0  0  0  0
  189.8020  177.6280  146.5410 C   0  0  0  0  0  3  0  0  0  0  0  0
  187.0980  178.2970  147.1530 C   0  0  0  0  0  2  0  0  0  0  0  0
  189.4510  177.7110  147.8340 C   0  0  0  0  0  3  0  0  0  0  0  0
  188.0150  177.8200  148.2770 C   0  0  0  0  0  2  0  0  0  0  0  0
  188.8000  177.7490  145.4130 C   0  0  1  0  0  3  0  0  0  0  0  0
  186.7860  178.7910  141.2510 N   0  0  0  0  0  0  0  0  0  0  0  0
  185.5230  179.0900  141.3920 C   0  0  0  0  0  0  0  0  0  0  0  0
  183.4290  178.3990  142.2620 O   0  0  0  0  0  1  0  0  0  0  0  0
  184.7610  179.7820  143.5740 N   0  0  0  0  0  1  0  0  0  0  0  0
  184.7470  178.6960  142.6110 C   0  0  2  0  0  3  0  0  0  0  0  0
  184.8520  179.8360  140.4090 O   0  0  0  0  0  0  0  0  0  0  0  0
  184.4500  179.3630  139.1540 C   0  0  0  0  0  0  0  0  0  0  0  0
  185.4120  178.9030  138.2630 O   0  0  0  0  0  0  0  0  0  0  0  0
  183.2370  179.3460  138.8120 O   0  0  0  0  0  1  0  0  0  0  0  0
  190.7250  176.6940  142.2440 C   0  0  0  0  0  2  0  0  0  0  0  0
  191.6470  177.6250  140.9780 S   0  0  0  0  0  0  0  0  0  0  0  0
  190.7640  176.8990  139.5960 C   0  0  0  0  0  0  0  0  0  0  0  0
  190.8920  175.7100  139.3530 O   0  0  0  0  0  0  0  0  0  0  0  0
  189.8130  177.7410  138.8000 C   0  0  0  0  0  2  0  0  0  0  0  0
  188.4330  177.1080  138.6640 C   0  0  0  0  0  2  0  0  0  0  0  0
  188.1650  176.6170  137.2490 C   0  0  0  0  0  2  0  0  0  0  0  0
  187.0910  174.7540  136.7370 C   0  0  0  0  0  1  0  0  0  0  0  0
  188.3220  175.2320  137.1860 O   0  0  0  0  0  0  0  0  0  0  0  0
  2  5  2  0  0  0  0
  2  4  1  0  0  0  0
  3 22  1  6  0  0  0
  3  6  1  0  0  0  0
  4  1  1  0  0  0  0
  5  3  1  0  0  0  0
  6  1  1  6  0  0  0
  6 12  1  0  0  0  0
  7  9  1  0  0  0  0
  8 10  2  0  0  0  0
  9 11  1  0  0  0  0
 10 11  1  0  0  0  0
 12  7  1  1  0  0  0
 12  8  1  0  0  0  0
 13 14  2  0  0  0  0
 13  2  1  0  0  0  0
 14 17  1  0  0  0  0
 17 15  1  6  0  0  0
 17 16  1  0  0  0  0
 18 14  1  0  0  0  0
 19 18  1  0  0  0  0
 20 19  2  0  0  0  0
 21 19  1  0  0  0  0
 23 22  1  0  0  0  0
 24 23  1  0  0  0  0
 25 24  2  0  0  0  0
 26 24  1  0  0  0  0
 27 26  1  0  0  0  0
 28 27  1  0  0  0  0
 29 30  1  0  0  0  0
 30 28  1  0  0  0  0
M  END
>  <MODEL>
3

>  <REMARK>
 VINA RESULT:      -7.4      1.683      2.859
  Name = 
  12 active torsions:
  status: ('A' for Active; 'I' for Inactive)
    1  A    between atoms: C_2  and  O_19
    2  A    between atoms: C_3  and  C_11
    3  A    between atoms: C_3  and  S_15
    4  A    between atoms: C_6  and  N_8
    5  A    between atoms: C_10  and  O_19
    6  A    between atoms: C_10  and  C_26
    7  A    between atoms: C_13  and  C_14
    8  A    between atoms: C_13  and  C_22
    9  A    between atoms: C_14  and  S_15
   10  A    between atoms: C_18  and  C_22
   11  A    between atoms: C_18  and  O_28
   12  A    between atoms: C_25  and  C_30
                            x       y       z     vdW  Elec       q    Type
                         _______ _______ _______ _____ _____    ______ ____

>  <TORSDO>
F 12

$$$$
=
 OpenBabel11062413303D

 30 31  0  0  1  0  0  0  0  0999 V2000
  189.6020  178.7740  143.9350 C   0  0  0  0  0  2  0  0  0  0  0  0
  189.2430  177.1590  142.0410 C   0  0  0  0  0  0  0  0  0  0  0  0
  187.7060  177.1440  143.9690 C   0  0  1  0  0  3  0  0  0  0  0  0
  190.2220  178.0570  142.7420 C   0  0  0  0  0  2  0  0  0  0  0  0
  188.1760  176.7150  142.6470 N   0  0  0  0  0  0  0  0  0  0  0  0
  188.8180  177.7940  144.8090 C   0  0  1  0  0  3  0  0  0  0  0  0
  191.2030  177.0400  145.2170 C   0  0  0  0  0  2  0  0  0  0  0  0
  189.4250  176.6250  146.9530 C   0  0  0  0  0  3  0  0  0  0  0  0
  192.0590  176.0630  146.0130 C   0  0  0  0  0  2  0  0  0  0  0  0
  190.3790  176.3760  147.8640 C   0  0  0  0  0  3  0  0  0  0  0  0
  191.8410  176.3030  147.5060 C   0  0  0  0  0  2  0  0  0  0  0  0
  189.7200  176.7430  145.4730 C   0  0  1  0  0  3  0  0  0  0  0  0
  189.6050  176.6830  140.7350 N   0  0  0  0  0  0  0  0  0  0  0  0
  189.3670  177.2310  139.5740 C   0  0  0  0  0  0  0  0  0  0  0  0
  187.2850  178.3610  139.4910 O   0  0  0  0  0  1  0  0  0  0  0  0
  189.0310  179.1800  138.1930 N   0  0  0  0  0  1  0  0  0  0  0  0
  188.6660  178.5490  139.4480 C   0  0  2  0  0  3  0  0  0  0  0  0
  189.8020  176.6110  138.3910 O   0  0  0  0  0  0  0  0  0  0  0  0
  191.0050  175.9120  138.2270 C   0  0  0  0  0  0  0  0  0  0  0  0
  192.2000  176.6180  138.2070 O   0  0  0  0  0  1  0  0  0  0  0  0
  191.0270  174.6590  138.0940 O   0  0  0  0  0  0  0  0  0  0  0  0
  186.5170  178.0850  143.8000 C   0  0  0  0  0  2  0  0  0  0  0  0
  185.9120  178.7010  145.4050 S   0  0  0  0  0  0  0  0  0  0  0  0
  184.2030  178.8230  144.8750 C   0  0  0  0  0  0  0  0  0  0  0  0
  183.3400  179.1390  145.6790 O   0  0  0  0  0  0  0  0  0  0  0  0
  183.8580  178.6170  143.4310 C   0  0  0  0  0  2  0  0  0  0  0  0
  182.4520  179.0920  143.0830 C   0  0  0  0  0  2  0  0  0  0  0  0
  182.0320  178.6620  141.6850 C   0  0  0  0  0  2  0  0  0  0  0  0
  180.2460  179.5740  142.6130 C   0  0  0  0  0  1  0  0  0  0  0  0
  180.6480  178.7690  141.5480 O   0  0  0  0  0  0  0  0  0  0  0  0
  2  5  2  0  0  0  0
  2  4  1  0  0  0  0
  3 22  1  6  0  0  0
  3  6  1  0  0  0  0
  4  1  1  0  0  0  0
  5  3  1  0  0  0  0
  6  1  1  6  0  0  0
  6 12  1  0  0  0  0
  7  9  1  0  0  0  0
  8 10  2  0  0  0  0
  9 11  1  0  0  0  0
 11 10  1  0  0  0  0
 12  7  1  1  0  0  0
 12  8  1  0  0  0  0
 13  2  1  0  0  0  0
 14 13  2  0  0  0  0
 17 16  1  6  0  0  0
 17 15  1  0  0  0  0
 17 14  1  0  0  0  0
 18 14  1  0  0  0  0
 19 18  1  0  0  0  0
 20 19  1  0  0  0  0
 21 19  2  0  0  0  0
 22 23  1  0  0  0  0
 24 23  1  0  0  0  0
 24 25  2  0  0  0  0
 26 24  1  0  0  0  0
 27 26  1  0  0  0  0
 28 27  1  0  0  0  0
 30 28  1  0  0  0  0
 30 29  1  0  0  0  0
M  END
>  <MODEL>
4

>  <REMARK>
 VINA RESULT:      -7.3      2.376      6.444
  Name = 
  12 active torsions:
  status: ('A' for Active; 'I' for Inactive)
    1  A    between atoms: C_2  and  O_19
    2  A    between atoms: C_3  and  C_11
    3  A    between atoms: C_3  and  S_15
    4  A    between atoms: C_6  and  N_8
    5  A    between atoms: C_10  and  O_19
    6  A    between atoms: C_10  and  C_26
    7  A    between atoms: C_13  and  C_14
    8  A    between atoms: C_13  and  C_22
    9  A    between atoms: C_14  and  S_15
   10  A    between atoms: C_18  and  C_22
   11  A    between atoms: C_18  and  O_28
   12  A    between atoms: C_25  and  C_30
                            x       y       z     vdW  Elec       q    Type
                         _______ _______ _______ _____ _____    ______ ____

>  <TORSDO>
F 12

$$$$
=
 OpenBabel11062413303D

 30 31  0  0  1  0  0  0  0  0999 V2000
  189.9140  178.7480  143.5100 C   0  0  0  0  0  2  0  0  0  0  0  0
  189.7490  176.9870  141.7220 C   0  0  0  0  0  0  0  0  0  0  0  0
  187.9870  177.1550  143.4380 C   0  0  1  0  0  3  0  0  0  0  0  0
  190.6570  177.9250  142.4650 C   0  0  0  0  0  2  0  0  0  0  0  0
  188.6050  176.6110  142.2240 N   0  0  0  0  0  0  0  0  0  0  0  0
  189.0040  177.8560  144.3550 C   0  0  1  0  0  3  0  0  0  0  0  0
  191.2970  177.1310  145.1530 C   0  0  0  0  0  2  0  0  0  0  0  0
  189.2830  176.8260  146.6340 C   0  0  0  0  0  3  0  0  0  0  0  0
  192.0200  176.2080  146.1260 C   0  0  0  0  0  2  0  0  0  0  0  0
  190.0920  176.6370  147.6880 C   0  0  0  0  0  3  0  0  0  0  0  0
  191.5900  176.5420  147.5520 C   0  0  0  0  0  2  0  0  0  0  0  0
  189.7910  176.8500  145.2090 C   0  0  1  0  0  3  0  0  0  0  0  0
  190.2570  176.3990  140.5130 N   0  0  0  0  0  0  0  0  0  0  0  0
  190.0650  176.7800  139.2790 C   0  0  0  0  0  0  0  0  0  0  0  0
  187.9010  177.7080  139.0100 O   0  0  0  0  0  1  0  0  0  0  0  0
  189.5970  178.4510  137.6040 N   0  0  0  0  0  1  0  0  0  0  0  0
  189.2630  178.0000  138.9420 C   0  0  2  0  0  3  0  0  0  0  0  0
  190.6480  176.0720  138.2160 O   0  0  0  0  0  0  0  0  0  0  0  0
  190.0770  174.9800  137.5490 C   0  0  0  0  0  0  0  0  0  0  0  0
  190.7720  173.7790  137.5000 O   0  0  0  0  0  1  0  0  0  0  0  0
  188.9500  175.0620  136.9920 O   0  0  0  0  0  0  0  0  0  0  0  0
  186.8520  178.0960  143.0480 C   0  0  0  0  0  2  0  0  0  0  0  0
  185.6040  178.2320  144.3700 S   0  0  0  0  0  0  0  0  0  0  0  0
  184.2690  178.6780  143.2590 C   0  0  0  0  0  0  0  0  0  0  0  0
  183.1160  178.6640  143.6610 O   0  0  0  0  0  0  0  0  0  0  0  0
  184.5850  179.1440  141.8700 C   0  0  0  0  0  2  0  0  0  0  0  0
  183.9260  178.2880  140.7930 C   0  0  0  0  0  2  0  0  0  0  0  0
  184.3810  178.6790  139.3940 C   0  0  0  0  0  2  0  0  0  0  0  0
  182.9730  180.2690  138.7820 C   0  0  0  0  0  1  0  0  0  0  0  0
  184.2780  180.0610  139.2270 O   0  0  0  0  0  0  0  0  0  0  0  0
  2  5  2  0  0  0  0
  2  4  1  0  0  0  0
  3 22  1  6  0  0  0
  3  6  1  0  0  0  0
  4  1  1  0  0  0  0
  5  3  1  0  0  0  0
  6  1  1  6  0  0  0
  6 12  1  0  0  0  0
  7  9  1  0  0  0  0
  8 10  2  0  0  0  0
  9 11  1  0  0  0  0
 11 10  1  0  0  0  0
 12  7  1  1  0  0  0
 12  8  1  0  0  0  0
 13  2  1  0  0  0  0
 14 13  2  0  0  0  0
 17 16  1  6  0  0  0
 17 15  1  0  0  0  0
 17 14  1  0  0  0  0
 18 14  1  0  0  0  0
 19 18  1  0  0  0  0
 20 19  1  0  0  0  0
 21 19  2  0  0  0  0
 22 23  1  0  0  0  0
 24 25  2  0  0  0  0
 24 23  1  0  0  0  0
 26 24  1  0  0  0  0
 27 26  1  0  0  0  0
 28 27  1  0  0  0  0
 29 30  1  0  0  0  0
 30 28  1  0  0  0  0
M  END
>  <MODEL>
5

>  <REMARK>
 VINA RESULT:      -7.3      2.202      5.911
  Name = 
  12 active torsions:
  status: ('A' for Active; 'I' for Inactive)
    1  A    between atoms: C_2  and  O_19
    2  A    between atoms: C_3  and  C_11
    3  A    between atoms: C_3  and  S_15
    4  A    between atoms: C_6  and  N_8
    5  A    between atoms: C_10  and  O_19
    6  A    between atoms: C_10  and  C_26
    7  A    between atoms: C_13  and  C_14
    8  A    between atoms: C_13  and  C_22
    9  A    between atoms: C_14  and  S_15
   10  A    between atoms: C_18  and  C_22
   11  A    between atoms: C_18  and  O_28
   12  A    between atoms: C_25  and  C_30
                            x       y       z     vdW  Elec       q    Type
                         _______ _______ _______ _____ _____    ______ ____

>  <TORSDO>
F 12

$$$$
=
 OpenBabel11062413303D

 30 31  0  0  1  0  0  0  0  0999 V2000
  188.3620  176.0110  143.2100 C   0  0  0  0  0  2  0  0  0  0  0  0
  186.8230  177.9990  143.1600 C   0  0  0  0  0  0  0  0  0  0  0  0
  189.0940  178.1870  142.2180 C   0  0  1  0  0  3  0  0  0  0  0  0
  187.1260  176.6750  143.8020 C   0  0  0  0  0  2  0  0  0  0  0  0
  187.7460  178.6740  142.5310 N   0  0  0  0  0  0  0  0  0  0  0  0
  189.5170  177.0080  143.1100 C   0  0  1  0  0  3  0  0  0  0  0  0
  188.9840  177.1680  145.5820 C   0  0  0  0  0  2  0  0  0  0  0  0
  191.3670  176.8980  144.8130 C   0  0  0  0  0  3  0  0  0  0  0  0
  189.5740  177.5190  146.9420 C   0  0  0  0  0  2  0  0  0  0  0  0
  191.7250  176.5510  146.0590 C   0  0  0  0  0  3  0  0  0  0  0  0
  190.7690  176.6090  147.2230 C   0  0  0  0  0  2  0  0  0  0  0  0
  190.0090  177.4810  144.4870 C   0  0  1  0  0  3  0  0  0  0  0  0
  185.5250  178.5650  143.3990 N   0  0  0  0  0  0  0  0  0  0  0  0
  184.5480  178.7510  142.5520 C   0  0  0  0  0  0  0  0  0  0  0  0
  185.0950  179.3890  140.3360 O   0  0  0  0  0  1  0  0  0  0  0  0
  183.3520  177.8820  140.6460 N   0  0  0  0  0  1  0  0  0  0  0  0
  184.6500  178.3250  141.1200 C   0  0  2  0  0  3  0  0  0  0  0  0
  183.3390  179.3260  142.9740 O   0  0  0  0  0  0  0  0  0  0  0  0
  182.6520  179.0160  144.1550 C   0  0  0  0  0  0  0  0  0  0  0  0
  181.3260  178.6120  144.0800 O   0  0  0  0  0  0  0  0  0  0  0  0
  183.2080  179.0990  145.2830 O   0  0  0  0  0  1  0  0  0  0  0  0
  189.1670  177.8180  140.7400 C   0  0  0  0  0  2  0  0  0  0  0  0
  190.7910  177.1160  140.2990 S   0  0  0  0  0  0  0  0  0  0  0  0
  190.3960  176.9270  138.5600 C   0  0  0  0  0  0  0  0  0  0  0  0
  189.9260  177.8660  137.9390 O   0  0  0  0  0  0  0  0  0  0  0  0
  190.7240  175.6410  137.8620 C   0  0  0  0  0  2  0  0  0  0  0  0
  192.1930  175.2520  137.9960 C   0  0  0  0  0  2  0  0  0  0  0  0
  193.1240  176.3810  137.5770 C   0  0  0  0  0  2  0  0  0  0  0  0
  194.3570  174.5480  137.6400 C   0  0  0  0  0  1  0  0  0  0  0  0
  194.3520  175.8600  137.1690 O   0  0  0  0  0  0  0  0  0  0  0  0
  1  4  1  0  0  0  0
  2 13  1  0  0  0  0
  2  4  1  0  0  0  0
  3 22  1  6  0  0  0
  3  5  1  0  0  0  0
  3  6  1  0  0  0  0
  5  2  2  0  0  0  0
  6  1  1  1  0  0  0
  6 12  1  0  0  0  0
  7  9  1  0  0  0  0
  8 10  2  0  0  0  0
  9 11  1  0  0  0  0
 10 11  1  0  0  0  0
 12  8  1  1  0  0  0
 12  7  1  0  0  0  0
 14 18  1  0  0  0  0
 14 13  2  0  0  0  0
 16 17  1  0  0  0  0
 17 15  1  6  0  0  0
 17 14  1  0  0  0  0
 18 19  1  0  0  0  0
 19 21  1  0  0  0  0
 20 19  2  0  0  0  0
 23 22  1  0  0  0  0
 24 23  1  0  0  0  0
 25 24  2  0  0  0  0
 26 27  1  0  0  0  0
 26 24  1  0  0  0  0
 28 27  1  0  0  0  0
 30 28  1  0  0  0  0
 30 29  1  0  0  0  0
M  END
>  <MODEL>
6

>  <REMARK>
 VINA RESULT:      -7.0      1.412      2.692
  Name = 
  12 active torsions:
  status: ('A' for Active; 'I' for Inactive)
    1  A    between atoms: C_2  and  O_19
    2  A    between atoms: C_3  and  C_11
    3  A    between atoms: C_3  and  S_15
    4  A    between atoms: C_6  and  N_8
    5  A    between atoms: C_10  and  O_19
    6  A    between atoms: C_10  and  C_26
    7  A    between atoms: C_13  and  C_14
    8  A    between atoms: C_13  and  C_22
    9  A    between atoms: C_14  and  S_15
   10  A    between atoms: C_18  and  C_22
   11  A    between atoms: C_18  and  O_28
   12  A    between atoms: C_25  and  C_30
                            x       y       z     vdW  Elec       q    Type
                         _______ _______ _______ _____ _____    ______ ____

>  <TORSDO>
F 12

$$$$
=
 OpenBabel11062413303D

 30 31  0  0  1  0  0  0  0  0999 V2000
  188.2620  176.0030  143.2950 C   0  0  0  0  0  2  0  0  0  0  0  0
  186.8080  178.0360  143.0140 C   0  0  0  0  0  0  0  0  0  0  0  0
  189.1420  178.0830  142.2200 C   0  0  1  0  0  3  0  0  0  0  0  0
  187.0160  176.7480  143.7580 C   0  0  0  0  0  2  0  0  0  0  0  0
  187.7960  178.6360  142.4080 N   0  0  0  0  0  0  0  0  0  0  0  0
  189.4590  176.9510  143.2120 C   0  0  1  0  0  3  0  0  0  0  0  0
  188.8670  177.1070  145.6710 C   0  0  0  0  0  2  0  0  0  0  0  0
  191.2790  177.0550  144.9470 C   0  0  0  0  0  3  0  0  0  0  0  0
  189.3960  177.5390  147.0330 C   0  0  0  0  0  2  0  0  0  0  0  0
  191.6470  176.7680  146.2050 C   0  0  0  0  0  3  0  0  0  0  0  0
  190.6680  176.7560  147.3520 C   0  0  0  0  0  2  0  0  0  0  0  0
  189.8780  177.4970  144.5860 C   0  0  1  0  0  3  0  0  0  0  0  0
  185.5200  178.6620  143.1280 N   0  0  0  0  0  0  0  0  0  0  0  0
  184.8010  178.8560  144.2010 C   0  0  0  0  0  0  0  0  0  0  0  0
  184.1970  178.2510  146.4110 O   0  0  0  0  0  1  0  0  0  0  0  0
  186.1350  179.5000  146.1050 N   0  0  0  0  0  1  0  0  0  0  0  0
  185.2840  178.4580  145.5610 C   0  0  2  0  0  3  0  0  0  0  0  0
  183.5520  179.4920  144.1160 O   0  0  0  0  0  0  0  0  0  0  0  0
  182.4290  179.0030  143.4360 C   0  0  0  0  0  0  0  0  0  0  0  0
  181.2760  178.7120  144.1550 O   0  0  0  0  0  1  0  0  0  0  0  0
  182.4410  178.8170  142.1900 O   0  0  0  0  0  0  0  0  0  0  0  0
  189.2980  177.6150  140.7760 C   0  0  0  0  0  2  0  0  0  0  0  0
  191.0150  177.1280  140.4070 S   0  0  0  0  0  0  0  0  0  0  0  0
  190.6890  176.7540  138.6830 C   0  0  0  0  0  0  0  0  0  0  0  0
  191.6090  176.7380  137.8820 O   0  0  0  0  0  0  0  0  0  0  0  0
  189.3010  176.3840  138.2550 C   0  0  0  0  0  2  0  0  0  0  0  0
  188.8300  177.1610  137.0310 C   0  0  0  0  0  2  0  0  0  0  0  0
  188.5760  178.6280  137.3480 C   0  0  0  0  0  2  0  0  0  0  0  0
  186.4100  178.2530  137.5810 C   0  0  0  0  0  1  0  0  0  0  0  0
  187.3280  179.0130  136.8570 O   0  0  0  0  0  0  0  0  0  0  0  0
  1  4  1  0  0  0  0
  2 13  1  0  0  0  0
  2  4  1  0  0  0  0
  3 22  1  6  0  0  0
  3  5  1  0  0  0  0
  3  6  1  0  0  0  0
  5  2  2  0  0  0  0
  6  1  1  1  0  0  0
  6 12  1  0  0  0  0
  7  9  1  0  0  0  0
  8 10  2  0  0  0  0
  9 11  1  0  0  0  0
 10 11  1  0  0  0  0
 12  8  1  1  0  0  0
 12  7  1  0  0  0  0
 13 14  2  0  0  0  0
 14 17  1  0  0  0  0
 17 16  1  1  0  0  0
 17 15  1  0  0  0  0
 18 14  1  0  0  0  0
 19 18  1  0  0  0  0
 19 20  1  0  0  0  0
 21 19  2  0  0  0  0
 23 22  1  0  0  0  0
 24 23  1  0  0  0  0
 25 24  2  0  0  0  0
 26 24  1  0  0  0  0
 27 28  1  0  0  0  0
 27 26  1  0  0  0  0
 30 28  1  0  0  0  0
 30 29  1  0  0  0  0
M  END
>  <MODEL>
7

>  <REMARK>
 VINA RESULT:      -6.8      1.199      2.010
  Name = 
  12 active torsions:
  status: ('A' for Active; 'I' for Inactive)
    1  A    between atoms: C_2  and  O_19
    2  A    between atoms: C_3  and  C_11
    3  A    between atoms: C_3  and  S_15
    4  A    between atoms: C_6  and  N_8
    5  A    between atoms: C_10  and  O_19
    6  A    between atoms: C_10  and  C_26
    7  A    between atoms: C_13  and  C_14
    8  A    between atoms: C_13  and  C_22
    9  A    between atoms: C_14  and  S_15
   10  A    between atoms: C_18  and  C_22
   11  A    between atoms: C_18  and  O_28
   12  A    between atoms: C_25  and  C_30
                            x       y       z     vdW  Elec       q    Type
                         _______ _______ _______ _____ _____    ______ ____

>  <TORSDO>
F 12

$$$$
=
 OpenBabel11062413303D

 30 31  0  0  1  0  0  0  0  0999 V2000
  185.8480  179.6780  141.2010 C   0  0  0  0  0  2  0  0  0  0  0  0
  183.9530  178.0260  141.1750 C   0  0  0  0  0  0  0  0  0  0  0  0
  185.3090  178.2990  143.2160 C   0  0  1  0  0  3  0  0  0  0  0  0
  184.9140  178.8300  140.3470 C   0  0  0  0  0  2  0  0  0  0  0  0
  184.2030  177.7480  142.4260 N   0  0  0  0  0  0  0  0  0  0  0  0
  186.4460  178.8480  142.3380 C   0  0  1  0  0  3  0  0  0  0  0  0
  188.5120  178.2930  140.9800 C   0  0  0  0  0  2  0  0  0  0  0  0
  187.8900  176.8890  142.9760 C   0  0  0  0  0  3  0  0  0  0  0  0
  189.4780  177.1700  140.6250 C   0  0  0  0  0  2  0  0  0  0  0  0
  189.1230  176.3590  142.9830 C   0  0  0  0  0  3  0  0  0  0  0  0
  190.1330  176.6460  141.9010 C   0  0  0  0  0  2  0  0  0  0  0  0
  187.3680  177.7290  141.8310 C   0  0  1  0  0  3  0  0  0  0  0  0
  182.8280  177.4420  140.4970 N   0  0  0  0  0  0  0  0  0  0  0  0
  181.6090  177.8990  140.4010 C   0  0  0  0  0  0  0  0  0  0  0  0
  180.8400  179.0400  142.3310 O   0  0  0  0  0  1  0  0  0  0  0  0
  180.0880  179.7660  140.2540 N   0  0  0  0  0  1  0  0  0  0  0  0
  181.2060  179.2130  140.9970 C   0  0  2  0  0  3  0  0  0  0  0  0
  180.6330  177.1820  139.6910 O   0  0  0  0  0  0  0  0  0  0  0  0
  179.8500  176.1390  140.2030 C   0  0  0  0  0  0  0  0  0  0  0  0
  179.1200  176.3480  141.3650 O   0  0  0  0  0  1  0  0  0  0  0  0
  179.7960  175.0150  139.6350 O   0  0  0  0  0  0  0  0  0  0  0  0
  184.7700  179.3700  144.1600 C   0  0  0  0  0  2  0  0  0  0  0  0
  184.0400  178.6390  145.6620 S   0  0  0  0  0  0  0  0  0  0  0  0
  185.5830  178.6160  146.5740 C   0  0  0  0  0  0  0  0  0  0  0  0
  185.7950  179.4630  147.4270 O   0  0  0  0  0  0  0  0  0  0  0  0
  186.5660  177.5090  146.3400 C   0  0  0  0  0  2  0  0  0  0  0  0
  188.0080  178.0000  146.2790 C   0  0  0  0  0  2  0  0  0  0  0  0
  188.9840  176.9810  146.8520 C   0  0  0  0  0  2  0  0  0  0  0  0
  191.0320  176.9770  147.6810 C   0  0  0  0  0  1  0  0  0  0  0  0
  189.7840  177.5820  147.8240 O   0  0  0  0  0  0  0  0  0  0  0  0
  2  5  2  0  0  0  0
  3 22  1  6  0  0  0
  4  2  1  0  0  0  0
  4  1  1  0  0  0  0
  5  3  1  0  0  0  0
  6  1  1  6  0  0  0
  6  3  1  0  0  0  0
  8 10  2  0  0  0  0
  9  7  1  0  0  0  0
  9 11  1  0  0  0  0
 11 10  1  0  0  0  0
 12  7  1  1  0  0  0
 12  6  1  0  0  0  0
 12  8  1  0  0  0  0
 13  2  1  0  0  0  0
 14 13  2  0  0  0  0
 14 17  1  0  0  0  0
 17 16  1  6  0  0  0
 17 15  1  0  0  0  0
 18 19  1  0  0  0  0
 18 14  1  0  0  0  0
 19 20  1  0  0  0  0
 21 19  2  0  0  0  0
 22 23  1  0  0  0  0
 23 24  1  0  0  0  0
 24 25  2  0  0  0  0
 26 24  1  0  0  0  0
 27 26  1  0  0  0  0
 27 28  1  0  0  0  0
 28 30  1  0  0  0  0
 29 30  1  0  0  0  0
M  END
>  <MODEL>
8

>  <REMARK>
 VINA RESULT:      -6.6      3.469      6.539
  Name = 
  12 active torsions:
  status: ('A' for Active; 'I' for Inactive)
    1  A    between atoms: C_2  and  O_19
    2  A    between atoms: C_3  and  C_11
    3  A    between atoms: C_3  and  S_15
    4  A    between atoms: C_6  and  N_8
    5  A    between atoms: C_10  and  O_19
    6  A    between atoms: C_10  and  C_26
    7  A    between atoms: C_13  and  C_14
    8  A    between atoms: C_13  and  C_22
    9  A    between atoms: C_14  and  S_15
   10  A    between atoms: C_18  and  C_22
   11  A    between atoms: C_18  and  O_28
   12  A    between atoms: C_25  and  C_30
                            x       y       z     vdW  Elec       q    Type
                         _______ _______ _______ _____ _____    ______ ____

>  <TORSDO>
F 12

$$$$
=
 OpenBabel11062413303D

 30 31  0  0  1  0  0  0  0  0999 V2000
  190.3840  174.9120  138.0020 C   0  0  0  0  0  2  0  0  0  0  0  0
  192.7120  175.6540  137.4070 C   0  0  0  0  0  0  0  0  0  0  0  0
  191.2990  177.0870  138.8300 C   0  0  1  0  0  3  0  0  0  0  0  0
  191.5600  174.7610  137.0450 C   0  0  0  0  0  2  0  0  0  0  0  0
  192.5400  176.7200  138.1400 N   0  0  0  0  0  0  0  0  0  0  0  0
  190.0640  176.3890  138.2370 C   0  0  1  0  0  3  0  0  0  0  0  0
  188.5280  176.2390  136.2270 C   0  0  0  0  0  2  0  0  0  0  0  0
  189.0240  178.4720  137.2820 C   0  0  0  0  0  3  0  0  0  0  0  0
  187.9540  177.0360  135.0620 C   0  0  0  0  0  2  0  0  0  0  0  0
  187.9800  179.0070  136.6310 C   0  0  0  0  0  3  0  0  0  0  0  0
  187.1860  178.2400  135.6050 C   0  0  0  0  0  2  0  0  0  0  0  0
  189.5640  177.0930  136.9670 C   0  0  1  0  0  3  0  0  0  0  0  0
  193.9790  175.3780  136.7870 N   0  0  0  0  0  0  0  0  0  0  0  0
  195.0220  174.7810  137.2970 C   0  0  0  0  0  0  0  0  0  0  0  0
  195.5520  175.1580  139.5760 O   0  0  0  0  0  1  0  0  0  0  0  0
  195.8010  173.0060  138.7330 N   0  0  0  0  0  1  0  0  0  0  0  0
  195.0160  174.2260  138.6880 C   0  0  2  0  0  3  0  0  0  0  0  0
  196.1850  174.6000  136.5320 O   0  0  0  0  0  0  0  0  0  0  0  0
  197.3390  175.3940  136.5960 C   0  0  0  0  0  0  0  0  0  0  0  0
  197.6140  176.2730  135.5570 O   0  0  0  0  0  0  0  0  0  0  0  0
  198.1330  175.3250  137.5720 O   0  0  0  0  0  1  0  0  0  0  0  0
  191.4430  176.7890  140.3190 C   0  0  0  0  0  2  0  0  0  0  0  0
  190.0250  177.4210  141.2740 S   0  0  0  0  0  0  0  0  0  0  0  0
  190.4560  176.5350  142.7730 C   0  0  0  0  0  0  0  0  0  0  0  0
  190.4040  175.3160  142.7920 O   0  0  0  0  0  0  0  0  0  0  0  0
  190.9560  177.2950  143.9640 C   0  0  0  0  0  2  0  0  0  0  0  0
  189.8700  177.5470  145.0050 C   0  0  0  0  0  2  0  0  0  0  0  0
  190.2950  177.0950  146.3950 C   0  0  0  0  0  2  0  0  0  0  0  0
  192.0240  175.8750  147.0330 C   0  0  0  0  0  1  0  0  0  0  0  0
  191.6860  177.1190  146.5000 O   0  0  0  0  0  0  0  0  0  0  0  0
  2  5  2  0  0  0  0
  3 22  1  1  0  0  0
  4  2  1  0  0  0  0
  4  1  1  0  0  0  0
  5  3  1  0  0  0  0
  6  1  1  6  0  0  0
  6  3  1  0  0  0  0
  9 11  1  0  0  0  0
  9  7  1  0  0  0  0
 10  8  2  0  0  0  0
 11 10  1  0  0  0  0
 12  7  1  1  0  0  0
 12  8  1  0  0  0  0
 12  6  1  0  0  0  0
 13 14  2  0  0  0  0
 13  2  1  0  0  0  0
 14 17  1  0  0  0  0
 17 16  1  6  0  0  0
 17 15  1  0  0  0  0
 18 19  1  0  0  0  0
 18 14  1  0  0  0  0
 19 21  1  0  0  0  0
 20 19  2  0  0  0  0
 22 23  1  0  0  0  0
 23 24  1  0  0  0  0
 24 25  2  0  0  0  0
 24 26  1  0  0  0  0
 26 27  1  0  0  0  0
 27 28  1  0  0  0  0
 28 30  1  0  0  0  0
 30 29  1  0  0  0  0
M  END
>  <MODEL>
9

>  <REMARK>
 VINA RESULT:      -6.5      4.959     10.373
  Name = 
  12 active torsions:
  status: ('A' for Active; 'I' for Inactive)
    1  A    between atoms: C_2  and  O_19
    2  A    between atoms: C_3  and  C_11
    3  A    between atoms: C_3  and  S_15
    4  A    between atoms: C_6  and  N_8
    5  A    between atoms: C_10  and  O_19
    6  A    between atoms: C_10  and  C_26
    7  A    between atoms: C_13  and  C_14
    8  A    between atoms: C_13  and  C_22
    9  A    between atoms: C_14  and  S_15
   10  A    between atoms: C_18  and  C_22
   11  A    between atoms: C_18  and  O_28
   12  A    between atoms: C_25  and  C_30
                            x       y       z     vdW  Elec       q    Type
                         _______ _______ _______ _____ _____    ______ ____

>  <TORSDO>
F 12

$$$$
