=
 OpenBabel11062412173D

 43 48  0  0  1  0  0  0  0  0999 V2000
  181.0490  178.1740  140.1640 C   0  0  1  0  0  3  0  0  0  0  0  0
  181.9320  178.3130  141.4260 C   0  0  0  0  0  2  0  0  0  0  0  0
  183.8820  176.9740  139.8550 O   0  0  0  0  0  1  0  0  0  0  0  0
  181.5170  179.0440  138.9480 C   0  0  1  0  0  0  0  0  0  0  0  0
  185.6650  179.1070  141.3210 C   0  0  1  0  0  3  0  0  0  0  0  0
  181.3100  180.5170  139.2860 C   0  0  0  0  0  1  0  0  0  0  0  0
  183.2830  178.9350  141.0840 C   0  0  2  0  0  3  0  0  0  0  0  0
  186.8180  178.2110  141.8020 C   0  0  0  0  0  2  0  0  0  0  0  0
  185.3020  178.9180  139.8100 C   0  0  2  0  0  3  0  0  0  0  0  0
  187.9620  178.3470  140.8430 C   0  0  0  0  0  3  0  0  0  0  0  0
  187.9040  178.7490  137.3140 C   0  0  0  0  0  2  0  0  0  0  0  0
  187.6800  178.2780  139.5460 C   0  0  0  0  0  0  0  0  0  0  0  0
  188.5730  178.5720  138.5480 O   0  0  0  0  0  0  0  0  0  0  0  0
  186.4310  178.3340  137.5400 C   0  0  2  0  0  3  0  0  0  0  0  0
  183.8700  178.3760  139.8100 C   0  0  1  0  0  0  0  0  0  0  0  0
  180.9180  176.6970  139.8160 C   0  0  0  0  0  1  0  0  0  0  0  0
  184.3860  178.8340  142.1160 C   0  0  2  0  0  3  0  0  0  0  0  0
  186.3110  178.0250  139.0430 C   0  0  2  0  0  3  0  0  0  0  0  0
  183.0220  178.8540  138.6250 C   0  0  0  0  0  2  0  0  0  0  0  0
  186.1120  177.0760  136.7090 C   0  0  1  0  0  3  0  0  0  0  0  0
  186.5560  175.8000  137.4280 C   0  0  2  0  0  3  0  0  0  0  0  0
  187.6650  175.0750  136.6530 C   0  0  0  0  0  2  0  0  0  0  0  0
  187.1290  173.3150  134.9860 C   0  0  0  0  0  1  0  0  0  0  0  0
  185.8500  173.6430  137.0540 C   0  0  0  0  0  0  0  0  0  0  0  0
  185.4920  174.8720  137.5570 O   0  0  0  0  0  0  0  0  0  0  0  0
  185.0930  172.6380  137.1120 O   0  0  0  0  0  0  0  0  0  0  0  0
  187.2060  173.6290  136.4680 C   0  0  2  0  0  3  0  0  0  0  0  0
  184.6320  176.9910  136.3290 C   0  0  0  0  0  2  0  0  0  0  0  0
  184.4890  177.0750  134.9450 O   0  0  0  0  0  0  0  0  0  0  0  0
  183.7990  175.9170  134.5940 C   0  0  0  0  0  1  0  0  0  0  0  0
  184.2050  179.6900  143.2310 O   0  0  0  0  0  0  0  0  0  0  0  0
  184.0010  178.9280  144.3980 C   0  0  0  0  0  2  0  0  0  0  0  0
  185.2030  179.0500  145.3180 C   0  0  0  0  0  2  0  0  0  0  0  0
  185.9780  177.8610  145.2610 O   0  0  0  0  0  0  0  0  0  0  0  0
  189.7610  177.6130  145.8380 C   0  0  0  0  0  2  0  0  0  0  0  0
  188.5670  177.9010  147.9860 C   0  0  0  0  0  2  0  0  0  0  0  0
  189.6390  177.0940  147.2630 C   0  0  0  0  0  2  0  0  0  0  0  0
  188.4520  177.3710  145.0870 C   0  0  0  0  0  2  0  0  0  0  0  0
  187.2800  177.9360  147.2100 C   0  0  0  0  0  3  0  0  0  0  0  0
  187.2230  177.7530  145.8850 C   0  0  0  0  0  0  0  0  0  0  0  0
  180.7300  178.7200  137.6670 C   0  0  0  0  0  2  0  0  0  0  0  0
  181.3650  178.9630  135.3630 O   0  0  0  0  0  1  0  0  0  0  0  0
  180.9990  179.6740  136.5050 C   0  0  0  0  0  2  0  0  0  0  0  0
  1 16  1  6  0  0  0
  1  2  1  0  0  0  0
  4  6  1  1  0  0  0
  4  1  1  0  0  0  0
  5  8  1  1  0  0  0
  5 17  1  0  0  0  0
  7  2  1  1  0  0  0
  7 17  1  0  0  0  0
  9  5  1  0  0  0  0
 10  8  1  0  0  0  0
 11 14  1  0  0  0  0
 11 13  1  0  0  0  0
 12 10  2  0  0  0  0
 13 12  1  0  0  0  0
 14 18  1  0  0  0  0
 15  9  1  0  0  0  0
 15  3  1  0  0  0  0
 15  7  1  0  0  0  0
 17 31  1  0  0  0  0
 18 12  1  0  0  0  0
 18  9  1  0  0  0  0
 19  4  1  0  0  0  0
 19 15  1  0  0  0  0
 20 21  1  0  0  0  0
 20 14  1  0  0  0  0
 21 25  1  0  0  0  0
 22 21  1  0  0  0  0
 23 27  1  0  0  0  0
 24 26  2  0  0  0  0
 24 25  1  0  0  0  0
 27 22  1  0  0  0  0
 27 24  1  0  0  0  0
 28 20  1  0  0  0  0
 29 28  1  0  0  0  0
 30 29  1  0  0  0  0
 31 32  1  0  0  0  0
 32 33  1  0  0  0  0
 34 33  1  0  0  0  0
 34 40  1  0  0  0  0
 35 37  1  0  0  0  0
 37 36  1  0  0  0  0
 38 35  1  0  0  0  0
 38 40  1  0  0  0  0
 39 36  1  0  0  0  0
 40 39  2  0  0  0  0
 41  4  1  0  0  0  0
 42 43  1  0  0  0  0
 43 41  1  0  0  0  0
M  END
>  <MODEL>
1

>  <REMARK>
 VINA RESULT:      -7.2      0.000      0.000
  Name = 
  11 active torsions:
  status: ('A' for Active; 'I' for Inactive)
    1  A    between atoms: C_1  and  C_3
    2  A    between atoms: C_1  and  C_22
    3  A    between atoms: C_1  and  C_34
    4  A    between atoms: C_9  and  C_21
    5  A    between atoms: C_9  and  O_23
    6  A    between atoms: C_12  and  C_31
    7  A    between atoms: C_16  and  C_31
    8  A    between atoms: O_17  and  C_21
    9  A    between atoms: O_17  and  C_33
   10  A    between atoms: C_22  and  O_32
   11  A    between atoms: O_23  and  C_39
                            x       y       z     vdW  Elec       q    Type
                         _______ _______ _______ _____ _____    ______ ____

>  <TORSDO>
F 11

$$$$
=
 OpenBabel11062412173D

 43 48  0  0  1  0  0  0  0  0999 V2000
  189.8240  178.1200  142.9320 C   0  0  1  0  0  3  0  0  0  0  0  0
  188.8160  178.8350  142.0030 C   0  0  0  0  0  2  0  0  0  0  0  0
  190.6210  178.0840  139.9430 O   0  0  0  0  0  1  0  0  0  0  0  0
  189.8850  176.5660  142.7460 C   0  0  1  0  0  0  0  0  0  0  0  0
  187.8620  177.5600  138.5320 C   0  0  1  0  0  3  0  0  0  0  0  0
  188.5700  175.9590  143.2250 C   0  0  0  0  0  1  0  0  0  0  0  0
  188.4090  177.9350  140.8390 C   0  0  2  0  0  3  0  0  0  0  0  0
  188.1100  178.2600  137.1860 C   0  0  0  0  0  2  0  0  0  0  0  0
  189.0110  176.5880  138.9620 C   0  0  2  0  0  3  0  0  0  0  0  0
  188.4910  177.2260  136.1710 C   0  0  0  0  0  3  0  0  0  0  0  0
  190.4430  174.2860  136.5780 C   0  0  0  0  0  2  0  0  0  0  0  0
  189.4030  176.3280  136.5300 C   0  0  0  0  0  0  0  0  0  0  0  0
  189.7160  175.2140  135.7960 O   0  0  0  0  0  0  0  0  0  0  0  0
  190.7790  174.9920  137.9130 C   0  0  2  0  0  3  0  0  0  0  0  0
  189.5830  177.1910  140.2480 C   0  0  1  0  0  0  0  0  0  0  0  0
  191.1870  178.7860  142.7820 C   0  0  0  0  0  1  0  0  0  0  0  0
  187.7060  178.5790  139.6630 C   0  0  2  0  0  3  0  0  0  0  0  0
  190.0690  176.3570  137.8520 C   0  0  2  0  0  3  0  0  0  0  0  0
  190.0690  176.1500  141.2630 C   0  0  0  0  0  2  0  0  0  0  0  0
  192.3030  175.1890  138.0280 C   0  0  1  0  0  3  0  0  0  0  0  0
  193.0490  174.4740  136.9000 C   0  0  2  0  0  3  0  0  0  0  0  0
  194.1120  173.5120  137.4500 C   0  0  0  0  0  2  0  0  0  0  0  0
  196.4540  174.2530  137.8130 C   0  0  0  0  0  1  0  0  0  0  0  0
  195.0660  175.0440  135.9500 C   0  0  0  0  0  0  0  0  0  0  0  0
  193.7390  175.3890  136.0640 O   0  0  0  0  0  0  0  0  0  0  0  0
  195.8690  175.6700  135.2100 O   0  0  0  0  0  0  0  0  0  0  0  0
  195.4300  173.8660  136.7630 C   0  0  2  0  0  3  0  0  0  0  0  0
  192.6950  176.6680  138.0790 C   0  0  0  0  0  2  0  0  0  0  0  0
  193.8650  176.8260  138.8210 O   0  0  0  0  0  0  0  0  0  0  0  0
  193.4280  177.2180  140.0840 C   0  0  0  0  0  1  0  0  0  0  0  0
  186.3620  178.9430  139.9320 O   0  0  0  0  0  0  0  0  0  0  0  0
  185.8770  178.2190  141.0380 C   0  0  0  0  0  2  0  0  0  0  0  0
  185.0830  179.1350  141.9530 C   0  0  0  0  0  2  0  0  0  0  0  0
  184.4730  178.3750  142.9870 O   0  0  0  0  0  0  0  0  0  0  0  0
  184.7000  178.4350  146.8140 C   0  0  0  0  0  2  0  0  0  0  0  0
  186.8780  177.8110  145.8200 C   0  0  0  0  0  2  0  0  0  0  0  0
  186.1960  178.7050  146.8490 C   0  0  0  0  0  2  0  0  0  0  0  0
  184.1350  178.8320  145.4510 C   0  0  0  0  0  2  0  0  0  0  0  0
  186.2390  177.9370  144.4650 C   0  0  0  0  0  3  0  0  0  0  0  0
  184.9780  178.3470  144.2880 C   0  0  0  0  0  0  0  0  0  0  0  0
  191.0380  175.9320  143.5440 C   0  0  0  0  0  2  0  0  0  0  0  0
  192.0330  175.6630  145.7130 O   0  0  0  0  0  1  0  0  0  0  0  0
  191.2130  176.4950  144.9530 C   0  0  0  0  0  2  0  0  0  0  0  0
  1 16  1  6  0  0  0
  2  1  1  0  0  0  0
  3 15  1  0  0  0  0
  4  1  1  0  0  0  0
  4  6  1  1  0  0  0
  4 41  1  0  0  0  0
  5  8  1  6  0  0  0
  5  9  1  0  0  0  0
  5 17  1  0  0  0  0
  7  2  1  1  0  0  0
  9 15  1  0  0  0  0
 10 12  2  0  0  0  0
 10  8  1  0  0  0  0
 11 14  1  0  0  0  0
 12 18  1  0  0  0  0
 13 12  1  0  0  0  0
 13 11  1  0  0  0  0
 14 20  1  0  0  0  0
 15  7  1  0  0  0  0
 15 19  1  0  0  0  0
 17 31  1  0  0  0  0
 17  7  1  0  0  0  0
 18 14  1  0  0  0  0
 18  9  1  0  0  0  0
 19  4  1  0  0  0  0
 20 28  1  0  0  0  0
 21 22  1  0  0  0  0
 21 20  1  0  0  0  0
 24 25  1  0  0  0  0
 24 27  1  0  0  0  0
 25 21  1  0  0  0  0
 26 24  2  0  0  0  0
 27 22  1  0  0  0  0
 27 23  1  0  0  0  0
 28 29  1  0  0  0  0
 29 30  1  0  0  0  0
 31 32  1  0  0  0  0
 32 33  1  0  0  0  0
 33 34  1  0  0  0  0
 34 40  1  0  0  0  0
 35 37  1  0  0  0  0
 36 37  1  0  0  0  0
 38 35  1  0  0  0  0
 39 36  1  0  0  0  0
 40 39  2  0  0  0  0
 40 38  1  0  0  0  0
 41 43  1  0  0  0  0
 43 42  1  0  0  0  0
M  END
>  <MODEL>
2

>  <REMARK>
 VINA RESULT:      -6.9      4.026      7.464
  Name = 
  11 active torsions:
  status: ('A' for Active; 'I' for Inactive)
    1  A    between atoms: C_1  and  C_3
    2  A    between atoms: C_1  and  C_22
    3  A    between atoms: C_1  and  C_34
    4  A    between atoms: C_9  and  C_21
    5  A    between atoms: C_9  and  O_23
    6  A    between atoms: C_12  and  C_31
    7  A    between atoms: C_16  and  C_31
    8  A    between atoms: O_17  and  C_21
    9  A    between atoms: O_17  and  C_33
   10  A    between atoms: C_22  and  O_32
   11  A    between atoms: O_23  and  C_39
                            x       y       z     vdW  Elec       q    Type
                         _______ _______ _______ _____ _____    ______ ____

>  <TORSDO>
F 11

$$$$
=
 OpenBabel11062412173D

 43 48  0  0  1  0  0  0  0  0999 V2000
  189.6950  178.1740  142.9330 C   0  0  1  0  0  3  0  0  0  0  0  0
  188.6950  178.9010  142.0030 C   0  0  0  0  0  2  0  0  0  0  0  0
  190.5010  178.1420  139.9470 O   0  0  0  0  0  1  0  0  0  0  0  0
  189.7440  176.6200  142.7420 C   0  0  1  0  0  0  0  0  0  0  0  0
  187.7430  177.6460  138.5250 C   0  0  1  0  0  3  0  0  0  0  0  0
  188.4230  176.0220  143.2140 C   0  0  0  0  0  1  0  0  0  0  0  0
  188.2850  178.0080  140.8350 C   0  0  2  0  0  3  0  0  0  0  0  0
  188.0000  178.3490  137.1820 C   0  0  0  0  0  2  0  0  0  0  0  0
  188.8820  176.6630  138.9550 C   0  0  2  0  0  3  0  0  0  0  0  0
  188.3760  177.3160  136.1650 C   0  0  0  0  0  3  0  0  0  0  0  0
  190.3030  174.3580  136.5670 C   0  0  0  0  0  2  0  0  0  0  0  0
  189.2790  176.4090  136.5230 C   0  0  0  0  0  0  0  0  0  0  0  0
  189.5860  175.2950  135.7860 O   0  0  0  0  0  0  0  0  0  0  0  0
  190.6400  175.0570  137.9050 C   0  0  2  0  0  3  0  0  0  0  0  0
  189.4550  177.2570  140.2440 C   0  0  1  0  0  0  0  0  0  0  0  0
  191.0630  178.8290  142.7890 C   0  0  0  0  0  1  0  0  0  0  0  0
  187.5910  178.6620  139.6590 C   0  0  2  0  0  3  0  0  0  0  0  0
  189.9410  176.4280  137.8470 C   0  0  2  0  0  3  0  0  0  0  0  0
  189.9290  176.2080  141.2570 C   0  0  0  0  0  2  0  0  0  0  0  0
  192.1650  175.2410  138.0260 C   0  0  1  0  0  3  0  0  0  0  0  0
  192.9000  174.6540  136.8190 C   0  0  2  0  0  3  0  0  0  0  0  0
  193.9740  173.6450  137.2510 C   0  0  0  0  0  2  0  0  0  0  0  0
  196.3170  174.3580  137.6600 C   0  0  0  0  0  1  0  0  0  0  0  0
  194.9000  175.3330  135.9090 C   0  0  0  0  0  0  0  0  0  0  0  0
  193.5740  175.6550  136.0760 O   0  0  0  0  0  0  0  0  0  0  0  0
  195.6910  176.0380  135.2290 O   0  0  0  0  0  0  0  0  0  0  0  0
  195.2810  174.0780  136.5880 C   0  0  2  0  0  3  0  0  0  0  0  0
  192.5590  176.7050  138.2340 C   0  0  0  0  0  2  0  0  0  0  0  0
  193.7680  176.7820  138.9230 O   0  0  0  0  0  0  0  0  0  0  0  0
  193.4220  177.2570  140.1860 C   0  0  0  0  0  1  0  0  0  0  0  0
  186.2490  179.0360  139.9250 O   0  0  0  0  0  0  0  0  0  0  0  0
  185.3740  178.3340  139.0740 C   0  0  0  0  0  2  0  0  0  0  0  0
  183.9720  178.3280  139.6570 C   0  0  0  0  0  2  0  0  0  0  0  0
  183.9470  177.5580  140.8500 O   0  0  0  0  0  0  0  0  0  0  0  0
  185.0340  179.0960  144.1900 C   0  0  0  0  0  2  0  0  0  0  0  0
  182.5950  179.3530  143.8630 C   0  0  0  0  0  2  0  0  0  0  0  0
  183.6750  178.9350  144.8540 C   0  0  0  0  0  2  0  0  0  0  0  0
  185.1430  178.1450  142.9980 C   0  0  0  0  0  2  0  0  0  0  0  0
  182.7470  178.6480  142.5440 C   0  0  0  0  0  3  0  0  0  0  0  0
  183.9110  178.1450  142.1160 C   0  0  0  0  0  0  0  0  0  0  0  0
  190.8890  175.9740  143.5410 C   0  0  0  0  0  2  0  0  0  0  0  0
  191.8410  176.9360  145.5240 O   0  0  0  0  0  1  0  0  0  0  0  0
  190.7830  176.1590  145.0530 C   0  0  0  0  0  2  0  0  0  0  0  0
  1 16  1  6  0  0  0
  2  1  1  0  0  0  0
  3 15  1  0  0  0  0
  4  1  1  0  0  0  0
  4  6  1  1  0  0  0
  4 41  1  0  0  0  0
  5  8  1  6  0  0  0
  5  9  1  0  0  0  0
  5 17  1  0  0  0  0
  7  2  1  1  0  0  0
  9 15  1  0  0  0  0
 10 12  2  0  0  0  0
 10  8  1  0  0  0  0
 11 14  1  0  0  0  0
 12 18  1  0  0  0  0
 13 12  1  0  0  0  0
 13 11  1  0  0  0  0
 14 20  1  0  0  0  0
 15  7  1  0  0  0  0
 15 19  1  0  0  0  0
 17 31  1  0  0  0  0
 17  7  1  0  0  0  0
 18 14  1  0  0  0  0
 18  9  1  0  0  0  0
 19  4  1  0  0  0  0
 20 28  1  0  0  0  0
 21 22  1  0  0  0  0
 21 20  1  0  0  0  0
 24 25  1  0  0  0  0
 24 27  1  0  0  0  0
 25 21  1  0  0  0  0
 26 24  2  0  0  0  0
 27 22  1  0  0  0  0
 27 23  1  0  0  0  0
 28 29  1  0  0  0  0
 29 30  1  0  0  0  0
 32 33  1  0  0  0  0
 32 31  1  0  0  0  0
 33 34  1  0  0  0  0
 34 40  1  0  0  0  0
 35 37  1  0  0  0  0
 36 37  1  0  0  0  0
 38 35  1  0  0  0  0
 39 36  1  0  0  0  0
 40 39  2  0  0  0  0
 40 38  1  0  0  0  0
 41 43  1  0  0  0  0
 43 42  1  0  0  0  0
M  END
>  <MODEL>
3

>  <REMARK>
 VINA RESULT:      -6.4      3.906      7.631
  Name = 
  11 active torsions:
  status: ('A' for Active; 'I' for Inactive)
    1  A    between atoms: C_1  and  C_3
    2  A    between atoms: C_1  and  C_22
    3  A    between atoms: C_1  and  C_34
    4  A    between atoms: C_9  and  C_21
    5  A    between atoms: C_9  and  O_23
    6  A    between atoms: C_12  and  C_31
    7  A    between atoms: C_16  and  C_31
    8  A    between atoms: O_17  and  C_21
    9  A    between atoms: O_17  and  C_33
   10  A    between atoms: C_22  and  O_32
   11  A    between atoms: O_23  and  C_39
                            x       y       z     vdW  Elec       q    Type
                         _______ _______ _______ _____ _____    ______ ____

>  <TORSDO>
F 11

$$$$
=
 OpenBabel11062412173D

 43 48  0  0  1  0  0  0  0  0999 V2000
  188.5970  177.0780  135.8440 C   0  0  1  0  0  3  0  0  0  0  0  0
  189.3430  177.5990  137.0950 C   0  0  0  0  0  2  0  0  0  0  0  0
  186.9250  179.0000  137.5980 O   0  0  0  0  0  1  0  0  0  0  0  0
  187.4110  176.1040  136.1570 C   0  0  1  0  0  0  0  0  0  0  0  0
  187.6880  178.0740  140.5030 C   0  0  1  0  0  3  0  0  0  0  0  0
  187.9750  174.8030  136.7200 C   0  0  0  0  0  1  0  0  0  0  0  0
  188.5140  177.3830  138.3580 C   0  0  2  0  0  3  0  0  0  0  0  0
  187.4990  179.3950  141.2660 C   0  0  0  0  0  2  0  0  0  0  0  0
  186.4850  177.6990  139.5750 C   0  0  2  0  0  3  0  0  0  0  0  0
  186.1570  179.3760  141.9310 C   0  0  0  0  0  3  0  0  0  0  0  0
  183.0930  177.9990  140.7740 C   0  0  0  0  0  2  0  0  0  0  0  0
  185.1210  178.9800  141.1980 C   0  0  0  0  0  0  0  0  0  0  0  0
  183.8720  178.7260  141.7050 O   0  0  0  0  0  0  0  0  0  0  0  0
  183.8980  177.9540  139.4540 C   0  0  2  0  0  3  0  0  0  0  0  0
  187.0550  177.7190  138.1540 C   0  0  1  0  0  0  0  0  0  0  0  0
  188.1730  178.2700  134.9950 C   0  0  0  0  0  1  0  0  0  0  0  0
  188.9290  178.1260  139.6090 C   0  0  2  0  0  3  0  0  0  0  0  0
  185.2500  178.6190  139.7690 C   0  0  2  0  0  3  0  0  0  0  0  0
  186.4340  176.6770  137.2180 C   0  0  0  0  0  2  0  0  0  0  0  0
  183.1540  178.7510  138.3640 C   0  0  1  0  0  3  0  0  0  0  0  0
  182.4060  177.8250  137.4030 C   0  0  2  0  0  3  0  0  0  0  0  0
  180.9000  177.8000  137.7050 C   0  0  0  0  0  2  0  0  0  0  0  0
  179.9250  176.1140  139.2450 C   0  0  0  0  0  1  0  0  0  0  0  0
  181.7970  175.6310  137.7330 C   0  0  0  0  0  0  0  0  0  0  0  0
  182.8520  176.4840  137.5100 O   0  0  0  0  0  0  0  0  0  0  0  0
  181.9350  174.3820  137.8010 O   0  0  0  0  0  0  0  0  0  0  0  0
  180.5030  176.3320  137.8590 C   0  0  2  0  0  3  0  0  0  0  0  0
  182.2020  179.7940  138.9550 C   0  0  0  0  0  2  0  0  0  0  0  0
  182.6920  181.0770  138.7180 O   0  0  0  0  0  0  0  0  0  0  0  0
  181.5740  181.8120  138.3300 C   0  0  0  0  0  1  0  0  0  0  0  0
  190.1010  177.6100  140.2160 O   0  0  0  0  0  0  0  0  0  0  0  0
  189.7580  176.7450  141.2730 C   0  0  0  0  0  2  0  0  0  0  0  0
  190.6370  177.0210  142.4800 C   0  0  0  0  0  2  0  0  0  0  0  0
  190.1820  176.2640  143.5940 O   0  0  0  0  0  0  0  0  0  0  0  0
  188.9990  177.8960  146.8550 C   0  0  0  0  0  2  0  0  0  0  0  0
  187.1420  177.7550  145.2270 C   0  0  0  0  0  2  0  0  0  0  0  0
  187.5410  177.5010  146.6750 C   0  0  0  0  0  2  0  0  0  0  0  0
  189.8880  176.9990  145.9950 C   0  0  0  0  0  2  0  0  0  0  0  0
  188.1000  177.1100  144.2650 C   0  0  0  0  0  3  0  0  0  0  0  0
  189.3660  176.8130  144.5840 C   0  0  0  0  0  0  0  0  0  0  0  0
  186.5830  175.7770  134.9030 C   0  0  0  0  0  2  0  0  0  0  0  0
  184.5730  174.5000  135.2150 O   0  0  0  0  0  1  0  0  0  0  0  0
  185.0710  175.7990  135.1230 C   0  0  0  0  0  2  0  0  0  0  0  0
  1 16  1  1  0  0  0
  1  4  1  0  0  0  0
  1  2  1  0  0  0  0
  3 15  1  0  0  0  0
  4  6  1  1  0  0  0
  4 19  1  0  0  0  0
  5  8  1  6  0  0  0
  7  2  1  6  0  0  0
  7 17  1  0  0  0  0
  8 10  1  0  0  0  0
  9 18  1  0  0  0  0
  9  5  1  0  0  0  0
 11 13  1  0  0  0  0
 12 13  1  0  0  0  0
 12 10  2  0  0  0  0
 14 18  1  0  0  0  0
 14 11  1  0  0  0  0
 15  7  1  0  0  0  0
 15  9  1  0  0  0  0
 17 31  1  0  0  0  0
 17  5  1  0  0  0  0
 18 12  1  0  0  0  0
 19 15  1  0  0  0  0
 20 28  1  0  0  0  0
 20 14  1  0  0  0  0
 21 25  1  0  0  0  0
 21 22  1  0  0  0  0
 21 20  1  0  0  0  0
 22 27  1  0  0  0  0
 24 26  2  0  0  0  0
 24 27  1  0  0  0  0
 25 24  1  0  0  0  0
 27 23  1  0  0  0  0
 29 28  1  0  0  0  0
 30 29  1  0  0  0  0
 31 32  1  0  0  0  0
 32 33  1  0  0  0  0
 33 34  1  0  0  0  0
 34 40  1  0  0  0  0
 36 37  1  0  0  0  0
 37 35  1  0  0  0  0
 38 35  1  0  0  0  0
 39 40  2  0  0  0  0
 39 36  1  0  0  0  0
 40 38  1  0  0  0  0
 41 43  1  0  0  0  0
 41  4  1  0  0  0  0
 43 42  1  0  0  0  0
M  END
>  <MODEL>
4

>  <REMARK>
 VINA RESULT:      -6.4      1.902      5.435
  Name = 
  11 active torsions:
  status: ('A' for Active; 'I' for Inactive)
    1  A    between atoms: C_1  and  C_3
    2  A    between atoms: C_1  and  C_22
    3  A    between atoms: C_1  and  C_34
    4  A    between atoms: C_9  and  C_21
    5  A    between atoms: C_9  and  O_23
    6  A    between atoms: C_12  and  C_31
    7  A    between atoms: C_16  and  C_31
    8  A    between atoms: O_17  and  C_21
    9  A    between atoms: O_17  and  C_33
   10  A    between atoms: C_22  and  O_32
   11  A    between atoms: O_23  and  C_39
                            x       y       z     vdW  Elec       q    Type
                         _______ _______ _______ _____ _____    ______ ____

>  <TORSDO>
F 11

$$$$
=
 OpenBabel11062412173D

 43 48  0  0  1  0  0  0  0  0999 V2000
  189.1630  177.4870  136.5480 C   0  0  1  0  0  3  0  0  0  0  0  0
  189.4570  178.0940  137.9400 C   0  0  0  0  0  2  0  0  0  0  0  0
  186.7720  179.0050  137.7900 O   0  0  0  0  0  1  0  0  0  0  0  0
  188.1420  176.3000  136.5620 C   0  0  1  0  0  0  0  0  0  0  0  0
  186.9340  178.1380  140.8060 C   0  0  1  0  0  3  0  0  0  0  0  0
  188.7790  175.1080  137.2690 C   0  0  0  0  0  1  0  0  0  0  0  0
  188.3910  177.6850  138.9520 C   0  0  2  0  0  3  0  0  0  0  0  0
  186.3130  179.3740  141.4760 C   0  0  0  0  0  2  0  0  0  0  0  0
  186.0970  177.5790  139.6070 C   0  0  2  0  0  3  0  0  0  0  0  0
  184.8740  179.0840  141.7760 C   0  0  0  0  0  3  0  0  0  0  0  0
  182.5190  177.2030  139.8970 C   0  0  0  0  0  2  0  0  0  0  0  0
  184.1510  178.5290  140.8090 C   0  0  0  0  0  0  0  0  0  0  0  0
  182.8860  178.0300  140.9850 O   0  0  0  0  0  0  0  0  0  0  0  0
  183.6250  177.3540  138.8270 C   0  0  2  0  0  3  0  0  0  0  0  0
  186.9950  177.7520  138.3790 C   0  0  1  0  0  0  0  0  0  0  0  0
  188.7520  178.6080  135.6010 C   0  0  0  0  0  1  0  0  0  0  0  0
  188.3280  178.4500  140.2570 C   0  0  2  0  0  3  0  0  0  0  0  0
  184.7040  178.2460  139.4660 C   0  0  2  0  0  3  0  0  0  0  0  0
  186.8380  176.6450  137.3300 C   0  0  0  0  0  2  0  0  0  0  0  0
  183.0450  178.0350  137.5720 C   0  0  1  0  0  3  0  0  0  0  0  0
  183.0570  177.0950  136.3650 C   0  0  2  0  0  3  0  0  0  0  0  0
  181.6670  176.9920  135.7190 C   0  0  0  0  0  2  0  0  0  0  0  0
  180.0580  175.2300  136.4060 C   0  0  0  0  0  1  0  0  0  0  0  0
  182.4840  174.8680  136.2960 C   0  0  0  0  0  0  0  0  0  0  0  0
  183.4220  175.7750  136.7300 O   0  0  0  0  0  0  0  0  0  0  0  0
  182.6170  173.6260  136.4480 O   0  0  0  0  0  0  0  0  0  0  0  0
  181.3310  175.5040  135.6260 C   0  0  2  0  0  3  0  0  0  0  0  0
  181.6380  178.5880  137.8090 C   0  0  0  0  0  2  0  0  0  0  0  0
  181.5950  179.9430  137.4830 O   0  0  0  0  0  0  0  0  0  0  0  0
  181.7050  180.6000  138.7060 C   0  0  0  0  0  1  0  0  0  0  0  0
  189.3840  178.1390  141.1510 O   0  0  0  0  0  0  0  0  0  0  0  0
  189.4810  176.7440  141.3200 C   0  0  0  0  0  2  0  0  0  0  0  0
  189.6360  176.4050  142.7920 C   0  0  0  0  0  2  0  0  0  0  0  0
  189.4840  177.5790  143.5780 O   0  0  0  0  0  0  0  0  0  0  0  0
  186.4330  177.5160  145.8990 C   0  0  0  0  0  2  0  0  0  0  0  0
  188.5290  177.4710  147.2120 C   0  0  0  0  0  2  0  0  0  0  0  0
  187.1610  178.1300  147.0840 C   0  0  0  0  0  2  0  0  0  0  0  0
  187.1890  177.8300  144.6090 C   0  0  0  0  0  2  0  0  0  0  0  0
  189.2860  177.5050  145.9130 C   0  0  0  0  0  3  0  0  0  0  0  0
  188.6840  177.6120  144.7220 C   0  0  0  0  0  0  0  0  0  0  0  0
  187.7350  175.8690  135.1430 C   0  0  0  0  0  2  0  0  0  0  0  0
  186.0940  174.1170  135.0450 O   0  0  0  0  0  1  0  0  0  0  0  0
  186.2590  175.5010  134.9950 C   0  0  0  0  0  2  0  0  0  0  0  0
  1 16  1  6  0  0  0
  1  4  1  0  0  0  0
  1  2  1  0  0  0  0
  3 15  1  0  0  0  0
  4  6  1  1  0  0  0
  4 19  1  0  0  0  0
  5  8  1  6  0  0  0
  7  2  1  6  0  0  0
  7 17  1  0  0  0  0
  8 10  1  0  0  0  0
  9  5  1  0  0  0  0
 11 13  1  0  0  0  0
 12 13  1  0  0  0  0
 12 10  2  0  0  0  0
 14 18  1  0  0  0  0
 14 11  1  0  0  0  0
 15  7  1  0  0  0  0
 15  9  1  0  0  0  0
 17  5  1  0  0  0  0
 17 31  1  0  0  0  0
 18  9  1  0  0  0  0
 18 12  1  0  0  0  0
 19 15  1  0  0  0  0
 20 28  1  0  0  0  0
 20 14  1  0  0  0  0
 21 25  1  0  0  0  0
 21 20  1  0  0  0  0
 22 21  1  0  0  0  0
 24 26  2  0  0  0  0
 24 25  1  0  0  0  0
 27 22  1  0  0  0  0
 27 24  1  0  0  0  0
 27 23  1  0  0  0  0
 29 28  1  0  0  0  0
 29 30  1  0  0  0  0
 31 32  1  0  0  0  0
 32 33  1  0  0  0  0
 33 34  1  0  0  0  0
 34 40  1  0  0  0  0
 35 37  1  0  0  0  0
 37 36  1  0  0  0  0
 38 40  1  0  0  0  0
 38 35  1  0  0  0  0
 39 36  1  0  0  0  0
 40 39  2  0  0  0  0
 41  4  1  0  0  0  0
 43 42  1  0  0  0  0
 43 41  1  0  0  0  0
M  END
>  <MODEL>
5

>  <REMARK>
 VINA RESULT:      -6.2      1.850      5.243
  Name = 
  11 active torsions:
  status: ('A' for Active; 'I' for Inactive)
    1  A    between atoms: C_1  and  C_3
    2  A    between atoms: C_1  and  C_22
    3  A    between atoms: C_1  and  C_34
    4  A    between atoms: C_9  and  C_21
    5  A    between atoms: C_9  and  O_23
    6  A    between atoms: C_12  and  C_31
    7  A    between atoms: C_16  and  C_31
    8  A    between atoms: O_17  and  C_21
    9  A    between atoms: O_17  and  C_33
   10  A    between atoms: C_22  and  O_32
   11  A    between atoms: O_23  and  C_39
                            x       y       z     vdW  Elec       q    Type
                         _______ _______ _______ _____ _____    ______ ____

>  <TORSDO>
F 11

$$$$
=
 OpenBabel11062412173D

 43 48  0  0  1  0  0  0  0  0999 V2000
  186.9600  178.1710  137.1140 C   0  0  1  0  0  3  0  0  0  0  0  0
  187.4380  178.3970  138.5670 C   0  0  0  0  0  2  0  0  0  0  0  0
  184.9020  179.6300  138.9030 O   0  0  0  0  0  1  0  0  0  0  0  0
  185.7870  177.1420  136.9720 C   0  0  1  0  0  0  0  0  0  0  0  0
  185.1680  178.0710  141.6190 C   0  0  1  0  0  3  0  0  0  0  0  0
  186.3030  175.7510  137.3270 C   0  0  0  0  0  1  0  0  0  0  0  0
  186.4040  177.8930  139.5700 C   0  0  2  0  0  3  0  0  0  0  0  0
  184.7760  179.1810  142.6080 C   0  0  0  0  0  2  0  0  0  0  0  0
  184.1740  177.9090  140.4210 C   0  0  2  0  0  3  0  0  0  0  0  0
  183.3380  179.0020  142.9850 C   0  0  0  0  0  3  0  0  0  0  0  0
  180.6090  177.9030  140.9930 C   0  0  0  0  0  2  0  0  0  0  0  0
  182.4740  178.7760  142.0000 C   0  0  0  0  0  0  0  0  0  0  0  0
  181.1690  178.4040  142.1920 O   0  0  0  0  0  0  0  0  0  0  0  0
  181.6430  178.1660  139.8730 C   0  0  2  0  0  3  0  0  0  0  0  0
  184.9920  178.2570  139.1740 C   0  0  1  0  0  0  0  0  0  0  0  0
  186.6380  179.5220  136.4870 C   0  0  0  0  0  1  0  0  0  0  0  0
  186.5470  178.3350  141.0100 C   0  0  2  0  0  3  0  0  0  0  0  0
  182.8800  178.7510  140.5770 C   0  0  2  0  0  3  0  0  0  0  0  0
  184.6050  177.4510  137.9290 C   0  0  0  0  0  2  0  0  0  0  0  0
  181.0710  179.1850  138.8670 C   0  0  1  0  0  3  0  0  0  0  0  0
  181.2940  180.6240  139.3370 C   0  0  2  0  0  3  0  0  0  0  0  0
  179.9620  181.3620  139.5380 C   0  0  0  0  0  2  0  0  0  0  0  0
  178.9330  182.6810  137.7040 C   0  0  0  0  0  1  0  0  0  0  0  0
  181.3570  182.5380  138.0610 C   0  0  0  0  0  0  0  0  0  0  0  0
  182.0240  181.3800  138.3850 O   0  0  0  0  0  0  0  0  0  0  0  0
  181.8350  183.4030  137.2820 O   0  0  0  0  0  0  0  0  0  0  0  0
  180.0470  182.6580  138.7330 C   0  0  2  0  0  3  0  0  0  0  0  0
  181.6320  178.9870  137.4570 C   0  0  0  0  0  2  0  0  0  0  0  0
  180.6120  179.1090  136.5150 O   0  0  0  0  0  0  0  0  0  0  0  0
  181.2740  179.2260  135.2950 C   0  0  0  0  0  1  0  0  0  0  0  0
  187.6120  177.7010  141.6980 O   0  0  0  0  0  0  0  0  0  0  0  0
  188.6620  178.6150  141.9110 C   0  0  0  0  0  2  0  0  0  0  0  0
  189.5420  178.1430  143.0550 C   0  0  0  0  0  2  0  0  0  0  0  0
  188.8290  177.2180  143.8640 O   0  0  0  0  0  0  0  0  0  0  0  0
  189.0860  177.9360  147.6220 C   0  0  0  0  0  2  0  0  0  0  0  0
  186.7670  178.2660  146.8270 C   0  0  0  0  0  2  0  0  0  0  0  0
  187.6250  177.6270  147.9110 C   0  0  0  0  0  2  0  0  0  0  0  0
  189.4990  177.2880  146.3010 C   0  0  0  0  0  2  0  0  0  0  0  0
  187.2370  177.8870  145.4500 C   0  0  0  0  0  3  0  0  0  0  0  0
  188.4900  177.4950  145.1900 C   0  0  0  0  0  0  0  0  0  0  0  0
  185.2190  177.1050  135.5430 C   0  0  0  0  0  2  0  0  0  0  0  0
  183.7350  175.2650  135.1160 O   0  0  0  0  0  1  0  0  0  0  0  0
  183.7740  176.6170  135.4520 C   0  0  0  0  0  2  0  0  0  0  0  0
  1 16  1  1  0  0  0
  1  2  1  0  0  0  0
  3 15  1  0  0  0  0
  4  1  1  0  0  0  0
  4  6  1  1  0  0  0
  4 19  1  0  0  0  0
  5  8  1  1  0  0  0
  7  2  1  6  0  0  0
  7 17  1  0  0  0  0
  8 10  1  0  0  0  0
  9 18  1  0  0  0  0
  9  5  1  0  0  0  0
 11 13  1  0  0  0  0
 12 13  1  0  0  0  0
 12 10  2  0  0  0  0
 14 18  1  0  0  0  0
 14 11  1  0  0  0  0
 15  7  1  0  0  0  0
 15  9  1  0  0  0  0
 17  5  1  0  0  0  0
 17 31  1  0  0  0  0
 18 12  1  0  0  0  0
 19 15  1  0  0  0  0
 20 21  1  0  0  0  0
 20 14  1  0  0  0  0
 21 22  1  0  0  0  0
 23 27  1  0  0  0  0
 24 25  1  0  0  0  0
 24 27  1  0  0  0  0
 25 21  1  0  0  0  0
 26 24  2  0  0  0  0
 27 22  1  0  0  0  0
 28 20  1  0  0  0  0
 29 28  1  0  0  0  0
 30 29  1  0  0  0  0
 31 32  1  0  0  0  0
 32 33  1  0  0  0  0
 33 34  1  0  0  0  0
 34 40  1  0  0  0  0
 35 37  1  0  0  0  0
 36 37  1  0  0  0  0
 38 35  1  0  0  0  0
 39 36  1  0  0  0  0
 40 39  2  0  0  0  0
 40 38  1  0  0  0  0
 41  4  1  0  0  0  0
 42 43  1  0  0  0  0
 43 41  1  0  0  0  0
M  END
>  <MODEL>
6

>  <REMARK>
 VINA RESULT:      -6.0      1.846      5.895
  Name = 
  11 active torsions:
  status: ('A' for Active; 'I' for Inactive)
    1  A    between atoms: C_1  and  C_3
    2  A    between atoms: C_1  and  C_22
    3  A    between atoms: C_1  and  C_34
    4  A    between atoms: C_9  and  C_21
    5  A    between atoms: C_9  and  O_23
    6  A    between atoms: C_12  and  C_31
    7  A    between atoms: C_16  and  C_31
    8  A    between atoms: O_17  and  C_21
    9  A    between atoms: O_17  and  C_33
   10  A    between atoms: C_22  and  O_32
   11  A    between atoms: O_23  and  C_39
                            x       y       z     vdW  Elec       q    Type
                         _______ _______ _______ _____ _____    ______ ____

>  <TORSDO>
F 11

$$$$
=
 OpenBabel11062412173D

 43 48  0  0  1  0  0  0  0  0999 V2000
  190.6120  177.7970  143.4680 C   0  0  1  0  0  3  0  0  0  0  0  0
  189.6910  178.0160  144.6910 C   0  0  0  0  0  2  0  0  0  0  0  0
  187.9680  179.2590  142.8060 O   0  0  0  0  0  1  0  0  0  0  0  0
  190.0600  176.7750  142.4170 C   0  0  1  0  0  0  0  0  0  0  0  0
  185.8890  177.6890  144.5630 C   0  0  1  0  0  3  0  0  0  0  0  0
  190.0630  175.3800  143.0360 C   0  0  0  0  0  1  0  0  0  0  0  0
  188.2770  177.5130  144.4100 C   0  0  2  0  0  3  0  0  0  0  0  0
  184.8530  178.7980  144.8120 C   0  0  0  0  0  2  0  0  0  0  0  0
  186.3070  177.5370  143.0620 C   0  0  2  0  0  3  0  0  0  0  0  0
  183.7230  178.6240  143.8440 C   0  0  0  0  0  3  0  0  0  0  0  0
  183.8050  177.5450  140.4600 C   0  0  0  0  0  2  0  0  0  0  0  0
  184.0400  178.4060  142.5720 C   0  0  0  0  0  0  0  0  0  0  0  0
  183.1380  178.0390  141.6060 O   0  0  0  0  0  0  0  0  0  0  0  0
  185.3140  177.8070  140.6720 C   0  0  2  0  0  3  0  0  0  0  0  0
  187.7970  177.8850  143.0270 C   0  0  1  0  0  0  0  0  0  0  0  0
  190.9430  179.1520  142.8540 C   0  0  0  0  0  1  0  0  0  0  0  0
  187.1750  177.9490  145.3510 C   0  0  2  0  0  3  0  0  0  0  0  0
  185.4400  178.3840  142.0940 C   0  0  2  0  0  3  0  0  0  0  0  0
  188.6000  177.0850  141.9940 C   0  0  0  0  0  2  0  0  0  0  0  0
  185.8140  178.8330  139.6360 C   0  0  1  0  0  3  0  0  0  0  0  0
  187.0160  178.3010  138.8530 C   0  0  2  0  0  3  0  0  0  0  0  0
  186.9990  178.7880  137.3970 C   0  0  0  0  0  2  0  0  0  0  0  0
  185.9160  177.4520  135.6060 C   0  0  0  0  0  1  0  0  0  0  0  0
  187.1170  176.4460  137.4960 C   0  0  0  0  0  0  0  0  0  0  0  0
  187.0220  176.8840  138.7960 O   0  0  0  0  0  0  0  0  0  0  0  0
  187.2020  175.2270  137.1940 O   0  0  0  0  0  0  0  0  0  0  0  0
  187.1290  177.5480  136.5130 C   0  0  2  0  0  3  0  0  0  0  0  0
  184.7050  179.2790  138.6790 C   0  0  0  0  0  2  0  0  0  0  0  0
  184.1840  180.5050  139.0900 O   0  0  0  0  0  0  0  0  0  0  0  0
  182.8430  180.4580  138.7160 C   0  0  0  0  0  1  0  0  0  0  0  0
  187.2180  177.3080  146.6150 O   0  0  0  0  0  0  0  0  0  0  0  0
  187.2560  178.2690  147.6430 C   0  0  0  0  0  2  0  0  0  0  0  0
  188.3100  177.8920  148.6700 C   0  0  0  0  0  2  0  0  0  0  0  0
  189.5870  178.3420  148.2400 O   0  0  0  0  0  0  0  0  0  0  0  0
  192.0060  175.7530  146.7760 C   0  0  0  0  0  2  0  0  0  0  0  0
  192.9420  176.7550  148.8350 C   0  0  0  0  0  2  0  0  0  0  0  0
  192.6820  175.4440  148.1030 C   0  0  0  0  0  2  0  0  0  0  0  0
  190.6400  176.3900  147.0280 C   0  0  0  0  0  2  0  0  0  0  0  0
  191.6980  177.5930  148.9340 C   0  0  0  0  0  3  0  0  0  0  0  0
  190.6700  177.4750  148.0850 C   0  0  0  0  0  0  0  0  0  0  0  0
  190.9100  176.7450  141.1360 C   0  0  0  0  0  2  0  0  0  0  0  0
  190.2860  175.8060  139.0150 O   0  0  0  0  0  1  0  0  0  0  0  0
  190.1100  176.9120  139.8450 C   0  0  0  0  0  2  0  0  0  0  0  0
  1 16  1  6  0  0  0
  1  2  1  0  0  0  0
  3 15  1  0  0  0  0
  4  6  1  1  0  0  0
  4  1  1  0  0  0  0
  5  8  1  6  0  0  0
  5 17  1  0  0  0  0
  7  2  1  1  0  0  0
  7 17  1  0  0  0  0
  9  5  1  0  0  0  0
 10  8  1  0  0  0  0
 11 14  1  0  0  0  0
 11 13  1  0  0  0  0
 12 10  2  0  0  0  0
 13 12  1  0  0  0  0
 14 18  1  0  0  0  0
 15  9  1  0  0  0  0
 15  7  1  0  0  0  0
 17 31  1  0  0  0  0
 18 12  1  0  0  0  0
 18  9  1  0  0  0  0
 19  4  1  0  0  0  0
 19 15  1  0  0  0  0
 20 14  1  0  0  0  0
 21 20  1  0  0  0  0
 22 21  1  0  0  0  0
 23 27  1  0  0  0  0
 24 25  1  0  0  0  0
 25 21  1  0  0  0  0
 26 24  2  0  0  0  0
 27 22  1  0  0  0  0
 27 24  1  0  0  0  0
 28 29  1  0  0  0  0
 28 20  1  0  0  0  0
 30 29  1  0  0  0  0
 31 32  1  0  0  0  0
 32 33  1  0  0  0  0
 34 33  1  0  0  0  0
 35 38  1  0  0  0  0
 35 37  1  0  0  0  0
 36 39  1  0  0  0  0
 37 36  1  0  0  0  0
 38 40  1  0  0  0  0
 40 34  1  0  0  0  0
 40 39  2  0  0  0  0
 41  4  1  0  0  0  0
 42 43  1  0  0  0  0
 43 41  1  0  0  0  0
M  END
>  <MODEL>
7

>  <REMARK>
 VINA RESULT:      -6.0      2.193      5.942
  Name = 
  11 active torsions:
  status: ('A' for Active; 'I' for Inactive)
    1  A    between atoms: C_1  and  C_3
    2  A    between atoms: C_1  and  C_22
    3  A    between atoms: C_1  and  C_34
    4  A    between atoms: C_9  and  C_21
    5  A    between atoms: C_9  and  O_23
    6  A    between atoms: C_12  and  C_31
    7  A    between atoms: C_16  and  C_31
    8  A    between atoms: O_17  and  C_21
    9  A    between atoms: O_17  and  C_33
   10  A    between atoms: C_22  and  O_32
   11  A    between atoms: O_23  and  C_39
                            x       y       z     vdW  Elec       q    Type
                         _______ _______ _______ _____ _____    ______ ____

>  <TORSDO>
F 11

$$$$
=
 OpenBabel11062412173D

 43 48  0  0  1  0  0  0  0  0999 V2000
  182.6800  176.2750  137.5320 C   0  0  1  0  0  3  0  0  0  0  0  0
  181.3870  176.5180  138.3450 C   0  0  0  0  0  2  0  0  0  0  0  0
  183.1140  176.3510  140.5930 O   0  0  0  0  0  1  0  0  0  0  0  0
  183.7030  177.4610  137.5730 C   0  0  1  0  0  0  0  0  0  0  0  0
  181.2300  178.7090  141.4670 C   0  0  1  0  0  3  0  0  0  0  0  0
  183.1100  178.6510  136.8250 C   0  0  0  0  0  1  0  0  0  0  0  0
  181.5680  177.6680  139.3320 C   0  0  2  0  0  3  0  0  0  0  0  0
  180.8840  178.2630  142.8980 C   0  0  0  0  0  2  0  0  0  0  0  0
  182.7600  178.6670  141.1420 C   0  0  2  0  0  3  0  0  0  0  0  0
  181.7660  179.0030  143.8560 C   0  0  0  0  0  3  0  0  0  0  0  0
  185.1640  179.9760  143.4970 C   0  0  0  0  0  2  0  0  0  0  0  0
  183.0620  179.0630  143.5690 C   0  0  0  0  0  0  0  0  0  0  0  0
  183.9620  179.8560  144.2340 O   0  0  0  0  0  0  0  0  0  0  0  0
  185.0630  178.9870  142.3120 C   0  0  2  0  0  3  0  0  0  0  0  0
  182.9040  177.6200  140.0350 C   0  0  1  0  0  0  0  0  0  0  0  0
  183.2940  174.9510  137.9710 C   0  0  0  0  0  1  0  0  0  0  0  0
  180.5380  177.8210  140.4300 C   0  0  2  0  0  3  0  0  0  0  0  0
  183.6450  178.3910  142.3860 C   0  0  2  0  0  3  0  0  0  0  0  0
  184.0080  177.9340  139.0190 C   0  0  0  0  0  2  0  0  0  0  0  0
  186.1170  177.8750  142.4720 C   0  0  1  0  0  3  0  0  0  0  0  0
  187.5140  178.3630  142.0810 C   0  0  2  0  0  3  0  0  0  0  0  0
  187.5750  178.7620  140.5990 C   0  0  0  0  0  2  0  0  0  0  0  0
  188.2360  177.1260  138.8520 C   0  0  0  0  0  1  0  0  0  0  0  0
  189.2140  177.1600  141.1030 C   0  0  0  0  0  0  0  0  0  0  0  0
  188.4930  177.3520  142.2580 O   0  0  0  0  0  0  0  0  0  0  0  0
  190.1810  176.3570  141.0320 O   0  0  0  0  0  0  0  0  0  0  0  0
  188.7470  178.0000  139.9820 C   0  0  2  0  0  3  0  0  0  0  0  0
  186.1300  177.2860  143.8850 C   0  0  0  0  0  2  0  0  0  0  0  0
  187.1530  177.8650  144.6350 O   0  0  0  0  0  0  0  0  0  0  0  0
  186.7780  177.6520  145.9600 C   0  0  0  0  0  1  0  0  0  0  0  0
  179.2920  178.3240  139.9780 O   0  0  0  0  0  0  0  0  0  0  0  0
  179.3260  179.7310  139.9310 C   0  0  0  0  0  2  0  0  0  0  0  0
  179.5330  180.2000  138.5020 C   0  0  0  0  0  2  0  0  0  0  0  0
  180.4820  181.2570  138.4720 O   0  0  0  0  0  0  0  0  0  0  0  0
  181.1810  184.3660  136.3390 C   0  0  0  0  0  2  0  0  0  0  0  0
  180.7060  182.4100  134.9010 C   0  0  0  0  0  2  0  0  0  0  0  0
  180.3820  183.8800  135.1390 C   0  0  0  0  0  2  0  0  0  0  0  0
  180.7370  183.6140  137.5930 C   0  0  0  0  0  2  0  0  0  0  0  0
  180.5350  181.5940  136.1520 C   0  0  0  0  0  3  0  0  0  0  0  0
  180.6030  182.1200  137.3810 C   0  0  0  0  0  0  0  0  0  0  0  0
  185.0460  177.0910  136.9200 C   0  0  0  0  0  2  0  0  0  0  0  0
  185.8950  177.8060  134.7910 O   0  0  0  0  0  1  0  0  0  0  0  0
  184.9880  176.9410  135.4010 C   0  0  0  0  0  2  0  0  0  0  0  0
  1  4  1  0  0  0  0
  1 16  1  1  0  0  0
  1  2  1  0  0  0  0
  4  6  1  6  0  0  0
  4 19  1  0  0  0  0
  5  8  1  1  0  0  0
  7  2  1  1  0  0  0
  7 15  1  0  0  0  0
  7 17  1  0  0  0  0
  8 10  1  0  0  0  0
  9  5  1  0  0  0  0
  9 18  1  0  0  0  0
 11 13  1  0  0  0  0
 12 10  2  0  0  0  0
 12 13  1  0  0  0  0
 14 18  1  0  0  0  0
 14 20  1  0  0  0  0
 14 11  1  0  0  0  0
 15  3  1  0  0  0  0
 15  9  1  0  0  0  0
 17  5  1  0  0  0  0
 18 12  1  0  0  0  0
 19 15  1  0  0  0  0
 20 28  1  0  0  0  0
 21 25  1  0  0  0  0
 21 20  1  0  0  0  0
 22 21  1  0  0  0  0
 23 27  1  0  0  0  0
 24 25  1  0  0  0  0
 26 24  2  0  0  0  0
 27 22  1  0  0  0  0
 27 24  1  0  0  0  0
 28 29  1  0  0  0  0
 29 30  1  0  0  0  0
 31 17  1  0  0  0  0
 32 31  1  0  0  0  0
 33 32  1  0  0  0  0
 34 33  1  0  0  0  0
 35 38  1  0  0  0  0
 36 37  1  0  0  0  0
 36 39  1  0  0  0  0
 37 35  1  0  0  0  0
 39 40  2  0  0  0  0
 40 38  1  0  0  0  0
 40 34  1  0  0  0  0
 41  4  1  0  0  0  0
 42 43  1  0  0  0  0
 43 41  1  0  0  0  0
M  END
>  <MODEL>
8

>  <REMARK>
 VINA RESULT:      -5.9      2.282      7.636
  Name = 
  11 active torsions:
  status: ('A' for Active; 'I' for Inactive)
    1  A    between atoms: C_1  and  C_3
    2  A    between atoms: C_1  and  C_22
    3  A    between atoms: C_1  and  C_34
    4  A    between atoms: C_9  and  C_21
    5  A    between atoms: C_9  and  O_23
    6  A    between atoms: C_12  and  C_31
    7  A    between atoms: C_16  and  C_31
    8  A    between atoms: O_17  and  C_21
    9  A    between atoms: O_17  and  C_33
   10  A    between atoms: C_22  and  O_32
   11  A    between atoms: O_23  and  C_39
                            x       y       z     vdW  Elec       q    Type
                         _______ _______ _______ _____ _____    ______ ____

>  <TORSDO>
F 11

$$$$
=
 OpenBabel11062412173D

 43 48  0  0  1  0  0  0  0  0999 V2000
  188.8910  178.4810  142.7620 C   0  0  1  0  0  3  0  0  0  0  0  0
  188.0790  178.7120  144.0570 C   0  0  0  0  0  2  0  0  0  0  0  0
  186.1220  179.7780  142.2970 O   0  0  0  0  0  1  0  0  0  0  0  0
  188.2990  177.3850  141.8130 C   0  0  1  0  0  0  0  0  0  0  0  0
  184.3050  178.1900  144.3100 C   0  0  1  0  0  3  0  0  0  0  0  0
  188.4360  176.0230  142.4860 C   0  0  0  0  0  1  0  0  0  0  0  0
  186.6740  178.1270  143.9350 C   0  0  2  0  0  3  0  0  0  0  0  0
  183.2380  179.2570  144.6100 C   0  0  0  0  0  2  0  0  0  0  0  0
  184.5870  177.9890  142.7840 C   0  0  2  0  0  3  0  0  0  0  0  0
  182.0340  178.9810  143.7640 C   0  0  0  0  0  3  0  0  0  0  0  0
  181.8550  177.7500  140.4360 C   0  0  0  0  0  2  0  0  0  0  0  0
  182.2410  178.7200  142.4770 C   0  0  0  0  0  0  0  0  0  0  0  0
  181.2740  178.2630  141.6190 O   0  0  0  0  0  0  0  0  0  0  0  0
  183.3610  178.0970  140.4910 C   0  0  2  0  0  3  0  0  0  0  0  0
  186.0470  178.4080  142.5900 C   0  0  1  0  0  0  0  0  0  0  0  0
  189.0900  179.8210  142.0630 C   0  0  0  0  0  1  0  0  0  0  0  0
  185.6430  178.5500  144.9590 C   0  0  2  0  0  3  0  0  0  0  0  0
  183.5900  178.7460  141.8690 C   0  0  2  0  0  3  0  0  0  0  0  0
  186.7910  177.6020  141.5190 C   0  0  0  0  0  2  0  0  0  0  0  0
  183.7060  179.0960  139.3690 C   0  0  1  0  0  3  0  0  0  0  0  0
  184.1900  178.3790  138.1070 C   0  0  2  0  0  3  0  0  0  0  0  0
  183.0670  178.2520  137.0670 C   0  0  0  0  0  2  0  0  0  0  0  0
  181.5990  176.2510  136.9990 C   0  0  0  0  0  1  0  0  0  0  0  0
  183.9830  176.1510  137.5740 C   0  0  0  0  0  0  0  0  0  0  0  0
  184.6220  177.0580  138.3850 O   0  0  0  0  0  0  0  0  0  0  0  0
  184.2440  174.9200  137.5910 O   0  0  0  0  0  0  0  0  0  0  0  0
  182.9860  176.7750  136.6800 C   0  0  2  0  0  3  0  0  0  0  0  0
  182.5360  180.0280  139.0420 C   0  0  0  0  0  2  0  0  0  0  0  0
  183.0130  181.2980  138.7200 O   0  0  0  0  0  0  0  0  0  0  0  0
  181.8780  182.0120  138.3420 C   0  0  0  0  0  1  0  0  0  0  0  0
  185.8390  177.9730  146.2380 O   0  0  0  0  0  0  0  0  0  0  0  0
  186.3700  178.9290  147.1250 C   0  0  0  0  0  2  0  0  0  0  0  0
  187.5680  178.3530  147.8580 C   0  0  0  0  0  2  0  0  0  0  0  0
  188.0280  177.1850  147.1920 O   0  0  0  0  0  0  0  0  0  0  0  0
  191.3930  176.7230  145.4130 C   0  0  0  0  0  2  0  0  0  0  0  0
  191.7000  176.7560  147.8680 C   0  0  0  0  0  2  0  0  0  0  0  0
  192.0610  176.0180  146.5840 C   0  0  0  0  0  2  0  0  0  0  0  0
  189.8740  176.6340  145.5550 C   0  0  0  0  0  2  0  0  0  0  0  0
  190.2150  176.9440  148.0020 C   0  0  0  0  0  3  0  0  0  0  0  0
  189.3830  176.9470  146.9540 C   0  0  0  0  0  0  0  0  0  0  0  0
  189.0260  177.3370  140.4580 C   0  0  0  0  0  2  0  0  0  0  0  0
  188.7630  178.9760  138.7220 O   0  0  0  0  0  1  0  0  0  0  0  0
  188.1910  177.8320  139.2780 C   0  0  0  0  0  2  0  0  0  0  0  0
  1 16  1  6  0  0  0
  1  2  1  0  0  0  0
  3 15  1  0  0  0  0
  4  6  1  1  0  0  0
  4  1  1  0  0  0  0
  5  8  1  6  0  0  0
  5 17  1  0  0  0  0
  7  2  1  1  0  0  0
  7 17  1  0  0  0  0
  9  5  1  0  0  0  0
 10  8  1  0  0  0  0
 11 14  1  0  0  0  0
 11 13  1  0  0  0  0
 12 10  2  0  0  0  0
 13 12  1  0  0  0  0
 14 18  1  0  0  0  0
 15  9  1  0  0  0  0
 15  7  1  0  0  0  0
 17 31  1  0  0  0  0
 18 12  1  0  0  0  0
 18  9  1  0  0  0  0
 19  4  1  0  0  0  0
 19 15  1  0  0  0  0
 20 14  1  0  0  0  0
 21 25  1  0  0  0  0
 21 20  1  0  0  0  0
 22 21  1  0  0  0  0
 24 26  2  0  0  0  0
 24 25  1  0  0  0  0
 27 23  1  0  0  0  0
 27 22  1  0  0  0  0
 27 24  1  0  0  0  0
 28 20  1  0  0  0  0
 29 28  1  0  0  0  0
 30 29  1  0  0  0  0
 31 32  1  0  0  0  0
 32 33  1  0  0  0  0
 34 33  1  0  0  0  0
 35 38  1  0  0  0  0
 35 37  1  0  0  0  0
 36 39  1  0  0  0  0
 37 36  1  0  0  0  0
 38 40  1  0  0  0  0
 40 34  1  0  0  0  0
 40 39  2  0  0  0  0
 41  4  1  0  0  0  0
 42 43  1  0  0  0  0
 43 41  1  0  0  0  0
M  END
>  <MODEL>
9

>  <REMARK>
 VINA RESULT:      -5.3      2.118      5.394
  Name = 
  11 active torsions:
  status: ('A' for Active; 'I' for Inactive)
    1  A    between atoms: C_1  and  C_3
    2  A    between atoms: C_1  and  C_22
    3  A    between atoms: C_1  and  C_34
    4  A    between atoms: C_9  and  C_21
    5  A    between atoms: C_9  and  O_23
    6  A    between atoms: C_12  and  C_31
    7  A    between atoms: C_16  and  C_31
    8  A    between atoms: O_17  and  C_21
    9  A    between atoms: O_17  and  C_33
   10  A    between atoms: C_22  and  O_32
   11  A    between atoms: O_23  and  C_39
                            x       y       z     vdW  Elec       q    Type
                         _______ _______ _______ _____ _____    ______ ____

>  <TORSDO>
F 11

$$$$
