=
 OpenBabel11062415043D

 31 34  0  0  1  0  0  0  0  0999 V2000
  186.6190  178.0290  145.9890 C   0  0  0  0  0  0  0  0  0  0  0  0
  185.2720  178.4740  146.3700 C   0  0  0  0  0  0  0  0  0  0  0  0
  187.5470  177.7860  147.0020 N   0  0  0  0  0  0  0  0  0  0  0  0
  184.7340  178.4060  143.8800 C   0  0  0  0  0  0  0  0  0  0  0  0
  185.9920  177.9790  143.6270 C   0  0  0  0  0  3  0  0  0  0  0  0
  184.2270  178.6190  145.3000 C   0  0  0  0  0  3  0  0  0  0  0  0
  186.9960  177.7780  144.6980 C   0  0  0  0  0  0  0  0  0  0  0  0
  188.3430  177.3280  144.4450 C   0  0  0  0  0  3  0  0  0  0  0  0
  188.7900  177.4130  146.8040 C   0  0  0  0  0  3  0  0  0  0  0  0
  189.2470  177.1400  145.5090 C   0  0  0  0  0  0  0  0  0  0  0  0
  184.9610  178.6930  147.6220 O   0  0  0  0  0  1  0  0  0  0  0  0
  183.8170  178.2870  138.6070 C   0  0  0  0  0  1  0  0  0  0  0  0
  182.5280  177.8090  139.2920 C   0  0  2  0  0  3  0  0  0  0  0  0
  183.7830  178.7840  142.8120 C   0  0  0  0  0  0  0  0  0  0  0  0
  181.4890  178.3690  138.5400 O   0  0  0  0  0  0  0  0  0  0  0  0
  183.7560  178.1530  141.6600 N   0  0  0  0  0  0  0  0  0  0  0  0
  181.2590  179.2370  142.7330 C   0  0  1  0  0  3  0  0  0  0  0  0
  179.6970  180.0650  140.5310 O   0  0  0  0  0  1  0  0  0  0  0  0
  180.2560  178.0780  139.2320 C   0  0  0  0  0  2  0  0  0  0  0  0
  181.2190  178.4890  141.4870 C   0  0  2  0  0  3  0  0  0  0  0  0
  180.6080  178.4060  143.8420 C   0  0  0  0  0  1  0  0  0  0  0  0
  182.5720  178.2930  140.7840 C   0  0  2  0  0  3  0  0  0  0  0  0
  180.1270  178.7360  140.5840 C   0  0  1  0  0  3  0  0  0  0  0  0
  182.5740  179.4530  143.1960 O   0  0  0  0  0  0  0  0  0  0  0  0
  190.6130  176.7240  145.3700 N   0  0  0  0  0  2  0  0  0  0  0  0
  191.0260  176.3720  144.0030 C   0  0  0  0  0  2  0  0  0  0  0  0
  191.6120  178.9090  143.7700 C   0  0  0  0  0  1  0  0  0  0  0  0
  191.6640  177.5280  143.1470 C   0  0  2  0  0  3  0  0  0  0  0  0
  191.2640  177.4700  141.7250 C   0  0  0  0  0  0  0  0  0  0  0  0
  192.1620  177.5320  140.8790 O   0  0  0  0  0  0  0  0  0  0  0  0
  189.9480  177.0070  141.2850 O   0  0  0  0  0  1  0  0  0  0  0  0
  1  2  1  0  0  0  0
  1  3  1  0  0  0  0
  2 11  1  0  0  0  0
  4  6  1  0  0  0  0
  5  4  2  0  0  0  0
  5  7  1  0  0  0  0
  6  2  2  0  0  0  0
  7  1  2  0  0  0  0
  8  7  1  0  0  0  0
  8 10  2  0  0  0  0
  9  3  2  0  0  0  0
 10  9  1  0  0  0  0
 13 12  1  6  0  0  0
 13 22  1  0  0  0  0
 14 24  1  0  0  0  0
 14  4  1  0  0  0  0
 15 19  1  0  0  0  0
 15 13  1  0  0  0  0
 16 14  2  0  0  0  0
 17 24  1  0  0  0  0
 17 21  1  1  0  0  0
 18 23  1  0  0  0  0
 19 23  1  0  0  0  0
 20 17  1  0  0  0  0
 22 20  1  0  0  0  0
 22 16  1  0  0  0  0
 23 20  1  0  0  0  0
 25 10  1  0  0  0  0
 26 25  1  0  0  0  0
 28 27  1  0  0  0  0
 28 26  1  0  0  0  0
 29 28  1  0  0  0  0
 30 29  2  0  0  0  0
 31 29  1  0  0  0  0
M  END
>  <MODEL>
1

>  <REMARK>
 VINA RESULT:      -9.3      0.000      0.000
  Name = 
  5 active torsions:
  status: ('A' for Active; 'I' for Inactive)
    1  A    between atoms: C_3  and  C_14
    2  A    between atoms: C_7  and  C_28
    3  A    between atoms: C_26  and  N_29
    4  A    between atoms: C_28  and  C_31
    5  A    between atoms: N_29  and  C_31
                            x       y       z     vdW  Elec       q    Type
                         _______ _______ _______ _____ _____    ______ ____

>  <TORSDO>
F 5

$$$$
=
 OpenBabel11062415043D

 31 34  0  0  1  0  0  0  0  0999 V2000
  189.2500  177.4870  138.9540 C   0  0  0  0  0  0  0  0  0  0  0  0
  188.0700  178.1450  139.5290 C   0  0  0  0  0  0  0  0  0  0  0  0
  189.2710  177.2520  137.5780 N   0  0  0  0  0  0  0  0  0  0  0  0
  189.3110  178.0350  141.7530 C   0  0  0  0  0  0  0  0  0  0  0  0
  190.3580  177.4490  141.1310 C   0  0  0  0  0  3  0  0  0  0  0  0
  188.0850  178.5150  140.9860 C   0  0  0  0  0  3  0  0  0  0  0  0
  190.3570  177.1460  139.6810 C   0  0  0  0  0  0  0  0  0  0  0  0
  191.4640  176.5170  139.0040 C   0  0  0  0  0  3  0  0  0  0  0  0
  190.2450  176.6490  136.9380 C   0  0  0  0  0  3  0  0  0  0  0  0
  191.4090  176.2710  137.6180 C   0  0  0  0  0  0  0  0  0  0  0  0
  187.0390  178.4560  138.7870 O   0  0  0  0  0  1  0  0  0  0  0  0
  185.9710  178.6950  145.8840 C   0  0  0  0  0  1  0  0  0  0  0  0
  186.9260  177.5550  146.2650 C   0  0  2  0  0  3  0  0  0  0  0  0
  189.2230  178.1760  143.2230 C   0  0  0  0  0  0  0  0  0  0  0  0
  187.1930  177.7460  147.6250 O   0  0  0  0  0  0  0  0  0  0  0  0
  188.1260  177.8740  143.8790 N   0  0  0  0  0  0  0  0  0  0  0  0
  190.7110  177.4650  145.1880 C   0  0  1  0  0  3  0  0  0  0  0  0
  190.3400  177.9770  147.9400 O   0  0  0  0  0  1  0  0  0  0  0  0
  188.2100  176.7900  147.9990 C   0  0  0  0  0  2  0  0  0  0  0  0
  189.5000  177.0750  145.8930 C   0  0  2  0  0  3  0  0  0  0  0  0
  191.4710  176.2080  144.7570 C   0  0  0  0  0  1  0  0  0  0  0  0
  188.1900  177.6620  145.3420 C   0  0  2  0  0  3  0  0  0  0  0  0
  189.5450  177.0040  147.3280 C   0  0  1  0  0  3  0  0  0  0  0  0
  190.4430  178.1340  143.9760 O   0  0  0  0  0  0  0  0  0  0  0  0
  192.4380  175.6290  136.8500 N   0  0  0  0  0  2  0  0  0  0  0  0
  193.7880  175.6990  137.4280 C   0  0  0  0  0  2  0  0  0  0  0  0
  193.9590  173.1830  136.7380 C   0  0  0  0  0  1  0  0  0  0  0  0
  194.6260  174.3660  137.4120 C   0  0  2  0  0  3  0  0  0  0  0  0
  195.2470  174.0690  138.7200 C   0  0  0  0  0  0  0  0  0  0  0  0
  195.5150  172.8890  138.9660 O   0  0  0  0  0  0  0  0  0  0  0  0
  195.8620  175.0950  139.5620 O   0  0  0  0  0  1  0  0  0  0  0  0
  1  2  2  0  0  0  0
  1  7  1  0  0  0  0
  2  6  1  0  0  0  0
  3  1  1  0  0  0  0
  4 14  1  0  0  0  0
  5  4  1  0  0  0  0
  6  4  2  0  0  0  0
  7  5  2  0  0  0  0
  8  7  1  0  0  0  0
  9  3  2  0  0  0  0
  9 10  1  0  0  0  0
 10  8  2  0  0  0  0
 11  2  1  0  0  0  0
 13 12  1  6  0  0  0
 13 15  1  0  0  0  0
 14 16  2  0  0  0  0
 14 24  1  0  0  0  0
 15 19  1  0  0  0  0
 16 22  1  0  0  0  0
 17 21  1  6  0  0  0
 17 20  1  0  0  0  0
 20 23  1  0  0  0  0
 22 20  1  0  0  0  0
 22 13  1  0  0  0  0
 23 18  1  0  0  0  0
 23 19  1  0  0  0  0
 24 17  1  0  0  0  0
 25 26  1  0  0  0  0
 25 10  1  0  0  0  0
 27 28  1  0  0  0  0
 28 26  1  0  0  0  0
 28 29  1  0  0  0  0
 29 30  2  0  0  0  0
 29 31  1  0  0  0  0
M  END
>  <MODEL>
2

>  <REMARK>
 VINA RESULT:      -8.9      4.245      8.374
  Name = 
  5 active torsions:
  status: ('A' for Active; 'I' for Inactive)
    1  A    between atoms: C_3  and  C_14
    2  A    between atoms: C_7  and  C_28
    3  A    between atoms: C_26  and  N_29
    4  A    between atoms: C_28  and  C_31
    5  A    between atoms: N_29  and  C_31
                            x       y       z     vdW  Elec       q    Type
                         _______ _______ _______ _____ _____    ______ ____

>  <TORSDO>
F 5

$$$$
=
 OpenBabel11062415043D

 31 34  0  0  1  0  0  0  0  0999 V2000
  183.0300  178.8910  143.4820 C   0  0  0  0  0  0  0  0  0  0  0  0
  183.9410  178.8190  144.6320 C   0  0  0  0  0  0  0  0  0  0  0  0
  181.7280  179.3430  143.6970 N   0  0  0  0  0  0  0  0  0  0  0  0
  185.7100  178.0620  142.9600 C   0  0  0  0  0  0  0  0  0  0  0  0
  184.8060  178.1780  141.9620 C   0  0  0  0  0  3  0  0  0  0  0  0
  185.3790  178.4540  144.3950 C   0  0  0  0  0  3  0  0  0  0  0  0
  183.4060  178.6000  142.1990 C   0  0  0  0  0  0  0  0  0  0  0  0
  182.4280  178.7230  141.1460 C   0  0  0  0  0  3  0  0  0  0  0  0
  180.8040  179.4300  142.7680 C   0  0  0  0  0  3  0  0  0  0  0  0
  181.1160  179.1470  141.4330 C   0  0  0  0  0  0  0  0  0  0  0  0
  183.5310  179.1150  145.8390 O   0  0  0  0  0  1  0  0  0  0  0  0
  189.6350  177.2050  139.4230 C   0  0  0  0  0  1  0  0  0  0  0  0
  190.2970  177.7580  140.6930 C   0  0  2  0  0  3  0  0  0  0  0  0
  187.0520  177.4700  142.7670 C   0  0  0  0  0  0  0  0  0  0  0  0
  191.4920  177.0400  140.8210 O   0  0  0  0  0  0  0  0  0  0  0  0
  187.8550  177.8820  141.8130 N   0  0  0  0  0  0  0  0  0  0  0  0
  189.0190  176.9330  144.3240 C   0  0  1  0  0  3  0  0  0  0  0  0
  191.4660  175.6760  143.6830 O   0  0  0  0  0  1  0  0  0  0  0  0
  192.0810  177.4140  142.0870 C   0  0  0  0  0  2  0  0  0  0  0  0
  189.9050  177.4430  143.2900 C   0  0  2  0  0  3  0  0  0  0  0  0
  188.9710  177.9290  145.4850 C   0  0  0  0  0  1  0  0  0  0  0  0
  189.2950  177.5520  141.8830 C   0  0  2  0  0  3  0  0  0  0  0  0
  191.2750  177.0050  143.2960 C   0  0  1  0  0  3  0  0  0  0  0  0
  187.6780  176.8440  143.8950 O   0  0  0  0  0  0  0  0  0  0  0  0
  180.0590  179.2770  140.4710 N   0  0  0  0  0  2  0  0  0  0  0  0
  179.9230  180.6110  139.8650 C   0  0  0  0  0  2  0  0  0  0  0  0
  180.9300  179.5100  137.7180 C   0  0  0  0  0  1  0  0  0  0  0  0
  180.5430  180.7910  138.4290 C   0  0  2  0  0  3  0  0  0  0  0  0
  181.5590  181.8630  138.3790 C   0  0  0  0  0  0  0  0  0  0  0  0
  182.7020  181.5800  138.7510 O   0  0  0  0  0  1  0  0  0  0  0  0
  181.3810  183.0960  137.6110 O   0  0  0  0  0  0  0  0  0  0  0  0
  1  3  1  0  0  0  0
  1  2  2  0  0  0  0
  2 11  1  0  0  0  0
  4  6  2  0  0  0  0
  5  7  2  0  0  0  0
  5  4  1  0  0  0  0
  6  2  1  0  0  0  0
  7  1  1  0  0  0  0
  8 10  2  0  0  0  0
  8  7  1  0  0  0  0
  9  3  2  0  0  0  0
 10  9  1  0  0  0  0
 13 12  1  6  0  0  0
 13 15  1  0  0  0  0
 13 22  1  0  0  0  0
 14  4  1  0  0  0  0
 14 24  1  0  0  0  0
 15 19  1  0  0  0  0
 16 22  1  0  0  0  0
 16 14  2  0  0  0  0
 17 21  1  1  0  0  0
 19 23  1  0  0  0  0
 20 23  1  0  0  0  0
 20 17  1  0  0  0  0
 22 20  1  0  0  0  0
 23 18  1  0  0  0  0
 24 17  1  0  0  0  0
 25 10  1  0  0  0  0
 26 25  1  0  0  0  0
 27 28  1  0  0  0  0
 28 26  1  0  0  0  0
 29 28  1  0  0  0  0
 29 30  1  0  0  0  0
 31 29  2  0  0  0  0
M  END
>  <MODEL>
3

>  <REMARK>
 VINA RESULT:      -8.7      2.307      8.571
  Name = 
  5 active torsions:
  status: ('A' for Active; 'I' for Inactive)
    1  A    between atoms: C_3  and  C_14
    2  A    between atoms: C_7  and  C_28
    3  A    between atoms: C_26  and  N_29
    4  A    between atoms: C_28  and  C_31
    5  A    between atoms: N_29  and  C_31
                            x       y       z     vdW  Elec       q    Type
                         _______ _______ _______ _____ _____    ______ ____

>  <TORSDO>
F 5

$$$$
=
 OpenBabel11062415043D

 31 34  0  0  1  0  0  0  0  0999 V2000
  190.6600  177.3320  139.5500 C   0  0  0  0  0  0  0  0  0  0  0  0
  191.7360  177.3920  140.5480 C   0  0  0  0  0  0  0  0  0  0  0  0
  191.0060  177.1240  138.2150 N   0  0  0  0  0  0  0  0  0  0  0  0
  189.8810  177.6520  142.2770 C   0  0  0  0  0  0  0  0  0  0  0  0
  188.9600  177.5670  141.2910 C   0  0  0  0  0  3  0  0  0  0  0  0
  191.3710  177.4910  142.0020 C   0  0  0  0  0  3  0  0  0  0  0  0
  189.3300  177.4050  139.8650 C   0  0  0  0  0  0  0  0  0  0  0  0
  188.3600  177.3180  138.8020 C   0  0  0  0  0  3  0  0  0  0  0  0
  190.1510  177.0770  137.2190 C   0  0  0  0  0  3  0  0  0  0  0  0
  188.7750  177.1470  137.4670 C   0  0  0  0  0  0  0  0  0  0  0  0
  192.9930  177.3100  140.1930 O   0  0  0  0  0  1  0  0  0  0  0  0
  185.8560  178.6710  145.6550 C   0  0  0  0  0  1  0  0  0  0  0  0
  186.7760  177.6620  146.3550 C   0  0  2  0  0  3  0  0  0  0  0  0
  189.5370  177.9950  143.6740 C   0  0  0  0  0  0  0  0  0  0  0  0
  186.7980  178.0600  147.6960 O   0  0  0  0  0  0  0  0  0  0  0  0
  188.3560  177.7170  144.1790 N   0  0  0  0  0  0  0  0  0  0  0  0
  190.6910  177.6670  145.9410 C   0  0  1  0  0  3  0  0  0  0  0  0
  189.8310  178.5380  148.4860 O   0  0  0  0  0  1  0  0  0  0  0  0
  187.7730  177.2350  148.3710 C   0  0  0  0  0  2  0  0  0  0  0  0
  189.3930  177.3020  146.4880 C   0  0  2  0  0  3  0  0  0  0  0  0
  191.5640  176.4140  145.8350 C   0  0  0  0  0  1  0  0  0  0  0  0
  188.1760  177.7190  145.6470 C   0  0  2  0  0  3  0  0  0  0  0  0
  189.1940  177.4380  147.9050 C   0  0  1  0  0  3  0  0  0  0  0  0
  190.6090  178.1390  144.6150 O   0  0  0  0  0  0  0  0  0  0  0  0
  187.9010  177.0760  136.3310 N   0  0  0  0  0  2  0  0  0  0  0  0
  186.7250  177.9570  136.3880 C   0  0  0  0  0  2  0  0  0  0  0  0
  184.4220  177.0370  135.5580 C   0  0  0  0  0  1  0  0  0  0  0  0
  185.3520  177.2680  136.7330 C   0  0  2  0  0  3  0  0  0  0  0  0
  184.7090  177.8480  137.9320 C   0  0  0  0  0  0  0  0  0  0  0  0
  183.8590  177.1620  138.5080 O   0  0  0  0  0  0  0  0  0  0  0  0
  185.2560  178.9980  138.6520 O   0  0  0  0  0  1  0  0  0  0  0  0
  1  7  1  0  0  0  0
  1  2  2  0  0  0  0
  2  6  1  0  0  0  0
  3  1  1  0  0  0  0
  4 14  1  0  0  0  0
  5  4  1  0  0  0  0
  6  4  2  0  0  0  0
  7  5  2  0  0  0  0
  8  7  1  0  0  0  0
  9 10  1  0  0  0  0
  9  3  2  0  0  0  0
 10  8  2  0  0  0  0
 11  2  1  0  0  0  0
 13 12  1  6  0  0  0
 13 15  1  0  0  0  0
 14 16  2  0  0  0  0
 14 24  1  0  0  0  0
 15 19  1  0  0  0  0
 16 22  1  0  0  0  0
 17 21  1  6  0  0  0
 17 20  1  0  0  0  0
 20 23  1  0  0  0  0
 22 13  1  0  0  0  0
 22 20  1  0  0  0  0
 23 19  1  0  0  0  0
 23 18  1  0  0  0  0
 24 17  1  0  0  0  0
 25 26  1  0  0  0  0
 25 10  1  0  0  0  0
 26 28  1  0  0  0  0
 27 28  1  0  0  0  0
 28 29  1  0  0  0  0
 29 30  2  0  0  0  0
 29 31  1  0  0  0  0
M  END
>  <MODEL>
4

>  <REMARK>
 VINA RESULT:      -8.7      3.228      8.798
  Name = 
  5 active torsions:
  status: ('A' for Active; 'I' for Inactive)
    1  A    between atoms: C_3  and  C_14
    2  A    between atoms: C_7  and  C_28
    3  A    between atoms: C_26  and  N_29
    4  A    between atoms: C_28  and  C_31
    5  A    between atoms: N_29  and  C_31
                            x       y       z     vdW  Elec       q    Type
                         _______ _______ _______ _____ _____    ______ ____

>  <TORSDO>
F 5

$$$$
=
 OpenBabel11062415043D

 31 34  0  0  1  0  0  0  0  0999 V2000
  190.2690  177.5020  141.6850 C   0  0  0  0  0  0  0  0  0  0  0  0
  190.4800  177.4650  140.2320 C   0  0  0  0  0  0  0  0  0  0  0  0
  191.3540  177.2270  142.5180 N   0  0  0  0  0  0  0  0  0  0  0  0
  188.0410  178.1790  140.0360 C   0  0  0  0  0  0  0  0  0  0  0  0
  187.9480  178.2040  141.3840 C   0  0  0  0  0  3  0  0  0  0  0  0
  189.3550  177.8800  139.3260 C   0  0  0  0  0  3  0  0  0  0  0  0
  189.0830  177.8540  142.2690 C   0  0  0  0  0  0  0  0  0  0  0  0
  188.9980  177.8710  143.7090 C   0  0  0  0  0  3  0  0  0  0  0  0
  191.3010  177.1970  143.8300 C   0  0  0  0  0  3  0  0  0  0  0  0
  190.1200  177.5440  144.4960 C   0  0  0  0  0  0  0  0  0  0  0  0
  191.6380  177.1280  139.7250 O   0  0  0  0  0  1  0  0  0  0  0  0
  186.1270  177.2450  135.1250 C   0  0  0  0  0  1  0  0  0  0  0  0
  185.0390  176.8060  136.1150 C   0  0  2  0  0  3  0  0  0  0  0  0
  186.8730  178.3470  139.1440 C   0  0  0  0  0  0  0  0  0  0  0  0
  183.8320  177.1960  135.5230 O   0  0  0  0  0  0  0  0  0  0  0  0
  186.6730  177.5550  138.1160 N   0  0  0  0  0  0  0  0  0  0  0  0
  184.3540  178.6540  139.5220 C   0  0  1  0  0  3  0  0  0  0  0  0
  182.3320  179.0690  137.5950 O   0  0  0  0  0  1  0  0  0  0  0  0
  182.7840  176.9450  136.4850 C   0  0  0  0  0  2  0  0  0  0  0  0
  184.1320  177.7310  138.4210 C   0  0  2  0  0  3  0  0  0  0  0  0
  184.0000  177.9610  140.8400 C   0  0  0  0  0  1  0  0  0  0  0  0
  185.3340  177.5040  137.4890 C   0  0  2  0  0  3  0  0  0  0  0  0
  182.8690  177.7860  137.7350 C   0  0  1  0  0  3  0  0  0  0  0  0
  185.7120  179.0020  139.6740 O   0  0  0  0  0  0  0  0  0  0  0  0
  190.1400  177.5020  145.9310 N   0  0  0  0  0  2  0  0  0  0  0  0
  188.9070  177.0060  146.5610 C   0  0  0  0  0  2  0  0  0  0  0  0
  188.0540  177.9540  148.8430 C   0  0  0  0  0  1  0  0  0  0  0  0
  188.0400  178.0700  147.3320 C   0  0  2  0  0  3  0  0  0  0  0  0
  186.7010  178.2540  146.7340 C   0  0  0  0  0  0  0  0  0  0  0  0
  186.3050  177.3840  145.9510 O   0  0  0  0  0  0  0  0  0  0  0  0
  185.7110  179.1900  147.2660 O   0  0  0  0  0  1  0  0  0  0  0  0
  1  7  2  0  0  0  0
  1  3  1  0  0  0  0
  2  1  1  0  0  0  0
  3  9  2  0  0  0  0
  4  5  2  0  0  0  0
  5  7  1  0  0  0  0
  6  4  1  0  0  0  0
  6  2  2  0  0  0  0
  7  8  1  0  0  0  0
  8 10  2  0  0  0  0
  9 10  1  0  0  0  0
 10 25  1  0  0  0  0
 11  2  1  0  0  0  0
 13 12  1  6  0  0  0
 13 22  1  0  0  0  0
 14 24  1  0  0  0  0
 14  4  1  0  0  0  0
 15 13  1  0  0  0  0
 15 19  1  0  0  0  0
 16 14  2  0  0  0  0
 17 24  1  0  0  0  0
 17 21  1  1  0  0  0
 18 23  1  0  0  0  0
 19 23  1  0  0  0  0
 20 17  1  0  0  0  0
 22 16  1  0  0  0  0
 22 20  1  0  0  0  0
 23 20  1  0  0  0  0
 25 26  1  0  0  0  0
 26 28  1  0  0  0  0
 28 27  1  0  0  0  0
 29 31  1  0  0  0  0
 29 28  1  0  0  0  0
 30 29  2  0  0  0  0
M  END
>  <MODEL>
5

>  <REMARK>
 VINA RESULT:      -8.5      2.532      5.273
  Name = 
  5 active torsions:
  status: ('A' for Active; 'I' for Inactive)
    1  A    between atoms: C_3  and  C_14
    2  A    between atoms: C_7  and  C_28
    3  A    between atoms: C_26  and  N_29
    4  A    between atoms: C_28  and  C_31
    5  A    between atoms: N_29  and  C_31
                            x       y       z     vdW  Elec       q    Type
                         _______ _______ _______ _____ _____    ______ ____

>  <TORSDO>
F 5

$$$$
=
 OpenBabel11062415043D

 31 34  0  0  1  0  0  0  0  0999 V2000
  186.9260  178.2950  145.9100 C   0  0  0  0  0  0  0  0  0  0  0  0
  185.6570  178.9350  146.2790 C   0  0  0  0  0  0  0  0  0  0  0  0
  187.9820  178.3460  146.8200 N   0  0  0  0  0  0  0  0  0  0  0  0
  184.7710  178.0650  144.0530 C   0  0  0  0  0  0  0  0  0  0  0  0
  185.9710  177.4920  143.8080 C   0  0  0  0  0  3  0  0  0  0  0  0
  184.4740  178.7810  145.3640 C   0  0  0  0  0  3  0  0  0  0  0  0
  187.1120  177.5970  144.7480 C   0  0  0  0  0  0  0  0  0  0  0  0
  188.3990  176.9960  144.4990 C   0  0  0  0  0  3  0  0  0  0  0  0
  189.1760  177.8430  146.6090 C   0  0  0  0  0  3  0  0  0  0  0  0
  189.4400  177.1170  145.4410 C   0  0  0  0  0  0  0  0  0  0  0  0
  185.5310  179.5860  147.4080 O   0  0  0  0  0  1  0  0  0  0  0  0
  179.5970  179.1950  143.2770 C   0  0  0  0  0  1  0  0  0  0  0  0
  180.3770  179.9080  142.1640 C   0  0  2  0  0  3  0  0  0  0  0  0
  183.6870  178.1250  143.0490 C   0  0  0  0  0  0  0  0  0  0  0  0
  179.5820  179.7730  141.0200 O   0  0  0  0  0  0  0  0  0  0  0  0
  182.6380  178.8970  143.2140 N   0  0  0  0  0  0  0  0  0  0  0  0
  183.6130  178.4060  140.5000 C   0  0  1  0  0  3  0  0  0  0  0  0
  181.3590  178.3720  138.7990 O   0  0  0  0  0  1  0  0  0  0  0  0
  180.3420  180.2920  139.9070 C   0  0  0  0  0  2  0  0  0  0  0  0
  182.4880  179.3080  140.6870 C   0  0  2  0  0  3  0  0  0  0  0  0
  184.8460  179.2150  140.0910 C   0  0  0  0  0  1  0  0  0  0  0  0
  181.7840  179.2210  142.0500 C   0  0  2  0  0  3  0  0  0  0  0  0
  181.5900  179.5070  139.5820 C   0  0  1  0  0  3  0  0  0  0  0  0
  184.0040  177.7690  141.6960 O   0  0  0  0  0  0  0  0  0  0  0  0
  190.7630  176.5850  145.2850 N   0  0  0  0  0  2  0  0  0  0  0  0
  191.1790  176.3350  143.8960 C   0  0  0  0  0  2  0  0  0  0  0  0
  191.5530  178.9200  143.7800 C   0  0  0  0  0  1  0  0  0  0  0  0
  191.7160  177.5780  143.0940 C   0  0  2  0  0  3  0  0  0  0  0  0
  191.3160  177.5530  141.6710 C   0  0  0  0  0  0  0  0  0  0  0  0
  192.2130  177.4320  140.8310 O   0  0  0  0  0  0  0  0  0  0  0  0
  189.9400  177.3180  141.2330 O   0  0  0  0  0  1  0  0  0  0  0  0
  1  2  1  0  0  0  0
  1  3  1  0  0  0  0
  2 11  1  0  0  0  0
  4  6  1  0  0  0  0
  5  4  2  0  0  0  0
  5  7  1  0  0  0  0
  6  2  2  0  0  0  0
  7  1  2  0  0  0  0
  8  7  1  0  0  0  0
  8 10  2  0  0  0  0
  9  3  2  0  0  0  0
 10  9  1  0  0  0  0
 13 12  1  1  0  0  0
 14 16  2  0  0  0  0
 14  4  1  0  0  0  0
 15 13  1  0  0  0  0
 17 21  1  1  0  0  0
 17 20  1  0  0  0  0
 17 24  1  0  0  0  0
 18 23  1  0  0  0  0
 19 15  1  0  0  0  0
 20 22  1  0  0  0  0
 22 13  1  0  0  0  0
 22 16  1  0  0  0  0
 23 19  1  0  0  0  0
 23 20  1  0  0  0  0
 24 14  1  0  0  0  0
 25 10  1  0  0  0  0
 26 25  1  0  0  0  0
 28 27  1  0  0  0  0
 28 26  1  0  0  0  0
 29 28  1  0  0  0  0
 30 29  2  0  0  0  0
 31 29  1  0  0  0  0
M  END
>  <MODEL>
6

>  <REMARK>
 VINA RESULT:      -8.4      1.051      2.218
  Name = 
  5 active torsions:
  status: ('A' for Active; 'I' for Inactive)
    1  A    between atoms: C_3  and  C_14
    2  A    between atoms: C_7  and  C_28
    3  A    between atoms: C_26  and  N_29
    4  A    between atoms: C_28  and  C_31
    5  A    between atoms: N_29  and  C_31
                            x       y       z     vdW  Elec       q    Type
                         _______ _______ _______ _____ _____    ______ ____

>  <TORSDO>
F 5

$$$$
=
 OpenBabel11062415043D

 31 34  0  0  1  0  0  0  0  0999 V2000
  186.0180  178.3240  144.4270 C   0  0  0  0  0  0  0  0  0  0  0  0
  184.9800  178.6650  143.4440 C   0  0  0  0  0  0  0  0  0  0  0  0
  185.6800  178.3480  145.7800 N   0  0  0  0  0  0  0  0  0  0  0  0
  186.7380  178.1540  141.6710 C   0  0  0  0  0  0  0  0  0  0  0  0
  187.6200  177.8410  142.6460 C   0  0  0  0  0  3  0  0  0  0  0  0
  185.2930  178.5230  141.9810 C   0  0  0  0  0  3  0  0  0  0  0  0
  187.2810  177.9240  144.0860 C   0  0  0  0  0  0  0  0  0  0  0  0
  188.2120  177.5980  145.1380 C   0  0  0  0  0  3  0  0  0  0  0  0
  186.5140  178.0940  146.7630 C   0  0  0  0  0  3  0  0  0  0  0  0
  187.8230  177.6800  146.4890 C   0  0  0  0  0  0  0  0  0  0  0  0
  183.7840  179.0350  143.8250 O   0  0  0  0  0  1  0  0  0  0  0  0
  190.6320  177.2420  138.1130 C   0  0  0  0  0  1  0  0  0  0  0  0
  189.3400  176.6710  137.5110 C   0  0  2  0  0  3  0  0  0  0  0  0
  187.1160  178.2530  140.2440 C   0  0  0  0  0  0  0  0  0  0  0  0
  189.4110  176.9750  136.1470 O   0  0  0  0  0  0  0  0  0  0  0  0
  188.0470  177.4860  139.7250 N   0  0  0  0  0  0  0  0  0  0  0  0
  185.8050  178.3200  138.0390 C   0  0  1  0  0  3  0  0  0  0  0  0
  186.8060  178.6280  135.4170 O   0  0  0  0  0  1  0  0  0  0  0  0
  188.1470  176.5960  135.5590 C   0  0  0  0  0  2  0  0  0  0  0  0
  186.8050  177.4240  137.4810 C   0  0  2  0  0  3  0  0  0  0  0  0
  184.5010  177.5500  138.2570 C   0  0  0  0  0  1  0  0  0  0  0  0
  188.1310  177.3400  138.2550 C   0  0  2  0  0  3  0  0  0  0  0  0
  186.9640  177.3940  136.0530 C   0  0  1  0  0  3  0  0  0  0  0  0
  186.1480  178.7820  139.3280 O   0  0  0  0  0  0  0  0  0  0  0  0
  188.6730  177.4080  147.6130 N   0  0  0  0  0  2  0  0  0  0  0  0
  189.6910  176.3700  147.3920 C   0  0  0  0  0  2  0  0  0  0  0  0
  191.3640  177.0350  145.4950 C   0  0  0  0  0  1  0  0  0  0  0  0
  191.1260  176.8760  146.9830 C   0  0  2  0  0  3  0  0  0  0  0  0
  192.2040  176.1790  147.7160 C   0  0  0  0  0  0  0  0  0  0  0  0
  192.7630  175.2380  147.1440 O   0  0  0  0  0  0  0  0  0  0  0  0
  192.8610  176.7440  148.8950 O   0  0  0  0  0  1  0  0  0  0  0  0
  1  3  1  0  0  0  0
  2 11  1  0  0  0  0
  2  1  1  0  0  0  0
  3  9  2  0  0  0  0
  4  6  1  0  0  0  0
  4  5  2  0  0  0  0
  5  7  1  0  0  0  0
  6  2  2  0  0  0  0
  7  1  2  0  0  0  0
  7  8  1  0  0  0  0
  8 10  2  0  0  0  0
 10  9  1  0  0  0  0
 10 25  1  0  0  0  0
 13 12  1  1  0  0  0
 13 22  1  0  0  0  0
 14  4  1  0  0  0  0
 15 13  1  0  0  0  0
 16 14  2  0  0  0  0
 17 21  1  1  0  0  0
 17 24  1  0  0  0  0
 18 23  1  0  0  0  0
 19 23  1  0  0  0  0
 19 15  1  0  0  0  0
 20 17  1  0  0  0  0
 20 22  1  0  0  0  0
 22 16  1  0  0  0  0
 23 20  1  0  0  0  0
 24 14  1  0  0  0  0
 26 25  1  0  0  0  0
 27 28  1  0  0  0  0
 28 26  1  0  0  0  0
 28 29  1  0  0  0  0
 29 31  1  0  0  0  0
 30 29  2  0  0  0  0
M  END
>  <MODEL>
7

>  <REMARK>
 VINA RESULT:      -8.3      3.594      5.396
  Name = 
  5 active torsions:
  status: ('A' for Active; 'I' for Inactive)
    1  A    between atoms: C_3  and  C_14
    2  A    between atoms: C_7  and  C_28
    3  A    between atoms: C_26  and  N_29
    4  A    between atoms: C_28  and  C_31
    5  A    between atoms: N_29  and  C_31
                            x       y       z     vdW  Elec       q    Type
                         _______ _______ _______ _____ _____    ______ ____

>  <TORSDO>
F 5

$$$$
=
 OpenBabel11062415043D

 31 34  0  0  1  0  0  0  0  0999 V2000
  189.0820  177.5770  141.3050 C   0  0  0  0  0  0  0  0  0  0  0  0
  188.4460  178.0300  140.0620 C   0  0  0  0  0  0  0  0  0  0  0  0
  190.4010  177.1270  141.2480 N   0  0  0  0  0  0  0  0  0  0  0  0
  186.4200  178.5850  141.5060 C   0  0  0  0  0  0  0  0  0  0  0  0
  187.0930  178.1630  142.6000 C   0  0  0  0  0  3  0  0  0  0  0  0
  187.0710  178.6330  140.1290 C   0  0  0  0  0  3  0  0  0  0  0  0
  188.4740  177.6290  142.5300 C   0  0  0  0  0  0  0  0  0  0  0  0
  189.2030  177.1700  143.6860 C   0  0  0  0  0  3  0  0  0  0  0  0
  191.0800  176.6680  142.2730 C   0  0  0  0  0  3  0  0  0  0  0  0
  190.5210  176.6890  143.5570 C   0  0  0  0  0  0  0  0  0  0  0  0
  189.0760  177.9650  138.9170 O   0  0  0  0  0  1  0  0  0  0  0  0
  181.8110  178.3630  138.7930 C   0  0  0  0  0  1  0  0  0  0  0  0
  181.5030  177.9070  140.2270 C   0  0  2  0  0  3  0  0  0  0  0  0
  184.9860  178.9470  141.5330 C   0  0  0  0  0  0  0  0  0  0  0  0
  180.2510  178.4580  140.5210 O   0  0  0  0  0  0  0  0  0  0  0  0
  184.0980  178.2930  140.8190 N   0  0  0  0  0  0  0  0  0  0  0  0
  183.2860  179.4150  143.3960 C   0  0  1  0  0  3  0  0  0  0  0  0
  180.5870  180.2060  143.1450 O   0  0  0  0  0  1  0  0  0  0  0  0
  179.9820  178.1890  141.9150 C   0  0  0  0  0  2  0  0  0  0  0  0
  182.3190  178.6410  142.6330 C   0  0  2  0  0  3  0  0  0  0  0  0
  183.7180  178.6110  144.6250 C   0  0  0  0  0  1  0  0  0  0  0  0
  182.6620  178.4210  141.1510 C   0  0  2  0  0  3  0  0  0  0  0  0
  180.9220  178.8760  142.8760 C   0  0  1  0  0  3  0  0  0  0  0  0
  184.4870  179.6310  142.6900 O   0  0  0  0  0  0  0  0  0  0  0  0
  191.3270  176.1840  144.6320 N   0  0  0  0  0  2  0  0  0  0  0  0
  191.6820  177.1680  145.6650 C   0  0  0  0  0  2  0  0  0  0  0  0
  191.6880  175.4160  147.6070 C   0  0  0  0  0  1  0  0  0  0  0  0
  191.2840  176.8020  147.1440 C   0  0  2  0  0  3  0  0  0  0  0  0
  189.8940  177.1870  147.4700 C   0  0  0  0  0  0  0  0  0  0  0  0
  189.0010  176.3840  147.1850 O   0  0  0  0  0  0  0  0  0  0  0  0
  189.5640  178.2700  148.3970 O   0  0  0  0  0  1  0  0  0  0  0  0
  1  7  1  0  0  0  0
  2  6  2  0  0  0  0
  2  1  1  0  0  0  0
  3  1  2  0  0  0  0
  3  9  1  0  0  0  0
  4 14  1  0  0  0  0
  4  5  2  0  0  0  0
  6  4  1  0  0  0  0
  7  5  1  0  0  0  0
  7  8  2  0  0  0  0
  9 10  2  0  0  0  0
 10  8  1  0  0  0  0
 10 25  1  0  0  0  0
 11  2  1  0  0  0  0
 13 12  1  6  0  0  0
 13 15  1  0  0  0  0
 13 22  1  0  0  0  0
 14 24  1  0  0  0  0
 15 19  1  0  0  0  0
 16 22  1  0  0  0  0
 16 14  2  0  0  0  0
 17 21  1  1  0  0  0
 19 23  1  0  0  0  0
 20 23  1  0  0  0  0
 20 17  1  0  0  0  0
 22 20  1  0  0  0  0
 23 18  1  0  0  0  0
 24 17  1  0  0  0  0
 25 26  1  0  0  0  0
 26 28  1  0  0  0  0
 28 29  1  0  0  0  0
 28 27  1  0  0  0  0
 29 31  1  0  0  0  0
 30 29  2  0  0  0  0
M  END
>  <MODEL>
8

>  <REMARK>
 VINA RESULT:      -8.2      2.281      4.189
  Name = 
  5 active torsions:
  status: ('A' for Active; 'I' for Inactive)
    1  A    between atoms: C_3  and  C_14
    2  A    between atoms: C_7  and  C_28
    3  A    between atoms: C_26  and  N_29
    4  A    between atoms: C_28  and  C_31
    5  A    between atoms: N_29  and  C_31
                            x       y       z     vdW  Elec       q    Type
                         _______ _______ _______ _____ _____    ______ ____

>  <TORSDO>
F 5

$$$$
=
 OpenBabel11062415043D

 31 34  0  0  1  0  0  0  0  0999 V2000
  185.3070  178.3600  144.7170 C   0  0  0  0  0  0  0  0  0  0  0  0
  183.9620  178.9030  144.4830 C   0  0  0  0  0  0  0  0  0  0  0  0
  185.7650  178.2720  146.0310 N   0  0  0  0  0  0  0  0  0  0  0  0
  184.3850  178.4170  142.0170 C   0  0  0  0  0  0  0  0  0  0  0  0
  185.6010  177.9170  142.3310 C   0  0  0  0  0  3  0  0  0  0  0  0
  183.4080  178.8890  143.0860 C   0  0  0  0  0  3  0  0  0  0  0  0
  186.1120  177.8780  143.7220 C   0  0  0  0  0  0  0  0  0  0  0  0
  187.4080  177.3530  144.0720 C   0  0  0  0  0  3  0  0  0  0  0  0
  186.9530  177.8350  146.3810 C   0  0  0  0  0  3  0  0  0  0  0  0
  187.8300  177.3270  145.4160 C   0  0  0  0  0  0  0  0  0  0  0  0
  183.2300  179.3460  145.4730 O   0  0  0  0  0  1  0  0  0  0  0  0
  185.4180  177.3090  136.8830 C   0  0  0  0  0  1  0  0  0  0  0  0
  183.9200  177.0510  137.0980 C   0  0  2  0  0  3  0  0  0  0  0  0
  183.9370  178.6300  140.6230 C   0  0  0  0  0  0  0  0  0  0  0  0
  183.3020  177.5100  135.9300 O   0  0  0  0  0  0  0  0  0  0  0  0
  184.2470  177.7870  139.6650 N   0  0  0  0  0  0  0  0  0  0  0  0
  181.6910  179.2040  139.5250 C   0  0  1  0  0  3  0  0  0  0  0  0
  181.1450  179.6670  136.7940 O   0  0  0  0  0  1  0  0  0  0  0  0
  181.8750  177.4330  136.1430 C   0  0  0  0  0  2  0  0  0  0  0  0
  182.0070  178.2270  138.4950 C   0  0  2  0  0  3  0  0  0  0  0  0
  180.5850  178.6480  140.4250 C   0  0  0  0  0  1  0  0  0  0  0  0
  183.4850  177.8170  138.3970 C   0  0  2  0  0  3  0  0  0  0  0  0
  181.3540  178.3530  137.2200 C   0  0  1  0  0  3  0  0  0  0  0  0
  182.7680  179.4310  140.4080 O   0  0  0  0  0  0  0  0  0  0  0  0
  189.1060  176.8550  145.8740 N   0  0  0  0  0  2  0  0  0  0  0  0
  190.1830  177.8560  145.8730 C   0  0  0  0  0  2  0  0  0  0  0  0
  191.3510  178.9550  143.8080 C   0  0  0  0  0  1  0  0  0  0  0  0
  191.2400  177.7430  144.7120 C   0  0  2  0  0  3  0  0  0  0  0  0
  191.1760  176.4450  144.0090 C   0  0  0  0  0  0  0  0  0  0  0  0
  190.5740  176.4120  142.9310 O   0  0  0  0  0  0  0  0  0  0  0  0
  192.0540  175.3190  144.3310 O   0  0  0  0  0  1  0  0  0  0  0  0
  1  3  1  0  0  0  0
  2  1  1  0  0  0  0
  2 11  1  0  0  0  0
  3  9  2  0  0  0  0
  4  5  2  0  0  0  0
  4  6  1  0  0  0  0
  5  7  1  0  0  0  0
  6  2  2  0  0  0  0
  7  8  1  0  0  0  0
  7  1  2  0  0  0  0
  8 10  2  0  0  0  0
 10 25  1  0  0  0  0
 10  9  1  0  0  0  0
 13 12  1  6  0  0  0
 13 22  1  0  0  0  0
 14  4  1  0  0  0  0
 15 19  1  0  0  0  0
 15 13  1  0  0  0  0
 16 14  2  0  0  0  0
 17 24  1  0  0  0  0
 17 21  1  1  0  0  0
 18 23  1  0  0  0  0
 19 23  1  0  0  0  0
 20 17  1  0  0  0  0
 22 20  1  0  0  0  0
 22 16  1  0  0  0  0
 23 20  1  0  0  0  0
 24 14  1  0  0  0  0
 26 25  1  0  0  0  0
 27 28  1  0  0  0  0
 28 26  1  0  0  0  0
 29 31  1  0  0  0  0
 29 28  1  0  0  0  0
 30 29  2  0  0  0  0
M  END
>  <MODEL>
9

>  <REMARK>
 VINA RESULT:      -8.2      1.820      2.575
  Name = 
  5 active torsions:
  status: ('A' for Active; 'I' for Inactive)
    1  A    between atoms: C_3  and  C_14
    2  A    between atoms: C_7  and  C_28
    3  A    between atoms: C_26  and  N_29
    4  A    between atoms: C_28  and  C_31
    5  A    between atoms: N_29  and  C_31
                            x       y       z     vdW  Elec       q    Type
                         _______ _______ _______ _____ _____    ______ ____

>  <TORSDO>
F 5

$$$$
