=
 OpenBabel11062414443D

 27 28  0  0  1  0  0  0  0  0999 V2000
  186.9720  178.5330  140.1380 N   0  0  0  0  0  2  0  0  0  0  0  0
  184.7850  179.3530  139.8730 N   0  0  0  0  0  2  0  0  0  0  0  0
  185.7480  179.0410  140.6750 C   0  0  0  0  0  0  0  0  0  0  0  0
  185.5850  179.2730  142.1410 C   0  0  0  0  0  2  0  0  0  0  0  0
  184.6420  178.2400  142.7340 C   0  0  0  0  0  2  0  0  0  0  0  0
  183.1440  179.4290  144.2620 C   0  0  0  0  0  2  0  0  0  0  0  0
  184.2150  178.6510  144.1030 C   0  0  0  0  0  0  0  0  0  0  0  0
  184.8500  178.0000  145.2910 C   0  0  0  0  0  2  0  0  0  0  0  0
  187.3190  177.7900  145.0860 C   0  0  0  0  0  3  0  0  0  0  0  0
  186.1980  178.6360  145.6120 C   0  0  2  0  0  3  0  0  0  0  0  0
  188.0580  177.3620  146.0990 C   0  0  0  0  0  3  0  0  0  0  0  0
  186.4130  178.6230  147.0510 N   0  0  0  0  0  0  0  0  0  0  0  0
  187.4500  177.8990  147.3010 C   0  0  0  0  0  0  0  0  0  0  0  0
  187.9840  177.7040  148.6750 C   0  0  0  0  0  2  0  0  0  0  0  0
  189.1730  178.4160  148.8210 O   0  0  0  0  0  1  0  0  0  0  0  0
  188.1150  178.2310  140.9830 C   0  0  0  0  0  2  0  0  0  0  0  0
  189.2860  177.8620  140.1420 C   0  0  0  0  0  3  0  0  0  0  0  0
  190.2860  177.0670  140.5420 C   0  0  0  0  0  3  0  0  0  0  0  0
  190.4310  176.4930  141.8160 O   0  0  0  0  0  0  0  0  0  0  0  0
  191.4120  175.8800  143.9390 C   0  0  0  0  0  2  0  0  0  0  0  0
  191.4130  178.1390  144.8020 C   0  0  0  0  0  2  0  0  0  0  0  0
  191.1570  178.2270  143.3150 C   0  0  0  0  0  2  0  0  0  0  0  0
  191.0860  176.7080  145.1660 C   0  0  2  0  0  3  0  0  0  0  0  0
  191.4380  176.8430  142.7600 C   0  0  2  0  0  3  0  0  0  0  0  0
  191.8680  176.2530  146.3540 C   0  0  0  0  0  0  0  0  0  0  0  0
  192.5380  175.1850  146.3140 O   0  0  0  0  0  0  0  0  0  0  0  0
  191.8550  177.0120  147.5150 O   0  0  0  0  0  1  0  0  0  0  0  0
  1  3  1  0  0  0  0
  1 16  1  0  0  0  0
  2  3  2  0  0  0  0
  3  4  1  0  0  0  0
  4  5  1  0  0  0  0
  5  7  1  0  0  0  0
  7  6  2  0  0  0  0
  7  8  1  0  0  0  0
  9 10  1  0  0  0  0
  9 11  2  0  0  0  0
 10  8  1  1  0  0  0
 10 12  1  0  0  0  0
 11 13  1  0  0  0  0
 12 13  2  0  0  0  0
 13 14  1  0  0  0  0
 14 15  1  0  0  0  0
 17 18  2  0  0  0  0
 17 16  1  0  0  0  0
 18 19  1  0  0  0  0
 20 23  1  0  0  0  0
 21 23  1  0  0  0  0
 22 21  1  0  0  0  0
 23 25  1  1  0  0  0
 24 19  1  6  0  0  0
 24 22  1  0  0  0  0
 24 20  1  0  0  0  0
 25 27  1  0  0  0  0
 26 25  2  0  0  0  0
M  END
>  <MODEL>
1

>  <REMARK>
 VINA RESULT:      -8.0      0.000      0.000
  Name = 
  11 active torsions:
  status: ('A' for Active; 'I' for Inactive)
    1  A    between atoms: C_3  and  C_18
    2  A    between atoms: C_3  and  C_22
    3  A    between atoms: C_6  and  C_27
    4  A    between atoms: C_7  and  C_19
    5  A    between atoms: C_8  and  CA_12
    6  A    between atoms: N_11  and  C_19
    7  A    between atoms: C_14  and  C_15
    8  A    between atoms: C_16  and  O_24
    9  A    between atoms: C_18  and  C_25
   10  A    between atoms: C_23  and  O_24
   11  A    between atoms: C_25  and  C_27
                            x       y       z     vdW  Elec       q    Type
                         _______ _______ _______ _____ _____    ______ ____

>  <TORSDO>
F 11

$$$$
=
 OpenBabel11062414443D

 27 28  0  0  1  0  0  0  0  0999 V2000
  191.9640  176.7010  145.8480 N   0  0  0  0  0  2  0  0  0  0  0  0
  192.0120  176.6400  148.1970 N   0  0  0  0  0  2  0  0  0  0  0  0
  191.3060  176.6800  147.1170 C   0  0  0  0  0  0  0  0  0  0  0  0
  189.8160  176.6430  147.2150 C   0  0  0  0  0  2  0  0  0  0  0  0
  189.2500  178.0500  147.1360 C   0  0  0  0  0  2  0  0  0  0  0  0
  187.7980  177.6780  149.0710 C   0  0  0  0  0  2  0  0  0  0  0  0
  187.9260  178.1170  147.8190 C   0  0  0  0  0  0  0  0  0  0  0  0
  186.8120  178.8850  147.1790 C   0  0  0  0  0  2  0  0  0  0  0  0
  186.4170  177.6930  145.0330 C   0  0  0  0  0  3  0  0  0  0  0  0
  185.8790  177.9600  146.4070 C   0  0  2  0  0  3  0  0  0  0  0  0
  185.5710  178.1670  144.1310 C   0  0  0  0  0  3  0  0  0  0  0  0
  184.6200  178.6440  146.1480 N   0  0  0  0  0  0  0  0  0  0  0  0
  184.4730  178.7560  144.8730 C   0  0  0  0  0  0  0  0  0  0  0  0
  183.2700  179.3700  144.2510 C   0  0  0  0  0  2  0  0  0  0  0  0
  183.1410  178.9230  142.9370 O   0  0  0  0  0  1  0  0  0  0  0  0
  191.2230  176.6740  144.5980 C   0  0  0  0  0  2  0  0  0  0  0  0
  191.4280  177.9490  143.8580 C   0  0  0  0  0  3  0  0  0  0  0  0
  191.3320  178.0780  142.5290 C   0  0  0  0  0  3  0  0  0  0  0  0
  191.0770  177.0450  141.6120 O   0  0  0  0  0  0  0  0  0  0  0  0
  189.9830  177.3010  139.4710 C   0  0  0  0  0  2  0  0  0  0  0  0
  187.9930  178.3150  140.4000 C   0  0  0  0  0  2  0  0  0  0  0  0
  188.7680  177.7110  141.5500 C   0  0  0  0  0  2  0  0  0  0  0  0
  189.0000  178.4400  139.2800 C   0  0  2  0  0  3  0  0  0  0  0  0
  189.8480  176.8510  140.9200 C   0  0  2  0  0  3  0  0  0  0  0  0
  188.3420  178.3720  137.9410 C   0  0  0  0  0  0  0  0  0  0  0  0
  187.3020  177.6790  137.7700 O   0  0  0  0  0  1  0  0  0  0  0  0
  188.8810  179.0770  136.8760 O   0  0  0  0  0  0  0  0  0  0  0  0
  1  3  1  0  0  0  0
  3  4  1  0  0  0  0
  3  2  2  0  0  0  0
  5  4  1  0  0  0  0
  5  7  1  0  0  0  0
  7  6  2  0  0  0  0
  8  7  1  0  0  0  0
  9 10  1  0  0  0  0
 10  8  1  1  0  0  0
 11 13  1  0  0  0  0
 11  9  2  0  0  0  0
 12 10  1  0  0  0  0
 13 12  2  0  0  0  0
 14 13  1  0  0  0  0
 15 14  1  0  0  0  0
 16  1  1  0  0  0  0
 17 16  1  0  0  0  0
 18 17  2  0  0  0  0
 19 18  1  0  0  0  0
 20 24  1  0  0  0  0
 21 22  1  0  0  0  0
 23 25  1  6  0  0  0
 23 20  1  0  0  0  0
 23 21  1  0  0  0  0
 24 22  1  0  0  0  0
 24 19  1  1  0  0  0
 26 25  1  0  0  0  0
 27 25  2  0  0  0  0
M  END
>  <MODEL>
2

>  <REMARK>
 VINA RESULT:      -7.4      2.952      6.307
  Name = 
  11 active torsions:
  status: ('A' for Active; 'I' for Inactive)
    1  A    between atoms: C_3  and  C_18
    2  A    between atoms: C_3  and  C_22
    3  A    between atoms: C_6  and  C_27
    4  A    between atoms: C_7  and  C_19
    5  A    between atoms: C_8  and  CA_12
    6  A    between atoms: N_11  and  C_19
    7  A    between atoms: C_14  and  C_15
    8  A    between atoms: C_16  and  O_24
    9  A    between atoms: C_18  and  C_25
   10  A    between atoms: C_23  and  O_24
   11  A    between atoms: C_25  and  C_27
                            x       y       z     vdW  Elec       q    Type
                         _______ _______ _______ _____ _____    ______ ____

>  <TORSDO>
F 11

$$$$
=
 OpenBabel11062414443D

 27 28  0  0  1  0  0  0  0  0999 V2000
  185.1590  179.0980  145.8650 N   0  0  0  0  0  2  0  0  0  0  0  0
  183.5750  179.6990  144.2360 N   0  0  0  0  0  2  0  0  0  0  0  0
  184.5940  178.9750  144.5580 C   0  0  0  0  0  0  0  0  0  0  0  0
  185.1230  177.9800  143.5780 C   0  0  0  0  0  2  0  0  0  0  0  0
  186.1240  178.6420  142.6470 C   0  0  0  0  0  2  0  0  0  0  0  0
  187.5340  176.7710  143.3580 C   0  0  0  0  0  2  0  0  0  0  0  0
  187.4270  177.9160  142.6830 C   0  0  0  0  0  0  0  0  0  0  0  0
  188.5330  178.3540  141.7760 C   0  0  0  0  0  2  0  0  0  0  0  0
  190.0640  177.1780  140.2100 C   0  0  0  0  0  3  0  0  0  0  0  0
  188.6300  177.4520  140.5510 C   0  0  2  0  0  3  0  0  0  0  0  0
  190.3320  177.6730  139.0100 C   0  0  0  0  0  3  0  0  0  0  0  0
  188.1360  178.1630  139.3810 N   0  0  0  0  0  0  0  0  0  0  0  0
  189.1040  178.2830  138.5390 C   0  0  0  0  0  0  0  0  0  0  0  0
  188.9380  178.9240  137.2080 C   0  0  0  0  0  2  0  0  0  0  0  0
  187.7540  178.4830  136.6190 O   0  0  0  0  0  1  0  0  0  0  0  0
  186.2610  178.2600  146.3090 C   0  0  0  0  0  2  0  0  0  0  0  0
  186.6420  178.6160  147.7020 C   0  0  0  0  0  3  0  0  0  0  0  0
  187.7470  178.1800  148.3200 C   0  0  0  0  0  3  0  0  0  0  0  0
  188.6940  177.2870  147.7930 O   0  0  0  0  0  0  0  0  0  0  0  0
  189.8540  177.9720  145.7860 C   0  0  0  0  0  2  0  0  0  0  0  0
  191.6950  176.4360  146.1030 C   0  0  0  0  0  2  0  0  0  0  0  0
  190.9310  176.4950  147.4050 C   0  0  0  0  0  2  0  0  0  0  0  0
  190.7320  176.9680  145.0660 C   0  0  2  0  0  3  0  0  0  0  0  0
  189.9660  177.6580  147.2710 C   0  0  2  0  0  3  0  0  0  0  0  0
  191.4540  177.5980  143.9200 C   0  0  0  0  0  0  0  0  0  0  0  0
  191.6100  178.8480  143.8660 O   0  0  0  0  0  1  0  0  0  0  0  0
  191.9560  176.7990  142.9030 O   0  0  0  0  0  0  0  0  0  0  0  0
  1 16  1  0  0  0  0
  2  3  2  0  0  0  0
  3  1  1  0  0  0  0
  4  3  1  0  0  0  0
  5  7  1  0  0  0  0
  5  4  1  0  0  0  0
  7  6  2  0  0  0  0
  8  7  1  0  0  0  0
  9 10  1  0  0  0  0
 10  8  1  1  0  0  0
 11  9  2  0  0  0  0
 12 10  1  0  0  0  0
 13 11  1  0  0  0  0
 13 12  2  0  0  0  0
 14 13  1  0  0  0  0
 15 14  1  0  0  0  0
 16 17  1  0  0  0  0
 17 18  2  0  0  0  0
 19 18  1  0  0  0  0
 20 24  1  0  0  0  0
 21 22  1  0  0  0  0
 23 25  1  6  0  0  0
 23 20  1  0  0  0  0
 23 21  1  0  0  0  0
 24 22  1  0  0  0  0
 24 19  1  6  0  0  0
 26 25  1  0  0  0  0
 27 25  2  0  0  0  0
M  END
>  <MODEL>
3

>  <REMARK>
 VINA RESULT:      -7.4      2.097      6.098
  Name = 
  11 active torsions:
  status: ('A' for Active; 'I' for Inactive)
    1  A    between atoms: C_3  and  C_18
    2  A    between atoms: C_3  and  C_22
    3  A    between atoms: C_6  and  C_27
    4  A    between atoms: C_7  and  C_19
    5  A    between atoms: C_8  and  CA_12
    6  A    between atoms: N_11  and  C_19
    7  A    between atoms: C_14  and  C_15
    8  A    between atoms: C_16  and  O_24
    9  A    between atoms: C_18  and  C_25
   10  A    between atoms: C_23  and  O_24
   11  A    between atoms: C_25  and  C_27
                            x       y       z     vdW  Elec       q    Type
                         _______ _______ _______ _____ _____    ______ ____

>  <TORSDO>
F 11

$$$$
=
 OpenBabel11062414443D

 27 28  0  0  1  0  0  0  0  0999 V2000
  190.6250  177.0940  146.4050 N   0  0  0  0  0  2  0  0  0  0  0  0
  188.7820  177.3570  147.8390 N   0  0  0  0  0  2  0  0  0  0  0  0
  189.2160  177.1530  146.6410 C   0  0  0  0  0  0  0  0  0  0  0  0
  188.2370  176.9240  145.5370 C   0  0  0  0  0  2  0  0  0  0  0  0
  187.7160  178.2520  145.0130 C   0  0  0  0  0  2  0  0  0  0  0  0
  185.4220  178.6440  145.7730 C   0  0  0  0  0  2  0  0  0  0  0  0
  186.2380  178.1910  144.8210 C   0  0  0  0  0  0  0  0  0  0  0  0
  185.6910  177.8380  143.4740 C   0  0  0  0  0  2  0  0  0  0  0  0
  183.4010  178.5550  142.8260 C   0  0  0  0  0  3  0  0  0  0  0  0
  184.8390  178.9700  142.9120 C   0  0  2  0  0  3  0  0  0  0  0  0
  183.0170  178.5640  141.5580 C   0  0  0  0  0  3  0  0  0  0  0  0
  185.2030  179.2120  141.5240 N   0  0  0  0  0  0  0  0  0  0  0  0
  184.1750  178.9700  140.7860 C   0  0  0  0  0  0  0  0  0  0  0  0
  184.1810  179.1580  139.3110 C   0  0  0  0  0  2  0  0  0  0  0  0
  184.4260  180.4970  139.0100 O   0  0  0  0  0  1  0  0  0  0  0  0
  191.1720  176.7980  145.0910 C   0  0  0  0  0  2  0  0  0  0  0  0
  191.3810  178.0600  144.3300 C   0  0  0  0  0  3  0  0  0  0  0  0
  191.4150  178.1420  142.9950 C   0  0  0  0  0  3  0  0  0  0  0  0
  191.3150  177.0680  142.0940 O   0  0  0  0  0  0  0  0  0  0  0  0
  190.5360  177.2990  139.8170 C   0  0  0  0  0  2  0  0  0  0  0  0
  188.3880  178.2120  140.4490 C   0  0  0  0  0  2  0  0  0  0  0  0
  189.0120  177.6300  141.6970 C   0  0  0  0  0  2  0  0  0  0  0  0
  189.5410  178.3950  139.4890 C   0  0  2  0  0  3  0  0  0  0  0  0
  190.2110  176.8270  141.2280 C   0  0  2  0  0  3  0  0  0  0  0  0
  189.0900  178.3130  138.0680 C   0  0  0  0  0  0  0  0  0  0  0  0
  188.9520  177.1970  137.5000 O   0  0  0  0  0  1  0  0  0  0  0  0
  188.8210  179.4800  137.3660 O   0  0  0  0  0  0  0  0  0  0  0  0
  1  3  1  0  0  0  0
  3  2  2  0  0  0  0
  4  3  1  0  0  0  0
  5  4  1  0  0  0  0
  7  5  1  0  0  0  0
  7  6  2  0  0  0  0
  8  7  1  0  0  0  0
  9 10  1  0  0  0  0
 10  8  1  6  0  0  0
 11  9  2  0  0  0  0
 12 10  1  0  0  0  0
 13 12  2  0  0  0  0
 13 11  1  0  0  0  0
 14 13  1  0  0  0  0
 15 14  1  0  0  0  0
 16  1  1  0  0  0  0
 17 16  1  0  0  0  0
 18 17  2  0  0  0  0
 19 18  1  0  0  0  0
 20 24  1  0  0  0  0
 21 22  1  0  0  0  0
 23 25  1  6  0  0  0
 23 20  1  0  0  0  0
 23 21  1  0  0  0  0
 24 22  1  0  0  0  0
 24 19  1  1  0  0  0
 26 25  1  0  0  0  0
 27 25  2  0  0  0  0
M  END
>  <MODEL>
4

>  <REMARK>
 VINA RESULT:      -7.3      2.532      6.345
  Name = 
  11 active torsions:
  status: ('A' for Active; 'I' for Inactive)
    1  A    between atoms: C_3  and  C_18
    2  A    between atoms: C_3  and  C_22
    3  A    between atoms: C_6  and  C_27
    4  A    between atoms: C_7  and  C_19
    5  A    between atoms: C_8  and  CA_12
    6  A    between atoms: N_11  and  C_19
    7  A    between atoms: C_14  and  C_15
    8  A    between atoms: C_16  and  O_24
    9  A    between atoms: C_18  and  C_25
   10  A    between atoms: C_23  and  O_24
   11  A    between atoms: C_25  and  C_27
                            x       y       z     vdW  Elec       q    Type
                         _______ _______ _______ _____ _____    ______ ____

>  <TORSDO>
F 11

$$$$
=
 OpenBabel11062414443D

 27 28  0  0  1  0  0  0  0  0999 V2000
  186.2810  178.5010  139.6210 N   0  0  0  0  0  2  0  0  0  0  0  0
  187.5800  177.7850  137.7980 N   0  0  0  0  0  2  0  0  0  0  0  0
  187.5450  178.2490  139.0020 C   0  0  0  0  0  0  0  0  0  0  0  0
  188.8240  178.4540  139.7450 C   0  0  0  0  0  2  0  0  0  0  0  0
  189.2880  177.1450  140.3620 C   0  0  0  0  0  2  0  0  0  0  0  0
  191.3810  176.8700  139.1210 C   0  0  0  0  0  2  0  0  0  0  0  0
  190.7740  177.0380  140.2960 C   0  0  0  0  0  0  0  0  0  0  0  0
  191.5830  177.3540  141.5150 C   0  0  0  0  0  2  0  0  0  0  0  0
  190.9790  178.7160  143.5060 C   0  0  0  0  0  3  0  0  0  0  0  0
  190.6970  177.4510  142.7530 C   0  0  2  0  0  3  0  0  0  0  0  0
  191.4440  178.4160  144.7090 C   0  0  0  0  0  3  0  0  0  0  0  0
  191.0660  176.4080  143.6980 N   0  0  0  0  0  0  0  0  0  0  0  0
  191.4880  176.9690  144.7790 C   0  0  0  0  0  0  0  0  0  0  0  0
  191.9080  176.1950  145.9770 C   0  0  0  0  0  2  0  0  0  0  0  0
  191.6400  176.9320  147.1300 O   0  0  0  0  0  1  0  0  0  0  0  0
  186.1760  178.9550  140.9980 C   0  0  0  0  0  2  0  0  0  0  0  0
  184.7730  178.8140  141.4740 C   0  0  0  0  0  3  0  0  0  0  0  0
  184.4010  178.8650  142.7590 C   0  0  0  0  0  3  0  0  0  0  0  0
  185.2560  179.0040  143.8650 O   0  0  0  0  0  0  0  0  0  0  0  0
  186.1930  178.4650  146.0280 C   0  0  0  0  0  2  0  0  0  0  0  0
  187.9040  177.0100  145.1300 C   0  0  0  0  0  2  0  0  0  0  0  0
  186.9030  177.2600  144.0260 C   0  0  0  0  0  2  0  0  0  0  0  0
  187.6670  178.1240  146.1250 C   0  0  2  0  0  3  0  0  0  0  0  0
  185.7130  177.9330  144.6850 C   0  0  2  0  0  3  0  0  0  0  0  0
  188.0400  177.7090  147.5100 C   0  0  0  0  0  0  0  0  0  0  0  0
  188.3150  176.5070  147.7710 O   0  0  0  0  0  0  0  0  0  0  0  0
  188.0820  178.6580  148.5210 O   0  0  0  0  0  1  0  0  0  0  0  0
  1 16  1  0  0  0  0
  2  3  2  0  0  0  0
  3  1  1  0  0  0  0
  3  4  1  0  0  0  0
  4  5  1  0  0  0  0
  6  7  2  0  0  0  0
  7  5  1  0  0  0  0
  7  8  1  0  0  0  0
  9 11  2  0  0  0  0
 10  8  1  6  0  0  0
 10  9  1  0  0  0  0
 10 12  1  0  0  0  0
 11 13  1  0  0  0  0
 12 13  2  0  0  0  0
 13 14  1  0  0  0  0
 14 15  1  0  0  0  0
 16 17  1  0  0  0  0
 17 18  2  0  0  0  0
 18 19  1  0  0  0  0
 20 23  1  0  0  0  0
 21 23  1  0  0  0  0
 22 24  1  0  0  0  0
 22 21  1  0  0  0  0
 23 25  1  1  0  0  0
 24 19  1  6  0  0  0
 24 20  1  0  0  0  0
 25 26  2  0  0  0  0
 25 27  1  0  0  0  0
M  END
>  <MODEL>
5

>  <REMARK>
 VINA RESULT:      -7.3      1.974      5.220
  Name = 
  11 active torsions:
  status: ('A' for Active; 'I' for Inactive)
    1  A    between atoms: C_3  and  C_18
    2  A    between atoms: C_3  and  C_22
    3  A    between atoms: C_6  and  C_27
    4  A    between atoms: C_7  and  C_19
    5  A    between atoms: C_8  and  CA_12
    6  A    between atoms: N_11  and  C_19
    7  A    between atoms: C_14  and  C_15
    8  A    between atoms: C_16  and  O_24
    9  A    between atoms: C_18  and  C_25
   10  A    between atoms: C_23  and  O_24
   11  A    between atoms: C_25  and  C_27
                            x       y       z     vdW  Elec       q    Type
                         _______ _______ _______ _____ _____    ______ ____

>  <TORSDO>
F 11

$$$$
=
 OpenBabel11062414443D

 27 28  0  0  1  0  0  0  0  0999 V2000
  183.8960  178.8200  141.8680 N   0  0  0  0  0  2  0  0  0  0  0  0
  182.8980  178.9400  143.9920 N   0  0  0  0  0  2  0  0  0  0  0  0
  183.9820  178.9000  143.2930 C   0  0  0  0  0  0  0  0  0  0  0  0
  185.3020  178.9970  143.9830 C   0  0  0  0  0  2  0  0  0  0  0  0
  185.6190  177.6940  144.6970 C   0  0  0  0  0  2  0  0  0  0  0  0
  186.7690  178.3160  146.7670 C   0  0  0  0  0  2  0  0  0  0  0  0
  186.8520  177.8410  145.5240 C   0  0  0  0  0  0  0  0  0  0  0  0
  188.1320  177.2390  145.0370 C   0  0  0  0  0  2  0  0  0  0  0  0
  190.4170  178.1630  144.7060 C   0  0  0  0  0  3  0  0  0  0  0  0
  189.3360  177.8890  145.7090 C   0  0  2  0  0  3  0  0  0  0  0  0
  191.4940  177.4580  145.0190 C   0  0  0  0  0  3  0  0  0  0  0  0
  189.9570  176.9400  146.6220 N   0  0  0  0  0  0  0  0  0  0  0  0
  191.1560  176.7080  146.2120 C   0  0  0  0  0  0  0  0  0  0  0  0
  192.0960  175.8120  146.9380 C   0  0  0  0  0  2  0  0  0  0  0  0
  192.5550  176.4500  148.0900 O   0  0  0  0  0  1  0  0  0  0  0  0
  185.0790  178.8430  141.0240 C   0  0  0  0  0  2  0  0  0  0  0  0
  184.7000  178.5750  139.6100 C   0  0  0  0  0  3  0  0  0  0  0  0
  185.5740  178.4390  138.6050 C   0  0  0  0  0  3  0  0  0  0  0  0
  186.9690  178.5750  138.6940 O   0  0  0  0  0  0  0  0  0  0  0  0
  188.5140  177.6330  140.2980 C   0  0  0  0  0  2  0  0  0  0  0  0
  190.2790  177.2960  138.6790 C   0  0  0  0  0  2  0  0  0  0  0  0
  189.0100  177.5760  137.9080 C   0  0  0  0  0  2  0  0  0  0  0  0
  190.0030  177.8090  140.0740 C   0  0  2  0  0  3  0  0  0  0  0  0
  187.8810  177.5050  138.9200 C   0  0  2  0  0  3  0  0  0  0  0  0
  190.7990  177.0680  141.0980 C   0  0  0  0  0  0  0  0  0  0  0  0
  190.2970  176.0950  141.7240 O   0  0  0  0  0  1  0  0  0  0  0  0
  192.1040  177.4550  141.3640 O   0  0  0  0  0  0  0  0  0  0  0  0
  1  3  1  0  0  0  0
  3  4  1  0  0  0  0
  3  2  2  0  0  0  0
  4  5  1  0  0  0  0
  5  7  1  0  0  0  0
  7  6  2  0  0  0  0
  8  7  1  0  0  0  0
  9 11  2  0  0  0  0
  9 10  1  0  0  0  0
 10  8  1  6  0  0  0
 10 12  1  0  0  0  0
 11 13  1  0  0  0  0
 13 12  2  0  0  0  0
 13 14  1  0  0  0  0
 14 15  1  0  0  0  0
 16  1  1  0  0  0  0
 17 16  1  0  0  0  0
 18 19  1  0  0  0  0
 18 17  2  0  0  0  0
 21 23  1  0  0  0  0
 22 21  1  0  0  0  0
 22 24  1  0  0  0  0
 23 20  1  0  0  0  0
 23 25  1  1  0  0  0
 24 19  1  6  0  0  0
 24 20  1  0  0  0  0
 25 27  2  0  0  0  0
 25 26  1  0  0  0  0
M  END
>  <MODEL>
6

>  <REMARK>
 VINA RESULT:      -7.2      1.969      4.441
  Name = 
  11 active torsions:
  status: ('A' for Active; 'I' for Inactive)
    1  A    between atoms: C_3  and  C_18
    2  A    between atoms: C_3  and  C_22
    3  A    between atoms: C_6  and  C_27
    4  A    between atoms: C_7  and  C_19
    5  A    between atoms: C_8  and  CA_12
    6  A    between atoms: N_11  and  C_19
    7  A    between atoms: C_14  and  C_15
    8  A    between atoms: C_16  and  O_24
    9  A    between atoms: C_18  and  C_25
   10  A    between atoms: C_23  and  O_24
   11  A    between atoms: C_25  and  C_27
                            x       y       z     vdW  Elec       q    Type
                         _______ _______ _______ _____ _____    ______ ____

>  <TORSDO>
F 11

$$$$
=
 OpenBabel11062414443D

 27 28  0  0  1  0  0  0  0  0999 V2000
  187.0590  178.2990  147.5710 N   0  0  0  0  0  2  0  0  0  0  0  0
  189.1040  178.2680  148.7280 N   0  0  0  0  0  2  0  0  0  0  0  0
  188.4100  177.8570  147.7190 C   0  0  0  0  0  0  0  0  0  0  0  0
  189.0530  176.9780  146.6980 C   0  0  0  0  0  2  0  0  0  0  0  0
  190.1460  177.7380  145.9650 C   0  0  0  0  0  2  0  0  0  0  0  0
  191.8800  176.1610  146.6740 C   0  0  0  0  0  2  0  0  0  0  0  0
  191.3020  176.8390  145.6820 C   0  0  0  0  0  0  0  0  0  0  0  0
  191.6530  176.5270  144.2600 C   0  0  0  0  0  2  0  0  0  0  0  0
  189.6080  176.9520  142.9110 C   0  0  0  0  0  3  0  0  0  0  0  0
  190.9550  177.4840  143.2990 C   0  0  2  0  0  3  0  0  0  0  0  0
  189.5860  176.7220  141.6070 C   0  0  0  0  0  3  0  0  0  0  0  0
  191.6790  177.5190  142.0370 N   0  0  0  0  0  0  0  0  0  0  0  0
  190.8990  177.0820  141.1090 C   0  0  0  0  0  0  0  0  0  0  0  0
  191.3030  177.0240  139.6790 C   0  0  0  0  0  2  0  0  0  0  0  0
  190.5870  176.0200  139.0300 O   0  0  0  0  0  1  0  0  0  0  0  0
  186.2510  177.9290  146.4210 C   0  0  0  0  0  2  0  0  0  0  0  0
  185.0300  178.7780  146.3620 C   0  0  0  0  0  3  0  0  0  0  0  0
  184.2870  178.9610  145.2640 C   0  0  0  0  0  3  0  0  0  0  0  0
  184.5510  178.4370  143.9870 O   0  0  0  0  0  0  0  0  0  0  0  0
  184.0920  178.9770  141.6750 C   0  0  0  0  0  2  0  0  0  0  0  0
  186.3770  178.6540  140.9530 C   0  0  0  0  0  2  0  0  0  0  0  0
  186.3890  178.7180  142.4630 C   0  0  0  0  0  2  0  0  0  0  0  0
  184.9420  178.3450  140.5910 C   0  0  2  0  0  3  0  0  0  0  0  0
  185.0080  179.1950  142.8710 C   0  0  2  0  0  3  0  0  0  0  0  0
  184.5900  178.8800  139.2410 C   0  0  0  0  0  0  0  0  0  0  0  0
  184.5830  178.1260  138.2310 O   0  0  0  0  0  0  0  0  0  0  0  0
  184.2700  180.2230  139.0990 O   0  0  0  0  0  1  0  0  0  0  0  0
  1  3  1  0  0  0  0
  3  2  2  0  0  0  0
  4  3  1  0  0  0  0
  5  4  1  0  0  0  0
  7  5  1  0  0  0  0
  7  6  2  0  0  0  0
  8  7  1  0  0  0  0
  9 10  1  0  0  0  0
 10  8  1  1  0  0  0
 11  9  2  0  0  0  0
 12 10  1  0  0  0  0
 13 11  1  0  0  0  0
 13 12  2  0  0  0  0
 14 13  1  0  0  0  0
 15 14  1  0  0  0  0
 16  1  1  0  0  0  0
 17 16  1  0  0  0  0
 18 17  2  0  0  0  0
 19 18  1  0  0  0  0
 20 24  1  0  0  0  0
 21 22  1  0  0  0  0
 22 24  1  0  0  0  0
 23 25  1  6  0  0  0
 23 21  1  0  0  0  0
 23 20  1  0  0  0  0
 24 19  1  1  0  0  0
 26 25  2  0  0  0  0
 27 25  1  0  0  0  0
M  END
>  <MODEL>
7

>  <REMARK>
 VINA RESULT:      -7.1      3.274      7.878
  Name = 
  11 active torsions:
  status: ('A' for Active; 'I' for Inactive)
    1  A    between atoms: C_3  and  C_18
    2  A    between atoms: C_3  and  C_22
    3  A    between atoms: C_6  and  C_27
    4  A    between atoms: C_7  and  C_19
    5  A    between atoms: C_8  and  CA_12
    6  A    between atoms: N_11  and  C_19
    7  A    between atoms: C_14  and  C_15
    8  A    between atoms: C_16  and  O_24
    9  A    between atoms: C_18  and  C_25
   10  A    between atoms: C_23  and  O_24
   11  A    between atoms: C_25  and  C_27
                            x       y       z     vdW  Elec       q    Type
                         _______ _______ _______ _____ _____    ______ ____

>  <TORSDO>
F 11

$$$$
=
 OpenBabel11062414443D

 27 28  0  0  1  0  0  0  0  0999 V2000
  187.0990  178.1620  142.0520 N   0  0  0  0  0  2  0  0  0  0  0  0
  185.2240  179.4550  141.4740 N   0  0  0  0  0  2  0  0  0  0  0  0
  185.7710  178.6290  142.3010 C   0  0  0  0  0  0  0  0  0  0  0  0
  185.0280  178.2250  143.5320 C   0  0  0  0  0  2  0  0  0  0  0  0
  185.0100  179.3680  144.5320 C   0  0  0  0  0  2  0  0  0  0  0  0
  184.5610  178.1340  146.5980 C   0  0  0  0  0  2  0  0  0  0  0  0
  185.4050  178.8810  145.8850 C   0  0  0  0  0  0  0  0  0  0  0  0
  186.8250  179.0370  146.3310 C   0  0  0  0  0  2  0  0  0  0  0  0
  187.9160  178.3700  148.4630 C   0  0  0  0  0  3  0  0  0  0  0  0
  187.2560  177.8700  147.2130 C   0  0  2  0  0  3  0  0  0  0  0  0
  189.1740  177.9570  148.4910 C   0  0  0  0  0  3  0  0  0  0  0  0
  188.3150  177.1240  146.5500 N   0  0  0  0  0  0  0  0  0  0  0  0
  189.3770  177.1930  147.2750 C   0  0  0  0  0  0  0  0  0  0  0  0
  190.6440  176.5020  146.9160 C   0  0  0  0  0  2  0  0  0  0  0  0
  191.7130  177.1080  147.5750 O   0  0  0  0  0  1  0  0  0  0  0  0
  187.7940  177.2870  142.9820 C   0  0  0  0  0  2  0  0  0  0  0  0
  189.1480  177.8300  143.2760 C   0  0  0  0  0  3  0  0  0  0  0  0
  190.2120  177.6820  142.4770 C   0  0  0  0  0  3  0  0  0  0  0  0
  190.2520  176.9610  141.2720 O   0  0  0  0  0  0  0  0  0  0  0  0
  189.4700  178.2670  139.3940 C   0  0  0  0  0  2  0  0  0  0  0  0
  190.3410  176.7400  137.7320 C   0  0  0  0  0  2  0  0  0  0  0  0
  190.9710  176.3700  139.0550 C   0  0  0  0  0  2  0  0  0  0  0  0
  189.1230  177.5570  138.1000 C   0  0  2  0  0  3  0  0  0  0  0  0
  190.6310  177.5000  140.0100 C   0  0  2  0  0  3  0  0  0  0  0  0
  188.7700  178.5300  137.0230 C   0  0  0  0  0  0  0  0  0  0  0  0
  188.6730  179.7610  137.2740 O   0  0  0  0  0  1  0  0  0  0  0  0
  188.5460  178.0720  135.7320 O   0  0  0  0  0  0  0  0  0  0  0  0
  1  3  1  0  0  0  0
  1 16  1  0  0  0  0
  2  3  2  0  0  0  0
  3  4  1  0  0  0  0
  4  5  1  0  0  0  0
  5  7  1  0  0  0  0
  7  8  1  0  0  0  0
  7  6  2  0  0  0  0
  9 11  2  0  0  0  0
 10  8  1  6  0  0  0
 10  9  1  0  0  0  0
 12 10  1  0  0  0  0
 12 13  2  0  0  0  0
 13 11  1  0  0  0  0
 14 13  1  0  0  0  0
 14 15  1  0  0  0  0
 16 17  1  0  0  0  0
 18 17  2  0  0  0  0
 19 18  1  0  0  0  0
 20 24  1  0  0  0  0
 21 23  1  0  0  0  0
 21 22  1  0  0  0  0
 22 24  1  0  0  0  0
 23 25  1  6  0  0  0
 23 20  1  0  0  0  0
 24 19  1  1  0  0  0
 25 26  1  0  0  0  0
 27 25  2  0  0  0  0
M  END
>  <MODEL>
8

>  <REMARK>
 VINA RESULT:      -7.0      2.296      4.908
  Name = 
  11 active torsions:
  status: ('A' for Active; 'I' for Inactive)
    1  A    between atoms: C_3  and  C_18
    2  A    between atoms: C_3  and  C_22
    3  A    between atoms: C_6  and  C_27
    4  A    between atoms: C_7  and  C_19
    5  A    between atoms: C_8  and  CA_12
    6  A    between atoms: N_11  and  C_19
    7  A    between atoms: C_14  and  C_15
    8  A    between atoms: C_16  and  O_24
    9  A    between atoms: C_18  and  C_25
   10  A    between atoms: C_23  and  O_24
   11  A    between atoms: C_25  and  C_27
                            x       y       z     vdW  Elec       q    Type
                         _______ _______ _______ _____ _____    ______ ____

>  <TORSDO>
F 11

$$$$
=
 OpenBabel11062414443D

 27 28  0  0  1  0  0  0  0  0999 V2000
  184.0920  179.0520  145.4730 N   0  0  0  0  0  2  0  0  0  0  0  0
  182.7100  178.6740  143.6100 N   0  0  0  0  0  2  0  0  0  0  0  0
  183.8490  179.0780  144.0650 C   0  0  0  0  0  0  0  0  0  0  0  0
  184.9100  179.5070  143.1050 C   0  0  0  0  0  2  0  0  0  0  0  0
  185.9030  178.3790  142.8820 C   0  0  0  0  0  2  0  0  0  0  0  0
  185.8740  178.7830  140.4680 C   0  0  0  0  0  2  0  0  0  0  0  0
  186.5880  178.5430  141.5680 C   0  0  0  0  0  0  0  0  0  0  0  0
  188.0790  178.6690  141.5320 C   0  0  0  0  0  2  0  0  0  0  0  0
  190.2000  177.3780  141.4040 C   0  0  0  0  0  3  0  0  0  0  0  0
  188.7310  177.3590  141.1030 C   0  0  2  0  0  3  0  0  0  0  0  0
  190.8810  177.2870  140.2710 C   0  0  0  0  0  3  0  0  0  0  0  0
  188.6860  177.2450  139.6530 N   0  0  0  0  0  0  0  0  0  0  0  0
  189.8960  177.2160  139.2100 C   0  0  0  0  0  0  0  0  0  0  0  0
  190.2210  177.0590  137.7670 C   0  0  0  0  0  2  0  0  0  0  0  0
  191.5660  176.7200  137.6230 O   0  0  0  0  0  1  0  0  0  0  0  0
  185.3770  179.4270  146.0390 C   0  0  0  0  0  2  0  0  0  0  0  0
  185.7860  178.4380  147.0730 C   0  0  0  0  0  3  0  0  0  0  0  0
  187.0090  177.9020  147.1680 C   0  0  0  0  0  3  0  0  0  0  0  0
  188.0860  178.1340  146.2960 O   0  0  0  0  0  0  0  0  0  0  0  0
  189.8430  176.6520  147.0460 C   0  0  0  0  0  2  0  0  0  0  0  0
  191.3530  177.2310  145.2480 C   0  0  0  0  0  2  0  0  0  0  0  0
  189.9870  177.7570  144.8730 C   0  0  0  0  0  2  0  0  0  0  0  0
  191.2850  177.0090  146.7410 C   0  0  2  0  0  3  0  0  0  0  0  0
  189.0170  177.1450  145.8660 C   0  0  2  0  0  3  0  0  0  0  0  0
  192.2170  175.9270  147.1780 C   0  0  0  0  0  0  0  0  0  0  0  0
  192.3920  174.9010  146.4660 O   0  0  0  0  0  0  0  0  0  0  0  0
  192.8980  176.0530  148.3800 O   0  0  0  0  0  1  0  0  0  0  0  0
  1 16  1  0  0  0  0
  2  3  2  0  0  0  0
  3  1  1  0  0  0  0
  4  3  1  0  0  0  0
  5  4  1  0  0  0  0
  6  7  2  0  0  0  0
  7  5  1  0  0  0  0
  8  7  1  0  0  0  0
 10  9  1  0  0  0  0
 10  8  1  6  0  0  0
 11  9  2  0  0  0  0
 12 10  1  0  0  0  0
 13 12  2  0  0  0  0
 13 11  1  0  0  0  0
 14 13  1  0  0  0  0
 15 14  1  0  0  0  0
 16 17  1  0  0  0  0
 17 18  2  0  0  0  0
 19 18  1  0  0  0  0
 21 23  1  0  0  0  0
 22 21  1  0  0  0  0
 22 24  1  0  0  0  0
 23 20  1  0  0  0  0
 23 25  1  6  0  0  0
 24 19  1  1  0  0  0
 24 20  1  0  0  0  0
 25 27  1  0  0  0  0
 26 25  2  0  0  0  0
M  END
>  <MODEL>
9

>  <REMARK>
 VINA RESULT:      -7.0      1.865      5.565
  Name = 
  11 active torsions:
  status: ('A' for Active; 'I' for Inactive)
    1  A    between atoms: C_3  and  C_18
    2  A    between atoms: C_3  and  C_22
    3  A    between atoms: C_6  and  C_27
    4  A    between atoms: C_7  and  C_19
    5  A    between atoms: C_8  and  CA_12
    6  A    between atoms: N_11  and  C_19
    7  A    between atoms: C_14  and  C_15
    8  A    between atoms: C_16  and  O_24
    9  A    between atoms: C_18  and  C_25
   10  A    between atoms: C_23  and  O_24
   11  A    between atoms: C_25  and  C_27
                            x       y       z     vdW  Elec       q    Type
                         _______ _______ _______ _____ _____    ______ ____

>  <TORSDO>
F 11

$$$$
