=
 OpenBabel11062414043D

 53 57  0  0  1  0  0  0  0  0999 V2000
  184.7790  178.3210  144.3570 C   0  0  1  0  0  3  0  0  0  0  0  0
  185.5660  177.5400  143.3090 C   0  0  0  0  0  2  0  0  0  0  0  0
  185.6710  178.9600  145.3220 N   0  0  0  0  0  2  0  0  0  0  0  0
  187.0770  177.6890  143.5310 C   0  0  1  0  0  3  0  0  0  0  0  0
  187.4760  177.4290  144.8630 O   0  0  0  0  0  0  0  0  0  0  0  0
  186.5730  177.9290  145.8380 C   0  0  0  0  0  2  0  0  0  0  0  0
  187.8830  176.8050  142.5760 C   0  0  2  0  0  3  0  0  0  0  0  0
  188.3380  175.6460  143.2190 O   0  0  0  0  0  1  0  0  0  0  0  0
  188.9910  177.5380  141.9660 N   0  0  0  0  0  0  0  0  0  0  0  0
  188.7520  178.7610  141.2560 C   0  0  0  0  0  3  0  0  0  0  0  0
  188.6960  178.8620  139.9270 C   0  0  0  0  0  3  0  0  0  0  0  0
  188.7840  177.7060  138.9720 C   0  0  1  0  0  3  0  0  0  0  0  0
  186.4730  178.2920  138.7300 O   0  0  0  0  0  1  0  0  0  0  0  0
  187.4920  177.5140  138.1720 C   0  0  0  0  0  3  0  0  0  0  0  0
  187.6760  177.8770  136.8340 O   0  0  0  0  0  1  0  0  0  0  0  0
  190.0750  177.6770  138.1310 C   0  0  0  0  0  2  0  0  0  0  0  0
  192.5830  174.2440  137.2990 C   0  0  0  0  0  2  0  0  0  0  0  0
  190.5960  176.3470  135.4760 C   0  0  0  0  0  1  0  0  0  0  0  0
  192.3450  176.6700  137.9810 C   0  0  0  0  0  2  0  0  0  0  0  0
  190.4310  175.5440  136.7540 C   0  0  1  0  0  3  0  0  0  0  0  0
  191.2120  174.2300  136.6230 C   0  0  0  0  0  2  0  0  0  0  0  0
  190.8420  176.3450  138.0080 C   0  0  2  0  0  0  0  0  0  0  0  0
  193.2040  175.6380  137.2420 C   0  0  0  0  0  2  0  0  0  0  0  0
  190.6050  175.5780  139.1530 O   0  0  0  0  0  1  0  0  0  0  0  0
  190.3450  177.0220  142.1230 C   0  0  0  0  0  2  0  0  0  0  0  0
  191.6370  179.0130  143.9900 C   0  0  0  0  0  1  0  0  0  0  0  0
  190.6270  176.7240  143.5210 N   0  0  0  0  0  2  0  0  0  0  0  0
  191.4710  177.2840  145.6440 N   0  0  0  0  0  2  0  0  0  0  0  0
  191.2430  177.6490  144.4270 C   0  0  0  0  0  0  0  0  0  0  0  0
  183.9270  179.3680  143.6610 C   0  0  0  0  0  2  0  0  0  0  0  0
  182.5220  178.9960  143.6930 N   0  0  0  0  0  2  0  0  0  0  0  0
  182.0080  179.0210  142.3300 C   0  0  0  0  0  2  0  0  0  0  0  0
  182.7680  178.1750  141.5150 O   0  0  0  0  0  0  0  0  0  0  0  0
  183.0590  175.7840  136.9030 C   0  0  0  0  0  3  0  0  0  0  0  0
  182.7660  176.0210  139.3640 C   0  0  1  0  0  3  0  0  0  0  0  0
  180.5820  176.5040  139.8480 C   0  0  1  0  0  3  0  0  0  0  0  0
  182.2770  178.3710  140.2260 C   0  0  1  0  0  3  0  0  0  0  0  0
  181.6920  175.7330  140.2360 O   0  0  0  0  0  0  0  0  0  0  0  0
  179.3410  175.9760  140.5440 C   0  0  0  0  0  1  0  0  0  0  0  0
  183.6510  177.1620  136.8330 C   0  0  0  0  0  2  0  0  0  0  0  0
  182.6590  175.2560  138.0670 C   0  0  0  0  0  3  0  0  0  0  0  0
  183.0960  177.5380  139.2380 C   0  0  2  0  0  3  0  0  0  0  0  0
  182.9260  178.0770  137.8140 C   0  0  0  0  0  2  0  0  0  0  0  0
  180.7900  177.9890  140.1910 C   0  0  1  0  0  3  0  0  0  0  0  0
  180.0610  178.8700  139.1890 C   0  0  0  0  0  2  0  0  0  0  0  0
  180.5550  180.1750  139.2460 O   0  0  0  0  0  0  0  0  0  0  0  0
  181.5260  183.2470  137.9020 O   0  0  0  0  0  1  0  0  0  0  0  0
  179.5930  180.9500  138.5930 C   0  0  2  0  0  3  0  0  0  0  0  0
  180.1040  181.4230  137.2410 C   0  0  0  0  0  0  0  0  0  0  0  0
  180.1940  182.8520  137.7550 C   0  0  1  0  0  3  0  0  0  0  0  0
  179.6600  182.3830  139.0990 C   0  0  0  0  0  2  0  0  0  0  0  0
  181.3200  180.8690  136.8720 F   0  0  0  0  0  0  0  0  0  0  0  0
  179.1450  181.2920  136.2560 F   0  0  0  0  0  0  0  0  0  0  0  0
  1 30  1  6  0  0  0
  1  3  1  0  0  0  0
  2  4  1  0  0  0  0
  2  1  1  0  0  0  0
  3  6  1  0  0  0  0
  4  7  1  6  0  0  0
  4  5  1  0  0  0  0
  5  6  1  0  0  0  0
  7  8  1  1  0  0  0
  9 25  1  0  0  0  0
  9  7  1  0  0  0  0
 10  9  1  0  0  0  0
 11 10  2  0  0  0  0
 12 16  1  6  0  0  0
 12 11  1  0  0  0  0
 14 13  1  0  0  0  0
 14 12  1  0  0  0  0
 15 14  1  0  0  0  0
 19 22  1  0  0  0  0
 20 18  1  6  0  0  0
 20 22  1  0  0  0  0
 21 20  1  0  0  0  0
 21 17  1  0  0  0  0
 22 16  1  0  0  0  0
 22 24  1  1  0  0  0
 23 17  1  0  0  0  0
 23 19  1  0  0  0  0
 25 27  1  0  0  0  0
 26 29  1  0  0  0  0
 27 29  1  0  0  0  0
 29 28  2  0  0  0  0
 30 31  1  0  0  0  0
 32 31  1  0  0  0  0
 33 32  1  0  0  0  0
 34 41  2  0  0  0  0
 35 41  1  6  0  0  0
 35 38  1  0  0  0  0
 36 44  1  0  0  0  0
 36 38  1  0  0  0  0
 36 39  1  1  0  0  0
 37 33  1  1  0  0  0
 40 34  1  0  0  0  0
 40 43  1  0  0  0  0
 42 43  1  6  0  0  0
 42 35  1  0  0  0  0
 42 37  1  0  0  0  0
 44 45  1  6  0  0  0
 44 37  1  0  0  0  0
 45 46  1  0  0  0  0
 48 51  1  0  0  0  0
 48 46  1  1  0  0  0
 49 50  1  0  0  0  0
 49 48  1  0  0  0  0
 50 47  1  1  0  0  0
 50 51  1  0  0  0  0
 52 49  1  0  0  0  0
 53 49  1  0  0  0  0
M  END
>  <MODEL>
1

>  <REMARK>
 VINA RESULT:      -7.0      0.000      0.000
  Name = 
  17 active torsions:
  status: ('A' for Active; 'I' for Inactive)
    1  A    between atoms: O_1  and  C_13
    2  A    between atoms: O_1  and  C_22
    3  A    between atoms: C_3  and  C_28
    4  A    between atoms: N_4  and  C_7
    5  A    between atoms: N_4  and  C_8
    6  A    between atoms: N_4  and  C_21
    7  A    between atoms: C_7  and  C_37
    8  A    between atoms: C_10  and  C_47
    9  A    between atoms: C_10  and  O_53
   10  A    between atoms: C_15  and  O_53
   11  A    between atoms: C_18  and  C_28
   12  A    between atoms: C_19  and  C_38
   13  A    between atoms: C_21  and  N_24
   14  A    between atoms: C_22  and  N_29
   15  A    between atoms: C_28  and  C_31
   16  A    between atoms: N_29  and  C_38
   17  A    between atoms: C_31  and  C_39
                            x       y       z     vdW  Elec       q    Type
                         _______ _______ _______ _____ _____    ______ ____

>  <TORSDO>
F 17

$$$$
=
 OpenBabel11062414043D

 53 57  0  0  1  0  0  0  0  0999 V2000
  188.7540  175.8280  136.4280 C   0  0  1  0  0  3  0  0  0  0  0  0
  189.0490  177.0240  137.3280 C   0  0  0  0  0  2  0  0  0  0  0  0
  189.1030  174.5700  137.0850 N   0  0  0  0  0  2  0  0  0  0  0  0
  189.5810  176.5670  138.6930 C   0  0  1  0  0  3  0  0  0  0  0  0
  190.6450  175.6390  138.5990 O   0  0  0  0  0  0  0  0  0  0  0  0
  190.4840  174.6880  137.5560 C   0  0  0  0  0  2  0  0  0  0  0  0
  190.0120  177.7510  139.5610 C   0  0  2  0  0  3  0  0  0  0  0  0
  191.2800  177.5360  140.1190 O   0  0  0  0  0  1  0  0  0  0  0  0
  189.0250  178.0500  140.5970 N   0  0  0  0  0  0  0  0  0  0  0  0
  189.3440  178.9450  141.6710 C   0  0  0  0  0  3  0  0  0  0  0  0
  189.7130  178.5540  142.8930 C   0  0  0  0  0  3  0  0  0  0  0  0
  189.9380  177.1300  143.3090 C   0  0  1  0  0  3  0  0  0  0  0  0
  192.0430  177.9900  144.0650 O   0  0  0  0  0  1  0  0  0  0  0  0
  191.4140  176.8330  143.5940 C   0  0  0  0  0  3  0  0  0  0  0  0
  191.5430  175.8140  144.5420 O   0  0  0  0  0  1  0  0  0  0  0  0
  188.9580  176.6220  144.3840 C   0  0  0  0  0  2  0  0  0  0  0  0
  187.8750  178.5870  148.0900 C   0  0  0  0  0  2  0  0  0  0  0  0
  186.2140  176.9550  145.5860 C   0  0  0  0  0  1  0  0  0  0  0  0
  188.9900  176.6680  146.8710 C   0  0  0  0  0  2  0  0  0  0  0  0
  187.2540  178.0590  145.6500 C   0  0  1  0  0  3  0  0  0  0  0  0
  186.9900  178.9230  146.8900 C   0  0  0  0  0  2  0  0  0  0  0  0
  188.6960  177.5090  145.6170 C   0  0  2  0  0  0  0  0  0  0  0  0
  188.2100  177.0970  148.1190 C   0  0  0  0  0  2  0  0  0  0  0  0
  189.6040  178.5730  145.6120 O   0  0  0  0  0  1  0  0  0  0  0  0
  187.7000  177.4490  140.4990 C   0  0  0  0  0  2  0  0  0  0  0  0
  185.3280  178.4140  142.1000 C   0  0  0  0  0  1  0  0  0  0  0  0
  186.7340  178.4090  139.9780 N   0  0  0  0  0  2  0  0  0  0  0  0
  184.7860  179.7160  140.1590 N   0  0  0  0  0  2  0  0  0  0  0  0
  185.5980  178.8790  140.7150 C   0  0  0  0  0  0  0  0  0  0  0  0
  187.2810  175.8340  136.0610 C   0  0  0  0  0  2  0  0  0  0  0  0
  186.5440  176.7710  136.8930 N   0  0  0  0  0  2  0  0  0  0  0  0
  185.1390  176.3820  136.8910 C   0  0  0  0  0  2  0  0  0  0  0  0
  184.4570  177.0430  137.9180 O   0  0  0  0  0  0  0  0  0  0  0  0
  179.7140  178.0360  139.8120 C   0  0  0  0  0  3  0  0  0  0  0  0
  181.8230  178.4320  138.5490 C   0  0  1  0  0  3  0  0  0  0  0  0
  181.6470  177.5590  136.4400 C   0  0  1  0  0  3  0  0  0  0  0  0
  183.2420  176.3740  138.0390 C   0  0  1  0  0  3  0  0  0  0  0  0
  182.0960  178.6670  137.1820 O   0  0  0  0  0  0  0  0  0  0  0  0
  181.6220  177.9230  134.9670 C   0  0  0  0  0  1  0  0  0  0  0  0
  180.3570  176.8950  140.5440 C   0  0  0  0  0  2  0  0  0  0  0  0
  180.3890  178.7490  138.9000 C   0  0  0  0  0  3  0  0  0  0  0  0
  182.3760  177.0780  139.0870 C   0  0  2  0  0  3  0  0  0  0  0  0
  181.2790  176.1370  139.5950 C   0  0  0  0  0  2  0  0  0  0  0  0
  182.5510  176.3350  136.6680 C   0  0  1  0  0  3  0  0  0  0  0  0
  181.7450  175.0510  136.5400 C   0  0  0  0  0  2  0  0  0  0  0  0
  182.5410  174.0340  136.0110 O   0  0  0  0  0  0  0  0  0  0  0  0
  183.9340  170.8930  135.3920 O   0  0  0  0  0  1  0  0  0  0  0  0
  182.8430  173.2140  137.1000 C   0  0  2  0  0  3  0  0  0  0  0  0
  184.2570  172.6630  136.9890 C   0  0  0  0  0  0  0  0  0  0  0  0
  183.7110  171.2680  136.7190 C   0  0  1  0  0  3  0  0  0  0  0  0
  182.2980  171.8140  136.8550 C   0  0  0  0  0  2  0  0  0  0  0  0
  184.9920  173.2020  135.9450 F   0  0  0  0  0  0  0  0  0  0  0  0
  184.9280  172.7260  138.1940 F   0  0  0  0  0  0  0  0  0  0  0  0
  1 30  1  1  0  0  0
  1  3  1  0  0  0  0
  1  2  1  0  0  0  0
  2  4  1  0  0  0  0
  3  6  1  0  0  0  0
  4  7  1  6  0  0  0
  5  4  1  0  0  0  0
  6  5  1  0  0  0  0
  7  8  1  1  0  0  0
  7  9  1  0  0  0  0
  9 10  1  0  0  0  0
 10 11  2  0  0  0  0
 12 11  1  1  0  0  0
 12 14  1  0  0  0  0
 12 16  1  0  0  0  0
 14 13  1  0  0  0  0
 14 15  1  0  0  0  0
 16 22  1  0  0  0  0
 17 23  1  0  0  0  0
 19 23  1  0  0  0  0
 20 18  1  1  0  0  0
 20 21  1  0  0  0  0
 21 17  1  0  0  0  0
 22 24  1  6  0  0  0
 22 20  1  0  0  0  0
 22 19  1  0  0  0  0
 25  9  1  0  0  0  0
 27 25  1  0  0  0  0
 27 29  1  0  0  0  0
 28 29  2  0  0  0  0
 29 26  1  0  0  0  0
 30 31  1  0  0  0  0
 32 31  1  0  0  0  0
 32 33  1  0  0  0  0
 34 40  1  0  0  0  0
 35 41  1  6  0  0  0
 35 42  1  0  0  0  0
 36 39  1  6  0  0  0
 36 44  1  0  0  0  0
 36 38  1  0  0  0  0
 37 33  1  6  0  0  0
 37 42  1  0  0  0  0
 38 35  1  0  0  0  0
 41 34  2  0  0  0  0
 42 43  1  6  0  0  0
 43 40  1  0  0  0  0
 44 45  1  1  0  0  0
 44 37  1  0  0  0  0
 46 45  1  0  0  0  0
 48 46  1  6  0  0  0
 49 48  1  0  0  0  0
 49 53  1  0  0  0  0
 50 47  1  6  0  0  0
 50 51  1  0  0  0  0
 50 49  1  0  0  0  0
 51 48  1  0  0  0  0
 52 49  1  0  0  0  0
M  END
>  <MODEL>
2

>  <REMARK>
 VINA RESULT:      -6.8      3.163      7.584
  Name = 
  17 active torsions:
  status: ('A' for Active; 'I' for Inactive)
    1  A    between atoms: O_1  and  C_13
    2  A    between atoms: O_1  and  C_22
    3  A    between atoms: C_3  and  C_28
    4  A    between atoms: N_4  and  C_7
    5  A    between atoms: N_4  and  C_8
    6  A    between atoms: N_4  and  C_21
    7  A    between atoms: C_7  and  C_37
    8  A    between atoms: C_10  and  C_47
    9  A    between atoms: C_10  and  O_53
   10  A    between atoms: C_15  and  O_53
   11  A    between atoms: C_18  and  C_28
   12  A    between atoms: C_19  and  C_38
   13  A    between atoms: C_21  and  N_24
   14  A    between atoms: C_22  and  N_29
   15  A    between atoms: C_28  and  C_31
   16  A    between atoms: N_29  and  C_38
   17  A    between atoms: C_31  and  C_39
                            x       y       z     vdW  Elec       q    Type
                         _______ _______ _______ _____ _____    ______ ____

>  <TORSDO>
F 17

$$$$
=
 OpenBabel11062414043D

 53 57  0  0  1  0  0  0  0  0999 V2000
  183.8070  179.2540  142.6690 C   0  0  1  0  0  3  0  0  0  0  0  0
  184.5230  178.7180  143.9050 C   0  0  0  0  0  2  0  0  0  0  0  0
  184.5150  178.8870  141.4450 N   0  0  0  0  0  2  0  0  0  0  0  0
  185.7590  177.8980  143.5120 C   0  0  1  0  0  3  0  0  0  0  0  0
  186.6080  178.5650  142.5980 O   0  0  0  0  0  0  0  0  0  0  0  0
  185.9110  179.3000  141.6030 C   0  0  0  0  0  2  0  0  0  0  0  0
  186.5680  177.4660  144.7370 C   0  0  2  0  0  3  0  0  0  0  0  0
  186.4740  178.4110  145.7680 O   0  0  0  0  0  1  0  0  0  0  0  0
  187.9640  177.1970  144.3960 N   0  0  0  0  0  0  0  0  0  0  0  0
  188.3020  176.1430  143.4850 C   0  0  0  0  0  3  0  0  0  0  0  0
  189.0550  176.3020  142.3940 C   0  0  0  0  0  3  0  0  0  0  0  0
  189.7350  177.5800  141.9980 C   0  0  1  0  0  3  0  0  0  0  0  0
  191.6100  178.6440  143.0470 O   0  0  0  0  0  1  0  0  0  0  0  0
  191.2430  177.5430  142.2660 C   0  0  0  0  0  3  0  0  0  0  0  0
  191.6040  176.3640  142.9240 O   0  0  0  0  0  1  0  0  0  0  0  0
  189.3400  178.1020  140.6030 C   0  0  0  0  0  2  0  0  0  0  0  0
  190.1990  175.9200  136.9610 C   0  0  0  0  0  2  0  0  0  0  0  0
  189.1330  179.0700  137.7560 C   0  0  0  0  0  1  0  0  0  0  0  0
  190.9990  177.0280  139.0920 C   0  0  0  0  0  2  0  0  0  0  0  0
  188.7280  177.6620  138.1530 C   0  0  1  0  0  3  0  0  0  0  0  0
  188.9040  176.7320  136.9450 C   0  0  0  0  0  2  0  0  0  0  0  0
  189.4960  177.1590  139.3940 C   0  0  2  0  0  0  0  0  0  0  0  0
  191.3250  176.7040  137.6300 C   0  0  0  0  0  2  0  0  0  0  0  0
  189.0330  175.8870  139.7490 O   0  0  0  0  0  1  0  0  0  0  0  0
  189.0030  178.0430  144.9710 C   0  0  0  0  0  2  0  0  0  0  0  0
  189.1600  177.8250  147.9790 C   0  0  0  0  0  1  0  0  0  0  0  0
  190.0090  177.2380  145.6520 N   0  0  0  0  0  2  0  0  0  0  0  0
  191.0490  176.3980  147.5880 N   0  0  0  0  0  2  0  0  0  0  0  0
  190.1080  177.1210  147.0770 C   0  0  0  0  0  0  0  0  0  0  0  0
  182.3910  178.7050  142.6370 C   0  0  0  0  0  2  0  0  0  0  0  0
  181.8120  178.8430  141.3120 N   0  0  0  0  0  2  0  0  0  0  0  0
  180.7010  177.9060  141.1950 C   0  0  0  0  0  2  0  0  0  0  0  0
  181.0340  176.8750  140.3090 O   0  0  0  0  0  0  0  0  0  0  0  0
  184.9690  176.1960  136.9740 C   0  0  0  0  0  3  0  0  0  0  0  0
  183.0140  175.5860  138.3890 C   0  0  1  0  0  3  0  0  0  0  0  0
  181.0710  175.9390  137.2310 C   0  0  1  0  0  3  0  0  0  0  0  0
  181.5430  177.5150  139.1800 C   0  0  1  0  0  3  0  0  0  0  0  0
  181.7410  175.0490  138.0910 O   0  0  0  0  0  0  0  0  0  0  0  0
  179.8600  175.2420  136.6380 C   0  0  0  0  0  1  0  0  0  0  0  0
  185.1070  177.4960  137.7090 C   0  0  0  0  0  2  0  0  0  0  0  0
  184.0120  175.3130  137.2900 C   0  0  0  0  0  3  0  0  0  0  0  0
  182.9790  177.0450  138.9340 C   0  0  2  0  0  3  0  0  0  0  0  0
  183.7220  178.0420  138.0400 C   0  0  0  0  0  2  0  0  0  0  0  0
  180.6350  177.2110  137.9790 C   0  0  1  0  0  3  0  0  0  0  0  0
  180.6260  178.4020  137.0350 C   0  0  0  0  0  2  0  0  0  0  0  0
  180.2050  179.5500  137.7100 O   0  0  0  0  0  0  0  0  0  0  0  0
  179.3190  182.8890  138.2160 O   0  0  0  0  0  1  0  0  0  0  0  0
  181.1060  180.5440  137.3210 C   0  0  2  0  0  3  0  0  0  0  0  0
  181.3110  181.5570  138.4370 C   0  0  0  0  0  0  0  0  0  0  0  0
  180.5610  182.6140  137.6380 C   0  0  1  0  0  3  0  0  0  0  0  0
  180.3780  181.6080  136.5130 C   0  0  0  0  0  2  0  0  0  0  0  0
  180.7060  181.2080  139.6340 F   0  0  0  0  0  0  0  0  0  0  0  0
  182.6430  181.8840  138.5940 F   0  0  0  0  0  0  0  0  0  0  0  0
  1 30  1  6  0  0  0
  1  2  1  0  0  0  0
  3  6  1  0  0  0  0
  3  1  1  0  0  0  0
  4  2  1  0  0  0  0
  4  7  1  1  0  0  0
  5  4  1  0  0  0  0
  6  5  1  0  0  0  0
  7  8  1  1  0  0  0
  9  7  1  0  0  0  0
  9 25  1  0  0  0  0
 10  9  1  0  0  0  0
 11 10  2  0  0  0  0
 12 16  1  6  0  0  0
 12 14  1  0  0  0  0
 12 11  1  0  0  0  0
 14 15  1  0  0  0  0
 14 13  1  0  0  0  0
 17 23  1  0  0  0  0
 19 22  1  0  0  0  0
 20 18  1  6  0  0  0
 20 22  1  0  0  0  0
 21 17  1  0  0  0  0
 21 20  1  0  0  0  0
 22 24  1  1  0  0  0
 22 16  1  0  0  0  0
 23 19  1  0  0  0  0
 25 27  1  0  0  0  0
 27 29  1  0  0  0  0
 29 28  2  0  0  0  0
 29 26  1  0  0  0  0
 31 30  1  0  0  0  0
 32 31  1  0  0  0  0
 33 32  1  0  0  0  0
 34 41  2  0  0  0  0
 34 40  1  0  0  0  0
 35 41  1  6  0  0  0
 35 42  1  0  0  0  0
 36 39  1  1  0  0  0
 36 44  1  0  0  0  0
 36 38  1  0  0  0  0
 37 33  1  1  0  0  0
 38 35  1  0  0  0  0
 40 43  1  0  0  0  0
 42 43  1  6  0  0  0
 42 37  1  0  0  0  0
 44 45  1  6  0  0  0
 44 37  1  0  0  0  0
 45 46  1  0  0  0  0
 48 46  1  1  0  0  0
 48 49  1  0  0  0  0
 49 53  1  0  0  0  0
 49 52  1  0  0  0  0
 50 47  1  1  0  0  0
 50 49  1  0  0  0  0
 51 48  1  0  0  0  0
 51 50  1  0  0  0  0
M  END
>  <MODEL>
3

>  <REMARK>
 VINA RESULT:      -6.7      1.908      3.048
  Name = 
  17 active torsions:
  status: ('A' for Active; 'I' for Inactive)
    1  A    between atoms: O_1  and  C_13
    2  A    between atoms: O_1  and  C_22
    3  A    between atoms: C_3  and  C_28
    4  A    between atoms: N_4  and  C_7
    5  A    between atoms: N_4  and  C_8
    6  A    between atoms: N_4  and  C_21
    7  A    between atoms: C_7  and  C_37
    8  A    between atoms: C_10  and  C_47
    9  A    between atoms: C_10  and  O_53
   10  A    between atoms: C_15  and  O_53
   11  A    between atoms: C_18  and  C_28
   12  A    between atoms: C_19  and  C_38
   13  A    between atoms: C_21  and  N_24
   14  A    between atoms: C_22  and  N_29
   15  A    between atoms: C_28  and  C_31
   16  A    between atoms: N_29  and  C_38
   17  A    between atoms: C_31  and  C_39
                            x       y       z     vdW  Elec       q    Type
                         _______ _______ _______ _____ _____    ______ ____

>  <TORSDO>
F 17

$$$$
=
 OpenBabel11062414043D

 53 57  0  0  1  0  0  0  0  0999 V2000
  187.9130  177.1140  137.8850 C   0  0  1  0  0  3  0  0  0  0  0  0
  187.6190  177.9850  139.1020 C   0  0  0  0  0  2  0  0  0  0  0  0
  188.9700  176.1470  138.1670 N   0  0  0  0  0  2  0  0  0  0  0  0
  188.4810  177.5650  140.3000 C   0  0  1  0  0  3  0  0  0  0  0  0
  189.8560  177.4520  139.9900 O   0  0  0  0  0  0  0  0  0  0  0  0
  190.1100  176.8860  138.7120 C   0  0  0  0  0  2  0  0  0  0  0  0
  188.3020  178.5100  141.4900 C   0  0  2  0  0  3  0  0  0  0  0  0
  189.5140  178.7130  142.1640 O   0  0  0  0  0  1  0  0  0  0  0  0
  187.2640  178.0390  142.4050 N   0  0  0  0  0  0  0  0  0  0  0  0
  187.4630  176.8510  143.1830 C   0  0  0  0  0  3  0  0  0  0  0  0
  187.6140  176.8360  144.5090 C   0  0  0  0  0  3  0  0  0  0  0  0
  187.5110  178.0400  145.4000 C   0  0  1  0  0  3  0  0  0  0  0  0
  186.4050  178.8430  147.3690 O   0  0  0  0  0  1  0  0  0  0  0  0
  186.2320  178.0320  146.2420 C   0  0  0  0  0  3  0  0  0  0  0  0
  185.1420  178.4950  145.4980 O   0  0  0  0  0  1  0  0  0  0  0  0
  188.7980  178.3580  146.1850 C   0  0  0  0  0  2  0  0  0  0  0  0
  191.9500  175.5780  147.2350 C   0  0  0  0  0  2  0  0  0  0  0  0
  191.5200  178.0620  144.9240 C   0  0  0  0  0  1  0  0  0  0  0  0
  190.5350  177.6000  147.7980 C   0  0  0  0  0  2  0  0  0  0  0  0
  190.7140  176.8580  145.3770 C   0  0  1  0  0  3  0  0  0  0  0  0
  191.6760  175.7180  145.7380 C   0  0  0  0  0  2  0  0  0  0  0  0
  189.7520  177.1980  146.5360 C   0  0  2  0  0  0  0  0  0  0  0  0
  191.9110  176.9390  147.9260 C   0  0  0  0  0  2  0  0  0  0  0  0
  188.9920  176.0700  146.8620 O   0  0  0  0  0  1  0  0  0  0  0  0
  186.0390  178.8180  142.5390 C   0  0  0  0  0  2  0  0  0  0  0  0
  183.5630  178.1210  140.9550 C   0  0  0  0  0  1  0  0  0  0  0  0
  185.6980  179.4680  141.2800 N   0  0  0  0  0  2  0  0  0  0  0  0
  184.3280  179.7710  139.3910 N   0  0  0  0  0  2  0  0  0  0  0  0
  184.5330  179.1530  140.5070 C   0  0  0  0  0  0  0  0  0  0  0  0
  186.6420  176.3930  137.4710 C   0  0  0  0  0  2  0  0  0  0  0  0
  185.5610  177.3390  137.2450 N   0  0  0  0  0  2  0  0  0  0  0  0
  184.7580  176.8610  136.1260 C   0  0  0  0  0  2  0  0  0  0  0  0
  183.4430  177.3230  136.2480 O   0  0  0  0  0  0  0  0  0  0  0  0
  179.7110  176.6040  139.8010 C   0  0  0  0  0  3  0  0  0  0  0  0
  180.8850  177.6420  137.8670 C   0  0  1  0  0  3  0  0  0  0  0  0
  180.3380  176.5400  135.9370 C   0  0  1  0  0  3  0  0  0  0  0  0
  182.7280  176.2520  136.7810 C   0  0  1  0  0  3  0  0  0  0  0  0
  180.5360  177.8100  136.5080 O   0  0  0  0  0  0  0  0  0  0  0  0
  179.6490  176.6990  134.5940 C   0  0  0  0  0  1  0  0  0  0  0  0
  180.9720  175.8910  140.1940 C   0  0  0  0  0  2  0  0  0  0  0  0
  179.6720  177.4150  138.7360 C   0  0  0  0  0  3  0  0  0  0  0  0
  182.0860  176.6780  138.1030 C   0  0  2  0  0  3  0  0  0  0  0  0
  181.7180  175.4490  138.9400 C   0  0  0  0  0  2  0  0  0  0  0  0
  181.6730  175.7960  135.7610 C   0  0  1  0  0  3  0  0  0  0  0  0
  181.4630  174.2950  135.8840 C   0  0  0  0  0  2  0  0  0  0  0  0
  182.6500  173.6170  135.6020 O   0  0  0  0  0  0  0  0  0  0  0  0
  184.4230  170.6350  135.2100 O   0  0  0  0  0  1  0  0  0  0  0  0
  182.8910  172.8320  136.7320 C   0  0  2  0  0  3  0  0  0  0  0  0
  184.3550  172.4300  136.8110 C   0  0  0  0  0  0  0  0  0  0  0  0
  183.9940  170.9860  136.4920 C   0  0  1  0  0  3  0  0  0  0  0  0
  182.5270  171.3840  136.4370 C   0  0  0  0  0  2  0  0  0  0  0  0
  185.1610  173.0410  135.8630 F   0  0  0  0  0  0  0  0  0  0  0  0
  184.8550  172.5610  138.0920 F   0  0  0  0  0  0  0  0  0  0  0  0
  1 30  1  1  0  0  0
  1  3  1  0  0  0  0
  1  2  1  0  0  0  0
  2  4  1  0  0  0  0
  3  6  1  0  0  0  0
  4  7  1  1  0  0  0
  5  4  1  0  0  0  0
  6  5  1  0  0  0  0
  7  8  1  1  0  0  0
  7  9  1  0  0  0  0
  9 25  1  0  0  0  0
  9 10  1  0  0  0  0
 10 11  2  0  0  0  0
 12 11  1  1  0  0  0
 12 16  1  0  0  0  0
 12 14  1  0  0  0  0
 14 13  1  0  0  0  0
 15 14  1  0  0  0  0
 16 22  1  0  0  0  0
 17 23  1  0  0  0  0
 19 23  1  0  0  0  0
 20 18  1  1  0  0  0
 20 21  1  0  0  0  0
 20 22  1  0  0  0  0
 21 17  1  0  0  0  0
 22 24  1  1  0  0  0
 22 19  1  0  0  0  0
 27 25  1  0  0  0  0
 28 29  2  0  0  0  0
 29 26  1  0  0  0  0
 29 27  1  0  0  0  0
 31 30  1  0  0  0  0
 32 33  1  0  0  0  0
 32 31  1  0  0  0  0
 34 40  1  0  0  0  0
 35 42  1  0  0  0  0
 35 41  1  1  0  0  0
 36 39  1  6  0  0  0
 36 38  1  0  0  0  0
 37 33  1  6  0  0  0
 37 42  1  0  0  0  0
 38 35  1  0  0  0  0
 41 34  2  0  0  0  0
 42 43  1  6  0  0  0
 43 40  1  0  0  0  0
 44 45  1  1  0  0  0
 44 36  1  0  0  0  0
 44 37  1  0  0  0  0
 46 45  1  0  0  0  0
 48 46  1  6  0  0  0
 48 49  1  0  0  0  0
 49 53  1  0  0  0  0
 50 47  1  6  0  0  0
 50 49  1  0  0  0  0
 51 50  1  0  0  0  0
 51 48  1  0  0  0  0
 52 49  1  0  0  0  0
M  END
>  <MODEL>
4

>  <REMARK>
 VINA RESULT:      -6.6      3.356      7.461
  Name = 
  17 active torsions:
  status: ('A' for Active; 'I' for Inactive)
    1  A    between atoms: O_1  and  C_13
    2  A    between atoms: O_1  and  C_22
    3  A    between atoms: C_3  and  C_28
    4  A    between atoms: N_4  and  C_7
    5  A    between atoms: N_4  and  C_8
    6  A    between atoms: N_4  and  C_21
    7  A    between atoms: C_7  and  C_37
    8  A    between atoms: C_10  and  C_47
    9  A    between atoms: C_10  and  O_53
   10  A    between atoms: C_15  and  O_53
   11  A    between atoms: C_18  and  C_28
   12  A    between atoms: C_19  and  C_38
   13  A    between atoms: C_21  and  N_24
   14  A    between atoms: C_22  and  N_29
   15  A    between atoms: C_28  and  C_31
   16  A    between atoms: N_29  and  C_38
   17  A    between atoms: C_31  and  C_39
                            x       y       z     vdW  Elec       q    Type
                         _______ _______ _______ _____ _____    ______ ____

>  <TORSDO>
F 17

$$$$
=
 OpenBabel11062414043D

 53 57  0  0  1  0  0  0  0  0999 V2000
  186.8610  178.3920  136.8680 C   0  0  1  0  0  3  0  0  0  0  0  0
  186.6860  178.2390  138.3760 C   0  0  0  0  0  2  0  0  0  0  0  0
  188.2670  178.2930  136.4840 N   0  0  0  0  0  2  0  0  0  0  0  0
  188.0320  177.9700  139.0610 C   0  0  1  0  0  3  0  0  0  0  0  0
  189.0440  178.8850  138.6880 O   0  0  0  0  0  0  0  0  0  0  0  0
  189.0170  179.2380  137.3120 C   0  0  0  0  0  2  0  0  0  0  0  0
  187.9010  177.9490  140.5860 C   0  0  2  0  0  3  0  0  0  0  0  0
  187.1960  179.0680  141.0510 O   0  0  0  0  0  1  0  0  0  0  0  0
  189.2040  177.8390  141.2400 N   0  0  0  0  0  0  0  0  0  0  0  0
  189.6690  178.8750  142.1160 C   0  0  0  0  0  3  0  0  0  0  0  0
  189.6750  178.7880  143.4470 C   0  0  0  0  0  3  0  0  0  0  0  0
  189.2830  177.5690  144.2320 C   0  0  1  0  0  3  0  0  0  0  0  0
  191.6600  177.2880  144.1210 O   0  0  0  0  0  1  0  0  0  0  0  0
  190.4800  176.6630  144.5370 C   0  0  0  0  0  3  0  0  0  0  0  0
  190.5570  176.3830  145.9040 O   0  0  0  0  0  1  0  0  0  0  0  0
  188.3690  177.8600  145.4380 C   0  0  0  0  0  2  0  0  0  0  0  0
  184.0960  178.3640  144.9370 C   0  0  0  0  0  2  0  0  0  0  0  0
  186.4380  179.3100  147.2420 C   0  0  0  0  0  1  0  0  0  0  0  0
  186.4640  178.8740  144.2010 C   0  0  0  0  0  2  0  0  0  0  0  0
  186.0660  178.0100  146.5540 C   0  0  1  0  0  3  0  0  0  0  0  0
  184.5460  177.9720  146.3440 C   0  0  0  0  0  2  0  0  0  0  0  0
  186.8420  177.8000  145.2360 C   0  0  2  0  0  0  0  0  0  0  0  0
  185.0340  179.4080  144.3360 C   0  0  0  0  0  2  0  0  0  0  0  0
  186.5060  176.5590  144.6860 O   0  0  0  0  0  1  0  0  0  0  0  0
  190.0050  176.6420  141.0130 C   0  0  0  0  0  2  0  0  0  0  0  0
  191.2370  176.1360  138.3020 C   0  0  0  0  0  1  0  0  0  0  0  0
  191.3830  176.9930  140.6940 N   0  0  0  0  0  2  0  0  0  0  0  0
  193.2290  177.0890  139.2390 N   0  0  0  0  0  2  0  0  0  0  0  0
  191.9930  176.7600  139.4180 C   0  0  0  0  0  0  0  0  0  0  0  0
  186.0490  177.3200  136.1620 C   0  0  0  0  0  2  0  0  0  0  0  0
  184.6270  177.5110  136.3940 N   0  0  0  0  0  2  0  0  0  0  0  0
  183.9050  177.0880  135.2000 C   0  0  0  0  0  2  0  0  0  0  0  0
  182.6360  176.6140  135.5500 O   0  0  0  0  0  0  0  0  0  0  0  0
  179.7330  174.8280  139.4810 C   0  0  0  0  0  3  0  0  0  0  0  0
  180.3750  175.3240  137.1270 C   0  0  1  0  0  3  0  0  0  0  0  0
  181.6800  173.6350  136.3000 C   0  0  1  0  0  3  0  0  0  0  0  0
  182.8320  175.8730  136.7130 C   0  0  1  0  0  3  0  0  0  0  0  0
  180.6130  174.5030  136.0020 O   0  0  0  0  0  0  0  0  0  0  0  0
  181.7360  172.5370  135.2540 C   0  0  0  0  0  1  0  0  0  0  0  0
  180.7780  175.7850  139.9760 C   0  0  0  0  0  2  0  0  0  0  0  0
  179.5420  174.6220  138.1710 C   0  0  0  0  0  3  0  0  0  0  0  0
  181.6370  176.0730  137.6490 C   0  0  2  0  0  3  0  0  0  0  0  0
  182.0130  175.6950  139.0850 C   0  0  0  0  0  2  0  0  0  0  0  0
  183.0170  174.3940  136.3420 C   0  0  1  0  0  3  0  0  0  0  0  0
  183.9670  173.7370  137.3310 C   0  0  0  0  0  2  0  0  0  0  0  0
  185.2850  173.8540  136.8840 O   0  0  0  0  0  0  0  0  0  0  0  0
  187.6700  172.7140  134.6040 O   0  0  0  0  0  1  0  0  0  0  0  0
  185.8420  172.5880  137.0800 C   0  0  2  0  0  3  0  0  0  0  0  0
  187.3590  172.6420  136.9880 C   0  0  0  0  0  0  0  0  0  0  0  0
  187.3240  171.8810  135.6700 C   0  0  1  0  0  3  0  0  0  0  0  0
  185.8090  171.8050  135.7760 C   0  0  0  0  0  2  0  0  0  0  0  0
  187.8730  173.9260  136.8940 F   0  0  0  0  0  0  0  0  0  0  0  0
  187.9600  171.9050  137.9890 F   0  0  0  0  0  0  0  0  0  0  0  0
  1 30  1  6  0  0  0
  1  2  1  0  0  0  0
  2  4  1  0  0  0  0
  3  1  1  0  0  0  0
  3  6  1  0  0  0  0
  4  7  1  1  0  0  0
  5  4  1  0  0  0  0
  6  5  1  0  0  0  0
  7  8  1  1  0  0  0
  7  9  1  0  0  0  0
  9 10  1  0  0  0  0
 10 11  2  0  0  0  0
 12 11  1  1  0  0  0
 12 14  1  0  0  0  0
 12 16  1  0  0  0  0
 13 14  1  0  0  0  0
 14 15  1  0  0  0  0
 17 21  1  0  0  0  0
 19 23  1  0  0  0  0
 19 22  1  0  0  0  0
 20 18  1  6  0  0  0
 21 20  1  0  0  0  0
 22 24  1  6  0  0  0
 22 16  1  0  0  0  0
 22 20  1  0  0  0  0
 23 17  1  0  0  0  0
 25  9  1  0  0  0  0
 26 29  1  0  0  0  0
 27 25  1  0  0  0  0
 28 29  2  0  0  0  0
 29 27  1  0  0  0  0
 30 31  1  0  0  0  0
 32 33  1  0  0  0  0
 32 31  1  0  0  0  0
 34 40  1  0  0  0  0
 35 42  1  0  0  0  0
 35 41  1  1  0  0  0
 36 39  1  6  0  0  0
 36 44  1  0  0  0  0
 37 33  1  6  0  0  0
 37 42  1  0  0  0  0
 38 36  1  0  0  0  0
 38 35  1  0  0  0  0
 41 34  2  0  0  0  0
 42 43  1  1  0  0  0
 43 40  1  0  0  0  0
 44 37  1  0  0  0  0
 44 45  1  1  0  0  0
 46 45  1  0  0  0  0
 48 46  1  6  0  0  0
 49 48  1  0  0  0  0
 49 53  1  0  0  0  0
 50 47  1  6  0  0  0
 50 51  1  0  0  0  0
 50 49  1  0  0  0  0
 51 48  1  0  0  0  0
 52 49  1  0  0  0  0
M  END
>  <MODEL>
5

>  <REMARK>
 VINA RESULT:      -6.2      3.799      7.794
  Name = 
  17 active torsions:
  status: ('A' for Active; 'I' for Inactive)
    1  A    between atoms: O_1  and  C_13
    2  A    between atoms: O_1  and  C_22
    3  A    between atoms: C_3  and  C_28
    4  A    between atoms: N_4  and  C_7
    5  A    between atoms: N_4  and  C_8
    6  A    between atoms: N_4  and  C_21
    7  A    between atoms: C_7  and  C_37
    8  A    between atoms: C_10  and  C_47
    9  A    between atoms: C_10  and  O_53
   10  A    between atoms: C_15  and  O_53
   11  A    between atoms: C_18  and  C_28
   12  A    between atoms: C_19  and  C_38
   13  A    between atoms: C_21  and  N_24
   14  A    between atoms: C_22  and  N_29
   15  A    between atoms: C_28  and  C_31
   16  A    between atoms: N_29  and  C_38
   17  A    between atoms: C_31  and  C_39
                            x       y       z     vdW  Elec       q    Type
                         _______ _______ _______ _____ _____    ______ ____

>  <TORSDO>
F 17

$$$$
=
 OpenBabel11062414043D

 53 57  0  0  1  0  0  0  0  0999 V2000
  184.8160  178.3120  144.1390 C   0  0  1  0  0  3  0  0  0  0  0  0
  185.6430  177.4800  143.1640 C   0  0  0  0  0  2  0  0  0  0  0  0
  185.6700  179.0240  145.0860 N   0  0  0  0  0  2  0  0  0  0  0  0
  187.1450  177.6660  143.4180 C   0  0  1  0  0  3  0  0  0  0  0  0
  187.5090  177.4970  144.7750 O   0  0  0  0  0  0  0  0  0  0  0  0
  186.5710  178.0420  145.6910 C   0  0  0  0  0  2  0  0  0  0  0  0
  187.9900  176.7380  142.5430 C   0  0  2  0  0  3  0  0  0  0  0  0
  188.3030  175.5500  143.2180 O   0  0  0  0  0  1  0  0  0  0  0  0
  189.1990  177.4030  142.0600 N   0  0  0  0  0  0  0  0  0  0  0  0
  189.1180  178.6710  141.3950 C   0  0  0  0  0  3  0  0  0  0  0  0
  189.3070  178.8470  140.0860 C   0  0  0  0  0  3  0  0  0  0  0  0
  189.5460  177.7460  139.0950 C   0  0  1  0  0  3  0  0  0  0  0  0
  190.5100  175.5510  139.1070 O   0  0  0  0  0  1  0  0  0  0  0  0
  190.7540  176.8800  139.4680 C   0  0  0  0  0  3  0  0  0  0  0  0
  191.9090  177.3320  138.8230 O   0  0  0  0  0  1  0  0  0  0  0  0
  188.2810  176.9560  138.7080 C   0  0  0  0  0  2  0  0  0  0  0  0
  186.3510  177.3240  134.8480 C   0  0  0  0  0  2  0  0  0  0  0  0
  189.3540  176.1670  136.0040 C   0  0  0  0  0  1  0  0  0  0  0  0
  186.4960  176.2390  137.1310 C   0  0  0  0  0  2  0  0  0  0  0  0
  188.5360  177.4300  136.2020 C   0  0  1  0  0  3  0  0  0  0  0  0
  187.8120  177.7680  134.8920 C   0  0  0  0  0  2  0  0  0  0  0  0
  187.5610  177.3180  137.3940 C   0  0  2  0  0  0  0  0  0  0  0  0
  186.1470  176.0420  135.6510 C   0  0  0  0  0  2  0  0  0  0  0  0
  186.8870  178.5310  137.5660 O   0  0  0  0  0  1  0  0  0  0  0  0
  190.4910  176.7710  142.2990 C   0  0  0  0  0  2  0  0  0  0  0  0
  191.6610  178.9990  143.9680 C   0  0  0  0  0  1  0  0  0  0  0  0
  190.7460  176.6360  143.7270 N   0  0  0  0  0  2  0  0  0  0  0  0
  191.5120  177.4530  145.7960 N   0  0  0  0  0  2  0  0  0  0  0  0
  191.3040  177.6760  144.5410 C   0  0  0  0  0  0  0  0  0  0  0  0
  183.9680  179.2990  143.3550 C   0  0  0  0  0  2  0  0  0  0  0  0
  182.5540  178.9970  143.5010 N   0  0  0  0  0  2  0  0  0  0  0  0
  181.9290  179.0690  142.1860 C   0  0  0  0  0  2  0  0  0  0  0  0
  182.8120  178.5950  141.2090 O   0  0  0  0  0  0  0  0  0  0  0  0
  182.5440  176.0420  136.6840 C   0  0  0  0  0  3  0  0  0  0  0  0
  182.6120  176.3610  139.1530 C   0  0  1  0  0  3  0  0  0  0  0  0
  180.5010  176.7460  139.9490 C   0  0  1  0  0  3  0  0  0  0  0  0
  182.1220  178.7150  140.0050 C   0  0  1  0  0  3  0  0  0  0  0  0
  181.7000  176.0510  140.1870 O   0  0  0  0  0  0  0  0  0  0  0  0
  179.4120  176.1820  140.8430 C   0  0  0  0  0  1  0  0  0  0  0  0
  183.0370  177.4440  136.4810 C   0  0  0  0  0  2  0  0  0  0  0  0
  182.3550  175.5400  137.9120 C   0  0  0  0  0  3  0  0  0  0  0  0
  182.8300  177.8860  138.9300 C   0  0  2  0  0  3  0  0  0  0  0  0
  182.4170  178.3590  137.5320 C   0  0  0  0  0  2  0  0  0  0  0  0
  180.6710  178.2530  140.2100 C   0  0  1  0  0  3  0  0  0  0  0  0
  179.7500  179.0540  139.3030 C   0  0  0  0  0  2  0  0  0  0  0  0
  180.2030  180.3710  139.1980 O   0  0  0  0  0  0  0  0  0  0  0  0
  181.0200  183.4800  137.8360 O   0  0  0  0  0  1  0  0  0  0  0  0
  179.2650  181.0070  138.3820 C   0  0  2  0  0  3  0  0  0  0  0  0
  179.9060  181.4830  137.0870 C   0  0  0  0  0  0  0  0  0  0  0  0
  179.7710  182.9320  137.5320 C   0  0  1  0  0  3  0  0  0  0  0  0
  179.1070  182.4570  138.8150 C   0  0  0  0  0  2  0  0  0  0  0  0
  181.2150  181.0560  136.9160 F   0  0  0  0  0  0  0  0  0  0  0  0
  179.1140  181.2080  135.9910 F   0  0  0  0  0  0  0  0  0  0  0  0
  1 30  1  6  0  0  0
  1  3  1  0  0  0  0
  2  4  1  0  0  0  0
  2  1  1  0  0  0  0
  3  6  1  0  0  0  0
  4  7  1  6  0  0  0
  4  5  1  0  0  0  0
  5  6  1  0  0  0  0
  7  8  1  1  0  0  0
  9 25  1  0  0  0  0
  9  7  1  0  0  0  0
 10  9  1  0  0  0  0
 11 10  2  0  0  0  0
 12 16  1  1  0  0  0
 12 14  1  0  0  0  0
 12 11  1  0  0  0  0
 13 14  1  0  0  0  0
 15 14  1  0  0  0  0
 17 21  1  0  0  0  0
 17 23  1  0  0  0  0
 19 22  1  0  0  0  0
 20 18  1  6  0  0  0
 20 22  1  0  0  0  0
 21 20  1  0  0  0  0
 22 24  1  1  0  0  0
 22 16  1  0  0  0  0
 23 19  1  0  0  0  0
 25 27  1  0  0  0  0
 26 29  1  0  0  0  0
 27 29  1  0  0  0  0
 29 28  2  0  0  0  0
 30 31  1  0  0  0  0
 32 31  1  0  0  0  0
 33 32  1  0  0  0  0
 34 41  2  0  0  0  0
 35 41  1  6  0  0  0
 35 38  1  0  0  0  0
 36 38  1  0  0  0  0
 36 44  1  0  0  0  0
 36 39  1  1  0  0  0
 37 44  1  0  0  0  0
 37 33  1  1  0  0  0
 40 34  1  0  0  0  0
 40 43  1  0  0  0  0
 42 43  1  6  0  0  0
 42 35  1  0  0  0  0
 42 37  1  0  0  0  0
 44 45  1  6  0  0  0
 46 45  1  0  0  0  0
 48 51  1  0  0  0  0
 48 46  1  1  0  0  0
 49 50  1  0  0  0  0
 49 48  1  0  0  0  0
 50 47  1  1  0  0  0
 50 51  1  0  0  0  0
 52 49  1  0  0  0  0
 53 49  1  0  0  0  0
M  END
>  <MODEL>
6

>  <REMARK>
 VINA RESULT:      -6.1      1.043      2.318
  Name = 
  17 active torsions:
  status: ('A' for Active; 'I' for Inactive)
    1  A    between atoms: O_1  and  C_13
    2  A    between atoms: O_1  and  C_22
    3  A    between atoms: C_3  and  C_28
    4  A    between atoms: N_4  and  C_7
    5  A    between atoms: N_4  and  C_8
    6  A    between atoms: N_4  and  C_21
    7  A    between atoms: C_7  and  C_37
    8  A    between atoms: C_10  and  C_47
    9  A    between atoms: C_10  and  O_53
   10  A    between atoms: C_15  and  O_53
   11  A    between atoms: C_18  and  C_28
   12  A    between atoms: C_19  and  C_38
   13  A    between atoms: C_21  and  N_24
   14  A    between atoms: C_22  and  N_29
   15  A    between atoms: C_28  and  C_31
   16  A    between atoms: N_29  and  C_38
   17  A    between atoms: C_31  and  C_39
                            x       y       z     vdW  Elec       q    Type
                         _______ _______ _______ _____ _____    ______ ____

>  <TORSDO>
F 17

$$$$
=
 OpenBabel11062414043D

 53 57  0  0  1  0  0  0  0  0999 V2000
  185.0570  178.3020  144.6750 C   0  0  1  0  0  3  0  0  0  0  0  0
  185.7520  177.5150  143.5670 C   0  0  0  0  0  2  0  0  0  0  0  0
  186.0280  178.9280  145.5700 N   0  0  0  0  0  2  0  0  0  0  0  0
  187.2770  177.6470  143.6730 C   0  0  1  0  0  3  0  0  0  0  0  0
  187.7750  177.3800  144.9690 O   0  0  0  0  0  0  0  0  0  0  0  0
  186.9560  177.8860  146.0130 C   0  0  0  0  0  2  0  0  0  0  0  0
  187.9970  176.7580  142.6560 C   0  0  2  0  0  3  0  0  0  0  0  0
  188.3430  175.5210  143.2180 O   0  0  0  0  0  1  0  0  0  0  0  0
  189.1680  177.4240  142.0890 N   0  0  0  0  0  0  0  0  0  0  0  0
  189.0320  178.6700  141.3930 C   0  0  0  0  0  3  0  0  0  0  0  0
  189.2060  178.8220  140.0790 C   0  0  0  0  0  3  0  0  0  0  0  0
  189.4830  177.7070  139.1130 C   0  0  1  0  0  3  0  0  0  0  0  0
  190.6170  175.5960  139.0590 O   0  0  0  0  0  1  0  0  0  0  0  0
  190.7490  176.9240  139.4760 C   0  0  0  0  0  3  0  0  0  0  0  0
  191.8760  177.4910  138.8750 O   0  0  0  0  0  1  0  0  0  0  0  0
  188.2560  176.8340  138.7850 C   0  0  0  0  0  2  0  0  0  0  0  0
  185.9150  177.4710  135.1970 C   0  0  0  0  0  2  0  0  0  0  0  0
  189.2080  176.9040  135.9260 C   0  0  0  0  0  1  0  0  0  0  0  0
  186.5430  176.0210  137.1750 C   0  0  0  0  0  2  0  0  0  0  0  0
  188.1370  177.8520  136.4360 C   0  0  1  0  0  3  0  0  0  0  0  0
  187.2260  178.2520  135.2680 C   0  0  0  0  0  2  0  0  0  0  0  0
  187.3430  177.2580  137.6190 C   0  0  2  0  0  0  0  0  0  0  0  0
  186.1030  176.0440  135.7070 C   0  0  0  0  0  2  0  0  0  0  0  0
  186.4210  178.2010  138.0850 O   0  0  0  0  0  1  0  0  0  0  0  0
  190.4800  176.8150  142.2730 C   0  0  0  0  0  2  0  0  0  0  0  0
  191.6760  179.0100  143.9690 C   0  0  0  0  0  1  0  0  0  0  0  0
  190.7770  176.6450  143.6900 N   0  0  0  0  0  2  0  0  0  0  0  0
  191.5940  177.4140  145.7580 N   0  0  0  0  0  2  0  0  0  0  0  0
  191.3480  177.6680  144.5160 C   0  0  0  0  0  0  0  0  0  0  0  0
  184.1650  179.3590  144.0500 C   0  0  0  0  0  2  0  0  0  0  0  0
  182.7620  179.0290  144.2370 N   0  0  0  0  0  2  0  0  0  0  0  0
  182.0410  179.3750  143.0180 C   0  0  0  0  0  2  0  0  0  0  0  0
  182.4950  178.5890  141.9540 O   0  0  0  0  0  0  0  0  0  0  0  0
  180.1100  180.7780  137.8800 C   0  0  0  0  0  3  0  0  0  0  0  0
  181.9930  179.9030  139.2540 C   0  0  1  0  0  3  0  0  0  0  0  0
  182.2550  177.6600  138.8830 C   0  0  1  0  0  3  0  0  0  0  0  0
  181.3660  178.3440  141.1740 C   0  0  1  0  0  3  0  0  0  0  0  0
  182.9410  178.8770  139.0430 O   0  0  0  0  0  0  0  0  0  0  0  0
  183.2100  176.6170  138.3310 C   0  0  0  0  0  1  0  0  0  0  0  0
  179.2160  180.7690  139.0860 C   0  0  0  0  0  2  0  0  0  0  0  0
  181.3890  180.3870  137.9580 C   0  0  0  0  0  3  0  0  0  0  0  0
  180.9900  179.6170  140.4110 C   0  0  2  0  0  3  0  0  0  0  0  0
  179.5320  179.5500  139.9450 C   0  0  0  0  0  2  0  0  0  0  0  0
  181.6600  177.1780  140.2180 C   0  0  1  0  0  3  0  0  0  0  0  0
  180.3850  176.3870  139.9740 C   0  0  0  0  0  2  0  0  0  0  0  0
  180.6810  175.0310  139.8170 O   0  0  0  0  0  0  0  0  0  0  0  0
  180.5000  175.4780  136.3590 O   0  0  0  0  0  1  0  0  0  0  0  0
  179.5830  174.5030  139.1340 C   0  0  2  0  0  3  0  0  0  0  0  0
  180.0320  173.7060  137.9190 C   0  0  0  0  0  0  0  0  0  0  0  0
  179.4710  174.7740  136.9900 C   0  0  1  0  0  3  0  0  0  0  0  0
  179.0010  175.5580  138.2050 C   0  0  0  0  0  2  0  0  0  0  0  0
  181.4050  173.5360  137.8320 F   0  0  0  0  0  0  0  0  0  0  0  0
  179.3430  172.5150  137.8030 F   0  0  0  0  0  0  0  0  0  0  0  0
  1 30  1  6  0  0  0
  1  3  1  0  0  0  0
  2  4  1  0  0  0  0
  2  1  1  0  0  0  0
  3  6  1  0  0  0  0
  4  7  1  6  0  0  0
  4  5  1  0  0  0  0
  5  6  1  0  0  0  0
  7  8  1  1  0  0  0
  9 25  1  0  0  0  0
  9  7  1  0  0  0  0
 10  9  1  0  0  0  0
 11 10  2  0  0  0  0
 12 16  1  1  0  0  0
 12 14  1  0  0  0  0
 12 11  1  0  0  0  0
 13 14  1  0  0  0  0
 15 14  1  0  0  0  0
 17 21  1  0  0  0  0
 17 23  1  0  0  0  0
 19 22  1  0  0  0  0
 20 18  1  6  0  0  0
 20 22  1  0  0  0  0
 21 20  1  0  0  0  0
 22 24  1  1  0  0  0
 22 16  1  0  0  0  0
 23 19  1  0  0  0  0
 25 27  1  0  0  0  0
 26 29  1  0  0  0  0
 27 29  1  0  0  0  0
 29 28  2  0  0  0  0
 30 31  1  0  0  0  0
 32 31  1  0  0  0  0
 33 32  1  0  0  0  0
 34 41  2  0  0  0  0
 34 40  1  0  0  0  0
 35 41  1  6  0  0  0
 35 42  1  0  0  0  0
 36 39  1  1  0  0  0
 36 38  1  0  0  0  0
 36 44  1  0  0  0  0
 37 33  1  6  0  0  0
 38 35  1  0  0  0  0
 40 43  1  0  0  0  0
 42 43  1  6  0  0  0
 42 37  1  0  0  0  0
 44 45  1  6  0  0  0
 44 37  1  0  0  0  0
 46 45  1  0  0  0  0
 48 46  1  1  0  0  0
 49 48  1  0  0  0  0
 50 47  1  1  0  0  0
 50 49  1  0  0  0  0
 50 51  1  0  0  0  0
 51 48  1  0  0  0  0
 52 49  1  0  0  0  0
 53 49  1  0  0  0  0
M  END
>  <MODEL>
7

>  <REMARK>
 VINA RESULT:      -6.1      2.177      4.197
  Name = 
  17 active torsions:
  status: ('A' for Active; 'I' for Inactive)
    1  A    between atoms: O_1  and  C_13
    2  A    between atoms: O_1  and  C_22
    3  A    between atoms: C_3  and  C_28
    4  A    between atoms: N_4  and  C_7
    5  A    between atoms: N_4  and  C_8
    6  A    between atoms: N_4  and  C_21
    7  A    between atoms: C_7  and  C_37
    8  A    between atoms: C_10  and  C_47
    9  A    between atoms: C_10  and  O_53
   10  A    between atoms: C_15  and  O_53
   11  A    between atoms: C_18  and  C_28
   12  A    between atoms: C_19  and  C_38
   13  A    between atoms: C_21  and  N_24
   14  A    between atoms: C_22  and  N_29
   15  A    between atoms: C_28  and  C_31
   16  A    between atoms: N_29  and  C_38
   17  A    between atoms: C_31  and  C_39
                            x       y       z     vdW  Elec       q    Type
                         _______ _______ _______ _____ _____    ______ ____

>  <TORSDO>
F 17

$$$$
=
 OpenBabel11062414043D

 53 57  0  0  1  0  0  0  0  0999 V2000
  187.9090  177.4260  138.1360 C   0  0  1  0  0  3  0  0  0  0  0  0
  186.7480  178.0440  138.9100 C   0  0  0  0  0  2  0  0  0  0  0  0
  187.6930  177.5150  136.6940 N   0  0  0  0  0  2  0  0  0  0  0  0
  185.7030  178.6340  137.9540 C   0  0  1  0  0  3  0  0  0  0  0  0
  185.3050  177.7380  136.9340 O   0  0  0  0  0  0  0  0  0  0  0  0
  186.3700  176.9580  136.4110 C   0  0  0  0  0  2  0  0  0  0  0  0
  184.4660  179.1370  138.7020 C   0  0  2  0  0  3  0  0  0  0  0  0
  184.7500  179.3700  140.0550 O   0  0  0  0  0  1  0  0  0  0  0  0
  183.3340  178.2240  138.5520 N   0  0  0  0  0  0  0  0  0  0  0  0
  182.3200  178.4770  137.5700 C   0  0  0  0  0  3  0  0  0  0  0  0
  181.2980  179.3180  137.7420 C   0  0  0  0  0  3  0  0  0  0  0  0
  181.0990  180.1950  138.9440 C   0  0  1  0  0  3  0  0  0  0  0  0
  182.4340  182.1310  138.4860 O   0  0  0  0  0  1  0  0  0  0  0  0
  181.1130  181.6840  138.5870 C   0  0  0  0  0  3  0  0  0  0  0  0
  180.4510  181.9130  137.3770 O   0  0  0  0  0  1  0  0  0  0  0  0
  179.9360  179.7610  139.8570 C   0  0  0  0  0  2  0  0  0  0  0  0
  181.0280  178.8840  143.9570 C   0  0  0  0  0  2  0  0  0  0  0  0
  179.6060  177.1700  141.3620 C   0  0  0  0  0  1  0  0  0  0  0  0
  181.7020  179.4060  141.5730 C   0  0  0  0  0  2  0  0  0  0  0  0
  179.3690  178.5150  142.0250 C   0  0  1  0  0  3  0  0  0  0  0  0
  179.6480  178.3870  143.5280 C   0  0  0  0  0  2  0  0  0  0  0  0
  180.1950  179.6440  141.3720 C   0  0  2  0  0  0  0  0  0  0  0  0
  182.0580  178.6460  142.8550 C   0  0  0  0  0  2  0  0  0  0  0  0
  179.8850  180.8640  141.9810 O   0  0  0  0  0  1  0  0  0  0  0  0
  183.2740  177.0350  139.3930 C   0  0  0  0  0  2  0  0  0  0  0  0
  183.7500  174.6700  137.5770 C   0  0  0  0  0  1  0  0  0  0  0  0
  182.2050  176.1460  138.9580 N   0  0  0  0  0  2  0  0  0  0  0  0
  181.3860  174.3030  137.7480 N   0  0  0  0  0  2  0  0  0  0  0  0
  182.4030  175.0200  138.0940 C   0  0  0  0  0  0  0  0  0  0  0  0
  189.1950  178.1380  138.5170 C   0  0  0  0  0  2  0  0  0  0  0  0
  190.1300  177.2180  139.1420 N   0  0  0  0  0  2  0  0  0  0  0  0
  189.4510  176.5480  140.2440 C   0  0  0  0  0  2  0  0  0  0  0  0
  190.3900  175.9970  141.1220 O   0  0  0  0  0  0  0  0  0  0  0  0
  191.5960  178.2470  145.6550 C   0  0  0  0  0  3  0  0  0  0  0  0
  191.3060  178.0320  143.1920 C   0  0  1  0  0  3  0  0  0  0  0  0
  189.1610  178.5720  142.6060 C   0  0  1  0  0  3  0  0  0  0  0  0
  189.8220  176.1190  142.3880 C   0  0  1  0  0  3  0  0  0  0  0  0
  190.5140  178.7280  142.2520 O   0  0  0  0  0  0  0  0  0  0  0  0
  188.3230  179.5680  141.8240 C   0  0  0  0  0  1  0  0  0  0  0  0
  191.4870  176.7590  145.8060 C   0  0  0  0  0  2  0  0  0  0  0  0
  191.5200  178.8330  144.4530 C   0  0  0  0  0  3  0  0  0  0  0  0
  190.9000  176.5410  143.3900 C   0  0  2  0  0  3  0  0  0  0  0  0
  190.4560  176.2210  144.8210 C   0  0  0  0  0  2  0  0  0  0  0  0
  188.6760  177.1390  142.3280 C   0  0  1  0  0  3  0  0  0  0  0  0
  187.5920  176.7460  143.3190 C   0  0  0  0  0  2  0  0  0  0  0  0
  187.2690  177.8310  144.1360 O   0  0  0  0  0  0  0  0  0  0  0  0
  186.3210  179.7940  146.8630 O   0  0  0  0  0  1  0  0  0  0  0  0
  186.2650  177.3550  144.9820 C   0  0  2  0  0  3  0  0  0  0  0  0
  185.2100  178.4220  145.2280 C   0  0  0  0  0  0  0  0  0  0  0  0
  185.6730  178.5720  146.6700 C   0  0  1  0  0  3  0  0  0  0  0  0
  186.7100  177.4870  146.4310 C   0  0  0  0  0  2  0  0  0  0  0  0
  185.3700  179.5620  144.4550 F   0  0  0  0  0  0  0  0  0  0  0  0
  183.9310  177.9070  145.1510 F   0  0  0  0  0  0  0  0  0  0  0  0
  1 30  1  6  0  0  0
  1  2  1  0  0  0  0
  3  1  1  0  0  0  0
  4  7  1  1  0  0  0
  4  2  1  0  0  0  0
  5  4  1  0  0  0  0
  6  3  1  0  0  0  0
  6  5  1  0  0  0  0
  7  8  1  1  0  0  0
  9  7  1  0  0  0  0
  9 25  1  0  0  0  0
 10 11  2  0  0  0  0
 10  9  1  0  0  0  0
 12 11  1  6  0  0  0
 12 16  1  0  0  0  0
 13 14  1  0  0  0  0
 14 12  1  0  0  0  0
 15 14  1  0  0  0  0
 16 22  1  0  0  0  0
 19 23  1  0  0  0  0
 20 18  1  6  0  0  0
 20 21  1  0  0  0  0
 21 17  1  0  0  0  0
 22 19  1  0  0  0  0
 22 24  1  1  0  0  0
 22 20  1  0  0  0  0
 23 17  1  0  0  0  0
 26 29  1  0  0  0  0
 27 25  1  0  0  0  0
 28 29  2  0  0  0  0
 29 27  1  0  0  0  0
 30 31  1  0  0  0  0
 31 32  1  0  0  0  0
 32 33  1  0  0  0  0
 34 40  1  0  0  0  0
 35 42  1  0  0  0  0
 35 41  1  1  0  0  0
 36 39  1  6  0  0  0
 37 33  1  6  0  0  0
 37 42  1  0  0  0  0
 38 36  1  0  0  0  0
 38 35  1  0  0  0  0
 41 34  2  0  0  0  0
 42 43  1  1  0  0  0
 43 40  1  0  0  0  0
 44 37  1  0  0  0  0
 44 36  1  0  0  0  0
 44 45  1  1  0  0  0
 45 46  1  0  0  0  0
 48 46  1  6  0  0  0
 48 49  1  0  0  0  0
 48 51  1  0  0  0  0
 49 50  1  0  0  0  0
 50 47  1  6  0  0  0
 51 50  1  0  0  0  0
 52 49  1  0  0  0  0
 53 49  1  0  0  0  0
M  END
>  <MODEL>
8

>  <REMARK>
 VINA RESULT:      -6.0      3.269      9.774
  Name = 
  17 active torsions:
  status: ('A' for Active; 'I' for Inactive)
    1  A    between atoms: O_1  and  C_13
    2  A    between atoms: O_1  and  C_22
    3  A    between atoms: C_3  and  C_28
    4  A    between atoms: N_4  and  C_7
    5  A    between atoms: N_4  and  C_8
    6  A    between atoms: N_4  and  C_21
    7  A    between atoms: C_7  and  C_37
    8  A    between atoms: C_10  and  C_47
    9  A    between atoms: C_10  and  O_53
   10  A    between atoms: C_15  and  O_53
   11  A    between atoms: C_18  and  C_28
   12  A    between atoms: C_19  and  C_38
   13  A    between atoms: C_21  and  N_24
   14  A    between atoms: C_22  and  N_29
   15  A    between atoms: C_28  and  C_31
   16  A    between atoms: N_29  and  C_38
   17  A    between atoms: C_31  and  C_39
                            x       y       z     vdW  Elec       q    Type
                         _______ _______ _______ _____ _____    ______ ____

>  <TORSDO>
F 17

$$$$
=
 OpenBabel11062414043D

 53 57  0  0  1  0  0  0  0  0999 V2000
  188.4560  176.2670  137.0820 C   0  0  1  0  0  3  0  0  0  0  0  0
  189.1080  177.2190  138.0800 C   0  0  0  0  0  2  0  0  0  0  0  0
  188.8340  174.8810  137.3470 N   0  0  0  0  0  2  0  0  0  0  0  0
  189.9360  176.4480  139.1160 C   0  0  1  0  0  3  0  0  0  0  0  0
  190.8310  175.5160  138.5390 O   0  0  0  0  0  0  0  0  0  0  0  0
  190.2950  174.8280  137.4180 C   0  0  0  0  0  2  0  0  0  0  0  0
  190.7080  177.3890  140.0430 C   0  0  2  0  0  3  0  0  0  0  0  0
  191.9950  177.6460  139.5500 O   0  0  0  0  0  1  0  0  0  0  0  0
  190.7620  176.8770  141.4110 N   0  0  0  0  0  0  0  0  0  0  0  0
  189.6930  176.0760  141.9330 C   0  0  0  0  0  3  0  0  0  0  0  0
  188.5650  176.5690  142.4470 C   0  0  0  0  0  3  0  0  0  0  0  0
  188.1990  178.0250  142.4810 C   0  0  1  0  0  3  0  0  0  0  0  0
  186.3250  179.4600  142.0670 O   0  0  0  0  0  1  0  0  0  0  0  0
  187.0110  178.3470  141.5700 C   0  0  0  0  0  3  0  0  0  0  0  0
  187.4400  178.6090  140.2650 O   0  0  0  0  0  1  0  0  0  0  0  0
  188.1040  178.6210  143.8990 C   0  0  0  0  0  2  0  0  0  0  0  0
  185.3080  177.5000  147.0120 C   0  0  0  0  0  2  0  0  0  0  0  0
  188.5330  178.6290  146.8830 C   0  0  0  0  0  1  0  0  0  0  0  0
  186.0210  179.0900  145.1750 C   0  0  0  0  0  2  0  0  0  0  0  0
  187.7460  177.5310  146.1910 C   0  0  1  0  0  3  0  0  0  0  0  0
  186.7240  176.9510  147.1780 C   0  0  0  0  0  2  0  0  0  0  0  0
  187.0840  178.0170  144.8840 C   0  0  2  0  0  0  0  0  0  0  0  0
  185.3390  178.9530  146.5410 C   0  0  0  0  0  2  0  0  0  0  0  0
  186.4320  176.9470  144.2620 O   0  0  0  0  0  1  0  0  0  0  0  0
  191.9390  177.1660  142.2230 C   0  0  0  0  0  2  0  0  0  0  0  0
  191.6700  179.0670  144.5540 C   0  0  0  0  0  1  0  0  0  0  0  0
  191.7460  176.7110  143.5940 N   0  0  0  0  0  2  0  0  0  0  0  0
  191.4720  177.0910  145.9000 N   0  0  0  0  0  2  0  0  0  0  0  0
  191.6200  177.5920  144.7180 C   0  0  0  0  0  0  0  0  0  0  0  0
  186.9470  176.4210  137.1610 C   0  0  0  0  0  2  0  0  0  0  0  0
  186.5700  177.8250  137.1570 N   0  0  0  0  0  2  0  0  0  0  0  0
  185.1150  177.9110  137.1640 C   0  0  0  0  0  2  0  0  0  0  0  0
  184.6700  178.4120  138.3920 O   0  0  0  0  0  0  0  0  0  0  0  0
  180.4340  175.3910  138.4580 C   0  0  0  0  0  3  0  0  0  0  0  0
  182.6280  176.3040  139.2010 C   0  0  1  0  0  3  0  0  0  0  0  0
  182.3020  178.1240  140.5500 C   0  0  1  0  0  3  0  0  0  0  0  0
  183.2940  178.5730  138.2440 C   0  0  1  0  0  3  0  0  0  0  0  0
  183.0510  176.9450  140.3870 O   0  0  0  0  0  0  0  0  0  0  0  0
  182.4960  178.6480  141.9610 C   0  0  0  0  0  1  0  0  0  0  0  0
  180.6040  176.0500  137.1210 C   0  0  0  0  0  2  0  0  0  0  0  0
  181.3680  175.5010  139.4130 C   0  0  0  0  0  3  0  0  0  0  0  0
  182.6540  177.2160  137.9390 C   0  0  2  0  0  3  0  0  0  0  0  0
  181.2730  177.4080  137.3040 C   0  0  0  0  0  2  0  0  0  0  0  0
  182.7200  179.1940  139.5260 C   0  0  1  0  0  3  0  0  0  0  0  0
  181.5370  180.0820  139.1760 C   0  0  0  0  0  2  0  0  0  0  0  0
  181.9240  181.0590  138.2560 O   0  0  0  0  0  0  0  0  0  0  0  0
  179.4700  183.4970  138.7280 O   0  0  0  0  0  1  0  0  0  0  0  0
  180.8690  181.1270  137.3430 C   0  0  2  0  0  3  0  0  0  0  0  0
  180.6590  182.5540  136.8610 C   0  0  0  0  0  0  0  0  0  0  0  0
  179.3490  182.6400  137.6310 C   0  0  1  0  0  3  0  0  0  0  0  0
  179.5470  181.2050  138.0930 C   0  0  0  0  0  2  0  0  0  0  0  0
  181.6330  183.4430  137.2880 F   0  0  0  0  0  0  0  0  0  0  0  0
  180.4550  182.6100  135.4970 F   0  0  0  0  0  0  0  0  0  0  0  0
  1 30  1  1  0  0  0
  1  3  1  0  0  0  0
  1  2  1  0  0  0  0
  2  4  1  0  0  0  0
  3  6  1  0  0  0  0
  4  7  1  6  0  0  0
  5  4  1  0  0  0  0
  6  5  1  0  0  0  0
  7  8  1  6  0  0  0
  7  9  1  0  0  0  0
  9 10  1  0  0  0  0
  9 25  1  0  0  0  0
 10 11  2  0  0  0  0
 12 11  1  1  0  0  0
 12 16  1  0  0  0  0
 14 13  1  0  0  0  0
 14 12  1  0  0  0  0
 15 14  1  0  0  0  0
 16 22  1  0  0  0  0
 17 21  1  0  0  0  0
 19 23  1  0  0  0  0
 20 18  1  1  0  0  0
 20 21  1  0  0  0  0
 22 24  1  6  0  0  0
 22 19  1  0  0  0  0
 22 20  1  0  0  0  0
 23 17  1  0  0  0  0
 25 27  1  0  0  0  0
 26 29  1  0  0  0  0
 27 29  1  0  0  0  0
 29 28  2  0  0  0  0
 31 30  1  0  0  0  0
 31 32  1  0  0  0  0
 32 33  1  0  0  0  0
 34 41  2  0  0  0  0
 35 41  1  1  0  0  0
 35 38  1  0  0  0  0
 36 39  1  1  0  0  0
 37 33  1  1  0  0  0
 37 44  1  0  0  0  0
 38 36  1  0  0  0  0
 40 43  1  0  0  0  0
 40 34  1  0  0  0  0
 42 43  1  1  0  0  0
 42 37  1  0  0  0  0
 42 35  1  0  0  0  0
 44 45  1  6  0  0  0
 44 36  1  0  0  0  0
 46 45  1  0  0  0  0
 48 51  1  0  0  0  0
 48 46  1  1  0  0  0
 49 52  1  0  0  0  0
 49 48  1  0  0  0  0
 49 50  1  0  0  0  0
 50 51  1  0  0  0  0
 50 47  1  1  0  0  0
 53 49  1  0  0  0  0
M  END
>  <MODEL>
9

>  <REMARK>
 VINA RESULT:      -5.7      2.149      5.690
  Name = 
  17 active torsions:
  status: ('A' for Active; 'I' for Inactive)
    1  A    between atoms: O_1  and  C_13
    2  A    between atoms: O_1  and  C_22
    3  A    between atoms: C_3  and  C_28
    4  A    between atoms: N_4  and  C_7
    5  A    between atoms: N_4  and  C_8
    6  A    between atoms: N_4  and  C_21
    7  A    between atoms: C_7  and  C_37
    8  A    between atoms: C_10  and  C_47
    9  A    between atoms: C_10  and  O_53
   10  A    between atoms: C_15  and  O_53
   11  A    between atoms: C_18  and  C_28
   12  A    between atoms: C_19  and  C_38
   13  A    between atoms: C_21  and  N_24
   14  A    between atoms: C_22  and  N_29
   15  A    between atoms: C_28  and  C_31
   16  A    between atoms: N_29  and  C_38
   17  A    between atoms: C_31  and  C_39
                            x       y       z     vdW  Elec       q    Type
                         _______ _______ _______ _____ _____    ______ ____

>  <TORSDO>
F 17

$$$$
