=
 OpenBabel11062415313D

 37 41  0  0  1  0  0  0  0  0999 V2000
  189.5550  177.0450  146.6090 C   0  0  0  0  0  2  0  0  0  0  0  0
  191.4810  178.4010  143.4990 C   0  0  0  0  0  3  0  0  0  0  0  0
  188.2220  177.7300  146.7710 C   0  0  0  0  0  3  0  0  0  0  0  0
  191.0940  177.9680  142.2950 C   0  0  0  0  0  3  0  0  0  0  0  0
  189.4010  175.1440  142.4620 O   0  0  0  0  0  0  0  0  0  0  0  0
  190.0330  177.0230  145.1540 C   0  0  1  0  0  3  0  0  0  0  0  0
  187.3410  177.8920  145.7680 C   0  0  0  0  0  0  0  0  0  0  0  0
  190.5380  179.3660  145.4240 O   0  0  0  0  0  0  0  0  0  0  0  0
  188.8740  176.5440  144.2740 C   0  0  2  0  0  3  0  0  0  0  0  0
  189.7090  177.4500  141.9890 C   0  0  2  0  0  3  0  0  0  0  0  0
  190.6530  178.3330  144.7130 C   0  0  0  0  0  0  0  0  0  0  0  0
  189.3090  176.2930  142.8640 C   0  0  0  0  0  0  0  0  0  0  0  0
  187.6860  177.5060  144.3510 C   0  0  0  0  0  2  0  0  0  0  0  0
  190.6520  176.5970  139.9200 C   0  0  0  0  0  2  0  0  0  0  0  0
  188.7620  179.5010  137.8210 O   0  0  0  0  0  1  0  0  0  0  0  0
  189.4690  177.1810  140.5620 N   0  0  2  0  0  0  0  0  0  0  0  0
  189.8680  177.4110  137.7050 C   0  0  0  0  0  2  0  0  0  0  0  0
  189.1370  178.4430  139.8980 C   0  0  0  0  0  2  0  0  0  0  0  0
  188.7810  178.2390  138.4160 C   0  0  1  0  0  0  0  0  0  0  0  0
  190.3010  176.1840  138.4990 C   0  0  0  0  0  2  0  0  0  0  0  0
  187.3750  177.6280  138.2540 C   0  0  2  0  0  3  0  0  0  0  0  0
  185.1990  178.0660  138.1080 C   0  0  0  0  0  2  0  0  0  0  0  0
  185.5370  177.4300  136.7780 C   0  0  0  0  0  2  0  0  0  0  0  0
  187.0160  177.2060  136.8430 C   0  0  0  0  0  2  0  0  0  0  0  0
  186.3850  178.5100  138.7090 O   0  0  0  0  0  0  0  0  0  0  0  0
  186.1060  178.5190  145.9830 O   0  0  0  0  0  0  0  0  0  0  0  0
  185.4990  179.3730  145.0810 N   0  0  0  0  0  2  0  0  0  0  0  0
  184.1600  179.2250  144.6830 N   0  0  0  0  0  0  0  0  0  0  0  0
  184.8720  178.9510  142.3770 C   0  0  0  0  0  1  0  0  0  0  0  0
  183.8210  179.0230  143.4440 C   0  0  0  0  0  0  0  0  0  0  0  0
  180.8950  179.0500  141.0810 C   0  0  0  0  0  3  0  0  0  0  0  0
  180.0390  178.5150  143.9540 C   0  0  0  0  0  3  0  0  0  0  0  0
  179.2810  178.9200  142.9360 C   0  0  0  0  0  3  0  0  0  0  0  0
  182.0450  178.6970  141.6530 C   0  0  0  0  0  3  0  0  0  0  0  0
  181.4920  178.7410  144.0790 C   0  0  0  0  0  3  0  0  0  0  0  0
  179.8010  179.7500  141.8120 C   0  0  0  0  0  2  0  0  0  0  0  0
  182.3920  178.8660  143.0850 C   0  0  0  0  0  0  0  0  0  0  0  0
  1  3  1  0  0  0  0
  2 11  1  0  0  0  0
  4  2  2  0  0  0  0
  5 12  2  0  0  0  0
  6  1  1  1  0  0  0
  7 26  1  0  0  0  0
  7  3  2  0  0  0  0
  9 13  1  6  0  0  0
  9  6  1  0  0  0  0
 10  4  1  6  0  0  0
 10 12  1  0  0  0  0
 11  6  1  0  0  0  0
 11  8  2  0  0  0  0
 12  9  1  0  0  0  0
 13  7  1  0  0  0  0
 14 16  1  0  0  0  0
 16 18  1  6  0  0  0
 16 10  1  0  0  0  0
 17 19  1  0  0  0  0
 17 20  1  0  0  0  0
 19 15  1  6  0  0  0
 19 18  1  0  0  0  0
 20 14  1  0  0  0  0
 21 24  1  6  0  0  0
 21 19  1  0  0  0  0
 21 25  1  0  0  0  0
 22 25  1  0  0  0  0
 23 24  1  0  0  0  0
 23 22  1  0  0  0  0
 27 26  1  0  0  0  0
 28 27  1  0  0  0  0
 29 30  1  0  0  0  0
 30 28  2  0  0  0  0
 31 34  2  0  0  0  0
 31 36  1  0  0  0  0
 32 35  1  0  0  0  0
 33 32  2  0  0  0  0
 34 37  1  0  0  0  0
 36 33  1  0  0  0  0
 37 30  1  0  0  0  0
 37 35  2  0  0  0  0
M  END
>  <MODEL>
1

>  <REMARK>
 VINA RESULT:      -9.7      0.000      0.000
  Name = 
  6 active torsions:
  status: ('A' for Active; 'I' for Inactive)
    1  A    between atoms: N_8  and  C_26
    2  A    between atoms: C_10  and  C_19
    3  A    between atoms: N_12  and  N_35
    4  A    between atoms: C_13  and  O_14
    5  A    between atoms: O_14  and  N_35
    6  A    between atoms: C_28  and  C_34
                            x       y       z     vdW  Elec       q    Type
                         _______ _______ _______ _____ _____    ______ ____

>  <TORSDO>
F 6

$$$$
=
 OpenBabel11062415313D

 37 41  0  0  1  0  0  0  0  0999 V2000
  190.2810  174.8290  135.5830 C   0  0  0  0  0  2  0  0  0  0  0  0
  187.4650  177.3440  134.5990 C   0  0  0  0  0  3  0  0  0  0  0  0
  191.1160  175.3580  136.7210 C   0  0  0  0  0  3  0  0  0  0  0  0
  186.3850  177.4020  135.3850 C   0  0  0  0  0  3  0  0  0  0  0  0
  186.0210  174.6870  137.2190 O   0  0  0  0  0  0  0  0  0  0  0  0
  188.8550  175.3880  135.5890 C   0  0  1  0  0  3  0  0  0  0  0  0
  190.5960  175.8700  137.8500 C   0  0  0  0  0  0  0  0  0  0  0  0
  189.8050  177.4560  134.7880 O   0  0  0  0  0  0  0  0  0  0  0  0
  188.2910  175.2560  137.0070 C   0  0  2  0  0  3  0  0  0  0  0  0
  186.3790  177.0040  136.8410 C   0  0  2  0  0  3  0  0  0  0  0  0
  188.7620  176.7840  135.0080 C   0  0  0  0  0  0  0  0  0  0  0  0
  186.8320  175.5860  137.0630 C   0  0  0  0  0  0  0  0  0  0  0  0
  189.1090  176.0770  138.0070 C   0  0  0  0  0  2  0  0  0  0  0  0
  183.9680  177.2100  136.6380 C   0  0  0  0  0  2  0  0  0  0  0  0
  183.9960  180.4040  139.1280 O   0  0  0  0  0  1  0  0  0  0  0  0
  185.1190  177.3030  137.5410 N   0  0  2  0  0  0  0  0  0  0  0  0
  182.6660  178.7270  138.1170 C   0  0  0  0  0  2  0  0  0  0  0  0
  185.1970  178.6630  138.0790 C   0  0  0  0  0  2  0  0  0  0  0  0
  183.9530  179.0270  138.9080 C   0  0  1  0  0  0  0  0  0  0  0  0
  182.6850  177.3610  137.4400 C   0  0  0  0  0  2  0  0  0  0  0  0
  183.9720  178.3350  140.2860 C   0  0  2  0  0  3  0  0  0  0  0  0
  184.8100  178.3910  142.3450 C   0  0  0  0  0  2  0  0  0  0  0  0
  183.3220  178.5660  142.5480 C   0  0  0  0  0  2  0  0  0  0  0  0
  182.7650  178.6080  141.1590 C   0  0  0  0  0  2  0  0  0  0  0  0
  185.1210  178.6840  141.0110 O   0  0  0  0  0  0  0  0  0  0  0  0
  191.4220  176.3280  138.8850 O   0  0  0  0  0  0  0  0  0  0  0  0
  191.1030  177.3740  139.7320 N   0  0  0  0  0  2  0  0  0  0  0  0
  190.7650  177.1770  141.0810 N   0  0  0  0  0  0  0  0  0  0  0  0
  188.6080  178.2230  140.6960 C   0  0  0  0  0  1  0  0  0  0  0  0
  189.6190  177.5490  141.5720 C   0  0  0  0  0  0  0  0  0  0  0  0
  187.3380  176.9000  144.4910 C   0  0  0  0  0  3  0  0  0  0  0  0
  190.2340  177.2570  145.3620 C   0  0  0  0  0  3  0  0  0  0  0  0
  189.1370  177.3480  146.1120 C   0  0  0  0  0  3  0  0  0  0  0  0
  187.9970  176.7220  143.3470 C   0  0  0  0  0  3  0  0  0  0  0  0
  190.2950  177.4960  143.9070 C   0  0  0  0  0  3  0  0  0  0  0  0
  187.8200  177.7980  145.5790 C   0  0  0  0  0  2  0  0  0  0  0  0
  189.3150  177.3070  143.0020 C   0  0  0  0  0  0  0  0  0  0  0  0
  1  3  1  0  0  0  0
  2 11  1  0  0  0  0
  2  4  2  0  0  0  0
  3  7  2  0  0  0  0
  6  1  1  1  0  0  0
  6  9  1  0  0  0  0
  7 13  1  0  0  0  0
  7 26  1  0  0  0  0
  8 11  2  0  0  0  0
  9 12  1  0  0  0  0
  9 13  1  1  0  0  0
 10  4  1  6  0  0  0
 10 12  1  0  0  0  0
 10 16  1  0  0  0  0
 11  6  1  0  0  0  0
 12  5  2  0  0  0  0
 14 20  1  0  0  0  0
 16 14  1  6  0  0  0
 16 18  1  0  0  0  0
 17 19  1  0  0  0  0
 18 19  1  0  0  0  0
 19 15  1  1  0  0  0
 19 21  1  0  0  0  0
 20 17  1  0  0  0  0
 21 25  1  0  0  0  0
 21 24  1  1  0  0  0
 22 23  1  0  0  0  0
 24 23  1  0  0  0  0
 25 22  1  0  0  0  0
 26 27  1  0  0  0  0
 27 28  1  0  0  0  0
 28 30  2  0  0  0  0
 29 30  1  0  0  0  0
 30 37  1  0  0  0  0
 31 36  1  0  0  0  0
 32 33  2  0  0  0  0
 34 31  2  0  0  0  0
 35 32  1  0  0  0  0
 36 33  1  0  0  0  0
 37 34  1  0  0  0  0
 37 35  2  0  0  0  0
M  END
>  <MODEL>
2

>  <REMARK>
 VINA RESULT:      -9.0      2.865      7.703
  Name = 
  6 active torsions:
  status: ('A' for Active; 'I' for Inactive)
    1  A    between atoms: N_8  and  C_26
    2  A    between atoms: C_10  and  C_19
    3  A    between atoms: N_12  and  N_35
    4  A    between atoms: C_13  and  O_14
    5  A    between atoms: O_14  and  N_35
    6  A    between atoms: C_28  and  C_34
                            x       y       z     vdW  Elec       q    Type
                         _______ _______ _______ _____ _____    ______ ____

>  <TORSDO>
F 6

$$$$
=
 OpenBabel11062415313D

 37 41  0  0  1  0  0  0  0  0999 V2000
  179.3440  179.3790  142.3710 C   0  0  0  0  0  2  0  0  0  0  0  0
  179.5750  176.8430  139.4140 C   0  0  0  0  0  3  0  0  0  0  0  0
  180.3810  179.0870  143.4270 C   0  0  0  0  0  3  0  0  0  0  0  0
  180.5560  177.0190  138.5240 C   0  0  0  0  0  3  0  0  0  0  0  0
  181.7330  180.0980  138.5480 O   0  0  0  0  0  0  0  0  0  0  0  0
  179.7720  178.9050  140.9790 C   0  0  1  0  0  3  0  0  0  0  0  0
  181.6800  178.8730  143.1550 C   0  0  0  0  0  0  0  0  0  0  0  0
  179.3050  176.6650  141.7430 O   0  0  0  0  0  0  0  0  0  0  0  0
  181.2040  179.3870  140.7240 C   0  0  2  0  0  3  0  0  0  0  0  0
  181.8470  177.7420  138.8220 C   0  0  2  0  0  3  0  0  0  0  0  0
  179.5670  177.4190  140.7680 C   0  0  0  0  0  0  0  0  0  0  0  0
  181.6320  179.1500  139.3100 C   0  0  0  0  0  0  0  0  0  0  0  0
  182.1810  178.7800  141.7350 C   0  0  0  0  0  2  0  0  0  0  0  0
  182.2030  177.3970  136.4440 C   0  0  0  0  0  2  0  0  0  0  0  0
  185.5910  175.3160  137.2190 O   0  0  0  0  0  1  0  0  0  0  0  0
  182.8390  177.6730  137.7370 N   0  0  2  0  0  0  0  0  0  0  0  0
  184.3410  176.4710  135.5740 C   0  0  0  0  0  2  0  0  0  0  0  0
  183.7890  176.6020  138.0420 C   0  0  0  0  0  2  0  0  0  0  0  0
  184.9190  176.5180  137.0010 C   0  0  1  0  0  0  0  0  0  0  0  0
  183.2420  177.5020  135.3400 C   0  0  0  0  0  2  0  0  0  0  0  0
  185.9390  177.6600  137.1860 C   0  0  2  0  0  3  0  0  0  0  0  0
  187.8650  178.2530  138.1280 C   0  0  0  0  0  2  0  0  0  0  0  0
  188.1290  178.3700  136.6440 C   0  0  0  0  0  2  0  0  0  0  0  0
  186.8600  177.8960  136.0060 C   0  0  0  0  0  2  0  0  0  0  0  0
  186.7330  177.4500  138.3220 O   0  0  0  0  0  0  0  0  0  0  0  0
  182.6030  178.6280  144.1810 O   0  0  0  0  0  0  0  0  0  0  0  0
  183.7980  179.3070  144.3320 N   0  0  0  0  0  2  0  0  0  0  0  0
  185.0470  178.6860  144.1680 N   0  0  0  0  0  0  0  0  0  0  0  0
  185.3200  178.5920  146.5800 C   0  0  0  0  0  1  0  0  0  0  0  0
  185.7850  178.3320  145.1790 C   0  0  0  0  0  0  0  0  0  0  0  0
  189.3370  177.4420  146.0360 C   0  0  0  0  0  3  0  0  0  0  0  0
  188.5200  176.3760  143.3030 C   0  0  0  0  0  3  0  0  0  0  0  0
  189.7520  176.5460  143.7800 C   0  0  0  0  0  3  0  0  0  0  0  0
  188.0090  177.5070  146.0970 C   0  0  0  0  0  3  0  0  0  0  0  0
  187.3260  177.1280  143.7340 C   0  0  0  0  0  3  0  0  0  0  0  0
  190.1050  177.6050  144.7680 C   0  0  0  0  0  2  0  0  0  0  0  0
  187.0910  177.6720  144.9440 C   0  0  0  0  0  0  0  0  0  0  0  0
  1  3  1  0  0  0  0
  2 11  1  0  0  0  0
  4  2  2  0  0  0  0
  5 12  2  0  0  0  0
  6  1  1  1  0  0  0
  7  3  2  0  0  0  0
  7 26  1  0  0  0  0
  9  6  1  0  0  0  0
  9 13  1  1  0  0  0
 10  4  1  6  0  0  0
 10 12  1  0  0  0  0
 11  6  1  0  0  0  0
 11  8  2  0  0  0  0
 12  9  1  0  0  0  0
 13  7  1  0  0  0  0
 16 14  1  6  0  0  0
 16 18  1  0  0  0  0
 16 10  1  0  0  0  0
 17 19  1  0  0  0  0
 19 21  1  0  0  0  0
 19 15  1  1  0  0  0
 19 18  1  0  0  0  0
 20 17  1  0  0  0  0
 20 14  1  0  0  0  0
 21 24  1  6  0  0  0
 21 25  1  0  0  0  0
 22 25  1  0  0  0  0
 23 22  1  0  0  0  0
 24 23  1  0  0  0  0
 26 27  1  0  0  0  0
 28 27  1  0  0  0  0
 28 30  2  0  0  0  0
 30 29  1  0  0  0  0
 31 34  2  0  0  0  0
 32 35  1  0  0  0  0
 32 33  2  0  0  0  0
 33 36  1  0  0  0  0
 35 37  2  0  0  0  0
 36 31  1  0  0  0  0
 37 30  1  0  0  0  0
 37 34  1  0  0  0  0
M  END
>  <MODEL>
3

>  <REMARK>
 VINA RESULT:      -8.8      2.630      7.754
  Name = 
  6 active torsions:
  status: ('A' for Active; 'I' for Inactive)
    1  A    between atoms: N_8  and  C_26
    2  A    between atoms: C_10  and  C_19
    3  A    between atoms: N_12  and  N_35
    4  A    between atoms: C_13  and  O_14
    5  A    between atoms: O_14  and  N_35
    6  A    between atoms: C_28  and  C_34
                            x       y       z     vdW  Elec       q    Type
                         _______ _______ _______ _____ _____    ______ ____

>  <TORSDO>
F 6

$$$$
=
 OpenBabel11062415313D

 37 41  0  0  1  0  0  0  0  0999 V2000
  186.6140  177.6290  136.1700 C   0  0  0  0  0  2  0  0  0  0  0  0
  188.1180  174.0480  135.7970 C   0  0  0  0  0  3  0  0  0  0  0  0
  186.7960  178.1580  137.5700 C   0  0  0  0  0  3  0  0  0  0  0  0
  189.4450  173.9440  135.6810 C   0  0  0  0  0  3  0  0  0  0  0  0
  190.8420  176.7590  134.6830 O   0  0  0  0  0  0  0  0  0  0  0  0
  187.6870  176.6080  135.7820 C   0  0  1  0  0  3  0  0  0  0  0  0
  187.9650  178.1220  138.2330 C   0  0  0  0  0  0  0  0  0  0  0  0
  186.5350  175.0500  137.2180 O   0  0  0  0  0  0  0  0  0  0  0  0
  189.0570  177.1840  136.1520 C   0  0  2  0  0  3  0  0  0  0  0  0
  190.4210  174.9760  136.1940 C   0  0  2  0  0  3  0  0  0  0  0  0
  187.4200  175.2250  136.3390 C   0  0  0  0  0  0  0  0  0  0  0  0
  190.1790  176.3470  135.6230 C   0  0  0  0  0  0  0  0  0  0  0  0
  189.1710  177.4170  137.6620 C   0  0  0  0  0  2  0  0  0  0  0  0
  191.9990  173.1370  136.3540 C   0  0  0  0  0  2  0  0  0  0  0  0
  194.7110  175.5720  138.1210 O   0  0  0  0  0  1  0  0  0  0  0  0
  191.8330  174.5710  136.0940 N   0  0  2  0  0  0  0  0  0  0  0  0
  194.3700  173.5150  137.0000 C   0  0  0  0  0  2  0  0  0  0  0  0
  192.6060  175.3300  137.0790 C   0  0  0  0  0  2  0  0  0  0  0  0
  194.1120  175.0340  136.9820 C   0  0  1  0  0  0  0  0  0  0  0  0
  193.4400  172.7390  136.0760 C   0  0  0  0  0  2  0  0  0  0  0  0
  194.7430  175.7230  135.7560 C   0  0  2  0  0  3  0  0  0  0  0  0
  195.6500  177.6010  134.9830 C   0  0  0  0  0  2  0  0  0  0  0  0
  196.7630  176.5840  134.8780 C   0  0  0  0  0  2  0  0  0  0  0  0
  196.1810  175.3390  135.4710 C   0  0  0  0  0  2  0  0  0  0  0  0
  194.6820  177.1190  135.8730 O   0  0  0  0  0  0  0  0  0  0  0  0
  188.0800  178.6490  139.5260 O   0  0  0  0  0  0  0  0  0  0  0  0
  188.8590  178.0960  140.5260 N   0  0  0  0  0  2  0  0  0  0  0  0
  188.3990  177.9410  141.8440 N   0  0  0  0  0  0  0  0  0  0  0  0
  190.5850  177.1260  142.5160 C   0  0  0  0  0  1  0  0  0  0  0  0
  189.1620  177.5010  142.8000 C   0  0  0  0  0  0  0  0  0  0  0  0
  186.4270  177.4880  145.3820 C   0  0  0  0  0  3  0  0  0  0  0  0
  189.1800  177.1300  146.6330 C   0  0  0  0  0  3  0  0  0  0  0  0
  188.0510  177.5020  147.2330 C   0  0  0  0  0  3  0  0  0  0  0  0
  187.1660  177.1330  144.3320 C   0  0  0  0  0  3  0  0  0  0  0  0
  189.4900  177.3210  145.2030 C   0  0  0  0  0  3  0  0  0  0  0  0
  186.9690  178.2570  146.5380 C   0  0  0  0  0  2  0  0  0  0  0  0
  188.6220  177.3660  144.1740 C   0  0  0  0  0  0  0  0  0  0  0  0
  1  3  1  0  0  0  0
  2 11  1  0  0  0  0
  3  7  2  0  0  0  0
  4  2  2  0  0  0  0
  5 12  2  0  0  0  0
  6  9  1  0  0  0  0
  6  1  1  1  0  0  0
  6 11  1  0  0  0  0
  7 26  1  0  0  0  0
  9 13  1  1  0  0  0
 10  4  1  6  0  0  0
 11  8  2  0  0  0  0
 12  9  1  0  0  0  0
 12 10  1  0  0  0  0
 13  7  1  0  0  0  0
 16 10  1  0  0  0  0
 16 14  1  1  0  0  0
 16 18  1  0  0  0  0
 19 17  1  0  0  0  0
 19 18  1  0  0  0  0
 19 15  1  1  0  0  0
 20 14  1  0  0  0  0
 20 17  1  0  0  0  0
 21 24  1  1  0  0  0
 21 25  1  0  0  0  0
 21 19  1  0  0  0  0
 22 25  1  0  0  0  0
 23 22  1  0  0  0  0
 23 24  1  0  0  0  0
 26 27  1  0  0  0  0
 27 28  1  0  0  0  0
 28 30  2  0  0  0  0
 29 30  1  0  0  0  0
 30 37  1  0  0  0  0
 31 36  1  0  0  0  0
 32 33  2  0  0  0  0
 34 31  2  0  0  0  0
 35 32  1  0  0  0  0
 36 33  1  0  0  0  0
 37 34  1  0  0  0  0
 37 35  2  0  0  0  0
M  END
>  <MODEL>
4

>  <REMARK>
 VINA RESULT:      -8.8      3.766      7.944
  Name = 
  6 active torsions:
  status: ('A' for Active; 'I' for Inactive)
    1  A    between atoms: N_8  and  C_26
    2  A    between atoms: C_10  and  C_19
    3  A    between atoms: N_12  and  N_35
    4  A    between atoms: C_13  and  O_14
    5  A    between atoms: O_14  and  N_35
    6  A    between atoms: C_28  and  C_34
                            x       y       z     vdW  Elec       q    Type
                         _______ _______ _______ _____ _____    ______ ____

>  <TORSDO>
F 6

$$$$
=
 OpenBabel11062415313D

 37 41  0  0  1  0  0  0  0  0999 V2000
  179.7630  179.5240  142.3340 C   0  0  0  0  0  2  0  0  0  0  0  0
  179.7670  176.9380  139.4120 C   0  0  0  0  0  3  0  0  0  0  0  0
  180.8100  179.1870  143.3660 C   0  0  0  0  0  3  0  0  0  0  0  0
  180.7310  177.0460  138.4920 C   0  0  0  0  0  3  0  0  0  0  0  0
  182.0820  180.0520  138.4370 O   0  0  0  0  0  0  0  0  0  0  0  0
  180.1250  179.0070  140.9380 C   0  0  1  0  0  3  0  0  0  0  0  0
  182.0870  178.8960  143.0620 C   0  0  0  0  0  0  0  0  0  0  0  0
  179.5520  176.8080  141.7490 O   0  0  0  0  0  0  0  0  0  0  0  0
  181.5740  179.4030  140.6380 C   0  0  2  0  0  3  0  0  0  0  0  0
  182.0690  177.6970  138.7440 C   0  0  2  0  0  3  0  0  0  0  0  0
  179.8300  177.5320  140.7560 C   0  0  0  0  0  0  0  0  0  0  0  0
  181.9480  179.1210  139.2160 C   0  0  0  0  0  0  0  0  0  0  0  0
  182.5430  178.7550  141.6310 C   0  0  0  0  0  2  0  0  0  0  0  0
  182.3480  177.1920  136.3850 C   0  0  0  0  0  2  0  0  0  0  0  0
  185.7680  175.1740  137.1860 O   0  0  0  0  0  1  0  0  0  0  0  0
  183.0250  177.5570  137.6340 N   0  0  2  0  0  0  0  0  0  0  0  0
  184.4600  176.2130  135.5090 C   0  0  0  0  0  2  0  0  0  0  0  0
  183.9890  176.5100  137.9800 C   0  0  0  0  0  2  0  0  0  0  0  0
  185.0840  176.3580  136.9100 C   0  0  1  0  0  0  0  0  0  0  0  0
  183.3500  177.2240  135.2420 C   0  0  0  0  0  2  0  0  0  0  0  0
  186.1050  177.5110  136.9820 C   0  0  2  0  0  3  0  0  0  0  0  0
  187.9760  178.2360  137.9440 C   0  0  0  0  0  2  0  0  0  0  0  0
  188.3340  178.1230  136.4800 C   0  0  0  0  0  2  0  0  0  0  0  0
  187.1020  177.5610  135.8420 C   0  0  0  0  0  2  0  0  0  0  0  0
  186.8240  177.4750  138.1860 O   0  0  0  0  0  0  0  0  0  0  0  0
  183.0230  178.6120  144.0660 O   0  0  0  0  0  0  0  0  0  0  0  0
  184.1720  179.3490  144.2920 N   0  0  0  0  0  2  0  0  0  0  0  0
  185.1800  178.9250  145.1730 N   0  0  0  0  0  0  0  0  0  0  0  0
  186.3620  177.8840  143.3240 C   0  0  0  0  0  1  0  0  0  0  0  0
  186.2160  178.2490  144.7700 C   0  0  0  0  0  0  0  0  0  0  0  0
  187.6460  177.8270  148.2230 C   0  0  0  0  0  3  0  0  0  0  0  0
  189.6190  176.9910  146.0590 C   0  0  0  0  0  3  0  0  0  0  0  0
  189.8780  177.2920  147.3310 C   0  0  0  0  0  3  0  0  0  0  0  0
  186.8520  177.6760  147.1650 C   0  0  0  0  0  3  0  0  0  0  0  0
  188.4680  177.4890  145.2820 C   0  0  0  0  0  3  0  0  0  0  0  0
  189.0680  178.2630  148.1200 C   0  0  0  0  0  2  0  0  0  0  0  0
  187.2520  177.8350  145.7460 C   0  0  0  0  0  0  0  0  0  0  0  0
  1  3  1  0  0  0  0
  2 11  1  0  0  0  0
  4  2  2  0  0  0  0
  5 12  2  0  0  0  0
  6  1  1  1  0  0  0
  7  3  2  0  0  0  0
  7 26  1  0  0  0  0
  9  6  1  0  0  0  0
  9 13  1  1  0  0  0
 10  4  1  6  0  0  0
 10 12  1  0  0  0  0
 11  6  1  0  0  0  0
 11  8  2  0  0  0  0
 12  9  1  0  0  0  0
 13  7  1  0  0  0  0
 16 14  1  6  0  0  0
 16 18  1  0  0  0  0
 16 10  1  0  0  0  0
 17 19  1  0  0  0  0
 19 21  1  0  0  0  0
 19 15  1  1  0  0  0
 19 18  1  0  0  0  0
 20 17  1  0  0  0  0
 20 14  1  0  0  0  0
 21 24  1  6  0  0  0
 21 25  1  0  0  0  0
 22 25  1  0  0  0  0
 23 22  1  0  0  0  0
 24 23  1  0  0  0  0
 26 27  1  0  0  0  0
 27 28  1  0  0  0  0
 29 30  1  0  0  0  0
 30 28  2  0  0  0  0
 30 37  1  0  0  0  0
 32 33  2  0  0  0  0
 33 36  1  0  0  0  0
 34 31  2  0  0  0  0
 35 37  2  0  0  0  0
 35 32  1  0  0  0  0
 36 31  1  0  0  0  0
 37 34  1  0  0  0  0
M  END
>  <MODEL>
5

>  <REMARK>
 VINA RESULT:      -8.6      2.681      7.717
  Name = 
  6 active torsions:
  status: ('A' for Active; 'I' for Inactive)
    1  A    between atoms: N_8  and  C_26
    2  A    between atoms: C_10  and  C_19
    3  A    between atoms: N_12  and  N_35
    4  A    between atoms: C_13  and  O_14
    5  A    between atoms: O_14  and  N_35
    6  A    between atoms: C_28  and  C_34
                            x       y       z     vdW  Elec       q    Type
                         _______ _______ _______ _____ _____    ______ ____

>  <TORSDO>
F 6

$$$$
=
 OpenBabel11062415313D

 37 41  0  0  1  0  0  0  0  0999 V2000
  189.0900  177.9800  137.2200 C   0  0  0  0  0  2  0  0  0  0  0  0
  189.5530  174.5020  135.5120 C   0  0  0  0  0  3  0  0  0  0  0  0
  189.1140  177.8610  138.7230 C   0  0  0  0  0  3  0  0  0  0  0  0
  190.7890  173.9950  135.4690 C   0  0  0  0  0  3  0  0  0  0  0  0
  193.1090  176.3070  135.8460 O   0  0  0  0  0  0  0  0  0  0  0  0
  189.8840  176.8680  136.5280 C   0  0  1  0  0  3  0  0  0  0  0  0
  190.0550  177.1810  139.4000 C   0  0  0  0  0  0  0  0  0  0  0  0
  188.0580  175.3960  137.0910 O   0  0  0  0  0  0  0  0  0  0  0  0
  191.2500  176.7550  137.2120 C   0  0  2  0  0  3  0  0  0  0  0  0
  191.8860  174.3590  136.4390 C   0  0  2  0  0  3  0  0  0  0  0  0
  189.1210  175.5620  136.4370 C   0  0  0  0  0  0  0  0  0  0  0  0
  192.1730  175.8370  136.4730 C   0  0  0  0  0  0  0  0  0  0  0  0
  191.1020  176.3640  138.6850 C   0  0  0  0  0  2  0  0  0  0  0  0
  192.8020  172.1360  136.0960 C   0  0  0  0  0  2  0  0  0  0  0  0
  195.8160  172.9420  138.6800 O   0  0  0  0  0  1  0  0  0  0  0  0
  193.1110  173.5570  136.2920 N   0  0  2  0  0  0  0  0  0  0  0  0
  195.0520  171.5140  136.9530 C   0  0  0  0  0  2  0  0  0  0  0  0
  193.9170  173.7090  137.5050 C   0  0  0  0  0  2  0  0  0  0  0  0
  195.2640  172.9730  137.4000 C   0  0  1  0  0  0  0  0  0  0  0  0
  194.0830  171.3810  135.7830 C   0  0  0  0  0  2  0  0  0  0  0  0
  196.2490  173.7300  136.4870 C   0  0  2  0  0  3  0  0  0  0  0  0
  197.4220  175.6020  136.2230 C   0  0  0  0  0  2  0  0  0  0  0  0
  198.4720  174.5180  136.3150 C   0  0  0  0  0  2  0  0  0  0  0  0
  197.6890  173.2680  136.5720 C   0  0  0  0  0  2  0  0  0  0  0  0
  196.2190  175.1080  136.7450 O   0  0  0  0  0  0  0  0  0  0  0  0
  190.0390  177.1230  140.8010 O   0  0  0  0  0  0  0  0  0  0  0  0
  189.4970  178.1020  141.6140 N   0  0  0  0  0  2  0  0  0  0  0  0
  188.9550  177.8180  142.8790 N   0  0  0  0  0  0  0  0  0  0  0  0
  191.0040  178.5850  143.9320 C   0  0  0  0  0  1  0  0  0  0  0  0
  189.6130  178.0300  143.9810 C   0  0  0  0  0  0  0  0  0  0  0  0
  186.7170  177.6940  146.3570 C   0  0  0  0  0  3  0  0  0  0  0  0
  189.3840  177.1520  147.7230 C   0  0  0  0  0  3  0  0  0  0  0  0
  188.2180  177.4500  148.2940 C   0  0  0  0  0  3  0  0  0  0  0  0
  187.5220  177.4770  145.3190 C   0  0  0  0  0  3  0  0  0  0  0  0
  189.7850  177.5290  146.3530 C   0  0  0  0  0  3  0  0  0  0  0  0
  187.1830  178.2980  147.6380 C   0  0  0  0  0  2  0  0  0  0  0  0
  188.9850  177.7180  145.2870 C   0  0  0  0  0  0  0  0  0  0  0  0
  1  3  1  0  0  0  0
  2 11  1  0  0  0  0
  3  7  2  0  0  0  0
  4  2  2  0  0  0  0
  5 12  2  0  0  0  0
  6  9  1  0  0  0  0
  6  1  1  1  0  0  0
  7 26  1  0  0  0  0
  9 13  1  1  0  0  0
 10  4  1  6  0  0  0
 10 12  1  0  0  0  0
 11  6  1  0  0  0  0
 11  8  2  0  0  0  0
 12  9  1  0  0  0  0
 13  7  1  0  0  0  0
 16 14  1  1  0  0  0
 16 10  1  0  0  0  0
 16 18  1  0  0  0  0
 17 19  1  0  0  0  0
 19 18  1  0  0  0  0
 19 15  1  1  0  0  0
 20 14  1  0  0  0  0
 20 17  1  0  0  0  0
 21 24  1  1  0  0  0
 21 25  1  0  0  0  0
 21 19  1  0  0  0  0
 22 23  1  0  0  0  0
 22 25  1  0  0  0  0
 23 24  1  0  0  0  0
 26 27  1  0  0  0  0
 27 28  1  0  0  0  0
 28 30  2  0  0  0  0
 29 30  1  0  0  0  0
 30 37  1  0  0  0  0
 31 36  1  0  0  0  0
 32 33  2  0  0  0  0
 34 31  2  0  0  0  0
 35 32  1  0  0  0  0
 36 33  1  0  0  0  0
 37 34  1  0  0  0  0
 37 35  2  0  0  0  0
M  END
>  <MODEL>
6

>  <REMARK>
 VINA RESULT:      -8.6      4.447      8.450
  Name = 
  6 active torsions:
  status: ('A' for Active; 'I' for Inactive)
    1  A    between atoms: N_8  and  C_26
    2  A    between atoms: C_10  and  C_19
    3  A    between atoms: N_12  and  N_35
    4  A    between atoms: C_13  and  O_14
    5  A    between atoms: O_14  and  N_35
    6  A    between atoms: C_28  and  C_34
                            x       y       z     vdW  Elec       q    Type
                         _______ _______ _______ _____ _____    ______ ____

>  <TORSDO>
F 6

$$$$
=
 OpenBabel11062415313D

 37 41  0  0  1  0  0  0  0  0999 V2000
  186.9600  177.7360  135.2000 C   0  0  0  0  0  2  0  0  0  0  0  0
  190.3150  176.4230  136.6970 C   0  0  0  0  0  3  0  0  0  0  0  0
  185.7850  176.9320  135.6970 C   0  0  0  0  0  3  0  0  0  0  0  0
  190.6010  176.7560  137.9600 C   0  0  0  0  0  3  0  0  0  0  0  0
  188.9190  179.4050  138.9710 O   0  0  0  0  0  0  0  0  0  0  0  0
  188.1340  177.7330  136.1840 C   0  0  1  0  0  3  0  0  0  0  0  0
  185.5810  176.6350  136.9930 C   0  0  0  0  0  0  0  0  0  0  0  0
  188.5530  175.4670  135.4710 O   0  0  0  0  0  0  0  0  0  0  0  0
  187.5930  178.0510  137.5810 C   0  0  2  0  0  3  0  0  0  0  0  0
  189.5620  177.1190  138.9930 C   0  0  2  0  0  3  0  0  0  0  0  0
  188.9670  176.4700  136.1090 C   0  0  0  0  0  0  0  0  0  0  0  0
  188.6930  178.2740  138.5710 C   0  0  0  0  0  0  0  0  0  0  0  0
  186.6010  176.9820  138.0490 C   0  0  0  0  0  2  0  0  0  0  0  0
  191.5510  177.5030  140.3320 C   0  0  0  0  0  2  0  0  0  0  0  0
  190.1800  174.9500  143.1630 O   0  0  0  0  0  1  0  0  0  0  0  0
  190.1000  177.2940  140.3520 N   0  0  2  0  0  0  0  0  0  0  0  0
  191.7160  176.6840  142.6740 C   0  0  0  0  0  2  0  0  0  0  0  0
  189.8000  176.0890  141.1300 C   0  0  0  0  0  2  0  0  0  0  0  0
  190.2490  176.2220  142.5950 C   0  0  1  0  0  0  0  0  0  0  0  0
  192.0300  177.8430  141.7340 C   0  0  0  0  0  2  0  0  0  0  0  0
  189.2990  177.1390  143.3930 C   0  0  2  0  0  3  0  0  0  0  0  0
  187.6050  177.2020  144.8330 C   0  0  0  0  0  2  0  0  0  0  0  0
  188.7400  177.8770  145.5690 C   0  0  0  0  0  2  0  0  0  0  0  0
  189.9030  177.7660  144.6340 C   0  0  0  0  0  2  0  0  0  0  0  0
  188.1370  176.4530  143.7750 O   0  0  0  0  0  0  0  0  0  0  0  0
  184.4580  175.9020  137.3990 O   0  0  0  0  0  0  0  0  0  0  0  0
  183.3700  176.4440  138.0580 N   0  0  0  0  0  2  0  0  0  0  0  0
  183.4370  176.8870  139.3890 N   0  0  0  0  0  0  0  0  0  0  0  0
  183.2360  179.1870  138.6380 C   0  0  0  0  0  1  0  0  0  0  0  0
  183.3740  178.1460  139.7070 C   0  0  0  0  0  0  0  0  0  0  0  0
  185.1500  178.9120  142.9330 C   0  0  0  0  0  3  0  0  0  0  0  0
  182.1230  179.0670  143.2310 C   0  0  0  0  0  3  0  0  0  0  0  0
  183.0350  178.9450  144.1940 C   0  0  0  0  0  3  0  0  0  0  0  0
  184.7500  179.0050  141.6660 C   0  0  0  0  0  3  0  0  0  0  0  0
  182.2950  178.6280  141.8320 C   0  0  0  0  0  3  0  0  0  0  0  0
  184.3410  178.2530  143.9980 C   0  0  0  0  0  2  0  0  0  0  0  0
  183.4430  178.5530  141.1310 C   0  0  0  0  0  0  0  0  0  0  0  0
  1  3  1  0  0  0  0
  2  4  2  0  0  0  0
  3  7  2  0  0  0  0
  6  1  1  6  0  0  0
  6  9  1  0  0  0  0
  7 26  1  0  0  0  0
  7 13  1  0  0  0  0
  8 11  2  0  0  0  0
  9 13  1  1  0  0  0
  9 12  1  0  0  0  0
 10  4  1  6  0  0  0
 10 16  1  0  0  0  0
 11  6  1  0  0  0  0
 11  2  1  0  0  0  0
 12  5  2  0  0  0  0
 12 10  1  0  0  0  0
 14 20  1  0  0  0  0
 16 14  1  6  0  0  0
 16 18  1  0  0  0  0
 18 19  1  0  0  0  0
 19 17  1  0  0  0  0
 19 15  1  1  0  0  0
 19 21  1  0  0  0  0
 20 17  1  0  0  0  0
 21 25  1  0  0  0  0
 21 24  1  1  0  0  0
 22 23  1  0  0  0  0
 24 23  1  0  0  0  0
 25 22  1  0  0  0  0
 26 27  1  0  0  0  0
 27 28  1  0  0  0  0
 28 30  2  0  0  0  0
 29 30  1  0  0  0  0
 30 37  1  0  0  0  0
 31 36  1  0  0  0  0
 32 33  2  0  0  0  0
 34 31  2  0  0  0  0
 35 32  1  0  0  0  0
 36 33  1  0  0  0  0
 37 34  1  0  0  0  0
 37 35  2  0  0  0  0
M  END
>  <MODEL>
7

>  <REMARK>
 VINA RESULT:      -8.4      2.159      6.487
  Name = 
  6 active torsions:
  status: ('A' for Active; 'I' for Inactive)
    1  A    between atoms: N_8  and  C_26
    2  A    between atoms: C_10  and  C_19
    3  A    between atoms: N_12  and  N_35
    4  A    between atoms: C_13  and  O_14
    5  A    between atoms: O_14  and  N_35
    6  A    between atoms: C_28  and  C_34
                            x       y       z     vdW  Elec       q    Type
                         _______ _______ _______ _____ _____    ______ ____

>  <TORSDO>
F 6

$$$$
=
 OpenBabel11062415313D

 37 41  0  0  1  0  0  0  0  0999 V2000
  188.6570  179.0640  137.6700 C   0  0  0  0  0  2  0  0  0  0  0  0
  184.8850  178.0650  137.7010 C   0  0  0  0  0  3  0  0  0  0  0  0
  189.4740  178.1500  138.5490 C   0  0  0  0  0  3  0  0  0  0  0  0
  184.5200  177.0070  136.9700 C   0  0  0  0  0  3  0  0  0  0  0  0
  186.7040  176.3030  134.6030 O   0  0  0  0  0  0  0  0  0  0  0  0
  187.3960  178.3850  137.1260 C   0  0  1  0  0  3  0  0  0  0  0  0
  189.3930  176.8090  138.5070 C   0  0  0  0  0  0  0  0  0  0  0  0
  186.4730  178.6220  139.3420 O   0  0  0  0  0  0  0  0  0  0  0  0
  187.7910  177.0170  136.5600 C   0  0  2  0  0  3  0  0  0  0  0  0
  185.4540  175.8870  136.5790 C   0  0  2  0  0  3  0  0  0  0  0  0
  186.2650  178.3410  138.1320 C   0  0  0  0  0  0  0  0  0  0  0  0
  186.6620  176.3690  135.8220 C   0  0  0  0  0  0  0  0  0  0  0  0
  188.3650  176.1100  137.6520 C   0  0  0  0  0  2  0  0  0  0  0  0
  183.4390  175.1130  135.4660 C   0  0  0  0  0  2  0  0  0  0  0  0
  183.8110  171.4900  137.2410 O   0  0  0  0  0  1  0  0  0  0  0  0
  184.7900  174.7560  135.9100 N   0  0  2  0  0  0  0  0  0  0  0  0
  182.7820  172.7150  135.4960 C   0  0  0  0  0  2  0  0  0  0  0  0
  184.7060  173.6410  136.8560 C   0  0  0  0  0  2  0  0  0  0  0  0
  184.1060  172.3810  136.2090 C   0  0  1  0  0  0  0  0  0  0  0  0
  182.8640  173.9740  134.6400 C   0  0  0  0  0  2  0  0  0  0  0  0
  185.1190  171.6900  135.2750 C   0  0  2  0  0  3  0  0  0  0  0  0
  187.1360  170.7610  135.1370 C   0  0  0  0  0  2  0  0  0  0  0  0
  186.1860  169.6330  134.8020 C   0  0  0  0  0  2  0  0  0  0  0  0
  184.8260  170.2350  134.9710 C   0  0  0  0  0  2  0  0  0  0  0  0
  186.4200  171.7720  135.7920 O   0  0  0  0  0  0  0  0  0  0  0  0
  190.1940  176.0100  139.3330 O   0  0  0  0  0  0  0  0  0  0  0  0
  190.6390  176.3870  140.5880 N   0  0  0  0  0  2  0  0  0  0  0  0
  189.7650  176.6100  141.6640 N   0  0  0  0  0  0  0  0  0  0  0  0
  191.5810  176.2110  143.2260 C   0  0  0  0  0  1  0  0  0  0  0  0
  190.1560  176.5440  142.9030 C   0  0  0  0  0  0  0  0  0  0  0  0
  186.7260  177.1390  144.3250 C   0  0  0  0  0  3  0  0  0  0  0  0
  188.8960  177.3470  146.4510 C   0  0  0  0  0  3  0  0  0  0  0  0
  187.6490  177.8120  146.5070 C   0  0  0  0  0  3  0  0  0  0  0  0
  187.7530  176.5310  143.7350 C   0  0  0  0  0  3  0  0  0  0  0  0
  189.6670  177.1180  145.2140 C   0  0  0  0  0  3  0  0  0  0  0  0
  186.8890  178.2530  145.3030 C   0  0  0  0  0  2  0  0  0  0  0  0
  189.1890  176.7960  143.9970 C   0  0  0  0  0  0  0  0  0  0  0  0
  1  3  1  0  0  0  0
  2 11  1  0  0  0  0
  4  2  2  0  0  0  0
  5 12  2  0  0  0  0
  6  1  1  1  0  0  0
  6 11  1  0  0  0  0
  7  3  2  0  0  0  0
  7 26  1  0  0  0  0
  9  6  1  0  0  0  0
  9 13  1  1  0  0  0
 10  4  1  6  0  0  0
 11  8  2  0  0  0  0
 12  9  1  0  0  0  0
 12 10  1  0  0  0  0
 13  7  1  0  0  0  0
 16 14  1  1  0  0  0
 16 10  1  0  0  0  0
 16 18  1  0  0  0  0
 17 19  1  0  0  0  0
 19 18  1  0  0  0  0
 19 15  1  1  0  0  0
 20 14  1  0  0  0  0
 20 17  1  0  0  0  0
 21 24  1  1  0  0  0
 21 25  1  0  0  0  0
 21 19  1  0  0  0  0
 22 25  1  0  0  0  0
 23 24  1  0  0  0  0
 23 22  1  0  0  0  0
 26 27  1  0  0  0  0
 27 28  1  0  0  0  0
 28 30  2  0  0  0  0
 30 29  1  0  0  0  0
 30 37  1  0  0  0  0
 31 36  1  0  0  0  0
 32 33  2  0  0  0  0
 34 37  1  0  0  0  0
 34 31  2  0  0  0  0
 35 32  1  0  0  0  0
 36 33  1  0  0  0  0
 37 35  2  0  0  0  0
M  END
>  <MODEL>
8

>  <REMARK>
 VINA RESULT:      -8.3      3.788      7.922
  Name = 
  6 active torsions:
  status: ('A' for Active; 'I' for Inactive)
    1  A    between atoms: N_8  and  C_26
    2  A    between atoms: C_10  and  C_19
    3  A    between atoms: N_12  and  N_35
    4  A    between atoms: C_13  and  O_14
    5  A    between atoms: O_14  and  N_35
    6  A    between atoms: C_28  and  C_34
                            x       y       z     vdW  Elec       q    Type
                         _______ _______ _______ _____ _____    ______ ____

>  <TORSDO>
F 6

$$$$
=
 OpenBabel11062415313D

 37 41  0  0  1  0  0  0  0  0999 V2000
  186.9020  175.6770  136.6980 C   0  0  0  0  0  2  0  0  0  0  0  0
  183.8010  177.1310  134.8280 C   0  0  0  0  0  3  0  0  0  0  0  0
  187.7080  176.7690  137.3540 C   0  0  0  0  0  3  0  0  0  0  0  0
  182.7460  177.4900  135.5660 C   0  0  0  0  0  3  0  0  0  0  0  0
  182.7330  176.0370  138.5250 O   0  0  0  0  0  0  0  0  0  0  0  0
  185.4240  176.0500  136.5400 C   0  0  1  0  0  3  0  0  0  0  0  0
  187.1700  177.7350  138.1190 C   0  0  0  0  0  0  0  0  0  0  0  0
  186.1200  177.5080  134.7490 O   0  0  0  0  0  0  0  0  0  0  0  0
  184.9210  176.6010  137.8790 C   0  0  2  0  0  3  0  0  0  0  0  0
  182.8260  177.8740  137.0230 C   0  0  2  0  0  3  0  0  0  0  0  0
  185.1640  176.9560  135.3540 C   0  0  0  0  0  0  0  0  0  0  0  0
  183.4380  176.7990  137.8810 C   0  0  0  0  0  0  0  0  0  0  0  0
  185.6750  177.8740  138.2720 C   0  0  0  0  0  2  0  0  0  0  0  0
  180.5240  178.4870  136.5520 C   0  0  0  0  0  2  0  0  0  0  0  0
  180.8040  181.6290  139.0930 O   0  0  0  0  0  1  0  0  0  0  0  0
  181.5630  178.3830  137.5820 N   0  0  2  0  0  0  0  0  0  0  0  0
  179.3360  180.2030  137.9040 C   0  0  0  0  0  2  0  0  0  0  0  0
  181.8070  179.7090  138.1530 C   0  0  0  0  0  2  0  0  0  0  0  0
  180.5560  180.2800  138.8420 C   0  0  1  0  0  0  0  0  0  0  0  0
  179.2020  178.8540  137.2070 C   0  0  0  0  0  2  0  0  0  0  0  0
  180.2990  179.5940  140.1990 C   0  0  2  0  0  3  0  0  0  0  0  0
  181.2030  178.9950  142.1410 C   0  0  0  0  0  2  0  0  0  0  0  0
  180.1170  179.9740  142.5260 C   0  0  0  0  0  2  0  0  0  0  0  0
  179.5600  180.4390  141.2170 C   0  0  0  0  0  2  0  0  0  0  0  0
  181.4990  179.1630  140.7820 O   0  0  0  0  0  0  0  0  0  0  0  0
  187.9730  178.7120  138.7220 O   0  0  0  0  0  0  0  0  0  0  0  0
  188.4730  178.6240  140.0090 N   0  0  0  0  0  2  0  0  0  0  0  0
  187.6450  178.6110  141.1430 N   0  0  0  0  0  0  0  0  0  0  0  0
  189.0500  176.9080  142.1540 C   0  0  0  0  0  1  0  0  0  0  0  0
  187.8740  177.8370  142.1630 C   0  0  0  0  0  0  0  0  0  0  0  0
  184.6530  178.6280  143.9350 C   0  0  0  0  0  3  0  0  0  0  0  0
  186.7520  177.5000  145.8310 C   0  0  0  0  0  3  0  0  0  0  0  0
  185.6540  178.1860  146.1420 C   0  0  0  0  0  3  0  0  0  0  0  0
  185.5180  178.0690  143.0910 C   0  0  0  0  0  3  0  0  0  0  0  0
  187.4770  177.5850  144.5480 C   0  0  0  0  0  3  0  0  0  0  0  0
  185.0550  179.2160  145.2460 C   0  0  0  0  0  2  0  0  0  0  0  0
  186.9680  177.8720  143.3350 C   0  0  0  0  0  0  0  0  0  0  0  0
  1  3  1  0  0  0  0
  2 11  1  0  0  0  0
  2  4  2  0  0  0  0
  3  7  2  0  0  0  0
  6  1  1  1  0  0  0
  6  9  1  0  0  0  0
  7 13  1  0  0  0  0
  7 26  1  0  0  0  0
  8 11  2  0  0  0  0
  9 12  1  0  0  0  0
  9 13  1  6  0  0  0
 10  4  1  6  0  0  0
 10 16  1  0  0  0  0
 10 12  1  0  0  0  0
 11  6  1  0  0  0  0
 12  5  2  0  0  0  0
 14 20  1  0  0  0  0
 16 14  1  6  0  0  0
 16 18  1  0  0  0  0
 17 19  1  0  0  0  0
 18 19  1  0  0  0  0
 19 15  1  1  0  0  0
 19 21  1  0  0  0  0
 20 17  1  0  0  0  0
 21 25  1  0  0  0  0
 21 24  1  1  0  0  0
 22 23  1  0  0  0  0
 24 23  1  0  0  0  0
 25 22  1  0  0  0  0
 26 27  1  0  0  0  0
 27 28  1  0  0  0  0
 28 30  2  0  0  0  0
 29 30  1  0  0  0  0
 30 37  1  0  0  0  0
 31 36  1  0  0  0  0
 32 33  2  0  0  0  0
 34 37  1  0  0  0  0
 34 31  2  0  0  0  0
 35 32  1  0  0  0  0
 36 33  1  0  0  0  0
 37 35  2  0  0  0  0
M  END
>  <MODEL>
9

>  <REMARK>
 VINA RESULT:      -8.3      2.864      8.152
  Name = 
  6 active torsions:
  status: ('A' for Active; 'I' for Inactive)
    1  A    between atoms: N_8  and  C_26
    2  A    between atoms: C_10  and  C_19
    3  A    between atoms: N_12  and  N_35
    4  A    between atoms: C_13  and  O_14
    5  A    between atoms: O_14  and  N_35
    6  A    between atoms: C_28  and  C_34
                            x       y       z     vdW  Elec       q    Type
                         _______ _______ _______ _____ _____    ______ ____

>  <TORSDO>
F 6

$$$$
