=
 OpenBabel11062412583D

 38 41  0  0  1  0  0  0  0  0999 V2000
  189.3270  176.7950  140.1970 C   0  0  2  0  0  3  0  0  0  0  0  0
  192.0250  176.3500  139.0290 O   0  0  0  0  0  0  0  0  0  0  0  0
  188.0900  177.4390  137.7330 C   0  0  2  0  0  3  0  0  0  0  0  0
  188.4480  176.0940  138.0230 O   0  0  0  0  0  0  0  0  0  0  0  0
  187.7040  178.2160  139.0050 C   0  0  0  0  0  2  0  0  0  0  0  0
  188.8760  178.2340  139.9690 C   0  0  0  0  0  2  0  0  0  0  0  0
  191.6140  177.5310  141.0870 C   0  0  0  0  0  2  0  0  0  0  0  0
  190.4030  176.6080  141.2830 C   0  0  1  0  0  3  0  0  0  0  0  0
  190.8880  177.4550  137.3190 O   0  0  0  0  0  1  0  0  0  0  0  0
  192.0660  177.6180  139.6340 C   0  0  0  0  0  2  0  0  0  0  0  0
  190.9450  176.2910  138.1080 C   0  0  2  0  0  0  0  0  0  0  0  0
  189.5930  176.0600  138.8620 C   0  0  1  0  0  3  0  0  0  0  0  0
  190.6810  176.1560  143.7640 C   0  0  0  0  0  2  0  0  0  0  0  0
  190.7860  177.0190  145.0350 C   0  0  1  0  0  0  0  0  0  0  0  0
  188.3630  176.2970  142.7720 C   0  0  0  0  0  2  0  0  0  0  0  0
  187.7160  176.4460  144.1510 C   0  0  0  0  0  2  0  0  0  0  0  0
  191.2920  178.4130  144.6870 C   0  0  0  0  0  1  0  0  0  0  0  0
  188.2780  177.6140  144.9550 C   0  0  2  0  0  3  0  0  0  0  0  0
  189.4570  177.1290  145.8010 C   0  0  0  0  0  2  0  0  0  0  0  0
  189.8100  176.8050  142.6850 C   0  0  2  0  0  3  0  0  0  0  0  0
  186.2000  178.7200  145.3040 O   0  0  0  0  0  0  0  0  0  0  0  0
  187.3560  178.1780  147.2500 N   0  0  0  0  0  1  0  0  0  0  0  0
  187.2200  178.1940  145.8310 C   0  0  0  0  0  0  0  0  0  0  0  0
  191.8210  176.3890  145.9620 C   0  0  0  0  0  2  0  0  0  0  0  0
  191.8050  176.9920  147.2260 O   0  0  0  0  0  1  0  0  0  0  0  0
  191.1920  175.0840  137.1700 C   0  0  1  0  0  3  0  0  0  0  0  0
  190.4020  173.9330  137.5950 N   0  0  0  0  0  1  0  0  0  0  0  0
  189.6850  174.8260  135.2790 O   0  0  0  0  0  1  0  0  0  0  0  0
  192.0070  174.8770  134.7980 C   0  0  0  0  0  1  0  0  0  0  0  0
  190.8940  175.4060  135.6890 C   0  0  2  0  0  3  0  0  0  0  0  0
  186.9610  177.4690  136.6950 C   0  0  2  0  0  3  0  0  0  0  0  0
  187.0530  178.6180  135.9050 O   0  0  0  0  0  1  0  0  0  0  0  0
  185.5670  177.2680  137.3290 C   0  0  2  0  0  3  0  0  0  0  0  0
  184.9640  174.6580  137.3260 O   0  0  0  0  0  0  0  0  0  0  0  0
  185.0030  175.8560  137.0950 C   0  0  0  0  0  0  0  0  0  0  0  0
  184.5260  177.1120  136.3490 C   0  0  1  0  0  3  0  0  0  0  0  0
  183.1960  177.5610  136.9190 C   0  0  0  0  0  2  0  0  0  0  0  0
  183.4220  178.2650  138.2440 C   0  0  0  0  0  1  0  0  0  0  0  0
  1  6  1  6  0  0  0
  1  8  1  0  0  0  0
  2 10  1  0  0  0  0
  3 31  1  6  0  0  0
  3  4  1  0  0  0  0
  3  5  1  0  0  0  0
  5  6  1  0  0  0  0
  8  7  1  6  0  0  0
  8 20  1  0  0  0  0
 10  7  1  0  0  0  0
 11  9  1  6  0  0  0
 11 12  1  0  0  0  0
 11  2  1  0  0  0  0
 12  4  1  6  0  0  0
 12  1  1  0  0  0  0
 13 14  1  0  0  0  0
 14 17  1  6  0  0  0
 14 19  1  0  0  0  0
 14 24  1  0  0  0  0
 15 16  1  0  0  0  0
 16 18  1  0  0  0  0
 18 19  1  0  0  0  0
 18 23  1  1  0  0  0
 20 15  1  6  0  0  0
 20 13  1  0  0  0  0
 21 23  2  0  0  0  0
 23 22  1  0  0  0  0
 24 25  1  0  0  0  0
 26 27  1  1  0  0  0
 26 11  1  0  0  0  0
 28 30  1  0  0  0  0
 30 29  1  6  0  0  0
 30 26  1  0  0  0  0
 31 32  1  1  0  0  0
 33 31  1  6  0  0  0
 35 34  2  0  0  0  0
 35 33  1  0  0  0  0
 36 37  1  1  0  0  0
 36 35  1  0  0  0  0
 36 33  1  0  0  0  0
 37 38  1  0  0  0  0
M  END
>  <MODEL>
1

>  <REMARK>
 VINA RESULT:      -7.8      0.000      0.000
  Name = 
  8 active torsions:
  status: ('A' for Active; 'I' for Inactive)
    1  A    between atoms: C_3  and  C_14
    2  A    between atoms: C_6  and  C_27
    3  A    between atoms: C_7  and  C_19
    4  A    between atoms: C_8  and  C_19
    5  A    between atoms: C_11  and  C_33
    6  A    between atoms: C_11  and  C_37
    7  A    between atoms: C_25  and  C_38
    8  A    between atoms: C_31  and  C_35
                            x       y       z     vdW  Elec       q    Type
                         _______ _______ _______ _____ _____    ______ ____

>  <TORSDO>
F 8

$$$$
=
 OpenBabel11062412583D

 38 41  0  0  1  0  0  0  0  0999 V2000
  189.6570  176.7870  139.8670 C   0  0  2  0  0  3  0  0  0  0  0  0
  192.1420  176.0120  138.4280 O   0  0  0  0  0  0  0  0  0  0  0  0
  188.1610  177.3090  137.5210 C   0  0  2  0  0  3  0  0  0  0  0  0
  188.4550  175.9700  137.8970 O   0  0  0  0  0  0  0  0  0  0  0  0
  188.0010  178.2270  138.7470 C   0  0  0  0  0  2  0  0  0  0  0  0
  189.2870  178.2320  139.5530 C   0  0  0  0  0  2  0  0  0  0  0  0
  192.0880  177.4030  140.3920 C   0  0  0  0  0  2  0  0  0  0  0  0
  190.8490  176.6070  140.8260 C   0  0  1  0  0  3  0  0  0  0  0  0
  190.8760  177.0510  136.7680 O   0  0  0  0  0  1  0  0  0  0  0  0
  192.3530  177.3210  138.8930 C   0  0  0  0  0  2  0  0  0  0  0  0
  190.9500  175.9620  137.6560 C   0  0  2  0  0  0  0  0  0  0  0  0
  189.6940  175.9150  138.5900 C   0  0  1  0  0  3  0  0  0  0  0  0
  189.1790  177.8190  142.3030 C   0  0  0  0  0  2  0  0  0  0  0  0
  188.2520  177.4270  143.4690 C   0  0  1  0  0  0  0  0  0  0  0  0
  191.6020  177.6920  143.0010 C   0  0  0  0  0  2  0  0  0  0  0  0
  191.2740  178.1100  144.4360 C   0  0  0  0  0  2  0  0  0  0  0  0
  187.9300  175.9390  143.4100 C   0  0  0  0  0  1  0  0  0  0  0  0
  190.2360  177.2100  145.1010 C   0  0  2  0  0  3  0  0  0  0  0  0
  188.8370  177.7750  144.8480 C   0  0  0  0  0  2  0  0  0  0  0  0
  190.4590  176.9800  142.2640 C   0  0  2  0  0  3  0  0  0  0  0  0
  189.5610  177.3670  147.3780 O   0  0  0  0  0  0  0  0  0  0  0  0
  191.7890  176.7720  147.0590 N   0  0  0  0  0  1  0  0  0  0  0  0
  190.4960  177.1180  146.5670 C   0  0  0  0  0  0  0  0  0  0  0  0
  186.9310  178.1740  143.3080 C   0  0  0  0  0  2  0  0  0  0  0  0
  186.5850  178.3070  141.9580 O   0  0  0  0  0  1  0  0  0  0  0  0
  190.9840  174.6590  136.8200 C   0  0  1  0  0  3  0  0  0  0  0  0
  190.3290  174.8590  135.5310 N   0  0  0  0  0  1  0  0  0  0  0  0
  193.1050  174.8930  135.6530 O   0  0  0  0  0  1  0  0  0  0  0  0
  192.3760  172.6840  136.1170 C   0  0  0  0  0  1  0  0  0  0  0  0
  192.4170  174.1250  136.6030 C   0  0  2  0  0  3  0  0  0  0  0  0
  186.9120  177.3420  136.6310 C   0  0  2  0  0  3  0  0  0  0  0  0
  186.9390  178.4570  135.7910 O   0  0  0  0  0  1  0  0  0  0  0  0
  185.6030  177.2120  137.4410 C   0  0  2  0  0  3  0  0  0  0  0  0
  184.7000  174.6970  137.2610 O   0  0  0  0  0  0  0  0  0  0  0  0
  184.8490  175.9030  137.1500 C   0  0  0  0  0  0  0  0  0  0  0  0
  184.4280  177.2810  136.6150 C   0  0  1  0  0  3  0  0  0  0  0  0
  183.2510  177.7940  137.4190 C   0  0  0  0  0  2  0  0  0  0  0  0
  183.5110  177.5770  138.8980 C   0  0  0  0  0  1  0  0  0  0  0  0
  1  6  1  6  0  0  0
  1  8  1  0  0  0  0
  2 10  1  0  0  0  0
  3 31  1  1  0  0  0
  3  4  1  0  0  0  0
  3  5  1  0  0  0  0
  5  6  1  0  0  0  0
  8  7  1  6  0  0  0
  8 20  1  0  0  0  0
 10  7  1  0  0  0  0
 11  9  1  6  0  0  0
 11  2  1  0  0  0  0
 11 12  1  0  0  0  0
 12  4  1  6  0  0  0
 12  1  1  0  0  0  0
 13 14  1  0  0  0  0
 14 17  1  6  0  0  0
 14 19  1  0  0  0  0
 15 16  1  0  0  0  0
 16 18  1  0  0  0  0
 18 23  1  1  0  0  0
 19 18  1  0  0  0  0
 20 13  1  6  0  0  0
 20 15  1  0  0  0  0
 23 22  1  0  0  0  0
 23 21  2  0  0  0  0
 24 14  1  0  0  0  0
 25 24  1  0  0  0  0
 26 27  1  6  0  0  0
 26 11  1  0  0  0  0
 28 30  1  0  0  0  0
 30 29  1  6  0  0  0
 30 26  1  0  0  0  0
 31 32  1  1  0  0  0
 33 31  1  6  0  0  0
 35 34  2  0  0  0  0
 35 33  1  0  0  0  0
 36 35  1  0  0  0  0
 36 37  1  1  0  0  0
 36 33  1  0  0  0  0
 37 38  1  0  0  0  0
M  END
>  <MODEL>
2

>  <REMARK>
 VINA RESULT:      -7.0      1.500      2.546
  Name = 
  8 active torsions:
  status: ('A' for Active; 'I' for Inactive)
    1  A    between atoms: C_3  and  C_14
    2  A    between atoms: C_6  and  C_27
    3  A    between atoms: C_7  and  C_19
    4  A    between atoms: C_8  and  C_19
    5  A    between atoms: C_11  and  C_33
    6  A    between atoms: C_11  and  C_37
    7  A    between atoms: C_25  and  C_38
    8  A    between atoms: C_31  and  C_35
                            x       y       z     vdW  Elec       q    Type
                         _______ _______ _______ _____ _____    ______ ____

>  <TORSDO>
F 8

$$$$
=
 OpenBabel11062412583D

 38 41  0  0  1  0  0  0  0  0999 V2000
  191.7070  175.0840  137.7270 C   0  0  2  0  0  3  0  0  0  0  0  0
  189.8030  175.7970  135.5570 O   0  0  0  0  0  0  0  0  0  0  0  0
  190.8290  177.1050  139.5040 C   0  0  2  0  0  3  0  0  0  0  0  0
  190.0210  175.9590  139.2710 O   0  0  0  0  0  0  0  0  0  0  0  0
  192.3300  176.7790  139.4040 C   0  0  0  0  0  2  0  0  0  0  0  0
  192.6460  176.2500  138.0170 C   0  0  0  0  0  2  0  0  0  0  0  0
  192.1160  175.2330  135.2020 C   0  0  0  0  0  2  0  0  0  0  0  0
  191.9980  174.3140  136.4260 C   0  0  1  0  0  3  0  0  0  0  0  0
  189.7160  177.6550  136.9630 O   0  0  0  0  0  1  0  0  0  0  0  0
  191.0480  176.3200  135.1700 C   0  0  0  0  0  2  0  0  0  0  0  0
  189.4600  176.2760  136.8490 C   0  0  2  0  0  0  0  0  0  0  0  0
  190.2270  175.4730  137.9530 C   0  0  1  0  0  3  0  0  0  0  0  0
  194.4720  174.1190  135.8990 C   0  0  0  0  0  2  0  0  0  0  0  0
  195.7640  173.9560  136.7230 C   0  0  1  0  0  0  0  0  0  0  0  0
  193.0550  172.0340  136.0270 C   0  0  0  0  0  2  0  0  0  0  0  0
  194.2860  171.1300  136.1180 C   0  0  0  0  0  2  0  0  0  0  0  0
  195.5600  174.4830  138.1360 C   0  0  0  0  0  1  0  0  0  0  0  0
  195.2170  171.4960  137.2710 C   0  0  2  0  0  3  0  0  0  0  0  0
  196.2610  172.5010  136.7820 C   0  0  0  0  0  2  0  0  0  0  0  0
  193.2640  173.4560  136.5660 C   0  0  2  0  0  3  0  0  0  0  0  0
  195.3460  169.6300  138.7430 O   0  0  0  0  0  0  0  0  0  0  0  0
  197.1380  169.8390  137.2720 N   0  0  0  0  0  1  0  0  0  0  0  0
  195.8880  170.2740  137.8010 C   0  0  0  0  0  0  0  0  0  0  0  0
  196.8560  174.8080  136.0830 C   0  0  0  0  0  2  0  0  0  0  0  0
  197.5820  175.5130  137.0510 O   0  0  0  0  0  1  0  0  0  0  0  0
  187.9410  176.0500  137.0490 C   0  0  1  0  0  3  0  0  0  0  0  0
  187.2400  177.3260  137.1450 N   0  0  0  0  0  1  0  0  0  0  0  0
  186.3330  175.9060  135.2310 O   0  0  0  0  0  1  0  0  0  0  0  0
  186.6660  173.9450  136.5220 C   0  0  0  0  0  1  0  0  0  0  0  0
  187.3130  175.1890  135.9310 C   0  0  2  0  0  3  0  0  0  0  0  0
  190.4810  177.7250  140.8640 C   0  0  2  0  0  3  0  0  0  0  0  0
  191.5870  177.6890  141.7160 O   0  0  0  0  0  1  0  0  0  0  0  0
  189.2060  177.1140  141.4850 C   0  0  2  0  0  3  0  0  0  0  0  0
  187.1540  178.7970  141.1240 O   0  0  0  0  0  0  0  0  0  0  0  0
  188.0550  178.1280  141.6040 C   0  0  0  0  0  0  0  0  0  0  0  0
  188.9100  177.6470  142.7870 C   0  0  1  0  0  3  0  0  0  0  0  0
  188.1210  176.6410  143.6010 C   0  0  0  0  0  2  0  0  0  0  0  0
  187.0350  177.3570  144.3820 C   0  0  0  0  0  1  0  0  0  0  0  0
  1 12  1  0  0  0  0
  1  6  1  6  0  0  0
  2 11  1  0  0  0  0
  3 31  1  1  0  0  0
  4  3  1  0  0  0  0
  5  3  1  0  0  0  0
  6  5  1  0  0  0  0
  8  7  1  6  0  0  0
  8 20  1  0  0  0  0
  8  1  1  0  0  0  0
 10  7  1  0  0  0  0
 10  2  1  0  0  0  0
 11  9  1  1  0  0  0
 11 26  1  0  0  0  0
 11 12  1  0  0  0  0
 12  4  1  1  0  0  0
 13 14  1  0  0  0  0
 14 19  1  0  0  0  0
 14 17  1  1  0  0  0
 15 16  1  0  0  0  0
 15 20  1  0  0  0  0
 16 18  1  0  0  0  0
 18 23  1  6  0  0  0
 19 18  1  0  0  0  0
 20 13  1  6  0  0  0
 22 23  1  0  0  0  0
 23 21  2  0  0  0  0
 24 14  1  0  0  0  0
 24 25  1  0  0  0  0
 26 27  1  6  0  0  0
 28 30  1  0  0  0  0
 30 29  1  1  0  0  0
 30 26  1  0  0  0  0
 31 32  1  1  0  0  0
 33 31  1  6  0  0  0
 33 35  1  0  0  0  0
 33 36  1  0  0  0  0
 34 35  2  0  0  0  0
 35 36  1  0  0  0  0
 36 37  1  1  0  0  0
 37 38  1  0  0  0  0
M  END
>  <MODEL>
3

>  <REMARK>
 VINA RESULT:      -6.8      3.511      7.998
  Name = 
  8 active torsions:
  status: ('A' for Active; 'I' for Inactive)
    1  A    between atoms: C_3  and  C_14
    2  A    between atoms: C_6  and  C_27
    3  A    between atoms: C_7  and  C_19
    4  A    between atoms: C_8  and  C_19
    5  A    between atoms: C_11  and  C_33
    6  A    between atoms: C_11  and  C_37
    7  A    between atoms: C_25  and  C_38
    8  A    between atoms: C_31  and  C_35
                            x       y       z     vdW  Elec       q    Type
                         _______ _______ _______ _____ _____    ______ ____

>  <TORSDO>
F 8

$$$$
=
 OpenBabel11062412583D

 38 41  0  0  1  0  0  0  0  0999 V2000
  184.6310  178.1570  142.8400 C   0  0  2  0  0  3  0  0  0  0  0  0
  185.0850  178.3830  139.9100 O   0  0  0  0  0  0  0  0  0  0  0  0
  181.9710  179.1230  142.7570 C   0  0  2  0  0  3  0  0  0  0  0  0
  182.2720  177.8170  142.2840 O   0  0  0  0  0  0  0  0  0  0  0  0
  182.8980  179.5410  143.9140 C   0  0  0  0  0  2  0  0  0  0  0  0
  184.3410  179.5270  143.4430 C   0  0  0  0  0  2  0  0  0  0  0  0
  186.6920  179.0190  141.5860 C   0  0  0  0  0  2  0  0  0  0  0  0
  186.1020  177.9040  142.4620 C   0  0  1  0  0  3  0  0  0  0  0  0
  183.1530  179.6470  140.2410 O   0  0  0  0  0  1  0  0  0  0  0  0
  185.7380  179.4830  140.4910 C   0  0  0  0  0  2  0  0  0  0  0  0
  183.7240  178.3630  140.3160 C   0  0  2  0  0  0  0  0  0  0  0  0
  183.5910  177.7750  141.7610 C   0  0  1  0  0  3  0  0  0  0  0  0
  188.1250  176.7390  143.4550 C   0  0  0  0  0  2  0  0  0  0  0  0
  189.4320  177.1890  144.1350 C   0  0  1  0  0  0  0  0  0  0  0  0
  186.1310  177.2440  144.9190 C   0  0  0  0  0  2  0  0  0  0  0  0
  186.9340  177.0070  146.2000 C   0  0  0  0  0  2  0  0  0  0  0  0
  189.7900  178.6050  143.7040 C   0  0  0  0  0  1  0  0  0  0  0  0
  188.1900  177.8690  146.2900 C   0  0  2  0  0  3  0  0  0  0  0  0
  189.3690  177.1170  145.6700 C   0  0  0  0  0  2  0  0  0  0  0  0
  186.9660  177.7050  143.7150 C   0  0  2  0  0  3  0  0  0  0  0  0
  187.5620  178.6620  148.4450 O   0  0  0  0  0  0  0  0  0  0  0  0
  189.7950  178.0340  148.2480 N   0  0  0  0  0  1  0  0  0  0  0  0
  188.4840  178.2050  147.7130 C   0  0  0  0  0  0  0  0  0  0  0  0
  190.5610  176.2800  143.6600 C   0  0  0  0  0  2  0  0  0  0  0  0
  190.1190  175.3970  142.6680 O   0  0  0  0  0  1  0  0  0  0  0  0
  182.9550  177.4370  139.3410 C   0  0  1  0  0  3  0  0  0  0  0  0
  181.9620  178.1960  138.5870 N   0  0  0  0  0  1  0  0  0  0  0  0
  183.9310  177.3150  137.1170 O   0  0  0  0  0  1  0  0  0  0  0  0
  183.4070  175.2560  138.1700 C   0  0  0  0  0  1  0  0  0  0  0  0
  183.8890  176.6840  138.3690 C   0  0  2  0  0  3  0  0  0  0  0  0
  180.4950  179.2070  143.1650 C   0  0  2  0  0  3  0  0  0  0  0  0
  180.0330  177.9590  143.5900 O   0  0  0  0  0  1  0  0  0  0  0  0
  179.6130  179.8510  142.0740 C   0  0  2  0  0  3  0  0  0  0  0  0
  178.9310  177.9860  140.2760 O   0  0  0  0  0  0  0  0  0  0  0  0
  179.4280  178.9450  140.8440 C   0  0  0  0  0  0  0  0  0  0  0  0
  180.3490  180.1750  140.8820 C   0  0  1  0  0  3  0  0  0  0  0  0
  179.6850  181.3230  140.1490 C   0  0  0  0  0  2  0  0  0  0  0  0
  180.0650  181.2770  138.6810 C   0  0  0  0  0  1  0  0  0  0  0  0
  1  6  1  6  0  0  0
  2 11  1  0  0  0  0
  2 10  1  0  0  0  0
  3 31  1  1  0  0  0
  3  5  1  0  0  0  0
  4  3  1  0  0  0  0
  6  5  1  0  0  0  0
  8  7  1  1  0  0  0
  8  1  1  0  0  0  0
  8 20  1  0  0  0  0
 10  7  1  0  0  0  0
 11  9  1  6  0  0  0
 11 12  1  0  0  0  0
 12  4  1  1  0  0  0
 12  1  1  0  0  0  0
 13 14  1  0  0  0  0
 14 17  1  6  0  0  0
 14 19  1  0  0  0  0
 15 16  1  0  0  0  0
 16 18  1  0  0  0  0
 18 23  1  1  0  0  0
 19 18  1  0  0  0  0
 20 13  1  6  0  0  0
 20 15  1  0  0  0  0
 23 22  1  0  0  0  0
 23 21  2  0  0  0  0
 24 14  1  0  0  0  0
 25 24  1  0  0  0  0
 26 27  1  6  0  0  0
 26 11  1  0  0  0  0
 28 30  1  0  0  0  0
 30 29  1  6  0  0  0
 30 26  1  0  0  0  0
 31 32  1  6  0  0  0
 33 31  1  1  0  0  0
 34 35  2  0  0  0  0
 35 36  1  0  0  0  0
 35 33  1  0  0  0  0
 36 37  1  6  0  0  0
 36 33  1  0  0  0  0
 38 37  1  0  0  0  0
M  END
>  <MODEL>
4

>  <REMARK>
 VINA RESULT:      -6.4      4.087      6.270
  Name = 
  8 active torsions:
  status: ('A' for Active; 'I' for Inactive)
    1  A    between atoms: C_3  and  C_14
    2  A    between atoms: C_6  and  C_27
    3  A    between atoms: C_7  and  C_19
    4  A    between atoms: C_8  and  C_19
    5  A    between atoms: C_11  and  C_33
    6  A    between atoms: C_11  and  C_37
    7  A    between atoms: C_25  and  C_38
    8  A    between atoms: C_31  and  C_35
                            x       y       z     vdW  Elec       q    Type
                         _______ _______ _______ _____ _____    ______ ____

>  <TORSDO>
F 8

$$$$
=
 OpenBabel11062412583D

 38 41  0  0  1  0  0  0  0  0999 V2000
  190.4460  176.1980  138.4870 C   0  0  2  0  0  3  0  0  0  0  0  0
  188.2710  177.7550  137.1860 O   0  0  0  0  0  0  0  0  0  0  0  0
  190.4670  177.7360  140.8640 C   0  0  2  0  0  3  0  0  0  0  0  0
  189.4040  176.8270  140.6110 O   0  0  0  0  0  0  0  0  0  0  0  0
  191.7970  177.2450  140.2630 C   0  0  0  0  0  2  0  0  0  0  0  0
  191.6520  177.0900  138.7600 C   0  0  0  0  0  2  0  0  0  0  0  0
  190.2590  176.9960  136.0600 C   0  0  0  0  0  2  0  0  0  0  0  0
  190.2460  175.7940  137.0150 C   0  0  1  0  0  3  0  0  0  0  0  0
  188.9190  179.1320  138.9530 O   0  0  0  0  0  1  0  0  0  0  0  0
  189.4680  178.1860  136.5920 C   0  0  0  0  0  2  0  0  0  0  0  0
  188.3580  177.8920  138.5980 C   0  0  2  0  0  0  0  0  0  0  0  0
  189.1790  176.7100  139.2140 C   0  0  1  0  0  3  0  0  0  0  0  0
  192.5370  175.4380  135.9820 C   0  0  0  0  0  2  0  0  0  0  0  0
  193.8480  174.7570  136.4190 C   0  0  1  0  0  0  0  0  0  0  0  0
  190.7170  173.7280  135.6070 C   0  0  0  0  0  2  0  0  0  0  0  0
  191.7200  172.6800  135.1170 C   0  0  0  0  0  2  0  0  0  0  0  0
  193.9330  174.7000  137.9380 C   0  0  0  0  0  1  0  0  0  0  0  0
  192.8370  172.4030  136.1180 C   0  0  2  0  0  3  0  0  0  0  0  0
  194.0130  173.3410  135.8400 C   0  0  0  0  0  2  0  0  0  0  0  0
  191.2990  174.7640  136.5800 C   0  0  2  0  0  3  0  0  0  0  0  0
  192.5520  170.1500  135.4060 O   0  0  0  0  0  0  0  0  0  0  0  0
  194.4950  170.5510  136.6240 N   0  0  0  0  0  1  0  0  0  0  0  0
  193.2780  170.9820  136.0190 C   0  0  0  0  0  0  0  0  0  0  0  0
  195.0180  175.6090  135.9390 C   0  0  0  0  0  2  0  0  0  0  0  0
  194.7180  176.9740  136.0180 O   0  0  0  0  0  1  0  0  0  0  0  0
  186.9190  177.8330  139.1660 C   0  0  1  0  0  3  0  0  0  0  0  0
  186.8270  178.5920  140.4100 N   0  0  0  0  0  1  0  0  0  0  0  0
  185.0460  179.3240  138.7400 O   0  0  0  0  0  1  0  0  0  0  0  0
  184.9690  177.1880  137.7130 C   0  0  0  0  0  1  0  0  0  0  0  0
  185.8580  178.3370  138.1640 C   0  0  2  0  0  3  0  0  0  0  0  0
  190.5950  177.9880  142.3720 C   0  0  2  0  0  3  0  0  0  0  0  0
  191.6940  178.8070  142.6400 O   0  0  0  0  0  1  0  0  0  0  0  0
  190.5860  176.6800  143.1940 C   0  0  2  0  0  3  0  0  0  0  0  0
  188.5400  176.7380  144.9220 O   0  0  0  0  0  0  0  0  0  0  0  0
  189.6490  176.7480  144.4130 C   0  0  0  0  0  0  0  0  0  0  0  0
  191.1810  176.8350  144.4940 C   0  0  1  0  0  3  0  0  0  0  0  0
  191.7350  175.5110  144.9800 C   0  0  0  0  0  2  0  0  0  0  0  0
  192.1010  175.6210  146.4480 C   0  0  0  0  0  1  0  0  0  0  0  0
  1  6  1  6  0  0  0
  1 12  1  0  0  0  0
  2 11  1  0  0  0  0
  3 31  1  1  0  0  0
  4  3  1  0  0  0  0
  5  3  1  0  0  0  0
  6  5  1  0  0  0  0
  7 10  1  0  0  0  0
  8  7  1  6  0  0  0
  8  1  1  0  0  0  0
 10  2  1  0  0  0  0
 11  9  1  1  0  0  0
 11 26  1  0  0  0  0
 11 12  1  0  0  0  0
 12  4  1  1  0  0  0
 13 14  1  0  0  0  0
 13 20  1  0  0  0  0
 14 17  1  1  0  0  0
 16 15  1  0  0  0  0
 16 18  1  0  0  0  0
 18 23  1  6  0  0  0
 19 18  1  0  0  0  0
 19 14  1  0  0  0  0
 20 15  1  6  0  0  0
 20  8  1  0  0  0  0
 21 23  2  0  0  0  0
 23 22  1  0  0  0  0
 24 25  1  0  0  0  0
 24 14  1  0  0  0  0
 26 27  1  1  0  0  0
 30 29  1  1  0  0  0
 30 28  1  0  0  0  0
 30 26  1  0  0  0  0
 31 32  1  6  0  0  0
 33 31  1  6  0  0  0
 33 35  1  0  0  0  0
 33 36  1  0  0  0  0
 35 36  1  0  0  0  0
 35 34  2  0  0  0  0
 36 37  1  1  0  0  0
 37 38  1  0  0  0  0
M  END
>  <MODEL>
5

>  <REMARK>
 VINA RESULT:      -6.2      2.688      8.395
  Name = 
  8 active torsions:
  status: ('A' for Active; 'I' for Inactive)
    1  A    between atoms: C_3  and  C_14
    2  A    between atoms: C_6  and  C_27
    3  A    between atoms: C_7  and  C_19
    4  A    between atoms: C_8  and  C_19
    5  A    between atoms: C_11  and  C_33
    6  A    between atoms: C_11  and  C_37
    7  A    between atoms: C_25  and  C_38
    8  A    between atoms: C_31  and  C_35
                            x       y       z     vdW  Elec       q    Type
                         _______ _______ _______ _____ _____    ______ ____

>  <TORSDO>
F 8

$$$$
=
 OpenBabel11062412583D

 38 41  0  0  1  0  0  0  0  0999 V2000
  186.7140  177.8790  140.7160 C   0  0  2  0  0  3  0  0  0  0  0  0
  188.7140  177.8350  138.5150 O   0  0  0  0  0  0  0  0  0  0  0  0
  184.5680  178.7490  139.0880 C   0  0  2  0  0  3  0  0  0  0  0  0
  185.0440  177.4130  138.9890 O   0  0  0  0  0  0  0  0  0  0  0  0
  184.7150  179.3050  140.5160 C   0  0  0  0  0  2  0  0  0  0  0  0
  186.1770  179.2910  140.9220 C   0  0  0  0  0  2  0  0  0  0  0  0
  189.1480  178.6790  140.7280 C   0  0  0  0  0  2  0  0  0  0  0  0
  188.1430  177.6370  141.2380 C   0  0  1  0  0  3  0  0  0  0  0  0
  186.9550  179.0640  137.6030 O   0  0  0  0  0  1  0  0  0  0  0  0
  188.9690  179.0060  139.2500 C   0  0  0  0  0  2  0  0  0  0  0  0
  187.3540  177.8110  138.1040 C   0  0  2  0  0  0  0  0  0  0  0  0
  186.4320  177.3620  139.2860 C   0  0  1  0  0  3  0  0  0  0  0  0
  189.3560  176.7740  143.2920 C   0  0  0  0  0  2  0  0  0  0  0  0
  190.0060  177.4100  144.5360 C   0  0  1  0  0  0  0  0  0  0  0  0
  186.8470  177.0530  143.3480 C   0  0  0  0  0  2  0  0  0  0  0  0
  186.8100  176.9570  144.8750 C   0  0  0  0  0  2  0  0  0  0  0  0
  190.4100  178.8490  144.2420 C   0  0  0  0  0  1  0  0  0  0  0  0
  187.7100  177.9790  145.5630 C   0  0  2  0  0  3  0  0  0  0  0  0
  189.0980  177.3720  145.7770 C   0  0  0  0  0  2  0  0  0  0  0  0
  188.1670  177.5860  142.7720 C   0  0  2  0  0  3  0  0  0  0  0  0
  187.7630  178.1670  147.9350 O   0  0  0  0  0  0  0  0  0  0  0  0
  185.8380  179.0070  146.9320 N   0  0  0  0  0  1  0  0  0  0  0  0
  187.1210  178.3890  146.8710 C   0  0  0  0  0  0  0  0  0  0  0  0
  191.2860  176.6450  144.8570 C   0  0  0  0  0  2  0  0  0  0  0  0
  191.8110  177.0310  146.0950 O   0  0  0  0  0  1  0  0  0  0  0  0
  187.2260  176.7720  136.9630 C   0  0  1  0  0  3  0  0  0  0  0  0
  186.4620  177.3250  135.8490 N   0  0  0  0  0  1  0  0  0  0  0  0
  188.9250  176.8390  135.2260 O   0  0  0  0  0  1  0  0  0  0  0  0
  188.5670  174.7510  136.2920 C   0  0  0  0  0  1  0  0  0  0  0  0
  188.5940  176.2630  136.4600 C   0  0  2  0  0  3  0  0  0  0  0  0
  183.1140  178.8250  138.6050 C   0  0  2  0  0  3  0  0  0  0  0  0
  182.9970  178.2960  137.3170 O   0  0  0  0  0  1  0  0  0  0  0  0
  182.5170  180.2420  138.7440 C   0  0  2  0  0  3  0  0  0  0  0  0
  180.4520  180.1660  140.4490 O   0  0  0  0  0  0  0  0  0  0  0  0
  181.1500  180.2470  139.4510 C   0  0  0  0  0  0  0  0  0  0  0  0
  181.3420  180.4340  137.9380 C   0  0  1  0  0  3  0  0  0  0  0  0
  181.1770  181.8990  137.5880 C   0  0  0  0  0  2  0  0  0  0  0  0
  180.4590  182.0260  136.2570 C   0  0  0  0  0  1  0  0  0  0  0  0
  1  6  1  6  0  0  0
  1  8  1  0  0  0  0
  2 10  1  0  0  0  0
  3 31  1  1  0  0  0
  3  5  1  0  0  0  0
  4  3  1  0  0  0  0
  5  6  1  0  0  0  0
  8  7  1  1  0  0  0
  8 20  1  0  0  0  0
 10  7  1  0  0  0  0
 11  9  1  6  0  0  0
 11  2  1  0  0  0  0
 11 12  1  0  0  0  0
 12  4  1  6  0  0  0
 12  1  1  0  0  0  0
 13 14  1  0  0  0  0
 14 17  1  6  0  0  0
 14 24  1  0  0  0  0
 14 19  1  0  0  0  0
 15 16  1  0  0  0  0
 16 18  1  0  0  0  0
 18 19  1  0  0  0  0
 18 23  1  1  0  0  0
 20 13  1  6  0  0  0
 20 15  1  0  0  0  0
 23 22  1  0  0  0  0
 23 21  2  0  0  0  0
 24 25  1  0  0  0  0
 26 27  1  6  0  0  0
 26 11  1  0  0  0  0
 28 30  1  0  0  0  0
 30 29  1  6  0  0  0
 30 26  1  0  0  0  0
 31 32  1  6  0  0  0
 33 31  1  6  0  0  0
 33 35  1  0  0  0  0
 35 34  2  0  0  0  0
 36 37  1  1  0  0  0
 36 33  1  0  0  0  0
 36 35  1  0  0  0  0
 38 37  1  0  0  0  0
M  END
>  <MODEL>
6

>  <REMARK>
 VINA RESULT:      -6.2      2.622      3.560
  Name = 
  8 active torsions:
  status: ('A' for Active; 'I' for Inactive)
    1  A    between atoms: C_3  and  C_14
    2  A    between atoms: C_6  and  C_27
    3  A    between atoms: C_7  and  C_19
    4  A    between atoms: C_8  and  C_19
    5  A    between atoms: C_11  and  C_33
    6  A    between atoms: C_11  and  C_37
    7  A    between atoms: C_25  and  C_38
    8  A    between atoms: C_31  and  C_35
                            x       y       z     vdW  Elec       q    Type
                         _______ _______ _______ _____ _____    ______ ____

>  <TORSDO>
F 8

$$$$
=
 OpenBabel11062412583D

 38 41  0  0  1  0  0  0  0  0999 V2000
  186.8380  177.8580  140.6820 C   0  0  2  0  0  3  0  0  0  0  0  0
  188.7290  177.7420  138.3900 O   0  0  0  0  0  0  0  0  0  0  0  0
  184.6650  178.8510  139.1640 C   0  0  2  0  0  3  0  0  0  0  0  0
  185.0680  177.4950  139.0310 O   0  0  0  0  0  0  0  0  0  0  0  0
  184.9050  179.3840  140.5880 C   0  0  0  0  0  2  0  0  0  0  0  0
  186.3820  179.2930  140.9260 C   0  0  0  0  0  2  0  0  0  0  0  0
  189.3060  178.5380  140.5880 C   0  0  0  0  0  2  0  0  0  0  0  0
  188.2750  177.5400  141.1340 C   0  0  1  0  0  3  0  0  0  0  0  0
  186.9930  179.0660  137.5720 O   0  0  0  0  0  1  0  0  0  0  0  0
  189.0750  178.8900  139.1230 C   0  0  0  0  0  2  0  0  0  0  0  0
  187.3520  177.7900  138.0420 C   0  0  2  0  0  0  0  0  0  0  0  0
  186.4640  177.3720  139.2620 C   0  0  1  0  0  3  0  0  0  0  0  0
  189.6010  176.6880  143.1220 C   0  0  0  0  0  2  0  0  0  0  0  0
  190.2860  177.3270  144.3450 C   0  0  1  0  0  0  0  0  0  0  0  0
  187.0900  176.8910  143.2900 C   0  0  0  0  0  2  0  0  0  0  0  0
  187.1230  176.7750  144.8160 C   0  0  0  0  0  2  0  0  0  0  0  0
  190.6350  178.7810  144.0540 C   0  0  0  0  0  1  0  0  0  0  0  0
  188.0220  177.8150  145.4790 C   0  0  2  0  0  3  0  0  0  0  0  0
  189.4350  177.2460  145.6230 C   0  0  0  0  0  2  0  0  0  0  0  0
  188.3680  177.4710  142.6650 C   0  0  2  0  0  3  0  0  0  0  0  0
  186.2970  178.6270  146.9030 O   0  0  0  0  0  0  0  0  0  0  0  0
  188.2830  178.0800  147.9880 N   0  0  0  0  0  1  0  0  0  0  0  0
  187.4790  178.1900  146.8160 C   0  0  0  0  0  0  0  0  0  0  0  0
  191.6010  176.5960  144.5990 C   0  0  0  0  0  2  0  0  0  0  0  0
  191.7120  175.4560  143.7940 O   0  0  0  0  0  1  0  0  0  0  0  0
  187.1200  176.7710  136.8990 C   0  0  1  0  0  3  0  0  0  0  0  0
  187.8070  177.1970  135.6840 N   0  0  0  0  0  1  0  0  0  0  0  0
  188.6640  174.9330  136.5160 O   0  0  0  0  0  1  0  0  0  0  0  0
  186.4220  174.3570  137.0310 C   0  0  0  0  0  1  0  0  0  0  0  0
  187.5580  175.3390  137.2750 C   0  0  2  0  0  3  0  0  0  0  0  0
  183.1950  179.0050  138.7500 C   0  0  2  0  0  3  0  0  0  0  0  0
  182.8620  180.3540  138.6170 O   0  0  0  0  0  1  0  0  0  0  0  0
  182.2350  178.2220  139.6720 C   0  0  2  0  0  3  0  0  0  0  0  0
  180.6610  176.6520  138.1780 O   0  0  0  0  0  0  0  0  0  0  0  0
  181.0950  177.5340  138.9000 C   0  0  0  0  0  0  0  0  0  0  0  0
  180.9250  178.8100  139.7400 C   0  0  1  0  0  3  0  0  0  0  0  0
  180.2590  178.4610  141.0560 C   0  0  0  0  0  2  0  0  0  0  0  0
  181.1120  178.9630  142.2060 C   0  0  0  0  0  1  0  0  0  0  0  0
  1  6  1  6  0  0  0
  1  8  1  0  0  0  0
  2 10  1  0  0  0  0
  3 31  1  1  0  0  0
  3  5  1  0  0  0  0
  4  3  1  0  0  0  0
  5  6  1  0  0  0  0
  8  7  1  1  0  0  0
  8 20  1  0  0  0  0
 10  7  1  0  0  0  0
 11  9  1  6  0  0  0
 11  2  1  0  0  0  0
 11 12  1  0  0  0  0
 12  4  1  6  0  0  0
 12  1  1  0  0  0  0
 13 14  1  0  0  0  0
 14 17  1  6  0  0  0
 14 24  1  0  0  0  0
 14 19  1  0  0  0  0
 15 16  1  0  0  0  0
 16 18  1  0  0  0  0
 18 19  1  0  0  0  0
 18 23  1  1  0  0  0
 20 13  1  6  0  0  0
 20 15  1  0  0  0  0
 23 21  2  0  0  0  0
 23 22  1  0  0  0  0
 25 24  1  0  0  0  0
 26 27  1  6  0  0  0
 26 30  1  0  0  0  0
 26 11  1  0  0  0  0
 28 30  1  0  0  0  0
 30 29  1  6  0  0  0
 31 32  1  1  0  0  0
 33 31  1  6  0  0  0
 33 36  1  0  0  0  0
 34 35  2  0  0  0  0
 35 33  1  0  0  0  0
 35 36  1  0  0  0  0
 36 37  1  1  0  0  0
 37 38  1  0  0  0  0
M  END
>  <MODEL>
7

>  <REMARK>
 VINA RESULT:      -6.1      2.382      3.436
  Name = 
  8 active torsions:
  status: ('A' for Active; 'I' for Inactive)
    1  A    between atoms: C_3  and  C_14
    2  A    between atoms: C_6  and  C_27
    3  A    between atoms: C_7  and  C_19
    4  A    between atoms: C_8  and  C_19
    5  A    between atoms: C_11  and  C_33
    6  A    between atoms: C_11  and  C_37
    7  A    between atoms: C_25  and  C_38
    8  A    between atoms: C_31  and  C_35
                            x       y       z     vdW  Elec       q    Type
                         _______ _______ _______ _____ _____    ______ ____

>  <TORSDO>
F 8

$$$$
=
 OpenBabel11062412583D

 38 41  0  0  1  0  0  0  0  0999 V2000
  183.2080  178.1810  140.3050 C   0  0  2  0  0  3  0  0  0  0  0  0
  180.7660  179.8240  140.7330 O   0  0  0  0  0  0  0  0  0  0  0  0
  182.1630  176.7480  138.0990 C   0  0  2  0  0  3  0  0  0  0  0  0
  182.5490  178.1070  137.9490 O   0  0  0  0  0  0  0  0  0  0  0  0
  183.0310  176.0170  139.1400 C   0  0  0  0  0  2  0  0  0  0  0  0
  182.8950  176.7000  140.4890 C   0  0  0  0  0  2  0  0  0  0  0  0
  182.0520  178.8150  142.5010 C   0  0  0  0  0  2  0  0  0  0  0  0
  183.2840  179.0020  141.6050 C   0  0  1  0  0  3  0  0  0  0  0  0
  180.0170  178.1250  139.3220 O   0  0  0  0  0  1  0  0  0  0  0  0
  180.7420  178.8250  141.7210 C   0  0  0  0  0  2  0  0  0  0  0  0
  180.8820  179.2270  139.4480 C   0  0  2  0  0  0  0  0  0  0  0  0
  182.3650  178.8080  139.1700 C   0  0  1  0  0  3  0  0  0  0  0  0
  184.7850  179.6530  143.5450 C   0  0  0  0  0  2  0  0  0  0  0  0
  185.3040  178.9580  144.8180 C   0  0  1  0  0  0  0  0  0  0  0  0
  185.7960  178.6140  141.4770 C   0  0  0  0  0  2  0  0  0  0  0  0
  187.1100  178.3090  142.2000 C   0  0  0  0  0  2  0  0  0  0  0  0
  184.3620  177.8340  145.2270 C   0  0  0  0  0  1  0  0  0  0  0  0
  186.9210  177.4740  143.4630 C   0  0  2  0  0  3  0  0  0  0  0  0
  186.7310  178.4040  144.6630 C   0  0  0  0  0  2  0  0  0  0  0  0
  184.5620  178.6730  142.3900 C   0  0  2  0  0  3  0  0  0  0  0  0
  188.3550  175.6780  142.8440 O   0  0  0  0  0  0  0  0  0  0  0  0
  188.9360  176.7520  144.8250 N   0  0  0  0  0  1  0  0  0  0  0  0
  188.1030  176.5900  143.6800 C   0  0  0  0  0  0  0  0  0  0  0  0
  185.3060  179.9730  145.9560 C   0  0  0  0  0  2  0  0  0  0  0  0
  185.6810  179.3780  147.1670 O   0  0  0  0  0  1  0  0  0  0  0  0
  180.4700  180.2870  138.3980 C   0  0  1  0  0  3  0  0  0  0  0  0
  179.1180  180.0290  137.9110 N   0  0  0  0  0  1  0  0  0  0  0  0
  179.2960  182.2970  139.1000 O   0  0  0  0  0  1  0  0  0  0  0  0
  181.3580  182.6020  137.9690 C   0  0  0  0  0  1  0  0  0  0  0  0
  180.5680  181.7320  138.9340 C   0  0  2  0  0  3  0  0  0  0  0  0
  182.2050  176.0380  136.7400 C   0  0  2  0  0  3  0  0  0  0  0  0
  180.9110  175.7530  136.2970 O   0  0  0  0  0  1  0  0  0  0  0  0
  183.1400  174.8080  136.7410 C   0  0  2  0  0  3  0  0  0  0  0  0
  185.2550  175.3080  135.1760 O   0  0  0  0  0  0  0  0  0  0  0  0
  184.2130  174.8740  135.6400 C   0  0  0  0  0  0  0  0  0  0  0  0
  182.9680  173.9760  135.5810 C   0  0  1  0  0  3  0  0  0  0  0  0
  183.3630  172.5480  135.8960 C   0  0  0  0  0  2  0  0  0  0  0  0
  184.1700  172.5140  137.1800 C   0  0  0  0  0  1  0  0  0  0  0  0
  1  6  1  1  0  0  0
  1  8  1  0  0  0  0
  2 10  1  0  0  0  0
  3 31  1  6  0  0  0
  3  5  1  0  0  0  0
  4  3  1  0  0  0  0
  5  6  1  0  0  0  0
  8 20  1  0  0  0  0
  8  7  1  1  0  0  0
 10  7  1  0  0  0  0
 11  9  1  6  0  0  0
 11  2  1  0  0  0  0
 12  4  1  6  0  0  0
 12 11  1  0  0  0  0
 12  1  1  0  0  0  0
 13 14  1  0  0  0  0
 14 17  1  1  0  0  0
 14 24  1  0  0  0  0
 15 16  1  0  0  0  0
 16 18  1  0  0  0  0
 18 23  1  1  0  0  0
 18 19  1  0  0  0  0
 19 14  1  0  0  0  0
 20 15  1  6  0  0  0
 20 13  1  0  0  0  0
 21 23  2  0  0  0  0
 23 22  1  0  0  0  0
 24 25  1  0  0  0  0
 26 27  1  1  0  0  0
 26 30  1  0  0  0  0
 26 11  1  0  0  0  0
 30 29  1  6  0  0  0
 30 28  1  0  0  0  0
 31 32  1  1  0  0  0
 33 31  1  6  0  0  0
 34 35  2  0  0  0  0
 35 33  1  0  0  0  0
 36 35  1  0  0  0  0
 36 37  1  1  0  0  0
 36 33  1  0  0  0  0
 37 38  1  0  0  0  0
M  END
>  <MODEL>
8

>  <REMARK>
 VINA RESULT:      -5.9      4.207      7.654
  Name = 
  8 active torsions:
  status: ('A' for Active; 'I' for Inactive)
    1  A    between atoms: C_3  and  C_14
    2  A    between atoms: C_6  and  C_27
    3  A    between atoms: C_7  and  C_19
    4  A    between atoms: C_8  and  C_19
    5  A    between atoms: C_11  and  C_33
    6  A    between atoms: C_11  and  C_37
    7  A    between atoms: C_25  and  C_38
    8  A    between atoms: C_31  and  C_35
                            x       y       z     vdW  Elec       q    Type
                         _______ _______ _______ _____ _____    ______ ____

>  <TORSDO>
F 8

$$$$
=
 OpenBabel11062412583D

 38 41  0  0  1  0  0  0  0  0999 V2000
  187.0490  175.0170  136.5920 C   0  0  2  0  0  3  0  0  0  0  0  0
  187.0090  177.9720  136.9210 O   0  0  0  0  0  0  0  0  0  0  0  0
  189.7580  174.8910  135.7810 C   0  0  2  0  0  3  0  0  0  0  0  0
  189.4310  175.1510  137.1400 O   0  0  0  0  0  0  0  0  0  0  0  0
  188.7180  173.9800  135.1040 C   0  0  0  0  0  2  0  0  0  0  0  0
  187.3530  174.6440  135.1450 C   0  0  0  0  0  2  0  0  0  0  0  0
  185.2410  176.6950  135.9000 C   0  0  0  0  0  2  0  0  0  0  0  0
  185.6280  175.5510  136.8480 C   0  0  1  0  0  3  0  0  0  0  0  0
  188.9640  177.6050  135.7050 O   0  0  0  0  0  1  0  0  0  0  0  0
  186.3640  177.7070  135.7010 C   0  0  0  0  0  2  0  0  0  0  0  0
  188.2990  177.3760  136.9230 C   0  0  2  0  0  0  0  0  0  0  0  0
  188.1940  175.8430  137.2240 C   0  0  1  0  0  3  0  0  0  0  0  0
  183.3030  174.7760  137.5080 C   0  0  0  0  0  2  0  0  0  0  0  0
  182.0390  174.3190  136.7550 C   0  0  1  0  0  0  0  0  0  0  0  0
  185.1600  173.0830  137.2580 C   0  0  0  0  0  2  0  0  0  0  0  0
  184.1720  171.9150  137.2170 C   0  0  0  0  0  2  0  0  0  0  0  0
  182.0310  174.8900  135.3440 C   0  0  0  0  0  1  0  0  0  0  0  0
  183.1140  172.0610  136.1260 C   0  0  2  0  0  3  0  0  0  0  0  0
  181.8950  172.7890  136.6940 C   0  0  0  0  0  2  0  0  0  0  0  0
  184.5910  174.4210  136.7610 C   0  0  2  0  0  3  0  0  0  0  0  0
  183.6110  169.8550  135.3820 O   0  0  0  0  0  0  0  0  0  0  0  0
  181.3510  170.4110  135.3500 N   0  0  0  0  0  1  0  0  0  0  0  0
  182.7180  170.7190  135.6080 C   0  0  0  0  0  0  0  0  0  0  0  0
  180.8180  174.8860  137.4720 C   0  0  0  0  0  2  0  0  0  0  0  0
  180.3120  173.9770  138.4090 O   0  0  0  0  0  1  0  0  0  0  0  0
  189.1220  178.0390  138.0540 C   0  0  1  0  0  3  0  0  0  0  0  0
  189.0600  179.4940  137.9500 N   0  0  0  0  0  1  0  0  0  0  0  0
  187.9410  178.6060  140.1030 O   0  0  0  0  0  1  0  0  0  0  0  0
  189.8790  177.2570  140.3230 C   0  0  0  0  0  1  0  0  0  0  0  0
  188.6710  177.5950  139.4630 C   0  0  2  0  0  3  0  0  0  0  0  0
  191.1690  174.2960  135.6850 C   0  0  2  0  0  3  0  0  0  0  0  0
  191.1470  172.9330  135.9910 O   0  0  0  0  0  1  0  0  0  0  0  0
  192.2060  175.0940  136.5050 C   0  0  2  0  0  3  0  0  0  0  0  0
  193.8870  176.3370  134.8300 O   0  0  0  0  0  0  0  0  0  0  0  0
  193.3900  175.5850  135.6540 C   0  0  0  0  0  0  0  0  0  0  0  0
  193.4620  174.4060  136.6360 C   0  0  1  0  0  3  0  0  0  0  0  0
  194.1740  174.8470  137.8990 C   0  0  0  0  0  2  0  0  0  0  0  0
  195.1140  173.7490  138.3620 C   0  0  0  0  0  1  0  0  0  0  0  0
  1  6  1  6  0  0  0
  1  8  1  0  0  0  0
  1 12  1  0  0  0  0
  2 11  1  0  0  0  0
  3 31  1  1  0  0  0
  3  4  1  0  0  0  0
  5  6  1  0  0  0  0
  5  3  1  0  0  0  0
  8  7  1  6  0  0  0
 10  7  1  0  0  0  0
 10  2  1  0  0  0  0
 11  9  1  6  0  0  0
 11 12  1  0  0  0  0
 11 26  1  0  0  0  0
 12  4  1  6  0  0  0
 14 17  1  6  0  0  0
 14 24  1  0  0  0  0
 14 13  1  0  0  0  0
 16 15  1  0  0  0  0
 18 23  1  1  0  0  0
 18 19  1  0  0  0  0
 18 16  1  0  0  0  0
 19 14  1  0  0  0  0
 20  8  1  0  0  0  0
 20 15  1  1  0  0  0
 20 13  1  0  0  0  0
 21 23  2  0  0  0  0
 22 23  1  0  0  0  0
 24 25  1  0  0  0  0
 26 27  1  1  0  0  0
 26 30  1  0  0  0  0
 30 28  1  0  0  0  0
 30 29  1  1  0  0  0
 31 32  1  1  0  0  0
 33 31  1  6  0  0  0
 33 36  1  0  0  0  0
 34 35  2  0  0  0  0
 35 33  1  0  0  0  0
 35 36  1  0  0  0  0
 36 37  1  1  0  0  0
 37 38  1  0  0  0  0
M  END
>  <MODEL>
9

>  <REMARK>
 VINA RESULT:      -5.7      3.759      9.004
  Name = 
  8 active torsions:
  status: ('A' for Active; 'I' for Inactive)
    1  A    between atoms: C_3  and  C_14
    2  A    between atoms: C_6  and  C_27
    3  A    between atoms: C_7  and  C_19
    4  A    between atoms: C_8  and  C_19
    5  A    between atoms: C_11  and  C_33
    6  A    between atoms: C_11  and  C_37
    7  A    between atoms: C_25  and  C_38
    8  A    between atoms: C_31  and  C_35
                            x       y       z     vdW  Elec       q    Type
                         _______ _______ _______ _____ _____    ______ ____

>  <TORSDO>
F 8

$$$$
