=
 OpenBabel11062416433D

 57 64  0  0  1  0  0  0  0  0999 V2000
  188.6130  176.9350  143.9710 C   0  0  2  0  0  3  0  0  0  0  0  0
  189.3310  178.3890  147.8060 O   0  0  0  0  0  0  0  0  0  0  0  0
  191.0510  176.1720  143.8580 C   0  0  2  0  0  0  0  0  0  0  0  0
  188.8880  178.2890  143.3110 C   0  0  0  0  0  2  0  0  0  0  0  0
  191.4060  177.3650  146.3930 O   0  0  0  0  0  1  0  0  0  0  0  0
  190.5580  177.1920  141.6560 C   0  0  1  0  0  3  0  0  0  0  0  0
  189.0830  177.8930  146.6750 C   0  0  0  0  0  0  0  0  0  0  0  0
  187.4470  177.0210  144.9610 C   0  0  1  0  0  3  0  0  0  0  0  0
  191.5380  177.1830  142.8290 C   0  0  0  0  0  2  0  0  0  0  0  0
  189.8390  176.4430  144.7570 C   0  0  1  0  0  3  0  0  0  0  0  0
  190.1480  177.3240  145.8940 N   0  0  0  0  0  0  0  0  0  0  0  0
  187.6840  177.9810  146.1410 C   0  0  0  0  0  2  0  0  0  0  0  0
  192.0850  175.4580  144.4820 O   0  0  0  0  0  0  0  0  0  0  0  0
  189.3840  178.1580  141.8680 C   0  0  0  0  0  2  0  0  0  0  0  0
  191.3020  174.7570  143.5430 C   0  0  0  0  0  2  0  0  0  0  0  0
  191.2410  177.4970  140.3220 C   0  0  1  0  0  3  0  0  0  0  0  0
  192.6240  177.6420  140.4730 O   0  0  0  0  0  1  0  0  0  0  0  0
  190.9380  176.4020  139.2990 C   0  0  0  0  0  2  0  0  0  0  0  0
  189.5830  176.4520  138.8500 O   0  0  0  0  0  0  0  0  0  0  0  0
  188.3950  177.1740  136.7900 C   0  0  0  0  0  0  0  0  0  0  0  0
  189.5750  175.0460  136.9200 C   0  0  0  0  0  3  0  0  0  0  0  0
  189.1800  176.2440  137.5220 C   0  0  0  0  0  0  0  0  0  0  0  0
  187.9710  176.8280  135.4800 C   0  0  0  0  0  0  0  0  0  0  0  0
  188.3660  175.6130  134.9130 C   0  0  0  0  0  3  0  0  0  0  0  0
  187.1480  177.7430  134.6360 C   0  0  0  0  0  1  0  0  0  0  0  0
  189.1790  174.7300  135.6200 C   0  0  0  0  0  0  0  0  0  0  0  0
  189.0200  179.5420  137.2570 O   0  0  0  0  0  0  0  0  0  0  0  0
  188.0900  178.5130  137.3440 C   0  0  0  0  0  0  0  0  0  0  0  0
  186.9880  178.7250  137.9150 O   0  0  0  0  0  1  0  0  0  0  0  0
  189.5820  173.4290  135.0140 C   0  0  0  0  0  2  0  0  0  0  0  0
  190.9940  173.0680  135.4490 C   0  0  0  0  0  1  0  0  0  0  0  0
  186.1730  177.1110  144.3520 O   0  0  0  0  0  0  0  0  0  0  0  0
  186.0490  178.3370  143.6710 C   0  0  2  0  0  3  0  0  0  0  0  0
  185.1990  179.3130  144.5000 C   0  0  1  0  0  3  0  0  0  0  0  0
  184.9170  180.4770  143.8020 F   0  0  0  0  0  0  0  0  0  0  0  0
  183.9980  178.7810  146.4930 O   0  0  0  0  0  1  0  0  0  0  0  0
  183.9420  178.6850  145.1020 C   0  0  1  0  0  3  0  0  0  0  0  0
  182.6710  179.3510  144.5910 C   0  0  0  0  0  2  0  0  0  0  0  0
  180.2770  178.4040  141.8800 F   0  0  0  0  0  0  0  0  0  0  0  0
  180.5280  178.3670  144.1710 O   0  0  0  0  0  0  0  0  0  0  0  0
  181.8740  178.3750  143.7410 C   0  0  1  0  0  3  0  0  0  0  0  0
  180.8030  179.0570  142.9780 C   0  0  0  0  0  0  0  0  0  0  0  0
  180.6060  180.4160  143.1160 F   0  0  0  0  0  0  0  0  0  0  0  0
  185.4740  178.0990  142.2780 C   0  0  0  0  0  2  0  0  0  0  0  0
  185.9540  179.1720  141.3160 C   0  0  0  0  0  2  0  0  0  0  0  0
  184.9170  179.4470  140.3340 N   0  0  0  0  0  2  0  0  0  0  0  0
  183.7160  178.7360  140.7460 C   0  0  0  0  0  2  0  0  0  0  0  0
  183.5660  177.1350  138.9550 O   0  0  0  0  0  0  0  0  0  0  0  0
  182.4410  179.2800  138.4800 C   0  0  2  0  0  3  0  0  0  0  0  0
  180.0170  179.9350  138.6670 N   0  0  0  0  0  2  0  0  0  0  0  0
  182.3360  176.8870  139.6110 C   0  0  2  0  0  3  0  0  0  0  0  0
  179.7480  178.4950  138.7340 C   0  0  0  0  0  2  0  0  0  0  0  0
  181.8210  178.5770  137.2700 C   0  0  0  0  0  2  0  0  0  0  0  0
  181.2790  176.5190  138.5460 C   0  0  0  0  0  2  0  0  0  0  0  0
  182.9390  178.2550  139.5270 C   0  0  2  0  0  0  0  0  0  0  0  0
  181.3900  180.2110  139.1230 C   0  0  0  0  0  2  0  0  0  0  0  0
  180.6760  177.7070  137.7920 C   0  0  1  0  0  3  0  0  0  0  0  0
  1  4  1  1  0  0  0
  1 10  1  0  0  0  0
  1  8  1  0  0  0  0
  3  9  1  6  0  0  0
  3 13  1  0  0  0  0
  3 10  1  0  0  0  0
  6 16  1  6  0  0  0
  6 14  1  0  0  0  0
  6  9  1  0  0  0  0
  7  2  2  0  0  0  0
  8 32  1  6  0  0  0
  8 12  1  0  0  0  0
 10 11  1  1  0  0  0
 11  5  1  0  0  0  0
 11  7  1  0  0  0  0
 12  7  1  0  0  0  0
 14  4  1  0  0  0  0
 15  3  1  0  0  0  0
 15 13  1  0  0  0  0
 16 17  1  1  0  0  0
 18 16  1  0  0  0  0
 19 18  1  0  0  0  0
 20 28  1  0  0  0  0
 20 22  1  0  0  0  0
 21 22  2  0  0  0  0
 22 19  1  0  0  0  0
 23 20  2  0  0  0  0
 24 23  1  0  0  0  0
 24 26  2  0  0  0  0
 25 23  1  0  0  0  0
 26 21  1  0  0  0  0
 27 28  2  0  0  0  0
 28 29  1  0  0  0  0
 30 31  1  0  0  0  0
 30 26  1  0  0  0  0
 33 44  1  6  0  0  0
 33 32  1  0  0  0  0
 33 34  1  0  0  0  0
 34 35  1  6  0  0  0
 34 37  1  0  0  0  0
 37 36  1  1  0  0  0
 38 37  1  0  0  0  0
 39 42  1  0  0  0  0
 41 40  1  0  0  0  0
 41 38  1  1  0  0  0
 42 43  1  0  0  0  0
 42 41  1  0  0  0  0
 42 40  1  0  0  0  0
 45 44  1  0  0  0  0
 46 47  1  0  0  0  0
 46 45  1  0  0  0  0
 48 55  1  0  0  0  0
 48 51  1  0  0  0  0
 49 53  1  6  0  0  0
 49 56  1  0  0  0  0
 49 55  1  0  0  0  0
 50 52  1  0  0  0  0
 50 56  1  0  0  0  0
 51 54  1  6  0  0  0
 55 51  1  0  0  0  0
 55 47  1  1  0  0  0
 57 53  1  1  0  0  0
 57 54  1  0  0  0  0
 57 52  1  0  0  0  0
M  END
>  <MODEL>
1

>  <REMARK>
 VINA RESULT:      -8.1      0.000      0.000
  Name = 
  17 active torsions:
  status: ('A' for Active; 'I' for Inactive)
    1  A    between atoms: C_3  and  C_50
    2  A    between atoms: C_4  and  N_28
    3  A    between atoms: C_4  and  C_38
    4  A    between atoms: C_8  and  C_51
    5  A    between atoms: C_9  and  C_11
    6  A    between atoms: C_9  and  C_26
    7  A    between atoms: C_9  and  O_54
    8  A    between atoms: C_11  and  C_40
    9  A    between atoms: C_15  and  C_23
   10  A    between atoms: C_19  and  C_33
   11  A    between atoms: C_21  and  O_53
   12  A    between atoms: C_23  and  C_29
   13  A    between atoms: C_26  and  C_49
   14  A    between atoms: C_27  and  O_54
   15  A    between atoms: N_28  and  C_49
   16  A    between atoms: C_29  and  O_53
   17  A    between atoms: C_33  and  C_40
                            x       y       z     vdW  Elec       q    Type
                         _______ _______ _______ _____ _____    ______ ____

>  <TORSDO>
F 17

$$$$
=
 OpenBabel11062416433D

 57 64  0  0  1  0  0  0  0  0999 V2000
  189.8530  177.7000  144.5280 C   0  0  2  0  0  3  0  0  0  0  0  0
  192.4440  174.4410  144.5740 O   0  0  0  0  0  0  0  0  0  0  0  0
  189.7760  177.6100  147.0830 C   0  0  2  0  0  0  0  0  0  0  0  0
  188.6120  176.8220  144.3470 C   0  0  0  0  0  2  0  0  0  0  0  0
  191.3980  175.3040  146.9210 O   0  0  0  0  0  1  0  0  0  0  0  0
  187.4420  177.9890  146.3470 C   0  0  1  0  0  3  0  0  0  0  0  0
  191.7160  175.4690  144.5490 C   0  0  0  0  0  0  0  0  0  0  0  0
  190.8390  177.5220  143.3700 C   0  0  1  0  0  3  0  0  0  0  0  0
  188.3410  177.1230  147.2300 C   0  0  0  0  0  2  0  0  0  0  0  0
  190.6030  177.3390  145.8210 C   0  0  1  0  0  3  0  0  0  0  0  0
  191.1500  175.9740  145.7700 N   0  0  0  0  0  0  0  0  0  0  0  0
  191.3980  176.0950  143.2230 C   0  0  0  0  0  2  0  0  0  0  0  0
  190.5120  177.5690  148.2760 O   0  0  0  0  0  0  0  0  0  0  0  0
  187.3410  177.4670  144.9070 C   0  0  0  0  0  2  0  0  0  0  0  0
  190.1190  178.8410  147.8120 C   0  0  0  0  0  2  0  0  0  0  0  0
  186.0390  178.1650  146.9310 C   0  0  1  0  0  3  0  0  0  0  0  0
  185.8190  179.4780  147.3580 O   0  0  0  0  0  1  0  0  0  0  0  0
  184.9760  177.7630  145.9070 C   0  0  0  0  0  2  0  0  0  0  0  0
  184.4850  178.8880  145.1770 O   0  0  0  0  0  0  0  0  0  0  0  0
  183.7950  178.8240  142.7910 C   0  0  0  0  0  0  0  0  0  0  0  0
  182.1710  178.7530  144.6070 C   0  0  0  0  0  3  0  0  0  0  0  0
  183.5000  178.8180  144.1810 C   0  0  0  0  0  0  0  0  0  0  0  0
  182.7180  178.8340  141.8650 C   0  0  0  0  0  0  0  0  0  0  0  0
  181.3990  178.7890  142.3230 C   0  0  0  0  0  3  0  0  0  0  0  0
  182.9320  178.8380  140.3880 C   0  0  0  0  0  1  0  0  0  0  0  0
  181.1220  178.7310  143.6880 C   0  0  0  0  0  0  0  0  0  0  0  0
  185.9250  179.8940  142.0620 O   0  0  0  0  0  0  0  0  0  0  0  0
  185.1920  178.7400  142.3100 C   0  0  0  0  0  0  0  0  0  0  0  0
  185.7240  177.6170  142.1050 O   0  0  0  0  0  1  0  0  0  0  0  0
  179.7110  178.6990  144.1680 C   0  0  0  0  0  2  0  0  0  0  0  0
  178.9310  179.8550  143.5640 C   0  0  0  0  0  1  0  0  0  0  0  0
  190.4370  178.1430  142.1640 O   0  0  0  0  0  0  0  0  0  0  0  0
  190.4120  177.1980  141.1200 C   0  0  2  0  0  3  0  0  0  0  0  0
  191.4300  177.5880  140.0360 C   0  0  1  0  0  3  0  0  0  0  0  0
  192.6540  177.9470  140.5770 F   0  0  0  0  0  0  0  0  0  0  0  0
  190.8960  176.9980  137.7840 O   0  0  0  0  0  1  0  0  0  0  0  0
  191.5750  176.5530  138.9190 C   0  0  1  0  0  3  0  0  0  0  0  0
  193.0350  176.2880  138.5760 C   0  0  0  0  0  2  0  0  0  0  0  0
  194.0420  174.8470  135.2750 F   0  0  0  0  0  0  0  0  0  0  0  0
  194.5980  176.5070  136.7740 O   0  0  0  0  0  0  0  0  0  0  0  0
  193.2300  176.3110  137.0680 C   0  0  1  0  0  3  0  0  0  0  0  0
  194.1010  175.2040  136.6090 C   0  0  0  0  0  0  0  0  0  0  0  0
  194.6530  174.3260  137.5210 F   0  0  0  0  0  0  0  0  0  0  0  0
  188.9950  177.0700  140.5710 C   0  0  0  0  0  2  0  0  0  0  0  0
  188.4680  178.4290  140.1420 C   0  0  0  0  0  2  0  0  0  0  0  0
  187.3840  178.2540  139.1880 N   0  0  0  0  0  2  0  0  0  0  0  0
  187.9730  178.1510  137.8610 C   0  0  0  0  0  2  0  0  0  0  0  0
  188.1260  176.4390  136.1760 O   0  0  0  0  0  0  0  0  0  0  0  0
  185.8940  177.4780  136.3500 C   0  0  2  0  0  3  0  0  0  0  0  0
  183.8180  176.7100  137.5500 N   0  0  0  0  0  2  0  0  0  0  0  0
  187.6140  175.6780  137.2550 C   0  0  2  0  0  3  0  0  0  0  0  0
  184.4760  175.4010  137.6190 C   0  0  0  0  0  2  0  0  0  0  0  0
  185.4010  176.3430  135.4490 C   0  0  0  0  0  2  0  0  0  0  0  0
  186.6620  174.6020  136.6870 C   0  0  0  0  0  2  0  0  0  0  0  0
  187.2340  177.1090  137.0310 C   0  0  2  0  0  0  0  0  0  0  0  0
  184.8280  177.7740  137.4280 C   0  0  0  0  0  2  0  0  0  0  0  0
  185.2600  175.0990  136.3280 C   0  0  1  0  0  3  0  0  0  0  0  0
  1  4  1  6  0  0  0
  1 10  1  0  0  0  0
  3  9  1  1  0  0  0
  3 15  1  0  0  0  0
  3 13  1  0  0  0  0
  4 14  1  0  0  0  0
  6 16  1  1  0  0  0
  6  9  1  0  0  0  0
  7  2  2  0  0  0  0
  7 11  1  0  0  0  0
  8 32  1  6  0  0  0
  8  1  1  0  0  0  0
 10 11  1  6  0  0  0
 10  3  1  0  0  0  0
 11  5  1  0  0  0  0
 12  8  1  0  0  0  0
 12  7  1  0  0  0  0
 14  6  1  0  0  0  0
 15 13  1  0  0  0  0
 16 17  1  6  0  0  0
 18 16  1  0  0  0  0
 19 18  1  0  0  0  0
 20 22  1  0  0  0  0
 22 21  2  0  0  0  0
 22 19  1  0  0  0  0
 23 24  1  0  0  0  0
 23 20  2  0  0  0  0
 24 26  2  0  0  0  0
 25 23  1  0  0  0  0
 26 30  1  0  0  0  0
 26 21  1  0  0  0  0
 27 28  2  0  0  0  0
 28 20  1  0  0  0  0
 29 28  1  0  0  0  0
 31 30  1  0  0  0  0
 33 44  1  6  0  0  0
 33 32  1  0  0  0  0
 34 35  1  1  0  0  0
 34 33  1  0  0  0  0
 37 36  1  6  0  0  0
 37 34  1  0  0  0  0
 38 37  1  0  0  0  0
 39 42  1  0  0  0  0
 40 41  1  0  0  0  0
 41 38  1  1  0  0  0
 42 40  1  0  0  0  0
 42 41  1  0  0  0  0
 42 43  1  0  0  0  0
 45 44  1  0  0  0  0
 46 45  1  0  0  0  0
 47 46  1  0  0  0  0
 48 55  1  0  0  0  0
 48 51  1  0  0  0  0
 49 53  1  1  0  0  0
 49 55  1  0  0  0  0
 49 56  1  0  0  0  0
 50 52  1  0  0  0  0
 51 54  1  6  0  0  0
 55 51  1  0  0  0  0
 55 47  1  1  0  0  0
 56 50  1  0  0  0  0
 57 53  1  6  0  0  0
 57 54  1  0  0  0  0
 57 52  1  0  0  0  0
M  END
>  <MODEL>
2

>  <REMARK>
 VINA RESULT:      -8.0      3.413      8.239
  Name = 
  17 active torsions:
  status: ('A' for Active; 'I' for Inactive)
    1  A    between atoms: C_3  and  C_50
    2  A    between atoms: C_4  and  N_28
    3  A    between atoms: C_4  and  C_38
    4  A    between atoms: C_8  and  C_51
    5  A    between atoms: C_9  and  C_11
    6  A    between atoms: C_9  and  C_26
    7  A    between atoms: C_9  and  O_54
    8  A    between atoms: C_11  and  C_40
    9  A    between atoms: C_15  and  C_23
   10  A    between atoms: C_19  and  C_33
   11  A    between atoms: C_21  and  O_53
   12  A    between atoms: C_23  and  C_29
   13  A    between atoms: C_26  and  C_49
   14  A    between atoms: C_27  and  O_54
   15  A    between atoms: N_28  and  C_49
   16  A    between atoms: C_29  and  O_53
   17  A    between atoms: C_33  and  C_40
                            x       y       z     vdW  Elec       q    Type
                         _______ _______ _______ _____ _____    ______ ____

>  <TORSDO>
F 17

$$$$
=
 OpenBabel11062416433D

 57 64  0  0  1  0  0  0  0  0999 V2000
  189.3330  177.9530  144.4230 C   0  0  2  0  0  3  0  0  0  0  0  0
  192.1870  175.0290  145.2170 O   0  0  0  0  0  0  0  0  0  0  0  0
  188.7340  177.9740  146.9090 C   0  0  2  0  0  0  0  0  0  0  0  0
  188.2560  176.9280  144.0560 C   0  0  0  0  0  2  0  0  0  0  0  0
  190.5890  175.8700  147.2390 O   0  0  0  0  0  1  0  0  0  0  0  0
  186.5780  178.0400  145.6920 C   0  0  1  0  0  3  0  0  0  0  0  0
  191.3760  175.9610  144.9750 C   0  0  0  0  0  0  0  0  0  0  0  0
  190.5510  177.8390  143.5020 C   0  0  1  0  0  3  0  0  0  0  0  0
  187.3600  177.3280  146.7970 C   0  0  0  0  0  2  0  0  0  0  0  0
  189.8310  177.7440  145.8620 C   0  0  1  0  0  3  0  0  0  0  0  0
  190.5170  176.4520  146.0180 N   0  0  0  0  0  0  0  0  0  0  0  0
  191.2760  176.4830  143.5710 C   0  0  0  0  0  2  0  0  0  0  0  0
  189.2050  178.0750  148.2260 O   0  0  0  0  0  0  0  0  0  0  0  0
  186.8350  177.4430  144.3020 C   0  0  0  0  0  2  0  0  0  0  0  0
  188.7860  179.2690  147.6050 C   0  0  0  0  0  2  0  0  0  0  0  0
  185.0740  178.0760  145.9670 C   0  0  1  0  0  3  0  0  0  0  0  0
  184.8020  178.2020  147.3330 O   0  0  0  0  0  1  0  0  0  0  0  0
  184.4130  179.2180  145.1940 C   0  0  0  0  0  2  0  0  0  0  0  0
  183.1150  178.8590  144.7170 O   0  0  0  0  0  0  0  0  0  0  0  0
  181.4320  178.6010  142.9070 C   0  0  0  0  0  0  0  0  0  0  0  0
  183.8150  178.7990  142.4360 C   0  0  0  0  0  3  0  0  0  0  0  0
  182.7700  178.7560  143.3620 C   0  0  0  0  0  0  0  0  0  0  0  0
  181.2000  178.4220  141.5180 C   0  0  0  0  0  0  0  0  0  0  0  0
  182.2700  178.4490  140.6180 C   0  0  0  0  0  3  0  0  0  0  0  0
  179.8310  178.2540  140.9490 C   0  0  0  0  0  1  0  0  0  0  0  0
  183.5720  178.6540  141.0700 C   0  0  0  0  0  0  0  0  0  0  0  0
  179.7700  177.5670  144.4500 O   0  0  0  0  0  1  0  0  0  0  0  0
  180.2940  178.7040  143.8470 C   0  0  0  0  0  0  0  0  0  0  0  0
  179.7780  179.8260  144.0960 O   0  0  0  0  0  0  0  0  0  0  0  0
  184.7090  178.6650  140.1050 C   0  0  0  0  0  2  0  0  0  0  0  0
  184.2920  179.3580  138.8180 C   0  0  0  0  0  1  0  0  0  0  0  0
  190.3470  178.3520  142.2000 O   0  0  0  0  0  0  0  0  0  0  0  0
  190.3070  177.2970  141.2670 C   0  0  2  0  0  3  0  0  0  0  0  0
  191.3780  177.5140  140.1860 C   0  0  1  0  0  3  0  0  0  0  0  0
  192.5340  178.0750  140.7040 F   0  0  0  0  0  0  0  0  0  0  0  0
  190.4660  175.6680  138.9770 O   0  0  0  0  0  1  0  0  0  0  0  0
  191.6690  176.2730  139.3420 C   0  0  1  0  0  3  0  0  0  0  0  0
  192.4760  176.6090  138.0940 C   0  0  0  0  0  2  0  0  0  0  0  0
  195.0010  174.7110  136.0940 F   0  0  0  0  0  0  0  0  0  0  0  0
  193.0420  174.4300  137.2750 O   0  0  0  0  0  0  0  0  0  0  0  0
  193.5790  175.5830  137.8920 C   0  0  1  0  0  3  0  0  0  0  0  0
  193.7990  175.2860  136.4570 C   0  0  0  0  0  0  0  0  0  0  0  0
  193.0190  175.8930  135.4920 F   0  0  0  0  0  0  0  0  0  0  0  0
  188.9040  177.1750  140.6830 C   0  0  0  0  0  2  0  0  0  0  0  0
  188.3720  178.5430  140.2910 C   0  0  0  0  0  2  0  0  0  0  0  0
  188.2970  178.6410  138.8420 N   0  0  0  0  0  2  0  0  0  0  0  0
  187.5550  177.4860  138.3560 C   0  0  0  0  0  2  0  0  0  0  0  0
  187.9950  178.3430  136.1500 O   0  0  0  0  0  0  0  0  0  0  0  0
  187.2830  175.9790  136.1850 C   0  0  2  0  0  3  0  0  0  0  0  0
  188.6390  173.8600  136.0950 N   0  0  0  0  0  2  0  0  0  0  0  0
  189.2450  177.7430  136.4350 C   0  0  2  0  0  3  0  0  0  0  0  0
  189.7390  174.7140  135.6370 C   0  0  0  0  0  2  0  0  0  0  0  0
  187.7090  175.9300  134.7160 C   0  0  0  0  0  2  0  0  0  0  0  0
  189.8210  177.1660  135.1220 C   0  0  0  0  0  2  0  0  0  0  0  0
  187.9500  177.1670  136.9200 C   0  0  2  0  0  0  0  0  0  0  0  0
  187.6770  174.6550  136.8760 C   0  0  0  0  0  2  0  0  0  0  0  0
  189.2340  175.8190  134.6920 C   0  0  1  0  0  3  0  0  0  0  0  0
  1  4  1  6  0  0  0
  1 10  1  0  0  0  0
  3  9  1  6  0  0  0
  3 15  1  0  0  0  0
  3 13  1  0  0  0  0
  4 14  1  0  0  0  0
  6 16  1  1  0  0  0
  6  9  1  0  0  0  0
  7  2  2  0  0  0  0
  7 11  1  0  0  0  0
  8 32  1  6  0  0  0
  8 12  1  0  0  0  0
  8  1  1  0  0  0  0
 10 11  1  6  0  0  0
 10  3  1  0  0  0  0
 11  5  1  0  0  0  0
 12  7  1  0  0  0  0
 14  6  1  0  0  0  0
 15 13  1  0  0  0  0
 16 17  1  1  0  0  0
 18 16  1  0  0  0  0
 19 18  1  0  0  0  0
 20 22  1  0  0  0  0
 20 28  1  0  0  0  0
 21 22  2  0  0  0  0
 22 19  1  0  0  0  0
 23 20  2  0  0  0  0
 24 26  2  0  0  0  0
 24 23  1  0  0  0  0
 25 23  1  0  0  0  0
 26 21  1  0  0  0  0
 28 29  2  0  0  0  0
 28 27  1  0  0  0  0
 30 26  1  0  0  0  0
 31 30  1  0  0  0  0
 33 44  1  6  0  0  0
 33 32  1  0  0  0  0
 34 35  1  1  0  0  0
 34 33  1  0  0  0  0
 37 36  1  6  0  0  0
 37 34  1  0  0  0  0
 38 37  1  0  0  0  0
 39 42  1  0  0  0  0
 40 41  1  0  0  0  0
 41 38  1  6  0  0  0
 42 40  1  0  0  0  0
 42 41  1  0  0  0  0
 43 42  1  0  0  0  0
 45 44  1  0  0  0  0
 46 45  1  0  0  0  0
 47 46  1  0  0  0  0
 48 51  1  0  0  0  0
 48 55  1  0  0  0  0
 49 53  1  6  0  0  0
 49 56  1  0  0  0  0
 49 55  1  0  0  0  0
 50 56  1  0  0  0  0
 51 54  1  6  0  0  0
 51 55  1  0  0  0  0
 52 50  1  0  0  0  0
 55 47  1  1  0  0  0
 57 53  1  1  0  0  0
 57 54  1  0  0  0  0
 57 52  1  0  0  0  0
M  END
>  <MODEL>
3

>  <REMARK>
 VINA RESULT:      -7.8      3.333      8.480
  Name = 
  17 active torsions:
  status: ('A' for Active; 'I' for Inactive)
    1  A    between atoms: C_3  and  C_50
    2  A    between atoms: C_4  and  N_28
    3  A    between atoms: C_4  and  C_38
    4  A    between atoms: C_8  and  C_51
    5  A    between atoms: C_9  and  C_11
    6  A    between atoms: C_9  and  C_26
    7  A    between atoms: C_9  and  O_54
    8  A    between atoms: C_11  and  C_40
    9  A    between atoms: C_15  and  C_23
   10  A    between atoms: C_19  and  C_33
   11  A    between atoms: C_21  and  O_53
   12  A    between atoms: C_23  and  C_29
   13  A    between atoms: C_26  and  C_49
   14  A    between atoms: C_27  and  O_54
   15  A    between atoms: N_28  and  C_49
   16  A    between atoms: C_29  and  O_53
   17  A    between atoms: C_33  and  C_40
                            x       y       z     vdW  Elec       q    Type
                         _______ _______ _______ _____ _____    ______ ____

>  <TORSDO>
F 17

$$$$
=
 OpenBabel11062416433D

 57 64  0  0  1  0  0  0  0  0999 V2000
  188.4550  176.9130  143.7980 C   0  0  2  0  0  3  0  0  0  0  0  0
  189.0720  178.4240  147.6280 O   0  0  0  0  0  0  0  0  0  0  0  0
  190.9080  176.1940  143.7410 C   0  0  2  0  0  0  0  0  0  0  0  0
  188.7180  178.2640  143.1280 C   0  0  0  0  0  2  0  0  0  0  0  0
  191.1920  177.4220  146.2680 O   0  0  0  0  0  1  0  0  0  0  0  0
  190.4390  177.1790  141.5180 C   0  0  1  0  0  3  0  0  0  0  0  0
  188.8550  177.9110  146.4990 C   0  0  0  0  0  0  0  0  0  0  0  0
  187.2690  176.9890  144.7640 C   0  0  1  0  0  3  0  0  0  0  0  0
  191.3970  177.2020  142.7100 C   0  0  0  0  0  2  0  0  0  0  0  0
  189.6740  176.4530  144.6130 C   0  0  1  0  0  3  0  0  0  0  0  0
  189.9450  177.3520  145.7450 N   0  0  0  0  0  0  0  0  0  0  0  0
  187.4650  177.9660  145.9370 C   0  0  0  0  0  2  0  0  0  0  0  0
  191.9430  175.5060  144.3930 O   0  0  0  0  0  0  0  0  0  0  0  0
  189.2440  178.1260  141.6960 C   0  0  0  0  0  2  0  0  0  0  0  0
  191.1910  174.7800  143.4470 C   0  0  0  0  0  2  0  0  0  0  0  0
  191.1430  177.4820  140.1940 C   0  0  1  0  0  3  0  0  0  0  0  0
  192.5340  177.4620  140.3330 O   0  0  0  0  0  1  0  0  0  0  0  0
  190.7100  176.4870  139.1160 C   0  0  0  0  0  2  0  0  0  0  0  0
  191.8280  175.9350  138.4190 O   0  0  0  0  0  0  0  0  0  0  0  0
  192.8960  174.1540  137.0530 C   0  0  0  0  0  0  0  0  0  0  0  0
  190.4790  174.4600  137.1150 C   0  0  0  0  0  3  0  0  0  0  0  0
  191.7540  174.8480  137.5360 C   0  0  0  0  0  0  0  0  0  0  0  0
  192.7140  173.1220  136.0970 C   0  0  0  0  0  0  0  0  0  0  0  0
  191.4270  172.7700  135.6800 C   0  0  0  0  0  3  0  0  0  0  0  0
  193.8540  172.3370  135.5380 C   0  0  0  0  0  1  0  0  0  0  0  0
  190.3100  173.4220  136.1980 C   0  0  0  0  0  0  0  0  0  0  0  0
  194.9940  175.5000  137.0970 O   0  0  0  0  0  0  0  0  0  0  0  0
  194.2440  174.4420  137.5950 C   0  0  0  0  0  0  0  0  0  0  0  0
  194.7290  173.7160  138.5030 O   0  0  0  0  0  1  0  0  0  0  0  0
  188.9420  173.0510  135.7360 C   0  0  0  0  0  2  0  0  0  0  0  0
  188.1170  172.5450  136.9080 C   0  0  0  0  0  1  0  0  0  0  0  0
  186.0060  177.0480  144.1300 O   0  0  0  0  0  0  0  0  0  0  0  0
  185.8680  178.2680  143.4410 C   0  0  2  0  0  3  0  0  0  0  0  0
  185.0860  179.2720  144.3030 C   0  0  1  0  0  3  0  0  0  0  0  0
  185.0900  180.5430  143.7520 F   0  0  0  0  0  0  0  0  0  0  0  0
  183.4980  178.9230  146.0510 O   0  0  0  0  0  1  0  0  0  0  0  0
  183.6760  178.8080  144.6720 C   0  0  1  0  0  3  0  0  0  0  0  0
  182.6050  179.6100  143.9450 C   0  0  0  0  0  2  0  0  0  0  0  0
  180.2940  177.6060  141.7950 F   0  0  0  0  0  0  0  0  0  0  0  0
  180.3740  179.5180  143.0800 O   0  0  0  0  0  0  0  0  0  0  0  0
  181.3910  178.7370  143.6750 C   0  0  1  0  0  3  0  0  0  0  0  0
  181.0830  178.6540  142.2280 C   0  0  0  0  0  0  0  0  0  0  0  0
  181.8450  179.3520  141.3120 F   0  0  0  0  0  0  0  0  0  0  0  0
  185.2110  178.0260  142.0860 C   0  0  0  0  0  2  0  0  0  0  0  0
  185.4910  179.1860  141.1460 C   0  0  0  0  0  2  0  0  0  0  0  0
  186.0300  178.6810  139.8940 N   0  0  0  0  0  2  0  0  0  0  0  0
  184.9750  178.7600  138.8930 C   0  0  0  0  0  2  0  0  0  0  0  0
  184.2310  176.5930  138.1530 O   0  0  0  0  0  0  0  0  0  0  0  0
  186.5410  177.1460  137.4770 C   0  0  2  0  0  3  0  0  0  0  0  0
  187.4390  178.0510  135.3070 N   0  0  0  0  0  2  0  0  0  0  0  0
  183.9440  177.3600  136.9990 C   0  0  2  0  0  3  0  0  0  0  0  0
  186.1460  177.6620  134.7360 C   0  0  0  0  0  2  0  0  0  0  0  0
  186.4620  175.9240  136.5600 C   0  0  0  0  0  2  0  0  0  0  0  0
  184.1830  176.4780  135.7530 C   0  0  0  0  0  2  0  0  0  0  0  0
  185.1280  177.6390  137.8720 C   0  0  2  0  0  0  0  0  0  0  0  0
  187.3020  178.2790  136.7550 C   0  0  0  0  0  2  0  0  0  0  0  0
  185.6480  176.3330  135.3320 C   0  0  1  0  0  3  0  0  0  0  0  0
  1  4  1  1  0  0  0
  1 10  1  0  0  0  0
  1  8  1  0  0  0  0
  3  9  1  6  0  0  0
  3 13  1  0  0  0  0
  3 10  1  0  0  0  0
  6 16  1  6  0  0  0
  6 14  1  0  0  0  0
  6  9  1  0  0  0  0
  7  2  2  0  0  0  0
  8 32  1  6  0  0  0
  8 12  1  0  0  0  0
 10 11  1  1  0  0  0
 11  5  1  0  0  0  0
 11  7  1  0  0  0  0
 12  7  1  0  0  0  0
 14  4  1  0  0  0  0
 15  3  1  0  0  0  0
 15 13  1  0  0  0  0
 16 17  1  1  0  0  0
 18 16  1  0  0  0  0
 19 18  1  0  0  0  0
 20 22  1  0  0  0  0
 20 28  1  0  0  0  0
 21 22  2  0  0  0  0
 22 19  1  0  0  0  0
 23 20  2  0  0  0  0
 24 23  1  0  0  0  0
 24 26  2  0  0  0  0
 25 23  1  0  0  0  0
 26 21  1  0  0  0  0
 27 28  2  0  0  0  0
 28 29  1  0  0  0  0
 30 26  1  0  0  0  0
 30 31  1  0  0  0  0
 33 44  1  6  0  0  0
 33 32  1  0  0  0  0
 33 34  1  0  0  0  0
 34 35  1  6  0  0  0
 34 37  1  0  0  0  0
 37 36  1  1  0  0  0
 38 37  1  0  0  0  0
 39 42  1  0  0  0  0
 40 41  1  0  0  0  0
 41 38  1  6  0  0  0
 42 40  1  0  0  0  0
 42 41  1  0  0  0  0
 43 42  1  0  0  0  0
 45 44  1  0  0  0  0
 46 45  1  0  0  0  0
 47 46  1  0  0  0  0
 49 53  1  6  0  0  0
 49 55  1  0  0  0  0
 50 56  1  0  0  0  0
 51 54  1  6  0  0  0
 51 55  1  0  0  0  0
 51 48  1  0  0  0  0
 52 50  1  0  0  0  0
 55 48  1  0  0  0  0
 55 47  1  1  0  0  0
 56 49  1  0  0  0  0
 57 52  1  1  0  0  0
 57 54  1  0  0  0  0
 57 53  1  0  0  0  0
M  END
>  <MODEL>
4

>  <REMARK>
 VINA RESULT:      -7.8      1.873      3.486
  Name = 
  17 active torsions:
  status: ('A' for Active; 'I' for Inactive)
    1  A    between atoms: C_3  and  C_50
    2  A    between atoms: C_4  and  N_28
    3  A    between atoms: C_4  and  C_38
    4  A    between atoms: C_8  and  C_51
    5  A    between atoms: C_9  and  C_11
    6  A    between atoms: C_9  and  C_26
    7  A    between atoms: C_9  and  O_54
    8  A    between atoms: C_11  and  C_40
    9  A    between atoms: C_15  and  C_23
   10  A    between atoms: C_19  and  C_33
   11  A    between atoms: C_21  and  O_53
   12  A    between atoms: C_23  and  C_29
   13  A    between atoms: C_26  and  C_49
   14  A    between atoms: C_27  and  O_54
   15  A    between atoms: N_28  and  C_49
   16  A    between atoms: C_29  and  O_53
   17  A    between atoms: C_33  and  C_40
                            x       y       z     vdW  Elec       q    Type
                         _______ _______ _______ _____ _____    ______ ____

>  <TORSDO>
F 17

$$$$
=
 OpenBabel11062416433D

 57 64  0  0  1  0  0  0  0  0999 V2000
  188.5530  176.9180  143.8270 C   0  0  2  0  0  3  0  0  0  0  0  0
  189.1750  178.4730  147.6390 O   0  0  0  0  0  0  0  0  0  0  0  0
  191.0040  176.1930  143.7770 C   0  0  2  0  0  0  0  0  0  0  0  0
  188.8190  178.2610  143.1410 C   0  0  0  0  0  2  0  0  0  0  0  0
  191.2920  177.4500  146.2900 O   0  0  0  0  0  1  0  0  0  0  0  0
  190.5360  177.1520  141.5430 C   0  0  1  0  0  3  0  0  0  0  0  0
  188.9560  177.9470  146.5160 C   0  0  0  0  0  0  0  0  0  0  0  0
  187.3670  177.0080  144.7930 C   0  0  1  0  0  3  0  0  0  0  0  0
  191.4950  177.1870  142.7340 C   0  0  0  0  0  2  0  0  0  0  0  0
  189.7710  176.4650  144.6470 C   0  0  1  0  0  3  0  0  0  0  0  0
  190.0440  177.3770  145.7680 N   0  0  0  0  0  0  0  0  0  0  0  0
  187.5660  177.9990  145.9540 C   0  0  0  0  0  2  0  0  0  0  0  0
  192.0380  175.5100  144.4360 O   0  0  0  0  0  0  0  0  0  0  0  0
  189.3430  178.1040  141.7100 C   0  0  0  0  0  2  0  0  0  0  0  0
  191.2830  174.7750  143.5000 C   0  0  0  0  0  2  0  0  0  0  0  0
  191.2400  177.4370  140.2150 C   0  0  1  0  0  3  0  0  0  0  0  0
  192.6300  177.4480  140.3600 O   0  0  0  0  0  1  0  0  0  0  0  0
  190.8310  176.4100  139.1590 C   0  0  0  0  0  2  0  0  0  0  0  0
  191.7260  176.4050  138.0450 O   0  0  0  0  0  0  0  0  0  0  0  0
  191.6820  174.4280  136.5390 C   0  0  0  0  0  0  0  0  0  0  0  0
  193.5860  174.9100  137.9820 C   0  0  0  0  0  3  0  0  0  0  0  0
  192.3160  175.2500  137.5090 C   0  0  0  0  0  0  0  0  0  0  0  0
  192.3320  173.2360  136.1250 C   0  0  0  0  0  0  0  0  0  0  0  0
  193.5930  172.9120  136.6310 C   0  0  0  0  0  3  0  0  0  0  0  0
  191.7430  172.3140  135.1090 C   0  0  0  0  0  1  0  0  0  0  0  0
  194.2290  173.7520  137.5440 C   0  0  0  0  0  0  0  0  0  0  0  0
  189.1910  174.4200  136.4320 O   0  0  0  0  0  1  0  0  0  0  0  0
  190.4080  174.8420  135.9090 C   0  0  0  0  0  0  0  0  0  0  0  0
  190.4170  175.5690  134.8810 O   0  0  0  0  0  0  0  0  0  0  0  0
  195.5680  173.3910  138.0910 C   0  0  0  0  0  2  0  0  0  0  0  0
  195.9220  174.3120  139.2480 C   0  0  0  0  0  1  0  0  0  0  0  0
  186.1040  177.0630  144.1590 O   0  0  0  0  0  0  0  0  0  0  0  0
  185.9600  178.2840  143.4730 C   0  0  2  0  0  3  0  0  0  0  0  0
  185.1900  179.2880  144.3450 C   0  0  1  0  0  3  0  0  0  0  0  0
  185.0460  180.5160  143.7200 F   0  0  0  0  0  0  0  0  0  0  0  0
  183.8480  178.8530  146.2720 O   0  0  0  0  0  1  0  0  0  0  0  0
  183.8600  178.7550  144.8800 C   0  0  1  0  0  3  0  0  0  0  0  0
  182.6700  179.5080  144.3000 C   0  0  0  0  0  2  0  0  0  0  0  0
  179.9450  178.6650  141.8820 F   0  0  0  0  0  0  0  0  0  0  0  0
  180.5400  178.4330  144.0970 O   0  0  0  0  0  0  0  0  0  0  0  0
  181.8040  178.5660  143.4800 C   0  0  1  0  0  3  0  0  0  0  0  0
  180.5970  179.2460  142.9530 C   0  0  0  0  0  0  0  0  0  0  0  0
  180.3560  180.5720  143.2550 F   0  0  0  0  0  0  0  0  0  0  0  0
  185.2870  178.0450  142.1260 C   0  0  0  0  0  2  0  0  0  0  0  0
  185.9140  178.9230  141.0560 C   0  0  0  0  0  2  0  0  0  0  0  0
  184.8680  179.5360  140.2520 N   0  0  0  0  0  2  0  0  0  0  0  0
  184.5530  178.6220  139.1630 C   0  0  0  0  0  2  0  0  0  0  0  0
  182.3260  179.1760  139.8920 O   0  0  0  0  0  0  0  0  0  0  0  0
  182.7290  176.7520  139.6500 C   0  0  2  0  0  3  0  0  0  0  0  0
  182.1790  175.1820  137.7610 N   0  0  0  0  0  2  0  0  0  0  0  0
  182.1070  179.0560  138.4990 C   0  0  2  0  0  3  0  0  0  0  0  0
  181.2870  176.2440  137.2840 C   0  0  0  0  0  2  0  0  0  0  0  0
  181.2160  176.5840  139.8000 C   0  0  0  0  0  2  0  0  0  0  0  0
  180.6950  178.4690  138.2750 C   0  0  0  0  0  2  0  0  0  0  0  0
  183.0910  178.1980  139.2320 C   0  0  2  0  0  0  0  0  0  0  0  0
  183.2510  175.7600  138.5890 C   0  0  0  0  0  2  0  0  0  0  0  0
  180.5850  176.9540  138.4560 C   0  0  1  0  0  3  0  0  0  0  0  0
  1  4  1  1  0  0  0
  1 10  1  0  0  0  0
  1  8  1  0  0  0  0
  3  9  1  6  0  0  0
  3 13  1  0  0  0  0
  3 10  1  0  0  0  0
  6 16  1  6  0  0  0
  6 14  1  0  0  0  0
  6  9  1  0  0  0  0
  7  2  2  0  0  0  0
  8 32  1  6  0  0  0
  8 12  1  0  0  0  0
 10 11  1  1  0  0  0
 11  5  1  0  0  0  0
 11  7  1  0  0  0  0
 12  7  1  0  0  0  0
 14  4  1  0  0  0  0
 15  3  1  0  0  0  0
 15 13  1  0  0  0  0
 16 17  1  1  0  0  0
 18 16  1  0  0  0  0
 19 18  1  0  0  0  0
 20 22  1  0  0  0  0
 22 21  2  0  0  0  0
 22 19  1  0  0  0  0
 23 20  2  0  0  0  0
 23 24  1  0  0  0  0
 24 26  2  0  0  0  0
 25 23  1  0  0  0  0
 26 21  1  0  0  0  0
 26 30  1  0  0  0  0
 28 27  1  0  0  0  0
 28 20  1  0  0  0  0
 29 28  2  0  0  0  0
 30 31  1  0  0  0  0
 33 44  1  6  0  0  0
 33 32  1  0  0  0  0
 33 34  1  0  0  0  0
 34 35  1  6  0  0  0
 34 37  1  0  0  0  0
 37 36  1  1  0  0  0
 38 37  1  0  0  0  0
 39 42  1  0  0  0  0
 41 40  1  0  0  0  0
 41 38  1  1  0  0  0
 42 43  1  0  0  0  0
 42 41  1  0  0  0  0
 42 40  1  0  0  0  0
 45 44  1  0  0  0  0
 46 45  1  0  0  0  0
 47 46  1  0  0  0  0
 49 56  1  6  0  0  0
 49 53  1  0  0  0  0
 50 56  1  0  0  0  0
 51 54  1  1  0  0  0
 51 55  1  0  0  0  0
 51 48  1  0  0  0  0
 52 50  1  0  0  0  0
 54 57  1  0  0  0  0
 55 47  1  6  0  0  0
 55 49  1  0  0  0  0
 55 48  1  0  0  0  0
 57 52  1  6  0  0  0
 57 53  1  0  0  0  0
M  END
>  <MODEL>
5

>  <REMARK>
 VINA RESULT:      -7.7      1.810      2.870
  Name = 
  17 active torsions:
  status: ('A' for Active; 'I' for Inactive)
    1  A    between atoms: C_3  and  C_50
    2  A    between atoms: C_4  and  N_28
    3  A    between atoms: C_4  and  C_38
    4  A    between atoms: C_8  and  C_51
    5  A    between atoms: C_9  and  C_11
    6  A    between atoms: C_9  and  C_26
    7  A    between atoms: C_9  and  O_54
    8  A    between atoms: C_11  and  C_40
    9  A    between atoms: C_15  and  C_23
   10  A    between atoms: C_19  and  C_33
   11  A    between atoms: C_21  and  O_53
   12  A    between atoms: C_23  and  C_29
   13  A    between atoms: C_26  and  C_49
   14  A    between atoms: C_27  and  O_54
   15  A    between atoms: N_28  and  C_49
   16  A    between atoms: C_29  and  O_53
   17  A    between atoms: C_33  and  C_40
                            x       y       z     vdW  Elec       q    Type
                         _______ _______ _______ _____ _____    ______ ____

>  <TORSDO>
F 17

$$$$
=
 OpenBabel11062416433D

 57 64  0  0  1  0  0  0  0  0999 V2000
  182.5210  178.9720  141.2220 C   0  0  2  0  0  3  0  0  0  0  0  0
  180.0090  178.1240  144.4320 O   0  0  0  0  0  0  0  0  0  0  0  0
  180.4740  179.0000  139.6910 C   0  0  2  0  0  0  0  0  0  0  0  0
  182.8350  177.4950  140.9640 C   0  0  0  0  0  2  0  0  0  0  0  0
  178.9420  178.2540  141.9430 O   0  0  0  0  0  1  0  0  0  0  0  0
  182.2260  177.7600  138.4560 C   0  0  1  0  0  3  0  0  0  0  0  0
  180.7710  178.4470  143.4820 C   0  0  0  0  0  0  0  0  0  0  0  0
  182.9490  179.3970  142.6300 C   0  0  1  0  0  3  0  0  0  0  0  0
  180.7710  177.7190  138.9230 C   0  0  0  0  0  2  0  0  0  0  0  0
  181.0140  179.2470  141.1050 C   0  0  1  0  0  3  0  0  0  0  0  0
  180.2490  178.5450  142.1460 N   0  0  0  0  0  0  0  0  0  0  0  0
  182.2300  178.6490  143.7670 C   0  0  0  0  0  2  0  0  0  0  0  0
  179.1850  179.5060  139.4680 O   0  0  0  0  0  0  0  0  0  0  0  0
  183.2040  177.2120  139.5050 C   0  0  0  0  0  2  0  0  0  0  0  0
  180.2560  180.2060  138.8770 C   0  0  0  0  0  2  0  0  0  0  0  0
  182.4370  177.0330  137.1260 C   0  0  1  0  0  3  0  0  0  0  0  0
  182.5120  177.9300  136.0560 O   0  0  0  0  0  1  0  0  0  0  0  0
  183.7000  176.1730  137.1780 C   0  0  0  0  0  2  0  0  0  0  0  0
  184.7230  176.6740  136.3150 O   0  0  0  0  0  0  0  0  0  0  0  0
  187.1210  177.1360  136.7750 C   0  0  0  0  0  0  0  0  0  0  0  0
  186.3550  174.9660  135.9740 C   0  0  0  0  0  3  0  0  0  0  0  0
  186.0670  176.2760  136.3650 C   0  0  0  0  0  0  0  0  0  0  0  0
  188.4560  176.6590  136.7090 C   0  0  0  0  0  0  0  0  0  0  0  0
  188.7140  175.3490  136.2940 C   0  0  0  0  0  3  0  0  0  0  0  0
  189.6250  177.4900  137.1220 C   0  0  0  0  0  1  0  0  0  0  0  0
  187.6690  174.4970  135.9430 C   0  0  0  0  0  0  0  0  0  0  0  0
  186.0770  178.6060  138.4970 O   0  0  0  0  0  1  0  0  0  0  0  0
  186.8330  178.4750  137.3380 C   0  0  0  0  0  0  0  0  0  0  0  0
  187.2590  179.5090  136.7600 O   0  0  0  0  0  0  0  0  0  0  0  0
  187.9530  173.1070  135.4860 C   0  0  0  0  0  2  0  0  0  0  0  0
  189.0220  172.4790  136.3660 C   0  0  0  0  0  1  0  0  0  0  0  0
  184.3470  179.5490  142.7920 O   0  0  0  0  0  0  0  0  0  0  0  0
  184.8070  178.7050  143.8210 C   0  0  2  0  0  3  0  0  0  0  0  0
  185.5640  179.5290  144.8750 C   0  0  1  0  0  3  0  0  0  0  0  0
  185.1900  180.8640  144.8570 F   0  0  0  0  0  0  0  0  0  0  0  0
  184.3030  178.2600  146.4560 O   0  0  0  0  0  1  0  0  0  0  0  0
  185.5120  178.9360  146.2830 C   0  0  1  0  0  3  0  0  0  0  0  0
  186.6740  177.9880  146.5450 C   0  0  0  0  0  2  0  0  0  0  0  0
  189.6290  178.2210  148.8240 F   0  0  0  0  0  0  0  0  0  0  0  0
  187.5460  177.2500  148.6500 O   0  0  0  0  0  0  0  0  0  0  0  0
  187.3960  178.3850  147.8220 C   0  0  1  0  0  3  0  0  0  0  0  0
  188.6930  177.6820  147.9630 C   0  0  0  0  0  0  0  0  0  0  0  0
  189.0960  176.7650  147.0120 F   0  0  0  0  0  0  0  0  0  0  0  0
  185.6600  177.5880  143.2320 C   0  0  0  0  0  2  0  0  0  0  0  0
  186.1300  177.9590  141.8350 C   0  0  0  0  0  2  0  0  0  0  0  0
  187.4380  178.5900  141.9110 N   0  0  0  0  0  2  0  0  0  0  0  0
  188.3150  177.9060  140.9710 C   0  0  0  0  0  2  0  0  0  0  0  0
  190.0730  176.2620  140.9340 O   0  0  0  0  0  0  0  0  0  0  0  0
  189.3790  176.9380  143.2040 C   0  0  2  0  0  3  0  0  0  0  0  0
  190.3900  178.6050  144.7970 N   0  0  0  0  0  2  0  0  0  0  0  0
  190.8430  177.4440  141.0550 C   0  0  2  0  0  3  0  0  0  0  0  0
  191.5770  178.5400  143.9390 C   0  0  0  0  0  2  0  0  0  0  0  0
  190.6230  176.1980  143.7000 C   0  0  0  0  0  2  0  0  0  0  0  0
  192.0810  177.1340  141.9250 C   0  0  0  0  0  2  0  0  0  0  0  0
  189.5010  177.2910  141.7020 C   0  0  2  0  0  0  0  0  0  0  0  0
  189.1920  178.2310  144.0270 C   0  0  0  0  0  2  0  0  0  0  0  0
  191.8250  177.1060  143.4340 C   0  0  1  0  0  3  0  0  0  0  0  0
  1  4  1  1  0  0  0
  1  8  1  0  0  0  0
  3 15  1  6  0  0  0
  3 10  1  0  0  0  0
  5 11  1  0  0  0  0
  6 16  1  6  0  0  0
  6  9  1  0  0  0  0
  6 14  1  0  0  0  0
  7 12  1  0  0  0  0
  7  2  2  0  0  0  0
  8 32  1  6  0  0  0
  8 12  1  0  0  0  0
  9  3  1  0  0  0  0
 10  1  1  0  0  0  0
 10 11  1  1  0  0  0
 11  7  1  0  0  0  0
 13  3  1  0  0  0  0
 14  4  1  0  0  0  0
 15 13  1  0  0  0  0
 16 17  1  6  0  0  0
 16 18  1  0  0  0  0
 19 22  1  0  0  0  0
 19 18  1  0  0  0  0
 20 28  1  0  0  0  0
 21 22  1  0  0  0  0
 22 20  2  0  0  0  0
 23 20  1  0  0  0  0
 23 25  1  0  0  0  0
 24 23  2  0  0  0  0
 26 21  2  0  0  0  0
 26 24  1  0  0  0  0
 28 27  1  0  0  0  0
 29 28  2  0  0  0  0
 30 26  1  0  0  0  0
 30 31  1  0  0  0  0
 32 33  1  0  0  0  0
 33 44  1  6  0  0  0
 33 34  1  0  0  0  0
 34 35  1  1  0  0  0
 34 37  1  0  0  0  0
 37 36  1  6  0  0  0
 37 38  1  0  0  0  0
 41 38  1  6  0  0  0
 41 42  1  0  0  0  0
 41 40  1  0  0  0  0
 42 40  1  0  0  0  0
 42 39  1  0  0  0  0
 43 42  1  0  0  0  0
 45 46  1  0  0  0  0
 45 44  1  0  0  0  0
 47 46  1  0  0  0  0
 48 51  1  0  0  0  0
 48 55  1  0  0  0  0
 49 53  1  1  0  0  0
 49 56  1  0  0  0  0
 51 55  1  0  0  0  0
 51 54  1  1  0  0  0
 52 50  1  0  0  0  0
 55 47  1  6  0  0  0
 55 49  1  0  0  0  0
 56 50  1  0  0  0  0
 57 54  1  6  0  0  0
 57 53  1  0  0  0  0
 57 52  1  0  0  0  0
M  END
>  <MODEL>
6

>  <REMARK>
 VINA RESULT:      -7.5      2.199      7.768
  Name = 
  17 active torsions:
  status: ('A' for Active; 'I' for Inactive)
    1  A    between atoms: C_3  and  C_50
    2  A    between atoms: C_4  and  N_28
    3  A    between atoms: C_4  and  C_38
    4  A    between atoms: C_8  and  C_51
    5  A    between atoms: C_9  and  C_11
    6  A    between atoms: C_9  and  C_26
    7  A    between atoms: C_9  and  O_54
    8  A    between atoms: C_11  and  C_40
    9  A    between atoms: C_15  and  C_23
   10  A    between atoms: C_19  and  C_33
   11  A    between atoms: C_21  and  O_53
   12  A    between atoms: C_23  and  C_29
   13  A    between atoms: C_26  and  C_49
   14  A    between atoms: C_27  and  O_54
   15  A    between atoms: N_28  and  C_49
   16  A    between atoms: C_29  and  O_53
   17  A    between atoms: C_33  and  C_40
                            x       y       z     vdW  Elec       q    Type
                         _______ _______ _______ _____ _____    ______ ____

>  <TORSDO>
F 17

$$$$
=
 OpenBabel11062416433D

 57 64  0  0  1  0  0  0  0  0999 V2000
  188.7120  176.9330  144.1570 C   0  0  2  0  0  3  0  0  0  0  0  0
  189.0510  178.3360  148.0620 O   0  0  0  0  0  0  0  0  0  0  0  0
  191.1890  176.3040  144.2200 C   0  0  2  0  0  0  0  0  0  0  0  0
  188.9620  178.3150  143.5450 C   0  0  0  0  0  2  0  0  0  0  0  0
  191.2820  177.4560  146.7970 O   0  0  0  0  0  1  0  0  0  0  0  0
  190.8110  177.3460  142.0060 C   0  0  1  0  0  3  0  0  0  0  0  0
  188.9190  177.8530  146.9060 C   0  0  0  0  0  0  0  0  0  0  0  0
  187.4700  176.9340  145.0530 C   0  0  1  0  0  3  0  0  0  0  0  0
  191.6980  177.3630  143.2520 C   0  0  0  0  0  2  0  0  0  0  0  0
  189.8980  176.4890  145.0270 C   0  0  1  0  0  3  0  0  0  0  0  0
  190.0700  177.3590  146.2000 N   0  0  0  0  0  0  0  0  0  0  0  0
  187.5620  177.8780  146.2660 C   0  0  0  0  0  2  0  0  0  0  0  0
  192.2100  175.6320  144.9090 O   0  0  0  0  0  0  0  0  0  0  0  0
  189.5730  178.2430  142.1430 C   0  0  0  0  0  2  0  0  0  0  0  0
  191.5410  174.9120  143.8990 C   0  0  0  0  0  2  0  0  0  0  0  0
  191.5780  177.7180  140.7350 C   0  0  1  0  0  3  0  0  0  0  0  0
  192.8360  177.1110  140.6960 O   0  0  0  0  0  1  0  0  0  0  0  0
  190.7740  177.3370  139.4910 C   0  0  0  0  0  2  0  0  0  0  0  0
  191.6040  176.7870  138.4670 O   0  0  0  0  0  0  0  0  0  0  0  0
  192.3150  174.7910  137.1680 C   0  0  0  0  0  0  0  0  0  0  0  0
  189.9690  175.2610  137.6320 C   0  0  0  0  0  3  0  0  0  0  0  0
  191.3160  175.6120  137.7590 C   0  0  0  0  0  0  0  0  0  0  0  0
  191.9100  173.6680  136.4010 C   0  0  0  0  0  0  0  0  0  0  0  0
  190.5530  173.3550  136.2770 C   0  0  0  0  0  3  0  0  0  0  0  0
  192.8870  172.7490  135.7480 C   0  0  0  0  0  1  0  0  0  0  0  0
  189.5840  174.1370  136.9030 C   0  0  0  0  0  0  0  0  0  0  0  0
  194.4480  175.9620  136.6270 O   0  0  0  0  0  0  0  0  0  0  0  0
  193.7520  175.0510  137.4120 C   0  0  0  0  0  0  0  0  0  0  0  0
  194.3600  174.4320  138.3240 O   0  0  0  0  0  1  0  0  0  0  0  0
  188.1380  173.8050  136.7510 C   0  0  0  0  0  2  0  0  0  0  0  0
  187.9390  172.3000  136.8280 C   0  0  0  0  0  1  0  0  0  0  0  0
  186.2440  176.9690  144.3490 O   0  0  0  0  0  0  0  0  0  0  0  0
  186.1410  178.1700  143.6200 C   0  0  2  0  0  3  0  0  0  0  0  0
  185.2260  179.1570  144.3620 C   0  0  1  0  0  3  0  0  0  0  0  0
  185.2580  180.4210  143.7950 F   0  0  0  0  0  0  0  0  0  0  0  0
  183.3620  178.9890  145.8440 O   0  0  0  0  0  1  0  0  0  0  0  0
  183.7970  178.6520  144.5610 C   0  0  1  0  0  3  0  0  0  0  0  0
  182.8400  179.2260  143.5250 C   0  0  0  0  0  2  0  0  0  0  0  0
  179.2250  178.3150  143.8050 F   0  0  0  0  0  0  0  0  0  0  0  0
  180.6150  180.0580  143.2200 O   0  0  0  0  0  0  0  0  0  0  0  0
  181.4390  179.3260  144.1050 C   0  0  1  0  0  3  0  0  0  0  0  0
  180.4360  178.6640  143.2390 C   0  0  0  0  0  0  0  0  0  0  0  0
  180.8190  178.0820  142.0470 F   0  0  0  0  0  0  0  0  0  0  0  0
  185.6540  177.8750  142.2050 C   0  0  0  0  0  2  0  0  0  0  0  0
  186.0380  179.0060  141.2660 C   0  0  0  0  0  2  0  0  0  0  0  0
  184.8480  179.5160  140.6030 N   0  0  0  0  0  2  0  0  0  0  0  0
  184.7030  178.8030  139.3420 C   0  0  0  0  0  2  0  0  0  0  0  0
  182.3950  179.4330  139.6060 O   0  0  0  0  0  0  0  0  0  0  0  0
  182.7560  176.9970  139.4300 C   0  0  2  0  0  3  0  0  0  0  0  0
  182.5510  175.4490  137.4560 N   0  0  0  0  0  2  0  0  0  0  0  0
  182.4610  179.3230  138.1960 C   0  0  2  0  0  3  0  0  0  0  0  0
  181.8110  176.5420  136.8170 C   0  0  0  0  0  2  0  0  0  0  0  0
  181.2390  176.8810  139.2680 C   0  0  0  0  0  2  0  0  0  0  0  0
  181.1050  178.7860  137.6840 C   0  0  0  0  0  2  0  0  0  0  0  0
  183.2450  178.4300  139.1080 C   0  0  2  0  0  0  0  0  0  0  0  0
  183.4500  175.9880  138.4890 C   0  0  0  0  0  2  0  0  0  0  0  0
  180.9090  177.2750  137.8270 C   0  0  1  0  0  3  0  0  0  0  0  0
  1  4  1  1  0  0  0
  1 10  1  0  0  0  0
  1  8  1  0  0  0  0
  3  9  1  6  0  0  0
  3 13  1  0  0  0  0
  3 10  1  0  0  0  0
  6 16  1  6  0  0  0
  6 14  1  0  0  0  0
  6  9  1  0  0  0  0
  7  2  2  0  0  0  0
  8 32  1  6  0  0  0
  8 12  1  0  0  0  0
 10 11  1  1  0  0  0
 11  5  1  0  0  0  0
 11  7  1  0  0  0  0
 12  7  1  0  0  0  0
 14  4  1  0  0  0  0
 15  3  1  0  0  0  0
 15 13  1  0  0  0  0
 16 17  1  6  0  0  0
 18 16  1  0  0  0  0
 19 18  1  0  0  0  0
 20 28  1  0  0  0  0
 20 22  1  0  0  0  0
 21 22  2  0  0  0  0
 22 19  1  0  0  0  0
 23 20  2  0  0  0  0
 24 23  1  0  0  0  0
 24 26  2  0  0  0  0
 25 23  1  0  0  0  0
 26 21  1  0  0  0  0
 27 28  2  0  0  0  0
 28 29  1  0  0  0  0
 30 31  1  0  0  0  0
 30 26  1  0  0  0  0
 33 44  1  6  0  0  0
 33 32  1  0  0  0  0
 33 34  1  0  0  0  0
 34 35  1  6  0  0  0
 34 37  1  0  0  0  0
 37 36  1  1  0  0  0
 38 37  1  0  0  0  0
 40 42  1  0  0  0  0
 40 41  1  0  0  0  0
 41 38  1  6  0  0  0
 42 39  1  0  0  0  0
 42 41  1  0  0  0  0
 43 42  1  0  0  0  0
 45 44  1  0  0  0  0
 46 45  1  0  0  0  0
 47 46  1  0  0  0  0
 49 56  1  6  0  0  0
 50 56  1  0  0  0  0
 51 54  1  1  0  0  0
 51 55  1  0  0  0  0
 51 48  1  0  0  0  0
 52 50  1  0  0  0  0
 53 49  1  0  0  0  0
 54 57  1  0  0  0  0
 55 47  1  1  0  0  0
 55 49  1  0  0  0  0
 55 48  1  0  0  0  0
 57 52  1  6  0  0  0
 57 53  1  0  0  0  0
M  END
>  <MODEL>
7

>  <REMARK>
 VINA RESULT:      -7.3      1.753      2.749
  Name = 
  17 active torsions:
  status: ('A' for Active; 'I' for Inactive)
    1  A    between atoms: C_3  and  C_50
    2  A    between atoms: C_4  and  N_28
    3  A    between atoms: C_4  and  C_38
    4  A    between atoms: C_8  and  C_51
    5  A    between atoms: C_9  and  C_11
    6  A    between atoms: C_9  and  C_26
    7  A    between atoms: C_9  and  O_54
    8  A    between atoms: C_11  and  C_40
    9  A    between atoms: C_15  and  C_23
   10  A    between atoms: C_19  and  C_33
   11  A    between atoms: C_21  and  O_53
   12  A    between atoms: C_23  and  C_29
   13  A    between atoms: C_26  and  C_49
   14  A    between atoms: C_27  and  O_54
   15  A    between atoms: N_28  and  C_49
   16  A    between atoms: C_29  and  O_53
   17  A    between atoms: C_33  and  C_40
                            x       y       z     vdW  Elec       q    Type
                         _______ _______ _______ _____ _____    ______ ____

>  <TORSDO>
F 17

$$$$
=
 OpenBabel11062416433D

 57 64  0  0  1  0  0  0  0  0999 V2000
  187.5120  176.8660  137.7530 C   0  0  2  0  0  3  0  0  0  0  0  0
  190.2210  176.1440  134.6750 O   0  0  0  0  0  0  0  0  0  0  0  0
  185.9370  175.1470  136.7040 C   0  0  2  0  0  0  0  0  0  0  0  0
  186.8750  178.0580  137.0320 C   0  0  0  0  0  2  0  0  0  0  0  0
  187.8090  174.9080  134.6030 O   0  0  0  0  0  1  0  0  0  0  0  0
  184.5080  177.0540  137.3740 C   0  0  1  0  0  3  0  0  0  0  0  0
  189.4410  176.3210  135.6480 C   0  0  0  0  0  0  0  0  0  0  0  0
  189.0040  177.0990  138.0100 C   0  0  1  0  0  3  0  0  0  0  0  0
  184.8640  176.1140  136.2230 C   0  0  0  0  0  2  0  0  0  0  0  0
  187.3920  175.5830  136.9160 C   0  0  1  0  0  3  0  0  0  0  0  0
  188.1560  175.6750  135.6630 N   0  0  0  0  0  0  0  0  0  0  0  0
  189.8500  177.2710  136.7350 C   0  0  0  0  0  2  0  0  0  0  0  0
  185.7910  173.8460  136.2010 O   0  0  0  0  0  0  0  0  0  0  0  0
  185.4170  178.2890  137.4390 C   0  0  0  0  0  2  0  0  0  0  0  0
  185.4760  174.0430  137.5600 C   0  0  0  0  0  2  0  0  0  0  0  0
  183.0430  177.4950  137.3410 C   0  0  1  0  0  3  0  0  0  0  0  0
  182.1750  176.4000  137.3670 O   0  0  0  0  0  1  0  0  0  0  0  0
  182.7370  178.4350  138.5080 C   0  0  0  0  0  2  0  0  0  0  0  0
  182.1470  177.7430  139.6090 O   0  0  0  0  0  0  0  0  0  0  0  0
  181.1590  178.4420  141.7800 C   0  0  0  0  0  0  0  0  0  0  0  0
  183.5670  178.2350  141.4640 C   0  0  0  0  0  3  0  0  0  0  0  0
  182.2710  178.1350  140.9500 C   0  0  0  0  0  0  0  0  0  0  0  0
  181.4000  178.9100  143.0980 C   0  0  0  0  0  0  0  0  0  0  0  0
  182.7090  179.0180  143.5770 C   0  0  0  0  0  3  0  0  0  0  0  0
  180.2950  179.2520  144.0410 C   0  0  0  0  0  1  0  0  0  0  0  0
  183.7900  178.6660  142.7720 C   0  0  0  0  0  0  0  0  0  0  0  0
  179.1250  179.1360  140.5180 O   0  0  0  0  0  0  0  0  0  0  0  0
  179.7750  178.2010  141.3140 C   0  0  0  0  0  0  0  0  0  0  0  0
  179.1680  177.1500  141.6500 O   0  0  0  0  0  1  0  0  0  0  0  0
  185.1830  178.8000  143.2850 C   0  0  0  0  0  2  0  0  0  0  0  0
  185.1730  178.8810  144.8030 C   0  0  0  0  0  1  0  0  0  0  0  0
  189.2780  178.0200  139.0490 O   0  0  0  0  0  0  0  0  0  0  0  0
  190.0140  177.3890  140.0700 C   0  0  2  0  0  3  0  0  0  0  0  0
  189.4560  177.7940  141.4440 C   0  0  1  0  0  3  0  0  0  0  0  0
  188.3880  178.6700  141.3330 F   0  0  0  0  0  0  0  0  0  0  0  0
  190.1320  175.6410  142.2230 O   0  0  0  0  0  1  0  0  0  0  0  0
  189.1390  176.6120  142.3600 C   0  0  1  0  0  3  0  0  0  0  0  0
  189.0290  177.0340  143.8190 C   0  0  0  0  0  2  0  0  0  0  0  0
  192.1640  178.9740  144.4470 F   0  0  0  0  0  0  0  0  0  0  0  0
  190.1620  178.3960  145.4320 O   0  0  0  0  0  0  0  0  0  0  0  0
  189.8380  178.2990  144.0600 C   0  0  1  0  0  3  0  0  0  0  0  0
  191.1960  177.9960  144.5690 C   0  0  0  0  0  0  0  0  0  0  0  0
  191.5780  176.6890  144.7990 F   0  0  0  0  0  0  0  0  0  0  0  0
  191.4950  177.7190  139.9210 C   0  0  0  0  0  2  0  0  0  0  0  0
  192.2950  176.4570  139.6480 C   0  0  0  0  0  2  0  0  0  0  0  0
  193.3530  176.7460  138.6930 N   0  0  0  0  0  2  0  0  0  0  0  0
  192.8830  176.3440  137.3750 C   0  0  0  0  0  2  0  0  0  0  0  0
  193.5760  175.2480  135.3470 O   0  0  0  0  0  0  0  0  0  0  0  0
  194.3570  174.1340  137.4060 C   0  0  2  0  0  3  0  0  0  0  0  0
  196.5710  174.2620  138.5980 N   0  0  0  0  0  2  0  0  0  0  0  0
  194.7210  176.0410  135.6030 C   0  0  2  0  0  3  0  0  0  0  0  0
  197.0810  174.8520  137.3560 C   0  0  0  0  0  2  0  0  0  0  0  0
  195.2620  173.3010  136.4970 C   0  0  0  0  0  2  0  0  0  0  0  0
  195.9710  175.2560  135.1450 C   0  0  0  0  0  2  0  0  0  0  0  0
  193.9030  175.4350  136.7010 C   0  0  2  0  0  0  0  0  0  0  0  0
  195.1200  174.4860  138.7030 C   0  0  0  0  0  2  0  0  0  0  0  0
  196.4560  174.1800  136.1190 C   0  0  1  0  0  3  0  0  0  0  0  0
  1  4  1  6  0  0  0
  1  8  1  0  0  0  0
  2  7  2  0  0  0  0
  3  9  1  6  0  0  0
  3 10  1  0  0  0  0
  3 15  1  0  0  0  0
  4 14  1  0  0  0  0
  5 11  1  0  0  0  0
  6 16  1  6  0  0  0
  6 14  1  0  0  0  0
  7 11  1  0  0  0  0
  7 12  1  0  0  0  0
  8 32  1  1  0  0  0
  9  6  1  0  0  0  0
 10 11  1  6  0  0  0
 10  1  1  0  0  0  0
 12  8  1  0  0  0  0
 13  3  1  0  0  0  0
 13 15  1  0  0  0  0
 16 17  1  1  0  0  0
 16 18  1  0  0  0  0
 18 19  1  0  0  0  0
 19 22  1  0  0  0  0
 20 23  1  0  0  0  0
 21 26  2  0  0  0  0
 22 21  1  0  0  0  0
 22 20  2  0  0  0  0
 23 24  2  0  0  0  0
 23 25  1  0  0  0  0
 26 30  1  0  0  0  0
 26 24  1  0  0  0  0
 27 28  2  0  0  0  0
 28 29  1  0  0  0  0
 28 20  1  0  0  0  0
 30 31  1  0  0  0  0
 32 33  1  0  0  0  0
 33 44  1  1  0  0  0
 33 34  1  0  0  0  0
 34 35  1  6  0  0  0
 34 37  1  0  0  0  0
 37 36  1  1  0  0  0
 37 38  1  0  0  0  0
 39 42  1  0  0  0  0
 41 38  1  1  0  0  0
 41 42  1  0  0  0  0
 41 40  1  0  0  0  0
 42 43  1  0  0  0  0
 42 40  1  0  0  0  0
 45 44  1  0  0  0  0
 46 45  1  0  0  0  0
 47 46  1  0  0  0  0
 48 51  1  0  0  0  0
 48 55  1  0  0  0  0
 49 53  1  6  0  0  0
 49 56  1  0  0  0  0
 50 56  1  0  0  0  0
 51 54  1  6  0  0  0
 51 55  1  0  0  0  0
 52 50  1  0  0  0  0
 55 47  1  1  0  0  0
 55 49  1  0  0  0  0
 57 54  1  6  0  0  0
 57 53  1  0  0  0  0
 57 52  1  0  0  0  0
M  END
>  <MODEL>
8

>  <REMARK>
 VINA RESULT:      -7.2      3.743     10.328
  Name = 
  17 active torsions:
  status: ('A' for Active; 'I' for Inactive)
    1  A    between atoms: C_3  and  C_50
    2  A    between atoms: C_4  and  N_28
    3  A    between atoms: C_4  and  C_38
    4  A    between atoms: C_8  and  C_51
    5  A    between atoms: C_9  and  C_11
    6  A    between atoms: C_9  and  C_26
    7  A    between atoms: C_9  and  O_54
    8  A    between atoms: C_11  and  C_40
    9  A    between atoms: C_15  and  C_23
   10  A    between atoms: C_19  and  C_33
   11  A    between atoms: C_21  and  O_53
   12  A    between atoms: C_23  and  C_29
   13  A    between atoms: C_26  and  C_49
   14  A    between atoms: C_27  and  O_54
   15  A    between atoms: N_28  and  C_49
   16  A    between atoms: C_29  and  O_53
   17  A    between atoms: C_33  and  C_40
                            x       y       z     vdW  Elec       q    Type
                         _______ _______ _______ _____ _____    ______ ____

>  <TORSDO>
F 17

$$$$
=
 OpenBabel11062416433D

 57 64  0  0  1  0  0  0  0  0999 V2000
  187.1070  175.3850  136.4370 C   0  0  2  0  0  3  0  0  0  0  0  0
  189.8890  172.5630  135.1600 O   0  0  0  0  0  0  0  0  0  0  0  0
  185.3250  173.5520  136.4430 C   0  0  2  0  0  0  0  0  0  0  0  0
  186.7890  175.8470  135.0120 C   0  0  0  0  0  2  0  0  0  0  0  0
  187.2960  171.8120  135.4130 O   0  0  0  0  0  1  0  0  0  0  0  0
  184.2480  175.5400  135.4330 C   0  0  1  0  0  3  0  0  0  0  0  0
  189.0740  173.4110  135.6110 C   0  0  0  0  0  0  0  0  0  0  0  0
  188.5850  175.5960  136.7780 C   0  0  1  0  0  3  0  0  0  0  0  0
  184.5140  174.0450  135.2520 C   0  0  0  0  0  2  0  0  0  0  0  0
  186.8110  173.8870  136.6140 C   0  0  1  0  0  3  0  0  0  0  0  0
  187.6900  173.0560  135.7780 N   0  0  0  0  0  0  0  0  0  0  0  0
  189.5620  174.8010  135.8920 C   0  0  0  0  0  2  0  0  0  0  0  0
  184.9690  172.2650  136.8730 O   0  0  0  0  0  0  0  0  0  0  0  0
  185.3750  176.4180  134.8730 C   0  0  0  0  0  2  0  0  0  0  0  0
  184.5760  173.3420  137.6930 C   0  0  0  0  0  2  0  0  0  0  0  0
  182.9100  175.9750  134.8330 C   0  0  1  0  0  3  0  0  0  0  0  0
  181.9070  175.0320  135.0720 O   0  0  0  0  0  1  0  0  0  0  0  0
  182.4900  177.3380  135.3850 C   0  0  0  0  0  2  0  0  0  0  0  0
  181.4850  177.2180  136.3930 O   0  0  0  0  0  0  0  0  0  0  0  0
  181.1770  177.6510  138.8210 C   0  0  0  0  0  0  0  0  0  0  0  0
  181.3620  179.4610  137.2000 C   0  0  0  0  0  3  0  0  0  0  0  0
  181.3450  178.0930  137.4810 C   0  0  0  0  0  0  0  0  0  0  0  0
  180.9610  178.6180  139.8360 C   0  0  0  0  0  0  0  0  0  0  0  0
  180.9630  179.9800  139.5210 C   0  0  0  0  0  3  0  0  0  0  0  0
  180.7780  178.2480  141.2700 C   0  0  0  0  0  1  0  0  0  0  0  0
  181.1800  180.4050  138.2110 C   0  0  0  0  0  0  0  0  0  0  0  0
  180.2150  175.3650  139.0670 O   0  0  0  0  0  0  0  0  0  0  0  0
  181.3070  176.2180  139.1700 C   0  0  0  0  0  0  0  0  0  0  0  0
  182.4070  175.7630  139.5790 O   0  0  0  0  0  1  0  0  0  0  0  0
  181.1650  181.8580  137.8810 C   0  0  0  0  0  2  0  0  0  0  0  0
  180.4520  182.0830  136.5570 C   0  0  0  0  0  1  0  0  0  0  0  0
  188.9410  176.9450  137.0140 O   0  0  0  0  0  0  0  0  0  0  0  0
  188.4190  177.3710  138.2500 C   0  0  2  0  0  3  0  0  0  0  0  0
  187.5740  178.6400  138.0530 C   0  0  1  0  0  3  0  0  0  0  0  0
  187.5380  179.0390  136.7260 F   0  0  0  0  0  0  0  0  0  0  0  0
  185.4770  177.4990  138.0830 O   0  0  0  0  0  1  0  0  0  0  0  0
  186.1750  178.5570  138.6660 C   0  0  1  0  0  3  0  0  0  0  0  0
  186.2270  178.3710  140.1770 C   0  0  0  0  0  2  0  0  0  0  0  0
  184.0900  179.4170  143.0610 F   0  0  0  0  0  0  0  0  0  0  0  0
  184.1230  177.9850  141.2550 O   0  0  0  0  0  0  0  0  0  0  0  0
  185.0050  179.0020  140.8240 C   0  0  1  0  0  3  0  0  0  0  0  0
  184.8800  178.6250  142.2510 C   0  0  0  0  0  0  0  0  0  0  0  0
  185.7960  177.7670  142.8280 F   0  0  0  0  0  0  0  0  0  0  0  0
  189.5540  177.5770  139.2480 C   0  0  0  0  0  2  0  0  0  0  0  0
  189.4450  176.5780  140.3880 C   0  0  0  0  0  2  0  0  0  0  0  0
  190.5270  176.7970  141.3350 N   0  0  0  0  0  2  0  0  0  0  0  0
  190.2360  176.0170  142.5290 C   0  0  0  0  0  2  0  0  0  0  0  0
  188.7520  177.7730  143.2420 O   0  0  0  0  0  0  0  0  0  0  0  0
  190.8560  177.6540  144.5270 C   0  0  2  0  0  3  0  0  0  0  0  0
  191.3580  176.5920  146.7540 N   0  0  0  0  0  2  0  0  0  0  0  0
  188.3910  176.7570  144.1590 C   0  0  2  0  0  3  0  0  0  0  0  0
  189.9030  176.5560  146.9390 C   0  0  0  0  0  2  0  0  0  0  0  0
  190.2010  178.6310  145.5060 C   0  0  0  0  0  2  0  0  0  0  0  0
  188.0350  177.4210  145.5090 C   0  0  0  0  0  2  0  0  0  0  0  0
  189.7940  176.9300  143.6660 C   0  0  2  0  0  0  0  0  0  0  0  0
  191.6810  176.6150  145.3170 C   0  0  0  0  0  2  0  0  0  0  0  0
  189.2340  177.8210  146.3720 C   0  0  1  0  0  3  0  0  0  0  0  0
  1  4  1  6  0  0  0
  1 10  1  0  0  0  0
  1  8  1  0  0  0  0
  2  7  2  0  0  0  0
  3  9  1  6  0  0  0
  3 10  1  0  0  0  0
  3 13  1  0  0  0  0
  3 15  1  0  0  0  0
  5 11  1  0  0  0  0
  6 16  1  6  0  0  0
  7 11  1  0  0  0  0
  7 12  1  0  0  0  0
  8 32  1  6  0  0  0
  9  6  1  0  0  0  0
 10 11  1  6  0  0  0
 12  8  1  0  0  0  0
 13 15  1  0  0  0  0
 14  4  1  0  0  0  0
 14  6  1  0  0  0  0
 16 17  1  1  0  0  0
 16 18  1  0  0  0  0
 18 19  1  0  0  0  0
 19 22  1  0  0  0  0
 20 28  1  0  0  0  0
 20 23  1  0  0  0  0
 21 22  1  0  0  0  0
 21 26  2  0  0  0  0
 22 20  2  0  0  0  0
 23 25  1  0  0  0  0
 24 23  2  0  0  0  0
 26 24  1  0  0  0  0
 27 28  2  0  0  0  0
 28 29  1  0  0  0  0
 30 26  1  0  0  0  0
 31 30  1  0  0  0  0
 32 33  1  0  0  0  0
 33 44  1  1  0  0  0
 34 35  1  6  0  0  0
 34 33  1  0  0  0  0
 34 37  1  0  0  0  0
 37 36  1  6  0  0  0
 37 38  1  0  0  0  0
 40 42  1  0  0  0  0
 41 38  1  6  0  0  0
 41 40  1  0  0  0  0
 41 42  1  0  0  0  0
 42 43  1  0  0  0  0
 42 39  1  0  0  0  0
 44 45  1  0  0  0  0
 45 46  1  0  0  0  0
 46 47  1  0  0  0  0
 48 55  1  0  0  0  0
 48 51  1  0  0  0  0
 49 56  1  1  0  0  0
 49 53  1  0  0  0  0
 50 52  1  0  0  0  0
 51 54  1  1  0  0  0
 54 57  1  0  0  0  0
 55 47  1  6  0  0  0
 55 51  1  0  0  0  0
 55 49  1  0  0  0  0
 56 50  1  0  0  0  0
 57 53  1  6  0  0  0
 57 52  1  0  0  0  0
M  END
>  <MODEL>
9

>  <REMARK>
 VINA RESULT:      -7.2      2.973      9.280
  Name = 
  17 active torsions:
  status: ('A' for Active; 'I' for Inactive)
    1  A    between atoms: C_3  and  C_50
    2  A    between atoms: C_4  and  N_28
    3  A    between atoms: C_4  and  C_38
    4  A    between atoms: C_8  and  C_51
    5  A    between atoms: C_9  and  C_11
    6  A    between atoms: C_9  and  C_26
    7  A    between atoms: C_9  and  O_54
    8  A    between atoms: C_11  and  C_40
    9  A    between atoms: C_15  and  C_23
   10  A    between atoms: C_19  and  C_33
   11  A    between atoms: C_21  and  O_53
   12  A    between atoms: C_23  and  C_29
   13  A    between atoms: C_26  and  C_49
   14  A    between atoms: C_27  and  O_54
   15  A    between atoms: N_28  and  C_49
   16  A    between atoms: C_29  and  O_53
   17  A    between atoms: C_33  and  C_40
                            x       y       z     vdW  Elec       q    Type
                         _______ _______ _______ _____ _____    ______ ____

>  <TORSDO>
F 17

$$$$
