=
 OpenBabel11062415103D

 55 60  0  0  1  0  0  0  0  0999 V2000
  189.1950  176.2200  144.5450 O   0  0  0  0  0  0  0  0  0  0  0  0
  188.1530  177.5130  144.9010 P   0  0  2  0  0  0  0  0  0  0  0  0
  188.6580  178.7770  144.2350 O   0  0  0  0  0  0  0  0  0  0  0  0
  188.0950  177.7480  146.5750 O   0  0  0  0  0  1  0  0  0  0  0  0
  186.5950  177.1080  144.3350 O   0  0  0  0  0  0  0  0  0  0  0  0
  185.9420  179.8400  141.9950 O   0  0  0  0  0  1  0  0  0  0  0  0
  186.0590  178.4840  142.3220 C   0  0  1  0  0  3  0  0  0  0  0  0
  185.9980  178.2740  143.8300 C   0  0  1  0  0  0  0  0  0  0  0  0
  184.7910  177.9280  142.9830 C   0  0  1  0  0  3  0  0  0  0  0  0
  184.1930  179.7980  144.5210 C   0  0  1  0  0  3  0  0  0  0  0  0
  184.5210  178.9470  145.7380 C   0  0  0  0  0  2  0  0  0  0  0  0
  185.6290  179.3960  144.8050 C   0  0  1  0  0  3  0  0  0  0  0  0
  183.7320  178.9710  143.3180 C   0  0  2  0  0  3  0  0  0  0  0  0
  182.3900  178.2940  143.5720 C   0  0  0  0  0  2  0  0  0  0  0  0
  180.2740  180.4920  142.8510 O   0  0  0  0  0  1  0  0  0  0  0  0
  181.4720  178.4330  142.3670 C   0  0  2  0  0  3  0  0  0  0  0  0
  179.1730  179.1280  140.4390 C   0  0  0  0  0  2  0  0  0  0  0  0
  182.1980  179.1530  141.2200 C   0  0  0  0  0  2  0  0  0  0  0  0
  180.2820  178.4890  139.8710 O   0  0  0  0  0  0  0  0  0  0  0  0
  178.9900  178.6830  141.8880 C   0  0  0  0  0  2  0  0  0  0  0  0
  180.1570  179.1000  142.7870 C   0  0  2  0  0  3  0  0  0  0  0  0
  181.3260  179.4160  139.9870 C   0  0  2  0  0  3  0  0  0  0  0  0
  181.5890  179.5190  137.6290 O   0  0  0  0  0  0  0  0  0  0  0  0
  182.1620  179.4190  138.7460 C   0  0  0  0  0  0  0  0  0  0  0  0
  184.3200  180.3530  139.0190 O   0  0  0  0  0  0  0  0  0  0  0  0
  183.6300  179.3170  138.8090 C   0  0  0  0  0  0  0  0  0  0  0  0
  184.2510  178.0770  138.6390 O   0  0  0  0  0  0  0  0  0  0  0  0
  183.5070  176.8760  138.5080 C   0  0  0  0  0  1  0  0  0  0  0  0
  190.1960  176.7440  143.7220 C   0  0  0  0  0  2  0  0  0  0  0  0
  189.9770  176.3050  142.2810 C   0  0  1  0  0  3  0  0  0  0  0  0
  188.6300  176.0630  142.0890 F   0  0  0  0  0  0  0  0  0  0  0  0
  190.4000  177.3110  141.3990 O   0  0  0  0  0  0  0  0  0  0  0  0
  189.6360  177.2390  140.2120 C   0  0  1  0  0  3  0  0  0  0  0  0
  187.9590  178.4870  139.0800 O   0  0  0  0  0  0  0  0  0  0  0  0
  188.9720  178.5070  139.7570 C   0  0  0  0  0  3  0  0  0  0  0  0
  190.0930  176.2420  139.1380 C   0  0  0  0  0  2  0  0  0  0  0  0
  189.0070  177.5240  134.6740 C   0  0  0  0  0  1  0  0  0  0  0  0
  189.6070  177.5820  136.0370 C   0  0  0  0  0  3  0  0  0  0  0  0
  192.5380  175.1240  137.3520 C   0  0  0  0  0  0  0  0  0  0  0  0
  190.2210  176.5680  136.6590 C   0  0  0  0  0  0  0  0  0  0  0  0
  192.2620  176.2810  137.9670 C   0  0  0  0  0  3  0  0  0  0  0  0
  190.8760  176.8570  137.9790 C   0  0  2  0  0  3  0  0  0  0  0  0
  191.4370  174.3650  136.6510 C   0  0  0  0  0  2  0  0  0  0  0  0
  190.4400  175.2670  136.0630 N   0  0  0  0  0  0  0  0  0  0  0  0
  193.8990  174.5660  137.3930 C   0  0  0  0  0  0  0  0  0  0  0  0
  194.0960  173.4270  137.9000 O   0  0  0  0  0  0  0  0  0  0  0  0
  194.9990  175.3090  136.8570 N   0  0  0  0  0  2  0  0  0  0  0  0
  196.9410  175.1410  138.1350 O   0  0  0  0  0  1  0  0  0  0  0  0
  197.1710  175.4770  135.7970 C   0  0  0  0  0  1  0  0  0  0  0  0
  196.3700  174.8240  136.9030 C   0  0  2  0  0  3  0  0  0  0  0  0
  189.5490  174.6980  135.0570 C   0  0  0  0  0  2  0  0  0  0  0  0
  187.6790  173.1930  134.7540 O   0  0  0  0  0  0  0  0  0  0  0  0
  188.4660  173.8530  135.7110 C   0  0  2  0  0  0  0  0  0  0  0  0
  187.6210  174.4080  136.8380 C   0  0  0  0  0  1  0  0  0  0  0  0
  188.5250  172.3890  135.5490 C   0  0  0  0  0  2  0  0  0  0  0  0
  1  2  1  0  0  0  0
  2  3  2  6  0  0  0
  2  4  1  0  0  0  0
  5  2  1  0  0  0  0
  7  6  1  1  0  0  0
  7  9  1  0  0  0  0
  7  8  1  0  0  0  0
  8  5  1  1  0  0  0
  8 12  1  0  0  0  0
  9 13  1  0  0  0  0
  9  8  1  0  0  0  0
 10 12  1  0  0  0  0
 10 11  1  0  0  0  0
 12 11  1  0  0  0  0
 13 14  1  0  0  0  0
 13 10  1  0  0  0  0
 16 21  1  0  0  0  0
 16 14  1  0  0  0  0
 17 20  1  0  0  0  0
 18 16  1  0  0  0  0
 19 22  1  0  0  0  0
 19 17  1  0  0  0  0
 20 21  1  0  0  0  0
 21 15  1  0  0  0  0
 22 18  1  0  0  0  0
 23 24  2  0  0  0  0
 24 26  1  0  0  0  0
 24 22  1  0  0  0  0
 26 25  2  0  0  0  0
 27 26  1  0  0  0  0
 28 27  1  0  0  0  0
 29  1  1  0  0  0  0
 30 29  1  0  0  0  0
 31 30  1  0  0  0  0
 32 30  1  0  0  0  0
 33 32  1  0  0  0  0
 34 35  2  0  0  0  0
 35 33  1  0  0  0  0
 36 33  1  0  0  0  0
 37 38  1  0  0  0  0
 38 40  2  0  0  0  0
 39 45  1  0  0  0  0
 39 41  2  0  0  0  0
 40 42  1  0  0  0  0
 41 42  1  0  0  0  0
 42 36  1  0  0  0  0
 43 39  1  0  0  0  0
 44 43  1  0  0  0  0
 44 40  1  0  0  0  0
 45 46  2  0  0  0  0
 47 50  1  0  0  0  0
 47 45  1  0  0  0  0
 49 50  1  0  0  0  0
 50 48  1  0  0  0  0
 51 53  1  0  0  0  0
 51 44  1  0  0  0  0
 52 55  1  0  0  0  0
 52 53  1  0  0  0  0
 53 54  1  0  0  0  0
 55 53  1  0  0  0  0
M  END
>  <MODEL>
1

>  <REMARK>
 VINA RESULT:      -6.9      0.000      0.000
  Name = 
  19 active torsions:
  status: ('A' for Active; 'I' for Inactive)
    1  A    between atoms: C_5  and  C_6
    2  A    between atoms: C_5  and  O_26
    3  A    between atoms: C_6  and  O_17
    4  A    between atoms: C_8  and  C_33
    5  A    between atoms: C_9  and  C_12
    6  A    between atoms: C_9  and  C_54
    7  A    between atoms: O_10  and  C_21
    8  A    between atoms: O_10  and  P_32
    9  A    between atoms: C_13  and  O_17
   10  A    between atoms: C_13  and  C_24
   11  A    between atoms: C_13  and  C_47
   12  A    between atoms: C_16  and  C_23
   13  A    between atoms: O_20  and  C_46
   14  A    between atoms: O_26  and  P_32
   15  A    between atoms: C_29  and  C_46
   16  A    between atoms: C_29  and  C_55
   17  A    between atoms: C_33  and  N_49
   18  A    between atoms: C_43  and  C_47
   19  A    between atoms: C_45  and  N_53
                            x       y       z     vdW  Elec       q    Type
                         _______ _______ _______ _____ _____    ______ ____

>  <TORSDO>
F 19

$$$$
=
 OpenBabel11062415103D

 55 60  0  0  1  0  0  0  0  0999 V2000
  184.1250  178.7750  145.4770 O   0  0  0  0  0  0  0  0  0  0  0  0
  185.7020  178.6290  146.0920 P   0  0  2  0  0  0  0  0  0  0  0  0
  185.9230  177.2210  146.6050 O   0  0  0  0  0  0  0  0  0  0  0  0
  185.9180  179.7280  147.3600 O   0  0  0  0  0  1  0  0  0  0  0  0
  186.7950  178.9970  144.8350 O   0  0  0  0  0  0  0  0  0  0  0  0
  187.1690  175.5100  143.8020 O   0  0  0  0  0  1  0  0  0  0  0  0
  186.6540  176.8020  143.6530 C   0  0  1  0  0  3  0  0  0  0  0  0
  187.4530  177.8120  144.4690 C   0  0  1  0  0  0  0  0  0  0  0  0
  187.6440  177.7530  142.9680 C   0  0  1  0  0  3  0  0  0  0  0  0
  189.7800  177.1070  144.0830 C   0  0  1  0  0  3  0  0  0  0  0  0
  189.8540  178.4500  144.7940 C   0  0  0  0  0  2  0  0  0  0  0  0
  188.7700  177.4540  145.1620 C   0  0  1  0  0  3  0  0  0  0  0  0
  189.0380  177.1780  142.7450 C   0  0  2  0  0  3  0  0  0  0  0  0
  189.7930  178.0130  141.7180 C   0  0  0  0  0  2  0  0  0  0  0  0
  189.0710  179.0300  138.8410 O   0  0  0  0  0  1  0  0  0  0  0  0
  189.8430  177.3070  140.3710 C   0  0  2  0  0  3  0  0  0  0  0  0
  189.3880  176.4060  137.4610 C   0  0  0  0  0  2  0  0  0  0  0  0
  191.2470  177.4240  139.7570 C   0  0  0  0  0  2  0  0  0  0  0  0
  190.4460  175.7890  138.1390 O   0  0  0  0  0  0  0  0  0  0  0  0
  188.2790  176.7810  138.4410 C   0  0  0  0  0  2  0  0  0  0  0  0
  188.7220  177.8280  139.4650 C   0  0  2  0  0  3  0  0  0  0  0  0
  191.3760  176.8140  138.3560 C   0  0  2  0  0  3  0  0  0  0  0  0
  193.6720  176.6440  138.9430 O   0  0  0  0  0  0  0  0  0  0  0  0
  192.7680  176.3120  138.1310 C   0  0  0  0  0  0  0  0  0  0  0  0
  193.3080  175.9450  135.8550 O   0  0  0  0  0  0  0  0  0  0  0  0
  193.0940  175.4380  136.9910 C   0  0  0  0  0  0  0  0  0  0  0  0
  193.1680  174.0540  137.1720 O   0  0  0  0  0  0  0  0  0  0  0  0
  194.4000  173.3930  137.4150 C   0  0  0  0  0  1  0  0  0  0  0  0
  184.2530  179.3730  144.2200 C   0  0  0  0  0  2  0  0  0  0  0  0
  183.4230  178.6200  143.1910 C   0  0  1  0  0  3  0  0  0  0  0  0
  182.2120  178.2740  143.7620 F   0  0  0  0  0  0  0  0  0  0  0  0
  183.1940  179.4290  142.0670 O   0  0  0  0  0  0  0  0  0  0  0  0
  183.6090  178.7400  140.9060 C   0  0  1  0  0  3  0  0  0  0  0  0
  185.7810  179.6910  141.0760 O   0  0  0  0  0  0  0  0  0  0  0  0
  185.0180  178.9830  140.4420 C   0  0  0  0  0  3  0  0  0  0  0  0
  182.9990  177.3540  140.6510 C   0  0  0  0  0  2  0  0  0  0  0  0
  179.9940  174.0640  138.9470 C   0  0  0  0  0  1  0  0  0  0  0  0
  180.4950  175.2180  139.7480 C   0  0  0  0  0  3  0  0  0  0  0  0
  181.5010  178.8140  138.1940 C   0  0  0  0  0  0  0  0  0  0  0  0
  181.2370  176.2280  139.2750 C   0  0  0  0  0  0  0  0  0  0  0  0
  181.2520  178.6580  139.5000 C   0  0  0  0  0  3  0  0  0  0  0  0
  181.5370  177.3650  140.2070 C   0  0  2  0  0  3  0  0  0  0  0  0
  182.0860  177.6720  137.3990 C   0  0  0  0  0  2  0  0  0  0  0  0
  181.6170  176.3700  137.8850 N   0  0  0  0  0  0  0  0  0  0  0  0
  181.2480  180.1080  137.5380 C   0  0  0  0  0  0  0  0  0  0  0  0
  180.8180  180.1370  136.3530 O   0  0  0  0  0  0  0  0  0  0  0  0
  181.4860  181.3320  138.2430 N   0  0  0  0  0  2  0  0  0  0  0  0
  182.2410  183.5330  138.1210 O   0  0  0  0  0  1  0  0  0  0  0  0
  179.9030  183.1470  137.9770 C   0  0  0  0  0  1  0  0  0  0  0  0
  181.2870  182.6380  137.6350 C   0  0  2  0  0  3  0  0  0  0  0  0
  181.7980  175.2300  136.9940 C   0  0  0  0  0  2  0  0  0  0  0  0
  184.0260  175.2140  137.9370 O   0  0  0  0  0  0  0  0  0  0  0  0
  183.2760  174.9390  136.7830 C   0  0  2  0  0  0  0  0  0  0  0  0
  183.9910  175.4050  135.5310 C   0  0  0  0  0  1  0  0  0  0  0  0
  183.8970  173.8570  137.5700 C   0  0  0  0  0  2  0  0  0  0  0  0
  1  2  1  0  0  0  0
  2  3  2  1  0  0  0
  2  4  1  0  0  0  0
  5  2  1  0  0  0  0
  7  6  1  1  0  0  0
  7  8  1  0  0  0  0
  8  5  1  1  0  0  0
  8 12  1  0  0  0  0
  9  7  1  0  0  0  0
  9  8  1  0  0  0  0
 10 11  1  0  0  0  0
 10 12  1  0  0  0  0
 11 12  1  0  0  0  0
 13  9  1  0  0  0  0
 13 10  1  0  0  0  0
 14 13  1  0  0  0  0
 15 21  1  0  0  0  0
 16 14  1  0  0  0  0
 17 19  1  0  0  0  0
 17 20  1  0  0  0  0
 18 16  1  0  0  0  0
 19 22  1  0  0  0  0
 20 21  1  0  0  0  0
 21 16  1  0  0  0  0
 22 18  1  0  0  0  0
 24 22  1  0  0  0  0
 24 23  2  0  0  0  0
 25 26  2  0  0  0  0
 26 27  1  0  0  0  0
 26 24  1  0  0  0  0
 27 28  1  0  0  0  0
 29  1  1  0  0  0  0
 30 31  1  0  0  0  0
 30 29  1  0  0  0  0
 32 30  1  0  0  0  0
 33 32  1  0  0  0  0
 35 33  1  0  0  0  0
 35 34  2  0  0  0  0
 36 33  1  0  0  0  0
 37 38  1  0  0  0  0
 39 41  2  0  0  0  0
 40 38  2  0  0  0  0
 40 42  1  0  0  0  0
 41 42  1  0  0  0  0
 42 36  1  0  0  0  0
 43 44  1  0  0  0  0
 43 39  1  0  0  0  0
 44 40  1  0  0  0  0
 45 39  1  0  0  0  0
 45 47  1  0  0  0  0
 46 45  2  0  0  0  0
 50 49  1  0  0  0  0
 50 48  1  0  0  0  0
 50 47  1  0  0  0  0
 51 44  1  0  0  0  0
 53 51  1  0  0  0  0
 53 55  1  0  0  0  0
 53 52  1  0  0  0  0
 54 53  1  0  0  0  0
 55 52  1  0  0  0  0
M  END
>  <MODEL>
2

>  <REMARK>
 VINA RESULT:      -6.3      3.275      9.238
  Name = 
  19 active torsions:
  status: ('A' for Active; 'I' for Inactive)
    1  A    between atoms: C_5  and  C_6
    2  A    between atoms: C_5  and  O_26
    3  A    between atoms: C_6  and  O_17
    4  A    between atoms: C_8  and  C_33
    5  A    between atoms: C_9  and  C_12
    6  A    between atoms: C_9  and  C_54
    7  A    between atoms: O_10  and  C_21
    8  A    between atoms: O_10  and  P_32
    9  A    between atoms: C_13  and  O_17
   10  A    between atoms: C_13  and  C_24
   11  A    between atoms: C_13  and  C_47
   12  A    between atoms: C_16  and  C_23
   13  A    between atoms: O_20  and  C_46
   14  A    between atoms: O_26  and  P_32
   15  A    between atoms: C_29  and  C_46
   16  A    between atoms: C_29  and  C_55
   17  A    between atoms: C_33  and  N_49
   18  A    between atoms: C_43  and  C_47
   19  A    between atoms: C_45  and  N_53
                            x       y       z     vdW  Elec       q    Type
                         _______ _______ _______ _____ _____    ______ ____

>  <TORSDO>
F 19

$$$$
=
 OpenBabel11062415103D

 55 60  0  0  1  0  0  0  0  0999 V2000
  188.6920  176.9990  137.3930 O   0  0  0  0  0  0  0  0  0  0  0  0
  190.1060  176.0570  137.3590 P   0  0  2  0  0  0  0  0  0  0  0  0
  191.2460  176.8650  136.7740 O   0  0  0  0  0  1  0  0  0  0  0  0
  189.8470  174.6830  136.4070 O   0  0  0  0  0  0  0  0  0  0  0  0
  190.4590  175.5760  138.9580 O   0  0  0  0  0  0  0  0  0  0  0  0
  189.0390  178.5210  140.5940 O   0  0  0  0  0  1  0  0  0  0  0  0
  189.0460  177.1590  140.2730 C   0  0  1  0  0  3  0  0  0  0  0  0
  190.4170  176.7160  139.7750 C   0  0  1  0  0  0  0  0  0  0  0  0
  189.9820  176.3480  141.1780 C   0  0  1  0  0  3  0  0  0  0  0  0
  191.9540  177.8690  141.3130 C   0  0  1  0  0  3  0  0  0  0  0  0
  192.8040  176.8940  140.5140 C   0  0  0  0  0  2  0  0  0  0  0  0
  191.6510  177.6200  139.8470 C   0  0  1  0  0  3  0  0  0  0  0  0
  190.8480  177.1800  142.1170 C   0  0  2  0  0  3  0  0  0  0  0  0
  191.4110  176.3020  143.2280 C   0  0  0  0  0  2  0  0  0  0  0  0
  191.6740  178.4830  145.4650 O   0  0  0  0  0  1  0  0  0  0  0  0
  190.6370  176.4970  144.5230 C   0  0  2  0  0  3  0  0  0  0  0  0
  189.7340  177.2560  147.3680 C   0  0  0  0  0  2  0  0  0  0  0  0
  189.3610  177.3140  144.2670 C   0  0  0  0  0  2  0  0  0  0  0  0
  188.7570  176.6890  146.5430 O   0  0  0  0  0  0  0  0  0  0  0  0
  191.1140  176.7090  147.0090 C   0  0  0  0  0  2  0  0  0  0  0  0
  191.5550  177.0960  145.5950 C   0  0  2  0  0  3  0  0  0  0  0  0
  188.5530  177.6360  145.5300 C   0  0  2  0  0  3  0  0  0  0  0  0
  186.6490  177.1270  144.2030 O   0  0  0  0  0  0  0  0  0  0  0  0
  187.0970  177.7470  145.2050 C   0  0  0  0  0  0  0  0  0  0  0  0
  186.2360  178.4630  147.2910 O   0  0  0  0  0  0  0  0  0  0  0  0
  186.1840  178.5540  146.0330 C   0  0  0  0  0  0  0  0  0  0  0  0
  185.2690  179.4170  145.4250 O   0  0  0  0  0  0  0  0  0  0  0  0
  183.9330  179.0240  145.1530 C   0  0  0  0  0  1  0  0  0  0  0  0
  187.6290  176.1080  137.2250 C   0  0  0  0  0  2  0  0  0  0  0  0
  186.8120  176.4880  135.9990 C   0  0  1  0  0  3  0  0  0  0  0  0
  185.8690  175.5030  135.7700 F   0  0  0  0  0  0  0  0  0  0  0  0
  186.1620  177.7140  136.2110 O   0  0  0  0  0  0  0  0  0  0  0  0
  185.5020  177.6790  137.4610 C   0  0  1  0  0  3  0  0  0  0  0  0
  185.4650  178.7110  139.6030 O   0  0  0  0  0  0  0  0  0  0  0  0
  185.8990  178.7250  138.4640 C   0  0  0  0  0  3  0  0  0  0  0  0
  184.0510  177.1800  137.4790 C   0  0  0  0  0  2  0  0  0  0  0  0
  183.9460  172.4330  137.0250 C   0  0  0  0  0  1  0  0  0  0  0  0
  184.2260  173.7740  137.6120 C   0  0  0  0  0  3  0  0  0  0  0  0
  181.3940  176.2690  139.0690 C   0  0  0  0  0  0  0  0  0  0  0  0
  183.3520  174.7860  137.6900 C   0  0  0  0  0  0  0  0  0  0  0  0
  182.6880  176.4130  139.3850 C   0  0  0  0  0  3  0  0  0  0  0  0
  183.7800  176.0180  138.4330 C   0  0  2  0  0  3  0  0  0  0  0  0
  181.0080  175.6990  137.7250 C   0  0  0  0  0  2  0  0  0  0  0  0
  181.9730  174.6980  137.2580 N   0  0  0  0  0  0  0  0  0  0  0  0
  180.3470  176.7030  140.0080 C   0  0  0  0  0  0  0  0  0  0  0  0
  179.1670  176.2800  139.8710 O   0  0  0  0  0  0  0  0  0  0  0  0
  180.6660  177.6010  141.0770 N   0  0  0  0  0  2  0  0  0  0  0  0
  178.9360  179.1230  141.4230 O   0  0  0  0  0  1  0  0  0  0  0  0
  180.3540  178.6120  143.2570 C   0  0  0  0  0  1  0  0  0  0  0  0
  179.6650  178.0910  142.0130 C   0  0  2  0  0  3  0  0  0  0  0  0
  181.5360  173.8150  136.1820 C   0  0  0  0  0  2  0  0  0  0  0  0
  179.1410  173.8110  136.5270 O   0  0  0  0  0  0  0  0  0  0  0  0
  180.3040  173.0260  136.5960 C   0  0  2  0  0  0  0  0  0  0  0  0
  180.3160  172.1590  137.8380 C   0  0  0  0  0  1  0  0  0  0  0  0
  179.2630  172.7680  135.5840 C   0  0  0  0  0  2  0  0  0  0  0  0
  2  4  2  6  0  0  0
  2  1  1  0  0  0  0
  2  5  1  0  0  0  0
  3  2  1  0  0  0  0
  7  6  1  1  0  0  0
  7  9  1  0  0  0  0
  8  5  1  6  0  0  0
  8 12  1  0  0  0  0
  8  7  1  0  0  0  0
  8  9  1  0  0  0  0
  9 13  1  0  0  0  0
 10 13  1  0  0  0  0
 11 10  1  0  0  0  0
 12 11  1  0  0  0  0
 12 10  1  0  0  0  0
 13 14  1  0  0  0  0
 14 16  1  0  0  0  0
 15 21  1  0  0  0  0
 16 21  1  0  0  0  0
 18 16  1  0  0  0  0
 18 22  1  0  0  0  0
 19 17  1  0  0  0  0
 20 17  1  0  0  0  0
 21 20  1  0  0  0  0
 22 19  1  0  0  0  0
 23 24  2  0  0  0  0
 24 22  1  0  0  0  0
 24 26  1  0  0  0  0
 26 25  2  0  0  0  0
 27 26  1  0  0  0  0
 28 27  1  0  0  0  0
 29  1  1  0  0  0  0
 30 32  1  0  0  0  0
 30 29  1  0  0  0  0
 31 30  1  0  0  0  0
 32 33  1  0  0  0  0
 33 36  1  0  0  0  0
 33 35  1  0  0  0  0
 35 34  2  0  0  0  0
 36 42  1  0  0  0  0
 37 38  1  0  0  0  0
 38 40  2  0  0  0  0
 39 41  2  0  0  0  0
 39 45  1  0  0  0  0
 40 42  1  0  0  0  0
 42 41  1  0  0  0  0
 43 39  1  0  0  0  0
 44 40  1  0  0  0  0
 44 43  1  0  0  0  0
 45 47  1  0  0  0  0
 46 45  2  0  0  0  0
 47 50  1  0  0  0  0
 48 50  1  0  0  0  0
 50 49  1  0  0  0  0
 51 53  1  0  0  0  0
 51 44  1  0  0  0  0
 52 53  1  0  0  0  0
 53 54  1  0  0  0  0
 55 52  1  0  0  0  0
 55 53  1  0  0  0  0
M  END
>  <MODEL>
3

>  <REMARK>
 VINA RESULT:      -6.2      3.695      9.629
  Name = 
  19 active torsions:
  status: ('A' for Active; 'I' for Inactive)
    1  A    between atoms: C_5  and  C_6
    2  A    between atoms: C_5  and  O_26
    3  A    between atoms: C_6  and  O_17
    4  A    between atoms: C_8  and  C_33
    5  A    between atoms: C_9  and  C_12
    6  A    between atoms: C_9  and  C_54
    7  A    between atoms: O_10  and  C_21
    8  A    between atoms: O_10  and  P_32
    9  A    between atoms: C_13  and  O_17
   10  A    between atoms: C_13  and  C_24
   11  A    between atoms: C_13  and  C_47
   12  A    between atoms: C_16  and  C_23
   13  A    between atoms: O_20  and  C_46
   14  A    between atoms: O_26  and  P_32
   15  A    between atoms: C_29  and  C_46
   16  A    between atoms: C_29  and  C_55
   17  A    between atoms: C_33  and  N_49
   18  A    between atoms: C_43  and  C_47
   19  A    between atoms: C_45  and  N_53
                            x       y       z     vdW  Elec       q    Type
                         _______ _______ _______ _____ _____    ______ ____

>  <TORSDO>
F 19

$$$$
=
 OpenBabel11062415103D

 55 60  0  0  1  0  0  0  0  0999 V2000
  190.6570  176.3620  144.0930 O   0  0  0  0  0  0  0  0  0  0  0  0
  190.7310  177.4440  145.4010 P   0  0  2  0  0  0  0  0  0  0  0  0
  192.0260  178.2280  145.3440 O   0  0  0  0  0  0  0  0  0  0  0  0
  190.6630  176.5800  146.8540 O   0  0  0  0  0  1  0  0  0  0  0  0
  189.3840  178.4860  145.3020 O   0  0  0  0  0  0  0  0  0  0  0  0
  186.8080  176.3560  146.7840 O   0  0  0  0  0  1  0  0  0  0  0  0
  187.5810  177.5220  146.7360 C   0  0  1  0  0  3  0  0  0  0  0  0
  188.2210  177.7020  145.3640 C   0  0  1  0  0  0  0  0  0  0  0  0
  187.0260  178.5520  145.7430 C   0  0  1  0  0  3  0  0  0  0  0  0
  186.4000  177.0840  143.8270 C   0  0  1  0  0  3  0  0  0  0  0  0
  187.5010  177.6840  142.9640 C   0  0  0  0  0  2  0  0  0  0  0  0
  187.8580  176.8240  144.1630 C   0  0  1  0  0  3  0  0  0  0  0  0
  185.8700  178.0580  144.8830 C   0  0  2  0  0  3  0  0  0  0  0  0
  185.1400  179.2400  144.2550 C   0  0  0  0  0  2  0  0  0  0  0  0
  182.3150  180.3970  143.5430 O   0  0  0  0  0  1  0  0  0  0  0  0
  184.0950  178.7680  143.2550 C   0  0  2  0  0  3  0  0  0  0  0  0
  181.4870  178.1830  141.7260 C   0  0  0  0  0  2  0  0  0  0  0  0
  184.3780  179.3580  141.8650 C   0  0  0  0  0  2  0  0  0  0  0  0
  182.6730  177.8010  141.0890 O   0  0  0  0  0  0  0  0  0  0  0  0
  181.6460  178.0930  143.2420 C   0  0  0  0  0  2  0  0  0  0  0  0
  182.6890  179.0720  143.7860 C   0  0  2  0  0  3  0  0  0  0  0  0
  183.3280  179.0070  140.8040 C   0  0  2  0  0  3  0  0  0  0  0  0
  184.9510  179.6850  139.2080 O   0  0  0  0  0  0  0  0  0  0  0  0
  183.9550  178.9520  139.4470 C   0  0  0  0  0  0  0  0  0  0  0  0
  182.5420  178.4720  137.6080 O   0  0  0  0  0  0  0  0  0  0  0  0
  183.4360  178.0580  138.3970 C   0  0  0  0  0  0  0  0  0  0  0  0
  183.9380  176.7590  138.2760 O   0  0  0  0  0  0  0  0  0  0  0  0
  183.0910  175.6210  138.3160 C   0  0  0  0  0  1  0  0  0  0  0  0
  191.5070  176.8800  143.1130 C   0  0  0  0  0  2  0  0  0  0  0  0
  190.9600  176.5770  141.7260 C   0  0  1  0  0  3  0  0  0  0  0  0
  189.9130  175.6830  141.8460 F   0  0  0  0  0  0  0  0  0  0  0  0
  190.4980  177.7560  141.1200 O   0  0  0  0  0  0  0  0  0  0  0  0
  189.6390  177.4210  140.0490 C   0  0  1  0  0  3  0  0  0  0  0  0
  187.8330  178.2860  138.7680 O   0  0  0  0  0  0  0  0  0  0  0  0
  188.7720  178.5220  139.5080 C   0  0  0  0  0  3  0  0  0  0  0  0
  190.1180  176.3380  139.0720 C   0  0  0  0  0  2  0  0  0  0  0  0
  188.8770  177.4310  134.5970 C   0  0  0  0  0  1  0  0  0  0  0  0
  189.5410  177.5350  135.9280 C   0  0  0  0  0  3  0  0  0  0  0  0
  192.4330  175.0310  137.2430 C   0  0  0  0  0  0  0  0  0  0  0  0
  190.1440  176.5300  136.5760 C   0  0  0  0  0  0  0  0  0  0  0  0
  192.2310  176.2290  137.8070 C   0  0  0  0  0  3  0  0  0  0  0  0
  190.8690  176.8600  137.8480 C   0  0  2  0  0  3  0  0  0  0  0  0
  191.2730  174.2820  136.6320 C   0  0  0  0  0  2  0  0  0  0  0  0
  190.2860  175.1920  136.0410 N   0  0  0  0  0  0  0  0  0  0  0  0
  193.7730  174.4210  137.2540 C   0  0  0  0  0  0  0  0  0  0  0  0
  193.8940  173.1760  137.4140 O   0  0  0  0  0  0  0  0  0  0  0  0
  194.9380  175.2370  137.0820 N   0  0  0  0  0  2  0  0  0  0  0  0
  196.9170  175.0830  138.3020 O   0  0  0  0  0  1  0  0  0  0  0  0
  197.0730  175.2210  135.9370 C   0  0  0  0  0  1  0  0  0  0  0  0
  196.2870  174.6950  137.1190 C   0  0  2  0  0  3  0  0  0  0  0  0
  189.3290  174.6080  135.1080 C   0  0  0  0  0  2  0  0  0  0  0  0
  187.2410  174.9060  136.2940 O   0  0  0  0  0  0  0  0  0  0  0  0
  188.1760  173.9550  135.8540 C   0  0  2  0  0  0  0  0  0  0  0  0
  188.4300  172.8970  136.9080 C   0  0  0  0  0  1  0  0  0  0  0  0
  186.8260  174.0330  135.2660 C   0  0  0  0  0  2  0  0  0  0  0  0
  1  2  1  0  0  0  0
  2  3  2  6  0  0  0
  2  4  1  0  0  0  0
  5  2  1  0  0  0  0
  7  6  1  6  0  0  0
  8  5  1  6  0  0  0
  8  9  1  0  0  0  0
  8  7  1  0  0  0  0
  9  7  1  0  0  0  0
 10 12  1  0  0  0  0
 10 13  1  0  0  0  0
 11 10  1  0  0  0  0
 11 12  1  0  0  0  0
 12  8  1  0  0  0  0
 13  9  1  0  0  0  0
 14 13  1  0  0  0  0
 15 21  1  0  0  0  0
 16 21  1  0  0  0  0
 16 14  1  0  0  0  0
 17 20  1  0  0  0  0
 18 16  1  0  0  0  0
 19 17  1  0  0  0  0
 20 21  1  0  0  0  0
 22 19  1  0  0  0  0
 22 18  1  0  0  0  0
 23 24  2  0  0  0  0
 24 22  1  0  0  0  0
 25 26  2  0  0  0  0
 26 24  1  0  0  0  0
 27 28  1  0  0  0  0
 27 26  1  0  0  0  0
 29  1  1  0  0  0  0
 30 31  1  0  0  0  0
 30 29  1  0  0  0  0
 32 30  1  0  0  0  0
 33 32  1  0  0  0  0
 34 35  2  0  0  0  0
 35 33  1  0  0  0  0
 36 33  1  0  0  0  0
 37 38  1  0  0  0  0
 38 40  2  0  0  0  0
 39 45  1  0  0  0  0
 39 41  2  0  0  0  0
 40 42  1  0  0  0  0
 41 42  1  0  0  0  0
 42 36  1  0  0  0  0
 43 39  1  0  0  0  0
 44 40  1  0  0  0  0
 44 43  1  0  0  0  0
 45 46  2  0  0  0  0
 47 50  1  0  0  0  0
 47 45  1  0  0  0  0
 49 50  1  0  0  0  0
 50 48  1  0  0  0  0
 51 53  1  0  0  0  0
 51 44  1  0  0  0  0
 53 52  1  0  0  0  0
 53 54  1  0  0  0  0
 55 53  1  0  0  0  0
 55 52  1  0  0  0  0
M  END
>  <MODEL>
4

>  <REMARK>
 VINA RESULT:      -6.2      1.439      2.286
  Name = 
  19 active torsions:
  status: ('A' for Active; 'I' for Inactive)
    1  A    between atoms: C_5  and  C_6
    2  A    between atoms: C_5  and  O_26
    3  A    between atoms: C_6  and  O_17
    4  A    between atoms: C_8  and  C_33
    5  A    between atoms: C_9  and  C_12
    6  A    between atoms: C_9  and  C_54
    7  A    between atoms: O_10  and  C_21
    8  A    between atoms: O_10  and  P_32
    9  A    between atoms: C_13  and  O_17
   10  A    between atoms: C_13  and  C_24
   11  A    between atoms: C_13  and  C_47
   12  A    between atoms: C_16  and  C_23
   13  A    between atoms: O_20  and  C_46
   14  A    between atoms: O_26  and  P_32
   15  A    between atoms: C_29  and  C_46
   16  A    between atoms: C_29  and  C_55
   17  A    between atoms: C_33  and  N_49
   18  A    between atoms: C_43  and  C_47
   19  A    between atoms: C_45  and  N_53
                            x       y       z     vdW  Elec       q    Type
                         _______ _______ _______ _____ _____    ______ ____

>  <TORSDO>
F 19

$$$$
=
 OpenBabel11062415103D

 55 60  0  0  1  0  0  0  0  0999 V2000
  188.8390  176.2950  144.1290 O   0  0  0  0  0  0  0  0  0  0  0  0
  187.6890  177.4430  144.6270 P   0  0  2  0  0  0  0  0  0  0  0  0
  188.1570  178.8340  144.2520 O   0  0  0  0  0  0  0  0  0  0  0  0
  187.4890  177.3520  146.3040 O   0  0  0  0  0  1  0  0  0  0  0  0
  186.2090  177.0730  143.8630 O   0  0  0  0  0  0  0  0  0  0  0  0
  185.7940  180.0490  141.7810 O   0  0  0  0  0  1  0  0  0  0  0  0
  185.9250  178.6680  141.9630 C   0  0  1  0  0  3  0  0  0  0  0  0
  185.6410  178.2730  143.4080 C   0  0  1  0  0  0  0  0  0  0  0  0
  184.5980  177.9980  142.3450 C   0  0  1  0  0  3  0  0  0  0  0  0
  183.6790  179.6480  143.9740 C   0  0  1  0  0  3  0  0  0  0  0  0
  183.8550  178.6640  145.1210 C   0  0  0  0  0  2  0  0  0  0  0  0
  185.0720  179.2570  144.4340 C   0  0  1  0  0  3  0  0  0  0  0  0
  183.4500  178.9610  142.6250 C   0  0  2  0  0  3  0  0  0  0  0  0
  182.1200  178.2180  142.5820 C   0  0  0  0  0  2  0  0  0  0  0  0
  179.1520  178.0250  141.5880 O   0  0  0  0  0  1  0  0  0  0  0  0
  181.5400  178.2190  141.1750 C   0  0  2  0  0  3  0  0  0  0  0  0
  179.7790  177.8260  138.6790 C   0  0  0  0  0  2  0  0  0  0  0  0
  181.3150  179.6590  140.6890 C   0  0  0  0  0  2  0  0  0  0  0  0
  180.9060  178.6390  138.5150 O   0  0  0  0  0  0  0  0  0  0  0  0
  180.0460  176.7550  139.7340 C   0  0  0  0  0  2  0  0  0  0  0  0
  180.2830  177.3420  141.1280 C   0  0  2  0  0  3  0  0  0  0  0  0
  180.6530  179.7650  139.3100 C   0  0  2  0  0  3  0  0  0  0  0  0
  182.3060  181.3590  138.7030 O   0  0  0  0  0  0  0  0  0  0  0  0
  181.0990  181.0090  138.6100 C   0  0  0  0  0  0  0  0  0  0  0  0
  178.9420  181.5000  137.7660 O   0  0  0  0  0  0  0  0  0  0  0  0
  180.1620  181.8200  137.8140 C   0  0  0  0  0  0  0  0  0  0  0  0
  180.6250  182.9400  137.1180 O   0  0  0  0  0  0  0  0  0  0  0  0
  180.2670  184.2610  137.4960 C   0  0  0  0  0  1  0  0  0  0  0  0
  190.0290  177.0010  143.9330 C   0  0  0  0  0  2  0  0  0  0  0  0
  190.7740  176.4510  142.7250 C   0  0  1  0  0  3  0  0  0  0  0  0
  190.1880  175.2580  142.3450 F   0  0  0  0  0  0  0  0  0  0  0  0
  190.7080  177.3630  141.6600 O   0  0  0  0  0  0  0  0  0  0  0  0
  189.8020  176.8770  140.6900 C   0  0  1  0  0  3  0  0  0  0  0  0
  188.6750  178.6950  139.6520 O   0  0  0  0  0  0  0  0  0  0  0  0
  188.6030  177.7330  140.3970 C   0  0  0  0  0  3  0  0  0  0  0  0
  190.3800  176.0340  139.5440 C   0  0  0  0  0  2  0  0  0  0  0  0
  188.9240  177.8270  135.3700 C   0  0  0  0  0  1  0  0  0  0  0  0
  189.6170  177.7390  136.6870 C   0  0  0  0  0  3  0  0  0  0  0  0
  192.7370  175.2860  137.4710 C   0  0  0  0  0  0  0  0  0  0  0  0
  190.3170  176.6850  137.1280 C   0  0  0  0  0  0  0  0  0  0  0  0
  192.4560  176.3380  138.2510 C   0  0  0  0  0  3  0  0  0  0  0  0
  191.0510  176.8340  138.4290 C   0  0  2  0  0  3  0  0  0  0  0  0
  191.6230  174.5690  136.7480 C   0  0  0  0  0  2  0  0  0  0  0  0
  190.5490  175.4860  136.3500 N   0  0  0  0  0  0  0  0  0  0  0  0
  194.1210  174.7990  137.3490 C   0  0  0  0  0  0  0  0  0  0  0  0
  194.4920  173.7910  138.0100 O   0  0  0  0  0  0  0  0  0  0  0  0
  195.0450  175.4650  136.4810 N   0  0  0  0  0  2  0  0  0  0  0  0
  197.2640  176.1700  136.3770 O   0  0  0  0  0  1  0  0  0  0  0  0
  196.6170  174.3240  135.0320 C   0  0  0  0  0  1  0  0  0  0  0  0
  196.4340  175.0500  136.3480 C   0  0  2  0  0  3  0  0  0  0  0  0
  189.6140  175.0060  135.3380 C   0  0  0  0  0  2  0  0  0  0  0  0
  188.0370  174.6920  137.1460 O   0  0  0  0  0  0  0  0  0  0  0  0
  188.5440  174.1270  135.9650 C   0  0  2  0  0  0  0  0  0  0  0  0
  188.7490  172.6330  136.1080 C   0  0  0  0  0  1  0  0  0  0  0  0
  187.1650  174.6440  136.0380 C   0  0  0  0  0  2  0  0  0  0  0  0
  1  2  1  0  0  0  0
  2  3  2  6  0  0  0
  2  4  1  0  0  0  0
  5  2  1  0  0  0  0
  7  6  1  1  0  0  0
  7  9  1  0  0  0  0
  7  8  1  0  0  0  0
  8  5  1  1  0  0  0
  8 12  1  0  0  0  0
  9 13  1  0  0  0  0
  9  8  1  0  0  0  0
 10 12  1  0  0  0  0
 10 11  1  0  0  0  0
 12 11  1  0  0  0  0
 13 10  1  0  0  0  0
 14 13  1  0  0  0  0
 16 14  1  0  0  0  0
 17 20  1  0  0  0  0
 18 16  1  0  0  0  0
 19 17  1  0  0  0  0
 19 22  1  0  0  0  0
 20 21  1  0  0  0  0
 21 16  1  0  0  0  0
 21 15  1  0  0  0  0
 22 18  1  0  0  0  0
 24 23  2  0  0  0  0
 24 22  1  0  0  0  0
 25 26  2  0  0  0  0
 26 24  1  0  0  0  0
 27 28  1  0  0  0  0
 27 26  1  0  0  0  0
 29  1  1  0  0  0  0
 30 29  1  0  0  0  0
 31 30  1  0  0  0  0
 32 30  1  0  0  0  0
 33 32  1  0  0  0  0
 34 35  2  0  0  0  0
 35 33  1  0  0  0  0
 36 33  1  0  0  0  0
 37 38  1  0  0  0  0
 38 40  2  0  0  0  0
 39 41  2  0  0  0  0
 40 42  1  0  0  0  0
 41 42  1  0  0  0  0
 42 36  1  0  0  0  0
 43 39  1  0  0  0  0
 44 43  1  0  0  0  0
 44 40  1  0  0  0  0
 45 39  1  0  0  0  0
 45 46  2  0  0  0  0
 47 45  1  0  0  0  0
 49 50  1  0  0  0  0
 50 48  1  0  0  0  0
 50 47  1  0  0  0  0
 51 53  1  0  0  0  0
 51 44  1  0  0  0  0
 53 55  1  0  0  0  0
 53 54  1  0  0  0  0
 53 52  1  0  0  0  0
 55 52  1  0  0  0  0
M  END
>  <MODEL>
5

>  <REMARK>
 VINA RESULT:      -5.8      1.533      2.106
  Name = 
  19 active torsions:
  status: ('A' for Active; 'I' for Inactive)
    1  A    between atoms: C_5  and  C_6
    2  A    between atoms: C_5  and  O_26
    3  A    between atoms: C_6  and  O_17
    4  A    between atoms: C_8  and  C_33
    5  A    between atoms: C_9  and  C_12
    6  A    between atoms: C_9  and  C_54
    7  A    between atoms: O_10  and  C_21
    8  A    between atoms: O_10  and  P_32
    9  A    between atoms: C_13  and  O_17
   10  A    between atoms: C_13  and  C_24
   11  A    between atoms: C_13  and  C_47
   12  A    between atoms: C_16  and  C_23
   13  A    between atoms: O_20  and  C_46
   14  A    between atoms: O_26  and  P_32
   15  A    between atoms: C_29  and  C_46
   16  A    between atoms: C_29  and  C_55
   17  A    between atoms: C_33  and  N_49
   18  A    between atoms: C_43  and  C_47
   19  A    between atoms: C_45  and  N_53
                            x       y       z     vdW  Elec       q    Type
                         _______ _______ _______ _____ _____    ______ ____

>  <TORSDO>
F 19

$$$$
=
 OpenBabel11062415103D

 55 60  0  0  1  0  0  0  0  0999 V2000
  189.8470  176.8810  136.9210 O   0  0  0  0  0  0  0  0  0  0  0  0
  191.0920  176.1350  137.8050 P   0  0  2  0  0  0  0  0  0  0  0  0
  192.2310  177.1130  138.0100 O   0  0  0  0  0  1  0  0  0  0  0  0
  191.6580  174.7870  136.9560 O   0  0  0  0  0  0  0  0  0  0  0  0
  190.4480  175.6290  139.3020 O   0  0  0  0  0  0  0  0  0  0  0  0
  188.6230  178.6090  140.3770 O   0  0  0  0  0  1  0  0  0  0  0  0
  188.7090  177.2450  140.0740 C   0  0  1  0  0  3  0  0  0  0  0  0
  190.1580  176.7730  140.0610 C   0  0  1  0  0  0  0  0  0  0  0  0
  189.2730  176.4200  141.2380 C   0  0  1  0  0  3  0  0  0  0  0  0
  191.1170  177.9020  142.0270 C   0  0  1  0  0  3  0  0  0  0  0  0
  192.1650  176.9060  141.5540 C   0  0  0  0  0  2  0  0  0  0  0  0
  191.3160  177.6520  140.5430 C   0  0  1  0  0  3  0  0  0  0  0  0
  189.7930  177.2390  142.4140 C   0  0  2  0  0  3  0  0  0  0  0  0
  189.9350  176.3540  143.6470 C   0  0  0  0  0  2  0  0  0  0  0  0
  189.8310  178.7460  145.6720 O   0  0  0  0  0  1  0  0  0  0  0  0
  188.9020  176.7190  144.7030 C   0  0  2  0  0  3  0  0  0  0  0  0
  187.4310  177.8150  147.1770 C   0  0  0  0  0  2  0  0  0  0  0  0
  187.7760  177.5610  144.0820 C   0  0  0  0  0  2  0  0  0  0  0  0
  186.6300  177.2080  146.2020 O   0  0  0  0  0  0  0  0  0  0  0  0
  188.8150  177.1710  147.2000 C   0  0  0  0  0  2  0  0  0  0  0  0
  189.5910  177.3870  145.8990 C   0  0  2  0  0  3  0  0  0  0  0  0
  186.7260  178.0510  145.0870 C   0  0  2  0  0  3  0  0  0  0  0  0
  185.1930  177.5980  143.3300 O   0  0  0  0  0  0  0  0  0  0  0  0
  185.3930  178.1920  144.4230 C   0  0  0  0  0  0  0  0  0  0  0  0
  184.1620  179.0020  146.2760 O   0  0  0  0  0  0  0  0  0  0  0  0
  184.3170  179.0000  145.0240 C   0  0  0  0  0  0  0  0  0  0  0  0
  183.4770  179.7620  144.2070 O   0  0  0  0  0  0  0  0  0  0  0  0
  182.1410  179.3700  143.9310 C   0  0  0  0  0  1  0  0  0  0  0  0
  188.7780  175.9800  136.9230 C   0  0  0  0  0  2  0  0  0  0  0  0
  188.7750  175.1630  135.6400 C   0  0  1  0  0  3  0  0  0  0  0  0
  188.2320  173.9190  135.9050 F   0  0  0  0  0  0  0  0  0  0  0  0
  188.0070  175.8060  134.6570 O   0  0  0  0  0  0  0  0  0  0  0  0
  186.7780  176.2150  135.2230 C   0  0  1  0  0  3  0  0  0  0  0  0
  187.1410  178.5410  135.5520 O   0  0  0  0  0  0  0  0  0  0  0  0
  186.4240  177.6690  135.0920 C   0  0  0  0  0  3  0  0  0  0  0  0
  185.6310  175.1940  135.2310 C   0  0  0  0  0  2  0  0  0  0  0  0
  183.3840  171.3310  136.8990 C   0  0  0  0  0  1  0  0  0  0  0  0
  184.3730  172.4430  136.8120 C   0  0  0  0  0  3  0  0  0  0  0  0
  183.4710  176.3520  137.3300 C   0  0  0  0  0  0  0  0  0  0  0  0
  184.0830  173.7210  136.5340 C   0  0  0  0  0  0  0  0  0  0  0  0
  184.7300  175.9040  137.4130 C   0  0  0  0  0  3  0  0  0  0  0  0
  185.1990  174.7210  136.6180 C   0  0  2  0  0  3  0  0  0  0  0  0
  182.4870  175.6620  136.4170 C   0  0  0  0  0  2  0  0  0  0  0  0
  182.7390  174.2190  136.3320 N   0  0  0  0  0  0  0  0  0  0  0  0
  183.0520  177.5400  138.0930 C   0  0  0  0  0  0  0  0  0  0  0  0
  183.7490  177.9380  139.0660 O   0  0  0  0  0  0  0  0  0  0  0  0
  181.8600  178.2450  137.7310 N   0  0  0  0  0  2  0  0  0  0  0  0
  180.2890  179.0390  139.2580 O   0  0  0  0  0  1  0  0  0  0  0  0
  180.9540  180.4800  137.4930 C   0  0  0  0  0  1  0  0  0  0  0  0
  181.3800  179.4040  138.4690 C   0  0  2  0  0  3  0  0  0  0  0  0
  181.6610  173.3930  135.7990 C   0  0  0  0  0  2  0  0  0  0  0  0
  179.6920  174.7060  136.3030 O   0  0  0  0  0  0  0  0  0  0  0  0
  180.4010  173.5410  136.6370 C   0  0  2  0  0  0  0  0  0  0  0  0
  180.4330  173.3210  138.1360 C   0  0  0  0  0  1  0  0  0  0  0  0
  179.0940  173.4750  135.9580 C   0  0  0  0  0  2  0  0  0  0  0  0
  1 29  1  0  0  0  0
  1  2  1  0  0  0  0
  2  4  2  6  0  0  0
  2  3  1  0  0  0  0
  2  5  1  0  0  0  0
  7  6  1  1  0  0  0
  7  9  1  0  0  0  0
  8  5  1  6  0  0  0
  8  7  1  0  0  0  0
  8 12  1  0  0  0  0
  8  9  1  0  0  0  0
  9 13  1  0  0  0  0
 10 13  1  0  0  0  0
 11 10  1  0  0  0  0
 12 11  1  0  0  0  0
 12 10  1  0  0  0  0
 13 14  1  0  0  0  0
 14 16  1  0  0  0  0
 15 21  1  0  0  0  0
 16 21  1  0  0  0  0
 17 20  1  0  0  0  0
 18 16  1  0  0  0  0
 18 22  1  0  0  0  0
 19 17  1  0  0  0  0
 21 20  1  0  0  0  0
 22 19  1  0  0  0  0
 23 24  2  0  0  0  0
 24 26  1  0  0  0  0
 24 22  1  0  0  0  0
 26 25  2  0  0  0  0
 27 26  1  0  0  0  0
 28 27  1  0  0  0  0
 30 31  1  0  0  0  0
 30 29  1  0  0  0  0
 32 33  1  0  0  0  0
 32 30  1  0  0  0  0
 33 36  1  0  0  0  0
 35 33  1  0  0  0  0
 35 34  2  0  0  0  0
 36 42  1  0  0  0  0
 38 37  1  0  0  0  0
 39 41  2  0  0  0  0
 39 45  1  0  0  0  0
 40 42  1  0  0  0  0
 40 38  2  0  0  0  0
 42 41  1  0  0  0  0
 43 39  1  0  0  0  0
 44 43  1  0  0  0  0
 44 40  1  0  0  0  0
 45 46  2  0  0  0  0
 47 45  1  0  0  0  0
 47 50  1  0  0  0  0
 49 50  1  0  0  0  0
 50 48  1  0  0  0  0
 51 44  1  0  0  0  0
 51 53  1  0  0  0  0
 52 53  1  0  0  0  0
 53 54  1  0  0  0  0
 55 52  1  0  0  0  0
 55 53  1  0  0  0  0
M  END
>  <MODEL>
6

>  <REMARK>
 VINA RESULT:      -5.5      3.510      8.605
  Name = 
  19 active torsions:
  status: ('A' for Active; 'I' for Inactive)
    1  A    between atoms: C_5  and  C_6
    2  A    between atoms: C_5  and  O_26
    3  A    between atoms: C_6  and  O_17
    4  A    between atoms: C_8  and  C_33
    5  A    between atoms: C_9  and  C_12
    6  A    between atoms: C_9  and  C_54
    7  A    between atoms: O_10  and  C_21
    8  A    between atoms: O_10  and  P_32
    9  A    between atoms: C_13  and  O_17
   10  A    between atoms: C_13  and  C_24
   11  A    between atoms: C_13  and  C_47
   12  A    between atoms: C_16  and  C_23
   13  A    between atoms: O_20  and  C_46
   14  A    between atoms: O_26  and  P_32
   15  A    between atoms: C_29  and  C_46
   16  A    between atoms: C_29  and  C_55
   17  A    between atoms: C_33  and  N_49
   18  A    between atoms: C_43  and  C_47
   19  A    between atoms: C_45  and  N_53
                            x       y       z     vdW  Elec       q    Type
                         _______ _______ _______ _____ _____    ______ ____

>  <TORSDO>
F 19

$$$$
=
 OpenBabel11062415103D

 55 60  0  0  1  0  0  0  0  0999 V2000
  190.7160  176.3360  143.7300 O   0  0  0  0  0  0  0  0  0  0  0  0
  191.0550  177.3370  145.0610 P   0  0  2  0  0  0  0  0  0  0  0  0
  192.3270  178.1180  144.8030 O   0  0  0  0  0  0  0  0  0  0  0  0
  191.2530  176.3860  146.4460 O   0  0  0  0  0  1  0  0  0  0  0  0
  189.7300  178.3880  145.2830 O   0  0  0  0  0  0  0  0  0  0  0  0
  187.4210  176.2350  147.1280 O   0  0  0  0  0  1  0  0  0  0  0  0
  188.1830  177.4000  146.9750 C   0  0  1  0  0  3  0  0  0  0  0  0
  188.5880  177.6060  145.5210 C   0  0  1  0  0  0  0  0  0  0  0  0
  187.4780  178.4510  146.1090 C   0  0  1  0  0  3  0  0  0  0  0  0
  186.5350  177.0240  144.2940 C   0  0  1  0  0  3  0  0  0  0  0  0
  187.4820  177.6380  143.2730 C   0  0  0  0  0  2  0  0  0  0  0  0
  188.0260  176.7540  144.3790 C   0  0  1  0  0  3  0  0  0  0  0  0
  186.1920  177.9780  145.4420 C   0  0  2  0  0  3  0  0  0  0  0  0
  185.3760  179.1740  144.9670 C   0  0  0  0  0  2  0  0  0  0  0  0
  182.7190  180.5050  143.9660 O   0  0  0  0  0  1  0  0  0  0  0  0
  184.4240  178.7760  143.8490 C   0  0  2  0  0  3  0  0  0  0  0  0
  181.9740  178.3640  142.0290 C   0  0  0  0  0  2  0  0  0  0  0  0
  184.8940  179.3640  142.5090 C   0  0  0  0  0  2  0  0  0  0  0  0
  183.2000  177.9200  141.5210 O   0  0  0  0  0  0  0  0  0  0  0  0
  181.9570  178.2480  143.5510 C   0  0  0  0  0  2  0  0  0  0  0  0
  182.9870  179.1570  144.2260 C   0  0  2  0  0  3  0  0  0  0  0  0
  183.9520  179.0880  141.3320 C   0  0  2  0  0  3  0  0  0  0  0  0
  185.9780  178.9260  140.1030 O   0  0  0  0  0  0  0  0  0  0  0  0
  184.7220  179.0110  140.0520 C   0  0  0  0  0  0  0  0  0  0  0  0
  183.0150  179.7390  138.5820 O   0  0  0  0  0  0  0  0  0  0  0  0
  184.0420  179.0250  138.7450 C   0  0  0  0  0  0  0  0  0  0  0  0
  184.5390  178.2520  137.6920 O   0  0  0  0  0  0  0  0  0  0  0  0
  185.0630  176.9490  137.8990 C   0  0  0  0  0  1  0  0  0  0  0  0
  191.6870  176.6270  142.7690 C   0  0  0  0  0  2  0  0  0  0  0  0
  191.0550  177.3280  141.5750 C   0  0  1  0  0  3  0  0  0  0  0  0
  190.5950  178.5680  141.9790 F   0  0  0  0  0  0  0  0  0  0  0  0
  192.0030  177.4940  140.5530 O   0  0  0  0  0  0  0  0  0  0  0  0
  191.5030  176.9250  139.3600 C   0  0  1  0  0  3  0  0  0  0  0  0
  189.3040  176.7880  138.4680 O   0  0  0  0  0  0  0  0  0  0  0  0
  190.2260  177.5030  138.8190 C   0  0  0  0  0  3  0  0  0  0  0  0
  192.5280  176.3800  138.3550 C   0  0  0  0  0  2  0  0  0  0  0  0
  195.9580  173.1240  137.7340 C   0  0  0  0  0  1  0  0  0  0  0  0
  194.7190  173.7650  138.2590 C   0  0  0  0  0  3  0  0  0  0  0  0
  191.3730  174.4050  136.0790 C   0  0  0  0  0  0  0  0  0  0  0  0
  193.7930  174.3880  137.5200 C   0  0  0  0  0  0  0  0  0  0  0  0
  191.3540  174.4250  137.4180 C   0  0  0  0  0  3  0  0  0  0  0  0
  192.5490  174.8590  138.2160 C   0  0  2  0  0  3  0  0  0  0  0  0
  192.6190  174.8290  135.3390 C   0  0  0  0  0  2  0  0  0  0  0  0
  193.8380  174.4790  136.0750 N   0  0  0  0  0  0  0  0  0  0  0  0
  190.1710  174.0140  135.3240 C   0  0  0  0  0  0  0  0  0  0  0  0
  189.5830  174.8610  134.5970 O   0  0  0  0  0  0  0  0  0  0  0  0
  189.6700  172.6760  135.4110 N   0  0  0  0  0  2  0  0  0  0  0  0
  187.3520  172.8730  135.2690 O   0  0  0  0  0  1  0  0  0  0  0  0
  188.3160  170.7430  134.8600 C   0  0  0  0  0  1  0  0  0  0  0  0
  188.4670  172.2420  134.7160 C   0  0  2  0  0  3  0  0  0  0  0  0
  195.0870  174.4880  135.3220 C   0  0  0  0  0  2  0  0  0  0  0  0
  196.6800  176.0160  136.3130 O   0  0  0  0  0  0  0  0  0  0  0  0
  195.7030  175.8780  135.3130 C   0  0  2  0  0  0  0  0  0  0  0  0
  194.8340  177.1140  135.2100 C   0  0  0  0  0  1  0  0  0  0  0  0
  197.1330  176.0090  134.9760 C   0  0  0  0  0  2  0  0  0  0  0  0
  1  2  1  0  0  0  0
  2  3  2  6  0  0  0
  2  5  1  0  0  0  0
  2  4  1  0  0  0  0
  7  6  1  6  0  0  0
  8  5  1  6  0  0  0
  8  9  1  0  0  0  0
  8  7  1  0  0  0  0
  9  7  1  0  0  0  0
 10 12  1  0  0  0  0
 10 13  1  0  0  0  0
 11 10  1  0  0  0  0
 11 12  1  0  0  0  0
 12  8  1  0  0  0  0
 13  9  1  0  0  0  0
 14 13  1  0  0  0  0
 15 21  1  0  0  0  0
 16 21  1  0  0  0  0
 16 14  1  0  0  0  0
 17 20  1  0  0  0  0
 18 16  1  0  0  0  0
 19 17  1  0  0  0  0
 20 21  1  0  0  0  0
 22 19  1  0  0  0  0
 22 18  1  0  0  0  0
 24 23  2  0  0  0  0
 24 22  1  0  0  0  0
 25 26  2  0  0  0  0
 26 24  1  0  0  0  0
 27 28  1  0  0  0  0
 27 26  1  0  0  0  0
 29  1  1  0  0  0  0
 30 31  1  0  0  0  0
 30 29  1  0  0  0  0
 32 30  1  0  0  0  0
 33 32  1  0  0  0  0
 34 35  2  0  0  0  0
 35 33  1  0  0  0  0
 36 33  1  0  0  0  0
 37 38  1  0  0  0  0
 39 41  2  0  0  0  0
 40 42  1  0  0  0  0
 40 38  2  0  0  0  0
 41 42  1  0  0  0  0
 42 36  1  0  0  0  0
 43 44  1  0  0  0  0
 43 39  1  0  0  0  0
 44 40  1  0  0  0  0
 45 47  1  0  0  0  0
 45 39  1  0  0  0  0
 46 45  2  0  0  0  0
 50 49  1  0  0  0  0
 50 48  1  0  0  0  0
 50 47  1  0  0  0  0
 51 44  1  0  0  0  0
 53 51  1  0  0  0  0
 53 52  1  0  0  0  0
 54 53  1  0  0  0  0
 55 53  1  0  0  0  0
 55 52  1  0  0  0  0
M  END
>  <MODEL>
7

>  <REMARK>
 VINA RESULT:      -5.4      1.978      4.751
  Name = 
  19 active torsions:
  status: ('A' for Active; 'I' for Inactive)
    1  A    between atoms: C_5  and  C_6
    2  A    between atoms: C_5  and  O_26
    3  A    between atoms: C_6  and  O_17
    4  A    between atoms: C_8  and  C_33
    5  A    between atoms: C_9  and  C_12
    6  A    between atoms: C_9  and  C_54
    7  A    between atoms: O_10  and  C_21
    8  A    between atoms: O_10  and  P_32
    9  A    between atoms: C_13  and  O_17
   10  A    between atoms: C_13  and  C_24
   11  A    between atoms: C_13  and  C_47
   12  A    between atoms: C_16  and  C_23
   13  A    between atoms: O_20  and  C_46
   14  A    between atoms: O_26  and  P_32
   15  A    between atoms: C_29  and  C_46
   16  A    between atoms: C_29  and  C_55
   17  A    between atoms: C_33  and  N_49
   18  A    between atoms: C_43  and  C_47
   19  A    between atoms: C_45  and  N_53
                            x       y       z     vdW  Elec       q    Type
                         _______ _______ _______ _____ _____    ______ ____

>  <TORSDO>
F 19

$$$$
=
 OpenBabel11062415103D

 55 60  0  0  1  0  0  0  0  0999 V2000
  186.7090  177.2450  144.7030 O   0  0  0  0  0  0  0  0  0  0  0  0
  188.4060  177.2460  144.6230 P   0  0  2  0  0  0  0  0  0  0  0  0
  188.9790  176.6360  145.8870 O   0  0  0  0  0  1  0  0  0  0  0  0
  188.9630  178.8360  144.4670 O   0  0  0  0  0  0  0  0  0  0  0  0
  188.8720  176.3490  143.2490 O   0  0  0  0  0  0  0  0  0  0  0  0
  191.7960  178.3200  142.2870 O   0  0  0  0  0  1  0  0  0  0  0  0
  191.1800  177.1430  142.7260 C   0  0  1  0  0  3  0  0  0  0  0  0
  189.6820  177.1680  142.4470 C   0  0  1  0  0  0  0  0  0  0  0  0
  190.5860  176.3260  141.5710 C   0  0  1  0  0  3  0  0  0  0  0  0
  189.5630  178.1300  140.1850 C   0  0  1  0  0  3  0  0  0  0  0  0
  188.1630  177.6320  140.5100 C   0  0  0  0  0  2  0  0  0  0  0  0
  189.0190  178.2550  141.5960 C   0  0  1  0  0  3  0  0  0  0  0  0
  190.6150  177.0180  140.2130 C   0  0  2  0  0  3  0  0  0  0  0  0
  190.4000  175.9990  139.1000 C   0  0  0  0  0  2  0  0  0  0  0  0
  190.6680  176.3050  135.9910 O   0  0  0  0  0  1  0  0  0  0  0  0
  189.4170  176.5220  138.0640 C   0  0  2  0  0  3  0  0  0  0  0  0
  188.0900  177.7390  135.5650 C   0  0  0  0  0  2  0  0  0  0  0  0
  188.4850  175.3950  137.5910 C   0  0  0  0  0  2  0  0  0  0  0  0
  187.2240  177.1760  136.5100 O   0  0  0  0  0  0  0  0  0  0  0  0
  189.3310  178.3020  136.2540 C   0  0  0  0  0  2  0  0  0  0  0  0
  190.1760  177.2190  136.9280 C   0  0  2  0  0  3  0  0  0  0  0  0
  187.5100  175.8040  136.4810 C   0  0  2  0  0  3  0  0  0  0  0  0
  185.2070  175.5640  137.0120 O   0  0  0  0  0  0  0  0  0  0  0  0
  186.2480  175.0060  136.5730 C   0  0  0  0  0  0  0  0  0  0  0  0
  187.2710  172.9910  135.8640 O   0  0  0  0  0  0  0  0  0  0  0  0
  186.2010  173.5940  136.1540 C   0  0  0  0  0  0  0  0  0  0  0  0
  184.9740  172.9290  136.0830 O   0  0  0  0  0  0  0  0  0  0  0  0
  184.3530  172.3730  137.2320 C   0  0  0  0  0  1  0  0  0  0  0  0
  186.2990  178.5030  144.2530 C   0  0  0  0  0  2  0  0  0  0  0  0
  185.6450  178.3860  142.8840 C   0  0  1  0  0  3  0  0  0  0  0  0
  185.0560  177.1400  142.7770 F   0  0  0  0  0  0  0  0  0  0  0  0
  184.6650  179.3790  142.7300 O   0  0  0  0  0  0  0  0  0  0  0  0
  183.3890  178.7720  142.7030 C   0  0  1  0  0  3  0  0  0  0  0  0
  182.8880  178.6220  145.0220 O   0  0  0  0  0  0  0  0  0  0  0  0
  182.5210  178.9690  143.9130 C   0  0  0  0  0  3  0  0  0  0  0  0
  182.7000  178.6380  141.3380 C   0  0  0  0  0  2  0  0  0  0  0  0
  178.9440  175.7330  140.8870 C   0  0  0  0  0  1  0  0  0  0  0  0
  179.8030  176.8350  141.4050 C   0  0  0  0  0  3  0  0  0  0  0  0
  180.6990  180.1970  139.3420 C   0  0  0  0  0  0  0  0  0  0  0  0
  180.4770  177.7140  140.6520 C   0  0  0  0  0  0  0  0  0  0  0  0
  180.8510  180.1260  140.6710 C   0  0  0  0  0  3  0  0  0  0  0  0
  181.1850  178.8340  141.3580 C   0  0  2  0  0  3  0  0  0  0  0  0
  180.8680  178.9560  138.5000 C   0  0  0  0  0  2  0  0  0  0  0  0
  180.4200  177.7510  139.2060 N   0  0  0  0  0  0  0  0  0  0  0  0
  180.4120  181.4880  138.6950 C   0  0  0  0  0  0  0  0  0  0  0  0
  179.4850  182.2200  139.1380 O   0  0  0  0  0  0  0  0  0  0  0  0
  181.1830  181.9160  137.5670 N   0  0  0  0  0  2  0  0  0  0  0  0
  180.4730  184.1260  137.7720 O   0  0  0  0  0  1  0  0  0  0  0  0
  179.8600  182.9350  135.8120 C   0  0  0  0  0  1  0  0  0  0  0  0
  180.9210  183.1640  136.8660 C   0  0  2  0  0  3  0  0  0  0  0  0
  180.1780  176.5640  138.3940 C   0  0  0  0  0  2  0  0  0  0  0  0
  181.2620  174.6590  137.3690 O   0  0  0  0  0  0  0  0  0  0  0  0
  181.4840  175.8560  138.0670 C   0  0  2  0  0  0  0  0  0  0  0  0
  182.5660  175.6960  139.1150 C   0  0  0  0  0  1  0  0  0  0  0  0
  181.8680  175.7120  136.6510 C   0  0  0  0  0  2  0  0  0  0  0  0
  2  4  2  6  0  0  0
  2  1  1  0  0  0  0
  2  3  1  0  0  0  0
  5  2  1  0  0  0  0
  7  6  1  6  0  0  0
  8  7  1  0  0  0  0
  8  5  1  1  0  0  0
  9  8  1  0  0  0  0
  9  7  1  0  0  0  0
 10 13  1  0  0  0  0
 10 11  1  0  0  0  0
 10 12  1  0  0  0  0
 11 12  1  0  0  0  0
 12  8  1  0  0  0  0
 13  9  1  0  0  0  0
 14 13  1  0  0  0  0
 15 21  1  0  0  0  0
 16 14  1  0  0  0  0
 17 20  1  0  0  0  0
 17 19  1  0  0  0  0
 18 16  1  0  0  0  0
 20 21  1  0  0  0  0
 21 16  1  0  0  0  0
 22 19  1  0  0  0  0
 22 24  1  0  0  0  0
 22 18  1  0  0  0  0
 24 23  2  0  0  0  0
 25 26  2  0  0  0  0
 26 24  1  0  0  0  0
 27 26  1  0  0  0  0
 27 28  1  0  0  0  0
 29  1  1  0  0  0  0
 30 29  1  0  0  0  0
 31 30  1  0  0  0  0
 32 30  1  0  0  0  0
 33 32  1  0  0  0  0
 33 35  1  0  0  0  0
 35 34  2  0  0  0  0
 36 42  1  0  0  0  0
 36 33  1  0  0  0  0
 37 38  1  0  0  0  0
 39 41  2  0  0  0  0
 40 42  1  0  0  0  0
 40 38  2  0  0  0  0
 41 42  1  0  0  0  0
 43 44  1  0  0  0  0
 43 39  1  0  0  0  0
 44 40  1  0  0  0  0
 45 46  2  0  0  0  0
 45 39  1  0  0  0  0
 47 45  1  0  0  0  0
 49 50  1  0  0  0  0
 50 47  1  0  0  0  0
 50 48  1  0  0  0  0
 51 44  1  0  0  0  0
 52 53  1  0  0  0  0
 53 51  1  0  0  0  0
 53 54  1  0  0  0  0
 55 52  1  0  0  0  0
 55 53  1  0  0  0  0
M  END
>  <MODEL>
8

>  <REMARK>
 VINA RESULT:      -4.8      3.620      9.495
  Name = 
  19 active torsions:
  status: ('A' for Active; 'I' for Inactive)
    1  A    between atoms: C_5  and  C_6
    2  A    between atoms: C_5  and  O_26
    3  A    between atoms: C_6  and  O_17
    4  A    between atoms: C_8  and  C_33
    5  A    between atoms: C_9  and  C_12
    6  A    between atoms: C_9  and  C_54
    7  A    between atoms: O_10  and  C_21
    8  A    between atoms: O_10  and  P_32
    9  A    between atoms: C_13  and  O_17
   10  A    between atoms: C_13  and  C_24
   11  A    between atoms: C_13  and  C_47
   12  A    between atoms: C_16  and  C_23
   13  A    between atoms: O_20  and  C_46
   14  A    between atoms: O_26  and  P_32
   15  A    between atoms: C_29  and  C_46
   16  A    between atoms: C_29  and  C_55
   17  A    between atoms: C_33  and  N_49
   18  A    between atoms: C_43  and  C_47
   19  A    between atoms: C_45  and  N_53
                            x       y       z     vdW  Elec       q    Type
                         _______ _______ _______ _____ _____    ______ ____

>  <TORSDO>
F 19

$$$$
=
 OpenBabel11062415103D

 55 60  0  0  1  0  0  0  0  0999 V2000
  187.3440  178.4510  146.3600 O   0  0  0  0  0  0  0  0  0  0  0  0
  188.7150  177.6070  145.8160 P   0  0  2  0  0  0  0  0  0  0  0  0
  188.5040  176.1180  145.9960 O   0  0  0  0  0  0  0  0  0  0  0  0
  190.0670  178.0940  146.7080 O   0  0  0  0  0  1  0  0  0  0  0  0
  188.9560  177.9940  144.1720 O   0  0  0  0  0  0  0  0  0  0  0  0
  190.3270  174.7340  143.2490 O   0  0  0  0  0  1  0  0  0  0  0  0
  189.3180  175.7020  143.2500 C   0  0  1  0  0  3  0  0  0  0  0  0
  189.8670  177.0710  143.6360 C   0  0  1  0  0  0  0  0  0  0  0  0
  189.5420  176.7840  142.1850 C   0  0  1  0  0  3  0  0  0  0  0  0
  191.9960  177.1720  142.4050 C   0  0  1  0  0  3  0  0  0  0  0  0
  191.7600  178.5670  142.9620 C   0  0  0  0  0  2  0  0  0  0  0  0
  191.3670  177.3480  143.7750 C   0  0  1  0  0  3  0  0  0  0  0  0
  190.8820  176.7070  141.4630 C   0  0  2  0  0  3  0  0  0  0  0  0
  190.8350  177.5310  140.1820 C   0  0  0  0  0  2  0  0  0  0  0  0
  189.7900  177.9550  137.2560 O   0  0  0  0  0  1  0  0  0  0  0  0
  190.9250  176.6370  138.9540 C   0  0  2  0  0  3  0  0  0  0  0  0
  190.4600  175.2280  136.2550 C   0  0  0  0  0  2  0  0  0  0  0  0
  192.2520  176.8730  138.2150 C   0  0  0  0  0  2  0  0  0  0  0  0
  191.6430  174.8980  136.9260 O   0  0  0  0  0  0  0  0  0  0  0  0
  189.3610  175.5760  137.2570 C   0  0  0  0  0  2  0  0  0  0  0  0
  189.6820  176.8280  138.0770 C   0  0  2  0  0  3  0  0  0  0  0  0
  192.4010  176.0760  136.9140 C   0  0  2  0  0  3  0  0  0  0  0  0
  194.4940  176.5260  135.8860 O   0  0  0  0  0  0  0  0  0  0  0  0
  193.8410  175.7680  136.6510 C   0  0  0  0  0  0  0  0  0  0  0  0
  194.5800  174.5310  138.5300 O   0  0  0  0  0  0  0  0  0  0  0  0
  194.5040  174.6080  137.2720 C   0  0  0  0  0  0  0  0  0  0  0  0
  195.0420  173.5990  136.4690 O   0  0  0  0  0  0  0  0  0  0  0  0
  194.2240  172.7560  135.6730 C   0  0  0  0  0  1  0  0  0  0  0  0
  186.7220  178.9570  145.2150 C   0  0  0  0  0  2  0  0  0  0  0  0
  185.5550  178.0670  144.8120 C   0  0  1  0  0  3  0  0  0  0  0  0
  185.0080  177.5070  145.9510 F   0  0  0  0  0  0  0  0  0  0  0  0
  184.5760  178.8230  144.1490 O   0  0  0  0  0  0  0  0  0  0  0  0
  184.7250  178.6560  142.7540 C   0  0  1  0  0  3  0  0  0  0  0  0
  186.8160  178.7320  141.6240 O   0  0  0  0  0  0  0  0  0  0  0  0
  186.0260  178.0730  142.2790 C   0  0  0  0  0  3  0  0  0  0  0  0
  183.4600  178.3480  141.9410 C   0  0  0  0  0  2  0  0  0  0  0  0
  179.5870  179.7440  139.5310 C   0  0  0  0  0  1  0  0  0  0  0  0
  180.9050  179.8220  140.2240 C   0  0  0  0  0  3  0  0  0  0  0  0
  184.3210  178.1580  138.8360 C   0  0  0  0  0  0  0  0  0  0  0  0
  181.9180  178.9600  140.0660 C   0  0  0  0  0  0  0  0  0  0  0  0
  184.3350  179.1190  139.7690 C   0  0  0  0  0  3  0  0  0  0  0  0
  183.2140  179.2780  140.7540 C   0  0  2  0  0  3  0  0  0  0  0  0
  183.1560  177.2010  138.7620 C   0  0  0  0  0  2  0  0  0  0  0  0
  181.8940  177.8450  139.1440 N   0  0  0  0  0  0  0  0  0  0  0  0
  185.4550  178.0030  137.9110 C   0  0  0  0  0  0  0  0  0  0  0  0
  186.5180  178.6550  138.1060 O   0  0  0  0  0  0  0  0  0  0  0  0
  185.3570  177.1140  136.7930 N   0  0  0  0  0  2  0  0  0  0  0  0
  186.4990  178.0700  135.0010 O   0  0  0  0  0  1  0  0  0  0  0  0
  186.1630  175.7200  134.9830 C   0  0  0  0  0  1  0  0  0  0  0  0
  186.4320  176.9480  135.8260 C   0  0  2  0  0  3  0  0  0  0  0  0
  180.6640  177.1590  138.7630 C   0  0  0  0  0  2  0  0  0  0  0  0
  180.1520  174.9170  138.0100 O   0  0  0  0  0  0  0  0  0  0  0  0
  180.7750  175.6650  139.0230 C   0  0  2  0  0  0  0  0  0  0  0  0
  180.4870  175.0900  140.3940 C   0  0  0  0  0  1  0  0  0  0  0  0
  181.5600  174.8460  138.0820 C   0  0  0  0  0  2  0  0  0  0  0  0
  2  3  2  1  0  0  0
  2  1  1  0  0  0  0
  2  4  1  0  0  0  0
  5  2  1  0  0  0  0
  7  6  1  6  0  0  0
  7  8  1  0  0  0  0
  8 12  1  0  0  0  0
  8  5  1  1  0  0  0
  9  7  1  0  0  0  0
  9  8  1  0  0  0  0
 10 11  1  0  0  0  0
 10 12  1  0  0  0  0
 11 12  1  0  0  0  0
 13  9  1  0  0  0  0
 13 10  1  0  0  0  0
 14 13  1  0  0  0  0
 15 21  1  0  0  0  0
 16 14  1  0  0  0  0
 17 19  1  0  0  0  0
 17 20  1  0  0  0  0
 18 16  1  0  0  0  0
 20 21  1  0  0  0  0
 21 16  1  0  0  0  0
 22 19  1  0  0  0  0
 22 18  1  0  0  0  0
 23 24  2  0  0  0  0
 24 22  1  0  0  0  0
 24 26  1  0  0  0  0
 26 25  2  0  0  0  0
 27 26  1  0  0  0  0
 28 27  1  0  0  0  0
 29  1  1  0  0  0  0
 30 29  1  0  0  0  0
 30 31  1  0  0  0  0
 32 30  1  0  0  0  0
 33 32  1  0  0  0  0
 34 35  2  0  0  0  0
 35 33  1  0  0  0  0
 36 33  1  0  0  0  0
 37 38  1  0  0  0  0
 39 41  2  0  0  0  0
 40 38  2  0  0  0  0
 40 42  1  0  0  0  0
 41 42  1  0  0  0  0
 42 36  1  0  0  0  0
 43 39  1  0  0  0  0
 43 44  1  0  0  0  0
 44 40  1  0  0  0  0
 45 46  2  0  0  0  0
 45 39  1  0  0  0  0
 47 45  1  0  0  0  0
 48 50  1  0  0  0  0
 49 50  1  0  0  0  0
 50 47  1  0  0  0  0
 51 53  1  0  0  0  0
 51 44  1  0  0  0  0
 52 55  1  0  0  0  0
 52 53  1  0  0  0  0
 53 54  1  0  0  0  0
 55 53  1  0  0  0  0
M  END
>  <MODEL>
9

>  <REMARK>
 VINA RESULT:      -4.5      2.697      8.869
  Name = 
  19 active torsions:
  status: ('A' for Active; 'I' for Inactive)
    1  A    between atoms: C_5  and  C_6
    2  A    between atoms: C_5  and  O_26
    3  A    between atoms: C_6  and  O_17
    4  A    between atoms: C_8  and  C_33
    5  A    between atoms: C_9  and  C_12
    6  A    between atoms: C_9  and  C_54
    7  A    between atoms: O_10  and  C_21
    8  A    between atoms: O_10  and  P_32
    9  A    between atoms: C_13  and  O_17
   10  A    between atoms: C_13  and  C_24
   11  A    between atoms: C_13  and  C_47
   12  A    between atoms: C_16  and  C_23
   13  A    between atoms: O_20  and  C_46
   14  A    between atoms: O_26  and  P_32
   15  A    between atoms: C_29  and  C_46
   16  A    between atoms: C_29  and  C_55
   17  A    between atoms: C_33  and  N_49
   18  A    between atoms: C_43  and  C_47
   19  A    between atoms: C_45  and  N_53
                            x       y       z     vdW  Elec       q    Type
                         _______ _______ _______ _____ _____    ______ ____

>  <TORSDO>
F 19

$$$$
