=
 OpenBabel11062413133D

 42 46  0  0  1  0  0  0  0  0999 V2000
  190.2250  176.9670  140.4530 C   0  0  0  0  0  2  0  0  0  0  0  0
  186.5540  178.8540  137.2210 N   0  0  0  0  0  0  0  0  0  0  0  0
  190.2930  175.0070  143.2700 C   0  0  0  0  0  1  0  0  0  0  0  0
  185.2980  178.2050  143.3970 C   0  0  0  0  0  1  0  0  0  0  0  0
  187.8580  178.3700  139.1850 C   0  0  0  0  0  0  0  0  0  0  0  0
  185.5120  178.2010  140.6270 N   0  0  0  0  0  0  0  0  0  0  0  0
  186.6580  177.8820  142.7900 C   0  0  1  0  0  3  0  0  0  0  0  0
  191.4900  177.1710  143.4070 C   0  0  0  0  0  1  0  0  0  0  0  0
  186.6900  178.0430  141.2890 C   0  0  0  0  0  0  0  0  0  0  0  0
  188.9310  178.8890  137.0610 C   0  0  0  0  0  3  0  0  0  0  0  0
  185.4350  178.4170  139.2910 C   0  0  0  0  0  0  0  0  0  0  0  0
  187.6770  179.0240  136.4740 C   0  0  0  0  0  3  0  0  0  0  0  0
  189.1400  177.0240  142.5010 N   0  0  2  0  0  0  0  0  0  0  0  0
  189.2600  177.7910  141.2740 C   0  0  2  0  0  3  0  0  0  0  0  0
  187.9160  178.0240  140.5640 C   0  0  0  0  0  0  0  0  0  0  0  0
  186.6090  178.5450  138.5470 C   0  0  0  0  0  0  0  0  0  0  0  0
  188.7960  177.9250  143.6290 C   0  0  1  0  0  3  0  0  0  0  0  0
  190.9770  176.1600  141.3200 O   0  0  0  0  0  0  0  0  0  0  0  0
  187.6340  178.7000  143.3870 O   0  0  0  0  0  0  0  0  0  0  0  0
  189.0160  178.5670  138.4140 C   0  0  0  0  0  3  0  0  0  0  0  0
  190.4590  176.3640  142.6110 C   0  0  0  0  0  0  0  0  0  0  0  0
  182.8350  176.7800  139.6640 C   0  0  0  0  0  2  0  0  0  0  0  0
  181.7810  179.1180  139.6260 C   0  0  1  0  0  3  0  0  0  0  0  0
  183.3670  177.2990  138.4050 N   0  0  0  0  0  0  0  0  0  0  0  0
  181.7280  177.6970  140.2030 C   0  0  0  0  0  2  0  0  0  0  0  0
  183.2330  179.5800  139.4290 C   0  0  1  0  0  3  0  0  0  0  0  0
  184.0830  178.5750  138.6340 C   0  0  1  0  0  3  0  0  0  0  0  0
  183.2730  180.8320  138.8150 O   0  0  0  0  0  1  0  0  0  0  0  0
  179.7360  179.1730  138.7720 C   0  0  0  0  0  1  0  0  0  0  0  0
  181.0860  179.1620  138.4130 O   0  0  0  0  0  0  0  0  0  0  0  0
  184.2440  176.2940  137.8140 C   0  0  0  0  0  2  0  0  0  0  0  0
  185.2080  176.2260  135.5180 O   0  0  0  0  0  0  0  0  0  0  0  0
  184.0880  176.3010  136.3330 C   0  0  0  0  0  0  0  0  0  0  0  0
  182.9450  176.4140  135.8210 O   0  0  0  0  0  1  0  0  0  0  0  0
  188.7300  177.2100  144.9890 C   0  0  0  0  0  2  0  0  0  0  0  0
  188.1530  178.0790  146.0960 C   0  0  0  0  0  2  0  0  0  0  0  0
  188.8710  177.7960  147.4020 C   0  0  0  0  0  2  0  0  0  0  0  0
  189.7280  176.6320  147.2530 N   0  0  0  0  0  2  0  0  0  0  0  0
  191.0610  177.0280  147.6780 C   0  0  0  0  0  2  0  0  0  0  0  0
  191.9820  175.8170  147.7760 C   0  0  1  0  0  3  0  0  0  0  0  0
  192.3320  175.2800  146.4000 C   0  0  0  0  0  1  0  0  0  0  0  0
  193.1460  176.1550  148.4720 O   0  0  0  0  0  1  0  0  0  0  0  0
  1 18  1  0  0  0  0
  2 16  1  0  0  0  0
  5 15  1  0  0  0  0
  6  9  1  0  0  0  0
  7 19  1  0  0  0  0
  7  4  1  1  0  0  0
  9  7  1  0  0  0  0
 10 20  2  0  0  0  0
 11  6  2  0  0  0  0
 12 10  1  0  0  0  0
 12  2  2  0  0  0  0
 13 21  1  1  0  0  0
 13 17  1  0  0  0  0
 14  1  1  6  0  0  0
 14 13  1  0  0  0  0
 15 14  1  0  0  0  0
 15  9  2  0  0  0  0
 16  5  2  0  0  0  0
 16 11  1  0  0  0  0
 17 35  1  1  0  0  0
 18 21  1  0  0  0  0
 19 17  1  0  0  0  0
 20  5  1  0  0  0  0
 21  3  1  0  0  0  0
 21  8  1  0  0  0  0
 22 25  1  0  0  0  0
 23 30  1  6  0  0  0
 23 25  1  0  0  0  0
 24 27  1  0  0  0  0
 24 22  1  0  0  0  0
 26 28  1  6  0  0  0
 26 23  1  0  0  0  0
 27 11  1  1  0  0  0
 27 26  1  0  0  0  0
 30 29  1  0  0  0  0
 31 24  1  0  0  0  0
 32 33  2  0  0  0  0
 33 31  1  0  0  0  0
 34 33  1  0  0  0  0
 35 36  1  0  0  0  0
 36 37  1  0  0  0  0
 38 37  1  0  0  0  0
 38 39  1  0  0  0  0
 39 40  1  0  0  0  0
 40 41  1  6  0  0  0
 40 42  1  0  0  0  0
M  END
>  <MODEL>
1

>  <REMARK>
 VINA RESULT:      -7.0      0.000      0.000
  Name = 
  10 active torsions:
  status: ('A' for Active; 'I' for Inactive)
    1  A    between atoms: C_1  and  N_28
    2  A    between atoms: C_1  and  C_37
    3  A    between atoms: C_3  and  C_33
    4  A    between atoms: C_3  and  C_37
    5  A    between atoms: C_6  and  C_11
    6  A    between atoms: C_9  and  C_10
    7  A    between atoms: C_9  and  N_23
    8  A    between atoms: C_11  and  N_28
    9  A    between atoms: C_17  and  O_21
   10  A    between atoms: C_25  and  C_36
                            x       y       z     vdW  Elec       q    Type
                         _______ _______ _______ _____ _____    ______ ____

>  <TORSDO>
F 10

$$$$
=
 OpenBabel11062413133D

 42 46  0  0  1  0  0  0  0  0999 V2000
  190.2450  176.8930  140.3930 C   0  0  0  0  0  2  0  0  0  0  0  0
  186.5590  178.8030  137.1910 N   0  0  0  0  0  0  0  0  0  0  0  0
  190.3190  174.9820  143.2440 C   0  0  0  0  0  1  0  0  0  0  0  0
  185.4000  178.2930  143.3990 C   0  0  0  0  0  1  0  0  0  0  0  0
  187.8880  178.3260  139.1410 C   0  0  0  0  0  0  0  0  0  0  0  0
  185.5640  178.2350  140.6260 N   0  0  0  0  0  0  0  0  0  0  0  0
  186.7410  177.9290  142.7750 C   0  0  1  0  0  3  0  0  0  0  0  0
  191.5660  177.1210  143.3210 C   0  0  0  0  0  1  0  0  0  0  0  0
  186.7500  178.0620  141.2710 C   0  0  0  0  0  0  0  0  0  0  0  0
  188.9330  178.7820  136.9900 C   0  0  0  0  0  3  0  0  0  0  0  0
  185.4680  178.4280  139.2880 C   0  0  0  0  0  0  0  0  0  0  0  0
  187.6720  178.9340  136.4220 C   0  0  0  0  0  3  0  0  0  0  0  0
  189.1980  177.0100  142.4580 N   0  0  2  0  0  0  0  0  0  0  0  0
  189.3130  177.7520  141.2150 C   0  0  2  0  0  3  0  0  0  0  0  0
  187.9620  178.0030  140.5250 C   0  0  0  0  0  0  0  0  0  0  0  0
  186.6320  178.5170  138.5220 C   0  0  0  0  0  0  0  0  0  0  0  0
  188.8940  177.9380  143.5750 C   0  0  1  0  0  3  0  0  0  0  0  0
  190.9940  176.0840  141.2620 O   0  0  0  0  0  0  0  0  0  0  0  0
  187.7460  178.7350  143.3400 O   0  0  0  0  0  0  0  0  0  0  0  0
  189.0350  178.4820  138.3460 C   0  0  0  0  0  3  0  0  0  0  0  0
  190.5030  176.3230  142.5580 C   0  0  0  0  0  0  0  0  0  0  0  0
  182.8410  176.8520  139.7300 C   0  0  0  0  0  2  0  0  0  0  0  0
  181.8360  179.2110  139.6750 C   0  0  1  0  0  3  0  0  0  0  0  0
  183.3620  177.3420  138.4550 N   0  0  0  0  0  0  0  0  0  0  0  0
  181.7630  177.8000  140.2740 C   0  0  0  0  0  2  0  0  0  0  0  0
  183.2930  179.6390  139.4470 C   0  0  1  0  0  3  0  0  0  0  0  0
  184.1080  178.6050  138.6520 C   0  0  1  0  0  3  0  0  0  0  0  0
  183.3480  180.8810  138.8120 O   0  0  0  0  0  1  0  0  0  0  0  0
  179.7920  179.4580  138.8520 C   0  0  0  0  0  1  0  0  0  0  0  0
  181.1210  179.2510  138.4740 O   0  0  0  0  0  0  0  0  0  0  0  0
  184.2080  176.3090  137.8640 C   0  0  0  0  0  2  0  0  0  0  0  0
  184.7950  176.6110  135.4620 O   0  0  0  0  0  0  0  0  0  0  0  0
  183.8900  176.1690  136.4160 C   0  0  0  0  0  0  0  0  0  0  0  0
  182.7860  175.6840  136.0580 O   0  0  0  0  0  1  0  0  0  0  0  0
  188.8370  177.2490  144.9490 C   0  0  0  0  0  2  0  0  0  0  0  0
  189.6300  177.9830  146.0220 C   0  0  0  0  0  2  0  0  0  0  0  0
  189.2480  177.4590  147.3930 C   0  0  0  0  0  2  0  0  0  0  0  0
  188.4350  178.4420  148.0900 N   0  0  0  0  0  2  0  0  0  0  0  0
  187.0600  177.9710  148.0380 C   0  0  0  0  0  2  0  0  0  0  0  0
  186.2110  178.8740  147.1500 C   0  0  1  0  0  3  0  0  0  0  0  0
  184.8820  178.2210  146.8150 C   0  0  0  0  0  1  0  0  0  0  0  0
  185.9990  180.1040  147.7790 O   0  0  0  0  0  1  0  0  0  0  0  0
  1 18  1  0  0  0  0
  2 16  1  0  0  0  0
  5 15  1  0  0  0  0
  6  9  1  0  0  0  0
  7 19  1  0  0  0  0
  7  4  1  1  0  0  0
  9  7  1  0  0  0  0
 10 20  2  0  0  0  0
 11  6  2  0  0  0  0
 12 10  1  0  0  0  0
 12  2  2  0  0  0  0
 13 21  1  1  0  0  0
 13 17  1  0  0  0  0
 14  1  1  6  0  0  0
 14 13  1  0  0  0  0
 15 14  1  0  0  0  0
 15  9  2  0  0  0  0
 16  5  2  0  0  0  0
 16 11  1  0  0  0  0
 17 35  1  1  0  0  0
 18 21  1  0  0  0  0
 19 17  1  0  0  0  0
 20  5  1  0  0  0  0
 21  3  1  0  0  0  0
 21  8  1  0  0  0  0
 22 25  1  0  0  0  0
 23 30  1  6  0  0  0
 23 25  1  0  0  0  0
 24 27  1  0  0  0  0
 24 22  1  0  0  0  0
 26 28  1  6  0  0  0
 26 23  1  0  0  0  0
 27 11  1  1  0  0  0
 27 26  1  0  0  0  0
 30 29  1  0  0  0  0
 31 24  1  0  0  0  0
 32 33  2  0  0  0  0
 33 31  1  0  0  0  0
 34 33  1  0  0  0  0
 35 36  1  0  0  0  0
 36 37  1  0  0  0  0
 37 38  1  0  0  0  0
 39 38  1  0  0  0  0
 40 41  1  1  0  0  0
 40 42  1  0  0  0  0
 40 39  1  0  0  0  0
M  END
>  <MODEL>
2

>  <REMARK>
 VINA RESULT:      -6.8      1.491      2.188
  Name = 
  10 active torsions:
  status: ('A' for Active; 'I' for Inactive)
    1  A    between atoms: C_1  and  N_28
    2  A    between atoms: C_1  and  C_37
    3  A    between atoms: C_3  and  C_33
    4  A    between atoms: C_3  and  C_37
    5  A    between atoms: C_6  and  C_11
    6  A    between atoms: C_9  and  C_10
    7  A    between atoms: C_9  and  N_23
    8  A    between atoms: C_11  and  N_28
    9  A    between atoms: C_17  and  O_21
   10  A    between atoms: C_25  and  C_36
                            x       y       z     vdW  Elec       q    Type
                         _______ _______ _______ _____ _____    ______ ____

>  <TORSDO>
F 10

$$$$
=
 OpenBabel11062413133D

 42 46  0  0  1  0  0  0  0  0999 V2000
  181.7820  178.5630  143.8980 C   0  0  0  0  0  2  0  0  0  0  0  0
  186.9090  177.9290  144.7860 N   0  0  0  0  0  0  0  0  0  0  0  0
  179.5480  177.6640  141.4510 C   0  0  0  0  0  1  0  0  0  0  0  0
  184.7920  178.6510  138.8580 C   0  0  0  0  0  1  0  0  0  0  0  0
  184.8090  178.5520  143.7890 C   0  0  0  0  0  0  0  0  0  0  0  0
  185.8690  177.9360  141.3180 N   0  0  0  0  0  0  0  0  0  0  0  0
  183.8780  178.7020  140.0760 C   0  0  1  0  0  3  0  0  0  0  0  0
  179.5900  180.0610  142.0760 C   0  0  0  0  0  1  0  0  0  0  0  0
  184.6010  178.4270  141.3720 C   0  0  0  0  0  0  0  0  0  0  0  0
  185.1880  178.8040  146.1810 C   0  0  0  0  0  3  0  0  0  0  0  0
  186.6280  177.7160  142.4190 C   0  0  0  0  0  0  0  0  0  0  0  0
  186.4690  178.2860  146.0210 C   0  0  0  0  0  3  0  0  0  0  0  0
  181.7160  178.7910  141.5920 N   0  0  2  0  0  0  0  0  0  0  0  0
  182.5330  179.1620  142.7330 C   0  0  2  0  0  3  0  0  0  0  0  0
  183.9840  178.6630  142.6340 C   0  0  0  0  0  0  0  0  0  0  0  0
  186.1280  178.0560  143.6770 C   0  0  0  0  0  0  0  0  0  0  0  0
  181.8930  179.7800  140.5000 C   0  0  1  0  0  3  0  0  0  0  0  0
  180.4420  178.3800  143.5220 O   0  0  0  0  0  0  0  0  0  0  0  0
  183.2500  179.9590  140.1280 O   0  0  0  0  0  0  0  0  0  0  0  0
  184.3650  178.9390  145.0650 C   0  0  0  0  0  3  0  0  0  0  0  0
  180.3530  178.7350  142.1640 C   0  0  0  0  0  0  0  0  0  0  0  0
  189.3680  179.0390  142.9850 C   0  0  0  0  0  2  0  0  0  0  0  0
  189.8680  176.7370  144.0000 C   0  0  1  0  0  3  0  0  0  0  0  0
  189.0350  178.1660  141.8610 N   0  0  0  0  0  0  0  0  0  0  0  0
  190.0960  178.2520  144.0840 C   0  0  0  0  0  2  0  0  0  0  0  0
  188.4340  176.4190  143.5500 C   0  0  1  0  0  3  0  0  0  0  0  0
  188.0260  177.1620  142.2670 C   0  0  1  0  0  3  0  0  0  0  0  0
  188.2630  175.0450  143.3820 O   0  0  0  0  0  1  0  0  0  0  0  0
  191.7780  175.6140  143.9420 C   0  0  0  0  0  1  0  0  0  0  0  0
  190.7940  176.1680  143.1200 O   0  0  0  0  0  0  0  0  0  0  0  0
  188.5560  178.9870  140.7530 C   0  0  0  0  0  2  0  0  0  0  0  0
  190.0860  177.4890  139.4820 O   0  0  0  0  0  1  0  0  0  0  0  0
  189.1010  178.4650  139.4700 C   0  0  0  0  0  0  0  0  0  0  0  0
  188.6960  178.9360  138.3750 O   0  0  0  0  0  0  0  0  0  0  0  0
  180.9990  179.5130  139.2780 C   0  0  0  0  0  2  0  0  0  0  0  0
  180.9780  180.6680  138.2860 C   0  0  0  0  0  2  0  0  0  0  0  0
  180.3240  181.8800  138.9200 C   0  0  0  0  0  2  0  0  0  0  0  0
  179.7940  182.7550  137.8870 N   0  0  0  0  0  2  0  0  0  0  0  0
  180.8360  182.9100  136.8850 C   0  0  0  0  0  2  0  0  0  0  0  0
  181.2230  184.3760  136.7250 C   0  0  1  0  0  3  0  0  0  0  0  0
  180.0480  185.2890  137.0220 C   0  0  0  0  0  1  0  0  0  0  0  0
  182.2970  184.6830  137.5660 O   0  0  0  0  0  1  0  0  0  0  0  0
  2 12  1  0  0  0  0
  3 21  1  0  0  0  0
  5 20  2  0  0  0  0
  6  9  1  0  0  0  0
  6 11  2  0  0  0  0
  7  4  1  6  0  0  0
  7 19  1  0  0  0  0
  7  9  1  0  0  0  0
  8 21  1  0  0  0  0
  9 15  2  0  0  0  0
 11 16  1  0  0  0  0
 12 10  2  0  0  0  0
 13 21  1  1  0  0  0
 13 14  1  0  0  0  0
 14  1  1  1  0  0  0
 15 14  1  0  0  0  0
 15  5  1  0  0  0  0
 16  5  1  0  0  0  0
 16  2  2  0  0  0  0
 17 35  1  6  0  0  0
 17 13  1  0  0  0  0
 18  1  1  0  0  0  0
 19 17  1  0  0  0  0
 20 10  1  0  0  0  0
 21 18  1  0  0  0  0
 22 25  1  0  0  0  0
 23 30  1  6  0  0  0
 23 25  1  0  0  0  0
 24 27  1  0  0  0  0
 24 22  1  0  0  0  0
 26 28  1  6  0  0  0
 26 23  1  0  0  0  0
 27 11  1  1  0  0  0
 27 26  1  0  0  0  0
 30 29  1  0  0  0  0
 31 24  1  0  0  0  0
 33 32  1  0  0  0  0
 33 31  1  0  0  0  0
 34 33  2  0  0  0  0
 36 37  1  0  0  0  0
 36 35  1  0  0  0  0
 38 37  1  0  0  0  0
 39 38  1  0  0  0  0
 40 39  1  0  0  0  0
 40 41  1  1  0  0  0
 40 42  1  0  0  0  0
M  END
>  <MODEL>
3

>  <REMARK>
 VINA RESULT:      -6.2      2.918      9.722
  Name = 
  10 active torsions:
  status: ('A' for Active; 'I' for Inactive)
    1  A    between atoms: C_1  and  N_28
    2  A    between atoms: C_1  and  C_37
    3  A    between atoms: C_3  and  C_33
    4  A    between atoms: C_3  and  C_37
    5  A    between atoms: C_6  and  C_11
    6  A    between atoms: C_9  and  C_10
    7  A    between atoms: C_9  and  N_23
    8  A    between atoms: C_11  and  N_28
    9  A    between atoms: C_17  and  O_21
   10  A    between atoms: C_25  and  C_36
                            x       y       z     vdW  Elec       q    Type
                         _______ _______ _______ _____ _____    ______ ____

>  <TORSDO>
F 10

$$$$
=
 OpenBabel11062413133D

 42 46  0  0  1  0  0  0  0  0999 V2000
  189.8350  176.7360  139.3120 C   0  0  0  0  0  2  0  0  0  0  0  0
  185.6650  178.0290  136.4090 N   0  0  0  0  0  0  0  0  0  0  0  0
  190.3890  175.5410  142.4820 C   0  0  0  0  0  1  0  0  0  0  0  0
  185.6010  179.0390  142.6640 C   0  0  0  0  0  1  0  0  0  0  0  0
  187.3090  177.9530  138.1670 C   0  0  0  0  0  0  0  0  0  0  0  0
  185.2790  178.3280  139.9970 N   0  0  0  0  0  0  0  0  0  0  0  0
  186.8100  178.4730  141.9290 C   0  0  1  0  0  3  0  0  0  0  0  0
  191.6480  177.5740  141.8370 C   0  0  0  0  0  1  0  0  0  0  0  0
  186.5580  178.2510  140.4570 C   0  0  0  0  0  0  0  0  0  0  0  0
  187.9670  177.8430  135.8250 C   0  0  0  0  0  3  0  0  0  0  0  0
  184.9530  178.2080  138.6880 C   0  0  0  0  0  0  0  0  0  0  0  0
  186.6280  177.9210  135.4570 C   0  0  0  0  0  3  0  0  0  0  0  0
  189.1650  177.3830  141.4350 N   0  0  2  0  0  0  0  0  0  0  0  0
  189.0690  177.8080  140.0490 C   0  0  2  0  0  3  0  0  0  0  0  0
  187.6200  177.9590  139.5550 C   0  0  0  0  0  0  0  0  0  0  0  0
  185.9650  178.0570  137.7380 C   0  0  0  0  0  0  0  0  0  0  0  0
  189.0700  178.5610  142.3330 C   0  0  1  0  0  3  0  0  0  0  0  0
  190.7170  176.1160  140.2100 O   0  0  0  0  0  0  0  0  0  0  0  0
  187.9040  179.3370  142.1100 O   0  0  0  0  0  0  0  0  0  0  0  0
  188.3020  177.8630  137.1770 C   0  0  0  0  0  3  0  0  0  0  0  0
  190.4620  176.6740  141.4750 C   0  0  0  0  0  0  0  0  0  0  0  0
  182.4860  176.6140  139.6660 C   0  0  0  0  0  2  0  0  0  0  0  0
  181.4000  178.9370  139.5850 C   0  0  1  0  0  3  0  0  0  0  0  0
  182.7830  177.0070  138.2890 N   0  0  0  0  0  0  0  0  0  0  0  0
  181.4730  177.5800  140.2980 C   0  0  0  0  0  2  0  0  0  0  0  0
  182.7870  179.3780  139.0940 C   0  0  1  0  0  3  0  0  0  0  0  0
  183.5040  178.3000  138.2650 C   0  0  1  0  0  3  0  0  0  0  0  0
  182.6980  180.5630  138.3630 O   0  0  0  0  0  1  0  0  0  0  0  0
  179.2420  178.7800  139.1050 C   0  0  0  0  0  1  0  0  0  0  0  0
  180.5040  178.8590  138.5130 O   0  0  0  0  0  0  0  0  0  0  0  0
  183.5620  175.9490  137.6550 C   0  0  0  0  0  2  0  0  0  0  0  0
  182.9170  173.6270  137.0270 O   0  0  0  0  0  1  0  0  0  0  0  0
  182.6470  174.9870  136.9820 C   0  0  0  0  0  0  0  0  0  0  0  0
  181.6500  175.4090  136.3410 O   0  0  0  0  0  0  0  0  0  0  0  0
  189.2460  178.2150  143.8200 C   0  0  0  0  0  2  0  0  0  0  0  0
  190.5430  178.7510  144.4110 C   0  0  0  0  0  2  0  0  0  0  0  0
  191.0690  177.7880  145.4580 C   0  0  0  0  0  2  0  0  0  0  0  0
  189.9910  176.9400  145.9380 N   0  0  0  0  0  2  0  0  0  0  0  0
  189.8760  177.1670  147.3700 C   0  0  0  0  0  2  0  0  0  0  0  0
  188.6660  178.0380  147.6870 C   0  0  1  0  0  3  0  0  0  0  0  0
  187.4560  177.6130  146.8760 C   0  0  0  0  0  1  0  0  0  0  0  0
  188.3760  177.9790  149.0530 O   0  0  0  0  0  1  0  0  0  0  0  0
  1 18  1  0  0  0  0
  2 16  1  0  0  0  0
  5 15  1  0  0  0  0
  6  9  1  0  0  0  0
  7 19  1  0  0  0  0
  7  4  1  6  0  0  0
  9  7  1  0  0  0  0
 10 20  2  0  0  0  0
 11  6  2  0  0  0  0
 12 10  1  0  0  0  0
 12  2  2  0  0  0  0
 13 21  1  6  0  0  0
 13 17  1  0  0  0  0
 14  1  1  6  0  0  0
 14 13  1  0  0  0  0
 15 14  1  0  0  0  0
 15  9  2  0  0  0  0
 16  5  2  0  0  0  0
 16 11  1  0  0  0  0
 17 35  1  1  0  0  0
 18 21  1  0  0  0  0
 19 17  1  0  0  0  0
 20  5  1  0  0  0  0
 21  8  1  0  0  0  0
 21  3  1  0  0  0  0
 22 25  1  0  0  0  0
 23 30  1  6  0  0  0
 23 25  1  0  0  0  0
 24 22  1  0  0  0  0
 26 28  1  6  0  0  0
 26 23  1  0  0  0  0
 27 24  1  0  0  0  0
 27 11  1  1  0  0  0
 27 26  1  0  0  0  0
 30 29  1  0  0  0  0
 31 24  1  0  0  0  0
 33 32  1  0  0  0  0
 33 31  1  0  0  0  0
 34 33  2  0  0  0  0
 35 36  1  0  0  0  0
 36 37  1  0  0  0  0
 37 38  1  0  0  0  0
 38 39  1  0  0  0  0
 39 40  1  0  0  0  0
 40 41  1  6  0  0  0
 40 42  1  0  0  0  0
M  END
>  <MODEL>
4

>  <REMARK>
 VINA RESULT:      -6.1      1.534      1.924
  Name = 
  10 active torsions:
  status: ('A' for Active; 'I' for Inactive)
    1  A    between atoms: C_1  and  N_28
    2  A    between atoms: C_1  and  C_37
    3  A    between atoms: C_3  and  C_33
    4  A    between atoms: C_3  and  C_37
    5  A    between atoms: C_6  and  C_11
    6  A    between atoms: C_9  and  C_10
    7  A    between atoms: C_9  and  N_23
    8  A    between atoms: C_11  and  N_28
    9  A    between atoms: C_17  and  O_21
   10  A    between atoms: C_25  and  C_36
                            x       y       z     vdW  Elec       q    Type
                         _______ _______ _______ _____ _____    ______ ____

>  <TORSDO>
F 10

$$$$
=
 OpenBabel11062413133D

 42 46  0  0  1  0  0  0  0  0999 V2000
  186.4380  176.7290  137.4820 C   0  0  0  0  0  2  0  0  0  0  0  0
  186.9670  178.9120  142.2190 N   0  0  0  0  0  0  0  0  0  0  0  0
  187.9010  174.1520  135.7510 C   0  0  0  0  0  1  0  0  0  0  0  0
  192.0450  176.6010  139.2170 C   0  0  0  0  0  1  0  0  0  0  0  0
  187.4160  178.1130  139.9930 C   0  0  0  0  0  0  0  0  0  0  0  0
  189.9130  177.3130  140.8500 N   0  0  0  0  0  0  0  0  0  0  0  0
  190.6510  176.6040  138.6030 C   0  0  1  0  0  3  0  0  0  0  0  0
  187.8070  176.3400  134.5940 C   0  0  0  0  0  1  0  0  0  0  0  0
  189.5920  177.1360  139.5390 C   0  0  0  0  0  0  0  0  0  0  0  0
  185.3370  179.2670  140.5180 C   0  0  0  0  0  3  0  0  0  0  0  0
  189.0590  177.8430  141.7580 C   0  0  0  0  0  0  0  0  0  0  0  0
  185.7550  179.3940  141.8390 C   0  0  0  0  0  3  0  0  0  0  0  0
  188.6230  176.1450  136.9730 N   0  0  2  0  0  0  0  0  0  0  0  0
  187.8660  177.2020  137.6200 C   0  0  2  0  0  3  0  0  0  0  0  0
  188.2800  177.4440  139.0810 C   0  0  0  0  0  0  0  0  0  0  0  0
  187.8040  178.2920  141.3400 C   0  0  0  0  0  0  0  0  0  0  0  0
  189.8940  176.6890  136.4350 C   0  0  1  0  0  3  0  0  0  0  0  0
  186.3660  175.8270  136.4100 O   0  0  0  0  0  0  0  0  0  0  0  0
  190.6710  177.3560  137.4150 O   0  0  0  0  0  0  0  0  0  0  0  0
  186.1700  178.6310  139.6010 C   0  0  0  0  0  3  0  0  0  0  0  0
  187.6810  175.6400  135.9510 C   0  0  0  0  0  0  0  0  0  0  0  0
  189.9100  175.7020  143.8240 C   0  0  0  0  0  2  0  0  0  0  0  0
  191.7170  177.4460  144.3530 C   0  0  1  0  0  3  0  0  0  0  0  0
  189.0860  176.8820  144.0780 N   0  0  0  0  0  0  0  0  0  0  0  0
  191.3630  175.9560  144.2510 C   0  0  0  0  0  2  0  0  0  0  0  0
  191.0100  178.2560  143.2560 C   0  0  1  0  0  3  0  0  0  0  0  0
  189.4950  177.9990  143.1970 C   0  0  1  0  0  3  0  0  0  0  0  0
  191.2580  179.6200  143.4140 O   0  0  0  0  0  1  0  0  0  0  0  0
  191.6600  176.8810  146.4960 C   0  0  0  0  0  1  0  0  0  0  0  0
  191.3670  177.9280  145.6180 O   0  0  0  0  0  0  0  0  0  0  0  0
  187.6840  176.5300  143.8770 C   0  0  0  0  0  2  0  0  0  0  0  0
  185.5760  177.5590  144.7140 O   0  0  0  0  0  0  0  0  0  0  0  0
  186.8590  177.1020  144.9760 C   0  0  0  0  0  0  0  0  0  0  0  0
  187.3390  177.2070  146.1340 O   0  0  0  0  0  1  0  0  0  0  0  0
  190.7250  175.6550  135.6580 C   0  0  0  0  0  2  0  0  0  0  0  0
  192.2150  175.9690  135.6470 C   0  0  0  0  0  2  0  0  0  0  0  0
  192.9830  174.8430  136.3110 C   0  0  0  0  0  2  0  0  0  0  0  0
  194.2580  174.6490  135.6400 N   0  0  0  0  0  2  0  0  0  0  0  0
  195.2990  174.8780  136.6290 C   0  0  0  0  0  2  0  0  0  0  0  0
  194.8640  174.3790  138.0020 C   0  0  1  0  0  3  0  0  0  0  0  0
  195.3850  172.9780  138.2670 C   0  0  0  0  0  1  0  0  0  0  0  0
  195.3090  175.2560  138.9950 O   0  0  0  0  0  1  0  0  0  0  0  0
  3 21  1  0  0  0  0
  5 16  1  0  0  0  0
  6 11  2  0  0  0  0
  7  4  1  1  0  0  0
  7  9  1  0  0  0  0
  8 21  1  0  0  0  0
  9  6  1  0  0  0  0
 10 12  2  0  0  0  0
 12  2  1  0  0  0  0
 13 21  1  6  0  0  0
 13 14  1  0  0  0  0
 14  1  1  1  0  0  0
 14 15  1  0  0  0  0
 15  9  2  0  0  0  0
 15  5  1  0  0  0  0
 16 11  1  0  0  0  0
 16  2  2  0  0  0  0
 17 35  1  1  0  0  0
 17 13  1  0  0  0  0
 17 19  1  0  0  0  0
 18  1  1  0  0  0  0
 19  7  1  0  0  0  0
 20  5  2  0  0  0  0
 20 10  1  0  0  0  0
 21 18  1  0  0  0  0
 22 24  1  0  0  0  0
 22 25  1  0  0  0  0
 23 30  1  1  0  0  0
 25 23  1  0  0  0  0
 26 28  1  1  0  0  0
 26 23  1  0  0  0  0
 27 11  1  6  0  0  0
 27 26  1  0  0  0  0
 27 24  1  0  0  0  0
 30 29  1  0  0  0  0
 31 24  1  0  0  0  0
 31 33  1  0  0  0  0
 32 33  2  0  0  0  0
 33 34  1  0  0  0  0
 36 35  1  0  0  0  0
 36 37  1  0  0  0  0
 38 37  1  0  0  0  0
 38 39  1  0  0  0  0
 39 40  1  0  0  0  0
 40 41  1  1  0  0  0
 40 42  1  0  0  0  0
M  END
>  <MODEL>
5

>  <REMARK>
 VINA RESULT:      -5.7      3.356      8.359
  Name = 
  10 active torsions:
  status: ('A' for Active; 'I' for Inactive)
    1  A    between atoms: C_1  and  N_28
    2  A    between atoms: C_1  and  C_37
    3  A    between atoms: C_3  and  C_33
    4  A    between atoms: C_3  and  C_37
    5  A    between atoms: C_6  and  C_11
    6  A    between atoms: C_9  and  C_10
    7  A    between atoms: C_9  and  N_23
    8  A    between atoms: C_11  and  N_28
    9  A    between atoms: C_17  and  O_21
   10  A    between atoms: C_25  and  C_36
                            x       y       z     vdW  Elec       q    Type
                         _______ _______ _______ _____ _____    ______ ____

>  <TORSDO>
F 10

$$$$
=
 OpenBabel11062413133D

 42 46  0  0  1  0  0  0  0  0999 V2000
  183.4270  178.8120  145.2240 C   0  0  0  0  0  2  0  0  0  0  0  0
  180.9420  179.0970  140.6160 N   0  0  0  0  0  0  0  0  0  0  0  0
  186.4170  179.9000  146.5110 C   0  0  0  0  0  1  0  0  0  0  0  0
  187.2580  178.6260  140.7790 C   0  0  0  0  0  1  0  0  0  0  0  0
  182.5740  178.6300  142.3230 C   0  0  0  0  0  0  0  0  0  0  0  0
  184.5590  179.2230  140.5000 N   0  0  0  0  0  0  0  0  0  0  0  0
  186.3950  178.6110  142.0340 C   0  0  1  0  0  3  0  0  0  0  0  0
  185.9050  177.4940  146.8030 C   0  0  0  0  0  1  0  0  0  0  0  0
  184.9260  178.8140  141.7450 C   0  0  0  0  0  0  0  0  0  0  0  0
  180.1960  178.3080  142.7370 C   0  0  0  0  0  3  0  0  0  0  0  0
  183.2670  179.3730  140.1200 C   0  0  0  0  0  0  0  0  0  0  0  0
  179.9240  178.7460  141.4450 C   0  0  0  0  0  3  0  0  0  0  0  0
  185.6430  178.6330  144.5670 N   0  0  2  0  0  0  0  0  0  0  0  0
  184.3170  178.1880  144.1750 C   0  0  2  0  0  3  0  0  0  0  0  0
  183.9340  178.5950  142.7430 C   0  0  0  0  0  0  0  0  0  0  0  0
  182.2450  179.0410  141.0110 C   0  0  0  0  0  0  0  0  0  0  0  0
  186.6610  177.6560  144.1060 C   0  0  1  0  0  3  0  0  0  0  0  0
  184.2000  179.0880  146.3620 O   0  0  0  0  0  0  0  0  0  0  0  0
  186.5920  177.3960  142.7140 O   0  0  0  0  0  0  0  0  0  0  0  0
  181.5200  178.2480  143.1690 C   0  0  0  0  0  3  0  0  0  0  0  0
  185.5280  178.7660  146.0350 C   0  0  0  0  0  0  0  0  0  0  0  0
  181.7670  177.9240  137.8320 C   0  0  0  0  0  2  0  0  0  0  0  0
  180.7030  180.2410  137.5450 C   0  0  1  0  0  3  0  0  0  0  0  0
  182.9600  178.7590  137.7030 N   0  0  0  0  0  0  0  0  0  0  0  0
  180.5070  178.7210  137.4650 C   0  0  0  0  0  2  0  0  0  0  0  0
  181.6230  180.6170  138.7160 C   0  0  1  0  0  3  0  0  0  0  0  0
  182.9480  179.8380  138.7170 C   0  0  1  0  0  3  0  0  0  0  0  0
  181.8750  181.9900  138.7240 O   0  0  0  0  0  1  0  0  0  0  0  0
  180.3420  180.2650  135.3580 C   0  0  0  0  0  1  0  0  0  0  0  0
  181.2300  180.7130  136.3380 O   0  0  0  0  0  0  0  0  0  0  0  0
  184.1430  177.9150  137.8360 C   0  0  0  0  0  2  0  0  0  0  0  0
  184.0890  175.5640  137.0170 O   0  0  0  0  0  1  0  0  0  0  0  0
  184.1750  176.9180  136.7310 C   0  0  0  0  0  0  0  0  0  0  0  0
  184.3180  177.3010  135.5410 O   0  0  0  0  0  0  0  0  0  0  0  0
  188.0910  178.0030  144.5500 C   0  0  0  0  0  2  0  0  0  0  0  0
  189.1430  177.0660  143.9730 C   0  0  0  0  0  2  0  0  0  0  0  0
  190.3420  177.8660  143.5010 C   0  0  0  0  0  2  0  0  0  0  0  0
  191.3140  177.9820  144.5750 N   0  0  0  0  0  2  0  0  0  0  0  0
  191.5070  176.6490  145.1220 C   0  0  0  0  0  2  0  0  0  0  0  0
  191.6820  176.7020  146.6350 C   0  0  1  0  0  3  0  0  0  0  0  0
  190.3400  176.7530  147.3420 C   0  0  0  0  0  1  0  0  0  0  0  0
  192.4160  175.5960  147.0730 O   0  0  0  0  0  1  0  0  0  0  0  0
  1 18  1  0  0  0  0
  2 16  2  0  0  0  0
  2 12  1  0  0  0  0
  5 15  1  0  0  0  0
  5 20  2  0  0  0  0
  6  9  1  0  0  0  0
  7  4  1  6  0  0  0
  7 19  1  0  0  0  0
  9  7  1  0  0  0  0
  9 15  2  0  0  0  0
 10 20  1  0  0  0  0
 11  6  2  0  0  0  0
 11 16  1  0  0  0  0
 12 10  2  0  0  0  0
 13 21  1  1  0  0  0
 14 13  1  0  0  0  0
 14  1  1  1  0  0  0
 15 14  1  0  0  0  0
 16  5  1  0  0  0  0
 17 35  1  6  0  0  0
 17 13  1  0  0  0  0
 19 17  1  0  0  0  0
 21 18  1  0  0  0  0
 21  3  1  0  0  0  0
 21  8  1  0  0  0  0
 23 30  1  6  0  0  0
 23 26  1  0  0  0  0
 24 22  1  0  0  0  0
 24 31  1  0  0  0  0
 24 27  1  0  0  0  0
 25 23  1  0  0  0  0
 25 22  1  0  0  0  0
 26 27  1  0  0  0  0
 26 28  1  6  0  0  0
 27 11  1  1  0  0  0
 29 30  1  0  0  0  0
 33 32  1  0  0  0  0
 33 31  1  0  0  0  0
 34 33  2  0  0  0  0
 36 35  1  0  0  0  0
 37 36  1  0  0  0  0
 37 38  1  0  0  0  0
 38 39  1  0  0  0  0
 39 40  1  0  0  0  0
 40 42  1  0  0  0  0
 40 41  1  1  0  0  0
M  END
>  <MODEL>
6

>  <REMARK>
 VINA RESULT:      -5.7      2.165      4.608
  Name = 
  10 active torsions:
  status: ('A' for Active; 'I' for Inactive)
    1  A    between atoms: C_1  and  N_28
    2  A    between atoms: C_1  and  C_37
    3  A    between atoms: C_3  and  C_33
    4  A    between atoms: C_3  and  C_37
    5  A    between atoms: C_6  and  C_11
    6  A    between atoms: C_9  and  C_10
    7  A    between atoms: C_9  and  N_23
    8  A    between atoms: C_11  and  N_28
    9  A    between atoms: C_17  and  O_21
   10  A    between atoms: C_25  and  C_36
                            x       y       z     vdW  Elec       q    Type
                         _______ _______ _______ _____ _____    ______ ____

>  <TORSDO>
F 10

$$$$
=
 OpenBabel11062413133D

 42 46  0  0  1  0  0  0  0  0999 V2000
  188.7290  177.5040  139.9320 C   0  0  0  0  0  2  0  0  0  0  0  0
  185.7960  177.6680  135.5900 N   0  0  0  0  0  0  0  0  0  0  0  0
  188.3640  176.3390  143.1410 C   0  0  0  0  0  1  0  0  0  0  0  0
  183.0610  178.2340  141.2770 C   0  0  0  0  0  1  0  0  0  0  0  0
  186.5900  177.9800  137.8410 C   0  0  0  0  0  0  0  0  0  0  0  0
  184.0050  177.6210  138.7360 N   0  0  0  0  0  0  0  0  0  0  0  0
  184.5670  178.0990  141.0930 C   0  0  1  0  0  3  0  0  0  0  0  0
  189.1060  178.6910  142.9020 C   0  0  0  0  0  1  0  0  0  0  0  0
  184.9720  177.9020  139.6510 C   0  0  0  0  0  0  0  0  0  0  0  0
  188.0900  178.2120  135.9370 C   0  0  0  0  0  3  0  0  0  0  0  0
  184.2530  177.4890  137.4110 C   0  0  0  0  0  0  0  0  0  0  0  0
  187.0340  177.9100  135.0830 C   0  0  0  0  0  3  0  0  0  0  0  0
  187.1420  177.7930  141.5980 N   0  0  2  0  0  0  0  0  0  0  0  0
  187.4580  178.2530  140.2570 C   0  0  2  0  0  3  0  0  0  0  0  0
  186.3330  177.9950  139.2410 C   0  0  0  0  0  0  0  0  0  0  0  0
  185.5460  177.7050  136.9290 C   0  0  0  0  0  0  0  0  0  0  0  0
  186.3660  178.8320  142.3190 C   0  0  1  0  0  3  0  0  0  0  0  0
  189.3440  177.1220  141.1340 O   0  0  0  0  0  0  0  0  0  0  0  0
  185.2000  179.2380  141.6230 O   0  0  0  0  0  0  0  0  0  0  0  0
  187.8620  178.2500  137.3110 C   0  0  0  0  0  3  0  0  0  0  0  0
  188.4740  177.5020  142.1710 C   0  0  0  0  0  0  0  0  0  0  0  0
  182.0170  175.3600  137.6250 C   0  0  0  0  0  2  0  0  0  0  0  0
  180.5760  177.3040  136.7740 C   0  0  1  0  0  3  0  0  0  0  0  0
  182.7510  175.7370  136.4190 N   0  0  0  0  0  0  0  0  0  0  0  0
  180.6510  176.0580  137.6670 C   0  0  0  0  0  2  0  0  0  0  0  0
  181.9100  178.0670  136.7800 C   0  0  1  0  0  3  0  0  0  0  0  0
  183.1180  177.1710  136.4640 C   0  0  1  0  0  3  0  0  0  0  0  0
  181.8660  179.1420  135.8920 O   0  0  0  0  0  1  0  0  0  0  0  0
  178.9310  177.4080  135.2920 C   0  0  0  0  0  1  0  0  0  0  0  0
  180.2320  176.9310  135.4710 O   0  0  0  0  0  0  0  0  0  0  0  0
  183.9330  174.8870  136.3010 C   0  0  0  0  0  2  0  0  0  0  0  0
  183.9840  172.5410  137.1350 O   0  0  0  0  0  1  0  0  0  0  0  0
  183.5170  173.4610  136.2070 C   0  0  0  0  0  0  0  0  0  0  0  0
  182.7730  173.0820  135.2660 O   0  0  0  0  0  0  0  0  0  0  0  0
  186.0580  178.4650  143.7800 C   0  0  0  0  0  2  0  0  0  0  0  0
  184.9810  179.3420  144.4040 C   0  0  0  0  0  2  0  0  0  0  0  0
  184.8310  179.0060  145.8750 C   0  0  0  0  0  2  0  0  0  0  0  0
  185.8230  178.0160  146.2610 N   0  0  0  0  0  2  0  0  0  0  0  0
  186.6680  178.6300  147.2730 C   0  0  0  0  0  2  0  0  0  0  0  0
  187.7600  177.6690  147.7260 C   0  0  1  0  0  3  0  0  0  0  0  0
  188.7780  177.4360  146.6240 C   0  0  0  0  0  1  0  0  0  0  0  0
  188.3920  178.1650  148.8700 O   0  0  0  0  0  1  0  0  0  0  0  0
  1 18  1  0  0  0  0
  2 16  1  0  0  0  0
  5 15  1  0  0  0  0
  6  9  1  0  0  0  0
  7  4  1  6  0  0  0
  7 19  1  0  0  0  0
  9  7  1  0  0  0  0
 10 20  2  0  0  0  0
 11  6  2  0  0  0  0
 12  2  2  0  0  0  0
 12 10  1  0  0  0  0
 13 21  1  1  0  0  0
 13 17  1  0  0  0  0
 14  1  1  6  0  0  0
 14 13  1  0  0  0  0
 15  9  2  0  0  0  0
 15 14  1  0  0  0  0
 16 11  1  0  0  0  0
 16  5  2  0  0  0  0
 17 35  1  1  0  0  0
 18 21  1  0  0  0  0
 19 17  1  0  0  0  0
 20  5  1  0  0  0  0
 21  8  1  0  0  0  0
 21  3  1  0  0  0  0
 22 25  1  0  0  0  0
 23 30  1  6  0  0  0
 23 26  1  0  0  0  0
 23 25  1  0  0  0  0
 24 27  1  0  0  0  0
 24 22  1  0  0  0  0
 26 28  1  6  0  0  0
 27 26  1  0  0  0  0
 27 11  1  1  0  0  0
 29 30  1  0  0  0  0
 31 24  1  0  0  0  0
 33 31  1  0  0  0  0
 33 32  1  0  0  0  0
 34 33  2  0  0  0  0
 35 36  1  0  0  0  0
 36 37  1  0  0  0  0
 37 38  1  0  0  0  0
 38 39  1  0  0  0  0
 39 40  1  0  0  0  0
 40 41  1  6  0  0  0
 40 42  1  0  0  0  0
M  END
>  <MODEL>
7

>  <REMARK>
 VINA RESULT:      -5.7      2.326      3.104
  Name = 
  10 active torsions:
  status: ('A' for Active; 'I' for Inactive)
    1  A    between atoms: C_1  and  N_28
    2  A    between atoms: C_1  and  C_37
    3  A    between atoms: C_3  and  C_33
    4  A    between atoms: C_3  and  C_37
    5  A    between atoms: C_6  and  C_11
    6  A    between atoms: C_9  and  C_10
    7  A    between atoms: C_9  and  N_23
    8  A    between atoms: C_11  and  N_28
    9  A    between atoms: C_17  and  O_21
   10  A    between atoms: C_25  and  C_36
                            x       y       z     vdW  Elec       q    Type
                         _______ _______ _______ _____ _____    ______ ____

>  <TORSDO>
F 10

$$$$
=
 OpenBabel11062413133D

 42 46  0  0  1  0  0  0  0  0999 V2000
  181.7950  178.5700  144.0280 C   0  0  0  0  0  2  0  0  0  0  0  0
  186.9440  178.0000  144.8340 N   0  0  0  0  0  0  0  0  0  0  0  0
  179.5210  177.5740  141.6570 C   0  0  0  0  0  1  0  0  0  0  0  0
  184.7050  178.5080  138.9290 C   0  0  0  0  0  1  0  0  0  0  0  0
  184.8200  178.5750  143.8590 C   0  0  0  0  0  0  0  0  0  0  0  0
  185.8360  177.8840  141.3890 N   0  0  0  0  0  0  0  0  0  0  0  0
  183.8140  178.5950  140.1620 C   0  0  1  0  0  3  0  0  0  0  0  0
  179.5570  179.9910  142.2000 C   0  0  0  0  0  1  0  0  0  0  0  0
  184.5650  178.3680  141.4520 C   0  0  0  0  0  0  0  0  0  0  0  0
  185.2440  178.9100  146.2330 C   0  0  0  0  0  3  0  0  0  0  0  0
  186.6170  177.7050  142.4810 C   0  0  0  0  0  0  0  0  0  0  0  0
  186.5250  178.3950  146.0650 C   0  0  0  0  0  3  0  0  0  0  0  0
  181.6820  178.7200  141.7170 N   0  0  2  0  0  0  0  0  0  0  0  0
  182.5190  179.1350  142.8290 C   0  0  2  0  0  3  0  0  0  0  0  0
  183.9720  178.6410  142.7180 C   0  0  0  0  0  0  0  0  0  0  0  0
  186.1400  178.0850  143.7370 C   0  0  0  0  0  0  0  0  0  0  0  0
  181.8310  179.6730  140.5890 C   0  0  1  0  0  3  0  0  0  0  0  0
  180.4500  178.3660  143.6840 O   0  0  0  0  0  0  0  0  0  0  0  0
  183.1780  179.8480  140.1840 O   0  0  0  0  0  0  0  0  0  0  0  0
  184.3990  179.0010  145.1290 C   0  0  0  0  0  3  0  0  0  0  0  0
  180.3320  178.6740  142.3180 C   0  0  0  0  0  0  0  0  0  0  0  0
  189.3560  179.0240  143.0660 C   0  0  0  0  0  2  0  0  0  0  0  0
  189.8600  176.7080  144.0460 C   0  0  1  0  0  3  0  0  0  0  0  0
  189.0240  178.1680  141.9280 N   0  0  0  0  0  0  0  0  0  0  0  0
  190.0860  178.2220  144.1520 C   0  0  0  0  0  2  0  0  0  0  0  0
  188.4260  176.3950  143.5920 C   0  0  1  0  0  3  0  0  0  0  0  0
  188.0160  177.1560  142.3200 C   0  0  1  0  0  3  0  0  0  0  0  0
  188.2570  175.0230  143.4030 O   0  0  0  0  0  1  0  0  0  0  0  0
  191.7550  175.5610  143.9690 C   0  0  0  0  0  1  0  0  0  0  0  0
  190.7860  176.1530  143.1560 O   0  0  0  0  0  0  0  0  0  0  0  0
  188.5420  179.0040  140.8330 C   0  0  0  0  0  2  0  0  0  0  0  0
  190.0590  177.5140  139.5370 O   0  0  0  0  0  1  0  0  0  0  0  0
  189.0820  178.4990  139.5410 C   0  0  0  0  0  0  0  0  0  0  0  0
  188.6810  178.9910  138.4550 O   0  0  0  0  0  0  0  0  0  0  0  0
  180.9150  179.3590  139.3950 C   0  0  0  0  0  2  0  0  0  0  0  0
  181.3620  180.0290  138.1030 C   0  0  0  0  0  2  0  0  0  0  0  0
  181.5510  178.9850  137.0190 C   0  0  0  0  0  2  0  0  0  0  0  0
  181.1750  177.6740  137.5230 N   0  0  0  0  0  2  0  0  0  0  0  0
  182.1140  176.7170  136.9610 C   0  0  0  0  0  2  0  0  0  0  0  0
  182.5240  175.6820  138.0020 C   0  0  1  0  0  3  0  0  0  0  0  0
  181.6260  175.7460  139.2240 C   0  0  0  0  0  1  0  0  0  0  0  0
  182.4900  174.4000  137.4450 O   0  0  0  0  0  1  0  0  0  0  0  0
  2 12  1  0  0  0  0
  3 21  1  0  0  0  0
  5 20  2  0  0  0  0
  6  9  1  0  0  0  0
  6 11  2  0  0  0  0
  7  4  1  6  0  0  0
  7 19  1  0  0  0  0
  7  9  1  0  0  0  0
  8 21  1  0  0  0  0
  9 15  2  0  0  0  0
 11 16  1  0  0  0  0
 12 10  2  0  0  0  0
 13 21  1  1  0  0  0
 13 14  1  0  0  0  0
 14  1  1  1  0  0  0
 15 14  1  0  0  0  0
 15  5  1  0  0  0  0
 16  5  1  0  0  0  0
 16  2  2  0  0  0  0
 17 35  1  6  0  0  0
 17 13  1  0  0  0  0
 18  1  1  0  0  0  0
 19 17  1  0  0  0  0
 20 10  1  0  0  0  0
 21 18  1  0  0  0  0
 22 25  1  0  0  0  0
 23 30  1  6  0  0  0
 23 25  1  0  0  0  0
 24 27  1  0  0  0  0
 24 22  1  0  0  0  0
 26 28  1  6  0  0  0
 26 23  1  0  0  0  0
 27 11  1  1  0  0  0
 27 26  1  0  0  0  0
 30 29  1  0  0  0  0
 31 24  1  0  0  0  0
 32 33  1  0  0  0  0
 33 31  1  0  0  0  0
 34 33  2  0  0  0  0
 36 35  1  0  0  0  0
 37 38  1  0  0  0  0
 37 36  1  0  0  0  0
 39 38  1  0  0  0  0
 39 40  1  0  0  0  0
 40 41  1  1  0  0  0
 42 40  1  0  0  0  0
M  END
>  <MODEL>
8

>  <REMARK>
 VINA RESULT:      -5.7      2.390      9.114
  Name = 
  10 active torsions:
  status: ('A' for Active; 'I' for Inactive)
    1  A    between atoms: C_1  and  N_28
    2  A    between atoms: C_1  and  C_37
    3  A    between atoms: C_3  and  C_33
    4  A    between atoms: C_3  and  C_37
    5  A    between atoms: C_6  and  C_11
    6  A    between atoms: C_9  and  C_10
    7  A    between atoms: C_9  and  N_23
    8  A    between atoms: C_11  and  N_28
    9  A    between atoms: C_17  and  O_21
   10  A    between atoms: C_25  and  C_36
                            x       y       z     vdW  Elec       q    Type
                         _______ _______ _______ _____ _____    ______ ____

>  <TORSDO>
F 10

$$$$
=
 OpenBabel11062413133D

 42 46  0  0  1  0  0  0  0  0999 V2000
  184.4700  179.3560  143.7460 C   0  0  0  0  0  2  0  0  0  0  0  0
  185.8900  178.7840  138.7320 N   0  0  0  0  0  0  0  0  0  0  0  0
  186.0580  179.9460  146.7320 C   0  0  0  0  0  1  0  0  0  0  0  0
  189.6850  176.6880  143.3530 C   0  0  0  0  0  1  0  0  0  0  0  0
  185.6730  178.4740  141.1100 C   0  0  0  0  0  0  0  0  0  0  0  0
  188.3630  177.8730  141.2160 N   0  0  0  0  0  0  0  0  0  0  0  0
  188.3250  177.3200  143.6220 C   0  0  1  0  0  3  0  0  0  0  0  0
  184.5200  178.0040  146.6690 C   0  0  0  0  0  1  0  0  0  0  0  0
  187.6420  177.8100  142.3680 C   0  0  0  0  0  0  0  0  0  0  0  0
  183.7320  178.9680  139.7240 C   0  0  0  0  0  3  0  0  0  0  0  0
  187.8300  178.2370  140.0240 C   0  0  0  0  0  0  0  0  0  0  0  0
  184.5570  179.0150  138.6050 C   0  0  0  0  0  3  0  0  0  0  0  0
  186.2470  178.3740  144.8660 N   0  0  2  0  0  0  0  0  0  0  0  0
  185.4450  178.2050  143.6670 C   0  0  2  0  0  3  0  0  0  0  0  0
  186.2740  178.2090  142.3720 C   0  0  0  0  0  0  0  0  0  0  0  0
  186.4630  178.5080  139.9380 C   0  0  0  0  0  0  0  0  0  0  0  0
  186.7830  177.0620  145.3050 C   0  0  1  0  0  3  0  0  0  0  0  0
  184.3690  179.7670  145.0840 O   0  0  0  0  0  0  0  0  0  0  0  0
  187.5080  176.3900  144.2880 O   0  0  0  0  0  0  0  0  0  0  0  0
  184.2920  178.6940  140.9700 C   0  0  0  0  0  3  0  0  0  0  0  0
  185.3010  179.0060  145.8110 C   0  0  0  0  0  0  0  0  0  0  0  0
  188.7630  175.9570  138.1500 C   0  0  0  0  0  2  0  0  0  0  0  0
  188.2120  177.6970  136.3480 C   0  0  1  0  0  3  0  0  0  0  0  0
  189.5620  177.0910  138.6110 N   0  0  0  0  0  0  0  0  0  0  0  0
  188.2300  176.2120  136.7330 C   0  0  0  0  0  2  0  0  0  0  0  0
  187.8460  178.5750  137.5530 C   0  0  1  0  0  3  0  0  0  0  0  0
  188.7070  178.2860  138.7940 C   0  0  1  0  0  3  0  0  0  0  0  0
  187.9280  179.9280  137.2200 O   0  0  0  0  0  1  0  0  0  0  0  0
  189.7290  177.1290  134.8340 C   0  0  0  0  0  1  0  0  0  0  0  0
  189.4600  178.0660  135.8340 O   0  0  0  0  0  0  0  0  0  0  0  0
  190.2340  176.7210  139.8530 C   0  0  0  0  0  2  0  0  0  0  0  0
  192.3710  176.7620  138.5750 O   0  0  0  0  0  0  0  0  0  0  0  0
  191.6860  177.0330  139.7500 C   0  0  0  0  0  0  0  0  0  0  0  0
  192.3000  177.5070  140.7410 O   0  0  0  0  0  1  0  0  0  0  0  0
  187.5780  177.1310  146.6190 C   0  0  0  0  0  2  0  0  0  0  0  0
  188.8720  177.9240  146.4970 C   0  0  0  0  0  2  0  0  0  0  0  0
  189.4180  178.2350  147.8760 C   0  0  0  0  0  2  0  0  0  0  0  0
  190.6570  177.5070  148.0950 N   0  0  0  0  0  2  0  0  0  0  0  0
  190.5590  176.2640  147.3470 C   0  0  0  0  0  2  0  0  0  0  0  0
  191.8780  175.5020  147.3840 C   0  0  1  0  0  3  0  0  0  0  0  0
  192.4300  175.2900  145.9860 C   0  0  0  0  0  1  0  0  0  0  0  0
  192.8070  176.1890  148.1710 O   0  0  0  0  0  1  0  0  0  0  0  0
  1 18  1  0  0  0  0
  2 16  1  0  0  0  0
  5 15  1  0  0  0  0
  6  9  1  0  0  0  0
  7  4  1  6  0  0  0
  7 19  1  0  0  0  0
  9 15  2  0  0  0  0
  9  7  1  0  0  0  0
 10 20  2  0  0  0  0
 11  6  2  0  0  0  0
 12  2  2  0  0  0  0
 12 10  1  0  0  0  0
 13 17  1  0  0  0  0
 13 21  1  1  0  0  0
 14  1  1  6  0  0  0
 14 13  1  0  0  0  0
 15 14  1  0  0  0  0
 16 11  1  0  0  0  0
 16  5  2  0  0  0  0
 17 35  1  1  0  0  0
 18 21  1  0  0  0  0
 19 17  1  0  0  0  0
 20  5  1  0  0  0  0
 21  8  1  0  0  0  0
 21  3  1  0  0  0  0
 22 24  1  0  0  0  0
 23 30  1  1  0  0  0
 23 25  1  0  0  0  0
 23 26  1  0  0  0  0
 24 27  1  0  0  0  0
 24 31  1  0  0  0  0
 25 22  1  0  0  0  0
 26 28  1  6  0  0  0
 26 27  1  0  0  0  0
 27 11  1  1  0  0  0
 29 30  1  0  0  0  0
 32 33  2  0  0  0  0
 33 31  1  0  0  0  0
 33 34  1  0  0  0  0
 36 35  1  0  0  0  0
 36 37  1  0  0  0  0
 37 38  1  0  0  0  0
 39 40  1  0  0  0  0
 39 38  1  0  0  0  0
 40 41  1  6  0  0  0
 40 42  1  0  0  0  0
M  END
>  <MODEL>
9

>  <REMARK>
 VINA RESULT:      -5.4      2.425      5.385
  Name = 
  10 active torsions:
  status: ('A' for Active; 'I' for Inactive)
    1  A    between atoms: C_1  and  N_28
    2  A    between atoms: C_1  and  C_37
    3  A    between atoms: C_3  and  C_33
    4  A    between atoms: C_3  and  C_37
    5  A    between atoms: C_6  and  C_11
    6  A    between atoms: C_9  and  C_10
    7  A    between atoms: C_9  and  N_23
    8  A    between atoms: C_11  and  N_28
    9  A    between atoms: C_17  and  O_21
   10  A    between atoms: C_25  and  C_36
                            x       y       z     vdW  Elec       q    Type
                         _______ _______ _______ _____ _____    ______ ____

>  <TORSDO>
F 10

$$$$
