=
 OpenBabel11062413453D

 35 41  0  0  1  0  0  0  0  0999 V2000
  185.3950  178.6700  143.2780 C   0  0  1  0  0  0  0  0  0  0  0  0
  183.0060  179.0330  144.5410 N   0  0  0  0  0  2  0  0  0  0  0  0
  185.5360  178.7540  141.7930 C   0  0  0  0  0  2  0  0  0  0  0  0
  181.8810  178.9310  142.3670 C   0  0  0  0  0  0  0  0  0  0  0  0
  183.9930  178.6940  143.8040 C   0  0  1  0  0  3  0  0  0  0  0  0
  184.3450  178.0790  142.4350 C   0  0  2  0  0  0  0  0  0  0  0  0
  181.7090  178.8640  143.8910 C   0  0  0  0  0  2  0  0  0  0  0  0
  183.0900  178.6240  141.7250 C   0  0  0  0  0  0  0  0  0  0  0  0
  180.9150  179.1780  141.4650 N   0  0  0  0  0  0  0  0  0  0  0  0
  182.8270  178.6430  140.4020 N   0  0  0  0  0  0  0  0  0  0  0  0
  181.5260  178.9930  140.2690 C   0  0  0  0  0  3  0  0  0  0  0  0
  184.3990  177.0550  137.5110 C   0  0  1  0  0  3  0  0  0  0  0  0
  182.5740  174.4910  136.9620 O   0  0  0  0  0  1  0  0  0  0  0  0
  184.8930  178.8070  138.9470 C   0  0  0  0  0  3  0  0  0  0  0  0
  183.2180  177.1880  138.3770 C   0  0  2  0  0  3  0  0  0  0  0  0
  183.6070  174.8530  137.8320 C   0  0  1  0  0  3  0  0  0  0  0  0
  181.7550  175.5100  139.2600 O   0  0  0  0  0  1  0  0  0  0  0  0
  185.3240  177.9800  137.7820 C   0  0  0  0  0  0  0  0  0  0  0  0
  184.6480  175.6550  137.0540 C   0  0  2  0  0  3  0  0  0  0  0  0
  183.6410  178.1820  139.3500 N   0  0  0  0  0  0  0  0  0  0  0  0
  183.0870  175.7880  138.9410 C   0  0  2  0  0  3  0  0  0  0  0  0
  185.9050  175.2230  137.4390 F   0  0  0  0  0  0  0  0  0  0  0  0
  186.7280  177.9590  137.2580 C   0  0  0  0  0  2  0  0  0  0  0  0
  188.5580  179.0160  138.3770 O   0  0  0  0  0  1  0  0  0  0  0  0
  187.7350  177.8900  138.3940 C   0  0  0  0  0  2  0  0  0  0  0  0
  186.1630  177.5700  143.8420 N   0  0  0  0  0  2  0  0  0  0  0  0
  187.0760  178.2570  147.4600 C   0  0  0  0  0  3  0  0  0  0  0  0
  188.5220  178.0870  147.8010 C   0  0  2  0  0  3  0  0  0  0  0  0
  188.3450  177.4330  144.7080 C   0  0  0  0  0  3  0  0  0  0  0  0
  187.0590  177.7180  144.9480 C   0  0  0  0  0  0  0  0  0  0  0  0
  190.3660  176.6080  147.6190 F   0  0  0  0  0  0  0  0  0  0  0  0
  189.4990  177.5440  145.6480 C   0  0  0  0  0  2  0  0  0  0  0  0
  186.4920  178.1190  146.2640 C   0  0  0  0  0  3  0  0  0  0  0  0
  189.1800  176.9750  147.0090 C   0  0  2  0  0  3  0  0  0  0  0  0
  188.6330  177.8440  149.1590 F   0  0  0  0  0  0  0  0  0  0  0  0
  1  5  1  0  0  0  0
  1 26  1  1  0  0  0
  3  1  1  0  0  0  0
  4  7  1  0  0  0  0
  5  2  1  6  0  0  0
  6  3  1  6  0  0  0
  6  1  1  0  0  0  0
  6  5  1  0  0  0  0
  7  2  1  0  0  0  0
  8  4  2  0  0  0  0
  8  6  1  0  0  0  0
  9  4  1  0  0  0  0
 10  8  1  0  0  0  0
 11 10  1  0  0  0  0
 11  9  2  0  0  0  0
 12 18  1  1  0  0  0
 12 15  1  0  0  0  0
 14 20  1  0  0  0  0
 15 21  1  0  0  0  0
 15 20  1  1  0  0  0
 16 13  1  6  0  0  0
 16 21  1  0  0  0  0
 18 14  2  0  0  0  0
 19 22  1  1  0  0  0
 19 12  1  0  0  0  0
 19 16  1  0  0  0  0
 20 10  1  0  0  0  0
 21 17  1  6  0  0  0
 23 18  1  0  0  0  0
 23 25  1  0  0  0  0
 24 25  1  0  0  0  0
 26 30  1  0  0  0  0
 27 28  1  0  0  0  0
 28 35  1  1  0  0  0
 29 30  2  0  0  0  0
 29 32  1  0  0  0  0
 30 33  1  0  0  0  0
 32 34  1  0  0  0  0
 33 27  2  0  0  0  0
 34 31  1  1  0  0  0
 34 28  1  0  0  0  0
M  END
>  <MODEL>
1

>  <REMARK>
 VINA RESULT:      -9.8      0.000      0.000
  Name = 
  5 active torsions:
  status: ('A' for Active; 'I' for Inactive)
    1  A    between atoms: C_3  and  N_4
    2  A    between atoms: N_4  and  C_19
    3  A    between atoms: C_18  and  C_31
    4  A    between atoms: N_23  and  N_34
    5  A    between atoms: C_24  and  C_31
                            x       y       z     vdW  Elec       q    Type
                         _______ _______ _______ _____ _____    ______ ____

>  <TORSDO>
F 5

$$$$
=
 OpenBabel11062413453D

 35 41  0  0  1  0  0  0  0  0999 V2000
  185.5950  178.4470  143.3580 C   0  0  1  0  0  0  0  0  0  0  0  0
  183.2580  178.9230  144.6780 N   0  0  0  0  0  2  0  0  0  0  0  0
  185.7170  178.5750  141.8750 C   0  0  0  0  0  2  0  0  0  0  0  0
  182.0920  178.9750  142.5240 C   0  0  0  0  0  0  0  0  0  0  0  0
  184.2070  178.5460  143.9110 C   0  0  1  0  0  3  0  0  0  0  0  0
  184.4940  177.9590  142.5150 C   0  0  2  0  0  0  0  0  0  0  0  0
  181.9410  178.8650  144.0480 C   0  0  0  0  0  2  0  0  0  0  0  0
  183.2670  178.6120  141.8490 C   0  0  0  0  0  0  0  0  0  0  0  0
  181.1300  179.3190  141.6500 N   0  0  0  0  0  0  0  0  0  0  0  0
  182.9840  178.6970  140.5330 N   0  0  0  0  0  0  0  0  0  0  0  0
  181.7080  179.1370  140.4360 C   0  0  0  0  0  3  0  0  0  0  0  0
  184.4060  177.0920  137.5730 C   0  0  1  0  0  3  0  0  0  0  0  0
  182.4700  174.6050  137.0500 O   0  0  0  0  0  1  0  0  0  0  0  0
  185.0090  178.8050  139.0160 C   0  0  0  0  0  3  0  0  0  0  0  0
  183.2580  177.2560  138.4780 C   0  0  2  0  0  3  0  0  0  0  0  0
  183.5420  174.9160  137.8910 C   0  0  1  0  0  3  0  0  0  0  0  0
  181.7620  175.6220  139.3850 O   0  0  0  0  0  1  0  0  0  0  0  0
  185.3720  177.9790  137.8270 C   0  0  0  0  0  0  0  0  0  0  0  0
  184.5880  175.6900  137.0910 C   0  0  2  0  0  3  0  0  0  0  0  0
  183.7470  178.2210  139.4500 N   0  0  0  0  0  0  0  0  0  0  0  0
  183.0920  175.8540  139.0280 C   0  0  2  0  0  3  0  0  0  0  0  0
  185.8400  175.2070  137.4310 F   0  0  0  0  0  0  0  0  0  0  0  0
  186.7580  177.9130  137.2590 C   0  0  0  0  0  2  0  0  0  0  0  0
  188.5490  178.9960  138.4150 O   0  0  0  0  0  1  0  0  0  0  0  0
  187.7980  177.8210  138.3630 C   0  0  0  0  0  2  0  0  0  0  0  0
  186.2960  177.2790  143.8690 N   0  0  0  0  0  2  0  0  0  0  0  0
  189.7650  176.1440  142.8330 C   0  0  0  0  0  3  0  0  0  0  0  0
  190.8930  176.7110  143.6350 C   0  0  2  0  0  3  0  0  0  0  0  0
  188.2830  177.9470  144.9350 C   0  0  0  0  0  3  0  0  0  0  0  0
  187.7210  177.1970  143.9790 C   0  0  0  0  0  0  0  0  0  0  0  0
  191.8080  178.7270  144.4830 F   0  0  0  0  0  0  0  0  0  0  0  0
  189.7260  178.0230  145.3090 C   0  0  0  0  0  2  0  0  0  0  0  0
  188.4530  176.3420  143.0050 C   0  0  0  0  0  3  0  0  0  0  0  0
  190.6220  178.1280  144.0990 C   0  0  2  0  0  3  0  0  0  0  0  0
  192.0470  176.6640  142.8740 F   0  0  0  0  0  0  0  0  0  0  0  0
  1 26  1  1  0  0  0
  1  5  1  0  0  0  0
  3  1  1  0  0  0  0
  4  7  1  0  0  0  0
  5  2  1  6  0  0  0
  6  3  1  1  0  0  0
  6  1  1  0  0  0  0
  6  5  1  0  0  0  0
  7  2  1  0  0  0  0
  8  6  1  0  0  0  0
  8  4  2  0  0  0  0
  9  4  1  0  0  0  0
 10  8  1  0  0  0  0
 11 10  1  0  0  0  0
 11  9  2  0  0  0  0
 12 18  1  1  0  0  0
 12 15  1  0  0  0  0
 14 20  1  0  0  0  0
 15 21  1  0  0  0  0
 15 20  1  1  0  0  0
 16 13  1  6  0  0  0
 16 21  1  0  0  0  0
 18 14  2  0  0  0  0
 19 22  1  1  0  0  0
 19 12  1  0  0  0  0
 19 16  1  0  0  0  0
 20 10  1  0  0  0  0
 21 17  1  6  0  0  0
 23 18  1  0  0  0  0
 23 25  1  0  0  0  0
 25 24  1  0  0  0  0
 26 30  1  0  0  0  0
 27 33  2  0  0  0  0
 27 28  1  0  0  0  0
 28 35  1  6  0  0  0
 28 34  1  0  0  0  0
 29 32  1  0  0  0  0
 30 29  2  0  0  0  0
 33 30  1  0  0  0  0
 34 31  1  1  0  0  0
 34 32  1  0  0  0  0
M  END
>  <MODEL>
2

>  <REMARK>
 VINA RESULT:      -9.3      1.487      2.137
  Name = 
  5 active torsions:
  status: ('A' for Active; 'I' for Inactive)
    1  A    between atoms: C_3  and  N_4
    2  A    between atoms: N_4  and  C_19
    3  A    between atoms: C_18  and  C_31
    4  A    between atoms: N_23  and  N_34
    5  A    between atoms: C_24  and  C_31
                            x       y       z     vdW  Elec       q    Type
                         _______ _______ _______ _____ _____    ______ ____

>  <TORSDO>
F 5

$$$$
=
 OpenBabel11062413453D

 35 41  0  0  1  0  0  0  0  0999 V2000
  189.1870  177.2810  141.8200 C   0  0  1  0  0  0  0  0  0  0  0  0
  189.9680  177.8860  139.2790 N   0  0  0  0  0  2  0  0  0  0  0  0
  187.7500  177.1730  142.2110 C   0  0  0  0  0  2  0  0  0  0  0  0
  187.6500  178.4680  138.7420 C   0  0  0  0  0  0  0  0  0  0  0  0
  189.4530  177.8130  140.4460 C   0  0  1  0  0  3  0  0  0  0  0  0
  188.2320  178.2580  141.2760 C   0  0  2  0  0  0  0  0  0  0  0  0
  189.1190  178.5730  138.3090 C   0  0  0  0  0  2  0  0  0  0  0  0
  187.2640  178.2750  140.0770 C   0  0  0  0  0  0  0  0  0  0  0  0
  186.5720  178.6450  137.9580 N   0  0  0  0  0  0  0  0  0  0  0  0
  185.9190  178.3840  140.0970 N   0  0  0  0  0  0  0  0  0  0  0  0
  185.5250  178.5880  138.8190 C   0  0  0  0  0  3  0  0  0  0  0  0
  183.2770  178.3380  142.6220 C   0  0  1  0  0  3  0  0  0  0  0  0
  180.6430  177.6350  140.9580 O   0  0  0  0  0  1  0  0  0  0  0  0
  185.5210  178.9210  142.5400 C   0  0  0  0  0  3  0  0  0  0  0  0
  183.7220  177.9700  141.2700 C   0  0  2  0  0  3  0  0  0  0  0  0
  181.4260  178.7630  141.2170 C   0  0  1  0  0  3  0  0  0  0  0  0
  182.5540  178.0670  139.1810 O   0  0  0  0  0  1  0  0  0  0  0  0
  184.2780  178.8250  143.3610 C   0  0  0  0  0  0  0  0  0  0  0  0
  181.8420  178.7470  142.6870 C   0  0  2  0  0  3  0  0  0  0  0  0
  185.0760  178.4980  141.2190 N   0  0  0  0  0  0  0  0  0  0  0  0
  182.7330  178.7220  140.4020 C   0  0  2  0  0  3  0  0  0  0  0  0
  181.7140  180.0290  143.1890 F   0  0  0  0  0  0  0  0  0  0  0  0
  184.1030  179.5170  144.6790 C   0  0  0  0  0  2  0  0  0  0  0  0
  184.5940  178.5930  146.8300 O   0  0  0  0  0  1  0  0  0  0  0  0
  185.1790  179.0940  145.6670 C   0  0  0  0  0  2  0  0  0  0  0  0
  189.9810  177.9710  142.8260 N   0  0  0  0  0  2  0  0  0  0  0  0
  191.7210  176.5710  145.8930 C   0  0  0  0  0  3  0  0  0  0  0  0
  190.9010  176.5520  147.1450 C   0  0  2  0  0  3  0  0  0  0  0  0
  188.9750  177.7630  144.9420 C   0  0  0  0  0  3  0  0  0  0  0  0
  190.0630  177.5510  144.1920 C   0  0  0  0  0  0  0  0  0  0  0  0
  189.5150  177.8760  148.5390 F   0  0  0  0  0  0  0  0  0  0  0  0
  188.7590  177.3870  146.3700 C   0  0  0  0  0  2  0  0  0  0  0  0
  191.3470  176.9700  144.6720 C   0  0  0  0  0  3  0  0  0  0  0  0
  189.9490  177.7280  147.2340 C   0  0  2  0  0  3  0  0  0  0  0  0
  191.7540  176.5370  148.2340 F   0  0  0  0  0  0  0  0  0  0  0  0
  1  3  1  0  0  0  0
  1 26  1  1  0  0  0
  4  8  2  0  0  0  0
  5  2  1  6  0  0  0
  5  6  1  0  0  0  0
  5  1  1  0  0  0  0
  6  1  1  0  0  0  0
  6  3  1  6  0  0  0
  7  4  1  0  0  0  0
  7  2  1  0  0  0  0
  8 10  1  0  0  0  0
  8  6  1  0  0  0  0
  9  4  1  0  0  0  0
  9 11  2  0  0  0  0
 10 20  1  0  0  0  0
 11 10  1  0  0  0  0
 12 19  1  0  0  0  0
 12 18  1  6  0  0  0
 14 18  2  0  0  0  0
 15 20  1  6  0  0  0
 15 12  1  0  0  0  0
 16 13  1  6  0  0  0
 16 19  1  0  0  0  0
 18 23  1  0  0  0  0
 19 22  1  6  0  0  0
 20 14  1  0  0  0  0
 21 17  1  6  0  0  0
 21 16  1  0  0  0  0
 21 15  1  0  0  0  0
 23 25  1  0  0  0  0
 25 24  1  0  0  0  0
 26 30  1  0  0  0  0
 27 28  1  0  0  0  0
 28 34  1  0  0  0  0
 28 35  1  1  0  0  0
 29 32  1  0  0  0  0
 30 33  1  0  0  0  0
 30 29  2  0  0  0  0
 32 34  1  0  0  0  0
 33 27  2  0  0  0  0
 34 31  1  1  0  0  0
M  END
>  <MODEL>
3

>  <REMARK>
 VINA RESULT:      -8.8      2.962      5.342
  Name = 
  5 active torsions:
  status: ('A' for Active; 'I' for Inactive)
    1  A    between atoms: C_3  and  N_4
    2  A    between atoms: N_4  and  C_19
    3  A    between atoms: C_18  and  C_31
    4  A    between atoms: N_23  and  N_34
    5  A    between atoms: C_24  and  C_31
                            x       y       z     vdW  Elec       q    Type
                         _______ _______ _______ _____ _____    ______ ____

>  <TORSDO>
F 5

$$$$
=
 OpenBabel11062413453D

 35 41  0  0  1  0  0  0  0  0999 V2000
  188.9500  177.9820  141.5760 C   0  0  1  0  0  0  0  0  0  0  0  0
  186.4080  178.9630  141.6630 N   0  0  0  0  0  2  0  0  0  0  0  0
  189.6690  177.7360  140.2900 C   0  0  0  0  0  2  0  0  0  0  0  0
  186.2190  178.5920  139.2480 C   0  0  0  0  0  0  0  0  0  0  0  0
  187.4990  178.3310  141.4570 C   0  0  1  0  0  3  0  0  0  0  0  0
  188.2040  177.4010  140.4500 C   0  0  2  0  0  0  0  0  0  0  0  0
  185.4610  178.8680  140.5540 C   0  0  0  0  0  2  0  0  0  0  0  0
  187.4800  177.9760  139.2180 C   0  0  0  0  0  0  0  0  0  0  0  0
  185.7610  178.7960  138.0010 N   0  0  0  0  0  0  0  0  0  0  0  0
  187.7600  177.7640  137.9150 N   0  0  0  0  0  0  0  0  0  0  0  0
  186.7280  178.2760  137.2050 C   0  0  0  0  0  3  0  0  0  0  0  0
  189.9220  175.3350  136.2470 C   0  0  1  0  0  3  0  0  0  0  0  0
  187.9930  172.8490  135.6950 O   0  0  0  0  0  1  0  0  0  0  0  0
  190.1890  177.3790  137.3100 C   0  0  0  0  0  3  0  0  0  0  0  0
  188.5590  175.7820  136.5710 C   0  0  2  0  0  3  0  0  0  0  0  0
  188.7240  173.3660  136.7680 C   0  0  1  0  0  3  0  0  0  0  0  0
  186.6370  174.5170  137.2330 O   0  0  0  0  0  1  0  0  0  0  0  0
  190.8420  176.2340  136.6090 C   0  0  0  0  0  0  0  0  0  0  0  0
  190.0790  173.8490  136.2540 C   0  0  2  0  0  3  0  0  0  0  0  0
  188.7900  176.9760  137.3680 N   0  0  0  0  0  0  0  0  0  0  0  0
  188.0250  174.6040  137.3610 C   0  0  2  0  0  3  0  0  0  0  0  0
  191.0520  173.4570  137.1570 F   0  0  0  0  0  0  0  0  0  0  0  0
  192.3170  175.9740  136.6480 C   0  0  0  0  0  2  0  0  0  0  0  0
  194.1810  175.7870  138.1350 O   0  0  0  0  0  1  0  0  0  0  0  0
  192.8980  176.3190  138.0100 C   0  0  0  0  0  2  0  0  0  0  0  0
  189.1700  176.9150  142.5420 N   0  0  0  0  0  2  0  0  0  0  0  0
  188.3230  177.5940  146.1770 C   0  0  0  0  0  3  0  0  0  0  0  0
  189.4880  177.6180  147.1150 C   0  0  2  0  0  3  0  0  0  0  0  0
  190.7590  177.0570  144.2690 C   0  0  0  0  0  3  0  0  0  0  0  0
  189.4700  177.1490  143.9210 C   0  0  0  0  0  0  0  0  0  0  0  0
  191.4200  176.4220  147.7910 F   0  0  0  0  0  0  0  0  0  0  0  0
  191.3650  177.2960  145.6120 C   0  0  0  0  0  2  0  0  0  0  0  0
  188.3390  177.4190  144.8500 C   0  0  0  0  0  3  0  0  0  0  0  0
  190.5740  176.6390  146.7180 C   0  0  2  0  0  3  0  0  0  0  0  0
  189.0350  177.3450  148.3930 F   0  0  0  0  0  0  0  0  0  0  0  0
  1 26  1  1  0  0  0
  3  1  1  0  0  0  0
  4  7  1  0  0  0  0
  5  1  1  0  0  0  0
  5  2  1  6  0  0  0
  6  3  1  6  0  0  0
  6  5  1  0  0  0  0
  6  1  1  0  0  0  0
  7  2  1  0  0  0  0
  8  4  2  0  0  0  0
  8  6  1  0  0  0  0
  9  4  1  0  0  0  0
 10  8  1  0  0  0  0
 11 10  1  0  0  0  0
 11  9  2  0  0  0  0
 12 19  1  0  0  0  0
 12 15  1  0  0  0  0
 12 18  1  1  0  0  0
 14 20  1  0  0  0  0
 15 21  1  0  0  0  0
 15 20  1  1  0  0  0
 16 13  1  6  0  0  0
 16 21  1  0  0  0  0
 18 23  1  0  0  0  0
 18 14  2  0  0  0  0
 19 16  1  0  0  0  0
 19 22  1  1  0  0  0
 20 10  1  0  0  0  0
 21 17  1  6  0  0  0
 23 25  1  0  0  0  0
 25 24  1  0  0  0  0
 26 30  1  0  0  0  0
 27 28  1  0  0  0  0
 28 35  1  1  0  0  0
 29 32  1  0  0  0  0
 30 29  2  0  0  0  0
 30 33  1  0  0  0  0
 32 34  1  0  0  0  0
 33 27  2  0  0  0  0
 34 28  1  0  0  0  0
 34 31  1  1  0  0  0
M  END
>  <MODEL>
4

>  <REMARK>
 VINA RESULT:      -8.7      3.419      4.719
  Name = 
  5 active torsions:
  status: ('A' for Active; 'I' for Inactive)
    1  A    between atoms: C_3  and  N_4
    2  A    between atoms: N_4  and  C_19
    3  A    between atoms: C_18  and  C_31
    4  A    between atoms: N_23  and  N_34
    5  A    between atoms: C_24  and  C_31
                            x       y       z     vdW  Elec       q    Type
                         _______ _______ _______ _____ _____    ______ ____

>  <TORSDO>
F 5

$$$$
=
 OpenBabel11062413453D

 35 41  0  0  1  0  0  0  0  0999 V2000
  186.0110  178.9870  142.2710 C   0  0  1  0  0  0  0  0  0  0  0  0
  184.8330  179.2930  144.7110 N   0  0  0  0  0  2  0  0  0  0  0  0
  185.2260  178.9750  141.0000 C   0  0  0  0  0  2  0  0  0  0  0  0
  182.6450  178.9700  143.6570 C   0  0  0  0  0  0  0  0  0  0  0  0
  185.2080  178.9630  143.5350 C   0  0  1  0  0  3  0  0  0  0  0  0
  184.7240  178.2760  142.2430 C   0  0  2  0  0  0  0  0  0  0  0  0
  183.4270  179.0000  144.9780 C   0  0  0  0  0  2  0  0  0  0  0  0
  183.2510  178.6920  142.4220 C   0  0  0  0  0  0  0  0  0  0  0  0
  181.3140  179.0940  143.5140 N   0  0  0  0  0  0  0  0  0  0  0  0
  182.2480  178.6030  141.5250 N   0  0  0  0  0  0  0  0  0  0  0  0
  181.1010  178.8630  142.1950 C   0  0  0  0  0  3  0  0  0  0  0  0
  182.3400  178.0080  137.9200 C   0  0  1  0  0  3  0  0  0  0  0  0
  181.1890  180.7130  136.6710 O   0  0  0  0  0  1  0  0  0  0  0  0
  182.6950  176.7620  139.8440 C   0  0  0  0  0  3  0  0  0  0  0  0
  182.2370  178.9700  139.0270 C   0  0  2  0  0  3  0  0  0  0  0  0
  180.6800  179.5500  137.2560 C   0  0  1  0  0  3  0  0  0  0  0  0
  180.8170  180.8820  139.2830 O   0  0  0  0  0  1  0  0  0  0  0  0
  182.6440  176.7800  138.3530 C   0  0  0  0  0  0  0  0  0  0  0  0
  181.4790  178.3520  136.7490 C   0  0  2  0  0  3  0  0  0  0  0  0
  182.3070  178.1190  140.2040 N   0  0  0  0  0  0  0  0  0  0  0  0
  180.8700  179.5780  138.7840 C   0  0  2  0  0  3  0  0  0  0  0  0
  180.5940  177.3270  136.4660 F   0  0  0  0  0  0  0  0  0  0  0  0
  182.5710  175.5410  137.5130 C   0  0  0  0  0  2  0  0  0  0  0  0
  184.3870  173.9920  137.6620 O   0  0  0  0  0  1  0  0  0  0  0  0
  183.9480  175.1420  137.0060 C   0  0  0  0  0  2  0  0  0  0  0  0
  187.0590  177.9780  142.2800 N   0  0  0  0  0  2  0  0  0  0  0  0
  188.4590  177.1720  145.7130 C   0  0  0  0  0  3  0  0  0  0  0  0
  189.9270  177.4070  145.8800 C   0  0  2  0  0  3  0  0  0  0  0  0
  189.3110  178.2640  142.8940 C   0  0  0  0  0  3  0  0  0  0  0  0
  188.0800  177.9090  143.2810 C   0  0  0  0  0  0  0  0  0  0  0  0
  192.0510  176.9810  144.9170 F   0  0  0  0  0  0  0  0  0  0  0  0
  190.5480  178.3370  143.7270 C   0  0  0  0  0  2  0  0  0  0  0  0
  187.7070  177.4070  144.6320 C   0  0  0  0  0  3  0  0  0  0  0  0
  190.7090  177.1260  144.6130 C   0  0  2  0  0  3  0  0  0  0  0  0
  190.3880  176.6180  146.9180 F   0  0  0  0  0  0  0  0  0  0  0  0
  1 26  1  1  0  0  0
  1  5  1  0  0  0  0
  2  7  1  0  0  0  0
  3  1  1  0  0  0  0
  4  7  1  0  0  0  0
  5  2  1  6  0  0  0
  6  3  1  6  0  0  0
  6  1  1  0  0  0  0
  6  8  1  0  0  0  0
  6  5  1  0  0  0  0
  8  4  2  0  0  0  0
  9  4  1  0  0  0  0
 10 11  1  0  0  0  0
 10  8  1  0  0  0  0
 11  9  2  0  0  0  0
 12 18  1  1  0  0  0
 12 15  1  0  0  0  0
 14 20  1  0  0  0  0
 15 20  1  1  0  0  0
 16 13  1  6  0  0  0
 16 21  1  0  0  0  0
 18 14  2  0  0  0  0
 19 22  1  1  0  0  0
 19 16  1  0  0  0  0
 19 12  1  0  0  0  0
 20 10  1  0  0  0  0
 21 15  1  0  0  0  0
 21 17  1  6  0  0  0
 23 18  1  0  0  0  0
 25 23  1  0  0  0  0
 25 24  1  0  0  0  0
 26 30  1  0  0  0  0
 27 28  1  0  0  0  0
 28 35  1  1  0  0  0
 29 30  2  0  0  0  0
 29 32  1  0  0  0  0
 30 33  1  0  0  0  0
 32 34  1  0  0  0  0
 33 27  2  0  0  0  0
 34 31  1  1  0  0  0
 34 28  1  0  0  0  0
M  END
>  <MODEL>
5

>  <REMARK>
 VINA RESULT:      -8.5      2.339      3.294
  Name = 
  5 active torsions:
  status: ('A' for Active; 'I' for Inactive)
    1  A    between atoms: C_3  and  N_4
    2  A    between atoms: N_4  and  C_19
    3  A    between atoms: C_18  and  C_31
    4  A    between atoms: N_23  and  N_34
    5  A    between atoms: C_24  and  C_31
                            x       y       z     vdW  Elec       q    Type
                         _______ _______ _______ _____ _____    ______ ____

>  <TORSDO>
F 5

$$$$
=
 OpenBabel11062413453D

 35 41  0  0  1  0  0  0  0  0999 V2000
  185.2900  179.0190  145.0310 C   0  0  1  0  0  0  0  0  0  0  0  0
  182.7120  179.0520  144.1430 N   0  0  0  0  0  2  0  0  0  0  0  0
  186.4570  179.0820  144.1010 C   0  0  0  0  0  2  0  0  0  0  0  0
  183.5310  178.7210  141.8580 C   0  0  0  0  0  0  0  0  0  0  0  0
  183.9500  178.8460  144.3870 C   0  0  1  0  0  3  0  0  0  0  0  0
  185.2350  178.2530  143.7770 C   0  0  2  0  0  0  0  0  0  0  0  0
  182.3130  178.6720  142.7910 C   0  0  0  0  0  2  0  0  0  0  0  0
  184.8490  178.5820  142.3220 C   0  0  0  0  0  0  0  0  0  0  0  0
  183.5070  178.7940  140.5160 N   0  0  0  0  0  0  0  0  0  0  0  0
  185.6280  178.5250  141.2220 N   0  0  0  0  0  0  0  0  0  0  0  0
  184.8080  178.6710  140.1550 C   0  0  0  0  0  3  0  0  0  0  0  0
  189.1580  177.9800  140.4500 C   0  0  1  0  0  3  0  0  0  0  0  0
  189.4260  178.9120  137.4060 O   0  0  0  0  0  1  0  0  0  0  0  0
  187.7240  177.5000  142.2080 C   0  0  0  0  0  3  0  0  0  0  0  0
  187.8850  178.6240  140.0950 C   0  0  2  0  0  3  0  0  0  0  0  0
  188.9890  177.7820  138.1020 C   0  0  1  0  0  3  0  0  0  0  0  0
  186.8400  178.9060  137.9580 O   0  0  0  0  0  1  0  0  0  0  0  0
  189.1020  177.3900  141.6470 C   0  0  0  0  0  0  0  0  0  0  0  0
  189.9430  177.5190  139.2650 C   0  0  2  0  0  3  0  0  0  0  0  0
  186.9860  178.1630  141.1410 N   0  0  0  0  0  0  0  0  0  0  0  0
  187.6030  178.0270  138.7310 C   0  0  2  0  0  3  0  0  0  0  0  0
  190.1860  176.1580  139.3300 F   0  0  0  0  0  0  0  0  0  0  0  0
  190.1370  176.4440  142.1780 C   0  0  0  0  0  2  0  0  0  0  0  0
  191.7440  176.4780  143.9480 O   0  0  0  0  0  1  0  0  0  0  0  0
  191.2740  177.1970  142.8500 C   0  0  0  0  0  2  0  0  0  0  0  0
  185.4960  178.0640  146.1090 N   0  0  0  0  0  2  0  0  0  0  0  0
  189.1110  176.9130  146.0420 C   0  0  0  0  0  3  0  0  0  0  0  0
  189.8540  177.0520  147.3320 C   0  0  2  0  0  3  0  0  0  0  0  0
  186.9370  178.1090  147.9670 C   0  0  0  0  0  3  0  0  0  0  0  0
  186.7780  177.7800  146.6790 C   0  0  0  0  0  0  0  0  0  0  0  0
  190.3700  178.5620  149.0860 F   0  0  0  0  0  0  0  0  0  0  0  0
  188.1360  177.8870  148.8280 C   0  0  0  0  0  2  0  0  0  0  0  0
  187.8270  177.2020  145.7970 C   0  0  0  0  0  3  0  0  0  0  0  0
  189.4170  178.2660  148.1270 C   0  0  2  0  0  3  0  0  0  0  0  0
  191.2090  177.1140  147.0610 F   0  0  0  0  0  0  0  0  0  0  0  0
  1 26  1  1  0  0  0
  3  1  1  0  0  0  0
  4  8  2  0  0  0  0
  4  7  1  0  0  0  0
  5  2  1  6  0  0  0
  5  1  1  0  0  0  0
  6  3  1  6  0  0  0
  6  5  1  0  0  0  0
  6  1  1  0  0  0  0
  7  2  1  0  0  0  0
  8  6  1  0  0  0  0
  9  4  1  0  0  0  0
 10  8  1  0  0  0  0
 11  9  2  0  0  0  0
 11 10  1  0  0  0  0
 12 18  1  1  0  0  0
 15 12  1  0  0  0  0
 15 20  1  1  0  0  0
 16 13  1  1  0  0  0
 16 21  1  0  0  0  0
 16 19  1  0  0  0  0
 18 23  1  0  0  0  0
 18 14  2  0  0  0  0
 19 22  1  1  0  0  0
 19 12  1  0  0  0  0
 20 10  1  0  0  0  0
 20 14  1  0  0  0  0
 21 17  1  6  0  0  0
 21 15  1  0  0  0  0
 23 25  1  0  0  0  0
 25 24  1  0  0  0  0
 26 30  1  0  0  0  0
 27 28  1  0  0  0  0
 28 35  1  6  0  0  0
 28 34  1  0  0  0  0
 29 32  1  0  0  0  0
 30 29  2  0  0  0  0
 33 27  2  0  0  0  0
 33 30  1  0  0  0  0
 34 32  1  0  0  0  0
 34 31  1  1  0  0  0
M  END
>  <MODEL>
6

>  <REMARK>
 VINA RESULT:      -8.3      2.506      4.093
  Name = 
  5 active torsions:
  status: ('A' for Active; 'I' for Inactive)
    1  A    between atoms: C_3  and  N_4
    2  A    between atoms: N_4  and  C_19
    3  A    between atoms: C_18  and  C_31
    4  A    between atoms: N_23  and  N_34
    5  A    between atoms: C_24  and  C_31
                            x       y       z     vdW  Elec       q    Type
                         _______ _______ _______ _____ _____    ______ ____

>  <TORSDO>
F 5

$$$$
=
 OpenBabel11062413453D

 35 41  0  0  1  0  0  0  0  0999 V2000
  185.0050  178.9110  143.6490 C   0  0  1  0  0  0  0  0  0  0  0  0
  182.3380  178.9280  143.0820 N   0  0  0  0  0  2  0  0  0  0  0  0
  186.0480  179.1060  142.5980 C   0  0  0  0  0  2  0  0  0  0  0  0
  182.8800  178.8450  140.6940 C   0  0  0  0  0  0  0  0  0  0  0  0
  183.6010  178.7480  143.1550 C   0  0  1  0  0  3  0  0  0  0  0  0
  184.8180  178.2650  142.3410 C   0  0  2  0  0  0  0  0  0  0  0  0
  181.7870  178.6610  141.7560 C   0  0  0  0  0  2  0  0  0  0  0  0
  184.2480  178.7140  140.9830 C   0  0  0  0  0  0  0  0  0  0  0  0
  182.6900  179.0440  139.3780 N   0  0  0  0  0  0  0  0  0  0  0  0
  184.8880  178.7910  139.7970 N   0  0  0  0  0  0  0  0  0  0  0  0
  183.9400  179.0050  138.8550 C   0  0  0  0  0  3  0  0  0  0  0  0
  188.1780  177.9870  138.4230 C   0  0  1  0  0  3  0  0  0  0  0  0
  187.5340  176.9000  135.4890 O   0  0  0  0  0  1  0  0  0  0  0  0
  187.3210  178.6270  140.4810 C   0  0  0  0  0  3  0  0  0  0  0  0
  186.7510  178.2510  138.1820 C   0  0  2  0  0  3  0  0  0  0  0  0
  187.5150  176.4070  136.7970 C   0  0  1  0  0  3  0  0  0  0  0  0
  185.2060  177.1570  136.7150 O   0  0  0  0  0  1  0  0  0  0  0  0
  188.5240  178.2380  139.6890 C   0  0  0  0  0  0  0  0  0  0  0  0
  188.7450  176.9260  137.5380 C   0  0  2  0  0  3  0  0  0  0  0  0
  186.2350  178.4910  139.5200 N   0  0  0  0  0  0  0  0  0  0  0  0
  186.2930  176.9440  137.5670 C   0  0  2  0  0  3  0  0  0  0  0  0
  189.2740  175.8880  138.2840 F   0  0  0  0  0  0  0  0  0  0  0  0
  189.8270  177.8330  140.3100 C   0  0  0  0  0  2  0  0  0  0  0  0
  190.8280  176.9690  142.3030 O   0  0  0  0  0  1  0  0  0  0  0  0
  189.6070  177.1660  141.6590 C   0  0  0  0  0  2  0  0  0  0  0  0
  185.3670  177.8670  144.5960 N   0  0  0  0  0  2  0  0  0  0  0  0
  187.1610  178.5670  147.8650 C   0  0  0  0  0  3  0  0  0  0  0  0
  188.6190  178.2330  147.8820 C   0  0  2  0  0  3  0  0  0  0  0  0
  187.6600  177.4940  144.9560 C   0  0  0  0  0  3  0  0  0  0  0  0
  186.5050  177.9430  145.4600 C   0  0  0  0  0  0  0  0  0  0  0  0
  190.1950  176.5340  147.3840 F   0  0  0  0  0  0  0  0  0  0  0  0
  189.0050  177.4960  145.6030 C   0  0  0  0  0  2  0  0  0  0  0  0
  186.3050  178.4590  146.8420 C   0  0  0  0  0  3  0  0  0  0  0  0
  188.9480  177.0210  147.0350 C   0  0  2  0  0  3  0  0  0  0  0  0
  189.0120  178.0280  149.1920 F   0  0  0  0  0  0  0  0  0  0  0  0
  1 26  1  1  0  0  0
  3  1  1  0  0  0  0
  4  8  2  0  0  0  0
  4  7  1  0  0  0  0
  5  2  1  6  0  0  0
  5  1  1  0  0  0  0
  6  3  1  6  0  0  0
  6  5  1  0  0  0  0
  6  1  1  0  0  0  0
  7  2  1  0  0  0  0
  8  6  1  0  0  0  0
  9  4  1  0  0  0  0
 10  8  1  0  0  0  0
 11  9  2  0  0  0  0
 11 10  1  0  0  0  0
 12 18  1  1  0  0  0
 15 12  1  0  0  0  0
 15 20  1  1  0  0  0
 16 13  1  6  0  0  0
 16 19  1  0  0  0  0
 16 21  1  0  0  0  0
 18 23  1  0  0  0  0
 18 14  2  0  0  0  0
 19 22  1  1  0  0  0
 19 12  1  0  0  0  0
 20 10  1  0  0  0  0
 20 14  1  0  0  0  0
 21 17  1  6  0  0  0
 21 15  1  0  0  0  0
 23 25  1  0  0  0  0
 25 24  1  0  0  0  0
 26 30  1  0  0  0  0
 27 28  1  0  0  0  0
 28 35  1  1  0  0  0
 29 30  2  0  0  0  0
 29 32  1  0  0  0  0
 30 33  1  0  0  0  0
 32 34  1  0  0  0  0
 33 27  2  0  0  0  0
 34 31  1  1  0  0  0
 34 28  1  0  0  0  0
M  END
>  <MODEL>
7

>  <REMARK>
 VINA RESULT:      -8.2      1.886      2.793
  Name = 
  5 active torsions:
  status: ('A' for Active; 'I' for Inactive)
    1  A    between atoms: C_3  and  N_4
    2  A    between atoms: N_4  and  C_19
    3  A    between atoms: C_18  and  C_31
    4  A    between atoms: N_23  and  N_34
    5  A    between atoms: C_24  and  C_31
                            x       y       z     vdW  Elec       q    Type
                         _______ _______ _______ _____ _____    ______ ____

>  <TORSDO>
F 5

$$$$
=
 OpenBabel11062413453D

 35 41  0  0  1  0  0  0  0  0999 V2000
  190.0260  176.9580  142.1450 C   0  0  1  0  0  0  0  0  0  0  0  0
  192.6770  177.2170  141.5620 N   0  0  0  0  0  2  0  0  0  0  0  0
  189.0180  176.5510  141.1210 C   0  0  0  0  0  2  0  0  0  0  0  0
  192.1360  177.0340  139.1800 C   0  0  0  0  0  0  0  0  0  0  0  0
  191.4020  177.2490  141.6290 C   0  0  1  0  0  3  0  0  0  0  0  0
  190.1370  177.5110  140.7870 C   0  0  2  0  0  0  0  0  0  0  0  0
  193.1960  177.4370  140.2140 C   0  0  0  0  0  2  0  0  0  0  0  0
  190.7620  177.0220  139.4660 C   0  0  0  0  0  0  0  0  0  0  0  0
  192.3530  176.7510  137.8830 N   0  0  0  0  0  0  0  0  0  0  0  0
  190.1390  176.7690  138.2960 N   0  0  0  0  0  0  0  0  0  0  0  0
  191.1080  176.5940  137.3680 C   0  0  0  0  0  3  0  0  0  0  0  0
  186.6130  176.3820  137.4140 C   0  0  1  0  0  3  0  0  0  0  0  0
  186.5100  173.5720  135.8990 O   0  0  0  0  0  1  0  0  0  0  0  0
  187.9530  178.0490  138.3130 C   0  0  0  0  0  3  0  0  0  0  0  0
  187.9340  175.7600  137.5940 C   0  0  2  0  0  3  0  0  0  0  0  0
  186.8560  174.8930  135.5970 C   0  0  1  0  0  3  0  0  0  0  0  0
  189.0690  174.1350  136.2510 O   0  0  0  0  0  1  0  0  0  0  0  0
  186.5920  177.6430  137.8550 C   0  0  0  0  0  0  0  0  0  0  0  0
  185.8470  175.8300  136.2580 C   0  0  2  0  0  3  0  0  0  0  0  0
  188.7660  176.8800  138.0040 N   0  0  0  0  0  0  0  0  0  0  0  0
  188.2290  175.2500  136.1980 C   0  0  2  0  0  3  0  0  0  0  0  0
  185.5240  176.8270  135.3550 F   0  0  0  0  0  0  0  0  0  0  0  0
  185.4860  178.6190  137.5870 C   0  0  0  0  0  2  0  0  0  0  0  0
  184.5550  180.1280  139.1910 O   0  0  0  0  0  1  0  0  0  0  0  0
  184.5970  178.7880  138.8080 C   0  0  0  0  0  2  0  0  0  0  0  0
  189.5380  178.0260  143.0050 N   0  0  0  0  0  2  0  0  0  0  0  0
  189.3160  177.5170  146.7570 C   0  0  0  0  0  3  0  0  0  0  0  0
  187.9310  177.3990  147.3100 C   0  0  2  0  0  3  0  0  0  0  0  0
  187.5240  177.7680  144.1900 C   0  0  0  0  0  3  0  0  0  0  0  0
  188.8610  177.7960  144.2440 C   0  0  0  0  0  0  0  0  0  0  0  0
  185.7880  178.4140  147.3230 F   0  0  0  0  0  0  0  0  0  0  0  0
  186.5680  177.5000  145.3050 C   0  0  0  0  0  2  0  0  0  0  0  0
  189.6820  177.6600  145.4780 C   0  0  0  0  0  3  0  0  0  0  0  0
  186.9310  178.2570  146.5600 C   0  0  2  0  0  3  0  0  0  0  0  0
  187.9550  177.7450  148.6490 F   0  0  0  0  0  0  0  0  0  0  0  0
  1 26  1  1  0  0  0
  3  1  1  0  0  0  0
  4  8  2  0  0  0  0
  4  7  1  0  0  0  0
  5  2  1  6  0  0  0
  5  1  1  0  0  0  0
  6  3  1  1  0  0  0
  6  5  1  0  0  0  0
  6  1  1  0  0  0  0
  7  2  1  0  0  0  0
  8  6  1  0  0  0  0
  9  4  1  0  0  0  0
 10  8  1  0  0  0  0
 11  9  2  0  0  0  0
 11 10  1  0  0  0  0
 12 15  1  0  0  0  0
 12 18  1  6  0  0  0
 15 20  1  6  0  0  0
 16 13  1  1  0  0  0
 16 21  1  0  0  0  0
 16 19  1  0  0  0  0
 18 14  2  0  0  0  0
 19 22  1  6  0  0  0
 19 12  1  0  0  0  0
 20 10  1  0  0  0  0
 20 14  1  0  0  0  0
 21 17  1  1  0  0  0
 21 15  1  0  0  0  0
 23 18  1  0  0  0  0
 23 25  1  0  0  0  0
 25 24  1  0  0  0  0
 26 30  1  0  0  0  0
 27 28  1  0  0  0  0
 28 35  1  1  0  0  0
 29 30  2  0  0  0  0
 29 32  1  0  0  0  0
 30 33  1  0  0  0  0
 32 34  1  0  0  0  0
 33 27  2  0  0  0  0
 34 28  1  0  0  0  0
 34 31  1  1  0  0  0
M  END
>  <MODEL>
8

>  <REMARK>
 VINA RESULT:      -8.1      3.611      5.896
  Name = 
  5 active torsions:
  status: ('A' for Active; 'I' for Inactive)
    1  A    between atoms: C_3  and  N_4
    2  A    between atoms: N_4  and  C_19
    3  A    between atoms: C_18  and  C_31
    4  A    between atoms: N_23  and  N_34
    5  A    between atoms: C_24  and  C_31
                            x       y       z     vdW  Elec       q    Type
                         _______ _______ _______ _____ _____    ______ ____

>  <TORSDO>
F 5

$$$$
=
 OpenBabel11062413453D

 35 41  0  0  1  0  0  0  0  0999 V2000
  185.7380  178.8530  140.9250 C   0  0  1  0  0  0  0  0  0  0  0  0
  187.3230  178.1440  138.8220 N   0  0  0  0  0  2  0  0  0  0  0  0
  186.2780  179.0430  142.3040 C   0  0  0  0  0  2  0  0  0  0  0  0
  189.1380  177.6660  140.3960 C   0  0  0  0  0  0  0  0  0  0  0  0
  186.6900  178.2740  139.9250 C   0  0  1  0  0  3  0  0  0  0  0  0
  186.7530  177.9120  141.4220 C   0  0  2  0  0  0  0  0  0  0  0  0
  188.6140  177.4770  138.9660 C   0  0  0  0  0  2  0  0  0  0  0  0
  188.2920  177.9130  141.4880 C   0  0  0  0  0  0  0  0  0  0  0  0
  190.4110  177.5250  140.8050 N   0  0  0  0  0  0  0  0  0  0  0  0
  189.0770  177.8720  142.5850 N   0  0  0  0  0  0  0  0  0  0  0  0
  190.3410  177.6550  142.1530 C   0  0  0  0  0  3  0  0  0  0  0  0
  188.7040  177.8660  146.2210 C   0  0  1  0  0  3  0  0  0  0  0  0
  191.6820  177.4290  147.2920 O   0  0  0  0  0  1  0  0  0  0  0  0
  187.2910  177.8790  144.3820 C   0  0  0  0  0  3  0  0  0  0  0  0
  189.5910  177.9860  145.0540 C   0  0  2  0  0  3  0  0  0  0  0  0
  190.6450  176.6420  146.7820 C   0  0  1  0  0  3  0  0  0  0  0  0
  191.7730  177.0730  144.6740 O   0  0  0  0  0  1  0  0  0  0  0  0
  187.4160  177.8540  145.8690 C   0  0  0  0  0  0  0  0  0  0  0  0
  189.3220  177.1320  147.3650 C   0  0  2  0  0  3  0  0  0  0  0  0
  188.6770  177.8300  143.9340 N   0  0  0  0  0  0  0  0  0  0  0  0
  190.5290  176.8120  145.2550 C   0  0  2  0  0  3  0  0  0  0  0  0
  188.5640  176.0270  147.7120 F   0  0  0  0  0  0  0  0  0  0  0  0
  186.2870  177.4930  146.7860 C   0  0  0  0  0  2  0  0  0  0  0  0
  185.5470  179.7530  146.5350 O   0  0  0  0  0  1  0  0  0  0  0  0
  185.1060  178.4320  146.5970 C   0  0  0  0  0  2  0  0  0  0  0  0
  184.4640  178.1500  140.9240 N   0  0  0  0  0  2  0  0  0  0  0  0
  180.8890  179.3940  141.1820 C   0  0  0  0  0  3  0  0  0  0  0  0
  180.3850  179.6180  142.5720 C   0  0  2  0  0  3  0  0  0  0  0  0
  183.3720  178.6360  142.9490 C   0  0  0  0  0  3  0  0  0  0  0  0
  183.3010  178.6210  141.6130 C   0  0  0  0  0  0  0  0  0  0  0  0
  180.1900  178.6230  144.7150 F   0  0  0  0  0  0  0  0  0  0  0  0
  182.3420  179.1180  143.9160 C   0  0  0  0  0  2  0  0  0  0  0  0
  182.1110  179.0010  140.8040 C   0  0  0  0  0  3  0  0  0  0  0  0
  180.9580  178.6270  143.5650 C   0  0  2  0  0  3  0  0  0  0  0  0
  179.0040  179.5450  142.5610 F   0  0  0  0  0  0  0  0  0  0  0  0
  1 26  1  6  0  0  0
  1  6  1  0  0  0  0
  1  3  1  0  0  0  0
  2  7  1  0  0  0  0
  4  9  1  0  0  0  0
  4  8  2  0  0  0  0
  5  2  1  1  0  0  0
  5  1  1  0  0  0  0
  5  6  1  0  0  0  0
  6  8  1  0  0  0  0
  6  3  1  6  0  0  0
  7  4  1  0  0  0  0
  8 10  1  0  0  0  0
  9 11  2  0  0  0  0
 10 20  1  0  0  0  0
 11 10  1  0  0  0  0
 12 18  1  6  0  0  0
 12 19  1  0  0  0  0
 14 18  2  0  0  0  0
 15 20  1  6  0  0  0
 15 21  1  0  0  0  0
 15 12  1  0  0  0  0
 16 13  1  1  0  0  0
 16 19  1  0  0  0  0
 18 23  1  0  0  0  0
 19 22  1  6  0  0  0
 20 14  1  0  0  0  0
 21 17  1  1  0  0  0
 21 16  1  0  0  0  0
 24 25  1  0  0  0  0
 25 23  1  0  0  0  0
 26 30  1  0  0  0  0
 27 28  1  0  0  0  0
 28 35  1  6  0  0  0
 28 34  1  0  0  0  0
 29 32  1  0  0  0  0
 30 29  2  0  0  0  0
 33 27  2  0  0  0  0
 33 30  1  0  0  0  0
 34 32  1  0  0  0  0
 34 31  1  1  0  0  0
M  END
>  <MODEL>
9

>  <REMARK>
 VINA RESULT:      -7.8      3.886      8.507
  Name = 
  5 active torsions:
  status: ('A' for Active; 'I' for Inactive)
    1  A    between atoms: C_3  and  N_4
    2  A    between atoms: N_4  and  C_19
    3  A    between atoms: C_18  and  C_31
    4  A    between atoms: N_23  and  N_34
    5  A    between atoms: C_24  and  C_31
                            x       y       z     vdW  Elec       q    Type
                         _______ _______ _______ _____ _____    ______ ____

>  <TORSDO>
F 5

$$$$
