=
 OpenBabel11062418073D

 63 71  0  0  1  0  0  0  0  0999 V2000
  190.5160  177.5360  141.9330 P   0  0  1  0  0  0  0  0  0  0  0  0
  188.9030  177.6200  141.0870 C   0  0  1  0  0  0  0  0  0  0  0  0
  183.5810  178.3640  143.3380 C   0  0  0  0  0  2  0  0  0  0  0  0
  189.4110  178.2660  139.9690 O   0  0  0  0  0  1  0  0  0  0  0  0
  186.9070  178.8510  144.4350 C   0  0  1  0  0  3  0  0  0  0  0  0
  184.1790  178.5210  141.9400 C   0  0  1  0  0  3  0  0  0  0  0  0
  187.7870  179.7550  141.9670 O   0  0  0  0  0  0  0  0  0  0  0  0
  187.9190  177.9300  143.6320 C   0  0  0  0  0  2  0  0  0  0  0  0
  191.8200  177.8740  141.2220 O   0  0  0  0  0  0  0  0  0  0  0  0
  184.3670  178.6670  146.7720 O   0  0  0  0  0  0  0  0  0  0  0  0
  187.5110  177.9530  140.6020 C   0  0  0  0  0  0  0  0  0  0  0  0
  184.9790  178.7340  145.6650 C   0  0  0  0  0  0  0  0  0  0  0  0
  183.9720  180.6390  144.3310 C   0  0  0  0  0  1  0  0  0  0  0  0
  185.6840  178.3950  142.2690 C   0  0  1  0  0  0  0  0  0  0  0  0
  186.7610  179.1380  141.2910 C   0  0  1  0  0  3  0  0  0  0  0  0
  185.7230  179.2010  143.5150 C   0  0  1  0  0  3  0  0  0  0  0  0
  184.4720  179.1950  144.2910 C   0  0  2  0  0  0  0  0  0  0  0  0
  189.9530  178.9600  142.6910 O   0  0  0  0  0  0  0  0  0  0  0  0
  188.5760  178.6270  142.3540 C   0  0  1  0  0  0  0  0  0  0  0  0
  185.7370  176.7650  142.4240 C   0  0  0  0  0  1  0  0  0  0  0  0
  186.2960  178.3480  145.6620 O   0  0  0  0  0  0  0  0  0  0  0  0
  186.9710  177.4810  139.6490 O   0  0  0  0  0  0  0  0  0  0  0  0
  191.7120  175.5000  143.9530 S   0  0  0  0  0  0  0  0  0  0  0  0
  190.5700  175.9740  142.7540 C   0  0  0  0  0  2  0  0  0  0  0  0
  191.7470  176.4580  145.4600 C   0  0  1  0  0  3  0  0  0  0  0  0
  190.4850  176.9180  145.7460 O   0  0  0  0  0  0  0  0  0  0  0  0
  191.9580  174.3650  146.6070 O   0  0  0  0  0  1  0  0  0  0  0  0
  192.2730  175.7090  146.6650 C   0  0  2  0  0  3  0  0  0  0  0  0
  190.4130  177.1490  147.1510 C   0  0  2  0  0  3  0  0  0  0  0  0
  191.5240  176.3250  147.8320 C   0  0  0  0  0  2  0  0  0  0  0  0
  188.3130  177.9320  148.2130 C   0  0  0  0  0  1  0  0  0  0  0  0
  189.0350  176.7320  147.6280 C   0  0  0  0  0  2  0  0  0  0  0  0
  183.4330  177.4500  141.0630 C   0  0  0  0  0  2  0  0  0  0  0  0
  182.6330  178.3690  140.1970 C   0  0  1  0  0  3  0  0  0  0  0  0
  180.2530  177.7040  140.4870 O   0  0  0  0  0  0  0  0  0  0  0  0
  181.1970  176.2010  138.9360 C   0  0  1  0  0  3  0  0  0  0  0  0
  181.3370  177.5300  138.4820 O   0  0  0  0  0  0  0  0  0  0  0  0
  182.2670  180.1720  138.7960 C   0  0  2  0  0  3  0  0  0  0  0  0
  180.4350  176.3570  140.2970 C   0  0  0  0  0  2  0  0  0  0  0  0
  184.2510  178.8540  138.5270 O   0  0  0  0  0  1  0  0  0  0  0  0
  180.9610  179.7830  139.3810 C   0  0  2  0  0  3  0  0  0  0  0  0
  183.3610  179.4340  139.4870 C   0  0  2  0  0  3  0  0  0  0  0  0
  181.2300  178.2770  139.6220 C   0  0  2  0  0  0  0  0  0  0  0  0
  179.7790  180.0820  138.4470 C   0  0  1  0  0  3  0  0  0  0  0  0
  178.9320  178.9310  137.9530 C   0  0  0  0  0  1  0  0  0  0  0  0
  178.9320  180.9950  139.1050 O   0  0  0  0  0  1  0  0  0  0  0  0
  182.6700  181.6320  138.5440 C   0  0  0  0  0  2  0  0  0  0  0  0
  181.5680  182.4510  138.0910 O   0  0  0  0  0  1  0  0  0  0  0  0
  180.7850  175.2550  137.7650 C   0  0  1  0  0  3  0  0  0  0  0  0
  182.0060  175.0290  136.9340 C   0  0  0  0  0  0  0  0  0  0  0  0
  181.8990  175.3640  135.6950 O   0  0  0  0  0  0  0  0  0  0  0  0
  183.2860  174.6070  137.4480 O   0  0  0  0  0  0  0  0  0  0  0  0
  184.5900  174.5630  136.8760 C   0  0  0  0  0  0  0  0  0  0  0  0
  186.7930  173.7320  136.8560 N   0  0  0  0  0  2  0  0  0  0  0  0
  186.8610  174.6310  135.5660 S   0  0  1  0  0  3  0  0  0  0  0  0
  185.4580  173.7370  137.4180 C   0  0  0  0  0  3  0  0  0  0  0  0
  185.2430  175.4050  135.7820 C   0  0  0  0  0  2  0  0  0  0  0  0
  188.4050  175.5890  135.5980 C   0  0  0  0  0  2  0  0  0  0  0  0
  189.5940  175.7200  137.5970 C   0  0  0  0  0  1  0  0  0  0  0  0
  189.1810  177.6310  136.4880 C   0  0  0  0  0  1  0  0  0  0  0  0
  188.5400  176.3680  136.8280 N   0  0  0  0  0  0  0  0  0  0  0  0
  179.0500  173.8800  137.5370 C   0  0  0  0  0  1  0  0  0  0  0  0
  180.2480  174.0700  138.2430 O   0  0  0  0  0  0  0  0  0  0  0  0
  1  9  2  6  0  0  0
  1 18  1  0  0  0  0
  1 24  1  0  0  0  0
  2  4  1  6  0  0  0
  2  1  1  0  0  0  0
  2 19  1  0  0  0  0
  3 17  1  0  0  0  0
  5  8  1  6  0  0  0
  5 21  1  0  0  0  0
  6 33  1  6  0  0  0
  6 14  1  0  0  0  0
  6  3  1  0  0  0  0
  7 19  1  0  0  0  0
 11  2  1  0  0  0  0
 12 10  2  0  0  0  0
 14 20  1  1  0  0  0
 14 16  1  0  0  0  0
 15 11  1  6  0  0  0
 15  7  1  0  0  0  0
 15 14  1  0  0  0  0
 16 17  1  0  0  0  0
 16  5  1  0  0  0  0
 17 13  1  0  0  0  0
 17 12  1  0  0  0  0
 19 18  1  0  0  0  0
 19  8  1  0  0  0  0
 21 12  1  0  0  0  0
 22 11  2  0  0  0  0
 23 25  1  0  0  0  0
 24 23  1  0  0  0  0
 25 26  1  0  0  0  0
 25 28  1  0  0  0  0
 26 29  1  0  0  0  0
 27 28  1  0  0  0  0
 28 30  1  0  0  0  0
 29 32  1  0  0  0  0
 29 30  1  0  0  0  0
 32 31  1  0  0  0  0
 34 33  1  0  0  0  0
 36 39  1  0  0  0  0
 37 36  1  0  0  0  0
 37 43  1  0  0  0  0
 38 41  1  0  0  0  0
 38 42  1  0  0  0  0
 39 35  1  0  0  0  0
 40 42  1  0  0  0  0
 41 43  1  0  0  0  0
 42 34  1  0  0  0  0
 43 34  1  0  0  0  0
 43 35  1  0  0  0  0
 44 46  1  0  0  0  0
 44 41  1  0  0  0  0
 45 44  1  0  0  0  0
 47 38  1  0  0  0  0
 48 47  1  0  0  0  0
 49 63  1  0  0  0  0
 49 36  1  0  0  0  0
 50 52  1  0  0  0  0
 50 49  1  0  0  0  0
 51 50  2  0  0  0  0
 53 56  2  0  0  0  0
 53 52  1  0  0  0  0
 54 56  1  0  0  0  0
 55 58  1  0  0  0  0
 55 57  1  0  0  0  0
 55 54  1  0  0  0  0
 57 53  1  0  0  0  0
 58 61  1  0  0  0  0
 60 61  1  0  0  0  0
 61 59  1  0  0  0  0
 62 63  1  0  0  0  0
M  END
>  <MODEL>
1

>  <REMARK>
 VINA RESULT:      -4.1      0.000      0.000
  Name = 
  14 active torsions:
  status: ('A' for Active; 'I' for Inactive)
    1  A    between atoms: C_1  and  O_21
    2  A    between atoms: C_3  and  O_21
    3  A    between atoms: C_3  and  C_27
    4  A    between atoms: C_4  and  S_55
    5  A    between atoms: P_5  and  C_62
    6  A    between atoms: C_7  and  C_36
    7  A    between atoms: C_10  and  C_32
    8  A    between atoms: C_12  and  C_27
    9  A    between atoms: C_15  and  C_32
   10  A    between atoms: C_18  and  C_22
   11  A    between atoms: C_27  and  O_50
   12  A    between atoms: N_30  and  C_45
   13  A    between atoms: S_35  and  C_45
   14  A    between atoms: C_48  and  C_63
                            x       y       z     vdW  Elec       q    Type
                         _______ _______ _______ _____ _____    ______ ____

>  <TORSDO>
F 14

$$$$
=
 OpenBabel11062418073D

 63 71  0  0  1  0  0  0  0  0999 V2000
  184.5760  179.4180  143.7930 P   0  0  1  0  0  0  0  0  0  0  0  0
  184.8860  179.1220  142.0200 C   0  0  1  0  0  0  0  0  0  0  0  0
  181.7140  176.1220  138.1630 C   0  0  0  0  0  2  0  0  0  0  0  0
  185.4570  180.3680  141.8110 O   0  0  0  0  0  1  0  0  0  0  0  0
  181.1780  177.5310  141.3610 C   0  0  1  0  0  3  0  0  0  0  0  0
  182.8140  177.1770  138.0480 C   0  0  1  0  0  3  0  0  0  0  0  0
  182.7100  179.7800  140.8330 O   0  0  0  0  0  0  0  0  0  0  0  0
  182.5430  177.6950  142.1540 C   0  0  0  0  0  2  0  0  0  0  0  0
  185.1630  180.6160  144.5270 O   0  0  0  0  0  0  0  0  0  0  0  0
  179.0100  175.1030  140.2000 O   0  0  0  0  0  0  0  0  0  0  0  0
  184.8060  178.9460  140.5220 C   0  0  0  0  0  0  0  0  0  0  0  0
  179.9410  175.9610  140.2460 C   0  0  0  0  0  0  0  0  0  0  0  0
  179.6430  177.5390  138.2850 C   0  0  0  0  0  1  0  0  0  0  0  0
  182.9110  177.6350  139.5210 C   0  0  1  0  0  0  0  0  0  0  0  0
  183.4190  179.1560  139.8340 C   0  0  1  0  0  3  0  0  0  0  0  0
  181.4640  177.6690  139.8540 C   0  0  1  0  0  3  0  0  0  0  0  0
  180.6360  176.7140  139.1020 C   0  0  2  0  0  0  0  0  0  0  0  0
  183.0250  179.8610  143.2290 O   0  0  0  0  0  0  0  0  0  0  0  0
  183.2350  179.1250  141.9910 C   0  0  1  0  0  0  0  0  0  0  0  0
  183.7830  176.3680  140.0850 C   0  0  0  0  0  1  0  0  0  0  0  0
  180.4180  176.2920  141.4880 O   0  0  0  0  0  0  0  0  0  0  0  0
  185.7310  178.7870  139.7860 O   0  0  0  0  0  0  0  0  0  0  0  0
  186.3760  177.0170  144.5990 S   0  0  0  0  0  0  0  0  0  0  0  0
  184.8910  177.8890  144.6180 C   0  0  0  0  0  2  0  0  0  0  0  0
  187.8080  177.8430  145.2720 C   0  0  1  0  0  3  0  0  0  0  0  0
  188.1480  177.2750  146.4760 O   0  0  0  0  0  0  0  0  0  0  0  0
  189.0770  176.6710  143.6120 O   0  0  0  0  0  1  0  0  0  0  0  0
  189.0230  177.8250  144.3690 C   0  0  2  0  0  3  0  0  0  0  0  0
  189.5370  177.5160  146.6960 C   0  0  2  0  0  3  0  0  0  0  0  0
  190.1940  177.8190  145.3340 C   0  0  0  0  0  2  0  0  0  0  0  0
  191.5290  176.0420  146.7960 C   0  0  0  0  0  1  0  0  0  0  0  0
  190.1340  176.2820  147.3430 C   0  0  0  0  0  2  0  0  0  0  0  0
  184.0040  176.4390  137.3330 C   0  0  0  0  0  2  0  0  0  0  0  0
  183.2360  175.3430  136.6670 C   0  0  1  0  0  3  0  0  0  0  0  0
  184.0820  173.2130  137.6350 O   0  0  0  0  0  0  0  0  0  0  0  0
  185.6210  173.8660  135.9730 C   0  0  1  0  0  3  0  0  0  0  0  0
  184.3280  173.7350  135.4230 O   0  0  0  0  0  0  0  0  0  0  0  0
  181.5970  174.4230  135.3190 C   0  0  2  0  0  3  0  0  0  0  0  0
  185.4190  173.4820  137.4800 C   0  0  0  0  0  2  0  0  0  0  0  0
  182.7520  176.3950  134.5940 O   0  0  0  0  0  1  0  0  0  0  0  0
  182.0490  173.3710  136.2600 C   0  0  2  0  0  3  0  0  0  0  0  0
  182.1740  175.7350  135.7260 C   0  0  2  0  0  3  0  0  0  0  0  0
  183.5000  173.8550  136.5050 C   0  0  2  0  0  0  0  0  0  0  0  0
  181.9360  171.9580  135.6690 C   0  0  1  0  0  3  0  0  0  0  0  0
  182.8430  170.8710  136.2020 C   0  0  0  0  0  1  0  0  0  0  0  0
  180.6040  171.5290  135.8300 O   0  0  0  0  0  1  0  0  0  0  0  0
  180.1340  174.5850  134.8830 C   0  0  0  0  0  2  0  0  0  0  0  0
  179.4890  175.7280  135.4890 O   0  0  0  0  0  1  0  0  0  0  0  0
  186.6960  173.2620  135.0170 C   0  0  1  0  0  3  0  0  0  0  0  0
  187.8130  174.2510  134.9340 C   0  0  0  0  0  0  0  0  0  0  0  0
  187.4700  175.4840  135.0750 O   0  0  0  0  0  0  0  0  0  0  0  0
  189.2120  173.9090  134.8480 O   0  0  0  0  0  0  0  0  0  0  0  0
  190.3320  174.2050  135.6770 C   0  0  0  0  0  0  0  0  0  0  0  0
  191.8430  175.7540  136.6050 N   0  0  0  0  0  2  0  0  0  0  0  0
  192.3580  174.4510  137.3240 S   0  0  1  0  0  3  0  0  0  0  0  0
  190.6770  175.4690  135.7960 C   0  0  0  0  0  3  0  0  0  0  0  0
  191.3260  173.2950  136.3960 C   0  0  0  0  0  2  0  0  0  0  0  0
  194.1720  174.4120  137.2410 C   0  0  0  0  0  2  0  0  0  0  0  0
  194.9280  172.2870  137.8230 C   0  0  0  0  0  1  0  0  0  0  0  0
  196.1420  174.0580  138.4910 C   0  0  0  0  0  1  0  0  0  0  0  0
  194.7550  173.6390  138.3360 N   0  0  0  0  0  0  0  0  0  0  0  0
  186.4780  171.0790  134.6490 C   0  0  0  0  0  1  0  0  0  0  0  0
  187.1250  172.0210  135.4620 O   0  0  0  0  0  0  0  0  0  0  0  0
  1  9  2  1  0  0  0
  1 24  1  0  0  0  0
  2  4  1  6  0  0  0
  2  1  1  0  0  0  0
  3 17  1  0  0  0  0
  5 21  1  0  0  0  0
  5  8  1  1  0  0  0
  6 33  1  1  0  0  0
  6  3  1  0  0  0  0
  6 14  1  0  0  0  0
  7 19  1  0  0  0  0
 10 12  2  0  0  0  0
 11  2  1  0  0  0  0
 12 21  1  0  0  0  0
 13 17  1  0  0  0  0
 14 15  1  0  0  0  0
 14 16  1  0  0  0  0
 14 20  1  1  0  0  0
 15 11  1  1  0  0  0
 15  7  1  0  0  0  0
 16  5  1  0  0  0  0
 17 16  1  0  0  0  0
 17 12  1  0  0  0  0
 18  1  1  0  0  0  0
 19  2  1  0  0  0  0
 19  8  1  0  0  0  0
 19 18  1  0  0  0  0
 22 11  2  0  0  0  0
 23 24  1  0  0  0  0
 23 25  1  0  0  0  0
 25 26  1  0  0  0  0
 26 29  1  0  0  0  0
 27 28  1  0  0  0  0
 28 25  1  0  0  0  0
 28 30  1  0  0  0  0
 29 32  1  0  0  0  0
 30 29  1  0  0  0  0
 31 32  1  0  0  0  0
 34 33  1  0  0  0  0
 36 39  1  0  0  0  0
 37 36  1  0  0  0  0
 37 43  1  0  0  0  0
 38 42  1  0  0  0  0
 38 41  1  0  0  0  0
 39 35  1  0  0  0  0
 40 42  1  0  0  0  0
 41 43  1  0  0  0  0
 42 34  1  0  0  0  0
 43 34  1  0  0  0  0
 43 35  1  0  0  0  0
 44 46  1  0  0  0  0
 44 45  1  0  0  0  0
 44 41  1  0  0  0  0
 47 38  1  0  0  0  0
 47 48  1  0  0  0  0
 49 63  1  0  0  0  0
 49 36  1  0  0  0  0
 50 49  1  0  0  0  0
 50 51  2  0  0  0  0
 52 50  1  0  0  0  0
 52 53  1  0  0  0  0
 53 56  2  0  0  0  0
 53 57  1  0  0  0  0
 54 55  1  0  0  0  0
 56 54  1  0  0  0  0
 57 55  1  0  0  0  0
 58 55  1  0  0  0  0
 58 61  1  0  0  0  0
 59 61  1  0  0  0  0
 61 60  1  0  0  0  0
 62 63  1  0  0  0  0
M  END
>  <MODEL>
2

>  <REMARK>
 VINA RESULT:      -2.1      3.069      6.125
  Name = 
  14 active torsions:
  status: ('A' for Active; 'I' for Inactive)
    1  A    between atoms: C_1  and  O_21
    2  A    between atoms: C_3  and  O_21
    3  A    between atoms: C_3  and  C_27
    4  A    between atoms: C_4  and  S_55
    5  A    between atoms: P_5  and  C_62
    6  A    between atoms: C_7  and  C_36
    7  A    between atoms: C_10  and  C_32
    8  A    between atoms: C_12  and  C_27
    9  A    between atoms: C_15  and  C_32
   10  A    between atoms: C_18  and  C_22
   11  A    between atoms: C_27  and  O_50
   12  A    between atoms: N_30  and  C_45
   13  A    between atoms: S_35  and  C_45
   14  A    between atoms: C_48  and  C_63
                            x       y       z     vdW  Elec       q    Type
                         _______ _______ _______ _____ _____    ______ ____

>  <TORSDO>
F 14

$$$$
=
 OpenBabel11062418073D

 63 71  0  0  1  0  0  0  0  0999 V2000
  182.9320  176.7410  136.3410 P   0  0  1  0  0  0  0  0  0  0  0  0
  183.6730  177.7760  137.6480 C   0  0  1  0  0  0  0  0  0  0  0  0
  188.9600  177.4440  140.0740 C   0  0  0  0  0  2  0  0  0  0  0  0
  183.0440  178.9360  137.2230 O   0  0  0  0  0  1  0  0  0  0  0  0
  187.4140  176.2050  137.1450 C   0  0  1  0  0  3  0  0  0  0  0  0
  187.8870  178.5300  140.0000 C   0  0  1  0  0  3  0  0  0  0  0  0
  185.9460  178.5160  136.7180 O   0  0  0  0  0  0  0  0  0  0  0  0
  185.8390  176.1190  137.3180 C   0  0  0  0  0  2  0  0  0  0  0  0
  181.8040  177.2470  135.4520 O   0  0  0  0  0  0  0  0  0  0  0  0
  190.3330  174.7340  138.2660 O   0  0  0  0  0  0  0  0  0  0  0  0
  184.5650  178.6220  138.5250 C   0  0  0  0  0  0  0  0  0  0  0  0
  189.3580  175.5340  138.1510 C   0  0  0  0  0  0  0  0  0  0  0  0
  190.2930  177.8840  137.9900 C   0  0  0  0  0  1  0  0  0  0  0  0
  186.9340  177.9050  138.9560 C   0  0  1  0  0  0  0  0  0  0  0  0
  186.0220  178.9000  138.0350 C   0  0  1  0  0  3  0  0  0  0  0  0
  187.9410  177.3680  138.0070 C   0  0  1  0  0  3  0  0  0  0  0  0
  189.2250  176.9900  138.6190 C   0  0  2  0  0  0  0  0  0  0  0  0
  184.4090  177.0640  135.5450 O   0  0  0  0  0  0  0  0  0  0  0  0
  185.0460  177.4090  136.8070 C   0  0  1  0  0  0  0  0  0  0  0  0
  186.1930  176.8350  139.9520 C   0  0  0  0  0  1  0  0  0  0  0  0
  188.2410  175.0590  137.5120 O   0  0  0  0  0  0  0  0  0  0  0  0
  184.2250  179.2140  139.5040 O   0  0  0  0  0  0  0  0  0  0  0  0
  182.1350  173.7390  136.2480 S   0  0  0  0  0  0  0  0  0  0  0  0
  182.5700  175.1800  137.0850 C   0  0  0  0  0  2  0  0  0  0  0  0
  183.3320  173.0790  135.0990 C   0  0  1  0  0  3  0  0  0  0  0  0
  184.6010  173.3840  135.5250 O   0  0  0  0  0  0  0  0  0  0  0  0
  182.8230  170.9330  136.0360 O   0  0  0  0  0  1  0  0  0  0  0  0
  183.2390  171.5830  134.8900 C   0  0  2  0  0  3  0  0  0  0  0  0
  185.4910  172.4140  134.9770 C   0  0  2  0  0  3  0  0  0  0  0  0
  184.6680  171.1670  134.5970 C   0  0  0  0  0  2  0  0  0  0  0  0
  187.5450  171.1060  135.4500 C   0  0  0  0  0  1  0  0  0  0  0  0
  186.5430  172.0940  136.0200 C   0  0  0  0  0  2  0  0  0  0  0  0
  187.4430  178.7580  141.4910 C   0  0  0  0  0  2  0  0  0  0  0  0
  188.6210  178.1510  142.1830 C   0  0  1  0  0  3  0  0  0  0  0  0
  187.7780  176.1120  143.3330 O   0  0  0  0  0  0  0  0  0  0  0  0
  187.2400  177.9460  144.7130 C   0  0  1  0  0  3  0  0  0  0  0  0
  188.6310  177.8990  144.4770 O   0  0  0  0  0  0  0  0  0  0  0  0
  190.8520  177.9030  142.7420 C   0  0  2  0  0  3  0  0  0  0  0  0
  186.6930  176.7000  143.9340 C   0  0  0  0  0  2  0  0  0  0  0  0
  189.9220  180.1040  142.5490 O   0  0  0  0  0  1  0  0  0  0  0  0
  190.1660  176.6250  143.0470 C   0  0  2  0  0  3  0  0  0  0  0  0
  189.9310  178.7910  141.9780 C   0  0  2  0  0  3  0  0  0  0  0  0
  188.7410  177.1620  143.3300 C   0  0  2  0  0  0  0  0  0  0  0  0
  190.8110  175.8690  144.2180 C   0  0  1  0  0  3  0  0  0  0  0  0
  191.9030  174.8640  143.9240 C   0  0  0  0  0  1  0  0  0  0  0  0
  191.3310  176.8250  145.1120 O   0  0  0  0  0  1  0  0  0  0  0  0
  192.2750  177.9750  142.1700 C   0  0  0  0  0  2  0  0  0  0  0  0
  192.3320  177.6580  140.7600 O   0  0  0  0  0  1  0  0  0  0  0  0
  186.9420  178.2890  146.2060 C   0  0  1  0  0  3  0  0  0  0  0  0
  185.4720  178.5360  146.3130 C   0  0  0  0  0  0  0  0  0  0  0  0
  184.8880  177.9660  147.3100 O   0  0  0  0  0  0  0  0  0  0  0  0
  184.7270  179.4490  145.4820 O   0  0  0  0  0  0  0  0  0  0  0  0
  183.7620  179.2510  144.4520 C   0  0  0  0  0  0  0  0  0  0  0  0
  183.2140  179.0130  142.1750 N   0  0  0  0  0  2  0  0  0  0  0  0
  181.7820  178.8000  142.7930 S   0  0  1  0  0  3  0  0  0  0  0  0
  184.2070  179.1700  143.2170 C   0  0  0  0  0  3  0  0  0  0  0  0
  182.2360  179.2290  144.4880 C   0  0  0  0  0  2  0  0  0  0  0  0
  180.5790  179.7710  141.8380 C   0  0  0  0  0  2  0  0  0  0  0  0
  179.3140  179.0600  140.0150 C   0  0  0  0  0  1  0  0  0  0  0  0
  179.7420  177.5740  141.6480 C   0  0  0  0  0  1  0  0  0  0  0  0
  179.4070  178.9800  141.4670 N   0  0  0  0  0  0  0  0  0  0  0  0
  188.1230  177.9020  148.0510 C   0  0  0  0  0  1  0  0  0  0  0  0
  187.3670  177.2750  147.0500 O   0  0  0  0  0  0  0  0  0  0  0  0
  1  9  2  6  0  0  0
  1 24  1  0  0  0  0
  1  2  1  0  0  0  0
  2  4  1  6  0  0  0
  2 11  1  0  0  0  0
  5  8  1  1  0  0  0
  5 21  1  0  0  0  0
  5 16  1  0  0  0  0
  6  3  1  0  0  0  0
  6 33  1  1  0  0  0
  7 19  1  0  0  0  0
 11 22  2  0  0  0  0
 12 10  2  0  0  0  0
 12 17  1  0  0  0  0
 13 17  1  0  0  0  0
 14 20  1  1  0  0  0
 14  6  1  0  0  0  0
 15  7  1  6  0  0  0
 15 11  1  0  0  0  0
 15 14  1  0  0  0  0
 16 17  1  0  0  0  0
 16 14  1  0  0  0  0
 17  3  1  0  0  0  0
 18  1  1  0  0  0  0
 18 19  1  0  0  0  0
 19  8  1  0  0  0  0
 19  2  1  0  0  0  0
 21 12  1  0  0  0  0
 23 24  1  0  0  0  0
 25 26  1  0  0  0  0
 25 23  1  0  0  0  0
 28 25  1  0  0  0  0
 28 27  1  0  0  0  0
 29 26  1  0  0  0  0
 29 32  1  0  0  0  0
 30 28  1  0  0  0  0
 30 29  1  0  0  0  0
 31 32  1  0  0  0  0
 33 34  1  0  0  0  0
 34 43  1  0  0  0  0
 35 39  1  0  0  0  0
 36 49  1  0  0  0  0
 37 36  1  0  0  0  0
 38 41  1  0  0  0  0
 39 36  1  0  0  0  0
 41 43  1  0  0  0  0
 41 44  1  0  0  0  0
 42 34  1  0  0  0  0
 42 40  1  0  0  0  0
 42 38  1  0  0  0  0
 43 35  1  0  0  0  0
 43 37  1  0  0  0  0
 44 46  1  0  0  0  0
 45 44  1  0  0  0  0
 47 38  1  0  0  0  0
 48 47  1  0  0  0  0
 49 50  1  0  0  0  0
 49 63  1  0  0  0  0
 50 51  2  0  0  0  0
 52 50  1  0  0  0  0
 53 57  1  0  0  0  0
 53 52  1  0  0  0  0
 54 55  1  0  0  0  0
 54 56  1  0  0  0  0
 55 57  1  0  0  0  0
 56 53  2  0  0  0  0
 58 55  1  0  0  0  0
 59 61  1  0  0  0  0
 61 60  1  0  0  0  0
 61 58  1  0  0  0  0
 63 62  1  0  0  0  0
M  END
>  <MODEL>
3

>  <REMARK>
 VINA RESULT:      -2.0      3.224      9.997
  Name = 
  14 active torsions:
  status: ('A' for Active; 'I' for Inactive)
    1  A    between atoms: C_1  and  O_21
    2  A    between atoms: C_3  and  O_21
    3  A    between atoms: C_3  and  C_27
    4  A    between atoms: C_4  and  S_55
    5  A    between atoms: P_5  and  C_62
    6  A    between atoms: C_7  and  C_36
    7  A    between atoms: C_10  and  C_32
    8  A    between atoms: C_12  and  C_27
    9  A    between atoms: C_15  and  C_32
   10  A    between atoms: C_18  and  C_22
   11  A    between atoms: C_27  and  O_50
   12  A    between atoms: N_30  and  C_45
   13  A    between atoms: S_35  and  C_45
   14  A    between atoms: C_48  and  C_63
                            x       y       z     vdW  Elec       q    Type
                         _______ _______ _______ _____ _____    ______ ____

>  <TORSDO>
F 14

$$$$
=
 OpenBabel11062418073D

 63 71  0  0  1  0  0  0  0  0999 V2000
  183.4360  176.4410  135.4480 P   0  0  1  0  0  0  0  0  0  0  0  0
  184.1580  177.2990  136.8870 C   0  0  1  0  0  0  0  0  0  0  0  0
  189.3600  176.5620  139.4030 C   0  0  0  0  0  2  0  0  0  0  0  0
  183.5650  178.5150  136.5840 O   0  0  0  0  0  1  0  0  0  0  0  0
  187.8800  175.7110  136.3070 C   0  0  1  0  0  3  0  0  0  0  0  0
  188.3120  177.6750  139.4270 C   0  0  1  0  0  3  0  0  0  0  0  0
  186.4720  178.0900  136.1130 O   0  0  0  0  0  0  0  0  0  0  0  0
  186.2990  175.6420  136.4250 C   0  0  0  0  0  2  0  0  0  0  0  0
  182.3460  177.0740  134.5940 O   0  0  0  0  0  0  0  0  0  0  0  0
  190.7340  174.0500  137.3280 O   0  0  0  0  0  0  0  0  0  0  0  0
  185.0390  178.0160  137.8820 C   0  0  0  0  0  0  0  0  0  0  0  0
  189.7780  174.8810  137.2810 C   0  0  0  0  0  0  0  0  0  0  0  0
  190.7650  177.2110  137.4230 C   0  0  0  0  0  1  0  0  0  0  0  0
  187.3790  177.1980  138.2910 C   0  0  1  0  0  0  0  0  0  0  0  0
  186.5160  178.3150  137.4690 C   0  0  1  0  0  3  0  0  0  0  0  0
  188.4040  176.7520  137.3130 C   0  0  1  0  0  3  0  0  0  0  0  0
  189.6600  176.2760  137.9120 C   0  0  2  0  0  0  0  0  0  0  0  0
  184.9420  176.8210  134.7360 O   0  0  0  0  0  0  0  0  0  0  0  0
  185.5480  177.0000  136.0480 C   0  0  1  0  0  0  0  0  0  0  0  0
  186.5880  176.0360  139.1340 C   0  0  0  0  0  1  0  0  0  0  0  0
  188.6720  174.5110  136.5590 O   0  0  0  0  0  0  0  0  0  0  0  0
  184.6820  178.4980  138.9130 O   0  0  0  0  0  0  0  0  0  0  0  0
  182.7170  174.3380  137.6200 S   0  0  0  0  0  0  0  0  0  0  0  0
  183.0200  174.8130  135.9930 C   0  0  0  0  0  2  0  0  0  0  0  0
  181.3450  175.1250  138.4500 C   0  0  1  0  0  3  0  0  0  0  0  0
  180.9740  176.2540  137.7630 O   0  0  0  0  0  0  0  0  0  0  0  0
  179.9940  173.3510  137.5740 O   0  0  0  0  0  1  0  0  0  0  0  0
  180.1290  174.2410  138.6210 C   0  0  2  0  0  3  0  0  0  0  0  0
  179.6060  176.5190  138.0650 C   0  0  2  0  0  3  0  0  0  0  0  0
  178.9640  175.2130  138.5730 C   0  0  0  0  0  2  0  0  0  0  0  0
  179.5020  178.3730  136.4210 C   0  0  0  0  0  1  0  0  0  0  0  0
  178.9310  177.0190  136.8030 C   0  0  0  0  0  2  0  0  0  0  0  0
  187.8290  177.7370  140.9220 C   0  0  0  0  0  2  0  0  0  0  0  0
  189.1210  177.4160  141.6020 C   0  0  1  0  0  3  0  0  0  0  0  0
  188.6510  175.5010  143.1190 O   0  0  0  0  0  0  0  0  0  0  0  0
  187.9350  177.4500  144.2370 C   0  0  1  0  0  3  0  0  0  0  0  0
  189.3010  177.5500  143.8980 O   0  0  0  0  0  0  0  0  0  0  0  0
  191.3930  177.5640  142.0090 C   0  0  2  0  0  3  0  0  0  0  0  0
  187.5290  176.0310  143.7080 C   0  0  0  0  0  2  0  0  0  0  0  0
  190.1430  179.5580  141.5530 O   0  0  0  0  0  1  0  0  0  0  0  0
  190.9190  176.2740  142.5640 C   0  0  2  0  0  3  0  0  0  0  0  0
  190.3100  178.1820  141.1930 C   0  0  2  0  0  3  0  0  0  0  0  0
  189.4500  176.6550  142.8750 C   0  0  2  0  0  0  0  0  0  0  0  0
  191.7340  175.8150  143.7820 C   0  0  1  0  0  3  0  0  0  0  0  0
  191.3930  176.3820  145.1420 C   0  0  0  0  0  1  0  0  0  0  0  0
  191.6390  174.4120  143.8600 O   0  0  0  0  0  1  0  0  0  0  0  0
  192.7540  177.7300  141.3190 C   0  0  0  0  0  2  0  0  0  0  0  0
  192.7620  177.2320  139.9620 O   0  0  0  0  0  1  0  0  0  0  0  0
  187.6780  177.9920  145.6780 C   0  0  1  0  0  3  0  0  0  0  0  0
  186.2130  178.2620  145.7890 C   0  0  0  0  0  0  0  0  0  0  0  0
  185.6240  177.7100  146.7930 O   0  0  0  0  0  0  0  0  0  0  0  0
  185.4780  179.1800  144.9530 O   0  0  0  0  0  0  0  0  0  0  0  0
  184.2830  179.0470  144.1880 C   0  0  0  0  0  0  0  0  0  0  0  0
  183.1870  178.8580  142.1140 N   0  0  0  0  0  2  0  0  0  0  0  0
  181.9370  178.7260  143.0620 S   0  0  1  0  0  3  0  0  0  0  0  0
  184.4100  178.9490  142.8830 C   0  0  0  0  0  3  0  0  0  0  0  0
  182.8120  179.1150  144.5930 C   0  0  0  0  0  2  0  0  0  0  0  0
  180.5990  179.7730  142.4190 C   0  0  0  0  0  2  0  0  0  0  0  0
  180.2140  179.3570  140.1590 C   0  0  0  0  0  1  0  0  0  0  0  0
  180.0620  177.6300  141.5910 C   0  0  0  0  0  1  0  0  0  0  0  0
  179.7280  179.0450  141.4960 N   0  0  0  0  0  0  0  0  0  0  0  0
  188.9360  177.8380  147.5060 C   0  0  0  0  0  1  0  0  0  0  0  0
  188.1220  177.0970  146.6380 O   0  0  0  0  0  0  0  0  0  0  0  0
  1  9  2  6  0  0  0
  1 24  1  0  0  0  0
  1  2  1  0  0  0  0
  2  4  1  6  0  0  0
  2 11  1  0  0  0  0
  3  6  1  0  0  0  0
  5  8  1  1  0  0  0
  5 21  1  0  0  0  0
  5 16  1  0  0  0  0
  6 33  1  1  0  0  0
 11 22  2  0  0  0  0
 12 10  2  0  0  0  0
 12 17  1  0  0  0  0
 13 17  1  0  0  0  0
 14 20  1  1  0  0  0
 14  6  1  0  0  0  0
 15  7  1  6  0  0  0
 15 11  1  0  0  0  0
 15 14  1  0  0  0  0
 16 17  1  0  0  0  0
 16 14  1  0  0  0  0
 17  3  1  0  0  0  0
 18  1  1  0  0  0  0
 18 19  1  0  0  0  0
 19  7  1  0  0  0  0
 19  8  1  0  0  0  0
 19  2  1  0  0  0  0
 21 12  1  0  0  0  0
 23 25  1  0  0  0  0
 24 23  1  0  0  0  0
 25 28  1  0  0  0  0
 26 29  1  0  0  0  0
 26 25  1  0  0  0  0
 27 28  1  0  0  0  0
 29 30  1  0  0  0  0
 30 28  1  0  0  0  0
 31 32  1  0  0  0  0
 32 29  1  0  0  0  0
 33 34  1  0  0  0  0
 34 43  1  0  0  0  0
 35 39  1  0  0  0  0
 36 49  1  0  0  0  0
 37 36  1  0  0  0  0
 38 41  1  0  0  0  0
 39 36  1  0  0  0  0
 41 43  1  0  0  0  0
 41 44  1  0  0  0  0
 42 40  1  0  0  0  0
 42 34  1  0  0  0  0
 42 38  1  0  0  0  0
 43 35  1  0  0  0  0
 43 37  1  0  0  0  0
 44 46  1  0  0  0  0
 44 45  1  0  0  0  0
 47 38  1  0  0  0  0
 48 47  1  0  0  0  0
 49 50  1  0  0  0  0
 49 63  1  0  0  0  0
 50 51  2  0  0  0  0
 52 50  1  0  0  0  0
 53 57  1  0  0  0  0
 53 52  1  0  0  0  0
 54 56  1  0  0  0  0
 54 55  1  0  0  0  0
 55 57  1  0  0  0  0
 56 53  2  0  0  0  0
 58 55  1  0  0  0  0
 59 61  1  0  0  0  0
 61 60  1  0  0  0  0
 61 58  1  0  0  0  0
 63 62  1  0  0  0  0
M  END
>  <MODEL>
4

>  <REMARK>
 VINA RESULT:      -1.9      3.130     10.210
  Name = 
  14 active torsions:
  status: ('A' for Active; 'I' for Inactive)
    1  A    between atoms: C_1  and  O_21
    2  A    between atoms: C_3  and  O_21
    3  A    between atoms: C_3  and  C_27
    4  A    between atoms: C_4  and  S_55
    5  A    between atoms: P_5  and  C_62
    6  A    between atoms: C_7  and  C_36
    7  A    between atoms: C_10  and  C_32
    8  A    between atoms: C_12  and  C_27
    9  A    between atoms: C_15  and  C_32
   10  A    between atoms: C_18  and  C_22
   11  A    between atoms: C_27  and  O_50
   12  A    between atoms: N_30  and  C_45
   13  A    between atoms: S_35  and  C_45
   14  A    between atoms: C_48  and  C_63
                            x       y       z     vdW  Elec       q    Type
                         _______ _______ _______ _____ _____    ______ ____

>  <TORSDO>
F 14

$$$$
=
 OpenBabel11062418073D

 63 71  0  0  1  0  0  0  0  0999 V2000
  187.0760  178.0780  135.3540 P   0  0  1  0  0  0  0  0  0  0  0  0
  187.0080  177.9130  137.1690 C   0  0  1  0  0  0  0  0  0  0  0  0
  191.1380  176.1460  140.8780 C   0  0  0  0  0  2  0  0  0  0  0  0
  186.1800  179.0130  137.3360 O   0  0  0  0  0  1  0  0  0  0  0  0
  191.0310  177.2840  137.5320 C   0  0  1  0  0  3  0  0  0  0  0  0
  189.8350  176.9310  141.0280 C   0  0  1  0  0  3  0  0  0  0  0  0
  189.0670  179.1710  138.0400 O   0  0  0  0  0  0  0  0  0  0  0  0
  189.6000  177.0470  136.8890 C   0  0  0  0  0  2  0  0  0  0  0  0
  186.1570  179.0250  134.5940 O   0  0  0  0  0  0  0  0  0  0  0  0
  193.8090  175.5500  138.6380 O   0  0  0  0  0  0  0  0  0  0  0  0
  187.2640  177.9230  138.6570 C   0  0  0  0  0  0  0  0  0  0  0  0
  192.7010  176.1640  138.6270 C   0  0  0  0  0  0  0  0  0  0  0  0
  192.7960  177.9730  140.4000 C   0  0  0  0  0  1  0  0  0  0  0  0
  189.4990  177.1920  139.5430 C   0  0  1  0  0  0  0  0  0  0  0  0
  188.6190  178.5150  139.1620 C   0  0  1  0  0  3  0  0  0  0  0  0
  190.8590  177.5170  139.0440 C   0  0  1  0  0  3  0  0  0  0  0  0
  191.9550  176.8610  139.7750 C   0  0  2  0  0  0  0  0  0  0  0  0
  188.5220  178.9190  135.6970 O   0  0  0  0  0  0  0  0  0  0  0  0
  188.6070  178.2930  137.0090 C   0  0  1  0  0  0  0  0  0  0  0  0
  188.9030  175.7070  139.1910 C   0  0  0  0  0  1  0  0  0  0  0  0
  192.0480  176.2420  137.4240 O   0  0  0  0  0  0  0  0  0  0  0  0
  186.4740  177.6410  139.5050 O   0  0  0  0  0  0  0  0  0  0  0  0
  187.3060  174.9880  135.6000 S   0  0  0  0  0  0  0  0  0  0  0  0
  187.0570  176.4360  134.7020 C   0  0  0  0  0  2  0  0  0  0  0  0
  186.1440  174.6390  136.9100 C   0  0  1  0  0  3  0  0  0  0  0  0
  184.8800  175.0090  136.5180 O   0  0  0  0  0  0  0  0  0  0  0  0
  186.3730  172.3350  136.2920 O   0  0  0  0  0  1  0  0  0  0  0  0
  186.1100  173.1900  137.3450 C   0  0  2  0  0  3  0  0  0  0  0  0
  183.9460  174.2320  137.2660 C   0  0  2  0  0  3  0  0  0  0  0  0
  184.6740  172.9760  137.7850 C   0  0  0  0  0  2  0  0  0  0  0  0
  181.5930  174.7450  136.6740 C   0  0  0  0  0  1  0  0  0  0  0  0
  182.7920  173.8720  136.3510 C   0  0  0  0  0  2  0  0  0  0  0  0
  188.9240  176.0250  141.9340 C   0  0  0  0  0  2  0  0  0  0  0  0
  189.1640  176.6910  143.2510 C   0  0  1  0  0  3  0  0  0  0  0  0
  187.2170  176.1110  144.6890 O   0  0  0  0  0  0  0  0  0  0  0  0
  186.5370  177.8960  143.3070 C   0  0  1  0  0  3  0  0  0  0  0  0
  187.6760  178.2600  144.0570 O   0  0  0  0  0  0  0  0  0  0  0  0
  190.3570  177.8780  144.8370 C   0  0  2  0  0  3  0  0  0  0  0  0
  186.2410  176.4300  143.7780 C   0  0  0  0  0  2  0  0  0  0  0  0
  190.4770  178.5350  142.5340 O   0  0  0  0  0  1  0  0  0  0  0  0
  189.2810  177.1420  145.5410 C   0  0  2  0  0  3  0  0  0  0  0  0
  190.4350  177.4130  143.4240 C   0  0  2  0  0  3  0  0  0  0  0  0
  188.2380  177.0610  144.3980 C   0  0  2  0  0  0  0  0  0  0  0  0
  188.7920  177.8680  146.8030 C   0  0  1  0  0  3  0  0  0  0  0  0
  187.3120  177.8750  147.1130 C   0  0  0  0  0  1  0  0  0  0  0  0
  189.4640  177.3090  147.9080 O   0  0  0  0  0  1  0  0  0  0  0  0
  191.7630  178.0710  145.4240 C   0  0  0  0  0  2  0  0  0  0  0  0
  192.0670  177.1290  146.4780 O   0  0  0  0  0  1  0  0  0  0  0  0
  185.5040  179.0640  143.2630 C   0  0  1  0  0  3  0  0  0  0  0  0
  184.2530  178.5190  142.6540 C   0  0  0  0  0  0  0  0  0  0  0  0
  183.3120  178.2370  143.4870 O   0  0  0  0  0  0  0  0  0  0  0  0
  183.9980  178.4270  141.2370 O   0  0  0  0  0  0  0  0  0  0  0  0
  183.0090  179.0090  140.3930 C   0  0  0  0  0  0  0  0  0  0  0  0
  182.4110  180.1520  138.4240 N   0  0  0  0  0  2  0  0  0  0  0  0
  180.9710  179.9210  139.0180 S   0  0  1  0  0  3  0  0  0  0  0  0
  183.4170  179.5240  139.2540 C   0  0  0  0  0  3  0  0  0  0  0  0
  181.5200  179.2680  140.6100 C   0  0  0  0  0  2  0  0  0  0  0  0
  180.0240  181.4660  138.8800 C   0  0  0  0  0  2  0  0  0  0  0  0
  178.9410  181.3940  136.8190 C   0  0  0  0  0  1  0  0  0  0  0  0
  179.6150  183.3970  137.5880 C   0  0  0  0  0  1  0  0  0  0  0  0
  180.0570  182.0100  137.5240 N   0  0  0  0  0  0  0  0  0  0  0  0
  184.4560  180.7060  144.3390 C   0  0  0  0  0  1  0  0  0  0  0  0
  185.2870  179.5920  144.5260 O   0  0  0  0  0  0  0  0  0  0  0  0
  1  9  2  6  0  0  0
  1 18  1  0  0  0  0
  1  2  1  0  0  0  0
  2  4  1  1  0  0  0
  2 11  1  0  0  0  0
  3  6  1  0  0  0  0
  5  8  1  1  0  0  0
  5 16  1  0  0  0  0
  6 33  1  6  0  0  0
  8 19  1  0  0  0  0
 11 15  1  0  0  0  0
 11 22  2  0  0  0  0
 12 10  2  0  0  0  0
 12 17  1  0  0  0  0
 14 20  1  6  0  0  0
 14  6  1  0  0  0  0
 15  7  1  6  0  0  0
 15 14  1  0  0  0  0
 16 14  1  0  0  0  0
 16 17  1  0  0  0  0
 17 13  1  0  0  0  0
 17  3  1  0  0  0  0
 18 19  1  0  0  0  0
 19  2  1  0  0  0  0
 19  7  1  0  0  0  0
 21  5  1  0  0  0  0
 21 12  1  0  0  0  0
 23 25  1  0  0  0  0
 24  1  1  0  0  0  0
 24 23  1  0  0  0  0
 25 28  1  0  0  0  0
 26 25  1  0  0  0  0
 26 29  1  0  0  0  0
 27 28  1  0  0  0  0
 28 30  1  0  0  0  0
 29 30  1  0  0  0  0
 32 31  1  0  0  0  0
 32 29  1  0  0  0  0
 33 34  1  0  0  0  0
 34 42  1  0  0  0  0
 34 43  1  0  0  0  0
 36 39  1  0  0  0  0
 36 37  1  0  0  0  0
 37 43  1  0  0  0  0
 38 47  1  0  0  0  0
 38 41  1  0  0  0  0
 39 35  1  0  0  0  0
 40 42  1  0  0  0  0
 41 44  1  0  0  0  0
 42 38  1  0  0  0  0
 43 35  1  0  0  0  0
 43 41  1  0  0  0  0
 44 45  1  0  0  0  0
 44 46  1  0  0  0  0
 47 48  1  0  0  0  0
 49 36  1  0  0  0  0
 49 63  1  0  0  0  0
 50 49  1  0  0  0  0
 50 51  2  0  0  0  0
 52 50  1  0  0  0  0
 53 57  1  0  0  0  0
 53 52  1  0  0  0  0
 54 55  1  0  0  0  0
 54 56  1  0  0  0  0
 55 57  1  0  0  0  0
 56 53  2  0  0  0  0
 58 55  1  0  0  0  0
 59 61  1  0  0  0  0
 61 60  1  0  0  0  0
 61 58  1  0  0  0  0
 62 63  1  0  0  0  0
M  END
>  <MODEL>
5

>  <REMARK>
 VINA RESULT:      -1.7      3.010      9.172
  Name = 
  14 active torsions:
  status: ('A' for Active; 'I' for Inactive)
    1  A    between atoms: C_1  and  O_21
    2  A    between atoms: C_3  and  O_21
    3  A    between atoms: C_3  and  C_27
    4  A    between atoms: C_4  and  S_55
    5  A    between atoms: P_5  and  C_62
    6  A    between atoms: C_7  and  C_36
    7  A    between atoms: C_10  and  C_32
    8  A    between atoms: C_12  and  C_27
    9  A    between atoms: C_15  and  C_32
   10  A    between atoms: C_18  and  C_22
   11  A    between atoms: C_27  and  O_50
   12  A    between atoms: N_30  and  C_45
   13  A    between atoms: S_35  and  C_45
   14  A    between atoms: C_48  and  C_63
                            x       y       z     vdW  Elec       q    Type
                         _______ _______ _______ _____ _____    ______ ____

>  <TORSDO>
F 14

$$$$
=
 OpenBabel11062418073D

 63 71  0  0  1  0  0  0  0  0999 V2000
  192.9800  175.2800  136.2730 P   0  0  1  0  0  0  0  0  0  0  0  0
  191.2490  175.5980  135.7960 C   0  0  1  0  0  0  0  0  0  0  0  0
  186.6850  176.9770  139.1450 C   0  0  0  0  0  2  0  0  0  0  0  0
  191.5870  176.2000  134.5940 O   0  0  0  0  0  1  0  0  0  0  0  0
  190.2040  176.9930  139.4940 C   0  0  1  0  0  3  0  0  0  0  0  0
  186.9840  177.0900  137.6500 C   0  0  1  0  0  3  0  0  0  0  0  0
  190.6450  177.8370  136.8920 O   0  0  0  0  0  0  0  0  0  0  0  0
  190.8860  175.9680  138.4940 C   0  0  0  0  0  2  0  0  0  0  0  0
  194.1330  175.4610  135.2950 O   0  0  0  0  0  0  0  0  0  0  0  0
  188.2250  177.0840  142.3260 O   0  0  0  0  0  0  0  0  0  0  0  0
  189.8430  176.1240  135.6240 C   0  0  0  0  0  0  0  0  0  0  0  0
  188.5880  177.0980  141.1130 C   0  0  0  0  0  0  0  0  0  0  0  0
  187.5820  179.1530  140.0230 C   0  0  0  0  0  1  0  0  0  0  0  0
  188.4930  176.7590  137.6460 C   0  0  1  0  0  0  0  0  0  0  0  0
  189.4250  177.3790  136.4550 C   0  0  1  0  0  3  0  0  0  0  0  0
  188.9070  177.5190  138.8510 C   0  0  1  0  0  3  0  0  0  0  0  0
  187.8640  177.6590  139.8800 C   0  0  2  0  0  0  0  0  0  0  0  0
  192.7890  176.7450  137.1310 O   0  0  0  0  0  0  0  0  0  0  0  0
  191.3400  176.6050  137.1010 C   0  0  1  0  0  0  0  0  0  0  0  0
  188.3590  175.1320  137.7910 C   0  0  0  0  0  1  0  0  0  0  0  0
  189.8090  176.5430  140.8260 O   0  0  0  0  0  0  0  0  0  0  0  0
  189.0520  175.7520  134.8120 O   0  0  0  0  0  0  0  0  0  0  0  0
  193.6850  172.2570  136.4310 S   0  0  0  0  0  0  0  0  0  0  0  0
  192.9980  173.7030  137.0680 C   0  0  0  0  0  2  0  0  0  0  0  0
  195.4400  172.2740  136.0990 C   0  0  1  0  0  3  0  0  0  0  0  0
  195.9290  173.5470  136.2550 O   0  0  0  0  0  0  0  0  0  0  0  0
  195.6990  171.2060  138.2280 O   0  0  0  0  0  1  0  0  0  0  0  0
  196.2490  171.3350  136.9680 C   0  0  2  0  0  3  0  0  0  0  0  0
  197.3190  173.4470  136.5590 C   0  0  2  0  0  3  0  0  0  0  0  0
  197.5910  172.0300  137.1020 C   0  0  0  0  0  2  0  0  0  0  0  0
  199.1540  174.5250  137.8320 C   0  0  0  0  0  1  0  0  0  0  0  0
  197.6570  174.5130  137.5820 C   0  0  0  0  0  2  0  0  0  0  0  0
  185.9300  176.1500  136.9590 C   0  0  0  0  0  2  0  0  0  0  0  0
  184.6970  176.6190  137.6640 C   0  0  1  0  0  3  0  0  0  0  0  0
  183.8410  174.6630  138.9420 O   0  0  0  0  0  0  0  0  0  0  0  0
  183.1100  174.3970  136.7170 C   0  0  1  0  0  3  0  0  0  0  0  0
  182.6570  175.6270  137.2400 O   0  0  0  0  0  0  0  0  0  0  0  0
  183.1300  178.1560  138.3930 C   0  0  2  0  0  3  0  0  0  0  0  0
  183.8970  173.7570  137.9120 C   0  0  0  0  0  2  0  0  0  0  0  0
  184.0030  178.3250  136.1660 O   0  0  0  0  0  1  0  0  0  0  0  0
  183.0310  176.9620  139.2660 C   0  0  2  0  0  3  0  0  0  0  0  0
  184.3390  178.0400  137.5290 C   0  0  2  0  0  3  0  0  0  0  0  0
  183.5180  175.8780  138.2730 C   0  0  2  0  0  0  0  0  0  0  0  0
  181.6120  176.7410  139.8110 C   0  0  1  0  0  3  0  0  0  0  0  0
  181.1430  175.3270  140.0680 C   0  0  0  0  0  1  0  0  0  0  0  0
  181.4960  177.4630  141.0150 O   0  0  0  0  0  1  0  0  0  0  0  0
  182.9700  179.5910  138.9130 C   0  0  0  0  0  2  0  0  0  0  0  0
  184.2170  180.3230  138.9410 O   0  0  0  0  0  1  0  0  0  0  0  0
  181.9860  173.6990  135.8890 C   0  0  1  0  0  3  0  0  0  0  0  0
  180.7940  174.5980  135.9230 C   0  0  0  0  0  0  0  0  0  0  0  0
  179.9900  174.4110  136.9130 O   0  0  0  0  0  0  0  0  0  0  0  0
  180.5720  175.7080  135.0290 O   0  0  0  0  0  0  0  0  0  0  0  0
  180.4040  177.1060  135.2470 C   0  0  0  0  0  0  0  0  0  0  0  0
  181.1250  179.3280  134.9530 N   0  0  0  0  0  2  0  0  0  0  0  0
  179.7920  179.6080  135.7420 S   0  0  1  0  0  3  0  0  0  0  0  0
  181.2810  177.9130  134.6890 C   0  0  0  0  0  3  0  0  0  0  0  0
  179.4300  177.8810  136.1320 C   0  0  0  0  0  2  0  0  0  0  0  0
  180.1220  180.8430  137.0340 C   0  0  0  0  0  2  0  0  0  0  0  0
  180.7830  183.0750  137.1060 C   0  0  0  0  0  1  0  0  0  0  0  0
  179.9420  182.2860  135.1760 C   0  0  0  0  0  1  0  0  0  0  0  0
  179.7360  182.1890  136.6150 N   0  0  0  0  0  0  0  0  0  0  0  0
  183.2050  172.2830  134.6800 C   0  0  0  0  0  1  0  0  0  0  0  0
  182.4070  173.4330  134.5950 O   0  0  0  0  0  0  0  0  0  0  0  0
  1  9  2  6  0  0  0
  1 24  1  0  0  0  0
  1 18  1  0  0  0  0
  2  4  1  6  0  0  0
  2  1  1  0  0  0  0
  2 19  1  0  0  0  0
  3 17  1  0  0  0  0
  5  8  1  6  0  0  0
  5 21  1  0  0  0  0
  6 33  1  6  0  0  0
  6  3  1  0  0  0  0
  7 19  1  0  0  0  0
 11  2  1  0  0  0  0
 12 10  2  0  0  0  0
 14  6  1  0  0  0  0
 14 20  1  1  0  0  0
 14 16  1  0  0  0  0
 15 11  1  6  0  0  0
 15  7  1  0  0  0  0
 15 14  1  0  0  0  0
 16  5  1  0  0  0  0
 16 17  1  0  0  0  0
 17 13  1  0  0  0  0
 17 12  1  0  0  0  0
 19 18  1  0  0  0  0
 19  8  1  0  0  0  0
 21 12  1  0  0  0  0
 22 11  2  0  0  0  0
 23 24  1  0  0  0  0
 25 26  1  0  0  0  0
 25 23  1  0  0  0  0
 25 28  1  0  0  0  0
 26 29  1  0  0  0  0
 28 30  1  0  0  0  0
 28 27  1  0  0  0  0
 29 30  1  0  0  0  0
 29 32  1  0  0  0  0
 32 31  1  0  0  0  0
 33 34  1  0  0  0  0
 34 43  1  0  0  0  0
 36 37  1  0  0  0  0
 36 39  1  0  0  0  0
 37 43  1  0  0  0  0
 38 47  1  0  0  0  0
 38 41  1  0  0  0  0
 39 35  1  0  0  0  0
 40 42  1  0  0  0  0
 41 44  1  0  0  0  0
 42 34  1  0  0  0  0
 42 38  1  0  0  0  0
 43 35  1  0  0  0  0
 43 41  1  0  0  0  0
 44 45  1  0  0  0  0
 44 46  1  0  0  0  0
 47 48  1  0  0  0  0
 49 50  1  0  0  0  0
 49 36  1  0  0  0  0
 50 51  2  0  0  0  0
 52 53  1  0  0  0  0
 52 50  1  0  0  0  0
 53 57  1  0  0  0  0
 54 55  1  0  0  0  0
 55 57  1  0  0  0  0
 55 58  1  0  0  0  0
 56 54  1  0  0  0  0
 56 53  2  0  0  0  0
 60 61  1  0  0  0  0
 61 58  1  0  0  0  0
 61 59  1  0  0  0  0
 63 62  1  0  0  0  0
 63 49  1  0  0  0  0
M  END
>  <MODEL>
6

>  <REMARK>
 VINA RESULT:      -1.5      4.426      7.071
  Name = 
  14 active torsions:
  status: ('A' for Active; 'I' for Inactive)
    1  A    between atoms: C_1  and  O_21
    2  A    between atoms: C_3  and  O_21
    3  A    between atoms: C_3  and  C_27
    4  A    between atoms: C_4  and  S_55
    5  A    between atoms: P_5  and  C_62
    6  A    between atoms: C_7  and  C_36
    7  A    between atoms: C_10  and  C_32
    8  A    between atoms: C_12  and  C_27
    9  A    between atoms: C_15  and  C_32
   10  A    between atoms: C_18  and  C_22
   11  A    between atoms: C_27  and  O_50
   12  A    between atoms: N_30  and  C_45
   13  A    between atoms: S_35  and  C_45
   14  A    between atoms: C_48  and  C_63
                            x       y       z     vdW  Elec       q    Type
                         _______ _______ _______ _____ _____    ______ ____

>  <TORSDO>
F 14

$$$$
=
 OpenBabel11062418073D

 63 71  0  0  1  0  0  0  0  0999 V2000
  190.1070  176.7520  135.8790 P   0  0  1  0  0  0  0  0  0  0  0  0
  188.3140  177.0690  135.7690 C   0  0  1  0  0  0  0  0  0  0  0  0
  184.4490  177.9570  140.0370 C   0  0  0  0  0  2  0  0  0  0  0  0
  188.4160  177.8030  134.5970 O   0  0  0  0  0  1  0  0  0  0  0  0
  187.9700  178.0370  139.7260 C   0  0  1  0  0  3  0  0  0  0  0  0
  184.4610  178.2350  138.5340 C   0  0  1  0  0  3  0  0  0  0  0  0
  187.9080  179.1630  137.1940 O   0  0  0  0  0  0  0  0  0  0  0  0
  188.4610  177.1430  138.5110 C   0  0  0  0  0  2  0  0  0  0  0  0
  191.0550  177.0680  134.7300 O   0  0  0  0  0  0  0  0  0  0  0  0
  186.5580  177.7740  142.8690 O   0  0  0  0  0  0  0  0  0  0  0  0
  186.8970  177.5690  135.9190 C   0  0  0  0  0  0  0  0  0  0  0  0
  186.6860  177.9260  141.6180 C   0  0  0  0  0  0  0  0  0  0  0  0
  185.4760  180.0540  140.9640 C   0  0  0  0  0  1  0  0  0  0  0  0
  185.9450  177.9500  138.2130 C   0  0  1  0  0  0  0  0  0  0  0  0
  186.6320  178.7180  136.9450 C   0  0  1  0  0  3  0  0  0  0  0  0
  186.5720  178.5910  139.3960 C   0  0  1  0  0  3  0  0  0  0  0  0
  185.7390  178.5910  140.6090 C   0  0  2  0  0  0  0  0  0  0  0  0
  190.0680  178.1130  136.9110 O   0  0  0  0  0  0  0  0  0  0  0  0
  188.6410  177.9360  137.1360 C   0  0  1  0  0  0  0  0  0  0  0  0
  185.8550  176.3130  138.2040 C   0  0  0  0  0  1  0  0  0  0  0  0
  187.8360  177.4390  141.0510 O   0  0  0  0  0  0  0  0  0  0  0  0
  185.9710  177.2620  135.2330 O   0  0  0  0  0  0  0  0  0  0  0  0
  191.2610  173.8690  135.7750 S   0  0  0  0  0  0  0  0  0  0  0  0
  190.2880  175.1020  136.4810 C   0  0  0  0  0  2  0  0  0  0  0  0
  193.0170  174.1810  135.6760 C   0  0  1  0  0  3  0  0  0  0  0  0
  193.5070  174.4710  136.9260 O   0  0  0  0  0  0  0  0  0  0  0  0
  193.2690  171.8140  135.4070 O   0  0  0  0  0  1  0  0  0  0  0  0
  193.8230  173.0400  135.0940 C   0  0  2  0  0  3  0  0  0  0  0  0
  194.8950  174.1480  136.9370 C   0  0  2  0  0  3  0  0  0  0  0  0
  195.1650  173.1500  135.7930 C   0  0  0  0  0  2  0  0  0  0  0  0
  195.7690  174.6360  139.2060 C   0  0  0  0  0  1  0  0  0  0  0  0
  195.2310  173.5520  138.2900 C   0  0  0  0  0  2  0  0  0  0  0  0
  183.3040  177.3430  137.9530 C   0  0  0  0  0  2  0  0  0  0  0  0
  182.2850  178.4090  137.7060 C   0  0  1  0  0  3  0  0  0  0  0  0
  181.9380  179.5570  139.8860 O   0  0  0  0  0  0  0  0  0  0  0  0
  180.6430  177.5880  139.9380 C   0  0  1  0  0  3  0  0  0  0  0  0
  180.2740  178.3910  138.8380 O   0  0  0  0  0  0  0  0  0  0  0  0
  180.8820  179.7450  136.4420 C   0  0  2  0  0  3  0  0  0  0  0  0
  181.7670  178.4250  140.6420 C   0  0  0  0  0  2  0  0  0  0  0  0
  181.0990  177.4200  135.9020 O   0  0  0  0  0  1  0  0  0  0  0  0
  181.1030  180.4250  137.7410 C   0  0  2  0  0  3  0  0  0  0  0  0
  181.8130  178.5880  136.3230 C   0  0  2  0  0  3  0  0  0  0  0  0
  181.3670  179.1870  138.6340 C   0  0  2  0  0  0  0  0  0  0  0  0
  179.9050  181.2830  138.1730 C   0  0  1  0  0  3  0  0  0  0  0  0
  179.2190  180.9690  139.4850 C   0  0  0  0  0  1  0  0  0  0  0  0
  180.3300  182.6250  138.2160 O   0  0  0  0  0  1  0  0  0  0  0  0
  180.7800  180.5000  135.1090 C   0  0  0  0  0  2  0  0  0  0  0  0
  180.9800  181.9250  135.2510 O   0  0  0  0  0  1  0  0  0  0  0  0
  179.3820  176.9880  140.6360 C   0  0  1  0  0  3  0  0  0  0  0  0
  179.6400  175.5290  140.8270 C   0  0  0  0  0  0  0  0  0  0  0  0
  178.9310  174.9570  141.7370 O   0  0  0  0  0  0  0  0  0  0  0  0
  180.5010  174.7280  139.9900 O   0  0  0  0  0  0  0  0  0  0  0  0
  180.3010  174.0810  138.7360 C   0  0  0  0  0  0  0  0  0  0  0  0
  178.9440  172.8500  137.2590 N   0  0  0  0  0  2  0  0  0  0  0  0
  180.1980  173.0490  136.3280 S   0  0  1  0  0  3  0  0  0  0  0  0
  179.1210  173.5420  138.5180 C   0  0  0  0  0  3  0  0  0  0  0  0
  181.2640  173.7770  137.5910 C   0  0  0  0  0  2  0  0  0  0  0  0
  180.5910  171.4670  135.5250 C   0  0  0  0  0  2  0  0  0  0  0  0
  182.1340  172.9810  134.6560 C   0  0  0  0  0  1  0  0  0  0  0  0
  182.8760  170.9450  135.2560 C   0  0  0  0  0  1  0  0  0  0  0  0
  181.7310  171.5810  134.6170 N   0  0  0  0  0  0  0  0  0  0  0  0
  180.2420  177.4280  142.6410 C   0  0  0  0  0  1  0  0  0  0  0  0
  179.1150  177.6350  141.8320 O   0  0  0  0  0  0  0  0  0  0  0  0
  1  9  2  6  0  0  0
  1 24  1  0  0  0  0
  1 18  1  0  0  0  0
  2  4  1  6  0  0  0
  2  1  1  0  0  0  0
  2 11  1  0  0  0  0
  2 19  1  0  0  0  0
  3 17  1  0  0  0  0
  5  8  1  6  0  0  0
  5 21  1  0  0  0  0
  6 33  1  6  0  0  0
  6  3  1  0  0  0  0
 12 10  2  0  0  0  0
 14 20  1  6  0  0  0
 14  6  1  0  0  0  0
 14 16  1  0  0  0  0
 15 11  1  6  0  0  0
 15  7  1  0  0  0  0
 15 14  1  0  0  0  0
 16  5  1  0  0  0  0
 16 17  1  0  0  0  0
 17 13  1  0  0  0  0
 17 12  1  0  0  0  0
 18 19  1  0  0  0  0
 19  7  1  0  0  0  0
 19  8  1  0  0  0  0
 21 12  1  0  0  0  0
 22 11  2  0  0  0  0
 23 24  1  0  0  0  0
 25 23  1  0  0  0  0
 25 26  1  0  0  0  0
 26 29  1  0  0  0  0
 28 27  1  0  0  0  0
 28 25  1  0  0  0  0
 28 30  1  0  0  0  0
 29 32  1  0  0  0  0
 30 29  1  0  0  0  0
 32 31  1  0  0  0  0
 34 33  1  0  0  0  0
 34 43  1  0  0  0  0
 35 39  1  0  0  0  0
 36 49  1  0  0  0  0
 36 39  1  0  0  0  0
 37 36  1  0  0  0  0
 38 41  1  0  0  0  0
 40 42  1  0  0  0  0
 41 44  1  0  0  0  0
 41 43  1  0  0  0  0
 42 38  1  0  0  0  0
 42 34  1  0  0  0  0
 43 37  1  0  0  0  0
 43 35  1  0  0  0  0
 44 46  1  0  0  0  0
 44 45  1  0  0  0  0
 47 48  1  0  0  0  0
 47 38  1  0  0  0  0
 49 50  1  0  0  0  0
 49 63  1  0  0  0  0
 50 51  2  0  0  0  0
 52 50  1  0  0  0  0
 53 52  1  0  0  0  0
 54 56  1  0  0  0  0
 55 54  1  0  0  0  0
 55 57  1  0  0  0  0
 56 53  2  0  0  0  0
 57 53  1  0  0  0  0
 58 55  1  0  0  0  0
 61 59  1  0  0  0  0
 61 60  1  0  0  0  0
 61 58  1  0  0  0  0
 63 62  1  0  0  0  0
M  END
>  <MODEL>
7

>  <REMARK>
 VINA RESULT:      -1.4      3.792      6.249
  Name = 
  14 active torsions:
  status: ('A' for Active; 'I' for Inactive)
    1  A    between atoms: C_1  and  O_21
    2  A    between atoms: C_3  and  O_21
    3  A    between atoms: C_3  and  C_27
    4  A    between atoms: C_4  and  S_55
    5  A    between atoms: P_5  and  C_62
    6  A    between atoms: C_7  and  C_36
    7  A    between atoms: C_10  and  C_32
    8  A    between atoms: C_12  and  C_27
    9  A    between atoms: C_15  and  C_32
   10  A    between atoms: C_18  and  C_22
   11  A    between atoms: C_27  and  O_50
   12  A    between atoms: N_30  and  C_45
   13  A    between atoms: S_35  and  C_45
   14  A    between atoms: C_48  and  C_63
                            x       y       z     vdW  Elec       q    Type
                         _______ _______ _______ _____ _____    ______ ____

>  <TORSDO>
F 14

$$$$
