=
 OpenBabel11062418083D

 25 29  0  0  1  0  0  0  0  0999 V2000
  190.8160  176.8520  141.7790 C   0  0  0  0  0  0  0  0  0  0  0  0
  192.0650  176.9140  141.9190 O   0  0  0  0  0  0  0  0  0  0  0  0
  186.2970  178.6030  146.2100 C   0  0  0  0  0  3  0  0  0  0  0  0
  184.6250  178.4160  144.4800 C   0  0  0  0  0  0  0  0  0  0  0  0
  188.7250  177.7410  140.6700 C   0  0  0  0  0  2  0  0  0  0  0  0
  186.7960  177.5660  143.9530 C   0  0  0  0  0  0  0  0  0  0  0  0
  188.0570  178.2340  141.9420 C   0  0  0  0  0  2  0  0  0  0  0  0
  189.3160  177.6070  146.8670 C   0  0  1  0  0  0  0  0  0  0  0  0
  190.0360  175.8690  142.5960 C   0  0  0  0  0  2  0  0  0  0  0  0
  190.9000  175.8400  147.1550 O   0  0  0  0  0  1  0  0  0  0  0  0
  187.7830  177.0880  142.9170 C   0  0  1  0  0  3  0  0  0  0  0  0
  187.1900  177.6750  145.4210 C   0  0  1  0  0  3  0  0  0  0  0  0
  185.0700  178.9020  145.7900 C   0  0  0  0  0  3  0  0  0  0  0  0
  188.6980  177.9420  145.5930 C   0  0  1  0  0  0  0  0  0  0  0  0
  190.7000  177.0870  146.5600 C   0  0  1  0  0  3  0  0  0  0  0  0
  185.5820  177.8500  143.5770 N   0  0  0  0  0  0  0  0  0  0  0  0
  189.1040  178.9500  146.4910 O   0  0  0  0  0  0  0  0  0  0  0  0
  189.0660  176.5370  143.5760 C   0  0  2  0  0  3  0  0  0  0  0  0
  189.7150  177.5410  144.5410 C   0  0  2  0  0  3  0  0  0  0  0  0
  190.1690  177.7150  140.8450 N   0  0  0  0  0  2  0  0  0  0  0  0
  190.8480  176.9650  145.1630 O   0  0  0  0  0  0  0  0  0  0  0  0
  183.4270  178.5610  144.1220 O   0  0  0  0  0  0  0  0  0  0  0  0
  188.2190  178.0550  149.0700 O   0  0  0  0  0  1  0  0  0  0  0  0
  188.4980  177.1640  148.0420 C   0  0  0  0  0  0  0  0  0  0  0  0
  188.0850  175.9770  148.1150 O   0  0  0  0  0  0  0  0  0  0  0  0
  1  2  2  0  0  0  0
  1  9  1  0  0  0  0
  4 13  1  0  0  0  0
  5 20  1  0  0  0  0
  5  7  1  0  0  0  0
  6 12  1  0  0  0  0
  8 24  1  1  0  0  0
 11  7  1  6  0  0  0
 11 18  1  0  0  0  0
 11  6  1  0  0  0  0
 12 14  1  0  0  0  0
 12  3  1  6  0  0  0
 13  3  2  0  0  0  0
 14 17  1  6  0  0  0
 14  8  1  0  0  0  0
 15  8  1  0  0  0  0
 15 10  1  1  0  0  0
 16  6  2  0  0  0  0
 16  4  1  0  0  0  0
 17  8  1  0  0  0  0
 18  9  1  6  0  0  0
 18 19  1  0  0  0  0
 19 21  1  1  0  0  0
 19 14  1  0  0  0  0
 20  1  1  0  0  0  0
 21 15  1  0  0  0  0
 22  4  2  0  0  0  0
 24 25  2  0  0  0  0
 24 23  1  0  0  0  0
M  END
>  <MODEL>
1

>  <REMARK>
 VINA RESULT:      -8.7      0.000      0.000
  Name = 
  1 active torsions:
  status: ('A' for Active; 'I' for Inactive)
    1  A    between atoms: C_8  and  C_12
                            x       y       z     vdW  Elec       q    Type
                         _______ _______ _______ _____ _____    ______ ____

>  <TORSDO>
F 1

$$$$
=
 OpenBabel11062418083D

 25 29  0  0  1  0  0  0  0  0999 V2000
  188.7220  177.7440  140.3480 C   0  0  0  0  0  0  0  0  0  0  0  0
  187.7980  177.6330  139.5020 O   0  0  0  0  0  0  0  0  0  0  0  0
  188.1380  177.1770  146.8640 C   0  0  0  0  0  3  0  0  0  0  0  0
  190.5470  177.1250  147.0080 C   0  0  0  0  0  0  0  0  0  0  0  0
  190.8190  176.7870  141.3870 C   0  0  0  0  0  2  0  0  0  0  0  0
  189.6230  177.7190  144.8850 C   0  0  0  0  0  0  0  0  0  0  0  0
  190.2430  176.5940  142.7800 C   0  0  0  0  0  2  0  0  0  0  0  0
  185.7900  178.0930  144.8190 C   0  0  1  0  0  0  0  0  0  0  0  0
  188.7220  178.9150  141.2820 C   0  0  0  0  0  2  0  0  0  0  0  0
  184.7370  179.7810  143.4940 O   0  0  0  0  0  1  0  0  0  0  0  0
  189.8130  177.9230  143.4020 C   0  0  1  0  0  3  0  0  0  0  0  0
  188.2520  177.8760  145.5300 C   0  0  1  0  0  3  0  0  0  0  0  0
  189.2190  176.8780  147.5810 C   0  0  0  0  0  3  0  0  0  0  0  0
  187.1130  177.5550  144.5430 C   0  0  1  0  0  0  0  0  0  0  0  0
  185.1770  178.4570  143.4870 C   0  0  1  0  0  3  0  0  0  0  0  0
  190.6650  177.4430  145.6170 N   0  0  0  0  0  0  0  0  0  0  0  0
  186.0640  176.7190  144.9760 O   0  0  0  0  0  0  0  0  0  0  0  0
  188.5430  178.5120  142.7510 C   0  0  2  0  0  3  0  0  0  0  0  0
  187.2860  177.6790  143.0410 C   0  0  2  0  0  3  0  0  0  0  0  0
  189.7510  176.7560  140.4000 N   0  0  0  0  0  2  0  0  0  0  0  0
  186.1450  178.2940  142.4740 O   0  0  0  0  0  0  0  0  0  0  0  0
  191.5780  176.9870  147.7160 O   0  0  0  0  0  0  0  0  0  0  0  0
  184.7050  178.1930  147.0710 O   0  0  0  0  0  1  0  0  0  0  0  0
  185.4860  178.8080  146.1010 C   0  0  0  0  0  0  0  0  0  0  0  0
  185.9150  179.9750  146.2920 O   0  0  0  0  0  0  0  0  0  0  0  0
  1 20  1  0  0  0  0
  1  9  1  0  0  0  0
  2  1  2  0  0  0  0
  3 13  2  0  0  0  0
  4 13  1  0  0  0  0
  4 22  2  0  0  0  0
  5  7  1  0  0  0  0
  6 12  1  0  0  0  0
  6 16  2  0  0  0  0
  8 17  1  0  0  0  0
  8 24  1  1  0  0  0
 11  7  1  6  0  0  0
 11  6  1  0  0  0  0
 12  3  1  1  0  0  0
 14  8  1  0  0  0  0
 14 17  1  1  0  0  0
 14 12  1  0  0  0  0
 15 10  1  1  0  0  0
 15  8  1  0  0  0  0
 16  4  1  0  0  0  0
 18  9  1  6  0  0  0
 18 19  1  0  0  0  0
 18 11  1  0  0  0  0
 19 21  1  1  0  0  0
 19 14  1  0  0  0  0
 20  5  1  0  0  0  0
 21 15  1  0  0  0  0
 24 25  2  0  0  0  0
 24 23  1  0  0  0  0
M  END
>  <MODEL>
2

>  <REMARK>
 VINA RESULT:      -8.7      2.160      4.500
  Name = 
  1 active torsions:
  status: ('A' for Active; 'I' for Inactive)
    1  A    between atoms: C_8  and  C_12
                            x       y       z     vdW  Elec       q    Type
                         _______ _______ _______ _____ _____    ______ ____

>  <TORSDO>
F 1

$$$$
=
 OpenBabel11062418083D

 25 29  0  0  1  0  0  0  0  0999 V2000
  184.6550  179.0870  142.0230 C   0  0  0  0  0  0  0  0  0  0  0  0
  184.6900  179.5780  140.8660 O   0  0  0  0  0  0  0  0  0  0  0  0
  189.8220  177.5100  145.7560 C   0  0  0  0  0  3  0  0  0  0  0  0
  188.3090  177.2360  147.6170 C   0  0  0  0  0  0  0  0  0  0  0  0
  184.1510  179.3960  144.4810 C   0  0  0  0  0  2  0  0  0  0  0  0
  187.3060  177.4930  145.4620 C   0  0  0  0  0  0  0  0  0  0  0  0
  185.5730  179.1780  144.9720 C   0  0  0  0  0  2  0  0  0  0  0  0
  189.7790  177.6030  142.5120 C   0  0  1  0  0  0  0  0  0  0  0  0
  185.1210  177.6790  142.2350 C   0  0  0  0  0  2  0  0  0  0  0  0
  189.2470  176.5860  140.4150 O   0  0  0  0  0  1  0  0  0  0  0  0
  186.0790  177.7760  144.6310 C   0  0  1  0  0  3  0  0  0  0  0  0
  188.6660  177.2880  144.8090 C   0  0  1  0  0  3  0  0  0  0  0  0
  189.6590  177.4280  147.0750 C   0  0  0  0  0  3  0  0  0  0  0  0
  188.7820  178.0480  143.4730 C   0  0  1  0  0  0  0  0  0  0  0  0
  189.1740  177.7770  141.1390 C   0  0  1  0  0  3  0  0  0  0  0  0
  187.1760  177.3890  146.7540 N   0  0  0  0  0  0  0  0  0  0  0  0
  189.9460  178.8060  143.2290 O   0  0  0  0  0  0  0  0  0  0  0  0
  186.3650  177.5860  143.1260 C   0  0  2  0  0  3  0  0  0  0  0  0
  187.5670  178.4130  142.6430 C   0  0  2  0  0  3  0  0  0  0  0  0
  184.1690  179.8760  143.1080 N   0  0  0  0  0  2  0  0  0  0  0  0
  187.8230  178.1570  141.2760 O   0  0  0  0  0  0  0  0  0  0  0  0
  188.1440  177.0110  148.8440 O   0  0  0  0  0  0  0  0  0  0  0  0
  190.3960  175.2080  142.8890 O   0  0  0  0  0  0  0  0  0  0  0  0
  190.7810  176.5410  142.8550 C   0  0  0  0  0  0  0  0  0  0  0  0
  191.9660  176.8570  143.1380 O   0  0  0  0  0  1  0  0  0  0  0  0
  1  9  1  0  0  0  0
  1 20  1  0  0  0  0
  2  1  2  0  0  0  0
  3 13  2  0  0  0  0
  4 22  2  0  0  0  0
  5  7  1  0  0  0  0
  6 16  2  0  0  0  0
  8 24  1  1  0  0  0
  8 17  1  0  0  0  0
  8 14  1  0  0  0  0
 11  7  1  6  0  0  0
 11  6  1  0  0  0  0
 12  6  1  0  0  0  0
 12  3  1  1  0  0  0
 13  4  1  0  0  0  0
 14 17  1  1  0  0  0
 14 12  1  0  0  0  0
 15 10  1  6  0  0  0
 15 21  1  0  0  0  0
 15  8  1  0  0  0  0
 16  4  1  0  0  0  0
 18  9  1  6  0  0  0
 18 11  1  0  0  0  0
 19 21  1  6  0  0  0
 19 18  1  0  0  0  0
 19 14  1  0  0  0  0
 20  5  1  0  0  0  0
 24 23  2  0  0  0  0
 24 25  1  0  0  0  0
M  END
>  <MODEL>
3

>  <REMARK>
 VINA RESULT:      -8.7      2.121      5.105
  Name = 
  1 active torsions:
  status: ('A' for Active; 'I' for Inactive)
    1  A    between atoms: C_8  and  C_12
                            x       y       z     vdW  Elec       q    Type
                         _______ _______ _______ _____ _____    ______ ____

>  <TORSDO>
F 1

$$$$
=
 OpenBabel11062418083D

 25 29  0  0  1  0  0  0  0  0999 V2000
  183.2760  178.9150  143.6230 C   0  0  0  0  0  0  0  0  0  0  0  0
  182.7410  178.5050  144.6850 O   0  0  0  0  0  0  0  0  0  0  0  0
  189.1370  177.1280  141.2620 C   0  0  0  0  0  3  0  0  0  0  0  0
  188.5620  178.2250  139.1900 C   0  0  0  0  0  0  0  0  0  0  0  0
  183.3040  178.9410  141.0950 C   0  0  0  0  0  2  0  0  0  0  0  0
  187.1030  178.6220  141.0410 C   0  0  0  0  0  0  0  0  0  0  0  0
  184.6620  178.2800  140.9350 C   0  0  0  0  0  2  0  0  0  0  0  0
  188.2590  177.1020  144.3860 C   0  0  1  0  0  0  0  0  0  0  0  0
  184.4970  179.7780  143.7050 C   0  0  0  0  0  2  0  0  0  0  0  0
  187.9110  178.2530  146.4520 O   0  0  0  0  0  1  0  0  0  0  0  0
  185.7770  179.1200  141.5610 C   0  0  1  0  0  3  0  0  0  0  0  0
  188.1270  177.9930  141.9770 C   0  0  1  0  0  3  0  0  0  0  0  0
  189.3780  177.2810  139.9620 C   0  0  0  0  0  3  0  0  0  0  0  0
  187.4580  177.3200  143.1920 C   0  0  1  0  0  0  0  0  0  0  0  0
  187.3500  177.3270  145.5720 C   0  0  1  0  0  3  0  0  0  0  0  0
  187.3760  178.7730  139.7770 N   0  0  0  0  0  0  0  0  0  0  0  0
  187.8780  176.0250  143.5590 O   0  0  0  0  0  0  0  0  0  0  0  0
  185.7420  179.1160  143.1050 C   0  0  2  0  0  3  0  0  0  0  0  0
  186.0940  177.7450  143.7020 C   0  0  2  0  0  3  0  0  0  0  0  0
  182.7090  178.5530  142.3640 N   0  0  0  0  0  2  0  0  0  0  0  0
  186.1080  177.8120  145.1150 O   0  0  0  0  0  0  0  0  0  0  0  0
  188.8600  178.4940  137.9980 O   0  0  0  0  0  0  0  0  0  0  0  0
  190.2030  178.6760  144.4620 O   0  0  0  0  0  1  0  0  0  0  0  0
  189.7340  177.3700  144.4020 C   0  0  0  0  0  0  0  0  0  0  0  0
  190.5510  176.4160  144.3340 O   0  0  0  0  0  0  0  0  0  0  0  0
  1  9  1  0  0  0  0
  1  2  2  0  0  0  0
  4 16  1  0  0  0  0
  4 13  1  0  0  0  0
  5 20  1  0  0  0  0
  6 11  1  0  0  0  0
  6 12  1  0  0  0  0
  7  5  1  0  0  0  0
  8 24  1  1  0  0  0
  8 15  1  0  0  0  0
 11  7  1  6  0  0  0
 11 18  1  0  0  0  0
 12  3  1  6  0  0  0
 12 14  1  0  0  0  0
 13  3  2  0  0  0  0
 14 17  1  6  0  0  0
 14 19  1  0  0  0  0
 14  8  1  0  0  0  0
 15 10  1  1  0  0  0
 16  6  2  0  0  0  0
 17  8  1  0  0  0  0
 18 19  1  0  0  0  0
 18  9  1  6  0  0  0
 19 21  1  1  0  0  0
 20  1  1  0  0  0  0
 21 15  1  0  0  0  0
 22  4  2  0  0  0  0
 24 23  1  0  0  0  0
 25 24  2  0  0  0  0
M  END
>  <MODEL>
4

>  <REMARK>
 VINA RESULT:      -8.6      2.255      5.440
  Name = 
  1 active torsions:
  status: ('A' for Active; 'I' for Inactive)
    1  A    between atoms: C_8  and  C_12
                            x       y       z     vdW  Elec       q    Type
                         _______ _______ _______ _____ _____    ______ ____

>  <TORSDO>
F 1

$$$$
=
 OpenBabel11062418083D

 25 29  0  0  1  0  0  0  0  0999 V2000
  184.0960  178.7480  145.1700 C   0  0  0  0  0  0  0  0  0  0  0  0
  183.9840  178.2950  146.3380 O   0  0  0  0  0  0  0  0  0  0  0  0
  188.7530  177.1910  140.8100 C   0  0  0  0  0  3  0  0  0  0  0  0
  187.4550  178.3240  139.1200 C   0  0  0  0  0  0  0  0  0  0  0  0
  183.2170  178.8400  142.8020 C   0  0  0  0  0  2  0  0  0  0  0  0
  186.7490  178.6310  141.3830 C   0  0  0  0  0  0  0  0  0  0  0  0
  184.4390  178.2220  142.1440 C   0  0  0  0  0  2  0  0  0  0  0  0
  189.0530  177.0590  144.0390 C   0  0  1  0  0  0  0  0  0  0  0  0
  185.2500  179.6430  144.8400 C   0  0  0  0  0  2  0  0  0  0  0  0
  189.4480  178.1460  146.1310 O   0  0  0  0  0  1  0  0  0  0  0  0
  185.6890  179.0780  142.3590 C   0  0  1  0  0  3  0  0  0  0  0  0
  188.0510  178.0080  141.8690 C   0  0  1  0  0  3  0  0  0  0  0  0
  188.5100  177.3840  139.5160 C   0  0  0  0  0  3  0  0  0  0  0  0
  187.8730  177.2850  143.2180 C   0  0  1  0  0  0  0  0  0  0  0  0
  188.6250  177.2270  145.4780 C   0  0  1  0  0  3  0  0  0  0  0  0
  186.5490  178.8220  140.1100 N   0  0  0  0  0  0  0  0  0  0  0  0
  188.4200  175.9940  143.3660 O   0  0  0  0  0  0  0  0  0  0  0  0
  186.2100  179.0330  143.8120 C   0  0  2  0  0  3  0  0  0  0  0  0
  186.7760  177.6570  144.1960 C   0  0  2  0  0  3  0  0  0  0  0  0
  183.1220  178.4030  144.1850 N   0  0  0  0  0  2  0  0  0  0  0  0
  187.2930  177.6880  145.5120 O   0  0  0  0  0  0  0  0  0  0  0  0
  187.3020  178.6330  137.9090 O   0  0  0  0  0  0  0  0  0  0  0  0
  190.9010  178.6750  143.5560 O   0  0  0  0  0  1  0  0  0  0  0  0
  190.4310  177.3690  143.5360 C   0  0  0  0  0  0  0  0  0  0  0  0
  191.1550  176.4510  143.0690 O   0  0  0  0  0  0  0  0  0  0  0  0
  1  2  2  0  0  0  0
  4 13  1  0  0  0  0
  4 16  1  0  0  0  0
  5 20  1  0  0  0  0
  6 12  1  0  0  0  0
  6 11  1  0  0  0  0
  7  5  1  0  0  0  0
  8 24  1  6  0  0  0
  8 15  1  0  0  0  0
  9  1  1  0  0  0  0
 11  7  1  1  0  0  0
 11 18  1  0  0  0  0
 12  3  1  6  0  0  0
 12 14  1  0  0  0  0
 13  3  2  0  0  0  0
 14 17  1  6  0  0  0
 14  8  1  0  0  0  0
 14 19  1  0  0  0  0
 15 21  1  0  0  0  0
 15 10  1  6  0  0  0
 16  6  2  0  0  0  0
 17  8  1  0  0  0  0
 18 19  1  0  0  0  0
 18  9  1  1  0  0  0
 19 21  1  1  0  0  0
 20  1  1  0  0  0  0
 22  4  2  0  0  0  0
 24 23  1  0  0  0  0
 25 24  2  0  0  0  0
M  END
>  <MODEL>
5

>  <REMARK>
 VINA RESULT:      -8.4      2.235      5.315
  Name = 
  1 active torsions:
  status: ('A' for Active; 'I' for Inactive)
    1  A    between atoms: C_8  and  C_12
                            x       y       z     vdW  Elec       q    Type
                         _______ _______ _______ _____ _____    ______ ____

>  <TORSDO>
F 1

$$$$
=
 OpenBabel11062418083D

 25 29  0  0  1  0  0  0  0  0999 V2000
  185.1630  178.9440  145.0130 C   0  0  0  0  0  0  0  0  0  0  0  0
  184.5800  179.7030  144.1970 O   0  0  0  0  0  0  0  0  0  0  0  0
  191.4810  177.1610  144.8600 C   0  0  0  0  0  3  0  0  0  0  0  0
  191.2100  176.2550  147.0800 C   0  0  0  0  0  0  0  0  0  0  0  0
  186.0800  178.5800  147.3410 C   0  0  0  0  0  2  0  0  0  0  0  0
  189.2070  176.9030  145.9470 C   0  0  0  0  0  0  0  0  0  0  0  0
  187.5340  178.4270  146.9260 C   0  0  0  0  0  2  0  0  0  0  0  0
  189.6910  178.0360  142.2980 C   0  0  1  0  0  0  0  0  0  0  0  0
  185.6290  177.5970  144.5540 C   0  0  0  0  0  2  0  0  0  0  0  0
  188.0790  177.5030  140.6150 O   0  0  0  0  0  1  0  0  0  0  0  0
  187.7340  177.2240  146.0030 C   0  0  1  0  0  3  0  0  0  0  0  0
  189.9910  177.0340  144.6470 C   0  0  1  0  0  3  0  0  0  0  0  0
  192.0550  176.7400  145.9840 C   0  0  0  0  0  3  0  0  0  0  0  0
  189.3860  178.1060  143.7180 C   0  0  1  0  0  0  0  0  0  0  0  0
  188.4440  178.4630  141.5600 C   0  0  1  0  0  3  0  0  0  0  0  0
  189.7950  176.4710  147.0260 N   0  0  0  0  0  0  0  0  0  0  0  0
  190.2530  179.0390  143.1140 O   0  0  0  0  0  0  0  0  0  0  0  0
  187.1540  177.4450  144.5890 C   0  0  2  0  0  3  0  0  0  0  0  0
  187.9260  178.5080  143.7910 C   0  0  2  0  0  3  0  0  0  0  0  0
  185.3650  179.3780  146.3580 N   0  0  0  0  0  2  0  0  0  0  0  0
  187.3930  178.6270  142.4860 O   0  0  0  0  0  0  0  0  0  0  0  0
  191.7290  175.7190  148.0930 O   0  0  0  0  0  0  0  0  0  0  0  0
  191.9120  177.5030  141.2760 O   0  0  0  0  0  0  0  0  0  0  0  0
  190.6880  177.0560  141.7560 C   0  0  0  0  0  0  0  0  0  0  0  0
  190.4090  175.8300  141.7100 O   0  0  0  0  0  1  0  0  0  0  0  0
  1 20  1  0  0  0  0
  2  1  2  0  0  0  0
  3 13  2  0  0  0  0
  4 22  2  0  0  0  0
  6 11  1  0  0  0  0
  6 16  2  0  0  0  0
  7  5  1  0  0  0  0
  8 24  1  6  0  0  0
  8 17  1  0  0  0  0
  8 14  1  0  0  0  0
  9  1  1  0  0  0  0
 11  7  1  1  0  0  0
 12  3  1  1  0  0  0
 12  6  1  0  0  0  0
 13  4  1  0  0  0  0
 14 17  1  1  0  0  0
 14 19  1  0  0  0  0
 14 12  1  0  0  0  0
 15 10  1  6  0  0  0
 15  8  1  0  0  0  0
 15 21  1  0  0  0  0
 16  4  1  0  0  0  0
 18  9  1  1  0  0  0
 18 11  1  0  0  0  0
 19 21  1  6  0  0  0
 19 18  1  0  0  0  0
 20  5  1  0  0  0  0
 23 24  2  0  0  0  0
 25 24  1  0  0  0  0
M  END
>  <MODEL>
6

>  <REMARK>
 VINA RESULT:      -8.1      2.283      5.962
  Name = 
  1 active torsions:
  status: ('A' for Active; 'I' for Inactive)
    1  A    between atoms: C_8  and  C_12
                            x       y       z     vdW  Elec       q    Type
                         _______ _______ _______ _____ _____    ______ ____

>  <TORSDO>
F 1

$$$$
=
 OpenBabel11062418083D

 25 29  0  0  1  0  0  0  0  0999 V2000
  187.2070  177.8760  146.9610 C   0  0  0  0  0  0  0  0  0  0  0  0
  186.4810  178.5760  147.7140 O   0  0  0  0  0  0  0  0  0  0  0  0
  187.6730  178.3650  140.4290 C   0  0  0  0  0  3  0  0  0  0  0  0
  189.5940  176.9080  140.5240 C   0  0  0  0  0  0  0  0  0  0  0  0
  189.5250  177.2770  146.1500 C   0  0  0  0  0  2  0  0  0  0  0  0
  188.3200  177.1170  142.5360 C   0  0  0  0  0  0  0  0  0  0  0  0
  189.3180  177.7170  144.7100 C   0  0  0  0  0  2  0  0  0  0  0  0
  185.0970  179.2000  142.2180 C   0  0  1  0  0  0  0  0  0  0  0  0
  186.5620  176.9130  146.0130 C   0  0  0  0  0  2  0  0  0  0  0  0
  183.1120  178.5950  143.4050 O   0  0  0  0  0  1  0  0  0  0  0  0
  188.2120  176.9120  144.0270 C   0  0  1  0  0  3  0  0  0  0  0  0
  187.2120  177.8120  141.7560 C   0  0  1  0  0  3  0  0  0  0  0  0
  188.7640  177.8960  139.8270 C   0  0  0  0  0  3  0  0  0  0  0  0
  186.4370  178.8170  142.6320 C   0  0  1  0  0  0  0  0  0  0  0  0
  184.2770  179.3600  143.4770 C   0  0  1  0  0  3  0  0  0  0  0  0
  189.3670  176.6530  141.9150 N   0  0  0  0  0  0  0  0  0  0  0  0
  186.1770  180.1010  142.1110 O   0  0  0  0  0  0  0  0  0  0  0  0
  186.8000  177.2680  144.5410 C   0  0  2  0  0  3  0  0  0  0  0  0
  186.3640  178.6850  144.1410 C   0  0  2  0  0  3  0  0  0  0  0  0
  188.6260  178.0100  147.0270 N   0  0  0  0  0  2  0  0  0  0  0  0
  185.0440  178.9370  144.5820 O   0  0  0  0  0  0  0  0  0  0  0  0
  190.5450  176.3430  139.9250 O   0  0  0  0  0  0  0  0  0  0  0  0
  184.6160  179.6040  139.7960 O   0  0  0  0  0  0  0  0  0  0  0  0
  184.5280  178.7670  140.9000 C   0  0  0  0  0  0  0  0  0  0  0  0
  183.9470  177.6550  140.7970 O   0  0  0  0  0  1  0  0  0  0  0  0
  1 20  1  0  0  0  0
  1  2  2  0  0  0  0
  4 16  1  0  0  0  0
  5 20  1  0  0  0  0
  6 11  1  0  0  0  0
  7  5  1  0  0  0  0
  8 24  1  6  0  0  0
  8 14  1  0  0  0  0
  8 15  1  0  0  0  0
  9  1  1  0  0  0  0
 11 18  1  0  0  0  0
 11  7  1  1  0  0  0
 12  3  1  6  0  0  0
 12  6  1  0  0  0  0
 12 14  1  0  0  0  0
 13  3  2  0  0  0  0
 13  4  1  0  0  0  0
 14 17  1  6  0  0  0
 14 19  1  0  0  0  0
 15 10  1  6  0  0  0
 15 21  1  0  0  0  0
 16  6  2  0  0  0  0
 17  8  1  0  0  0  0
 18  9  1  1  0  0  0
 19 18  1  0  0  0  0
 19 21  1  6  0  0  0
 22  4  2  0  0  0  0
 23 24  2  0  0  0  0
 25 24  1  0  0  0  0
M  END
>  <MODEL>
7

>  <REMARK>
 VINA RESULT:      -8.0      2.321      6.258
  Name = 
  1 active torsions:
  status: ('A' for Active; 'I' for Inactive)
    1  A    between atoms: C_8  and  C_12
                            x       y       z     vdW  Elec       q    Type
                         _______ _______ _______ _____ _____    ______ ____

>  <TORSDO>
F 1

$$$$
=
 OpenBabel11062418083D

 25 29  0  0  1  0  0  0  0  0999 V2000
  188.8260  177.7590  140.3470 C   0  0  0  0  0  0  0  0  0  0  0  0
  189.9000  177.9110  139.7090 O   0  0  0  0  0  0  0  0  0  0  0  0
  188.0480  178.2540  146.8490 C   0  0  0  0  0  3  0  0  0  0  0  0
  185.6600  178.2270  146.4980 C   0  0  0  0  0  0  0  0  0  0  0  0
  186.5300  178.6330  140.9420 C   0  0  0  0  0  2  0  0  0  0  0  0
  187.0180  177.6920  144.6040 C   0  0  0  0  0  0  0  0  0  0  0  0
  186.8020  178.8260  142.4250 C   0  0  0  0  0  2  0  0  0  0  0  0
  190.7940  177.4430  145.3210 C   0  0  1  0  0  0  0  0  0  0  0  0
  188.6760  176.5760  141.2530 C   0  0  0  0  0  2  0  0  0  0  0  0
  192.1540  175.8090  144.2280 O   0  0  0  0  0  1  0  0  0  0  0  0
  187.1420  177.5030  143.1130 C   0  0  1  0  0  3  0  0  0  0  0  0
  188.2330  177.5710  145.5150 C   0  0  1  0  0  3  0  0  0  0  0  0
  186.8340  178.5090  147.3320 C   0  0  0  0  0  3  0  0  0  0  0  0
  189.5380  177.9430  144.7830 C   0  0  1  0  0  0  0  0  0  0  0  0
  191.6780  177.1180  144.1400 C   0  0  1  0  0  3  0  0  0  0  0  0
  185.8400  177.9240  145.1100 N   0  0  0  0  0  0  0  0  0  0  0  0
  190.4470  178.8060  145.4280 O   0  0  0  0  0  0  0  0  0  0  0  0
  188.5380  176.9640  142.7300 C   0  0  2  0  0  3  0  0  0  0  0  0
  189.6790  177.8340  143.2770 C   0  0  2  0  0  3  0  0  0  0  0  0
  187.7750  178.7120  140.1950 N   0  0  0  0  0  2  0  0  0  0  0  0
  190.9320  177.2640  142.9520 O   0  0  0  0  0  0  0  0  0  0  0  0
  184.5020  178.3210  146.9800 O   0  0  0  0  0  0  0  0  0  0  0  0
  191.6030  177.2440  147.6800 O   0  0  0  0  0  1  0  0  0  0  0  0
  190.8550  176.7220  146.6330 C   0  0  0  0  0  0  0  0  0  0  0  0
  190.2490  175.6280  146.7830 O   0  0  0  0  0  0  0  0  0  0  0  0
  1  9  1  0  0  0  0
  2  1  2  0  0  0  0
  3 13  2  0  0  0  0
  4 22  2  0  0  0  0
  4 13  1  0  0  0  0
  5  7  1  0  0  0  0
  6 16  2  0  0  0  0
  6 12  1  0  0  0  0
  8 17  1  0  0  0  0
  8 24  1  1  0  0  0
 11  7  1  6  0  0  0
 11  6  1  0  0  0  0
 12  3  1  1  0  0  0
 14  8  1  0  0  0  0
 14 17  1  1  0  0  0
 14 12  1  0  0  0  0
 15 10  1  1  0  0  0
 15  8  1  0  0  0  0
 16  4  1  0  0  0  0
 18  9  1  6  0  0  0
 18 11  1  0  0  0  0
 18 19  1  0  0  0  0
 19 21  1  1  0  0  0
 19 14  1  0  0  0  0
 20  1  1  0  0  0  0
 20  5  1  0  0  0  0
 21 15  1  0  0  0  0
 24 25  2  0  0  0  0
 24 23  1  0  0  0  0
M  END
>  <MODEL>
8

>  <REMARK>
 VINA RESULT:      -7.6      1.734      2.254
  Name = 
  1 active torsions:
  status: ('A' for Active; 'I' for Inactive)
    1  A    between atoms: C_8  and  C_12
                            x       y       z     vdW  Elec       q    Type
                         _______ _______ _______ _____ _____    ______ ____

>  <TORSDO>
F 1

$$$$
=
 OpenBabel11062418083D

 25 29  0  0  1  0  0  0  0  0999 V2000
  191.1510  176.6260  146.7000 C   0  0  0  0  0  0  0  0  0  0  0  0
  192.1440  175.9050  146.4210 O   0  0  0  0  0  0  0  0  0  0  0  0
  185.9850  177.8230  142.8270 C   0  0  0  0  0  3  0  0  0  0  0  0
  184.8690  178.7990  144.7320 C   0  0  0  0  0  0  0  0  0  0  0  0
  189.0390  176.9580  148.0480 C   0  0  0  0  0  2  0  0  0  0  0  0
  187.1930  178.3110  145.0000 C   0  0  0  0  0  0  0  0  0  0  0  0
  188.0850  176.9680  146.8660 C   0  0  0  0  0  2  0  0  0  0  0  0
  188.9740  177.0570  141.8230 C   0  0  1  0  0  0  0  0  0  0  0  0
  190.9530  177.9140  145.9620 C   0  0  0  0  0  2  0  0  0  0  0  0
  191.2250  177.6960  141.3350 O   0  0  0  0  0  1  0  0  0  0  0  0
  188.3800  178.1260  145.9120 C   0  0  1  0  0  3  0  0  0  0  0  0
  187.3130  178.0790  143.4990 C   0  0  1  0  0  3  0  0  0  0  0  0
  184.8420  178.2150  143.3860 C   0  0  0  0  0  3  0  0  0  0  0  0
  188.4070  177.0470  143.1630 C   0  0  1  0  0  0  0  0  0  0  0  0
  190.4420  176.7280  141.9660 C   0  0  1  0  0  3  0  0  0  0  0  0
  186.0650  178.7120  145.5130 N   0  0  0  0  0  0  0  0  0  0  0  0
  188.1060  176.0250  142.2390 O   0  0  0  0  0  0  0  0  0  0  0  0
  189.6820  177.9270  145.1050 C   0  0  2  0  0  3  0  0  0  0  0  0
  189.5790  176.7810  144.0880 C   0  0  2  0  0  3  0  0  0  0  0  0
  190.2380  176.2060  147.7120 N   0  0  0  0  0  2  0  0  0  0  0  0
  190.7730  176.6820  143.3360 O   0  0  0  0  0  0  0  0  0  0  0  0
  183.8280  179.3090  145.2230 O   0  0  0  0  0  0  0  0  0  0  0  0
  188.3510  179.3040  140.9180 O   0  0  0  0  0  1  0  0  0  0  0  0
  188.4150  177.9290  140.7400 C   0  0  0  0  0  0  0  0  0  0  0  0
  187.9770  177.4160  139.6770 O   0  0  0  0  0  0  0  0  0  0  0  0
  1 20  1  0  0  0  0
  2  1  2  0  0  0  0
  3 13  2  0  0  0  0
  4 22  2  0  0  0  0
  4 16  1  0  0  0  0
  6 16  2  0  0  0  0
  6 11  1  0  0  0  0
  7  5  1  0  0  0  0
  8 24  1  6  0  0  0
  8 15  1  0  0  0  0
  8 17  1  0  0  0  0
  8 14  1  0  0  0  0
  9  1  1  0  0  0  0
 11  7  1  6  0  0  0
 12  3  1  1  0  0  0
 12  6  1  0  0  0  0
 13  4  1  0  0  0  0
 14 17  1  1  0  0  0
 14 12  1  0  0  0  0
 14 19  1  0  0  0  0
 15 10  1  6  0  0  0
 15 21  1  0  0  0  0
 18 11  1  0  0  0  0
 18  9  1  1  0  0  0
 19 21  1  6  0  0  0
 19 18  1  0  0  0  0
 20  5  1  0  0  0  0
 24 23  1  0  0  0  0
 25 24  2  0  0  0  0
M  END
>  <MODEL>
9

>  <REMARK>
 VINA RESULT:      -7.5      2.285      4.720
  Name = 
  1 active torsions:
  status: ('A' for Active; 'I' for Inactive)
    1  A    between atoms: C_8  and  C_12
                            x       y       z     vdW  Elec       q    Type
                         _______ _______ _______ _____ _____    ______ ____

>  <TORSDO>
F 1

$$$$
