=
 OpenBabel11062416213D

 29 31  0  0  1  0  0  0  0  0999 V2000
  183.2870  178.7100  141.7430 C   0  0  2  0  0  3  0  0  0  0  0  0
  185.2920  178.3470  143.2960 C   0  0  2  0  0  0  0  0  0  0  0  0
  184.6060  179.1860  144.3480 C   0  0  0  0  0  0  0  0  0  0  0  0
  182.1370  179.0420  143.7460 C   0  0  0  0  0  2  0  0  0  0  0  0
  185.7290  179.1370  142.0800 C   0  0  0  0  0  2  0  0  0  0  0  0
  183.2350  178.9830  144.7020 N   0  0  0  0  0  2  0  0  0  0  0  0
  184.6570  178.0650  141.9360 C   0  0  2  0  0  3  0  0  0  0  0  0
  185.2880  180.0090  145.0130 O   0  0  0  0  0  0  0  0  0  0  0  0
  182.3420  178.0930  142.6660 N   0  0  0  0  0  2  0  0  0  0  0  0
  182.0950  175.4920  138.3180 C   0  0  0  0  0  1  0  0  0  0  0  0
  182.2470  176.9840  138.5270 C   0  0  1  0  0  3  0  0  0  0  0  0
  180.6720  180.1050  140.2090 C   0  0  0  0  0  1  0  0  0  0  0  0
  183.4400  179.6830  139.4060 C   0  0  0  0  0  1  0  0  0  0  0  0
  180.6200  177.7390  138.8160 S   0  0  0  0  0  0  0  0  0  0  0  0
  183.1250  177.2480  139.7330 C   0  0  0  0  0  2  0  0  0  0  0  0
  181.2430  178.6930  140.2360 C   0  0  1  0  0  3  0  0  0  0  0  0
  182.7780  178.6200  140.2880 C   0  0  1  0  0  0  0  0  0  0  0  0
  186.2710  177.2650  143.7400 C   0  0  0  0  0  2  0  0  0  0  0  0
  187.5810  177.8320  144.2750 C   0  0  0  0  0  2  0  0  0  0  0  0
  188.6240  176.8170  144.2530 N   0  0  0  0  0  2  0  0  0  0  0  0
  189.7020  177.1550  142.9380 S   0  0  0  0  0  0  0  0  0  0  0  0
  189.7810  175.9370  142.0610 O   0  0  0  0  0  0  0  0  0  0  0  0
  189.1740  178.3060  142.1270 O   0  0  0  0  0  0  0  0  0  0  0  0
  191.3880  179.0150  143.9590 C   0  0  0  0  0  1  0  0  0  0  0  0
  192.2620  177.3480  142.5400 F   0  0  0  0  0  0  0  0  0  0  0  0
  191.3370  177.5530  143.5490 C   0  0  2  0  0  0  0  0  0  0  0  0
  191.7390  177.2090  145.9980 O   0  0  0  0  0  1  0  0  0  0  0  0
  191.6780  176.6730  144.7170 C   0  0  0  0  0  0  0  0  0  0  0  0
  191.9560  175.4560  144.5430 O   0  0  0  0  0  0  0  0  0  0  0  0
  1  7  1  0  0  0  0
  1  9  1  1  0  0  0
  2 18  1  1  0  0  0
  2  3  1  0  0  0  0
  3  6  1  0  0  0  0
  3  8  2  0  0  0  0
  4  6  1  0  0  0  0
  5  2  1  0  0  0  0
  7  5  1  6  0  0  0
  7  2  1  0  0  0  0
  9  4  1  0  0  0  0
 11 10  1  1  0  0  0
 11 14  1  0  0  0  0
 11 15  1  0  0  0  0
 14 16  1  0  0  0  0
 15 17  1  0  0  0  0
 16 12  1  6  0  0  0
 16 17  1  0  0  0  0
 17 13  1  6  0  0  0
 17  1  1  0  0  0  0
 18 19  1  0  0  0  0
 20 19  1  0  0  0  0
 21 26  1  0  0  0  0
 21 20  1  0  0  0  0
 22 21  2  0  0  0  0
 23 21  2  0  0  0  0
 25 26  1  0  0  0  0
 26 24  1  1  0  0  0
 26 28  1  0  0  0  0
 28 27  1  0  0  0  0
 29 28  2  0  0  0  0
M  END
>  <MODEL>
1

>  <REMARK>
 VINA RESULT:      -6.7      0.000      0.000
  Name = 
  7 active torsions:
  status: ('A' for Active; 'I' for Inactive)
    1  A    between atoms: C_2  and  C_24
    2  A    between atoms: C_3  and  C_20
    3  A    between atoms: C_6  and  C_20
    4  A    between atoms: C_6  and  N_28
    5  A    between atoms: S_15  and  C_26
    6  A    between atoms: S_15  and  N_28
    7  A    between atoms: C_21  and  C_26
                            x       y       z     vdW  Elec       q    Type
                         _______ _______ _______ _____ _____    ______ ____

>  <TORSDO>
F 7

$$$$
=
 OpenBabel11062416213D

 29 31  0  0  1  0  0  0  0  0999 V2000
  183.3390  178.6320  142.0200 C   0  0  2  0  0  3  0  0  0  0  0  0
  185.4370  178.2560  143.4410 C   0  0  2  0  0  0  0  0  0  0  0  0
  184.8640  179.1710  144.4970 C   0  0  0  0  0  0  0  0  0  0  0  0
  182.3540  179.1050  144.0820 C   0  0  0  0  0  2  0  0  0  0  0  0
  185.8130  178.9690  142.1600 C   0  0  0  0  0  2  0  0  0  0  0  0
  183.5160  179.0430  144.9590 N   0  0  0  0  0  2  0  0  0  0  0  0
  184.6930  177.9380  142.1460 C   0  0  2  0  0  3  0  0  0  0  0  0
  185.6250  179.9940  145.0700 O   0  0  0  0  0  0  0  0  0  0  0  0
  182.4410  178.0990  143.0380 N   0  0  0  0  0  2  0  0  0  0  0  0
  179.4020  179.8300  139.4560 C   0  0  0  0  0  1  0  0  0  0  0  0
  180.6880  179.0400  139.3350 C   0  0  1  0  0  3  0  0  0  0  0  0
  184.5410  179.3250  138.9860 C   0  0  0  0  0  1  0  0  0  0  0  0
  182.9760  177.1010  140.0300 C   0  0  0  0  0  1  0  0  0  0  0  0
  181.9370  180.0170  138.4510 S   0  0  0  0  0  0  0  0  0  0  0  0
  181.2190  178.7070  140.7140 C   0  0  0  0  0  2  0  0  0  0  0  0
  183.2170  179.6150  139.6820 C   0  0  1  0  0  3  0  0  0  0  0  0
  182.7200  178.4960  140.6120 C   0  0  1  0  0  0  0  0  0  0  0  0
  186.4020  177.1540  143.8660 C   0  0  0  0  0  2  0  0  0  0  0  0
  187.8070  177.3450  143.3030 C   0  0  0  0  0  2  0  0  0  0  0  0
  188.7420  176.4290  143.9400 N   0  0  0  0  0  2  0  0  0  0  0  0
  189.5510  177.2660  145.2250 S   0  0  0  0  0  0  0  0  0  0  0  0
  189.2440  178.7330  145.1070 O   0  0  0  0  0  0  0  0  0  0  0  0
  189.0500  176.7690  146.5530 O   0  0  0  0  0  0  0  0  0  0  0  0
  191.8080  176.2840  146.3590 C   0  0  0  0  0  1  0  0  0  0  0  0
  191.9480  178.2520  145.0700 F   0  0  0  0  0  0  0  0  0  0  0  0
  191.3210  177.0200  145.1220 C   0  0  2  0  0  0  0  0  0  0  0  0
  191.6820  176.8710  142.6470 O   0  0  0  0  0  0  0  0  0  0  0  0
  191.6600  176.2400  143.8850 C   0  0  0  0  0  0  0  0  0  0  0  0
  191.8820  175.0010  143.9490 O   0  0  0  0  0  1  0  0  0  0  0  0
  1  7  1  0  0  0  0
  1  9  1  1  0  0  0
  2 18  1  1  0  0  0
  2  3  1  0  0  0  0
  3  6  1  0  0  0  0
  3  8  2  0  0  0  0
  4  6  1  0  0  0  0
  5  2  1  0  0  0  0
  7  5  1  6  0  0  0
  7  2  1  0  0  0  0
  9  4  1  0  0  0  0
 11 10  1  1  0  0  0
 11 15  1  0  0  0  0
 14 11  1  0  0  0  0
 14 16  1  0  0  0  0
 16 12  1  6  0  0  0
 16 17  1  0  0  0  0
 17 13  1  6  0  0  0
 17 15  1  0  0  0  0
 17  1  1  0  0  0  0
 19 18  1  0  0  0  0
 19 20  1  0  0  0  0
 20 21  1  0  0  0  0
 21 23  2  0  0  0  0
 22 21  2  0  0  0  0
 25 26  1  0  0  0  0
 26 21  1  0  0  0  0
 26 24  1  1  0  0  0
 27 28  2  0  0  0  0
 28 29  1  0  0  0  0
 28 26  1  0  0  0  0
M  END
>  <MODEL>
2

>  <REMARK>
 VINA RESULT:      -6.2      1.476      2.358
  Name = 
  7 active torsions:
  status: ('A' for Active; 'I' for Inactive)
    1  A    between atoms: C_2  and  C_24
    2  A    between atoms: C_3  and  C_20
    3  A    between atoms: C_6  and  C_20
    4  A    between atoms: C_6  and  N_28
    5  A    between atoms: S_15  and  C_26
    6  A    between atoms: S_15  and  N_28
    7  A    between atoms: C_21  and  C_26
                            x       y       z     vdW  Elec       q    Type
                         _______ _______ _______ _____ _____    ______ ____

>  <TORSDO>
F 7

$$$$
=
 OpenBabel11062416213D

 29 31  0  0  1  0  0  0  0  0999 V2000
  189.3660  176.3010  136.6770 C   0  0  2  0  0  3  0  0  0  0  0  0
  188.5130  178.0640  138.3290 C   0  0  2  0  0  0  0  0  0  0  0  0
  187.1040  177.8040  137.8510 C   0  0  0  0  0  0  0  0  0  0  0  0
  187.2020  175.4530  136.8780 C   0  0  0  0  0  2  0  0  0  0  0  0
  189.3930  178.7260  137.2890 C   0  0  0  0  0  2  0  0  0  0  0  0
  186.5850  176.4780  137.7120 N   0  0  0  0  0  2  0  0  0  0  0  0
  189.7170  177.3150  137.7620 C   0  0  2  0  0  3  0  0  0  0  0  0
  186.3270  178.7790  137.6800 O   0  0  0  0  0  0  0  0  0  0  0  0
  188.5810  175.2280  137.2740 N   0  0  0  0  0  2  0  0  0  0  0  0
  193.9140  174.8320  137.4940 C   0  0  0  0  0  1  0  0  0  0  0  0
  192.9400  175.0660  136.3580 C   0  0  1  0  0  3  0  0  0  0  0  0
  189.7540  173.7110  134.6090 C   0  0  0  0  0  1  0  0  0  0  0  0
  190.8120  176.4250  134.5970 C   0  0  0  0  0  1  0  0  0  0  0  0
  192.1990  173.4910  135.8400 S   0  0  0  0  0  0  0  0  0  0  0  0
  191.8340  175.9960  136.8120 C   0  0  0  0  0  2  0  0  0  0  0  0
  190.5260  174.2090  135.8240 C   0  0  1  0  0  3  0  0  0  0  0  0
  190.6080  175.7390  135.9520 C   0  0  1  0  0  0  0  0  0  0  0  0
  188.7270  178.5580  139.7560 C   0  0  0  0  0  2  0  0  0  0  0  0
  188.4850  177.4750  140.8010 C   0  0  0  0  0  2  0  0  0  0  0  0
  188.0660  178.0660  142.0630 N   0  0  0  0  0  2  0  0  0  0  0  0
  188.5330  177.0090  143.3560 S   0  0  0  0  0  0  0  0  0  0  0  0
  187.4560  177.0340  144.4040 O   0  0  0  0  0  0  0  0  0  0  0  0
  188.6780  175.6040  142.8400 O   0  0  0  0  0  0  0  0  0  0  0  0
  190.0560  177.2900  145.5790 C   0  0  0  0  0  1  0  0  0  0  0  0
  190.2340  178.9030  143.8690 F   0  0  0  0  0  0  0  0  0  0  0  0
  190.0790  177.5440  144.0810 C   0  0  2  0  0  0  0  0  0  0  0  0
  191.7050  177.2100  142.2050 O   0  0  0  0  0  0  0  0  0  0  0  0
  191.2250  176.8120  143.4470 C   0  0  0  0  0  0  0  0  0  0  0  0
  191.7320  175.8030  144.0100 O   0  0  0  0  0  1  0  0  0  0  0  0
  1  9  1  1  0  0  0
  1  7  1  0  0  0  0
  2 18  1  1  0  0  0
  3  2  1  0  0  0  0
  4  9  1  0  0  0  0
  4  6  1  0  0  0  0
  5  2  1  0  0  0  0
  6  3  1  0  0  0  0
  7  5  1  6  0  0  0
  7  2  1  0  0  0  0
  8  3  2  0  0  0  0
 11 15  1  0  0  0  0
 11 10  1  1  0  0  0
 14 11  1  0  0  0  0
 16 12  1  6  0  0  0
 16 14  1  0  0  0  0
 16 17  1  0  0  0  0
 17 13  1  6  0  0  0
 17  1  1  0  0  0  0
 17 15  1  0  0  0  0
 18 19  1  0  0  0  0
 19 20  1  0  0  0  0
 20 21  1  0  0  0  0
 21 26  1  0  0  0  0
 21 22  2  0  0  0  0
 23 21  2  0  0  0  0
 25 26  1  0  0  0  0
 26 24  1  1  0  0  0
 27 28  2  0  0  0  0
 28 29  1  0  0  0  0
 28 26  1  0  0  0  0
M  END
>  <MODEL>
3

>  <REMARK>
 VINA RESULT:      -6.2      5.581      7.394
  Name = 
  7 active torsions:
  status: ('A' for Active; 'I' for Inactive)
    1  A    between atoms: C_2  and  C_24
    2  A    between atoms: C_3  and  C_20
    3  A    between atoms: C_6  and  C_20
    4  A    between atoms: C_6  and  N_28
    5  A    between atoms: S_15  and  C_26
    6  A    between atoms: S_15  and  N_28
    7  A    between atoms: C_21  and  C_26
                            x       y       z     vdW  Elec       q    Type
                         _______ _______ _______ _____ _____    ______ ____

>  <TORSDO>
F 7

$$$$
=
 OpenBabel11062416213D

 29 31  0  0  1  0  0  0  0  0999 V2000
  187.6390  176.0220  136.5540 C   0  0  2  0  0  3  0  0  0  0  0  0
  188.9540  177.3810  138.2830 C   0  0  2  0  0  0  0  0  0  0  0  0
  188.3480  178.6460  137.7230 C   0  0  0  0  0  0  0  0  0  0  0  0
  186.2050  177.8620  136.5950 C   0  0  0  0  0  2  0  0  0  0  0  0
  189.9170  176.6990  137.3340 C   0  0  0  0  0  2  0  0  0  0  0  0
  186.9450  178.7640  137.4680 N   0  0  0  0  0  2  0  0  0  0  0  0
  188.6210  176.0000  137.7220 C   0  0  2  0  0  3  0  0  0  0  0  0
  189.0760  179.6630  137.5840 O   0  0  0  0  0  0  0  0  0  0  0  0
  186.3440  176.4860  137.0370 N   0  0  0  0  0  2  0  0  0  0  0  0
  190.3030  172.4770  134.5940 C   0  0  0  0  0  1  0  0  0  0  0  0
  188.8600  172.8920  134.7880 C   0  0  1  0  0  3  0  0  0  0  0  0
  186.0030  173.2360  137.3900 C   0  0  0  0  0  1  0  0  0  0  0  0
  186.3340  174.6510  134.8650 C   0  0  0  0  0  1  0  0  0  0  0  0
  188.1370  171.9920  136.1900 S   0  0  0  0  0  0  0  0  0  0  0  0
  188.7860  174.3780  135.0760 C   0  0  0  0  0  2  0  0  0  0  0  0
  187.4110  173.5130  136.8770 C   0  0  1  0  0  3  0  0  0  0  0  0
  187.5080  174.6540  135.8500 C   0  0  1  0  0  0  0  0  0  0  0  0
  189.3730  177.3510  139.7490 C   0  0  0  0  0  2  0  0  0  0  0  0
  188.2310  177.6940  140.6990 C   0  0  0  0  0  2  0  0  0  0  0  0
  188.7210  178.4680  141.8300 N   0  0  0  0  0  2  0  0  0  0  0  0
  188.7320  177.4540  143.2360 S   0  0  0  0  0  0  0  0  0  0  0  0
  187.5880  177.8570  144.1240 O   0  0  0  0  0  0  0  0  0  0  0  0
  188.5520  176.0170  142.8310 O   0  0  0  0  0  0  0  0  0  0  0  0
  190.0920  177.1420  145.5590 C   0  0  0  0  0  1  0  0  0  0  0  0
  190.6180  178.9750  144.1730 F   0  0  0  0  0  0  0  0  0  0  0  0
  190.2710  177.6360  144.1330 C   0  0  2  0  0  0  0  0  0  0  0  0
  191.7540  175.6260  143.9440 O   0  0  0  0  0  1  0  0  0  0  0  0
  191.3600  176.8630  143.4480 C   0  0  0  0  0  0  0  0  0  0  0  0
  191.9580  177.3460  142.4480 O   0  0  0  0  0  0  0  0  0  0  0  0
  1  9  1  1  0  0  0
  1  7  1  0  0  0  0
  2 18  1  1  0  0  0
  3  2  1  0  0  0  0
  4  9  1  0  0  0  0
  4  6  1  0  0  0  0
  5  2  1  0  0  0  0
  6  3  1  0  0  0  0
  7  5  1  6  0  0  0
  7  2  1  0  0  0  0
  8  3  2  0  0  0  0
 11 10  1  1  0  0  0
 11 15  1  0  0  0  0
 11 14  1  0  0  0  0
 14 16  1  0  0  0  0
 15 17  1  0  0  0  0
 16 12  1  6  0  0  0
 17 13  1  6  0  0  0
 17  1  1  0  0  0  0
 17 16  1  0  0  0  0
 18 19  1  0  0  0  0
 19 20  1  0  0  0  0
 20 21  1  0  0  0  0
 21 22  2  0  0  0  0
 21 26  1  0  0  0  0
 23 21  2  0  0  0  0
 26 25  1  0  0  0  0
 26 24  1  1  0  0  0
 28 27  1  0  0  0  0
 28 26  1  0  0  0  0
 29 28  2  0  0  0  0
M  END
>  <MODEL>
4

>  <REMARK>
 VINA RESULT:      -6.2      5.186      6.394
  Name = 
  7 active torsions:
  status: ('A' for Active; 'I' for Inactive)
    1  A    between atoms: C_2  and  C_24
    2  A    between atoms: C_3  and  C_20
    3  A    between atoms: C_6  and  C_20
    4  A    between atoms: C_6  and  N_28
    5  A    between atoms: S_15  and  C_26
    6  A    between atoms: S_15  and  N_28
    7  A    between atoms: C_21  and  C_26
                            x       y       z     vdW  Elec       q    Type
                         _______ _______ _______ _____ _____    ______ ____

>  <TORSDO>
F 7

$$$$
=
 OpenBabel11062416213D

 29 31  0  0  1  0  0  0  0  0999 V2000
  188.0680  177.7190  141.4570 C   0  0  2  0  0  3  0  0  0  0  0  0
  188.1960  178.0090  138.9150 C   0  0  2  0  0  0  0  0  0  0  0  0
  186.6870  178.0620  138.8630 C   0  0  0  0  0  0  0  0  0  0  0  0
  186.0090  178.7880  141.2060 C   0  0  0  0  0  2  0  0  0  0  0  0
  188.7430  176.6500  139.2990 C   0  0  0  0  0  2  0  0  0  0  0  0
  185.9280  178.8830  139.7540 N   0  0  0  0  0  2  0  0  0  0  0  0
  188.9610  177.8390  140.2250 C   0  0  2  0  0  3  0  0  0  0  0  0
  186.0870  177.4560  137.9370 O   0  0  0  0  0  0  0  0  0  0  0  0
  187.3750  178.9850  141.6600 N   0  0  0  0  0  2  0  0  0  0  0  0
  191.8200  179.0380  144.2300 C   0  0  0  0  0  1  0  0  0  0  0  0
  190.7950  177.9330  144.0880 C   0  0  1  0  0  3  0  0  0  0  0  0
  187.0520  177.0280  144.5600 C   0  0  0  0  0  1  0  0  0  0  0  0
  189.0090  175.7830  142.7980 C   0  0  0  0  0  1  0  0  0  0  0  0
  189.4380  178.1890  145.2680 S   0  0  0  0  0  0  0  0  0  0  0  0
  190.2240  177.9380  142.6850 C   0  0  0  0  0  2  0  0  0  0  0  0
  188.1810  177.8790  143.9890 C   0  0  1  0  0  3  0  0  0  0  0  0
  188.8430  177.3040  142.7270 C   0  0  1  0  0  0  0  0  0  0  0  0
  188.9950  178.7400  137.8410 C   0  0  0  0  0  2  0  0  0  0  0  0
  189.0840  177.9610  136.5330 C   0  0  0  0  0  2  0  0  0  0  0  0
  190.4710  177.6570  136.2120 N   0  0  0  0  0  2  0  0  0  0  0  0
  190.6240  175.9470  135.9680 S   0  0  0  0  0  0  0  0  0  0  0  0
  189.2600  175.3250  136.0820 O   0  0  0  0  0  0  0  0  0  0  0  0
  191.1700  175.6740  134.5940 O   0  0  0  0  0  0  0  0  0  0  0  0
  192.5880  174.1730  136.5500 C   0  0  0  0  0  1  0  0  0  0  0  0
  190.9430  174.6210  138.1780 F   0  0  0  0  0  0  0  0  0  0  0  0
  191.7080  175.2290  137.1980 C   0  0  2  0  0  0  0  0  0  0  0  0
  193.7030  176.7430  137.1810 O   0  0  0  0  0  0  0  0  0  0  0  0
  192.5550  176.2990  137.8240 C   0  0  0  0  0  0  0  0  0  0  0  0
  192.2610  176.7680  138.9560 O   0  0  0  0  0  1  0  0  0  0  0  0
  1  9  1  1  0  0  0
  1 17  1  0  0  0  0
  2 18  1  6  0  0  0
  2  5  1  0  0  0  0
  2  7  1  0  0  0  0
  3  2  1  0  0  0  0
  3  6  1  0  0  0  0
  4  9  1  0  0  0  0
  6  4  1  0  0  0  0
  7  5  1  6  0  0  0
  7  1  1  0  0  0  0
  8  3  2  0  0  0  0
 11 10  1  6  0  0  0
 11 14  1  0  0  0  0
 15 17  1  0  0  0  0
 15 11  1  0  0  0  0
 16 12  1  1  0  0  0
 16 14  1  0  0  0  0
 17 13  1  1  0  0  0
 17 16  1  0  0  0  0
 19 18  1  0  0  0  0
 20 19  1  0  0  0  0
 21 22  2  0  0  0  0
 21 20  1  0  0  0  0
 21 26  1  0  0  0  0
 23 21  2  0  0  0  0
 26 24  1  6  0  0  0
 26 28  1  0  0  0  0
 26 25  1  0  0  0  0
 27 28  2  0  0  0  0
 28 29  1  0  0  0  0
M  END
>  <MODEL>
5

>  <REMARK>
 VINA RESULT:      -6.1      4.834      7.375
  Name = 
  7 active torsions:
  status: ('A' for Active; 'I' for Inactive)
    1  A    between atoms: C_2  and  C_24
    2  A    between atoms: C_3  and  C_20
    3  A    between atoms: C_6  and  C_20
    4  A    between atoms: C_6  and  N_28
    5  A    between atoms: S_15  and  C_26
    6  A    between atoms: S_15  and  N_28
    7  A    between atoms: C_21  and  C_26
                            x       y       z     vdW  Elec       q    Type
                         _______ _______ _______ _____ _____    ______ ____

>  <TORSDO>
F 7

$$$$
=
 OpenBabel11062416213D

 29 31  0  0  1  0  0  0  0  0999 V2000
  190.0090  177.2220  140.7930 C   0  0  2  0  0  3  0  0  0  0  0  0
  188.3310  177.7210  138.9220 C   0  0  2  0  0  0  0  0  0  0  0  0
  189.4840  177.9900  137.9850 C   0  0  0  0  0  0  0  0  0  0  0  0
  191.4340  176.7190  139.0150 C   0  0  0  0  0  2  0  0  0  0  0  0
  188.1880  178.7540  140.0200 C   0  0  0  0  0  2  0  0  0  0  0  0
  190.6000  177.1010  137.8820 N   0  0  0  0  0  2  0  0  0  0  0  0
  188.5430  177.3170  140.3800 C   0  0  2  0  0  3  0  0  0  0  0  0
  189.4090  178.9620  137.1880 O   0  0  0  0  0  0  0  0  0  0  0  0
  190.6320  176.1210  140.0680 N   0  0  0  0  0  2  0  0  0  0  0  0
  191.7820  179.5070  144.6840 C   0  0  0  0  0  1  0  0  0  0  0  0
  191.1660  178.1860  144.2770 C   0  0  1  0  0  3  0  0  0  0  0  0
  187.8650  176.4400  143.2260 C   0  0  0  0  0  1  0  0  0  0  0  0
  190.6040  175.6210  142.6680 C   0  0  0  0  0  1  0  0  0  0  0  0
  189.4030  178.1620  144.7130 S   0  0  0  0  0  0  0  0  0  0  0  0
  191.2970  177.9970  142.7800 C   0  0  0  0  0  2  0  0  0  0  0  0
  188.9400  177.5090  143.0780 C   0  0  1  0  0  3  0  0  0  0  0  0
  190.1970  177.0560  142.3170 C   0  0  1  0  0  0  0  0  0  0  0  0
  187.0130  177.2170  138.3430 C   0  0  0  0  0  2  0  0  0  0  0  0
  186.0500  178.3450  137.9890 C   0  0  0  0  0  2  0  0  0  0  0  0
  184.6770  177.8630  137.9800 N   0  0  0  0  0  2  0  0  0  0  0  0
  183.7330  178.8500  139.0490 S   0  0  0  0  0  0  0  0  0  0  0  0
  184.5590  180.0390  139.4540 O   0  0  0  0  0  0  0  0  0  0  0  0
  182.4980  179.3330  138.3410 O   0  0  0  0  0  0  0  0  0  0  0  0
  184.2430  178.2210  141.6350 C   0  0  0  0  0  1  0  0  0  0  0  0
  183.3150  176.5740  140.2280 F   0  0  0  0  0  0  0  0  0  0  0  0
  183.2650  177.9270  140.5100 C   0  0  2  0  0  0  0  0  0  0  0  0
  180.8050  177.4610  140.6040 O   0  0  0  0  0  0  0  0  0  0  0  0
  181.8690  178.2950  140.9240 C   0  0  0  0  0  0  0  0  0  0  0  0
  181.6440  179.3820  141.5230 O   0  0  0  0  0  1  0  0  0  0  0  0
  1  9  1  6  0  0  0
  1 17  1  0  0  0  0
  2 18  1  6  0  0  0
  2  5  1  0  0  0  0
  2  7  1  0  0  0  0
  3  2  1  0  0  0  0
  4  9  1  0  0  0  0
  6  3  1  0  0  0  0
  6  4  1  0  0  0  0
  7  5  1  1  0  0  0
  7  1  1  0  0  0  0
  8  3  2  0  0  0  0
 11 10  1  6  0  0  0
 11 14  1  0  0  0  0
 15 11  1  0  0  0  0
 16 12  1  1  0  0  0
 16 14  1  0  0  0  0
 17 13  1  1  0  0  0
 17 15  1  0  0  0  0
 17 16  1  0  0  0  0
 19 18  1  0  0  0  0
 20 19  1  0  0  0  0
 20 21  1  0  0  0  0
 21 22  2  0  0  0  0
 21 26  1  0  0  0  0
 23 21  2  0  0  0  0
 25 26  1  0  0  0  0
 26 28  1  0  0  0  0
 26 24  1  1  0  0  0
 27 28  2  0  0  0  0
 28 29  1  0  0  0  0
M  END
>  <MODEL>
6

>  <REMARK>
 VINA RESULT:      -6.1      4.273      8.685
  Name = 
  7 active torsions:
  status: ('A' for Active; 'I' for Inactive)
    1  A    between atoms: C_2  and  C_24
    2  A    between atoms: C_3  and  C_20
    3  A    between atoms: C_6  and  C_20
    4  A    between atoms: C_6  and  N_28
    5  A    between atoms: S_15  and  C_26
    6  A    between atoms: S_15  and  N_28
    7  A    between atoms: C_21  and  C_26
                            x       y       z     vdW  Elec       q    Type
                         _______ _______ _______ _____ _____    ______ ____

>  <TORSDO>
F 7

$$$$
=
 OpenBabel11062416213D

 29 31  0  0  1  0  0  0  0  0999 V2000
  183.9800  178.7680  141.4800 C   0  0  2  0  0  3  0  0  0  0  0  0
  185.5130  178.5210  143.5190 C   0  0  2  0  0  0  0  0  0  0  0  0
  184.5150  179.3010  144.3410 C   0  0  0  0  0  0  0  0  0  0  0  0
  182.3150  179.0010  143.0960 C   0  0  0  0  0  2  0  0  0  0  0  0
  186.2070  179.3510  142.4590 C   0  0  0  0  0  2  0  0  0  0  0  0
  183.1160  179.0040  144.3140 N   0  0  0  0  0  2  0  0  0  0  0  0
  185.2870  178.2120  142.0400 C   0  0  2  0  0  3  0  0  0  0  0  0
  184.9360  180.1600  145.1590 O   0  0  0  0  0  0  0  0  0  0  0  0
  182.8650  178.0800  142.1190 N   0  0  0  0  0  2  0  0  0  0  0  0
  186.5660  177.4590  137.5930 C   0  0  0  0  0  1  0  0  0  0  0  0
  185.2310  178.0660  137.9660 C   0  0  1  0  0  3  0  0  0  0  0  0
  181.7400  177.3130  139.4810 C   0  0  0  0  0  1  0  0  0  0  0  0
  183.1460  179.8610  139.3490 C   0  0  0  0  0  1  0  0  0  0  0  0
  183.9340  176.7960  137.9120 S   0  0  0  0  0  0  0  0  0  0  0  0
  185.2960  178.6320  139.3700 C   0  0  0  0  0  2  0  0  0  0  0  0
  183.2630  177.3200  139.5210 C   0  0  1  0  0  3  0  0  0  0  0  0
  183.8890  178.6590  139.9420 C   0  0  1  0  0  0  0  0  0  0  0  0
  186.4050  177.5000  144.2180 C   0  0  0  0  0  2  0  0  0  0  0  0
  187.6210  178.1330  144.8850 C   0  0  0  0  0  2  0  0  0  0  0  0
  188.5480  177.1070  145.3380 N   0  0  0  0  0  2  0  0  0  0  0  0
  190.1340  177.4900  144.7480 S   0  0  0  0  0  0  0  0  0  0  0  0
  190.1850  178.9610  144.4400 O   0  0  0  0  0  0  0  0  0  0  0  0
  191.1600  177.1770  145.8020 O   0  0  0  0  0  0  0  0  0  0  0  0
  189.3500  175.6070  142.9640 C   0  0  0  0  0  1  0  0  0  0  0  0
  191.6450  175.8140  143.4630 F   0  0  0  0  0  0  0  0  0  0  0  0
  190.4960  176.5600  143.2630 C   0  0  2  0  0  0  0  0  0  0  0  0
  189.6230  177.9400  141.3630 O   0  0  0  0  0  0  0  0  0  0  0  0
  190.7080  177.4960  142.1090 C   0  0  0  0  0  0  0  0  0  0  0  0
  191.8720  177.8490  141.7760 O   0  0  0  0  0  1  0  0  0  0  0  0
  1  7  1  0  0  0  0
  1  9  1  1  0  0  0
  2 18  1  1  0  0  0
  2  3  1  0  0  0  0
  3  8  2  0  0  0  0
  4  6  1  0  0  0  0
  5  2  1  0  0  0  0
  6  3  1  0  0  0  0
  7  5  1  6  0  0  0
  7  2  1  0  0  0  0
  9  4  1  0  0  0  0
 11 10  1  1  0  0  0
 11 15  1  0  0  0  0
 14 11  1  0  0  0  0
 14 16  1  0  0  0  0
 15 17  1  0  0  0  0
 16 12  1  6  0  0  0
 16 17  1  0  0  0  0
 17 13  1  6  0  0  0
 17  1  1  0  0  0  0
 18 19  1  0  0  0  0
 19 20  1  0  0  0  0
 21 20  1  0  0  0  0
 21 23  2  0  0  0  0
 22 21  2  0  0  0  0
 26 24  1  6  0  0  0
 26 25  1  0  0  0  0
 26 21  1  0  0  0  0
 27 28  2  0  0  0  0
 28 26  1  0  0  0  0
 29 28  1  0  0  0  0
M  END
>  <MODEL>
7

>  <REMARK>
 VINA RESULT:      -5.9      1.708      2.521
  Name = 
  7 active torsions:
  status: ('A' for Active; 'I' for Inactive)
    1  A    between atoms: C_2  and  C_24
    2  A    between atoms: C_3  and  C_20
    3  A    between atoms: C_6  and  C_20
    4  A    between atoms: C_6  and  N_28
    5  A    between atoms: S_15  and  C_26
    6  A    between atoms: S_15  and  N_28
    7  A    between atoms: C_21  and  C_26
                            x       y       z     vdW  Elec       q    Type
                         _______ _______ _______ _____ _____    ______ ____

>  <TORSDO>
F 7

$$$$
=
 OpenBabel11062416213D

 29 31  0  0  1  0  0  0  0  0999 V2000
  189.7170  176.8100  138.2100 C   0  0  2  0  0  3  0  0  0  0  0  0
  189.5410  177.1670  140.7410 C   0  0  2  0  0  0  0  0  0  0  0  0
  188.6130  178.3330  140.4930 C   0  0  0  0  0  0  0  0  0  0  0  0
  187.6420  177.8760  138.1850 C   0  0  0  0  0  2  0  0  0  0  0  0
  190.9650  177.4190  140.2910 C   0  0  0  0  0  2  0  0  0  0  0  0
  187.5080  178.2420  139.5900 N   0  0  0  0  0  2  0  0  0  0  0  0
  190.1370  176.3430  139.6010 C   0  0  2  0  0  3  0  0  0  0  0  0
  188.7460  179.3760  141.1850 O   0  0  0  0  0  0  0  0  0  0  0  0
  188.2870  176.5820  138.0490 N   0  0  0  0  0  2  0  0  0  0  0  0
  194.2150  175.4610  137.0020 C   0  0  0  0  0  1  0  0  0  0  0  0
  192.8110  175.5120  136.4360 C   0  0  1  0  0  3  0  0  0  0  0  0
  189.2820  173.9120  136.6130 C   0  0  0  0  0  1  0  0  0  0  0  0
  190.0180  176.5790  135.7020 C   0  0  0  0  0  1  0  0  0  0  0  0
  192.0280  173.8800  136.5680 S   0  0  0  0  0  0  0  0  0  0  0  0
  191.9800  176.5130  137.2120 C   0  0  0  0  0  2  0  0  0  0  0  0
  190.4930  174.5980  137.2340 C   0  0  1  0  0  3  0  0  0  0  0  0
  190.5170  176.1270  137.0790 C   0  0  1  0  0  0  0  0  0  0  0  0
  189.4120  176.3870  142.0450 C   0  0  0  0  0  2  0  0  0  0  0  0
  190.3980  176.8470  143.1130 C   0  0  0  0  0  2  0  0  0  0  0  0
  190.0640  176.2640  144.4030 N   0  0  0  0  0  2  0  0  0  0  0  0
  190.3160  177.4570  145.6360 S   0  0  0  0  0  0  0  0  0  0  0  0
  191.6790  177.2430  146.2340 O   0  0  0  0  0  0  0  0  0  0  0  0
  190.2600  178.8340  145.0340 O   0  0  0  0  0  0  0  0  0  0  0  0
  189.4360  178.2190  148.0830 C   0  0  0  0  0  1  0  0  0  0  0  0
  189.0440  176.0060  147.3740 F   0  0  0  0  0  0  0  0  0  0  0  0
  189.0760  177.3120  146.9180 C   0  0  2  0  0  0  0  0  0  0  0  0
  186.7730  178.2560  147.2010 O   0  0  0  0  0  1  0  0  0  0  0  0
  187.7260  177.6780  146.3720 C   0  0  0  0  0  0  0  0  0  0  0  0
  187.4290  177.4220  145.1740 O   0  0  0  0  0  0  0  0  0  0  0  0
  1  9  1  6  0  0  0
  1  7  1  0  0  0  0
  2 18  1  1  0  0  0
  3  2  1  0  0  0  0
  3  8  2  0  0  0  0
  4  6  1  0  0  0  0
  5  2  1  0  0  0  0
  6  3  1  0  0  0  0
  7  5  1  6  0  0  0
  7  2  1  0  0  0  0
  9  4  1  0  0  0  0
 11 14  1  0  0  0  0
 11 10  1  1  0  0  0
 11 15  1  0  0  0  0
 14 16  1  0  0  0  0
 16 12  1  6  0  0  0
 17 13  1  6  0  0  0
 17 15  1  0  0  0  0
 17 16  1  0  0  0  0
 17  1  1  0  0  0  0
 18 19  1  0  0  0  0
 19 20  1  0  0  0  0
 20 21  1  0  0  0  0
 21 22  2  0  0  0  0
 21 26  1  0  0  0  0
 23 21  2  0  0  0  0
 26 25  1  0  0  0  0
 26 24  1  1  0  0  0
 28 26  1  0  0  0  0
 28 27  1  0  0  0  0
 29 28  2  0  0  0  0
M  END
>  <MODEL>
8

>  <REMARK>
 VINA RESULT:      -5.9      4.947      7.129
  Name = 
  7 active torsions:
  status: ('A' for Active; 'I' for Inactive)
    1  A    between atoms: C_2  and  C_24
    2  A    between atoms: C_3  and  C_20
    3  A    between atoms: C_6  and  C_20
    4  A    between atoms: C_6  and  N_28
    5  A    between atoms: S_15  and  C_26
    6  A    between atoms: S_15  and  N_28
    7  A    between atoms: C_21  and  C_26
                            x       y       z     vdW  Elec       q    Type
                         _______ _______ _______ _____ _____    ______ ____

>  <TORSDO>
F 7

$$$$
=
 OpenBabel11062416213D

 29 31  0  0  1  0  0  0  0  0999 V2000
  186.5000  178.2790  144.2460 C   0  0  2  0  0  3  0  0  0  0  0  0
  188.7880  177.1860  143.8750 C   0  0  2  0  0  0  0  0  0  0  0  0
  189.1270  177.4470  145.3230 C   0  0  0  0  0  0  0  0  0  0  0  0
  186.8610  177.6560  146.4640 C   0  0  0  0  0  2  0  0  0  0  0  0
  188.6850  178.4450  143.0390 C   0  0  0  0  0  2  0  0  0  0  0  0
  188.2180  177.1300  146.3820 N   0  0  0  0  0  2  0  0  0  0  0  0
  187.4460  177.5890  143.2660 C   0  0  2  0  0  3  0  0  0  0  0  0
  190.2840  177.8460  145.6170 O   0  0  0  0  0  0  0  0  0  0  0  0
  186.1050  177.3210  145.2710 N   0  0  0  0  0  2  0  0  0  0  0  0
  183.6500  177.7510  140.3580 C   0  0  0  0  0  1  0  0  0  0  0  0
  183.8640  178.6690  141.5430 C   0  0  1  0  0  3  0  0  0  0  0  0
  183.4490  179.0030  145.3860 C   0  0  0  0  0  1  0  0  0  0  0  0
  185.2920  180.4230  143.6330 C   0  0  0  0  0  1  0  0  0  0  0  0
  182.6680  178.2810  142.8540 S   0  0  0  0  0  0  0  0  0  0  0  0
  185.2630  178.4830  142.0930 C   0  0  0  0  0  2  0  0  0  0  0  0
  183.9630  178.3050  144.1330 C   0  0  1  0  0  3  0  0  0  0  0  0
  185.2620  178.8930  143.5560 C   0  0  1  0  0  0  0  0  0  0  0  0
  189.4380  176.0010  143.1680 C   0  0  0  0  0  2  0  0  0  0  0  0
  190.2450  176.4100  141.9410 C   0  0  0  0  0  2  0  0  0  0  0  0
  189.4440  176.2780  140.7340 N   0  0  0  0  0  2  0  0  0  0  0  0
  190.4260  176.6940  139.3660 S   0  0  0  0  0  0  0  0  0  0  0  0
  191.5980  177.5020  139.8490 O   0  0  0  0  0  0  0  0  0  0  0  0
  190.9360  175.4440  138.7050 O   0  0  0  0  0  0  0  0  0  0  0  0
  189.9170  177.2960  136.7740 C   0  0  0  0  0  1  0  0  0  0  0  0
  189.7420  179.0020  138.3910 F   0  0  0  0  0  0  0  0  0  0  0  0
  189.4870  177.6580  138.1860 C   0  0  2  0  0  0  0  0  0  0  0  0
  187.2470  178.2710  139.1240 O   0  0  0  0  0  1  0  0  0  0  0  0
  188.0190  177.4010  138.3640 C   0  0  0  0  0  0  0  0  0  0  0  0
  187.4830  176.3730  137.8670 O   0  0  0  0  0  0  0  0  0  0  0  0
  1  9  1  1  0  0  0
  2 18  1  6  0  0  0
  2  3  1  0  0  0  0
  3  8  2  0  0  0  0
  3  6  1  0  0  0  0
  5  2  1  0  0  0  0
  6  4  1  0  0  0  0
  7  5  1  6  0  0  0
  7  2  1  0  0  0  0
  7  1  1  0  0  0  0
  9  4  1  0  0  0  0
 11 10  1  6  0  0  0
 11 15  1  0  0  0  0
 11 14  1  0  0  0  0
 14 16  1  0  0  0  0
 15 17  1  0  0  0  0
 16 12  1  1  0  0  0
 17 13  1  1  0  0  0
 17 16  1  0  0  0  0
 17  1  1  0  0  0  0
 19 18  1  0  0  0  0
 20 19  1  0  0  0  0
 21 22  2  0  0  0  0
 21 20  1  0  0  0  0
 23 21  2  0  0  0  0
 26 24  1  6  0  0  0
 26 28  1  0  0  0  0
 26 25  1  0  0  0  0
 26 21  1  0  0  0  0
 28 27  1  0  0  0  0
 29 28  2  0  0  0  0
M  END
>  <MODEL>
9

>  <REMARK>
 VINA RESULT:      -5.8      3.141      5.037
  Name = 
  7 active torsions:
  status: ('A' for Active; 'I' for Inactive)
    1  A    between atoms: C_2  and  C_24
    2  A    between atoms: C_3  and  C_20
    3  A    between atoms: C_6  and  C_20
    4  A    between atoms: C_6  and  N_28
    5  A    between atoms: S_15  and  C_26
    6  A    between atoms: S_15  and  N_28
    7  A    between atoms: C_21  and  C_26
                            x       y       z     vdW  Elec       q    Type
                         _______ _______ _______ _____ _____    ______ ____

>  <TORSDO>
F 7

$$$$
