=
 OpenBabel11062418023D

 58 63  0  0  1  0  0  0  0  0999 V2000
  182.5910  180.1160  139.0970 C   0  0  0  0  0  2  0  0  0  0  0  0
  186.1670  176.5880  136.7290 C   0  0  1  0  0  3  0  0  0  0  0  0
  183.9430  179.6740  138.6390 C   0  0  0  0  0  3  0  0  0  0  0  0
  188.1800  177.8690  138.9140 C   0  0  2  0  0  0  0  0  0  0  0  0
  188.2020  177.5890  137.5160 O   0  0  0  0  0  0  0  0  0  0  0  0
  185.5490  175.2870  136.2840 C   0  0  0  0  0  0  0  0  0  0  0  0
  181.1540  174.8940  134.5940 C   0  0  0  0  0  2  0  0  0  0  0  0
  187.6560  174.7010  135.2500 C   0  0  1  0  0  3  0  0  0  0  0  0
  183.1510  175.7960  135.9900 C   0  0  2  0  0  3  0  0  0  0  0  0
  181.6020  178.9370  139.1510 C   0  0  2  0  0  3  0  0  0  0  0  0
  186.2760  174.4190  135.6590 N   0  0  0  0  0  0  0  0  0  0  0  0
  186.8840  177.7180  139.4800 O   0  0  0  0  0  0  0  0  0  0  0  0
  180.6950  173.7600  135.5220 C   0  0  0  0  0  2  0  0  0  0  0  0
  182.0410  176.0880  137.0270 C   0  0  1  0  0  3  0  0  0  0  0  0
  182.6680  175.1340  134.6820 C   0  0  0  0  0  2  0  0  0  0  0  0
  181.5040  174.8180  137.6720 C   0  0  0  0  0  2  0  0  0  0  0  0
  182.4600  176.9950  138.0030 O   0  0  0  0  0  0  0  0  0  0  0  0
  184.8160  178.9700  139.3760 C   0  0  0  0  0  0  0  0  0  0  0  0
  188.4540  175.4680  136.3230 C   0  0  2  0  0  3  0  0  0  0  0  0
  185.2840  177.1930  137.8110 C   0  0  0  0  0  2  0  0  0  0  0  0
  187.5860  176.3440  137.2670 C   0  0  2  0  0  3  0  0  0  0  0  0
  184.2020  174.9980  136.5420 O   0  0  0  0  0  0  0  0  0  0  0  0
  188.5850  179.1970  139.1080 O   0  0  0  0  0  1  0  0  0  0  0  0
  181.5950  178.0860  137.8720 C   0  0  0  0  0  2  0  0  0  0  0  0
  185.9310  178.3060  138.6180 C   0  0  2  0  0  3  0  0  0  0  0  0
  180.3110  174.2960  136.8880 C   0  0  0  0  0  2  0  0  0  0  0  0
  188.3470  173.4540  134.8910 C   0  0  0  0  0  0  0  0  0  0  0  0
  188.9070  172.4230  134.5950 C   0  0  0  0  0  3  0  0  0  0  0  0
  184.5530  178.6470  140.8220 C   0  0  0  0  0  2  0  0  0  0  0  0
  185.6760  179.1680  141.7080 C   0  0  0  0  0  2  0  0  0  0  0  0
  185.8670  178.2410  142.8850 C   0  0  0  0  0  1  0  0  0  0  0  0
  180.1970  179.4360  139.5100 C   0  0  1  0  0  3  0  0  0  0  0  0
  180.1380  180.2090  140.8300 C   0  0  0  0  0  2  0  0  0  0  0  0
  179.0600  179.7820  141.6150 O   0  0  0  0  0  0  0  0  0  0  0  0
  179.7020  178.6160  142.6640 P   0  0  0  0  0  0  0  0  0  0  0  0
  181.3630  178.8750  142.8760 O   0  0  0  0  0  1  0  0  0  0  0  0
  179.4410  177.0730  142.0210 O   0  0  0  0  0  0  0  0  0  0  0  0
  179.0070  178.7110  144.0030 O   0  0  0  0  0  1  0  0  0  0  0  0
  179.6480  180.2360  138.4230 N   0  0  0  0  0  2  0  0  0  0  0  0
  180.5790  183.5480  136.0550 N   0  0  0  0  0  0  0  0  0  0  0  0
  180.8120  181.2010  135.9680 O   0  0  0  0  0  0  0  0  0  0  0  0
  179.7790  184.6750  136.5650 C   0  0  2  0  0  3  0  0  0  0  0  0
  179.3460  181.5920  138.6140 N   0  0  0  0  0  0  0  0  0  0  0  0
  181.0980  184.9190  136.3240 C   0  0  0  0  0  2  0  0  0  0  0  0
  179.4110  184.0050  137.9260 C   0  0  0  0  0  2  0  0  0  0  0  0
  179.7680  182.5040  137.7970 C   0  0  0  0  0  0  0  0  0  0  0  0
  180.5290  182.2720  136.5710 C   0  0  0  0  0  0  0  0  0  0  0  0
  189.5420  176.1910  135.7250 O   0  0  0  0  0  0  0  0  0  0  0  0
  191.5930  175.3020  135.0640 O   0  0  0  0  0  0  0  0  0  0  0  0
  190.8990  175.8840  135.9510 C   0  0  0  0  0  0  0  0  0  0  0  0
  191.5360  176.2990  137.2340 C   0  0  0  0  0  2  0  0  0  0  0  0
  193.0470  176.2180  137.0880 C   0  0  0  0  0  1  0  0  0  0  0  0
  189.0680  177.0090  139.6050 O   0  0  0  0  0  0  0  0  0  0  0  0
  189.3800  177.5890  140.8510 C   0  0  0  0  0  2  0  0  0  0  0  0
  190.4470  176.7890  141.5640 C   0  0  0  0  0  2  0  0  0  0  0  0
  189.7890  176.0660  142.7160 C   0  0  0  0  0  2  0  0  0  0  0  0
  191.7850  176.4200  143.9390 O   0  0  0  0  0  1  0  0  0  0  0  0
  190.3890  176.4940  144.0280 C   0  0  0  0  0  2  0  0  0  0  0  0
  1 10  1  0  0  0  0
  2 21  1  0  0  0  0
  2 20  1  1  0  0  0
  3  1  1  0  0  0  0
  3 18  2  0  0  0  0
  4 23  1  1  0  0  0
  4 12  1  0  0  0  0
  4 53  1  0  0  0  0
  5  4  1  0  0  0  0
  6 22  1  0  0  0  0
  6  2  1  0  0  0  0
  7 15  1  0  0  0  0
  7 13  1  0  0  0  0
  8 27  1  1  0  0  0
  8 11  1  0  0  0  0
  8 19  1  0  0  0  0
  9 15  1  6  0  0  0
  9 22  1  0  0  0  0
  9 14  1  0  0  0  0
 10 32  1  6  0  0  0
 11  6  2  0  0  0  0
 13 26  1  0  0  0  0
 14 16  1  1  0  0  0
 14 17  1  0  0  0  0
 18 29  1  0  0  0  0
 19 48  1  6  0  0  0
 19 21  1  0  0  0  0
 21  5  1  6  0  0  0
 24 17  1  0  0  0  0
 24 10  1  0  0  0  0
 25 20  1  6  0  0  0
 25 18  1  0  0  0  0
 25 12  1  0  0  0  0
 26 16  1  0  0  0  0
 28 27  3  0  0  0  0
 29 30  1  0  0  0  0
 30 31  1  0  0  0  0
 32 33  1  1  0  0  0
 33 34  1  0  0  0  0
 34 35  1  0  0  0  0
 35 36  1  0  0  0  0
 35 38  1  0  0  0  0
 37 35  2  0  0  0  0
 39 43  1  0  0  0  0
 39 32  1  0  0  0  0
 40 44  1  0  0  0  0
 40 42  1  0  0  0  0
 40 47  1  0  0  0  0
 41 47  2  0  0  0  0
 42 44  1  1  0  0  0
 42 45  1  0  0  0  0
 46 45  1  0  0  0  0
 46 43  2  0  0  0  0
 47 46  1  0  0  0  0
 48 50  1  0  0  0  0
 49 50  2  0  0  0  0
 50 51  1  0  0  0  0
 52 51  1  0  0  0  0
 53 54  1  0  0  0  0
 54 55  1  0  0  0  0
 55 56  1  0  0  0  0
 56 58  1  0  0  0  0
 57 58  1  0  0  0  0
M  END
>  <MODEL>
1

>  <REMARK>
 VINA RESULT:      -6.8      0.000      0.000
  Name = 
  17 active torsions:
  status: ('A' for Active; 'I' for Inactive)
    1  A    between atoms: P_1  and  O_20
    2  A    between atoms: C_8  and  C_28
    3  A    between atoms: O_10  and  C_11
    4  A    between atoms: O_10  and  C_55
    5  A    between atoms: C_15  and  C_50
    6  A    between atoms: C_16  and  C_43
    7  A    between atoms: C_19  and  C_40
    8  A    between atoms: O_20  and  C_49
    9  A    between atoms: C_21  and  C_39
   10  A    between atoms: C_28  and  C_36
   11  A    between atoms: O_29  and  C_38
   12  A    between atoms: O_29  and  C_50
   13  A    between atoms: N_30  and  C_39
   14  A    between atoms: N_30  and  N_41
   15  A    between atoms: C_36  and  C_55
   16  A    between atoms: C_37  and  C_40
   17  A    between atoms: C_39  and  C_49
                            x       y       z     vdW  Elec       q    Type
                         _______ _______ _______ _____ _____    ______ ____

>  <TORSDO>
F 17

$$$$
=
 OpenBabel11062418023D

 58 63  0  0  1  0  0  0  0  0999 V2000
  192.3380  176.9900  137.6160 C   0  0  0  0  0  2  0  0  0  0  0  0
  187.6340  178.3780  140.2210 C   0  0  1  0  0  3  0  0  0  0  0  0
  190.9360  177.5040  137.6810 C   0  0  0  0  0  3  0  0  0  0  0  0
  186.3310  177.4330  137.4130 C   0  0  2  0  0  0  0  0  0  0  0  0
  186.2160  178.5510  138.2910 O   0  0  0  0  0  0  0  0  0  0  0  0
  187.6370  178.0870  141.7000 C   0  0  0  0  0  0  0  0  0  0  0  0
  191.4620  178.4460  144.4510 C   0  0  0  0  0  2  0  0  0  0  0  0
  185.5030  179.2130  141.8720 C   0  0  1  0  0  3  0  0  0  0  0  0
  190.0250  178.0340  142.3260 C   0  0  2  0  0  3  0  0  0  0  0  0
  192.7200  176.2300  138.8990 C   0  0  2  0  0  3  0  0  0  0  0  0
  186.6180  178.4320  142.4180 N   0  0  0  0  0  0  0  0  0  0  0  0
  187.4240  176.5870  137.7490 O   0  0  0  0  0  0  0  0  0  0  0  0
  191.3690  177.0510  145.0870 C   0  0  0  0  0  2  0  0  0  0  0  0
  191.1330  177.0000  142.0160 C   0  0  1  0  0  3  0  0  0  0  0  0
  190.1990  178.8020  143.6540 C   0  0  0  0  0  2  0  0  0  0  0  0
  191.0560  175.7800  142.9240 C   0  0  0  0  0  2  0  0  0  0  0  0
  191.1280  176.6140  140.6730 O   0  0  0  0  0  0  0  0  0  0  0  0
  189.8310  176.7510  137.5690 C   0  0  0  0  0  0  0  0  0  0  0  0
  185.0950  178.7650  140.4550 C   0  0  2  0  0  3  0  0  0  0  0  0
  188.6710  177.4850  139.5540 C   0  0  0  0  0  2  0  0  0  0  0  0
  186.2390  178.1130  139.6320 C   0  0  2  0  0  3  0  0  0  0  0  0
  188.7220  177.4430  142.3100 O   0  0  0  0  0  0  0  0  0  0  0  0
  186.5350  177.9090  136.1110 O   0  0  0  0  0  1  0  0  0  0  0  0
  192.3820  176.9970  140.1870 C   0  0  0  0  0  2  0  0  0  0  0  0
  188.5540  177.3840  138.0430 C   0  0  2  0  0  3  0  0  0  0  0  0
  191.9220  175.9900  144.1560 C   0  0  0  0  0  2  0  0  0  0  0  0
  184.3480  179.1570  142.7810 C   0  0  0  0  0  0  0  0  0  0  0  0
  183.3980  179.1010  143.5260 C   0  0  0  0  0  3  0  0  0  0  0  0
  189.9020  175.2840  137.2410 C   0  0  0  0  0  2  0  0  0  0  0  0
  190.1500  175.0730  135.7530 C   0  0  0  0  0  2  0  0  0  0  0  0
  191.1650  173.9710  135.5580 C   0  0  0  0  0  1  0  0  0  0  0  0
  194.1950  175.8160  138.8540 C   0  0  1  0  0  3  0  0  0  0  0  0
  194.8530  175.7310  140.2340 C   0  0  0  0  0  2  0  0  0  0  0  0
  195.9090  174.8130  140.2330 O   0  0  0  0  0  0  0  0  0  0  0  0
  197.3000  175.7280  140.5510 P   0  0  0  0  0  0  0  0  0  0  0  0
  198.2470  174.9570  141.7260 O   0  0  0  0  0  1  0  0  0  0  0  0
  196.8510  177.2650  141.0960 O   0  0  0  0  0  1  0  0  0  0  0  0
  198.1030  175.8750  139.2790 O   0  0  0  0  0  0  0  0  0  0  0  0
  194.3480  174.5580  138.1350 N   0  0  0  0  0  2  0  0  0  0  0  0
  197.0150  171.5160  137.0970 N   0  0  0  0  0  0  0  0  0  0  0  0
  195.3680  171.9290  138.7360 O   0  0  0  0  0  0  0  0  0  0  0  0
  197.4570  171.7890  135.7190 C   0  0  2  0  0  3  0  0  0  0  0  0
  195.2200  174.4600  137.0410 N   0  0  0  0  0  0  0  0  0  0  0  0
  198.4270  171.4730  136.6230 C   0  0  0  0  0  2  0  0  0  0  0  0
  196.9640  173.2700  135.6850 C   0  0  0  0  0  2  0  0  0  0  0  0
  196.0290  173.4580  136.9040 C   0  0  0  0  0  0  0  0  0  0  0  0
  196.1100  172.2940  137.7840 C   0  0  0  0  0  0  0  0  0  0  0  0
  184.4380  179.8350  139.7560 O   0  0  0  0  0  0  0  0  0  0  0  0
  182.5990  180.7020  138.6150 O   0  0  0  0  0  0  0  0  0  0  0  0
  183.1010  179.7710  139.3140 C   0  0  0  0  0  0  0  0  0  0  0  0
  182.2850  178.5630  139.6320 C   0  0  0  0  0  2  0  0  0  0  0  0
  181.1220  178.9700  140.5220 C   0  0  0  0  0  1  0  0  0  0  0  0
  185.1460  176.6580  137.4420 O   0  0  0  0  0  0  0  0  0  0  0  0
  184.2980  177.0940  136.4040 C   0  0  0  0  0  2  0  0  0  0  0  0
  182.8870  176.5920  136.6180 C   0  0  0  0  0  2  0  0  0  0  0  0
  182.9500  175.4410  137.5960 C   0  0  0  0  0  2  0  0  0  0  0  0
  181.4200  173.6340  137.5860 O   0  0  0  0  0  1  0  0  0  0  0  0
  181.5670  174.9760  137.9640 C   0  0  0  0  0  2  0  0  0  0  0  0
  1  3  1  0  0  0  0
  1 10  1  0  0  0  0
  2 20  1  6  0  0  0
  2  6  1  0  0  0  0
  4 23  1  6  0  0  0
  4 53  1  0  0  0  0
  4 12  1  0  0  0  0
  4  5  1  0  0  0  0
  6 22  1  0  0  0  0
  6 11  2  0  0  0  0
  7 13  1  0  0  0  0
  8 11  1  0  0  0  0
  8 27  1  1  0  0  0
  9 15  1  1  0  0  0
 10 32  1  6  0  0  0
 10 24  1  0  0  0  0
 12 25  1  0  0  0  0
 14  9  1  0  0  0  0
 14 16  1  1  0  0  0
 15  7  1  0  0  0  0
 16 26  1  0  0  0  0
 17 14  1  0  0  0  0
 18  3  2  0  0  0  0
 18 25  1  0  0  0  0
 19 48  1  6  0  0  0
 19  8  1  0  0  0  0
 21  5  1  6  0  0  0
 21  2  1  0  0  0  0
 21 19  1  0  0  0  0
 22  9  1  0  0  0  0
 24 17  1  0  0  0  0
 25 20  1  1  0  0  0
 26 13  1  0  0  0  0
 27 28  3  0  0  0  0
 29 18  1  0  0  0  0
 30 29  1  0  0  0  0
 31 30  1  0  0  0  0
 32 33  1  1  0  0  0
 34 33  1  0  0  0  0
 34 35  1  0  0  0  0
 35 37  1  0  0  0  0
 35 36  1  0  0  0  0
 38 35  2  0  0  0  0
 39 32  1  0  0  0  0
 40 47  1  0  0  0  0
 42 45  1  1  0  0  0
 42 44  1  0  0  0  0
 42 40  1  0  0  0  0
 43 39  1  0  0  0  0
 44 40  1  0  0  0  0
 45 46  1  0  0  0  0
 46 43  2  0  0  0  0
 46 47  1  0  0  0  0
 47 41  2  0  0  0  0
 49 50  2  0  0  0  0
 50 51  1  0  0  0  0
 50 48  1  0  0  0  0
 51 52  1  0  0  0  0
 54 55  1  0  0  0  0
 54 53  1  0  0  0  0
 55 56  1  0  0  0  0
 56 58  1  0  0  0  0
 57 58  1  0  0  0  0
M  END
>  <MODEL>
2

>  <REMARK>
 VINA RESULT:      -6.7      4.531     12.402
  Name = 
  17 active torsions:
  status: ('A' for Active; 'I' for Inactive)
    1  A    between atoms: P_1  and  O_20
    2  A    between atoms: C_8  and  C_28
    3  A    between atoms: O_10  and  C_11
    4  A    between atoms: O_10  and  C_55
    5  A    between atoms: C_15  and  C_50
    6  A    between atoms: C_16  and  C_43
    7  A    between atoms: C_19  and  C_40
    8  A    between atoms: O_20  and  C_49
    9  A    between atoms: C_21  and  C_39
   10  A    between atoms: C_28  and  C_36
   11  A    between atoms: O_29  and  C_38
   12  A    between atoms: O_29  and  C_50
   13  A    between atoms: N_30  and  C_39
   14  A    between atoms: N_30  and  N_41
   15  A    between atoms: C_36  and  C_55
   16  A    between atoms: C_37  and  C_40
   17  A    between atoms: C_39  and  C_49
                            x       y       z     vdW  Elec       q    Type
                         _______ _______ _______ _____ _____    ______ ____

>  <TORSDO>
F 17

$$$$
=
 OpenBabel11062418023D

 58 63  0  0  1  0  0  0  0  0999 V2000
  189.5270  178.3960  138.4530 C   0  0  0  0  0  2  0  0  0  0  0  0
  184.0380  178.2020  139.2690 C   0  0  1  0  0  3  0  0  0  0  0  0
  188.0990  178.4270  138.0150 C   0  0  0  0  0  3  0  0  0  0  0  0
  184.1020  176.8640  136.3240 C   0  0  2  0  0  0  0  0  0  0  0  0
  183.3660  177.8910  136.9860 O   0  0  0  0  0  0  0  0  0  0  0  0
  183.6340  177.9400  140.6980 C   0  0  0  0  0  0  0  0  0  0  0  0
  186.0170  179.5430  144.4500 C   0  0  0  0  0  2  0  0  0  0  0  0
  181.3310  178.3140  140.0590 C   0  0  1  0  0  3  0  0  0  0  0  0
  185.5710  178.6700  142.0440 C   0  0  2  0  0  3  0  0  0  0  0  0
  189.6690  177.8110  139.8700 C   0  0  2  0  0  3  0  0  0  0  0  0
  182.3800  177.9420  141.0150 N   0  0  0  0  0  0  0  0  0  0  0  0
  185.2210  176.4210  137.0810 O   0  0  0  0  0  0  0  0  0  0  0  0
  186.1440  178.1980  145.1820 C   0  0  0  0  0  2  0  0  0  0  0  0
  186.9770  178.0490  142.2190 C   0  0  1  0  0  3  0  0  0  0  0  0
  185.0490  179.4630  143.2610 C   0  0  0  0  0  2  0  0  0  0  0  0
  186.9750  176.8780  143.1920 C   0  0  0  0  0  2  0  0  0  0  0  0
  187.5390  177.6720  140.9970 O   0  0  0  0  0  0  0  0  0  0  0  0
  187.3790  177.3560  137.6490 C   0  0  0  0  0  0  0  0  0  0  0  0
  181.5770  177.7470  138.6480 C   0  0  2  0  0  3  0  0  0  0  0  0
  185.4570  177.6900  139.0700 C   0  0  0  0  0  2  0  0  0  0  0  0
  183.0710  177.4940  138.3070 C   0  0  2  0  0  3  0  0  0  0  0  0
  184.5930  177.6880  141.6880 O   0  0  0  0  0  0  0  0  0  0  0  0
  184.5750  177.3700  135.1060 O   0  0  0  0  0  1  0  0  0  0  0  0
  188.7040  178.4370  140.8890 C   0  0  0  0  0  2  0  0  0  0  0  0
  185.8890  177.5430  137.6210 C   0  0  2  0  0  3  0  0  0  0  0  0
  187.2710  177.3660  144.6010 C   0  0  0  0  0  2  0  0  0  0  0  0
  180.0130  177.8930  140.5590 C   0  0  0  0  0  0  0  0  0  0  0  0
  178.9340  177.5400  140.9740 C   0  0  0  0  0  3  0  0  0  0  0  0
  187.9980  175.9890  137.5320 C   0  0  0  0  0  2  0  0  0  0  0  0
  188.4460  175.7180  136.1010 C   0  0  0  0  0  2  0  0  0  0  0  0
  187.6680  174.5520  135.5380 C   0  0  0  0  0  1  0  0  0  0  0  0
  191.1260  177.8980  140.3390 C   0  0  1  0  0  3  0  0  0  0  0  0
  191.2800  177.9490  141.8620 C   0  0  0  0  0  2  0  0  0  0  0  0
  192.1160  176.9220  142.3180 O   0  0  0  0  0  0  0  0  0  0  0  0
  191.2110  176.0910  143.4840 P   0  0  0  0  0  0  0  0  0  0  0  0
  190.6200  177.1750  144.6440 O   0  0  0  0  0  1  0  0  0  0  0  0
  192.1860  174.9280  144.2310 O   0  0  0  0  0  1  0  0  0  0  0  0
  190.0480  175.3960  142.8130 O   0  0  0  0  0  0  0  0  0  0  0  0
  191.9060  176.8000  139.7810 N   0  0  0  0  0  2  0  0  0  0  0  0
  193.5700  174.4520  136.7550 N   0  0  0  0  0  0  0  0  0  0  0  0
  194.2950  176.0090  138.3740 O   0  0  0  0  0  0  0  0  0  0  0  0
  192.5710  173.4260  136.4140 C   0  0  2  0  0  3  0  0  0  0  0  0
  191.3050  175.8440  138.9510 N   0  0  0  0  0  0  0  0  0  0  0  0
  193.1620  174.0760  135.3720 C   0  0  0  0  0  2  0  0  0  0  0  0
  191.3690  174.1360  137.1140 C   0  0  0  0  0  2  0  0  0  0  0  0
  191.9670  175.2430  138.0150 C   0  0  0  0  0  0  0  0  0  0  0  0
  193.3920  175.4060  137.7320 C   0  0  0  0  0  0  0  0  0  0  0  0
  180.9000  178.5400  137.6590 O   0  0  0  0  0  0  0  0  0  0  0  0
  179.3250  180.2210  138.0140 O   0  0  0  0  0  0  0  0  0  0  0  0
  180.5380  179.8880  137.8550 C   0  0  0  0  0  0  0  0  0  0  0  0
  181.6060  180.9260  137.9300 C   0  0  0  0  0  2  0  0  0  0  0  0
  181.0310  182.1870  138.5540 C   0  0  0  0  0  1  0  0  0  0  0  0
  183.2700  175.7460  136.0680 O   0  0  0  0  0  0  0  0  0  0  0  0
  184.0450  174.5740  136.1730 C   0  0  0  0  0  2  0  0  0  0  0  0
  183.2270  173.3560  135.8050 C   0  0  0  0  0  2  0  0  0  0  0  0
  184.1890  172.2460  135.4450 C   0  0  0  0  0  2  0  0  0  0  0  0
  183.0690  171.2890  137.2990 O   0  0  0  0  0  1  0  0  0  0  0  0
  183.8300  170.9740  136.1650 C   0  0  0  0  0  2  0  0  0  0  0  0
  1 10  1  0  0  0  0
  2 20  1  1  0  0  0
  2  6  1  0  0  0  0
  3  1  1  0  0  0  0
  4 23  1  6  0  0  0
  4  5  1  0  0  0  0
  4 12  1  0  0  0  0
  6 11  2  0  0  0  0
  6 22  1  0  0  0  0
  7 13  1  0  0  0  0
  8 27  1  1  0  0  0
  8 11  1  0  0  0  0
  9 14  1  0  0  0  0
  9 15  1  1  0  0  0
 10 32  1  1  0  0  0
 10 24  1  0  0  0  0
 12 25  1  0  0  0  0
 14 16  1  1  0  0  0
 15  7  1  0  0  0  0
 16 26  1  0  0  0  0
 17 14  1  0  0  0  0
 18  3  2  0  0  0  0
 19 48  1  6  0  0  0
 19  8  1  0  0  0  0
 21  5  1  6  0  0  0
 21 19  1  0  0  0  0
 21  2  1  0  0  0  0
 22  9  1  0  0  0  0
 24 17  1  0  0  0  0
 25 18  1  0  0  0  0
 25 20  1  1  0  0  0
 26 13  1  0  0  0  0
 27 28  3  0  0  0  0
 29 18  1  0  0  0  0
 30 29  1  0  0  0  0
 31 30  1  0  0  0  0
 32 33  1  1  0  0  0
 33 34  1  0  0  0  0
 34 35  1  0  0  0  0
 35 37  1  0  0  0  0
 35 36  1  0  0  0  0
 38 35  2  0  0  0  0
 39 32  1  0  0  0  0
 40 47  1  0  0  0  0
 42 44  1  6  0  0  0
 42 40  1  0  0  0  0
 42 45  1  0  0  0  0
 43 39  1  0  0  0  0
 44 40  1  0  0  0  0
 45 46  1  0  0  0  0
 46 43  2  0  0  0  0
 47 46  1  0  0  0  0
 47 41  2  0  0  0  0
 48 50  1  0  0  0  0
 50 51  1  0  0  0  0
 50 49  2  0  0  0  0
 51 52  1  0  0  0  0
 53 54  1  0  0  0  0
 53  4  1  0  0  0  0
 55 54  1  0  0  0  0
 56 55  1  0  0  0  0
 56 58  1  0  0  0  0
 58 57  1  0  0  0  0
M  END
>  <MODEL>
3

>  <REMARK>
 VINA RESULT:      -6.4      3.200     10.181
  Name = 
  17 active torsions:
  status: ('A' for Active; 'I' for Inactive)
    1  A    between atoms: P_1  and  O_20
    2  A    between atoms: C_8  and  C_28
    3  A    between atoms: O_10  and  C_11
    4  A    between atoms: O_10  and  C_55
    5  A    between atoms: C_15  and  C_50
    6  A    between atoms: C_16  and  C_43
    7  A    between atoms: C_19  and  C_40
    8  A    between atoms: O_20  and  C_49
    9  A    between atoms: C_21  and  C_39
   10  A    between atoms: C_28  and  C_36
   11  A    between atoms: O_29  and  C_38
   12  A    between atoms: O_29  and  C_50
   13  A    between atoms: N_30  and  C_39
   14  A    between atoms: N_30  and  N_41
   15  A    between atoms: C_36  and  C_55
   16  A    between atoms: C_37  and  C_40
   17  A    between atoms: C_39  and  C_49
                            x       y       z     vdW  Elec       q    Type
                         _______ _______ _______ _____ _____    ______ ____

>  <TORSDO>
F 17

$$$$
=
 OpenBabel11062418023D

 58 63  0  0  1  0  0  0  0  0999 V2000
  189.4770  177.9350  138.9070 C   0  0  0  0  0  2  0  0  0  0  0  0
  184.0480  178.5940  139.8700 C   0  0  1  0  0  3  0  0  0  0  0  0
  188.0670  178.2350  138.5150 C   0  0  0  0  0  3  0  0  0  0  0  0
  183.8350  177.4840  136.8390 C   0  0  2  0  0  0  0  0  0  0  0  0
  183.2940  178.5670  137.5920 O   0  0  0  0  0  0  0  0  0  0  0  0
  183.6310  178.2980  141.2890 C   0  0  0  0  0  0  0  0  0  0  0  0
  186.3150  179.2050  145.0710 C   0  0  0  0  0  2  0  0  0  0  0  0
  181.4130  179.0950  140.7460 C   0  0  1  0  0  3  0  0  0  0  0  0
  185.6870  178.5960  142.6250 C   0  0  2  0  0  3  0  0  0  0  0  0
  189.5440  177.2320  140.2760 C   0  0  2  0  0  3  0  0  0  0  0  0
  182.4010  178.4850  141.6420 N   0  0  0  0  0  0  0  0  0  0  0  0
  184.8780  176.8070  137.5300 O   0  0  0  0  0  0  0  0  0  0  0  0
  186.2270  177.8070  145.7040 C   0  0  0  0  0  2  0  0  0  0  0  0
  186.9720  177.7400  142.7140 C   0  0  1  0  0  3  0  0  0  0  0  0
  185.3270  179.3740  143.9080 C   0  0  0  0  0  2  0  0  0  0  0  0
  186.7900  176.5170  143.6030 C   0  0  0  0  0  2  0  0  0  0  0  0
  187.4410  177.3650  141.4530 O   0  0  0  0  0  0  0  0  0  0  0  0
  187.1720  177.3270  138.0970 C   0  0  0  0  0  0  0  0  0  0  0  0
  181.5350  178.6000  139.2920 C   0  0  2  0  0  3  0  0  0  0  0  0
  185.3580  177.8700  139.5940 C   0  0  0  0  0  2  0  0  0  0  0  0
  182.9600  178.1290  138.8900 C   0  0  2  0  0  3  0  0  0  0  0  0
  184.5520  177.8190  142.2300 O   0  0  0  0  0  0  0  0  0  0  0  0
  184.3660  177.9930  135.6450 O   0  0  0  0  0  1  0  0  0  0  0  0
  188.7160  177.9330  141.3640 C   0  0  0  0  0  2  0  0  0  0  0  0
  185.7340  177.7610  138.1260 C   0  0  2  0  0  3  0  0  0  0  0  0
  187.1890  176.8450  145.0330 C   0  0  0  0  0  2  0  0  0  0  0  0
  180.0520  178.8630  141.2540 C   0  0  0  0  0  0  0  0  0  0  0  0
  178.9310  178.6670  141.6640 C   0  0  0  0  0  3  0  0  0  0  0  0
  187.5500  175.8890  137.8670 C   0  0  0  0  0  2  0  0  0  0  0  0
  187.5370  175.5560  136.3810 C   0  0  0  0  0  2  0  0  0  0  0  0
  188.9320  175.1900  135.9300 C   0  0  0  0  0  1  0  0  0  0  0  0
  191.0030  177.0410  140.7060 C   0  0  1  0  0  3  0  0  0  0  0  0
  192.0120  177.7270  139.7810 C   0  0  0  0  0  2  0  0  0  0  0  0
  193.1360  176.9180  139.5740 O   0  0  0  0  0  0  0  0  0  0  0  0
  192.9730  176.3190  137.9970 P   0  0  0  0  0  0  0  0  0  0  0  0
  193.1670  174.6360  137.9920 O   0  0  0  0  0  1  0  0  0  0  0  0
  194.1380  177.0320  137.0000 O   0  0  0  0  0  0  0  0  0  0  0  0
  191.5990  176.6660  137.4700 O   0  0  0  0  0  1  0  0  0  0  0  0
  191.1890  177.4810  142.0830 N   0  0  0  0  0  2  0  0  0  0  0  0
  190.5630  177.5520  146.2120 N   0  0  0  0  0  0  0  0  0  0  0  0
  189.9170  178.7950  144.3120 O   0  0  0  0  0  0  0  0  0  0  0  0
  190.9580  176.2300  146.7250 C   0  0  2  0  0  3  0  0  0  0  0  0
  191.6060  176.5780  143.0730 N   0  0  0  0  0  0  0  0  0  0  0  0
  191.4190  177.3160  147.4080 C   0  0  0  0  0  2  0  0  0  0  0  0
  191.7500  175.7950  145.4520 C   0  0  0  0  0  2  0  0  0  0  0  0
  191.3690  176.7880  144.3280 C   0  0  0  0  0  0  0  0  0  0  0  0
  190.6080  177.9070  144.8820 C   0  0  0  0  0  0  0  0  0  0  0  0
  180.9830  179.5650  138.3810 O   0  0  0  0  0  0  0  0  0  0  0  0
  179.2950  178.1840  137.5570 O   0  0  0  0  0  0  0  0  0  0  0  0
  179.8240  179.3360  137.6120 C   0  0  0  0  0  0  0  0  0  0  0  0
  179.1850  180.4780  136.8990 C   0  0  0  0  0  2  0  0  0  0  0  0
  180.1020  181.6880  136.9760 C   0  0  0  0  0  1  0  0  0  0  0  0
  182.8240  176.5420  136.5300 O   0  0  0  0  0  0  0  0  0  0  0  0
  183.4040  175.2590  136.4770 C   0  0  0  0  0  2  0  0  0  0  0  0
  182.4160  174.2040  136.9230 C   0  0  0  0  0  2  0  0  0  0  0  0
  181.0970  174.8920  137.1930 C   0  0  0  0  0  2  0  0  0  0  0  0
  180.4830  175.3220  139.4380 O   0  0  0  0  0  1  0  0  0  0  0  0
  180.4520  174.3430  138.4360 C   0  0  0  0  0  2  0  0  0  0  0  0
  1 10  1  0  0  0  0
  2 20  1  6  0  0  0
  2  6  1  0  0  0  0
  3  1  1  0  0  0  0
  4 23  1  6  0  0  0
  4 12  1  0  0  0  0
  4  5  1  0  0  0  0
  6 11  2  0  0  0  0
  6 22  1  0  0  0  0
  7 13  1  0  0  0  0
  8 27  1  1  0  0  0
  8 11  1  0  0  0  0
  9 14  1  0  0  0  0
  9 15  1  1  0  0  0
 10 32  1  1  0  0  0
 10 24  1  0  0  0  0
 12 25  1  0  0  0  0
 14 16  1  1  0  0  0
 15  7  1  0  0  0  0
 16 26  1  0  0  0  0
 17 14  1  0  0  0  0
 18 25  1  0  0  0  0
 18  3  2  0  0  0  0
 19 48  1  6  0  0  0
 19  8  1  0  0  0  0
 21  5  1  6  0  0  0
 21 19  1  0  0  0  0
 21  2  1  0  0  0  0
 22  9  1  0  0  0  0
 24 17  1  0  0  0  0
 25 20  1  1  0  0  0
 26 13  1  0  0  0  0
 27 28  3  0  0  0  0
 29 18  1  0  0  0  0
 30 29  1  0  0  0  0
 31 30  1  0  0  0  0
 32 33  1  6  0  0  0
 32 39  1  0  0  0  0
 34 33  1  0  0  0  0
 35 34  1  0  0  0  0
 36 35  1  0  0  0  0
 37 35  2  0  0  0  0
 38 35  1  0  0  0  0
 39 43  1  0  0  0  0
 40 42  1  0  0  0  0
 40 44  1  0  0  0  0
 41 47  2  0  0  0  0
 42 45  1  6  0  0  0
 42 44  1  0  0  0  0
 43 46  2  0  0  0  0
 46 47  1  0  0  0  0
 46 45  1  0  0  0  0
 47 40  1  0  0  0  0
 49 50  2  0  0  0  0
 50 48  1  0  0  0  0
 51 52  1  0  0  0  0
 51 50  1  0  0  0  0
 53  4  1  0  0  0  0
 54 53  1  0  0  0  0
 54 55  1  0  0  0  0
 55 56  1  0  0  0  0
 56 58  1  0  0  0  0
 58 57  1  0  0  0  0
M  END
>  <MODEL>
4

>  <REMARK>
 VINA RESULT:      -5.6      3.616     10.626
  Name = 
  17 active torsions:
  status: ('A' for Active; 'I' for Inactive)
    1  A    between atoms: P_1  and  O_20
    2  A    between atoms: C_8  and  C_28
    3  A    between atoms: O_10  and  C_11
    4  A    between atoms: O_10  and  C_55
    5  A    between atoms: C_15  and  C_50
    6  A    between atoms: C_16  and  C_43
    7  A    between atoms: C_19  and  C_40
    8  A    between atoms: O_20  and  C_49
    9  A    between atoms: C_21  and  C_39
   10  A    between atoms: C_28  and  C_36
   11  A    between atoms: O_29  and  C_38
   12  A    between atoms: O_29  and  C_50
   13  A    between atoms: N_30  and  C_39
   14  A    between atoms: N_30  and  N_41
   15  A    between atoms: C_36  and  C_55
   16  A    between atoms: C_37  and  C_40
   17  A    between atoms: C_39  and  C_49
                            x       y       z     vdW  Elec       q    Type
                         _______ _______ _______ _____ _____    ______ ____

>  <TORSDO>
F 17

$$$$
=
 OpenBabel11062418023D

 58 63  0  0  1  0  0  0  0  0999 V2000
  182.8120  180.5290  138.7150 C   0  0  0  0  0  2  0  0  0  0  0  0
  186.1550  176.4460  136.9870 C   0  0  1  0  0  3  0  0  0  0  0  0
  184.1390  179.9120  138.4140 C   0  0  0  0  0  3  0  0  0  0  0  0
  188.1260  177.7320  139.2070 C   0  0  2  0  0  0  0  0  0  0  0  0
  188.2210  177.3130  137.8470 O   0  0  0  0  0  0  0  0  0  0  0  0
  185.4360  175.1740  136.6130 C   0  0  0  0  0  0  0  0  0  0  0  0
  181.1610  175.0540  134.6040 C   0  0  0  0  0  2  0  0  0  0  0  0
  187.5390  174.2830  135.8170 C   0  0  1  0  0  3  0  0  0  0  0  0
  183.1340  175.8880  136.0730 C   0  0  2  0  0  3  0  0  0  0  0  0
  181.7010  179.4660  138.7930 C   0  0  2  0  0  3  0  0  0  0  0  0
  186.1100  174.1800  136.1330 N   0  0  0  0  0  0  0  0  0  0  0  0
  186.7840  177.7670  139.6740 O   0  0  0  0  0  0  0  0  0  0  0  0
  180.5160  174.0690  135.5900 C   0  0  0  0  0  2  0  0  0  0  0  0
  181.9880  176.3900  136.9830 C   0  0  1  0  0  3  0  0  0  0  0  0
  182.6810  175.1500  134.7960 C   0  0  0  0  0  2  0  0  0  0  0  0
  181.2720  175.2500  137.6950 C   0  0  0  0  0  2  0  0  0  0  0  0
  182.4290  177.3440  137.9040 O   0  0  0  0  0  0  0  0  0  0  0  0
  184.8750  179.2020  139.2820 C   0  0  0  0  0  0  0  0  0  0  0  0
  188.3320  175.0690  136.8780 C   0  0  2  0  0  3  0  0  0  0  0  0
  185.2640  177.2400  137.9310 C   0  0  0  0  0  2  0  0  0  0  0  0
  187.4960  176.1170  137.6620 C   0  0  2  0  0  3  0  0  0  0  0  0
  184.0500  175.0480  136.7820 O   0  0  0  0  0  0  0  0  0  0  0  0
  188.6560  179.0250  139.3110 O   0  0  0  0  0  1  0  0  0  0  0  0
  181.6970  178.4970  137.6010 C   0  0  0  0  0  2  0  0  0  0  0  0
  185.9650  178.3580  138.6850 C   0  0  2  0  0  3  0  0  0  0  0  0
  180.0910  174.7740  136.8640 C   0  0  0  0  0  2  0  0  0  0  0  0
  188.1170  172.9430  135.6320 C   0  0  0  0  0  0  0  0  0  0  0  0
  188.5890  171.8410  135.4720 C   0  0  0  0  0  3  0  0  0  0  0  0
  184.4720  179.0520  140.7250 C   0  0  0  0  0  2  0  0  0  0  0  0
  185.6400  179.3710  141.6500 C   0  0  0  0  0  2  0  0  0  0  0  0
  185.4720  178.6270  142.9540 C   0  0  0  0  0  1  0  0  0  0  0  0
  180.3350  180.1350  138.9860 C   0  0  1  0  0  3  0  0  0  0  0  0
  179.8830  180.9690  137.7840 C   0  0  0  0  0  2  0  0  0  0  0  0
  179.6720  182.3040  138.1470 O   0  0  0  0  0  0  0  0  0  0  0  0
  180.4170  183.2230  136.9340 P   0  0  0  0  0  0  0  0  0  0  0  0
  181.8110  183.9700  137.5430 O   0  0  0  0  0  1  0  0  0  0  0  0
  179.3370  184.3970  136.3720 O   0  0  0  0  0  1  0  0  0  0  0  0
  180.7970  182.3180  135.7840 O   0  0  0  0  0  0  0  0  0  0  0  0
  179.3260  179.1420  139.3300 N   0  0  0  0  0  2  0  0  0  0  0  0
  180.1600  179.6050  143.3960 N   0  0  0  0  0  0  0  0  0  0  0  0
  179.5790  180.9600  141.5530 O   0  0  0  0  0  0  0  0  0  0  0  0
  180.0530  178.2690  144.0080 C   0  0  2  0  0  3  0  0  0  0  0  0
  179.5790  178.1740  140.3130 N   0  0  0  0  0  0  0  0  0  0  0  0
  181.1480  179.0100  144.3400 C   0  0  0  0  0  2  0  0  0  0  0  0
  180.1060  177.4750  142.6640 C   0  0  0  0  0  2  0  0  0  0  0  0
  179.8800  178.5020  141.5290 C   0  0  0  0  0  0  0  0  0  0  0  0
  179.9330  179.8620  142.0620 C   0  0  0  0  0  0  0  0  0  0  0  0
  189.5330  175.6170  136.3090 O   0  0  0  0  0  0  0  0  0  0  0  0
  190.9550  174.9020  138.0120 O   0  0  0  0  0  0  0  0  0  0  0  0
  190.8120  175.4440  136.8750 C   0  0  0  0  0  0  0  0  0  0  0  0
  192.0150  175.8570  136.0960 C   0  0  0  0  0  2  0  0  0  0  0  0
  193.2220  175.8760  137.0200 C   0  0  0  0  0  1  0  0  0  0  0  0
  188.8640  176.8610  140.0450 O   0  0  0  0  0  0  0  0  0  0  0  0
  189.1790  177.5430  141.2380 C   0  0  0  0  0  2  0  0  0  0  0  0
  188.6680  176.7830  142.4410 C   0  0  0  0  0  2  0  0  0  0  0  0
  189.4130  177.2880  143.6560 C   0  0  0  0  0  2  0  0  0  0  0  0
  191.7640  177.1290  143.4280 O   0  0  0  0  0  1  0  0  0  0  0  0
  190.6380  176.4540  143.9170 C   0  0  0  0  0  2  0  0  0  0  0  0
  1 10  1  0  0  0  0
  2 21  1  0  0  0  0
  2 20  1  1  0  0  0
  3  1  1  0  0  0  0
  3 18  2  0  0  0  0
  4 23  1  1  0  0  0
  4 12  1  0  0  0  0
  4 53  1  0  0  0  0
  5  4  1  0  0  0  0
  6 22  1  0  0  0  0
  6  2  1  0  0  0  0
  7 15  1  0  0  0  0
  7 13  1  0  0  0  0
  8 27  1  1  0  0  0
  8 11  1  0  0  0  0
  8 19  1  0  0  0  0
  9 15  1  6  0  0  0
  9 22  1  0  0  0  0
  9 14  1  0  0  0  0
 10 32  1  6  0  0  0
 11  6  2  0  0  0  0
 13 26  1  0  0  0  0
 14 16  1  1  0  0  0
 14 17  1  0  0  0  0
 18 29  1  0  0  0  0
 19 48  1  6  0  0  0
 19 21  1  0  0  0  0
 21  5  1  6  0  0  0
 24 17  1  0  0  0  0
 24 10  1  0  0  0  0
 25 20  1  1  0  0  0
 25 18  1  0  0  0  0
 25 12  1  0  0  0  0
 26 16  1  0  0  0  0
 28 27  3  0  0  0  0
 29 30  1  0  0  0  0
 30 31  1  0  0  0  0
 32 33  1  6  0  0  0
 32 39  1  0  0  0  0
 33 34  1  0  0  0  0
 35 36  1  0  0  0  0
 35 34  1  0  0  0  0
 37 35  1  0  0  0  0
 38 35  2  0  0  0  0
 39 43  1  0  0  0  0
 40 42  1  0  0  0  0
 40 44  1  0  0  0  0
 41 47  2  0  0  0  0
 42 45  1  6  0  0  0
 42 44  1  0  0  0  0
 43 46  2  0  0  0  0
 46 47  1  0  0  0  0
 46 45  1  0  0  0  0
 47 40  1  0  0  0  0
 48 50  1  0  0  0  0
 50 49  2  0  0  0  0
 51 50  1  0  0  0  0
 51 52  1  0  0  0  0
 53 54  1  0  0  0  0
 54 55  1  0  0  0  0
 55 56  1  0  0  0  0
 56 58  1  0  0  0  0
 57 58  1  0  0  0  0
M  END
>  <MODEL>
5

>  <REMARK>
 VINA RESULT:      -5.4      1.893      3.673
  Name = 
  17 active torsions:
  status: ('A' for Active; 'I' for Inactive)
    1  A    between atoms: P_1  and  O_20
    2  A    between atoms: C_8  and  C_28
    3  A    between atoms: O_10  and  C_11
    4  A    between atoms: O_10  and  C_55
    5  A    between atoms: C_15  and  C_50
    6  A    between atoms: C_16  and  C_43
    7  A    between atoms: C_19  and  C_40
    8  A    between atoms: O_20  and  C_49
    9  A    between atoms: C_21  and  C_39
   10  A    between atoms: C_28  and  C_36
   11  A    between atoms: O_29  and  C_38
   12  A    between atoms: O_29  and  C_50
   13  A    between atoms: N_30  and  C_39
   14  A    between atoms: N_30  and  N_41
   15  A    between atoms: C_36  and  C_55
   16  A    between atoms: C_37  and  C_40
   17  A    between atoms: C_39  and  C_49
                            x       y       z     vdW  Elec       q    Type
                         _______ _______ _______ _____ _____    ______ ____

>  <TORSDO>
F 17

$$$$
=
 OpenBabel11062418023D

 58 63  0  0  1  0  0  0  0  0999 V2000
  182.7810  177.0630  138.0100 C   0  0  0  0  0  2  0  0  0  0  0  0
  184.7960  177.9510  143.1080 C   0  0  1  0  0  3  0  0  0  0  0  0
  183.8140  176.9660  139.0850 C   0  0  0  0  0  3  0  0  0  0  0  0
  187.6000  178.0310  141.4950 C   0  0  2  0  0  0  0  0  0  0  0  0
  187.0890  177.3970  142.6670 O   0  0  0  0  0  0  0  0  0  0  0  0
  183.8970  178.7770  143.9930 C   0  0  0  0  0  0  0  0  0  0  0  0
  179.1770  178.5920  143.8640 C   0  0  0  0  0  2  0  0  0  0  0  0
  185.4070  178.3490  145.8340 C   0  0  1  0  0  3  0  0  0  0  0  0
  181.6380  178.4910  143.0380 C   0  0  2  0  0  3  0  0  0  0  0  0
  181.7300  178.1410  138.3340 C   0  0  2  0  0  3  0  0  0  0  0  0
  184.2360  178.9880  145.2230 N   0  0  0  0  0  0  0  0  0  0  0  0
  186.5810  178.6510  140.7230 O   0  0  0  0  0  0  0  0  0  0  0  0
  178.9330  180.1030  143.7300 C   0  0  0  0  0  2  0  0  0  0  0  0
  181.0140  179.0280  141.7280 C   0  0  1  0  0  3  0  0  0  0  0  0
  180.6420  178.2730  144.1960 C   0  0  0  0  0  2  0  0  0  0  0  0
  180.5800  180.4830  141.8490 C   0  0  0  0  0  2  0  0  0  0  0  0
  181.8660  178.8600  140.6340 O   0  0  0  0  0  0  0  0  0  0  0  0
  184.7910  177.8590  139.3000 C   0  0  0  0  0  0  0  0  0  0  0  0
  186.6250  178.3040  144.8910 C   0  0  2  0  0  3  0  0  0  0  0  0
  184.4390  178.2430  141.6570 C   0  0  0  0  0  2  0  0  0  0  0  0
  186.2690  178.2960  143.3790 C   0  0  2  0  0  3  0  0  0  0  0  0
  182.7030  179.3240  143.5050 O   0  0  0  0  0  0  0  0  0  0  0  0
  188.2170  177.0580  140.6970 O   0  0  0  0  0  1  0  0  0  0  0  0
  181.1600  178.0310  139.7570 C   0  0  0  0  0  2  0  0  0  0  0  0
  185.4690  177.7830  140.6390 C   0  0  2  0  0  3  0  0  0  0  0  0
  179.1300  180.5610  142.2970 C   0  0  0  0  0  2  0  0  0  0  0  0
  185.7570  179.0240  147.0930 C   0  0  0  0  0  0  0  0  0  0  0  0
  186.0490  179.5710  148.1310 C   0  0  0  0  0  3  0  0  0  0  0  0
  185.0160  179.0250  138.3750 C   0  0  0  0  0  2  0  0  0  0  0  0
  185.7600  178.5850  137.1200 C   0  0  0  0  0  2  0  0  0  0  0  0
  187.1640  178.1630  137.4840 C   0  0  0  0  0  1  0  0  0  0  0  0
  180.6210  178.1390  137.2750 C   0  0  1  0  0  3  0  0  0  0  0  0
  179.5500  177.0690  137.5080 C   0  0  0  0  0  2  0  0  0  0  0  0
  179.1750  176.4630  136.3030 O   0  0  0  0  0  0  0  0  0  0  0  0
  179.9260  174.9450  136.3110 P   0  0  0  0  0  0  0  0  0  0  0  0
  178.9310  173.8000  135.5570 O   0  0  0  0  0  0  0  0  0  0  0  0
  180.2320  174.4750  137.9070 O   0  0  0  0  0  1  0  0  0  0  0  0
  181.2390  175.0320  135.5670 O   0  0  0  0  0  1  0  0  0  0  0  0
  180.0130  179.4600  137.1740 N   0  0  0  0  0  2  0  0  0  0  0  0
  180.5850  183.5270  136.4200 N   0  0  0  0  0  0  0  0  0  0  0  0
  180.6420  182.0540  138.2620 O   0  0  0  0  0  0  0  0  0  0  0  0
  180.7790  183.6680  134.9670 C   0  0  2  0  0  3  0  0  0  0  0  0
  180.0160  180.1580  135.9570 N   0  0  0  0  0  0  0  0  0  0  0  0
  179.9140  184.5400  135.5570 C   0  0  0  0  0  2  0  0  0  0  0  0
  180.2290  182.2540  134.5950 C   0  0  0  0  0  2  0  0  0  0  0  0
  180.1550  181.4440  135.9120 C   0  0  0  0  0  0  0  0  0  0  0  0
  180.3860  182.3230  137.0570 C   0  0  0  0  0  0  0  0  0  0  0  0
  187.5150  177.2390  145.2650 O   0  0  0  0  0  0  0  0  0  0  0  0
  189.6190  178.2440  145.3070 O   0  0  0  0  0  0  0  0  0  0  0  0
  188.7840  177.4520  145.8410 C   0  0  0  0  0  0  0  0  0  0  0  0
  189.1250  176.7730  147.1240 C   0  0  0  0  0  2  0  0  0  0  0  0
  190.6370  176.7180  147.2710 C   0  0  0  0  0  1  0  0  0  0  0  0
  188.5550  179.0170  141.8430 O   0  0  0  0  0  0  0  0  0  0  0  0
  189.8270  178.5830  141.4180 C   0  0  0  0  0  2  0  0  0  0  0  0
  190.8430  178.7280  142.5280 C   0  0  0  0  0  2  0  0  0  0  0  0
  191.6770  177.4670  142.5590 C   0  0  0  0  0  2  0  0  0  0  0  0
  191.2730  175.6430  144.0130 O   0  0  0  0  0  1  0  0  0  0  0  0
  190.8170  176.2650  142.8430 C   0  0  0  0  0  2  0  0  0  0  0  0
  1 10  1  0  0  0  0
  1  3  1  0  0  0  0
  2 20  1  6  0  0  0
  2 21  1  0  0  0  0
  2  6  1  0  0  0  0
  3 18  2  0  0  0  0
  4 23  1  6  0  0  0
  4 53  1  0  0  0  0
  4  5  1  0  0  0  0
  6 11  2  0  0  0  0
  7 15  1  0  0  0  0
  8 27  1  1  0  0  0
  9 22  1  0  0  0  0
  9 15  1  1  0  0  0
 10 32  1  6  0  0  0
 10 24  1  0  0  0  0
 11  8  1  0  0  0  0
 12  4  1  0  0  0  0
 13  7  1  0  0  0  0
 14 16  1  1  0  0  0
 14  9  1  0  0  0  0
 16 26  1  0  0  0  0
 17 14  1  0  0  0  0
 18 25  1  0  0  0  0
 19 48  1  1  0  0  0
 19  8  1  0  0  0  0
 21  5  1  6  0  0  0
 21 19  1  0  0  0  0
 22  6  1  0  0  0  0
 24 17  1  0  0  0  0
 25 12  1  0  0  0  0
 25 20  1  1  0  0  0
 26 13  1  0  0  0  0
 27 28  3  0  0  0  0
 29 18  1  0  0  0  0
 30 31  1  0  0  0  0
 30 29  1  0  0  0  0
 32 33  1  1  0  0  0
 34 35  1  0  0  0  0
 34 33  1  0  0  0  0
 35 37  1  0  0  0  0
 36 35  2  0  0  0  0
 38 35  1  0  0  0  0
 39 32  1  0  0  0  0
 40 47  1  0  0  0  0
 42 45  1  6  0  0  0
 42 44  1  0  0  0  0
 42 40  1  0  0  0  0
 43 39  1  0  0  0  0
 44 40  1  0  0  0  0
 45 46  1  0  0  0  0
 46 43  2  0  0  0  0
 46 47  1  0  0  0  0
 47 41  2  0  0  0  0
 48 50  1  0  0  0  0
 49 50  2  0  0  0  0
 50 51  1  0  0  0  0
 51 52  1  0  0  0  0
 54 53  1  0  0  0  0
 54 55  1  0  0  0  0
 55 56  1  0  0  0  0
 56 58  1  0  0  0  0
 58 57  1  0  0  0  0
M  END
>  <MODEL>
6

>  <REMARK>
 VINA RESULT:      -5.3      3.215      6.698
  Name = 
  17 active torsions:
  status: ('A' for Active; 'I' for Inactive)
    1  A    between atoms: P_1  and  O_20
    2  A    between atoms: C_8  and  C_28
    3  A    between atoms: O_10  and  C_11
    4  A    between atoms: O_10  and  C_55
    5  A    between atoms: C_15  and  C_50
    6  A    between atoms: C_16  and  C_43
    7  A    between atoms: C_19  and  C_40
    8  A    between atoms: O_20  and  C_49
    9  A    between atoms: C_21  and  C_39
   10  A    between atoms: C_28  and  C_36
   11  A    between atoms: O_29  and  C_38
   12  A    between atoms: O_29  and  C_50
   13  A    between atoms: N_30  and  C_39
   14  A    between atoms: N_30  and  N_41
   15  A    between atoms: C_36  and  C_55
   16  A    between atoms: C_37  and  C_40
   17  A    between atoms: C_39  and  C_49
                            x       y       z     vdW  Elec       q    Type
                         _______ _______ _______ _____ _____    ______ ____

>  <TORSDO>
F 17

$$$$
=
 OpenBabel11062418023D

 58 63  0  0  1  0  0  0  0  0999 V2000
  187.5590  177.1610  142.8710 C   0  0  0  0  0  2  0  0  0  0  0  0
  183.4740  177.6180  139.1380 C   0  0  1  0  0  3  0  0  0  0  0  0
  186.1300  177.2020  142.4370 C   0  0  0  0  0  3  0  0  0  0  0  0
  181.9430  178.9700  141.6470 C   0  0  2  0  0  0  0  0  0  0  0  0
  181.6570  177.9760  140.6650 O   0  0  0  0  0  0  0  0  0  0  0  0
  183.9470  177.8910  137.7330 C   0  0  0  0  0  0  0  0  0  0  0  0
  187.9450  176.1490  135.9120 C   0  0  0  0  0  2  0  0  0  0  0  0
  181.6660  177.6330  136.9710 C   0  0  1  0  0  3  0  0  0  0  0  0
  186.2720  177.0580  137.6790 C   0  0  2  0  0  3  0  0  0  0  0  0
  188.4930  177.7290  141.7870 C   0  0  2  0  0  3  0  0  0  0  0  0
  183.0850  177.9480  136.7710 N   0  0  0  0  0  0  0  0  0  0  0  0
  183.3120  179.3530  141.6530 O   0  0  0  0  0  0  0  0  0  0  0  0
  188.5170  177.4820  135.4050 C   0  0  0  0  0  2  0  0  0  0  0  0
  187.5620  177.6090  138.3310 C   0  0  1  0  0  3  0  0  0  0  0  0
  186.4830  176.2840  136.3610 C   0  0  0  0  0  2  0  0  0  0  0  0
  188.1540  178.7730  137.5490 C   0  0  0  0  0  2  0  0  0  0  0  0
  187.3630  177.9660  139.6670 O   0  0  0  0  0  0  0  0  0  0  0  0
  185.3760  178.3100  142.3640 C   0  0  0  0  0  0  0  0  0  0  0  0
  181.1080  178.1970  138.2920 C   0  0  2  0  0  3  0  0  0  0  0  0
  184.5620  178.0620  140.1050 C   0  0  0  0  0  2  0  0  0  0  0  0
  182.1670  178.3780  139.4130 C   0  0  2  0  0  3  0  0  0  0  0  0
  185.3060  178.0890  137.4510 O   0  0  0  0  0  0  0  0  0  0  0  0
  181.6330  178.4490  142.9110 O   0  0  0  0  0  1  0  0  0  0  0  0
  188.2340  177.1450  140.3900 C   0  0  0  0  0  2  0  0  0  0  0  0
  184.1180  178.1960  141.5520 C   0  0  2  0  0  3  0  0  0  0  0  0
  189.1640  178.2610  136.5340 C   0  0  0  0  0  2  0  0  0  0  0  0
  180.8710  178.1150  135.8310 C   0  0  0  0  0  0  0  0  0  0  0  0
  180.2100  178.5120  134.8990 C   0  0  0  0  0  3  0  0  0  0  0  0
  185.8840  179.6460  142.8360 C   0  0  0  0  0  2  0  0  0  0  0  0
  185.0890  180.1320  144.0410 C   0  0  0  0  0  2  0  0  0  0  0  0
  184.9400  179.0060  145.0380 C   0  0  0  0  0  1  0  0  0  0  0  0
  189.9580  177.5690  142.2080 C   0  0  1  0  0  3  0  0  0  0  0  0
  190.2120  176.3530  143.1040 C   0  0  0  0  0  2  0  0  0  0  0  0
  191.4870  176.4070  143.6780 O   0  0  0  0  0  0  0  0  0  0  0  0
  191.2390  176.9150  145.2760 P   0  0  0  0  0  0  0  0  0  0  0  0
  191.6860  178.5400  145.4460 O   0  0  0  0  0  0  0  0  0  0  0  0
  192.1590  175.9550  146.3210 O   0  0  0  0  0  1  0  0  0  0  0  0
  189.7770  176.7590  145.6280 O   0  0  0  0  0  1  0  0  0  0  0  0
  190.8240  177.5310  141.0360 N   0  0  0  0  0  2  0  0  0  0  0  0
  193.3140  176.1770  137.9690 N   0  0  0  0  0  0  0  0  0  0  0  0
  193.4820  177.4920  139.9220 O   0  0  0  0  0  0  0  0  0  0  0  0
  192.6070  175.0700  137.3030 C   0  0  2  0  0  3  0  0  0  0  0  0
  190.5480  176.6620  139.9700 N   0  0  0  0  0  0  0  0  0  0  0  0
  193.1710  176.0120  136.4950 C   0  0  0  0  0  2  0  0  0  0  0  0
  191.2040  175.3920  137.9080 C   0  0  0  0  0  2  0  0  0  0  0  0
  191.4350  176.3920  139.0670 C   0  0  0  0  0  0  0  0  0  0  0  0
  192.8160  176.8700  139.0500 C   0  0  0  0  0  0  0  0  0  0  0  0
  179.9600  177.4440  138.7180 O   0  0  0  0  0  0  0  0  0  0  0  0
  179.3830  175.5740  137.4510 O   0  0  0  0  0  0  0  0  0  0  0  0
  179.8300  176.0520  138.5370 C   0  0  0  0  0  0  0  0  0  0  0  0
  180.2770  175.1320  139.6220 C   0  0  0  0  0  2  0  0  0  0  0  0
  179.5810  173.7910  139.4540 C   0  0  0  0  0  1  0  0  0  0  0  0
  181.1600  180.1280  141.4210 O   0  0  0  0  0  0  0  0  0  0  0  0
  179.8060  179.8080  141.6460 C   0  0  0  0  0  2  0  0  0  0  0  0
  178.9380  180.3190  140.5180 C   0  0  0  0  0  2  0  0  0  0  0  0
  179.7190  181.3840  139.7810 C   0  0  0  0  0  2  0  0  0  0  0  0
  179.7730  182.7270  137.8320 O   0  0  0  0  0  1  0  0  0  0  0  0
  179.1440  181.6160  138.4100 C   0  0  0  0  0  2  0  0  0  0  0  0
  2 21  1  0  0  0  0
  2 20  1  1  0  0  0
  3  1  1  0  0  0  0
  4 12  1  0  0  0  0
  4 23  1  1  0  0  0
  5  4  1  0  0  0  0
  6  2  1  0  0  0  0
  7 15  1  0  0  0  0
  8 27  1  6  0  0  0
  8 19  1  0  0  0  0
  9 15  1  6  0  0  0
  9 14  1  0  0  0  0
 10 32  1  1  0  0  0
 10  1  1  0  0  0  0
 11  8  1  0  0  0  0
 11  6  2  0  0  0  0
 13  7  1  0  0  0  0
 13 26  1  0  0  0  0
 14 16  1  6  0  0  0
 14 17  1  0  0  0  0
 17 24  1  0  0  0  0
 18  3  2  0  0  0  0
 18 29  1  0  0  0  0
 19 48  1  1  0  0  0
 19 21  1  0  0  0  0
 21  5  1  1  0  0  0
 22  9  1  0  0  0  0
 22  6  1  0  0  0  0
 24 10  1  0  0  0  0
 25 20  1  6  0  0  0
 25 12  1  0  0  0  0
 25 18  1  0  0  0  0
 26 16  1  0  0  0  0
 28 27  3  0  0  0  0
 29 30  1  0  0  0  0
 30 31  1  0  0  0  0
 32 33  1  6  0  0  0
 33 34  1  0  0  0  0
 34 35  1  0  0  0  0
 35 36  2  0  0  0  0
 35 38  1  0  0  0  0
 35 37  1  0  0  0  0
 39 32  1  0  0  0  0
 40 47  1  0  0  0  0
 42 44  1  6  0  0  0
 42 45  1  0  0  0  0
 42 40  1  0  0  0  0
 43 39  1  0  0  0  0
 44 40  1  0  0  0  0
 45 46  1  0  0  0  0
 46 43  2  0  0  0  0
 47 46  1  0  0  0  0
 47 41  2  0  0  0  0
 49 50  2  0  0  0  0
 50 48  1  0  0  0  0
 50 51  1  0  0  0  0
 52 51  1  0  0  0  0
 53 54  1  0  0  0  0
 53  4  1  0  0  0  0
 55 54  1  0  0  0  0
 56 55  1  0  0  0  0
 57 58  1  0  0  0  0
 58 56  1  0  0  0  0
M  END
>  <MODEL>
7

>  <REMARK>
 VINA RESULT:      -5.1      3.049      9.720
  Name = 
  17 active torsions:
  status: ('A' for Active; 'I' for Inactive)
    1  A    between atoms: P_1  and  O_20
    2  A    between atoms: C_8  and  C_28
    3  A    between atoms: O_10  and  C_11
    4  A    between atoms: O_10  and  C_55
    5  A    between atoms: C_15  and  C_50
    6  A    between atoms: C_16  and  C_43
    7  A    between atoms: C_19  and  C_40
    8  A    between atoms: O_20  and  C_49
    9  A    between atoms: C_21  and  C_39
   10  A    between atoms: C_28  and  C_36
   11  A    between atoms: O_29  and  C_38
   12  A    between atoms: O_29  and  C_50
   13  A    between atoms: N_30  and  C_39
   14  A    between atoms: N_30  and  N_41
   15  A    between atoms: C_36  and  C_55
   16  A    between atoms: C_37  and  C_40
   17  A    between atoms: C_39  and  C_49
                            x       y       z     vdW  Elec       q    Type
                         _______ _______ _______ _____ _____    ______ ____

>  <TORSDO>
F 17

$$$$
=
 OpenBabel11062418023D

 58 63  0  0  1  0  0  0  0  0999 V2000
  184.4390  179.6910  141.2500 C   0  0  0  0  0  2  0  0  0  0  0  0
  188.9380  177.4750  138.8660 C   0  0  1  0  0  3  0  0  0  0  0  0
  185.9050  179.4310  141.1220 C   0  0  0  0  0  3  0  0  0  0  0  0
  189.9890  177.4420  141.9260 C   0  0  2  0  0  0  0  0  0  0  0  0
  190.4920  177.8530  140.6560 O   0  0  0  0  0  0  0  0  0  0  0  0
  188.6380  176.5800  137.6910 C   0  0  0  0  0  0  0  0  0  0  0  0
  185.0930  177.3150  134.6530 C   0  0  0  0  0  2  0  0  0  0  0  0
  191.0150  176.4170  137.2750 C   0  0  1  0  0  3  0  0  0  0  0  0
  186.4240  177.3210  136.8840 C   0  0  2  0  0  3  0  0  0  0  0  0
  183.6150  178.6930  140.4170 C   0  0  2  0  0  3  0  0  0  0  0  0
  189.6150  176.0650  137.0180 N   0  0  0  0  0  0  0  0  0  0  0  0
  188.6030  177.1260  141.8870 O   0  0  0  0  0  0  0  0  0  0  0  0
  184.4810  175.9090  134.7340 C   0  0  0  0  0  2  0  0  0  0  0  0
  185.0140  177.1600  137.4990 C   0  0  1  0  0  3  0  0  0  0  0  0
  186.4630  177.3870  135.3420 C   0  0  0  0  0  2  0  0  0  0  0  0
  184.4340  175.7730  137.2590 C   0  0  0  0  0  2  0  0  0  0  0  0
  184.9980  177.4710  138.8610 O   0  0  0  0  0  0  0  0  0  0  0  0
  186.5610  178.4090  141.6910 C   0  0  0  0  0  0  0  0  0  0  0  0
  191.3370  176.5340  138.7770 C   0  0  2  0  0  3  0  0  0  0  0  0
  187.6940  177.5540  139.7390 C   0  0  0  0  0  2  0  0  0  0  0  0
  190.1230  176.9160  139.6680 C   0  0  2  0  0  3  0  0  0  0  0  0
  187.3180  176.2910  137.3180 O   0  0  0  0  0  0  0  0  0  0  0  0
  190.1680  178.4920  142.8370 O   0  0  0  0  0  1  0  0  0  0  0  0
  184.1120  178.5480  138.9700 C   0  0  0  0  0  2  0  0  0  0  0  0
  187.9240  178.1100  141.1340 C   0  0  2  0  0  3  0  0  0  0  0  0
  183.6210  175.7610  135.9750 C   0  0  0  0  0  2  0  0  0  0  0  0
  191.9120  175.4450  136.6320 C   0  0  0  0  0  0  0  0  0  0  0  0
  192.6570  174.6470  136.1100 C   0  0  0  0  0  3  0  0  0  0  0  0
  185.8790  177.4590  142.6390 C   0  0  0  0  0  2  0  0  0  0  0  0
  186.2170  177.8000  144.0840 C   0  0  0  0  0  2  0  0  0  0  0  0
  185.2480  178.8390  144.6010 C   0  0  0  0  0  1  0  0  0  0  0  0
  182.1260  179.0530  140.4730 C   0  0  1  0  0  3  0  0  0  0  0  0
  181.5590  179.5380  139.1360 C   0  0  0  0  0  2  0  0  0  0  0  0
  181.5600  180.9360  139.0670 O   0  0  0  0  0  0  0  0  0  0  0  0
  179.9750  181.3660  138.6480 P   0  0  0  0  0  0  0  0  0  0  0  0
  179.5250  180.5970  137.2070 O   0  0  0  0  0  0  0  0  0  0  0  0
  179.8780  183.0440  138.4560 O   0  0  0  0  0  1  0  0  0  0  0  0
  179.0340  180.9450  139.7540 O   0  0  0  0  0  1  0  0  0  0  0  0
  181.3500  177.9290  140.9820 N   0  0  0  0  0  2  0  0  0  0  0  0
  180.8690  174.5130  138.6280 N   0  0  0  0  0  0  0  0  0  0  0  0
  182.5270  175.4910  139.9920 O   0  0  0  0  0  0  0  0  0  0  0  0
  179.4240  174.3620  138.3860 C   0  0  2  0  0  3  0  0  0  0  0  0
  180.2220  177.4650  140.2880 N   0  0  0  0  0  0  0  0  0  0  0  0
  180.2440  174.2280  137.3050 C   0  0  0  0  0  2  0  0  0  0  0  0
  179.0380  175.8130  138.8170 C   0  0  0  0  0  2  0  0  0  0  0  0
  180.2670  176.4020  139.5510 C   0  0  0  0  0  0  0  0  0  0  0  0
  181.4220  175.5210  139.3870 C   0  0  0  0  0  0  0  0  0  0  0  0
  192.4780  177.3830  138.9860 O   0  0  0  0  0  0  0  0  0  0  0  0
  194.4020  177.6500  140.2750 O   0  0  0  0  0  0  0  0  0  0  0  0
  193.7060  176.9230  139.5030 C   0  0  0  0  0  0  0  0  0  0  0  0
  194.1630  175.5420  139.1760 C   0  0  0  0  0  2  0  0  0  0  0  0
  195.4550  175.2560  139.9250 C   0  0  0  0  0  1  0  0  0  0  0  0
  190.6910  176.3020  142.3900 O   0  0  0  0  0  0  0  0  0  0  0  0
  191.3620  176.6420  143.5820 C   0  0  0  0  0  2  0  0  0  0  0  0
  190.5450  176.2440  144.7900 C   0  0  0  0  0  2  0  0  0  0  0  0
  190.6110  177.3790  145.7860 C   0  0  0  0  0  2  0  0  0  0  0  0
  189.1880  176.5570  147.4910 O   0  0  0  0  0  1  0  0  0  0  0  0
  190.5250  176.8590  147.1960 C   0  0  0  0  0  2  0  0  0  0  0  0
  2 21  1  0  0  0  0
  2 20  1  1  0  0  0
  3  1  1  0  0  0  0
  3 18  2  0  0  0  0
  4 53  1  0  0  0  0
  4 23  1  1  0  0  0
  5  4  1  0  0  0  0
  6  2  1  0  0  0  0
  7 13  1  0  0  0  0
  7 15  1  0  0  0  0
  8 27  1  1  0  0  0
  8 19  1  0  0  0  0
  9 15  1  6  0  0  0
  9 22  1  0  0  0  0
  9 14  1  0  0  0  0
 10 32  1  6  0  0  0
 10  1  1  0  0  0  0
 11  8  1  0  0  0  0
 11  6  2  0  0  0  0
 12  4  1  0  0  0  0
 13 26  1  0  0  0  0
 14 16  1  1  0  0  0
 14 17  1  0  0  0  0
 17 24  1  0  0  0  0
 18 29  1  0  0  0  0
 19 48  1  6  0  0  0
 19 21  1  0  0  0  0
 21  5  1  1  0  0  0
 22  6  1  0  0  0  0
 24 10  1  0  0  0  0
 25 20  1  6  0  0  0
 25 18  1  0  0  0  0
 25 12  1  0  0  0  0
 26 16  1  0  0  0  0
 28 27  3  0  0  0  0
 29 30  1  0  0  0  0
 30 31  1  0  0  0  0
 32 33  1  6  0  0  0
 32 39  1  0  0  0  0
 34 33  1  0  0  0  0
 35 34  1  0  0  0  0
 35 38  1  0  0  0  0
 36 35  2  0  0  0  0
 37 35  1  0  0  0  0
 40 47  1  0  0  0  0
 42 44  1  6  0  0  0
 42 40  1  0  0  0  0
 42 45  1  0  0  0  0
 43 39  1  0  0  0  0
 44 40  1  0  0  0  0
 45 46  1  0  0  0  0
 46 43  2  0  0  0  0
 47 46  1  0  0  0  0
 47 41  2  0  0  0  0
 48 50  1  0  0  0  0
 50 49  2  0  0  0  0
 51 50  1  0  0  0  0
 51 52  1  0  0  0  0
 53 54  1  0  0  0  0
 54 55  1  0  0  0  0
 55 56  1  0  0  0  0
 56 58  1  0  0  0  0
 58 57  1  0  0  0  0
M  END
>  <MODEL>
8

>  <REMARK>
 VINA RESULT:      -4.9      2.927      4.726
  Name = 
  17 active torsions:
  status: ('A' for Active; 'I' for Inactive)
    1  A    between atoms: P_1  and  O_20
    2  A    between atoms: C_8  and  C_28
    3  A    between atoms: O_10  and  C_11
    4  A    between atoms: O_10  and  C_55
    5  A    between atoms: C_15  and  C_50
    6  A    between atoms: C_16  and  C_43
    7  A    between atoms: C_19  and  C_40
    8  A    between atoms: O_20  and  C_49
    9  A    between atoms: C_21  and  C_39
   10  A    between atoms: C_28  and  C_36
   11  A    between atoms: O_29  and  C_38
   12  A    between atoms: O_29  and  C_50
   13  A    between atoms: N_30  and  C_39
   14  A    between atoms: N_30  and  N_41
   15  A    between atoms: C_36  and  C_55
   16  A    between atoms: C_37  and  C_40
   17  A    between atoms: C_39  and  C_49
                            x       y       z     vdW  Elec       q    Type
                         _______ _______ _______ _____ _____    ______ ____

>  <TORSDO>
F 17

$$$$
=
 OpenBabel11062418023D

 58 63  0  0  1  0  0  0  0  0999 V2000
  183.1220  179.5490  139.7590 C   0  0  0  0  0  2  0  0  0  0  0  0
  187.6950  176.8390  138.1520 C   0  0  1  0  0  3  0  0  0  0  0  0
  184.5990  179.3460  139.6490 C   0  0  0  0  0  3  0  0  0  0  0  0
  188.8530  178.0810  140.9070 C   0  0  2  0  0  0  0  0  0  0  0  0
  189.2760  177.9860  139.5490 O   0  0  0  0  0  0  0  0  0  0  0  0
  187.4260  175.5360  137.4440 C   0  0  0  0  0  0  0  0  0  0  0  0
  183.7300  174.7990  134.5940 C   0  0  0  0  0  2  0  0  0  0  0  0
  189.7930  175.3630  136.9750 C   0  0  1  0  0  3  0  0  0  0  0  0
  185.1340  175.7660  136.5540 C   0  0  2  0  0  3  0  0  0  0  0  0
  182.3510  178.2550  139.4380 C   0  0  2  0  0  3  0  0  0  0  0  0
  188.4160  174.8550  136.9660 N   0  0  0  0  0  0  0  0  0  0  0  0
  187.4960  177.6940  141.0830 O   0  0  0  0  0  0  0  0  0  0  0  0
  183.2340  173.5060  135.2590 C   0  0  0  0  0  2  0  0  0  0  0  0
  183.7630  175.7790  137.2710 C   0  0  1  0  0  3  0  0  0  0  0  0
  185.1130  175.2190  135.1110 C   0  0  0  0  0  2  0  0  0  0  0  0
  183.2870  174.3780  137.6320 C   0  0  0  0  0  2  0  0  0  0  0  0
  183.7700  176.6010  138.4000 O   0  0  0  0  0  0  0  0  0  0  0  0
  185.3530  178.6730  140.5310 C   0  0  0  0  0  0  0  0  0  0  0  0
  190.1570  176.0830  138.2880 C   0  0  2  0  0  3  0  0  0  0  0  0
  186.4810  177.1840  139.0020 C   0  0  0  0  0  2  0  0  0  0  0  0
  188.9490  176.7140  139.0330 C   0  0  2  0  0  3  0  0  0  0  0  0
  186.1210  175.0460  137.2990 O   0  0  0  0  0  0  0  0  0  0  0  0
  188.9800  179.4150  141.3200 O   0  0  0  0  0  1  0  0  0  0  0  0
  182.8060  177.5790  138.1350 C   0  0  0  0  0  2  0  0  0  0  0  0
  186.7150  178.2590  140.0500 C   0  0  2  0  0  3  0  0  0  0  0  0
  182.4320  173.8110  136.5100 C   0  0  0  0  0  2  0  0  0  0  0  0
  190.7410  174.2700  136.7090 C   0  0  0  0  0  0  0  0  0  0  0  0
  191.5210  173.3700  136.5000 C   0  0  0  0  0  3  0  0  0  0  0  0
  184.7820  178.1370  141.8170 C   0  0  0  0  0  2  0  0  0  0  0  0
  185.4120  178.8290  143.0190 C   0  0  0  0  0  2  0  0  0  0  0  0
  184.4150  179.7810  143.6360 C   0  0  0  0  0  1  0  0  0  0  0  0
  180.8410  178.5200  139.4430 C   0  0  1  0  0  3  0  0  0  0  0  0
  180.2880  178.8980  140.8200 C   0  0  0  0  0  2  0  0  0  0  0  0
  181.3200  179.0540  141.7520 O   0  0  0  0  0  0  0  0  0  0  0  0
  180.5530  179.1620  143.2590 P   0  0  0  0  0  0  0  0  0  0  0  0
  179.3150  178.0100  143.3650 O   0  0  0  0  0  0  0  0  0  0  0  0
  179.9100  180.7140  143.4550 O   0  0  0  0  0  1  0  0  0  0  0  0
  181.5650  178.9110  144.3540 O   0  0  0  0  0  1  0  0  0  0  0  0
  180.4980  179.5360  138.4560 N   0  0  0  0  0  2  0  0  0  0  0  0
  179.1720  182.8910  136.3530 N   0  0  0  0  0  0  0  0  0  0  0  0
  178.9930  180.5420  136.2130 O   0  0  0  0  0  0  0  0  0  0  0  0
  179.3390  184.0480  137.2480 C   0  0  2  0  0  3  0  0  0  0  0  0
  180.6450  180.8990  138.7510 N   0  0  0  0  0  0  0  0  0  0  0  0
  179.7780  184.1960  135.9660 C   0  0  0  0  0  2  0  0  0  0  0  0
  180.2950  183.3330  138.2550 C   0  0  0  0  0  2  0  0  0  0  0  0
  180.2150  181.8180  137.9480 C   0  0  0  0  0  0  0  0  0  0  0  0
  179.4830  181.5960  136.7030 C   0  0  0  0  0  0  0  0  0  0  0  0
  191.2340  177.0110  138.0740 O   0  0  0  0  0  0  0  0  0  0  0  0
  193.1300  177.1810  139.4190 O   0  0  0  0  0  0  0  0  0  0  0  0
  192.5810  176.7220  138.3720 C   0  0  0  0  0  0  0  0  0  0  0  0
  193.3510  175.8210  137.4670 C   0  0  0  0  0  2  0  0  0  0  0  0
  194.5790  175.3090  138.2030 C   0  0  0  0  0  1  0  0  0  0  0  0
  189.6590  177.2620  141.7350 O   0  0  0  0  0  0  0  0  0  0  0  0
  189.0650  177.1890  143.0110 C   0  0  0  0  0  2  0  0  0  0  0  0
  190.1170  177.2440  144.0960 C   0  0  0  0  0  2  0  0  0  0  0  0
  189.4080  177.4400  145.4170 C   0  0  0  0  0  2  0  0  0  0  0  0
  187.3500  178.0440  146.4190 O   0  0  0  0  0  1  0  0  0  0  0  0
  187.9350  177.6630  145.2050 C   0  0  0  0  0  2  0  0  0  0  0  0
  2 20  1  1  0  0  0
  2 21  1  0  0  0  0
  3  1  1  0  0  0  0
  3 18  2  0  0  0  0
  4 12  1  0  0  0  0
  4 23  1  1  0  0  0
  4 53  1  0  0  0  0
  5  4  1  0  0  0  0
  6  2  1  0  0  0  0
  7 15  1  0  0  0  0
  7 13  1  0  0  0  0
  8 27  1  1  0  0  0
  8 19  1  0  0  0  0
  9 15  1  6  0  0  0
  9 14  1  0  0  0  0
  9 22  1  0  0  0  0
 10 32  1  6  0  0  0
 10  1  1  0  0  0  0
 11  8  1  0  0  0  0
 11  6  2  0  0  0  0
 13 26  1  0  0  0  0
 14 16  1  1  0  0  0
 14 17  1  0  0  0  0
 18 29  1  0  0  0  0
 19 48  1  6  0  0  0
 19 21  1  0  0  0  0
 21  5  1  6  0  0  0
 22  6  1  0  0  0  0
 24 17  1  0  0  0  0
 24 10  1  0  0  0  0
 25 20  1  6  0  0  0
 25 18  1  0  0  0  0
 25 12  1  0  0  0  0
 26 16  1  0  0  0  0
 28 27  3  0  0  0  0
 29 30  1  0  0  0  0
 30 31  1  0  0  0  0
 32 33  1  1  0  0  0
 33 34  1  0  0  0  0
 34 35  1  0  0  0  0
 35 36  2  0  0  0  0
 35 37  1  0  0  0  0
 35 38  1  0  0  0  0
 39 43  1  0  0  0  0
 39 32  1  0  0  0  0
 40 47  1  0  0  0  0
 40 42  1  0  0  0  0
 41 47  2  0  0  0  0
 42 44  1  6  0  0  0
 42 45  1  0  0  0  0
 44 40  1  0  0  0  0
 46 45  1  0  0  0  0
 46 43  2  0  0  0  0
 47 46  1  0  0  0  0
 48 50  1  0  0  0  0
 50 49  2  0  0  0  0
 51 52  1  0  0  0  0
 51 50  1  0  0  0  0
 53 54  1  0  0  0  0
 54 55  1  0  0  0  0
 55 56  1  0  0  0  0
 58 56  1  0  0  0  0
 58 57  1  0  0  0  0
M  END
>  <MODEL>
9

>  <REMARK>
 VINA RESULT:      -4.7      1.757      2.297
  Name = 
  17 active torsions:
  status: ('A' for Active; 'I' for Inactive)
    1  A    between atoms: P_1  and  O_20
    2  A    between atoms: C_8  and  C_28
    3  A    between atoms: O_10  and  C_11
    4  A    between atoms: O_10  and  C_55
    5  A    between atoms: C_15  and  C_50
    6  A    between atoms: C_16  and  C_43
    7  A    between atoms: C_19  and  C_40
    8  A    between atoms: O_20  and  C_49
    9  A    between atoms: C_21  and  C_39
   10  A    between atoms: C_28  and  C_36
   11  A    between atoms: O_29  and  C_38
   12  A    between atoms: O_29  and  C_50
   13  A    between atoms: N_30  and  C_39
   14  A    between atoms: N_30  and  N_41
   15  A    between atoms: C_36  and  C_55
   16  A    between atoms: C_37  and  C_40
   17  A    between atoms: C_39  and  C_49
                            x       y       z     vdW  Elec       q    Type
                         _______ _______ _______ _____ _____    ______ ____

>  <TORSDO>
F 17

$$$$
