=
 OpenBabel11062415303D

 37 40  0  0  1  0  0  0  0  0999 V2000
  183.7370  178.9200  142.4600 N   0  0  0  0  0  1  0  0  0  0  0  0
  186.9860  175.9820  137.7320 C   0  0  0  0  0  0  0  0  0  0  0  0
  187.1150  177.9460  142.7280 N   0  0  0  0  0  0  0  0  0  0  0  0
  188.3330  176.3530  137.7560 O   0  0  0  0  0  0  0  0  0  0  0  0
  188.1110  177.8480  140.4160 C   0  0  0  0  0  2  0  0  0  0  0  0
  185.0520  178.4280  142.2650 C   0  0  0  0  0  0  0  0  0  0  0  0
  188.7190  177.7050  138.0090 C   0  0  2  0  0  3  0  0  0  0  0  0
  187.0050  178.0540  141.3930 C   0  0  0  0  0  0  0  0  0  0  0  0
  187.7520  178.3950  139.0010 C   0  0  1  0  0  3  0  0  0  0  0  0
  185.9240  178.1970  143.2660 N   0  0  0  0  0  2  0  0  0  0  0  0
  185.7110  178.3330  141.0520 C   0  0  0  0  0  0  0  0  0  0  0  0
  185.9900  176.8630  138.1970 O   0  0  0  0  0  0  0  0  0  0  0  0
  186.6730  174.8200  137.3400 O   0  0  0  0  0  0  0  0  0  0  0  0
  185.2490  178.6780  139.6670 C   0  0  1  0  0  3  0  0  0  0  0  0
  186.0410  179.0380  137.4610 O   0  0  0  0  0  1  0  0  0  0  0  0
  186.2570  178.2190  138.5690 C   0  0  1  0  0  0  0  0  0  0  0  0
  189.2020  179.8020  136.9840 F   0  0  0  0  0  0  0  0  0  0  0  0
  187.9440  178.3410  135.8260 F   0  0  0  0  0  0  0  0  0  0  0  0
  190.1470  177.9630  136.0980 F   0  0  0  0  0  0  0  0  0  0  0  0
  189.0030  178.4540  136.7000 C   0  0  0  0  0  0  0  0  0  0  0  0
  183.7630  178.2620  139.4510 C   0  0  2  0  0  3  0  0  0  0  0  0
  183.0480  176.0200  139.1690 O   0  0  0  0  0  0  0  0  0  0  0  0
  183.5600  177.0030  138.6600 C   0  0  0  0  0  3  0  0  0  0  0  0
  182.7610  179.3820  139.1110 C   0  0  1  0  0  3  0  0  0  0  0  0
  183.5190  180.6700  138.8020 C   0  0  0  0  0  1  0  0  0  0  0  0
  181.8040  179.0060  137.9600 C   0  0  1  0  0  3  0  0  0  0  0  0
  180.4070  178.5540  138.4340 C   0  0  1  0  0  0  0  0  0  0  0  0
  180.5750  179.9140  137.7320 C   0  0  1  0  0  0  0  0  0  0  0  0
  180.5710  181.2370  138.5160 C   0  0  0  0  0  1  0  0  0  0  0  0
  179.8310  177.4260  137.5910 C   0  0  0  0  0  1  0  0  0  0  0  0
  179.9800  178.6100  139.8940 C   0  0  0  0  0  0  0  0  0  0  0  0
  178.9340  179.3580  140.2440 C   0  0  0  0  0  2  0  0  0  0  0  0
  179.2520  177.1100  141.5750 O   0  0  0  0  0  1  0  0  0  0  0  0
  180.3510  177.4870  140.8110 C   0  0  0  0  0  2  0  0  0  0  0  0
  180.2210  179.9850  136.3690 O   0  0  0  0  0  0  0  0  0  0  0  0
  180.0030  181.3400  136.0820 C   0  0  0  0  0  2  0  0  0  0  0  0
  180.8110  181.7230  135.0140 O   0  0  0  0  0  1  0  0  0  0  0  0
  2  4  1  0  0  0  0
  2 12  1  0  0  0  0
  3 10  1  0  0  0  0
  4  7  1  0  0  0  0
  5  8  1  0  0  0  0
  6  1  1  0  0  0  0
  6 10  1  0  0  0  0
  7 20  1  6  0  0  0
  7  9  1  0  0  0  0
  8  3  2  0  0  0  0
  9  5  1  1  0  0  0
 11  8  1  0  0  0  0
 11  6  2  0  0  0  0
 12 16  1  0  0  0  0
 13  2  2  0  0  0  0
 14 21  1  6  0  0  0
 14 11  1  0  0  0  0
 16 15  1  6  0  0  0
 16  9  1  0  0  0  0
 16 14  1  0  0  0  0
 18 20  1  0  0  0  0
 19 20  1  0  0  0  0
 20 17  1  0  0  0  0
 21 23  1  6  0  0  0
 23 22  2  0  0  0  0
 24 25  1  6  0  0  0
 24 21  1  0  0  0  0
 26 27  1  0  0  0  0
 26 24  1  1  0  0  0
 27 30  1  6  0  0  0
 27 31  1  0  0  0  0
 28 26  1  0  0  0  0
 28 27  1  0  0  0  0
 28 29  1  1  0  0  0
 31 32  2  0  0  0  0
 31 34  1  0  0  0  0
 34 33  1  0  0  0  0
 35 28  1  0  0  0  0
 36 35  1  0  0  0  0
 37 36  1  0  0  0  0
M  END
>  <MODEL>
1

>  <REMARK>
 VINA RESULT:      -4.5      0.000      0.000
  Name = 
  9 active torsions:
  status: ('A' for Active; 'I' for Inactive)
    1  A    between atoms: C_1  and  C_10
    2  A    between atoms: C_1  and  C_26
    3  A    between atoms: C_4  and  C_9
    4  A    between atoms: C_9  and  C_19
    5  A    between atoms: C_12  and  O_28
    6  A    between atoms: C_17  and  O_28
    7  A    between atoms: C_18  and  C_23
    8  A    between atoms: C_19  and  C_24
    9  A    between atoms: C_19  and  C_34
                            x       y       z     vdW  Elec       q    Type
                         _______ _______ _______ _____ _____    ______ ____

>  <TORSDO>
F 9

$$$$
=
 OpenBabel11062415303D

 37 40  0  0  1  0  0  0  0  0999 V2000
  187.5630  178.2130  137.1200 N   0  0  0  0  0  1  0  0  0  0  0  0
  189.7150  175.7080  142.6540 C   0  0  0  0  0  0  0  0  0  0  0  0
  186.0670  178.8310  140.2530 N   0  0  0  0  0  0  0  0  0  0  0  0
  189.4940  176.5920  143.7140 O   0  0  0  0  0  0  0  0  0  0  0  0
  187.8060  178.5250  142.0490 C   0  0  0  0  0  2  0  0  0  0  0  0
  187.1990  178.2750  138.4890 C   0  0  0  0  0  0  0  0  0  0  0  0
  189.7110  177.9950  143.5580 C   0  0  2  0  0  3  0  0  0  0  0  0
  187.3140  178.5160  140.6430 C   0  0  1  0  0  3  0  0  0  0  0  0
  189.3620  178.4680  142.1260 C   0  0  1  0  0  3  0  0  0  0  0  0
  186.0010  178.7050  138.9300 N   0  0  0  0  0  0  0  0  0  0  0  0
  188.0590  178.1320  139.5640 C   0  0  0  0  0  0  0  0  0  0  0  0
  189.9140  176.1900  141.3460 O   0  0  0  0  0  0  0  0  0  0  0  0
  189.6790  174.4620  142.8720 O   0  0  0  0  0  0  0  0  0  0  0  0
  189.5350  177.8650  139.5970 C   0  0  1  0  0  3  0  0  0  0  0  0
  191.4150  177.9020  141.0410 O   0  0  0  0  0  1  0  0  0  0  0  0
  190.0580  177.5810  141.0390 C   0  0  1  0  0  0  0  0  0  0  0  0
  191.1000  178.2530  145.4790 F   0  0  0  0  0  0  0  0  0  0  0  0
  191.3620  179.7240  143.7970 F   0  0  0  0  0  0  0  0  0  0  0  0
  192.0770  177.6020  143.5590 F   0  0  0  0  0  0  0  0  0  0  0  0
  191.0880  178.4070  144.0950 C   0  0  0  0  0  0  0  0  0  0  0  0
  189.9420  176.8320  138.5040 C   0  0  2  0  0  3  0  0  0  0  0  0
  188.6800  175.0430  137.5930 O   0  0  0  0  0  0  0  0  0  0  0  0
  189.2330  175.5110  138.5760 C   0  0  0  0  0  3  0  0  0  0  0  0
  191.4420  176.7170  138.1680 C   0  0  1  0  0  3  0  0  0  0  0  0
  192.2590  177.4700  139.2140 C   0  0  0  0  0  1  0  0  0  0  0  0
  191.9200  175.2560  138.0310 C   0  0  1  0  0  3  0  0  0  0  0  0
  192.0200  174.7690  136.5700 C   0  0  1  0  0  0  0  0  0  0  0  0
  193.3030  175.0180  137.3850 C   0  0  1  0  0  0  0  0  0  0  0  0
  194.1640  176.2750  137.1760 C   0  0  0  0  0  1  0  0  0  0  0  0
  191.6010  173.3170  136.4000 C   0  0  0  0  0  1  0  0  0  0  0  0
  191.7990  175.6940  135.3810 C   0  0  0  0  0  0  0  0  0  0  0  0
  192.8280  176.0070  134.5940 C   0  0  0  0  0  2  0  0  0  0  0  0
  189.9370  177.1050  134.9990 O   0  0  0  0  0  1  0  0  0  0  0  0
  190.4280  175.8200  134.7940 C   0  0  0  0  0  2  0  0  0  0  0  0
  193.9500  173.8920  137.9310 O   0  0  0  0  0  0  0  0  0  0  0  0
  195.2810  174.2680  138.1650 C   0  0  0  0  0  2  0  0  0  0  0  0
  195.8510  173.4010  139.0940 O   0  0  0  0  0  1  0  0  0  0  0  0
  1  6  1  0  0  0  0
  2 13  2  0  0  0  0
  2  4  1  0  0  0  0
  3  8  1  0  0  0  0
  6 10  1  0  0  0  0
  6 11  2  0  0  0  0
  7  4  1  0  0  0  0
  7 20  1  6  0  0  0
  8  5  1  1  0  0  0
  9  5  1  6  0  0  0
  9  7  1  0  0  0  0
 10  3  2  0  0  0  0
 11 14  1  0  0  0  0
 11  8  1  0  0  0  0
 12  2  1  0  0  0  0
 14 21  1  6  0  0  0
 14 16  1  0  0  0  0
 16 15  1  1  0  0  0
 16 12  1  0  0  0  0
 16  9  1  0  0  0  0
 18 20  1  0  0  0  0
 19 20  1  0  0  0  0
 20 17  1  0  0  0  0
 21 23  1  1  0  0  0
 22 23  2  0  0  0  0
 24 21  1  0  0  0  0
 24 25  1  1  0  0  0
 26 24  1  6  0  0  0
 27 30  1  6  0  0  0
 27 28  1  0  0  0  0
 27 26  1  0  0  0  0
 28 29  1  6  0  0  0
 28 35  1  0  0  0  0
 28 26  1  0  0  0  0
 31 27  1  0  0  0  0
 32 31  2  0  0  0  0
 34 33  1  0  0  0  0
 34 31  1  0  0  0  0
 35 36  1  0  0  0  0
 36 37  1  0  0  0  0
M  END
>  <MODEL>
2

>  <REMARK>
 VINA RESULT:      -4.1      5.641      9.403
  Name = 
  9 active torsions:
  status: ('A' for Active; 'I' for Inactive)
    1  A    between atoms: C_1  and  C_10
    2  A    between atoms: C_1  and  C_26
    3  A    between atoms: C_4  and  C_9
    4  A    between atoms: C_9  and  C_19
    5  A    between atoms: C_12  and  O_28
    6  A    between atoms: C_17  and  O_28
    7  A    between atoms: C_18  and  C_23
    8  A    between atoms: C_19  and  C_24
    9  A    between atoms: C_19  and  C_34
                            x       y       z     vdW  Elec       q    Type
                         _______ _______ _______ _____ _____    ______ ____

>  <TORSDO>
F 9

$$$$
=
 OpenBabel11062415303D

 37 40  0  0  1  0  0  0  0  0999 V2000
  185.9650  178.8650  145.3410 N   0  0  0  0  0  1  0  0  0  0  0  0
  183.8930  179.9390  139.3340 C   0  0  0  0  0  0  0  0  0  0  0  0
  182.5660  179.2580  144.4910 N   0  0  0  0  0  0  0  0  0  0  0  0
  182.6420  179.3520  139.1320 O   0  0  0  0  0  0  0  0  0  0  0  0
  182.2600  178.6120  142.0760 C   0  0  0  0  0  2  0  0  0  0  0  0
  184.7140  179.0530  144.7010 C   0  0  0  0  0  0  0  0  0  0  0  0
  182.3450  178.0550  139.6530 C   0  0  2  0  0  3  0  0  0  0  0  0
  183.0600  178.8490  143.3100 C   0  0  0  0  0  0  0  0  0  0  0  0
  183.0600  177.8110  141.0050 C   0  0  1  0  0  3  0  0  0  0  0  0
  183.5750  179.3620  145.3510 N   0  0  0  0  0  2  0  0  0  0  0  0
  184.4190  178.7320  143.3880 C   0  0  0  0  0  0  0  0  0  0  0  0
  184.8050  179.3900  140.2560 O   0  0  0  0  0  0  0  0  0  0  0  0
  184.1800  181.0070  138.7190 O   0  0  0  0  0  0  0  0  0  0  0  0
  185.2880  178.1480  142.3130 C   0  0  1  0  0  3  0  0  0  0  0  0
  185.1950  177.1280  140.1750 O   0  0  0  0  0  1  0  0  0  0  0  0
  184.5880  178.1390  140.9190 C   0  0  1  0  0  0  0  0  0  0  0  0
  181.3220  176.8040  137.9010 F   0  0  0  0  0  0  0  0  0  0  0  0
  182.8800  175.7680  139.1490 F   0  0  0  0  0  0  0  0  0  0  0  0
  183.4920  177.3490  137.6680 F   0  0  0  0  0  0  0  0  0  0  0  0
  182.5240  176.9720  138.5820 C   0  0  0  0  0  0  0  0  0  0  0  0
  186.7210  178.7570  142.3580 C   0  0  2  0  0  3  0  0  0  0  0  0
  187.9010  178.5810  140.3090 O   0  0  0  0  0  0  0  0  0  0  0  0
  187.2320  179.2850  141.0490 C   0  0  0  0  0  3  0  0  0  0  0  0
  187.7810  178.0030  143.1840 C   0  0  1  0  0  3  0  0  0  0  0  0
  187.5540  176.4990  143.0550 C   0  0  0  0  0  1  0  0  0  0  0  0
  189.2270  178.3860  142.8040 C   0  0  1  0  0  3  0  0  0  0  0  0
  190.2410  178.2060  143.9530 C   0  0  1  0  0  0  0  0  0  0  0  0
  190.2720  177.2480  142.7470 C   0  0  1  0  0  0  0  0  0  0  0  0
  189.7060  175.8210  142.8310 C   0  0  0  0  0  1  0  0  0  0  0  0
  191.3050  179.2920  143.9790 C   0  0  0  0  0  1  0  0  0  0  0  0
  189.8630  177.5790  145.2880 C   0  0  0  0  0  0  0  0  0  0  0  0
  190.7180  176.7520  145.8900 C   0  0  0  0  0  2  0  0  0  0  0  0
  188.4090  177.3800  147.1460 O   0  0  0  0  0  1  0  0  0  0  0  0
  188.8430  178.2520  146.1520 C   0  0  0  0  0  2  0  0  0  0  0  0
  191.2500  177.4840  141.7610 O   0  0  0  0  0  0  0  0  0  0  0  0
  190.8900  176.7110  140.6470 C   0  0  0  0  0  2  0  0  0  0  0  0
  190.9210  177.5050  139.5020 O   0  0  0  0  0  1  0  0  0  0  0  0
  2 12  1  0  0  0  0
  3 10  1  0  0  0  0
  4  2  1  0  0  0  0
  4  7  1  0  0  0  0
  5  8  1  0  0  0  0
  6  1  1  0  0  0  0
  6 10  1  0  0  0  0
  7 20  1  6  0  0  0
  7  9  1  0  0  0  0
  8 11  1  0  0  0  0
  8  3  2  0  0  0  0
  9  5  1  1  0  0  0
 11  6  2  0  0  0  0
 12 16  1  0  0  0  0
 13  2  2  0  0  0  0
 14 21  1  6  0  0  0
 14 11  1  0  0  0  0
 16 15  1  6  0  0  0
 16  9  1  0  0  0  0
 16 14  1  0  0  0  0
 17 20  1  0  0  0  0
 19 20  1  0  0  0  0
 20 18  1  0  0  0  0
 21 23  1  6  0  0  0
 21 24  1  0  0  0  0
 22 23  2  0  0  0  0
 24 25  1  6  0  0  0
 26 24  1  1  0  0  0
 26 27  1  0  0  0  0
 27 30  1  1  0  0  0
 27 31  1  0  0  0  0
 28 26  1  0  0  0  0
 28 29  1  1  0  0  0
 28 27  1  0  0  0  0
 31 32  2  0  0  0  0
 31 34  1  0  0  0  0
 34 33  1  0  0  0  0
 35 28  1  0  0  0  0
 36 35  1  0  0  0  0
 37 36  1  0  0  0  0
M  END
>  <MODEL>
3

>  <REMARK>
 VINA RESULT:      -4.0      3.724      7.963
  Name = 
  9 active torsions:
  status: ('A' for Active; 'I' for Inactive)
    1  A    between atoms: C_1  and  C_10
    2  A    between atoms: C_1  and  C_26
    3  A    between atoms: C_4  and  C_9
    4  A    between atoms: C_9  and  C_19
    5  A    between atoms: C_12  and  O_28
    6  A    between atoms: C_17  and  O_28
    7  A    between atoms: C_18  and  C_23
    8  A    between atoms: C_19  and  C_24
    9  A    between atoms: C_19  and  C_34
                            x       y       z     vdW  Elec       q    Type
                         _______ _______ _______ _____ _____    ______ ____

>  <TORSDO>
F 9

$$$$
=
 OpenBabel11062415303D

 37 40  0  0  1  0  0  0  0  0999 V2000
  182.5360  173.3610  136.8740 N   0  0  0  0  0  1  0  0  0  0  0  0
  186.9330  177.8950  135.5900 C   0  0  0  0  0  0  0  0  0  0  0  0
  185.8650  172.6460  135.9550 N   0  0  0  0  0  0  0  0  0  0  0  0
  188.2070  177.4680  135.9720 O   0  0  0  0  0  0  0  0  0  0  0  0
  187.3130  174.6080  136.5870 C   0  0  0  0  0  2  0  0  0  0  0  0
  183.9030  173.3940  136.5000 C   0  0  0  0  0  0  0  0  0  0  0  0
  188.4090  176.7560  137.1950 C   0  0  2  0  0  3  0  0  0  0  0  0
  186.0180  173.8830  136.4590 C   0  0  1  0  0  3  0  0  0  0  0  0
  187.2010  175.8460  137.5260 C   0  0  1  0  0  3  0  0  0  0  0  0
  184.5720  172.3360  136.0000 N   0  0  0  0  0  0  0  0  0  0  0  0
  184.8010  174.4050  136.7930 C   0  0  0  0  0  0  0  0  0  0  0  0
  185.7870  177.4280  136.2620 O   0  0  0  0  0  0  0  0  0  0  0  0
  186.8140  178.6650  134.5930 O   0  0  0  0  0  0  0  0  0  0  0  0
  184.5990  175.6970  137.5280 C   0  0  1  0  0  3  0  0  0  0  0  0
  185.7860  177.4730  138.5590 O   0  0  0  0  0  1  0  0  0  0  0  0
  185.8470  176.6300  137.4490 C   0  0  1  0  0  0  0  0  0  0  0  0
  188.4840  177.1750  139.5400 F   0  0  0  0  0  0  0  0  0  0  0  0
  188.3330  178.9510  138.1690 F   0  0  0  0  0  0  0  0  0  0  0  0
  190.2610  177.7970  138.3080 F   0  0  0  0  0  0  0  0  0  0  0  0
  188.8810  177.6960  138.3120 C   0  0  0  0  0  0  0  0  0  0  0  0
  183.2330  176.3470  137.1570 C   0  0  2  0  0  3  0  0  0  0  0  0
  182.9770  177.1410  134.9380 O   0  0  0  0  0  0  0  0  0  0  0  0
  183.2950  177.3990  136.0880 C   0  0  0  0  0  3  0  0  0  0  0  0
  182.2790  176.6920  138.3170 C   0  0  1  0  0  3  0  0  0  0  0  0
  182.3890  175.6250  139.4030 C   0  0  0  0  0  1  0  0  0  0  0  0
  182.5150  178.1040  138.8940 C   0  0  1  0  0  3  0  0  0  0  0  0
  181.3970  179.1110  138.5520 C   0  0  1  0  0  0  0  0  0  0  0  0
  181.5480  178.5930  139.9950 C   0  0  1  0  0  0  0  0  0  0  0  0
  180.6060  177.5250  140.5750 C   0  0  0  0  0  1  0  0  0  0  0  0
  181.9240  180.5110  138.2800 C   0  0  0  0  0  1  0  0  0  0  0  0
  180.1200  178.7030  137.8320 C   0  0  0  0  0  0  0  0  0  0  0  0
  178.9500  178.8050  138.4620 C   0  0  0  0  0  2  0  0  0  0  0  0
  179.7430  177.4390  135.8650 O   0  0  0  0  0  1  0  0  0  0  0  0
  180.0900  178.7020  136.3350 C   0  0  0  0  0  2  0  0  0  0  0  0
  182.1920  179.4390  140.9200 O   0  0  0  0  0  0  0  0  0  0  0  0
  182.0480  178.8380  142.1790 C   0  0  0  0  0  2  0  0  0  0  0  0
  183.3030  178.6850  142.7660 O   0  0  0  0  0  1  0  0  0  0  0  0
  2  4  1  0  0  0  0
  2 12  1  0  0  0  0
  3 10  2  0  0  0  0
  3  8  1  0  0  0  0
  4  7  1  0  0  0  0
  6 11  2  0  0  0  0
  6  1  1  0  0  0  0
  7  9  1  0  0  0  0
  7 20  1  1  0  0  0
  8  5  1  6  0  0  0
  8 11  1  0  0  0  0
  9  5  1  6  0  0  0
 10  6  1  0  0  0  0
 11 14  1  0  0  0  0
 12 16  1  0  0  0  0
 13  2  2  0  0  0  0
 14 21  1  6  0  0  0
 16  9  1  0  0  0  0
 16 14  1  0  0  0  0
 16 15  1  1  0  0  0
 18 20  1  0  0  0  0
 19 20  1  0  0  0  0
 20 17  1  0  0  0  0
 21 23  1  1  0  0  0
 21 24  1  0  0  0  0
 22 23  2  0  0  0  0
 24 25  1  1  0  0  0
 26 24  1  6  0  0  0
 26 28  1  0  0  0  0
 27 30  1  6  0  0  0
 27 26  1  0  0  0  0
 27 28  1  0  0  0  0
 28 29  1  1  0  0  0
 28 35  1  0  0  0  0
 31 32  2  0  0  0  0
 31 27  1  0  0  0  0
 33 34  1  0  0  0  0
 34 31  1  0  0  0  0
 35 36  1  0  0  0  0
 36 37  1  0  0  0  0
M  END
>  <MODEL>
4

>  <REMARK>
 VINA RESULT:      -3.9      3.313      4.693
  Name = 
  9 active torsions:
  status: ('A' for Active; 'I' for Inactive)
    1  A    between atoms: C_1  and  C_10
    2  A    between atoms: C_1  and  C_26
    3  A    between atoms: C_4  and  C_9
    4  A    between atoms: C_9  and  C_19
    5  A    between atoms: C_12  and  O_28
    6  A    between atoms: C_17  and  O_28
    7  A    between atoms: C_18  and  C_23
    8  A    between atoms: C_19  and  C_24
    9  A    between atoms: C_19  and  C_34
                            x       y       z     vdW  Elec       q    Type
                         _______ _______ _______ _____ _____    ______ ____

>  <TORSDO>
F 9

$$$$
=
 OpenBabel11062415303D

 37 40  0  0  1  0  0  0  0  0999 V2000
  183.0830  174.6400  137.2900 N   0  0  0  0  0  1  0  0  0  0  0  0
  180.5060  179.8960  139.9870 C   0  0  0  0  0  0  0  0  0  0  0  0
  179.6860  175.5300  136.9730 N   0  0  0  0  0  0  0  0  0  0  0  0
  179.4790  180.4070  139.1880 O   0  0  0  0  0  0  0  0  0  0  0  0
  179.4740  178.0220  137.2730 C   0  0  0  0  0  2  0  0  0  0  0  0
  181.8050  175.2510  137.3400 C   0  0  0  0  0  0  0  0  0  0  0  0
  179.6090  180.4550  137.7670 C   0  0  2  0  0  3  0  0  0  0  0  0
  180.2230  176.7350  137.2270 C   0  0  1  0  0  3  0  0  0  0  0  0
  180.4260  179.2550  137.2300 C   0  0  1  0  0  3  0  0  0  0  0  0
  180.6580  174.6220  137.0200 N   0  0  0  0  0  0  0  0  0  0  0  0
  181.5580  176.6040  137.4910 C   0  0  0  0  0  0  0  0  0  0  0  0
  181.5820  179.1930  139.4110 O   0  0  0  0  0  0  0  0  0  0  0  0
  180.4310  180.0230  141.2440 O   0  0  0  0  0  0  0  0  0  0  0  0
  182.5100  177.7510  137.6600 C   0  0  1  0  0  3  0  0  0  0  0  0
  182.6260  180.1180  137.5870 O   0  0  0  0  0  1  0  0  0  0  0  0
  181.7810  179.0880  137.9980 C   0  0  1  0  0  0  0  0  0  0  0  0
  178.9310  182.6570  137.1540 F   0  0  0  0  0  0  0  0  0  0  0  0
  180.7020  181.7770  136.0850 F   0  0  0  0  0  0  0  0  0  0  0  0
  180.8930  182.4280  138.2310 F   0  0  0  0  0  0  0  0  0  0  0  0
  180.0530  181.8470  137.2980 C   0  0  0  0  0  0  0  0  0  0  0  0
  183.6960  177.3630  138.5930 C   0  0  2  0  0  3  0  0  0  0  0  0
  182.7380  176.5010  140.5820 O   0  0  0  0  0  0  0  0  0  0  0  0
  183.3900  177.3910  140.0620 C   0  0  0  0  0  3  0  0  0  0  0  0
  185.0870  177.9220  138.2340 C   0  0  1  0  0  3  0  0  0  0  0  0
  185.5370  178.9040  139.3120 C   0  0  0  0  0  1  0  0  0  0  0  0
  186.1410  176.8180  138.0060 C   0  0  1  0  0  3  0  0  0  0  0  0
  186.3020  176.4060  136.5280 C   0  0  1  0  0  0  0  0  0  0  0  0
  187.4180  177.2050  137.2270 C   0  0  1  0  0  0  0  0  0  0  0  0
  187.6150  178.7100  136.9780 C   0  0  0  0  0  1  0  0  0  0  0  0
  186.5480  174.9160  136.3520 C   0  0  0  0  0  1  0  0  0  0  0  0
  185.5820  177.1240  135.3950 C   0  0  0  0  0  0  0  0  0  0  0  0
  186.2640  177.9570  134.6080 C   0  0  0  0  0  2  0  0  0  0  0  0
  183.3950  177.5470  134.5940 O   0  0  0  0  0  1  0  0  0  0  0  0
  184.3220  176.5390  134.8380 C   0  0  0  0  0  2  0  0  0  0  0  0
  188.5430  176.4850  137.6750 O   0  0  0  0  0  0  0  0  0  0  0  0
  189.6700  177.2380  137.3150 C   0  0  0  0  0  2  0  0  0  0  0  0
  190.8210  176.4820  137.5290 O   0  0  0  0  0  1  0  0  0  0  0  0
  1  6  1  0  0  0  0
  2 13  2  0  0  0  0
  3 10  2  0  0  0  0
  3  8  1  0  0  0  0
  4  2  1  0  0  0  0
  6 11  2  0  0  0  0
  7 20  1  1  0  0  0
  7  4  1  0  0  0  0
  8  5  1  1  0  0  0
  8 11  1  0  0  0  0
  9  5  1  1  0  0  0
  9  7  1  0  0  0  0
  9 16  1  0  0  0  0
 10  6  1  0  0  0  0
 11 14  1  0  0  0  0
 12  2  1  0  0  0  0
 14 16  1  0  0  0  0
 14 21  1  1  0  0  0
 16 15  1  6  0  0  0
 16 12  1  0  0  0  0
 17 20  1  0  0  0  0
 18 20  1  0  0  0  0
 20 19  1  0  0  0  0
 21 23  1  1  0  0  0
 23 22  2  0  0  0  0
 24 21  1  0  0  0  0
 24 25  1  1  0  0  0
 26 24  1  6  0  0  0
 27 30  1  6  0  0  0
 27 28  1  0  0  0  0
 27 26  1  0  0  0  0
 28 29  1  6  0  0  0
 28 35  1  0  0  0  0
 28 26  1  0  0  0  0
 31 27  1  0  0  0  0
 32 31  2  0  0  0  0
 33 34  1  0  0  0  0
 34 31  1  0  0  0  0
 36 37  1  0  0  0  0
 36 35  1  0  0  0  0
M  END
>  <MODEL>
5

>  <REMARK>
 VINA RESULT:      -3.8      3.805      7.589
  Name = 
  9 active torsions:
  status: ('A' for Active; 'I' for Inactive)
    1  A    between atoms: C_1  and  C_10
    2  A    between atoms: C_1  and  C_26
    3  A    between atoms: C_4  and  C_9
    4  A    between atoms: C_9  and  C_19
    5  A    between atoms: C_12  and  O_28
    6  A    between atoms: C_17  and  O_28
    7  A    between atoms: C_18  and  C_23
    8  A    between atoms: C_19  and  C_24
    9  A    between atoms: C_19  and  C_34
                            x       y       z     vdW  Elec       q    Type
                         _______ _______ _______ _____ _____    ______ ____

>  <TORSDO>
F 9

$$$$
=
 OpenBabel11062415303D

 37 40  0  0  1  0  0  0  0  0999 V2000
  186.4280  179.3310  140.9990 N   0  0  0  0  0  1  0  0  0  0  0  0
  188.3580  176.9020  135.3500 C   0  0  0  0  0  0  0  0  0  0  0  0
  184.2580  178.7520  138.2810 N   0  0  0  0  0  0  0  0  0  0  0  0
  187.3480  176.1220  134.7790 O   0  0  0  0  0  0  0  0  0  0  0  0
  185.2390  176.9340  136.8400 C   0  0  0  0  0  2  0  0  0  0  0  0
  185.8220  178.9880  139.7640 C   0  0  0  0  0  0  0  0  0  0  0  0
  186.5560  175.2430  135.5780 C   0  0  2  0  0  3  0  0  0  0  0  0
  185.2350  177.8750  137.9950 C   0  0  0  0  0  0  0  0  0  0  0  0
  186.3210  175.8230  136.9950 C   0  0  1  0  0  3  0  0  0  0  0  0
  184.6060  179.4200  139.3790 N   0  0  0  0  0  2  0  0  0  0  0  0
  186.2580  178.0070  138.8920 C   0  0  0  0  0  0  0  0  0  0  0  0
  188.4600  177.0320  136.7490 O   0  0  0  0  0  0  0  0  0  0  0  0
  189.1480  177.5380  134.5950 O   0  0  0  0  0  0  0  0  0  0  0  0
  187.4410  177.0890  138.9770 C   0  0  1  0  0  3  0  0  0  0  0  0
  188.3620  175.1230  138.0230 O   0  0  0  0  0  1  0  0  0  0  0  0
  187.6610  176.2750  137.6650 C   0  0  1  0  0  0  0  0  0  0  0  0
  186.3070  173.0790  134.6100 F   0  0  0  0  0  0  0  0  0  0  0  0
  187.0150  173.1920  136.7420 F   0  0  0  0  0  0  0  0  0  0  0  0
  188.3930  173.7890  135.0650 F   0  0  0  0  0  0  0  0  0  0  0  0
  187.0830  173.8040  135.5100 C   0  0  0  0  0  0  0  0  0  0  0  0
  188.6890  177.8320  139.5410 C   0  0  2  0  0  3  0  0  0  0  0  0
  188.9490  179.7320  138.1470 O   0  0  0  0  0  0  0  0  0  0  0  0
  189.4270  178.6840  138.5510 C   0  0  0  0  0  3  0  0  0  0  0  0
  189.6080  177.0420  140.4930 C   0  0  1  0  0  3  0  0  0  0  0  0
  190.7260  176.3800  139.6920 C   0  0  0  0  0  1  0  0  0  0  0  0
  190.1770  177.9070  141.6380 C   0  0  1  0  0  3  0  0  0  0  0  0
  189.2510  177.9960  142.8700 C   0  0  1  0  0  0  0  0  0  0  0  0
  190.5590  177.1860  142.9510 C   0  0  1  0  0  0  0  0  0  0  0  0
  190.5660  175.6500  142.8880 C   0  0  0  0  0  1  0  0  0  0  0  0
  189.2670  179.3690  143.5230 C   0  0  0  0  0  1  0  0  0  0  0  0
  187.9650  177.1920  142.9870 C   0  0  0  0  0  0  0  0  0  0  0  0
  188.0210  175.8600  142.9800 C   0  0  0  0  0  2  0  0  0  0  0  0
  186.5530  177.2900  144.8850 O   0  0  0  0  0  1  0  0  0  0  0  0
  186.7610  177.8200  143.6160 C   0  0  0  0  0  2  0  0  0  0  0  0
  191.6590  177.7990  143.5830 O   0  0  0  0  0  0  0  0  0  0  0  0
  191.8970  177.0760  144.7610 C   0  0  0  0  0  2  0  0  0  0  0  0
  191.0670  177.5530  145.7730 O   0  0  0  0  0  1  0  0  0  0  0  0
  2 12  1  0  0  0  0
  3 10  1  0  0  0  0
  4  2  1  0  0  0  0
  4  7  1  0  0  0  0
  5  8  1  0  0  0  0
  6  1  1  0  0  0  0
  7 20  1  1  0  0  0
  7  9  1  0  0  0  0
  8  3  2  0  0  0  0
  8 11  1  0  0  0  0
  9  5  1  6  0  0  0
  9 16  1  0  0  0  0
 10  6  1  0  0  0  0
 11 14  1  0  0  0  0
 11  6  2  0  0  0  0
 12 16  1  0  0  0  0
 13  2  2  0  0  0  0
 14 21  1  6  0  0  0
 16 15  1  1  0  0  0
 16 14  1  0  0  0  0
 17 20  1  0  0  0  0
 19 20  1  0  0  0  0
 20 18  1  0  0  0  0
 21 23  1  6  0  0  0
 21 24  1  0  0  0  0
 22 23  2  0  0  0  0
 24 25  1  6  0  0  0
 26 24  1  6  0  0  0
 26 27  1  0  0  0  0
 26 28  1  0  0  0  0
 27 28  1  0  0  0  0
 27 31  1  0  0  0  0
 27 30  1  1  0  0  0
 28 29  1  1  0  0  0
 28 35  1  0  0  0  0
 31 34  1  0  0  0  0
 32 31  2  0  0  0  0
 34 33  1  0  0  0  0
 35 36  1  0  0  0  0
 36 37  1  0  0  0  0
M  END
>  <MODEL>
6

>  <REMARK>
 VINA RESULT:      -3.7      4.325      7.601
  Name = 
  9 active torsions:
  status: ('A' for Active; 'I' for Inactive)
    1  A    between atoms: C_1  and  C_10
    2  A    between atoms: C_1  and  C_26
    3  A    between atoms: C_4  and  C_9
    4  A    between atoms: C_9  and  C_19
    5  A    between atoms: C_12  and  O_28
    6  A    between atoms: C_17  and  O_28
    7  A    between atoms: C_18  and  C_23
    8  A    between atoms: C_19  and  C_24
    9  A    between atoms: C_19  and  C_34
                            x       y       z     vdW  Elec       q    Type
                         _______ _______ _______ _____ _____    ______ ____

>  <TORSDO>
F 9

$$$$
=
 OpenBabel11062415303D

 37 40  0  0  1  0  0  0  0  0999 V2000
  181.9200  172.8290  136.0340 N   0  0  0  0  0  1  0  0  0  0  0  0
  182.9950  177.6300  140.1970 C   0  0  0  0  0  0  0  0  0  0  0  0
  179.4820  174.0590  138.2650 N   0  0  0  0  0  0  0  0  0  0  0  0
  181.8320  178.3810  140.3940 O   0  0  0  0  0  0  0  0  0  0  0  0
  180.0460  176.4460  138.8370 C   0  0  0  0  0  2  0  0  0  0  0  0
  181.1730  173.5270  137.0160 C   0  0  0  0  0  0  0  0  0  0  0  0
  180.9730  178.7070  139.3000 C   0  0  2  0  0  3  0  0  0  0  0  0
  180.2810  175.1350  138.1700 C   0  0  1  0  0  3  0  0  0  0  0  0
  180.9440  177.5740  138.2450 C   0  0  1  0  0  3  0  0  0  0  0  0
  180.0160  173.0790  137.5400 N   0  0  0  0  0  0  0  0  0  0  0  0
  181.3780  174.8370  137.4120 C   0  0  0  0  0  0  0  0  0  0  0  0
  183.2240  176.9680  138.9750 O   0  0  0  0  0  0  0  0  0  0  0  0
  183.8160  177.5040  141.1510 O   0  0  0  0  0  0  0  0  0  0  0  0
  182.4020  175.8370  136.9620 C   0  0  1  0  0  3  0  0  0  0  0  0
  182.9200  178.1500  137.0300 O   0  0  0  0  0  1  0  0  0  0  0  0
  182.3870  177.1360  137.8260 C   0  0  1  0  0  0  0  0  0  0  0  0
  182.6280  180.3540  138.8190 F   0  0  0  0  0  0  0  0  0  0  0  0
  180.6240  181.0710  139.5450 F   0  0  0  0  0  0  0  0  0  0  0  0
  180.8370  180.2430  137.4620 F   0  0  0  0  0  0  0  0  0  0  0  0
  181.2570  180.1200  138.7750 C   0  0  0  0  0  0  0  0  0  0  0  0
  183.7930  175.1640  136.7590 C   0  0  2  0  0  3  0  0  0  0  0  0
  184.6270  173.2770  137.9260 O   0  0  0  0  0  0  0  0  0  0  0  0
  184.3470  174.4650  137.9650 C   0  0  0  0  0  3  0  0  0  0  0  0
  184.8460  175.9530  135.9560 C   0  0  1  0  0  3  0  0  0  0  0  0
  184.1480  176.8180  134.9100 C   0  0  0  0  0  1  0  0  0  0  0  0
  185.7780  176.7980  136.8500 C   0  0  1  0  0  3  0  0  0  0  0  0
  187.2610  176.3800  136.7730 C   0  0  1  0  0  0  0  0  0  0  0  0
  186.8060  177.7100  136.1430 C   0  0  1  0  0  0  0  0  0  0  0  0
  186.6220  177.8660  134.6240 C   0  0  0  0  0  1  0  0  0  0  0  0
  187.9740  176.4770  138.1130 C   0  0  0  0  0  1  0  0  0  0  0  0
  187.7650  175.3230  135.8000 C   0  0  0  0  0  0  0  0  0  0  0  0
  188.6640  175.6580  134.8750 C   0  0  0  0  0  2  0  0  0  0  0  0
  186.7580  173.2230  135.3720 O   0  0  0  0  0  1  0  0  0  0  0  0
  187.6830  173.8780  136.1790 C   0  0  0  0  0  2  0  0  0  0  0  0
  187.0520  178.8880  136.8760 O   0  0  0  0  0  0  0  0  0  0  0  0
  188.3000  179.3680  136.4550 C   0  0  0  0  0  2  0  0  0  0  0  0
  189.0770  179.6770  137.5700 O   0  0  0  0  0  1  0  0  0  0  0  0
  1  6  1  0  0  0  0
  2  4  1  0  0  0  0
  2 13  2  0  0  0  0
  6 11  2  0  0  0  0
  6 10  1  0  0  0  0
  7 20  1  6  0  0  0
  7  4  1  0  0  0  0
  8  3  1  0  0  0  0
  8  5  1  1  0  0  0
  9  5  1  1  0  0  0
  9  7  1  0  0  0  0
 10  3  2  0  0  0  0
 11  8  1  0  0  0  0
 12  2  1  0  0  0  0
 14 21  1  1  0  0  0
 14 11  1  0  0  0  0
 14 16  1  0  0  0  0
 16 15  1  6  0  0  0
 16  9  1  0  0  0  0
 16 12  1  0  0  0  0
 19 20  1  0  0  0  0
 20 17  1  0  0  0  0
 20 18  1  0  0  0  0
 21 23  1  1  0  0  0
 22 23  2  0  0  0  0
 24 25  1  6  0  0  0
 24 21  1  0  0  0  0
 26 24  1  6  0  0  0
 27 26  1  0  0  0  0
 27 30  1  1  0  0  0
 28 29  1  6  0  0  0
 28 27  1  0  0  0  0
 28 26  1  0  0  0  0
 28 35  1  0  0  0  0
 31 34  1  0  0  0  0
 31 27  1  0  0  0  0
 32 31  2  0  0  0  0
 33 34  1  0  0  0  0
 36 35  1  0  0  0  0
 36 37  1  0  0  0  0
M  END
>  <MODEL>
7

>  <REMARK>
 VINA RESULT:      -3.7      3.913      7.430
  Name = 
  9 active torsions:
  status: ('A' for Active; 'I' for Inactive)
    1  A    between atoms: C_1  and  C_10
    2  A    between atoms: C_1  and  C_26
    3  A    between atoms: C_4  and  C_9
    4  A    between atoms: C_9  and  C_19
    5  A    between atoms: C_12  and  O_28
    6  A    between atoms: C_17  and  O_28
    7  A    between atoms: C_18  and  C_23
    8  A    between atoms: C_19  and  C_24
    9  A    between atoms: C_19  and  C_34
                            x       y       z     vdW  Elec       q    Type
                         _______ _______ _______ _____ _____    ______ ____

>  <TORSDO>
F 9

$$$$
=
 OpenBabel11062415303D

 37 40  0  0  1  0  0  0  0  0999 V2000
  178.9330  175.3010  136.8100 N   0  0  0  0  0  1  0  0  0  0  0  0
  185.1560  175.9190  135.2530 C   0  0  0  0  0  0  0  0  0  0  0  0
  180.6240  173.1110  134.6230 N   0  0  0  0  0  0  0  0  0  0  0  0
  185.7370  174.6670  135.0370 O   0  0  0  0  0  0  0  0  0  0  0  0
  183.0800  173.1570  135.1790 C   0  0  0  0  0  2  0  0  0  0  0  0
  179.8650  174.6070  135.9970 C   0  0  0  0  0  0  0  0  0  0  0  0
  185.4310  173.5580  135.8850 C   0  0  2  0  0  3  0  0  0  0  0  0
  181.6610  173.5810  135.3370 C   0  0  1  0  0  3  0  0  0  0  0  0
  183.9640  173.6110  136.3790 C   0  0  1  0  0  3  0  0  0  0  0  0
  179.5190  173.7230  135.0420 N   0  0  0  0  0  0  0  0  0  0  0  0
  181.2320  174.5490  136.2010 C   0  0  0  0  0  0  0  0  0  0  0  0
  184.0760  176.0670  136.1450 O   0  0  0  0  0  0  0  0  0  0  0  0
  185.5750  176.9150  134.5940 O   0  0  0  0  0  0  0  0  0  0  0  0
  182.0830  175.1820  137.2630 C   0  0  1  0  0  3  0  0  0  0  0  0
  184.2500  175.1050  138.2230 O   0  0  0  0  0  1  0  0  0  0  0  0
  183.6090  175.0080  136.9880 C   0  0  1  0  0  0  0  0  0  0  0  0
  187.6380  172.8060  136.3790 F   0  0  0  0  0  0  0  0  0  0  0  0
  186.0650  172.5330  137.9630 F   0  0  0  0  0  0  0  0  0  0  0  0
  186.8620  174.5890  137.5110 F   0  0  0  0  0  0  0  0  0  0  0  0
  186.5070  173.3700  136.9620 C   0  0  0  0  0  0  0  0  0  0  0  0
  181.6030  176.6300  137.5780 C   0  0  2  0  0  3  0  0  0  0  0  0
  181.3880  178.3890  136.0030 O   0  0  0  0  0  0  0  0  0  0  0  0
  182.1410  177.6940  136.6670 C   0  0  0  0  0  3  0  0  0  0  0  0
  181.5470  177.0470  139.0610 C   0  0  1  0  0  3  0  0  0  0  0  0
  181.1840  175.8380  139.9180 C   0  0  0  0  0  1  0  0  0  0  0  0
  182.8530  177.7090  139.5500 C   0  0  1  0  0  3  0  0  0  0  0  0
  182.8480  179.2480  139.4430 C   0  0  1  0  0  0  0  0  0  0  0  0
  182.7740  178.5760  140.8270 C   0  0  1  0  0  0  0  0  0  0  0  0
  181.4560  178.4840  141.6140 C   0  0  0  0  0  1  0  0  0  0  0  0
  184.2000  179.8170  139.0410 C   0  0  0  0  0  1  0  0  0  0  0  0
  181.6160  180.0360  139.0220 C   0  0  0  0  0  0  0  0  0  0  0  0
  180.4190  179.6790  139.4860 C   0  0  0  0  0  2  0  0  0  0  0  0
  181.2960  181.5810  137.2560 O   0  0  0  0  0  1  0  0  0  0  0  0
  181.7720  181.4500  138.5570 C   0  0  0  0  0  2  0  0  0  0  0  0
  183.9650  178.5120  141.5780 O   0  0  0  0  0  0  0  0  0  0  0  0
  183.6460  178.9470  142.8720 C   0  0  0  0  0  2  0  0  0  0  0  0
  184.8210  179.1920  143.5810 O   0  0  0  0  0  1  0  0  0  0  0  0
  2 12  1  0  0  0  0
  3 10  2  0  0  0  0
  3  8  1  0  0  0  0
  4  2  1  0  0  0  0
  4  7  1  0  0  0  0
  6 11  2  0  0  0  0
  6  1  1  0  0  0  0
  7  9  1  0  0  0  0
  7 20  1  1  0  0  0
  8  5  1  6  0  0  0
  8 11  1  0  0  0  0
  9  5  1  6  0  0  0
  9 16  1  0  0  0  0
 10  6  1  0  0  0  0
 11 14  1  0  0  0  0
 12 16  1  0  0  0  0
 13  2  2  0  0  0  0
 14 21  1  6  0  0  0
 16 14  1  0  0  0  0
 16 15  1  1  0  0  0
 17 20  1  0  0  0  0
 20 19  1  0  0  0  0
 20 18  1  0  0  0  0
 21 23  1  6  0  0  0
 21 24  1  0  0  0  0
 22 23  2  0  0  0  0
 24 25  1  1  0  0  0
 26 24  1  6  0  0  0
 26 28  1  0  0  0  0
 27 30  1  6  0  0  0
 27 26  1  0  0  0  0
 27 28  1  0  0  0  0
 28 35  1  0  0  0  0
 28 29  1  1  0  0  0
 31 27  1  0  0  0  0
 31 32  2  0  0  0  0
 33 34  1  0  0  0  0
 34 31  1  0  0  0  0
 35 36  1  0  0  0  0
 36 37  1  0  0  0  0
M  END
>  <MODEL>
8

>  <REMARK>
 VINA RESULT:      -3.6      4.069      6.136
  Name = 
  9 active torsions:
  status: ('A' for Active; 'I' for Inactive)
    1  A    between atoms: C_1  and  C_10
    2  A    between atoms: C_1  and  C_26
    3  A    between atoms: C_4  and  C_9
    4  A    between atoms: C_9  and  C_19
    5  A    between atoms: C_12  and  O_28
    6  A    between atoms: C_17  and  O_28
    7  A    between atoms: C_18  and  C_23
    8  A    between atoms: C_19  and  C_24
    9  A    between atoms: C_19  and  C_34
                            x       y       z     vdW  Elec       q    Type
                         _______ _______ _______ _____ _____    ______ ____

>  <TORSDO>
F 9

$$$$
=
 OpenBabel11062415303D

 37 40  0  0  1  0  0  0  0  0999 V2000
  183.1010  178.5770  141.9340 N   0  0  0  0  0  1  0  0  0  0  0  0
  186.3660  175.4780  137.3220 C   0  0  0  0  0  0  0  0  0  0  0  0
  186.6120  178.6800  141.6240 N   0  0  0  0  0  0  0  0  0  0  0  0
  187.5080  176.1970  136.9580 O   0  0  0  0  0  0  0  0  0  0  0  0
  187.2220  178.2360  139.2200 C   0  0  0  0  0  2  0  0  0  0  0  0
  184.4590  178.4320  141.5530 C   0  0  0  0  0  0  0  0  0  0  0  0
  187.4710  177.6180  136.8240 C   0  0  2  0  0  3  0  0  0  0  0  0
  186.2710  178.3880  140.3570 C   0  0  0  0  0  0  0  0  0  0  0  0
  186.4950  178.2580  137.8420 C   0  0  1  0  0  3  0  0  0  0  0  0
  185.5010  178.7300  142.3540 N   0  0  0  0  0  2  0  0  0  0  0  0
  184.9210  178.1960  140.2700 C   0  0  0  0  0  0  0  0  0  0  0  0
  185.2220  176.1420  137.8040 O   0  0  0  0  0  0  0  0  0  0  0  0
  186.3900  174.2140  137.2660 O   0  0  0  0  0  0  0  0  0  0  0  0
  184.1670  178.0120  138.9860 C   0  0  1  0  0  3  0  0  0  0  0  0
  184.4540  177.9620  136.6330 O   0  0  0  0  0  1  0  0  0  0  0  0
  185.0900  177.5680  137.8100 C   0  0  1  0  0  0  0  0  0  0  0  0
  186.3840  177.1720  134.7500 F   0  0  0  0  0  0  0  0  0  0  0  0
  188.4880  177.9620  134.6750 F   0  0  0  0  0  0  0  0  0  0  0  0
  186.7960  179.3200  135.2740 F   0  0  0  0  0  0  0  0  0  0  0  0
  187.2940  178.0320  135.3580 C   0  0  0  0  0  0  0  0  0  0  0  0
  182.8810  177.1600  139.2080 C   0  0  2  0  0  3  0  0  0  0  0  0
  182.3420  175.5250  137.5790 O   0  0  0  0  0  0  0  0  0  0  0  0
  182.9200  175.7790  138.6230 C   0  0  0  0  0  3  0  0  0  0  0  0
  181.5260  177.8740  139.0340 C   0  0  1  0  0  3  0  0  0  0  0  0
  180.4490  177.1220  139.8110 C   0  0  0  0  0  1  0  0  0  0  0  0
  181.5720  179.3630  139.4380 C   0  0  1  0  0  3  0  0  0  0  0  0
  181.2360  180.3310  138.2840 C   0  0  1  0  0  0  0  0  0  0  0  0
  180.2360  180.1400  139.4400 C   0  0  1  0  0  0  0  0  0  0  0  0
  178.9680  179.2840  139.2800 C   0  0  0  0  0  1  0  0  0  0  0  0
  182.0700  181.6030  138.3180 C   0  0  0  0  0  1  0  0  0  0  0  0
  180.7720  179.8480  136.9180 C   0  0  0  0  0  0  0  0  0  0  0  0
  180.2610  180.7220  136.0520 C   0  0  0  0  0  2  0  0  0  0  0  0
  180.3180  177.7710  135.8740 O   0  0  0  0  0  1  0  0  0  0  0  0
  181.3410  178.5830  136.3540 C   0  0  0  0  0  2  0  0  0  0  0  0
  180.2080  181.1320  140.4410 O   0  0  0  0  0  0  0  0  0  0  0  0
  179.2790  180.7060  141.4010 C   0  0  0  0  0  2  0  0  0  0  0  0
  179.8140  180.8850  142.6750 O   0  0  0  0  0  1  0  0  0  0  0  0
  2 12  1  0  0  0  0
  3 10  1  0  0  0  0
  4  2  1  0  0  0  0
  5  8  1  0  0  0  0
  6  1  1  0  0  0  0
  6 10  1  0  0  0  0
  7 20  1  6  0  0  0
  7  4  1  0  0  0  0
  7  9  1  0  0  0  0
  8  3  2  0  0  0  0
  9  5  1  1  0  0  0
 11  8  1  0  0  0  0
 11  6  2  0  0  0  0
 12 16  1  0  0  0  0
 13  2  2  0  0  0  0
 14 21  1  1  0  0  0
 14 11  1  0  0  0  0
 16 15  1  6  0  0  0
 16  9  1  0  0  0  0
 16 14  1  0  0  0  0
 17 20  1  0  0  0  0
 18 20  1  0  0  0  0
 19 20  1  0  0  0  0
 21 23  1  6  0  0  0
 22 23  2  0  0  0  0
 24 21  1  0  0  0  0
 24 25  1  1  0  0  0
 26 24  1  6  0  0  0
 26 28  1  0  0  0  0
 27 30  1  1  0  0  0
 27 26  1  0  0  0  0
 27 28  1  0  0  0  0
 28 29  1  6  0  0  0
 28 35  1  0  0  0  0
 31 27  1  0  0  0  0
 32 31  2  0  0  0  0
 33 34  1  0  0  0  0
 34 31  1  0  0  0  0
 35 36  1  0  0  0  0
 36 37  1  0  0  0  0
M  END
>  <MODEL>
9

>  <REMARK>
 VINA RESULT:      -3.6      1.675      3.024
  Name = 
  9 active torsions:
  status: ('A' for Active; 'I' for Inactive)
    1  A    between atoms: C_1  and  C_10
    2  A    between atoms: C_1  and  C_26
    3  A    between atoms: C_4  and  C_9
    4  A    between atoms: C_9  and  C_19
    5  A    between atoms: C_12  and  O_28
    6  A    between atoms: C_17  and  O_28
    7  A    between atoms: C_18  and  C_23
    8  A    between atoms: C_19  and  C_24
    9  A    between atoms: C_19  and  C_34
                            x       y       z     vdW  Elec       q    Type
                         _______ _______ _______ _____ _____    ______ ____

>  <TORSDO>
F 9

$$$$
