=
 OpenBabel11062413263D

 30 31  0  0  1  0  0  0  0  0999 V2000
  188.6040  177.8790  139.6840 C   0  0  0  0  0  0  0  0  0  0  0  0
  185.9260  177.4060  138.1900 C   0  0  0  0  0  2  0  0  0  0  0  0
  189.7120  177.1110  140.1100 C   0  0  0  0  0  0  0  0  0  0  0  0
  184.7650  179.8940  139.7200 O   0  0  0  0  0  0  0  0  0  0  0  0
  184.3650  178.7460  139.5890 C   0  0  0  0  0  0  0  0  0  0  0  0
  183.8730  178.9670  145.7650 O   0  0  0  0  0  0  0  0  0  0  0  0
  188.2660  177.9650  138.3260 O   0  0  0  0  0  0  0  0  0  0  0  0
  187.8190  178.5380  140.6380 C   0  0  0  0  0  3  0  0  0  0  0  0
  185.0020  179.8850  143.8710 C   0  0  0  0  0  2  0  0  0  0  0  0
  183.6410  178.0550  140.7150 C   0  0  1  0  0  3  0  0  0  0  0  0
  185.1280  177.3600  142.4410 O   0  0  0  0  0  0  0  0  0  0  0  0
  184.3240  178.2420  142.0400 C   0  0  0  0  0  0  0  0  0  0  0  0
  184.5460  178.0420  138.2810 C   0  0  0  0  0  2  0  0  0  0  0  0
  189.1200  177.5730  142.4420 C   0  0  0  0  0  0  0  0  0  0  0  0
  188.0760  178.3890  141.9950 C   0  0  0  0  0  3  0  0  0  0  0  0
  190.4240  176.8350  144.2780 O   0  0  0  0  0  0  0  0  0  0  0  0
  189.3230  177.3100  143.8910 C   0  0  0  0  0  0  0  0  0  0  0  0
  188.2840  177.5080  144.8630 N   0  0  0  0  0  0  0  0  0  0  0  0
  189.9460  176.9590  141.4900 C   0  0  0  0  0  3  0  0  0  0  0  0
  186.9970  178.4440  137.8850 C   0  0  0  0  0  2  0  0  0  0  0  0
  186.1490  177.6690  146.6140 O   0  0  0  0  0  0  0  0  0  0  0  0
  184.1150  179.4360  142.8050 N   0  0  0  0  0  2  0  0  0  0  0  0
  187.1810  178.0600  144.5560 N   0  0  0  0  0  0  0  0  0  0  0  0
  184.9280  179.0010  145.0770 C   0  0  0  0  0  0  0  0  0  0  0  0
  186.1040  178.2150  145.4780 C   0  0  0  0  0  0  0  0  0  0  0  0
  190.6120  176.4250  139.1570 C   0  0  0  0  0  0  0  0  0  0  0  0
  191.8000  176.8190  139.0120 O   0  0  0  0  0  1  0  0  0  0  0  0
  190.1690  175.3460  138.4010 O   0  0  0  0  0  0  0  0  0  0  0  0
  181.2540  177.5980  140.1690 C   0  0  0  0  0  2  0  0  0  0  0  0
  182.1710  178.3760  140.7460 C   0  0  0  0  0  3  0  0  0  0  0  0
  1  3  2  0  0  0  0
  1  8  1  0  0  0  0
  2 13  1  0  0  0  0
  3 19  1  0  0  0  0
  5  4  2  0  0  0  0
  5 10  1  0  0  0  0
  7  1  1  0  0  0  0
  8 15  2  0  0  0  0
  9 24  1  0  0  0  0
 10 30  1  1  0  0  0
 10 12  1  0  0  0  0
 12 11  2  0  0  0  0
 12 22  1  0  0  0  0
 13  5  1  0  0  0  0
 14 17  1  0  0  0  0
 15 14  1  0  0  0  0
 17 16  2  0  0  0  0
 17 18  1  0  0  0  0
 19 14  2  0  0  0  0
 20  2  1  0  0  0  0
 20  7  1  0  0  0  0
 22  9  1  0  0  0  0
 23 18  2  0  0  0  0
 23 25  1  0  0  0  0
 24 25  1  0  0  0  0
 24  6  2  0  0  0  0
 25 21  2  0  0  0  0
 26  3  1  0  0  0  0
 27 26  1  0  0  0  0
 28 26  2  0  0  0  0
 29 30  2  0  0  0  0
M  END
>  <MODEL>
1

>  <REMARK>
 VINA RESULT:      -8.9      0.000      0.000
  Name = 
  2 active torsions:
  status: ('A' for Active; 'I' for Inactive)
    1  A    between atoms: C_3  and  C_19
    2  A    between atoms: C_8  and  C_12
                            x       y       z     vdW  Elec       q    Type
                         _______ _______ _______ _____ _____    ______ ____

>  <TORSDO>
F 2

$$$$
=
 OpenBabel11062413263D

 30 31  0  0  1  0  0  0  0  0999 V2000
  186.6630  178.4710  139.8620 C   0  0  0  0  0  0  0  0  0  0  0  0
  184.3060  178.0800  141.8420 C   0  0  0  0  0  2  0  0  0  0  0  0
  187.2040  177.8060  138.7370 C   0  0  0  0  0  0  0  0  0  0  0  0
  185.9840  179.6640  143.9750 O   0  0  0  0  0  0  0  0  0  0  0  0
  185.4240  178.5780  144.0080 C   0  0  0  0  0  0  0  0  0  0  0  0
  190.9130  176.6050  146.1070 O   0  0  0  0  0  0  0  0  0  0  0  0
  185.3460  178.9530  139.8510 O   0  0  0  0  0  0  0  0  0  0  0  0
  187.4480  178.6230  141.0120 C   0  0  0  0  0  3  0  0  0  0  0  0
  189.8170  178.2900  144.8180 C   0  0  0  0  0  2  0  0  0  0  0  0
  186.0190  177.4330  144.7850 C   0  0  1  0  0  3  0  0  0  0  0  0
  187.8800  176.4600  143.6610 O   0  0  0  0  0  0  0  0  0  0  0  0
  187.4930  177.2740  144.5400 C   0  0  0  0  0  0  0  0  0  0  0  0
  184.1090  178.4000  143.3160 C   0  0  0  0  0  2  0  0  0  0  0  0
  189.2450  177.3420  140.0090 C   0  0  0  0  0  0  0  0  0  0  0  0
  188.7200  178.0690  141.0810 C   0  0  0  0  0  3  0  0  0  0  0  0
  191.1350  176.2610  139.0720 O   0  0  0  0  0  0  0  0  0  0  0  0
  190.5530  176.6430  140.1210 C   0  0  0  0  0  0  0  0  0  0  0  0
  191.1460  176.3170  141.3890 N   0  0  0  0  0  0  0  0  0  0  0  0
  188.4880  177.2380  138.8340 C   0  0  0  0  0  3  0  0  0  0  0  0
  184.6610  179.3270  141.0440 C   0  0  0  0  0  2  0  0  0  0  0  0
  192.0760  175.5070  143.8650 O   0  0  0  0  0  0  0  0  0  0  0  0
  188.4400  178.0830  145.2480 N   0  0  0  0  0  2  0  0  0  0  0  0
  190.6560  176.7430  142.4820 N   0  0  0  0  0  0  0  0  0  0  0  0
  190.6450  177.0500  144.9600 C   0  0  0  0  0  0  0  0  0  0  0  0
  191.1800  176.3890  143.7610 C   0  0  0  0  0  0  0  0  0  0  0  0
  186.4500  177.6490  137.4740 C   0  0  0  0  0  0  0  0  0  0  0  0
  186.7700  178.3220  136.4580 O   0  0  0  0  0  0  0  0  0  0  0  0
  185.3770  176.7700  137.3830 O   0  0  0  0  0  1  0  0  0  0  0  0
  185.3500  178.5990  146.8820 C   0  0  0  0  0  2  0  0  0  0  0  0
  185.6530  177.4670  146.2440 C   0  0  0  0  0  3  0  0  0  0  0  0
  1  8  1  0  0  0  0
  2 13  1  0  0  0  0
  3 19  1  0  0  0  0
  3  1  2  0  0  0  0
  4  5  2  0  0  0  0
  5 10  1  0  0  0  0
  7  1  1  0  0  0  0
  7 20  1  0  0  0  0
  8 15  2  0  0  0  0
  9 24  1  0  0  0  0
  9 22  1  0  0  0  0
 10 30  1  1  0  0  0
 11 12  2  0  0  0  0
 12 10  1  0  0  0  0
 12 22  1  0  0  0  0
 13  5  1  0  0  0  0
 14 17  1  0  0  0  0
 14 15  1  0  0  0  0
 16 17  2  0  0  0  0
 17 18  1  0  0  0  0
 18 23  2  0  0  0  0
 19 14  2  0  0  0  0
 20  2  1  0  0  0  0
 23 25  1  0  0  0  0
 24  6  2  0  0  0  0
 25 21  2  0  0  0  0
 25 24  1  0  0  0  0
 26  3  1  0  0  0  0
 27 26  2  0  0  0  0
 28 26  1  0  0  0  0
 30 29  2  0  0  0  0
M  END
>  <MODEL>
2

>  <REMARK>
 VINA RESULT:      -8.6      1.950      4.781
  Name = 
  2 active torsions:
  status: ('A' for Active; 'I' for Inactive)
    1  A    between atoms: C_3  and  C_19
    2  A    between atoms: C_8  and  C_12
                            x       y       z     vdW  Elec       q    Type
                         _______ _______ _______ _____ _____    ______ ____

>  <TORSDO>
F 2

$$$$
=
 OpenBabel11062413263D

 30 31  0  0  1  0  0  0  0  0999 V2000
  184.3030  179.1790  142.3520 C   0  0  0  0  0  0  0  0  0  0  0  0
  183.9320  177.9870  145.1930 C   0  0  0  0  0  2  0  0  0  0  0  0
  183.9600  178.8390  141.0230 C   0  0  0  0  0  0  0  0  0  0  0  0
  186.5560  179.4940  146.0440 O   0  0  0  0  0  0  0  0  0  0  0  0
  186.2060  178.3270  146.1460 C   0  0  0  0  0  0  0  0  0  0  0  0
  191.7260  177.1850  143.5670 O   0  0  0  0  0  0  0  0  0  0  0  0
  183.3130  179.3780  143.3250 O   0  0  0  0  0  0  0  0  0  0  0  0
  185.6550  179.2900  142.7050 C   0  0  0  0  0  3  0  0  0  0  0  0
  189.9880  178.8050  143.7990 C   0  0  0  0  0  2  0  0  0  0  0  0
  187.2100  177.2120  146.0140 C   0  0  1  0  0  3  0  0  0  0  0  0
  187.8460  176.8430  143.7500 O   0  0  0  0  0  0  0  0  0  0  0  0
  188.1300  177.4000  144.8420 C   0  0  0  0  0  0  0  0  0  0  0  0
  184.7770  178.0060  146.4580 C   0  0  0  0  0  2  0  0  0  0  0  0
  186.3370  178.5910  140.4860 C   0  0  0  0  0  0  0  0  0  0  0  0
  186.6540  179.0030  141.7830 C   0  0  0  0  0  3  0  0  0  0  0  0
  187.1250  178.0910  138.3070 O   0  0  0  0  0  0  0  0  0  0  0  0
  187.3970  178.1630  139.5350 C   0  0  0  0  0  0  0  0  0  0  0  0
  188.7040  177.7550  139.9700 N   0  0  0  0  0  0  0  0  0  0  0  0
  184.9880  178.5360  140.1100 C   0  0  0  0  0  3  0  0  0  0  0  0
  183.6080  179.3980  144.7200 C   0  0  0  0  0  2  0  0  0  0  0  0
  191.0950  176.7420  140.9230 O   0  0  0  0  0  0  0  0  0  0  0  0
  189.2770  178.2530  144.9460 N   0  0  0  0  0  2  0  0  0  0  0  0
  189.0720  177.8800  141.1810 N   0  0  0  0  0  0  0  0  0  0  0  0
  190.7350  177.7540  143.0390 C   0  0  0  0  0  0  0  0  0  0  0  0
  190.3370  177.4290  141.6620 C   0  0  0  0  0  0  0  0  0  0  0  0
  182.5550  178.7480  140.5690 C   0  0  0  0  0  0  0  0  0  0  0  0
  181.8560  177.7450  140.8730 O   0  0  0  0  0  1  0  0  0  0  0  0
  181.9840  179.7530  139.7970 O   0  0  0  0  0  0  0  0  0  0  0  0
  188.0110  177.8120  148.2960 C   0  0  0  0  0  2  0  0  0  0  0  0
  187.9300  176.9230  147.3040 C   0  0  0  0  0  3  0  0  0  0  0  0
  1  8  1  0  0  0  0
  1  7  1  0  0  0  0
  2 13  1  0  0  0  0
  3  1  2  0  0  0  0
  4  5  2  0  0  0  0
  5 13  1  0  0  0  0
  7 20  1  0  0  0  0
  9 22  1  0  0  0  0
 10  5  1  0  0  0  0
 10 30  1  1  0  0  0
 11 12  2  0  0  0  0
 12 22  1  0  0  0  0
 12 10  1  0  0  0  0
 14 15  1  0  0  0  0
 15  8  2  0  0  0  0
 16 17  2  0  0  0  0
 17 18  1  0  0  0  0
 17 14  1  0  0  0  0
 18 23  2  0  0  0  0
 19 14  2  0  0  0  0
 19  3  1  0  0  0  0
 20  2  1  0  0  0  0
 21 25  2  0  0  0  0
 23 25  1  0  0  0  0
 24  6  2  0  0  0  0
 24  9  1  0  0  0  0
 25 24  1  0  0  0  0
 26 27  1  0  0  0  0
 26  3  1  0  0  0  0
 28 26  2  0  0  0  0
 30 29  2  0  0  0  0
M  END
>  <MODEL>
3

>  <REMARK>
 VINA RESULT:      -7.7      2.119      6.673
  Name = 
  2 active torsions:
  status: ('A' for Active; 'I' for Inactive)
    1  A    between atoms: C_3  and  C_19
    2  A    between atoms: C_8  and  C_12
                            x       y       z     vdW  Elec       q    Type
                         _______ _______ _______ _____ _____    ______ ____

>  <TORSDO>
F 2

$$$$
=
 OpenBabel11062413263D

 30 31  0  0  1  0  0  0  0  0999 V2000
  188.2780  177.9810  141.1910 C   0  0  0  0  0  0  0  0  0  0  0  0
  188.3840  176.6280  138.4010 C   0  0  0  0  0  2  0  0  0  0  0  0
  188.3460  177.5860  142.5470 C   0  0  0  0  0  0  0  0  0  0  0  0
  186.6510  179.0090  137.3060 O   0  0  0  0  0  0  0  0  0  0  0  0
  186.5190  177.7960  137.2400 C   0  0  0  0  0  0  0  0  0  0  0  0
  180.8010  179.0190  139.3010 O   0  0  0  0  0  0  0  0  0  0  0  0
  189.3440  177.7360  140.3130 O   0  0  0  0  0  0  0  0  0  0  0  0
  187.1150  178.6000  140.7150 C   0  0  0  0  0  3  0  0  0  0  0  0
  183.0510  179.8150  139.2250 C   0  0  0  0  0  2  0  0  0  0  0  0
  185.1490  177.1710  137.2820 C   0  0  1  0  0  3  0  0  0  0  0  0
  184.2310  177.1720  139.4800 O   0  0  0  0  0  0  0  0  0  0  0  0
  184.2830  177.7520  138.3640 C   0  0  0  0  0  0  0  0  0  0  0  0
  187.7250  176.9270  137.0630 C   0  0  0  0  0  2  0  0  0  0  0  0
  186.0290  178.3140  142.8630 C   0  0  0  0  0  0  0  0  0  0  0  0
  186.0110  178.7660  141.5410 C   0  0  0  0  0  3  0  0  0  0  0  0
  184.9280  178.2520  144.9620 O   0  0  0  0  0  0  0  0  0  0  0  0
  184.8110  178.3750  143.7130 C   0  0  0  0  0  0  0  0  0  0  0  0
  183.4900  178.4970  143.1600 N   0  0  0  0  0  0  0  0  0  0  0  0
  187.2100  177.7480  143.3620 C   0  0  0  0  0  3  0  0  0  0  0  0
  189.1990  177.8150  138.8970 C   0  0  0  0  0  2  0  0  0  0  0  0
  180.9830  178.4690  141.9930 O   0  0  0  0  0  0  0  0  0  0  0  0
  183.5800  178.9820  138.1510 N   0  0  0  0  0  2  0  0  0  0  0  0
  183.3050  178.7090  141.9200 N   0  0  0  0  0  0  0  0  0  0  0  0
  181.8890  179.1730  139.9170 C   0  0  0  0  0  0  0  0  0  0  0  0
  182.0090  178.7730  141.3260 C   0  0  0  0  0  0  0  0  0  0  0  0
  189.5580  176.9690  143.1300 C   0  0  0  0  0  0  0  0  0  0  0  0
  190.3250  177.6490  143.8610 O   0  0  0  0  0  1  0  0  0  0  0  0
  189.8770  175.6390  142.8800 O   0  0  0  0  0  0  0  0  0  0  0  0
  183.5050  176.2810  135.6360 C   0  0  0  0  0  2  0  0  0  0  0  0
  184.4830  177.1380  135.9330 C   0  0  0  0  0  3  0  0  0  0  0  0
  1  3  1  0  0  0  0
  2 20  1  0  0  0  0
  3 26  1  0  0  0  0
  3 19  2  0  0  0  0
  5 10  1  0  0  0  0
  5  4  2  0  0  0  0
  6 24  2  0  0  0  0
  7  1  1  0  0  0  0
  8  1  2  0  0  0  0
  8 15  1  0  0  0  0
  9 24  1  0  0  0  0
 10 30  1  6  0  0  0
 10 12  1  0  0  0  0
 12 11  2  0  0  0  0
 13  5  1  0  0  0  0
 13  2  1  0  0  0  0
 14 19  1  0  0  0  0
 14 17  1  0  0  0  0
 15 14  2  0  0  0  0
 17 16  2  0  0  0  0
 18 17  1  0  0  0  0
 20  7  1  0  0  0  0
 22 12  1  0  0  0  0
 22  9  1  0  0  0  0
 23 18  2  0  0  0  0
 24 25  1  0  0  0  0
 25 23  1  0  0  0  0
 25 21  2  0  0  0  0
 26 27  1  0  0  0  0
 28 26  2  0  0  0  0
 29 30  2  0  0  0  0
M  END
>  <MODEL>
4

>  <REMARK>
 VINA RESULT:      -7.7      2.106      4.359
  Name = 
  2 active torsions:
  status: ('A' for Active; 'I' for Inactive)
    1  A    between atoms: C_3  and  C_19
    2  A    between atoms: C_8  and  C_12
                            x       y       z     vdW  Elec       q    Type
                         _______ _______ _______ _____ _____    ______ ____

>  <TORSDO>
F 2

$$$$
=
 OpenBabel11062413263D

 30 31  0  0  1  0  0  0  0  0999 V2000
  190.7670  177.4290  144.8610 C   0  0  0  0  0  0  0  0  0  0  0  0
  190.5670  176.5320  141.8970 C   0  0  0  0  0  2  0  0  0  0  0  0
  190.8510  176.8180  146.1340 C   0  0  0  0  0  0  0  0  0  0  0  0
  189.0950  179.2420  141.2960 O   0  0  0  0  0  0  0  0  0  0  0  0
  188.8090  178.0780  141.0560 C   0  0  0  0  0  0  0  0  0  0  0  0
  183.3960  179.6150  143.6590 O   0  0  0  0  0  0  0  0  0  0  0  0
  191.7490  177.2030  143.8870 O   0  0  0  0  0  0  0  0  0  0  0  0
  189.6690  178.2460  144.5640 C   0  0  0  0  0  3  0  0  0  0  0  0
  185.7220  180.1460  143.5540 C   0  0  0  0  0  2  0  0  0  0  0  0
  187.3750  177.6190  141.0950 C   0  0  1  0  0  3  0  0  0  0  0  0
  186.5720  177.3770  143.3240 O   0  0  0  0  0  0  0  0  0  0  0  0
  186.6420  178.1170  142.3080 C   0  0  0  0  0  0  0  0  0  0  0  0
  189.8860  177.1140  140.6680 C   0  0  0  0  0  2  0  0  0  0  0  0
  188.6610  177.7510  146.7120 C   0  0  0  0  0  0  0  0  0  0  0  0
  188.6350  178.4060  145.4780 C   0  0  0  0  0  3  0  0  0  0  0  0
  187.6640  177.4850  148.8470 O   0  0  0  0  0  0  0  0  0  0  0  0
  187.5030  177.8180  147.6430 C   0  0  0  0  0  0  0  0  0  0  0  0
  186.1820  178.1790  147.2040 N   0  0  0  0  0  0  0  0  0  0  0  0
  189.7850  176.9800  147.0390 C   0  0  0  0  0  3  0  0  0  0  0  0
  191.5470  177.5220  142.5120 C   0  0  0  0  0  2  0  0  0  0  0  0
  183.6380  178.6280  146.2190 O   0  0  0  0  0  0  0  0  0  0  0  0
  186.0890  179.4390  142.3320 N   0  0  0  0  0  2  0  0  0  0  0  0
  185.9650  178.6050  146.0260 N   0  0  0  0  0  0  0  0  0  0  0  0
  184.5230  179.5420  144.2170 C   0  0  0  0  0  0  0  0  0  0  0  0
  184.6600  178.9120  145.5380 C   0  0  0  0  0  0  0  0  0  0  0  0
  192.0020  175.9790  146.5340 C   0  0  0  0  0  0  0  0  0  0  0  0
  192.6210  176.2230  147.6040 O   0  0  0  0  0  1  0  0  0  0  0  0
  192.4280  174.9200  145.7410 O   0  0  0  0  0  0  0  0  0  0  0  0
  187.2610  177.8800  138.6200 C   0  0  0  0  0  2  0  0  0  0  0  0
  186.6460  177.8780  139.8040 C   0  0  0  0  0  3  0  0  0  0  0  0
  1  3  1  0  0  0  0
  2 20  1  0  0  0  0
  3 26  1  0  0  0  0
  3 19  2  0  0  0  0
  5 10  1  0  0  0  0
  5  4  2  0  0  0  0
  6 24  2  0  0  0  0
  7  1  1  0  0  0  0
  8  1  2  0  0  0  0
  8 15  1  0  0  0  0
  9 24  1  0  0  0  0
 10 30  1  6  0  0  0
 10 12  1  0  0  0  0
 12 22  1  0  0  0  0
 12 11  2  0  0  0  0
 13  5  1  0  0  0  0
 13  2  1  0  0  0  0
 14 19  1  0  0  0  0
 14 17  1  0  0  0  0
 15 14  2  0  0  0  0
 17 16  2  0  0  0  0
 18 17  1  0  0  0  0
 20  7  1  0  0  0  0
 22  9  1  0  0  0  0
 23 18  2  0  0  0  0
 24 25  1  0  0  0  0
 25 23  1  0  0  0  0
 25 21  2  0  0  0  0
 26 27  1  0  0  0  0
 28 26  2  0  0  0  0
 29 30  2  0  0  0  0
M  END
>  <MODEL>
5

>  <REMARK>
 VINA RESULT:      -7.5      2.555      4.853
  Name = 
  2 active torsions:
  status: ('A' for Active; 'I' for Inactive)
    1  A    between atoms: C_3  and  C_19
    2  A    between atoms: C_8  and  C_12
                            x       y       z     vdW  Elec       q    Type
                         _______ _______ _______ _____ _____    ______ ____

>  <TORSDO>
F 2

$$$$
=
 OpenBabel11062413263D

 30 31  0  0  1  0  0  0  0  0999 V2000
  189.0140  177.6820  141.2460 C   0  0  0  0  0  0  0  0  0  0  0  0
  189.2330  176.5390  138.3690 C   0  0  0  0  0  2  0  0  0  0  0  0
  188.9650  177.1820  142.5680 C   0  0  0  0  0  0  0  0  0  0  0  0
  187.7240  179.1040  137.3580 O   0  0  0  0  0  0  0  0  0  0  0  0
  187.5250  177.9100  137.1880 C   0  0  0  0  0  0  0  0  0  0  0  0
  181.7620  179.3420  138.9670 O   0  0  0  0  0  0  0  0  0  0  0  0
  190.1220  177.4350  140.4220 O   0  0  0  0  0  0  0  0  0  0  0  0
  187.9260  178.4090  140.7460 C   0  0  0  0  0  3  0  0  0  0  0  0
  184.0550  179.9940  139.1010 C   0  0  0  0  0  2  0  0  0  0  0  0
  186.1200  177.3750  137.0920 C   0  0  1  0  0  3  0  0  0  0  0  0
  185.0550  177.2690  139.2180 O   0  0  0  0  0  0  0  0  0  0  0  0
  185.2180  177.9270  138.1580 C   0  0  0  0  0  0  0  0  0  0  0  0
  188.6860  176.9810  137.0190 C   0  0  0  0  0  2  0  0  0  0  0  0
  186.6790  178.0320  142.7910 C   0  0  0  0  0  0  0  0  0  0  0  0
  186.7790  178.5830  141.5100 C   0  0  0  0  0  3  0  0  0  0  0  0
  185.4330  177.8820  144.8020 O   0  0  0  0  0  0  0  0  0  0  0  0
  185.4100  178.1080  143.5630 C   0  0  0  0  0  0  0  0  0  0  0  0
  184.1410  178.3570  142.9370 N   0  0  0  0  0  0  0  0  0  0  0  0
  187.7870  177.3550  143.3180 C   0  0  0  0  0  3  0  0  0  0  0  0
  190.0800  177.6300  139.0100 C   0  0  0  0  0  2  0  0  0  0  0  0
  181.7230  178.5800  141.6130 O   0  0  0  0  0  0  0  0  0  0  0  0
  184.6060  179.2130  137.9990 N   0  0  0  0  0  2  0  0  0  0  0  0
  184.0550  178.6730  141.7090 N   0  0  0  0  0  0  0  0  0  0  0  0
  182.8110  179.3780  139.6620 C   0  0  0  0  0  0  0  0  0  0  0  0
  182.8090  178.8660  141.0400 C   0  0  0  0  0  0  0  0  0  0  0  0
  190.0940  176.4440  143.1760 C   0  0  0  0  0  0  0  0  0  0  0  0
  190.3220  175.2510  142.8440 O   0  0  0  0  0  0  0  0  0  0  0  0
  190.9150  177.0440  144.1240 O   0  0  0  0  0  1  0  0  0  0  0  0
  186.3140  177.4920  134.6100 C   0  0  0  0  0  2  0  0  0  0  0  0
  185.5490  177.4870  135.7040 C   0  0  0  0  0  3  0  0  0  0  0  0
  1  3  1  0  0  0  0
  2 20  1  0  0  0  0
  3 26  1  0  0  0  0
  3 19  2  0  0  0  0
  5  4  2  0  0  0  0
  6 24  2  0  0  0  0
  7  1  1  0  0  0  0
  8  1  2  0  0  0  0
  8 15  1  0  0  0  0
  9 24  1  0  0  0  0
 10 30  1  6  0  0  0
 10  5  1  0  0  0  0
 10 12  1  0  0  0  0
 12 11  2  0  0  0  0
 13  5  1  0  0  0  0
 13  2  1  0  0  0  0
 14 19  1  0  0  0  0
 14 17  1  0  0  0  0
 15 14  2  0  0  0  0
 17 16  2  0  0  0  0
 18 17  1  0  0  0  0
 20  7  1  0  0  0  0
 22 12  1  0  0  0  0
 22  9  1  0  0  0  0
 23 18  2  0  0  0  0
 24 25  1  0  0  0  0
 25 21  2  0  0  0  0
 25 23  1  0  0  0  0
 26 28  1  0  0  0  0
 27 26  2  0  0  0  0
 29 30  2  0  0  0  0
M  END
>  <MODEL>
6

>  <REMARK>
 VINA RESULT:      -7.3      2.033      4.512
  Name = 
  2 active torsions:
  status: ('A' for Active; 'I' for Inactive)
    1  A    between atoms: C_3  and  C_19
    2  A    between atoms: C_8  and  C_12
                            x       y       z     vdW  Elec       q    Type
                         _______ _______ _______ _____ _____    ______ ____

>  <TORSDO>
F 2

$$$$
=
 OpenBabel11062413263D

 30 31  0  0  1  0  0  0  0  0999 V2000
  186.5610  178.6310  140.9030 C   0  0  0  0  0  0  0  0  0  0  0  0
  187.1050  177.1320  143.5660 C   0  0  0  0  0  2  0  0  0  0  0  0
  185.7550  178.4600  139.7540 C   0  0  0  0  0  0  0  0  0  0  0  0
  189.9670  178.4290  143.5790 O   0  0  0  0  0  0  0  0  0  0  0  0
  189.5860  177.2730  143.6860 C   0  0  0  0  0  0  0  0  0  0  0  0
  193.7720  176.2270  139.2350 O   0  0  0  0  0  0  0  0  0  0  0  0
  185.9870  178.7530  142.1760 O   0  0  0  0  0  0  0  0  0  0  0  0
  187.9550  178.6480  140.7670 C   0  0  0  0  0  3  0  0  0  0  0  0
  192.3490  177.8750  140.2160 C   0  0  0  0  0  2  0  0  0  0  0  0
  190.3950  176.1430  143.1040 C   0  0  1  0  0  3  0  0  0  0  0  0
  190.1790  176.0150  140.7360 O   0  0  0  0  0  0  0  0  0  0  0  0
  190.8650  176.4310  141.7070 C   0  0  0  0  0  0  0  0  0  0  0  0
  188.3340  176.9730  144.4490 C   0  0  0  0  0  2  0  0  0  0  0  0
  187.7740  178.1860  138.3940 C   0  0  0  0  0  0  0  0  0  0  0  0
  188.5500  178.4320  139.5300 C   0  0  0  0  0  3  0  0  0  0  0  0
  187.7210  177.9120  136.0400 O   0  0  0  0  0  0  0  0  0  0  0  0
  188.4040  177.8310  137.0950 C   0  0  0  0  0  0  0  0  0  0  0  0
  189.7470  177.3250  137.0020 N   0  0  0  0  0  0  0  0  0  0  0  0
  186.3780  178.2260  138.5140 C   0  0  0  0  0  3  0  0  0  0  0  0
  186.7450  178.6000  143.3740 C   0  0  0  0  0  2  0  0  0  0  0  0
  192.2350  176.1190  136.9520 O   0  0  0  0  0  0  0  0  0  0  0  0
  192.0390  177.2210  141.4820 N   0  0  0  0  0  2  0  0  0  0  0  0
  190.5180  177.2960  138.0120 N   0  0  0  0  0  0  0  0  0  0  0  0
  192.7050  176.8910  139.1450 C   0  0  0  0  0  0  0  0  0  0  0  0
  191.8330  176.7440  137.9720 C   0  0  0  0  0  0  0  0  0  0  0  0
  184.2770  178.4760  139.8160 C   0  0  0  0  0  0  0  0  0  0  0  0
  183.6540  177.4960  140.3040 O   0  0  0  0  0  1  0  0  0  0  0  0
  183.5500  179.5590  139.3360 O   0  0  0  0  0  0  0  0  0  0  0  0
  191.6810  176.2020  145.2380 C   0  0  0  0  0  2  0  0  0  0  0  0
  191.4920  175.6800  144.0240 C   0  0  0  0  0  3  0  0  0  0  0  0
  1  7  1  0  0  0  0
  2 13  1  0  0  0  0
  3 26  1  0  0  0  0
  3  1  2  0  0  0  0
  4  5  2  0  0  0  0
  5 13  1  0  0  0  0
  7 20  1  0  0  0  0
  8  1  1  0  0  0  0
  9 22  1  0  0  0  0
 10  5  1  0  0  0  0
 10 30  1  1  0  0  0
 11 12  2  0  0  0  0
 12 10  1  0  0  0  0
 14 19  2  0  0  0  0
 14 15  1  0  0  0  0
 15  8  2  0  0  0  0
 16 17  2  0  0  0  0
 17 14  1  0  0  0  0
 18 17  1  0  0  0  0
 18 23  2  0  0  0  0
 19  3  1  0  0  0  0
 20  2  1  0  0  0  0
 21 25  2  0  0  0  0
 22 12  1  0  0  0  0
 24  6  2  0  0  0  0
 24  9  1  0  0  0  0
 25 23  1  0  0  0  0
 25 24  1  0  0  0  0
 26 27  1  0  0  0  0
 28 26  2  0  0  0  0
 30 29  2  0  0  0  0
M  END
>  <MODEL>
7

>  <REMARK>
 VINA RESULT:      -7.3      2.851      7.529
  Name = 
  2 active torsions:
  status: ('A' for Active; 'I' for Inactive)
    1  A    between atoms: C_3  and  C_19
    2  A    between atoms: C_8  and  C_12
                            x       y       z     vdW  Elec       q    Type
                         _______ _______ _______ _____ _____    ______ ____

>  <TORSDO>
F 2

$$$$
=
 OpenBabel11062413263D

 30 31  0  0  1  0  0  0  0  0999 V2000
  184.9870  179.1050  143.4690 C   0  0  0  0  0  0  0  0  0  0  0  0
  186.6330  177.3400  145.4190 C   0  0  0  0  0  2  0  0  0  0  0  0
  183.7390  179.0460  142.8060 C   0  0  0  0  0  0  0  0  0  0  0  0
  189.2300  178.6680  144.2490 O   0  0  0  0  0  0  0  0  0  0  0  0
  188.8980  177.5010  144.4010 C   0  0  0  0  0  0  0  0  0  0  0  0
  190.5430  176.9950  138.4450 O   0  0  0  0  0  0  0  0  0  0  0  0
  185.0630  179.0830  144.8680 O   0  0  0  0  0  0  0  0  0  0  0  0
  186.1640  179.1570  142.7110 C   0  0  0  0  0  3  0  0  0  0  0  0
  189.7880  178.5080  140.1310 C   0  0  0  0  0  2  0  0  0  0  0  0
  189.3090  176.4510  143.4020 C   0  0  1  0  0  3  0  0  0  0  0  0
  188.0300  176.5730  141.3970 O   0  0  0  0  0  0  0  0  0  0  0  0
  189.0980  176.8930  141.9820 C   0  0  0  0  0  0  0  0  0  0  0  0
  188.1230  177.1040  145.6180 C   0  0  0  0  0  2  0  0  0  0  0  0
  184.9010  178.9470  140.6520 C   0  0  0  0  0  0  0  0  0  0  0  0
  186.1190  179.0820  141.3240 C   0  0  0  0  0  3  0  0  0  0  0  0
  183.7660  178.9250  138.5710 O   0  0  0  0  0  0  0  0  0  0  0  0
  184.8530  178.7410  139.1800 C   0  0  0  0  0  0  0  0  0  0  0  0
  185.9850  178.2680  138.4310 N   0  0  0  0  0  0  0  0  0  0  0  0
  183.7160  178.9550  141.4020 C   0  0  0  0  0  3  0  0  0  0  0  0
  186.2790  178.8140  145.5620 C   0  0  0  0  0  2  0  0  0  0  0  0
  188.1290  177.1080  137.1250 O   0  0  0  0  0  0  0  0  0  0  0  0
  190.0670  177.7190  141.3250 N   0  0  0  0  0  2  0  0  0  0  0  0
  187.1320  178.1410  138.9660 N   0  0  0  0  0  0  0  0  0  0  0  0
  189.5790  177.6490  138.9230 C   0  0  0  0  0  0  0  0  0  0  0  0
  188.2610  177.6150  138.2720 C   0  0  0  0  0  0  0  0  0  0  0  0
  182.4550  179.0350  143.5410 C   0  0  0  0  0  0  0  0  0  0  0  0
  182.3430  178.3780  144.6100 O   0  0  0  0  0  1  0  0  0  0  0  0
  181.3510  179.7360  143.0680 O   0  0  0  0  0  0  0  0  0  0  0  0
  191.5120  176.4440  144.5670 C   0  0  0  0  0  2  0  0  0  0  0  0
  190.6880  175.9080  143.6640 C   0  0  0  0  0  3  0  0  0  0  0  0
  1  7  1  0  0  0  0
  2 20  1  0  0  0  0
  2 13  1  0  0  0  0
  3  1  1  0  0  0  0
  3 26  1  0  0  0  0
  4  5  2  0  0  0  0
  5 13  1  0  0  0  0
  6 24  2  0  0  0  0
  7 20  1  0  0  0  0
  8  1  2  0  0  0  0
  9 22  1  0  0  0  0
 10 30  1  6  0  0  0
 10  5  1  0  0  0  0
 11 12  2  0  0  0  0
 12 10  1  0  0  0  0
 14 15  2  0  0  0  0
 14 19  1  0  0  0  0
 15  8  1  0  0  0  0
 16 17  2  0  0  0  0
 17 14  1  0  0  0  0
 18 23  2  0  0  0  0
 18 17  1  0  0  0  0
 19  3  2  0  0  0  0
 21 25  2  0  0  0  0
 22 12  1  0  0  0  0
 24  9  1  0  0  0  0
 25 24  1  0  0  0  0
 25 23  1  0  0  0  0
 26 27  1  0  0  0  0
 28 26  2  0  0  0  0
 30 29  2  0  0  0  0
M  END
>  <MODEL>
8

>  <REMARK>
 VINA RESULT:      -7.2      2.239      7.521
  Name = 
  2 active torsions:
  status: ('A' for Active; 'I' for Inactive)
    1  A    between atoms: C_3  and  C_19
    2  A    between atoms: C_8  and  C_12
                            x       y       z     vdW  Elec       q    Type
                         _______ _______ _______ _____ _____    ______ ____

>  <TORSDO>
F 2

$$$$
=
 OpenBabel11062413263D

 30 31  0  0  1  0  0  0  0  0999 V2000
  189.9710  176.9260  141.3430 C   0  0  0  0  0  0  0  0  0  0  0  0
  189.7160  177.7480  144.3240 C   0  0  0  0  0  2  0  0  0  0  0  0
  190.6410  177.3860  140.1860 C   0  0  0  0  0  0  0  0  0  0  0  0
  186.8860  176.3830  144.3410 O   0  0  0  0  0  0  0  0  0  0  0  0
  187.2650  177.4960  144.6730 C   0  0  0  0  0  0  0  0  0  0  0  0
  182.5960  179.3910  141.0630 O   0  0  0  0  0  0  0  0  0  0  0  0
  190.6860  176.5340  142.4840 O   0  0  0  0  0  0  0  0  0  0  0  0
  188.5710  176.8910  141.3570 C   0  0  0  0  0  3  0  0  0  0  0  0
  184.1360  177.6130  141.4750 C   0  0  0  0  0  2  0  0  0  0  0  0
  186.3860  178.7000  144.4610 C   0  0  1  0  0  3  0  0  0  0  0  0
  186.3320  179.3790  142.1800 O   0  0  0  0  0  0  0  0  0  0  0  0
  185.7640  178.7260  143.0940 C   0  0  0  0  0  0  0  0  0  0  0  0
  188.5930  177.6560  145.3470 C   0  0  0  0  0  2  0  0  0  0  0  0
  188.4800  177.8950  139.1520 C   0  0  0  0  0  0  0  0  0  0  0  0
  187.8390  177.3650  140.2750 C   0  0  0  0  0  3  0  0  0  0  0  0
  188.2660  178.7060  136.9350 O   0  0  0  0  0  0  0  0  0  0  0  0
  187.7050  178.5180  138.0460 C   0  0  0  0  0  0  0  0  0  0  0  0
  186.3550  178.9830  138.2180 N   0  0  0  0  0  0  0  0  0  0  0  0
  189.8810  177.8780  139.1090 C   0  0  0  0  0  3  0  0  0  0  0  0
  190.0660  176.3790  143.7580 C   0  0  0  0  0  2  0  0  0  0  0  0
  183.8660  180.0790  138.7180 O   0  0  0  0  0  0  0  0  0  0  0  0
  184.5800  177.9680  142.8180 N   0  0  0  0  0  2  0  0  0  0  0  0
  185.7020  178.7510  139.2840 N   0  0  0  0  0  0  0  0  0  0  0  0
  183.6520  178.8040  140.7080 C   0  0  0  0  0  0  0  0  0  0  0  0
  184.3860  179.2500  139.5140 C   0  0  0  0  0  0  0  0  0  0  0  0
  192.1170  177.4080  140.0840 C   0  0  0  0  0  0  0  0  0  0  0  0
  192.8080  177.9000  141.0160 O   0  0  0  0  0  1  0  0  0  0  0  0
  192.7670  176.9000  138.9660 O   0  0  0  0  0  0  0  0  0  0  0  0
  185.6820  178.6280  146.8500 C   0  0  0  0  0  2  0  0  0  0  0  0
  185.3940  178.8990  145.5760 C   0  0  0  0  0  3  0  0  0  0  0  0
  1  8  1  0  0  0  0
  1  7  1  0  0  0  0
  2 13  1  0  0  0  0
  3  1  2  0  0  0  0
  4  5  2  0  0  0  0
  5 13  1  0  0  0  0
  7 20  1  0  0  0  0
  9 22  1  0  0  0  0
 10  5  1  0  0  0  0
 10 30  1  1  0  0  0
 11 12  2  0  0  0  0
 12 10  1  0  0  0  0
 14 15  1  0  0  0  0
 15  8  2  0  0  0  0
 16 17  2  0  0  0  0
 17 18  1  0  0  0  0
 17 14  1  0  0  0  0
 18 23  2  0  0  0  0
 19 14  2  0  0  0  0
 19  3  1  0  0  0  0
 20  2  1  0  0  0  0
 21 25  2  0  0  0  0
 22 12  1  0  0  0  0
 23 25  1  0  0  0  0
 24  6  2  0  0  0  0
 24  9  1  0  0  0  0
 25 24  1  0  0  0  0
 26  3  1  0  0  0  0
 26 27  1  0  0  0  0
 28 26  2  0  0  0  0
 30 29  2  0  0  0  0
M  END
>  <MODEL>
9

>  <REMARK>
 VINA RESULT:      -7.1      1.938      5.166
  Name = 
  2 active torsions:
  status: ('A' for Active; 'I' for Inactive)
    1  A    between atoms: C_3  and  C_19
    2  A    between atoms: C_8  and  C_12
                            x       y       z     vdW  Elec       q    Type
                         _______ _______ _______ _____ _____    ______ ____

>  <TORSDO>
F 2

$$$$
