=
 OpenBabel11062417043D

 47 51  0  0  1  0  0  0  0  0999 V2000
  189.7640  178.1970  145.0700 C   0  0  2  0  0  3  0  0  0  0  0  0
  188.9830  177.3510  145.8770 O   0  0  0  0  0  0  0  0  0  0  0  0
  184.0310  178.9010  142.8650 C   0  0  2  0  0  3  0  0  0  0  0  0
  187.0090  177.4910  144.5110 C   0  0  1  0  0  3  0  0  0  0  0  0
  189.3220  178.1450  143.5830 C   0  0  2  0  0  3  0  0  0  0  0  0
  185.2420  178.0000  142.9270 C   0  0  1  0  0  3  0  0  0  0  0  0
  183.6550  179.1520  144.2640 N   0  0  0  0  0  2  0  0  0  0  0  0
  187.4710  177.7010  141.9690 C   0  0  0  0  0  3  0  0  0  0  0  0
  188.0380  177.3070  143.3330 C   0  0  2  0  0  0  0  0  0  0  0  0
  188.3890  175.8270  143.2750 C   0  0  0  0  0  1  0  0  0  0  0  0
  184.7830  178.7020  145.0870 C   0  0  0  0  0  2  0  0  0  0  0  0
  186.1890  178.0550  141.7720 C   0  0  0  0  0  3  0  0  0  0  0  0
  187.6860  177.8780  145.8310 C   0  0  0  0  0  2  0  0  0  0  0  0
  185.9360  178.5060  144.1380 C   0  0  1  0  0  3  0  0  0  0  0  0
  181.3610  180.1480  141.9190 O   0  0  0  0  0  0  0  0  0  0  0  0
  180.0790  181.7590  137.2180 O   0  0  0  0  0  0  0  0  0  0  0  0
  181.6350  180.0320  138.9680 C   0  0  0  0  0  0  0  0  0  0  0  0
  182.3170  179.2490  139.9600 N   0  0  0  0  0  0  0  0  0  0  0  0
  182.8640  178.2630  142.1030 C   0  0  2  0  0  3  0  0  0  0  0  0
  183.3830  177.3720  140.9650 C   0  0  0  0  0  2  0  0  0  0  0  0
  179.9140  181.8350  138.4640 C   0  0  0  0  0  0  0  0  0  0  0  0
  178.9310  182.8030  139.0160 C   0  0  0  0  0  1  0  0  0  0  0  0
  180.6490  180.9970  139.3600 N   0  0  0  0  0  2  0  0  0  0  0  0
  181.9000  179.8530  137.7480 O   0  0  0  0  0  0  0  0  0  0  0  0
  182.1120  179.3050  141.3630 C   0  0  0  0  0  0  0  0  0  0  0  0
  183.2160  178.1500  139.6520 C   0  0  2  0  0  3  0  0  0  0  0  0
  184.5440  178.6750  139.2070 C   0  0  0  0  0  0  0  0  0  0  0  0
  184.8960  179.8380  139.5430 O   0  0  0  0  0  0  0  0  0  0  0  0
  185.3760  177.8790  138.4150 O   0  0  0  0  0  0  0  0  0  0  0  0
  185.2440  177.8000  137.0040 C   0  0  0  0  0  2  0  0  0  0  0  0
  186.4980  175.6550  137.2300 C   0  0  0  0  0  1  0  0  0  0  0  0
  185.3450  176.3560  136.5370 C   0  0  1  0  0  3  0  0  0  0  0  0
  183.1390  175.6340  135.9510 O   0  0  0  0  0  0  0  0  0  0  0  0
  184.0700  175.6270  136.8000 C   0  0  0  0  0  0  0  0  0  0  0  0
  183.8950  174.9580  138.0020 O   0  0  0  0  0  1  0  0  0  0  0  0
  190.4570  177.8590  142.5960 C   0  0  0  0  0  2  0  0  0  0  0  0
  190.0540  178.3120  141.2080 C   0  0  0  0  0  2  0  0  0  0  0  0
  189.4780  176.5230  139.6070 C   0  0  0  0  0  2  0  0  0  0  0  0
  190.1050  177.6040  138.7490 C   0  0  2  0  0  3  0  0  0  0  0  0
  190.6140  177.3500  140.1710 C   0  0  1  0  0  3  0  0  0  0  0  0
  189.2520  178.7120  138.6820 O   0  0  0  0  0  0  0  0  0  0  0  0
  189.5900  177.7980  136.5130 C   0  0  0  0  0  1  0  0  0  0  0  0
  188.7320  178.6870  137.3880 C   0  0  0  0  0  2  0  0  0  0  0  0
  191.1420  177.8900  145.2330 O   0  0  0  0  0  0  0  0  0  0  0  0
  191.9670  175.4550  145.1400 C   0  0  0  0  0  0  0  0  0  0  0  0
  192.4320  174.0700  145.0850 C   0  0  0  0  0  1  0  0  0  0  0  0
  191.5820  176.5970  145.1830 C   0  0  0  0  0  0  0  0  0  0  0  0
  1 44  1  6  0  0  0
  1  2  1  0  0  0  0
  3  6  1  0  0  0  0
  3  7  1  1  0  0  0
  4 13  1  1  0  0  0
  5 36  1  6  0  0  0
  5  1  1  0  0  0  0
  6 12  1  6  0  0  0
  6 14  1  0  0  0  0
  7 11  1  0  0  0  0
  8  9  1  0  0  0  0
  9 10  1  6  0  0  0
  9  5  1  0  0  0  0
  9  4  1  0  0  0  0
 12  8  2  0  0  0  0
 13  2  1  0  0  0  0
 14  4  1  0  0  0  0
 14 11  1  1  0  0  0
 16 21  2  0  0  0  0
 17 23  1  0  0  0  0
 17 18  1  0  0  0  0
 18 25  1  0  0  0  0
 19 20  1  6  0  0  0
 19  3  1  0  0  0  0
 21 22  1  0  0  0  0
 21 23  1  0  0  0  0
 24 17  2  0  0  0  0
 25 15  2  0  0  0  0
 25 19  1  0  0  0  0
 26 27  1  1  0  0  0
 26 18  1  0  0  0  0
 26 20  1  0  0  0  0
 27 28  2  0  0  0  0
 29 27  1  0  0  0  0
 30 29  1  0  0  0  0
 32 34  1  0  0  0  0
 32 30  1  0  0  0  0
 32 31  1  1  0  0  0
 33 34  2  0  0  0  0
 34 35  1  0  0  0  0
 37 36  1  0  0  0  0
 38 40  1  0  0  0  0
 39 41  1  1  0  0  0
 39 38  1  0  0  0  0
 39 40  1  0  0  0  0
 40 37  1  1  0  0  0
 42 43  1  0  0  0  0
 43 41  1  0  0  0  0
 45 47  3  0  0  0  0
 46 45  1  0  0  0  0
 47 44  1  0  0  0  0
M  END
>  <MODEL>
1

>  <REMARK>
 VINA RESULT:      -6.9      0.000      0.000
  Name = 
  13 active torsions:
  status: ('A' for Active; 'I' for Inactive)
    1  A    between atoms: O_2  and  C_30
    2  A    between atoms: O_2  and  C_42
    3  A    between atoms: C_4  and  O_39
    4  A    between atoms: O_9  and  C_12
    5  A    between atoms: O_9  and  C_25
    6  A    between atoms: C_10  and  C_13
    7  A    between atoms: C_12  and  C_19
    8  A    between atoms: C_14  and  C_24
    9  A    between atoms: C_14  and  C_45
   10  A    between atoms: C_18  and  C_19
   11  A    between atoms: C_20  and  C_24
   12  A    between atoms: C_25  and  C_46
   13  A    between atoms: C_31  and  O_39
                            x       y       z     vdW  Elec       q    Type
                         _______ _______ _______ _____ _____    ______ ____

>  <TORSDO>
F 13

$$$$
=
 OpenBabel11062417043D

 47 51  0  0  1  0  0  0  0  0999 V2000
  182.3160  178.0270  141.1940 C   0  0  2  0  0  3  0  0  0  0  0  0
  182.8840  179.1410  141.8350 O   0  0  0  0  0  0  0  0  0  0  0  0
  188.2780  177.8050  139.5710 C   0  0  2  0  0  3  0  0  0  0  0  0
  184.9820  179.0340  140.6630 C   0  0  1  0  0  3  0  0  0  0  0  0
  182.8890  177.8300  139.7650 C   0  0  2  0  0  3  0  0  0  0  0  0
  186.9500  178.4900  139.3500 C   0  0  1  0  0  3  0  0  0  0  0  0
  188.5480  177.9250  141.0120 N   0  0  0  0  0  2  0  0  0  0  0  0
  184.8050  178.2100  138.2110 C   0  0  0  0  0  3  0  0  0  0  0  0
  184.0570  178.7910  139.4120 C   0  0  2  0  0  0  0  0  0  0  0  0
  183.5030  180.1470  138.9970 C   0  0  0  0  0  1  0  0  0  0  0  0
  187.2930  178.3520  141.6390 C   0  0  0  0  0  2  0  0  0  0  0  0
  186.1370  178.0350  138.1810 C   0  0  0  0  0  3  0  0  0  0  0  0
  184.2420  178.8350  141.9910 C   0  0  0  0  0  2  0  0  0  0  0  0
  186.2210  178.1500  140.5990 C   0  0  1  0  0  3  0  0  0  0  0  0
  191.3020  177.1480  139.5230 O   0  0  0  0  0  0  0  0  0  0  0  0
  193.9220  174.4310  136.0460 O   0  0  0  0  0  0  0  0  0  0  0  0
  191.6690  176.1270  136.7630 C   0  0  0  0  0  0  0  0  0  0  0  0
  190.6250  176.9720  137.2710 N   0  0  0  0  0  0  0  0  0  0  0  0
  189.4100  178.4450  138.7600 C   0  0  2  0  0  3  0  0  0  0  0  0
  188.9680  178.6800  137.3080 C   0  0  0  0  0  2  0  0  0  0  0  0
  193.8200  174.8530  137.2280 C   0  0  0  0  0  0  0  0  0  0  0  0
  194.8500  174.4780  138.2330 C   0  0  0  0  0  1  0  0  0  0  0  0
  192.7350  175.6980  137.6200 N   0  0  0  0  0  2  0  0  0  0  0  0
  191.6470  175.7750  135.5510 O   0  0  0  0  0  0  0  0  0  0  0  0
  190.5220  177.4780  138.5920 C   0  0  0  0  0  0  0  0  0  0  0  0
  189.5920  177.5740  136.4460 C   0  0  2  0  0  3  0  0  0  0  0  0
  188.5490  176.5600  136.0970 C   0  0  0  0  0  0  0  0  0  0  0  0
  187.7210  176.8130  135.1810 O   0  0  0  0  0  0  0  0  0  0  0  0
  188.4950  175.3510  136.7940 O   0  0  0  0  0  0  0  0  0  0  0  0
  187.2730  174.7600  137.2110 C   0  0  0  0  0  2  0  0  0  0  0  0
  188.0390  172.3920  137.0430 C   0  0  0  0  0  1  0  0  0  0  0  0
  187.0600  173.4240  136.5160 C   0  0  1  0  0  3  0  0  0  0  0  0
  184.9540  172.6100  135.7220 O   0  0  0  0  0  0  0  0  0  0  0  0
  185.6590  172.9480  136.7100 C   0  0  0  0  0  0  0  0  0  0  0  0
  185.1190  172.9010  137.9850 O   0  0  0  0  0  1  0  0  0  0  0  0
  181.8260  177.7080  138.6700 C   0  0  0  0  0  2  0  0  0  0  0  0
  181.6710  176.2570  138.2650 C   0  0  0  0  0  2  0  0  0  0  0  0
  183.1870  175.6690  136.4060 C   0  0  0  0  0  2  0  0  0  0  0  0
  182.0310  174.6980  136.2670 C   0  0  2  0  0  3  0  0  0  0  0  0
  181.7870  176.1300  136.7530 C   0  0  1  0  0  3  0  0  0  0  0  0
  182.0540  173.7780  137.3220 O   0  0  0  0  0  0  0  0  0  0  0  0
  180.1460  172.3950  137.6520 C   0  0  0  0  0  1  0  0  0  0  0  0
  181.3910  172.6530  136.8290 C   0  0  0  0  0  2  0  0  0  0  0  0
  180.8990  178.1340  141.1960 O   0  0  0  0  0  0  0  0  0  0  0  0
  179.6420  178.9050  143.3050 C   0  0  0  0  0  0  0  0  0  0  0  0
  178.9310  179.3470  144.5040 C   0  0  0  0  0  1  0  0  0  0  0  0
  180.2290  178.5430  142.3160 C   0  0  0  0  0  0  0  0  0  0  0  0
  1 44  1  6  0  0  0
  1  2  1  0  0  0  0
  2 13  1  0  0  0  0
  3  7  1  1  0  0  0
  4 13  1  1  0  0  0
  5 36  1  6  0  0  0
  5  1  1  0  0  0  0
  6 12  1  6  0  0  0
  6  3  1  0  0  0  0
  6 14  1  0  0  0  0
  7 11  1  0  0  0  0
  8  9  1  0  0  0  0
  9 10  1  6  0  0  0
  9  5  1  0  0  0  0
  9  4  1  0  0  0  0
 12  8  2  0  0  0  0
 14  4  1  0  0  0  0
 14 11  1  1  0  0  0
 16 21  2  0  0  0  0
 17 18  1  0  0  0  0
 17 23  1  0  0  0  0
 18 25  1  0  0  0  0
 19 20  1  6  0  0  0
 19  3  1  0  0  0  0
 21 23  1  0  0  0  0
 21 22  1  0  0  0  0
 24 17  2  0  0  0  0
 25 19  1  0  0  0  0
 25 15  2  0  0  0  0
 26 27  1  1  0  0  0
 26 18  1  0  0  0  0
 26 20  1  0  0  0  0
 27 29  1  0  0  0  0
 28 27  2  0  0  0  0
 29 30  1  0  0  0  0
 32 34  1  0  0  0  0
 32 31  1  1  0  0  0
 32 30  1  0  0  0  0
 33 34  2  0  0  0  0
 34 35  1  0  0  0  0
 37 36  1  0  0  0  0
 38 40  1  0  0  0  0
 39 38  1  0  0  0  0
 39 40  1  0  0  0  0
 39 41  1  1  0  0  0
 40 37  1  1  0  0  0
 43 41  1  0  0  0  0
 43 42  1  0  0  0  0
 44 47  1  0  0  0  0
 45 46  1  0  0  0  0
 47 45  3  0  0  0  0
M  END
>  <MODEL>
2

>  <REMARK>
 VINA RESULT:      -6.9      3.664      8.757
  Name = 
  13 active torsions:
  status: ('A' for Active; 'I' for Inactive)
    1  A    between atoms: O_2  and  C_30
    2  A    between atoms: O_2  and  C_42
    3  A    between atoms: C_4  and  O_39
    4  A    between atoms: O_9  and  C_12
    5  A    between atoms: O_9  and  C_25
    6  A    between atoms: C_10  and  C_13
    7  A    between atoms: C_12  and  C_19
    8  A    between atoms: C_14  and  C_24
    9  A    between atoms: C_14  and  C_45
   10  A    between atoms: C_18  and  C_19
   11  A    between atoms: C_20  and  C_24
   12  A    between atoms: C_25  and  C_46
   13  A    between atoms: C_31  and  O_39
                            x       y       z     vdW  Elec       q    Type
                         _______ _______ _______ _____ _____    ______ ____

>  <TORSDO>
F 13

$$$$
=
 OpenBabel11062417043D

 47 51  0  0  1  0  0  0  0  0999 V2000
  186.9710  177.7800  143.6020 C   0  0  2  0  0  3  0  0  0  0  0  0
  187.1130  178.6500  142.5070 O   0  0  0  0  0  0  0  0  0  0  0  0
  181.2900  178.0740  141.1780 C   0  0  2  0  0  3  0  0  0  0  0  0
  184.7550  178.9070  142.1120 C   0  0  1  0  0  3  0  0  0  0  0  0
  185.6410  178.0250  144.3640 C   0  0  2  0  0  3  0  0  0  0  0  0
  182.3330  178.7910  142.0040 C   0  0  1  0  0  3  0  0  0  0  0  0
  181.9500  177.7540  139.9030 N   0  0  0  0  0  2  0  0  0  0  0  0
  183.2920  178.8620  144.2520 C   0  0  0  0  0  3  0  0  0  0  0  0
  184.6980  179.0510  143.6780 C   0  0  2  0  0  0  0  0  0  0  0  0
  185.1440  180.4680  144.0130 C   0  0  0  0  0  1  0  0  0  0  0  0
  183.3870  177.9690  140.1110 C   0  0  0  0  0  2  0  0  0  0  0  0
  182.1950  178.7080  143.4910 C   0  0  0  0  0  3  0  0  0  0  0  0
  186.0810  178.3140  141.6210 C   0  0  0  0  0  2  0  0  0  0  0  0
  183.5770  178.0880  141.6000 C   0  0  1  0  0  3  0  0  0  0  0  0
  181.0540  180.9750  140.1250 O   0  0  0  0  0  0  0  0  0  0  0  0
  179.8240  182.5660  135.4030 O   0  0  0  0  0  0  0  0  0  0  0  0
  179.6830  180.5790  137.5250 C   0  0  0  0  0  0  0  0  0  0  0  0
  179.7040  179.7070  138.6650 N   0  0  0  0  0  0  0  0  0  0  0  0
  180.0440  178.9330  140.9340 C   0  0  2  0  0  3  0  0  0  0  0  0
  178.9420  178.1070  140.2550 C   0  0  0  0  0  2  0  0  0  0  0  0
  180.4090  182.7880  136.4950 C   0  0  0  0  0  0  0  0  0  0  0  0
  181.1600  184.0580  136.6810 C   0  0  0  0  0  1  0  0  0  0  0  0
  180.3560  181.8440  137.5690 N   0  0  0  0  0  2  0  0  0  0  0  0
  179.0550  180.2290  136.4880 O   0  0  0  0  0  0  0  0  0  0  0  0
  180.3330  179.9660  139.9100 C   0  0  0  0  0  0  0  0  0  0  0  0
  178.9310  178.4810  138.7660 C   0  0  2  0  0  3  0  0  0  0  0  0
  179.5770  177.3930  137.9690 C   0  0  0  0  0  0  0  0  0  0  0  0
  180.4400  177.6900  137.0990 O   0  0  0  0  0  0  0  0  0  0  0  0
  179.2110  176.0620  138.1850 O   0  0  0  0  0  0  0  0  0  0  0  0
  179.5880  175.0110  137.3080 C   0  0  0  0  0  2  0  0  0  0  0  0
  180.0830  172.6260  137.8480 C   0  0  0  0  0  1  0  0  0  0  0  0
  180.5540  174.0600  137.9980 C   0  0  1  0  0  3  0  0  0  0  0  0
  182.6110  175.2430  137.6750 O   0  0  0  0  0  1  0  0  0  0  0  0
  181.9290  174.2090  137.4380 C   0  0  0  0  0  0  0  0  0  0  0  0
  182.4540  173.2150  136.6270 O   0  0  0  0  0  0  0  0  0  0  0  0
  185.8070  178.2380  145.8710 C   0  0  0  0  0  2  0  0  0  0  0  0
  187.0450  177.5120  146.3570 C   0  0  0  0  0  2  0  0  0  0  0  0
  187.7810  177.2600  148.7010 C   0  0  0  0  0  2  0  0  0  0  0  0
  189.0180  177.7420  147.9700 C   0  0  2  0  0  3  0  0  0  0  0  0
  187.6300  178.2410  147.5560 C   0  0  1  0  0  3  0  0  0  0  0  0
  189.4920  176.7340  147.1220 O   0  0  0  0  0  0  0  0  0  0  0  0
  191.5980  175.6540  147.3680 C   0  0  0  0  0  1  0  0  0  0  0  0
  190.8700  176.9430  147.0520 C   0  0  0  0  0  2  0  0  0  0  0  0
  188.1050  177.8780  144.4520 O   0  0  0  0  0  0  0  0  0  0  0  0
  190.4870  177.8060  143.4810 C   0  0  0  0  0  0  0  0  0  0  0  0
  191.8400  177.7700  142.9280 C   0  0  0  0  0  1  0  0  0  0  0  0
  189.3710  177.8390  143.9380 C   0  0  0  0  0  0  0  0  0  0  0  0
  1  5  1  0  0  0  0
  1 44  1  1  0  0  0
  2  1  1  0  0  0  0
  3  7  1  6  0  0  0
  3  6  1  0  0  0  0
  4 13  1  1  0  0  0
  4  9  1  0  0  0  0
  5 36  1  1  0  0  0
  6 12  1  1  0  0  0
  7 11  1  0  0  0  0
  9 10  1  1  0  0  0
  9  8  1  0  0  0  0
  9  5  1  0  0  0  0
 12  8  2  0  0  0  0
 13  2  1  0  0  0  0
 14 11  1  6  0  0  0
 14  6  1  0  0  0  0
 14  4  1  0  0  0  0
 16 21  2  0  0  0  0
 17 23  1  0  0  0  0
 17 18  1  0  0  0  0
 18 26  1  0  0  0  0
 18 25  1  0  0  0  0
 19 20  1  6  0  0  0
 19  3  1  0  0  0  0
 21 22  1  0  0  0  0
 21 23  1  0  0  0  0
 24 17  2  0  0  0  0
 25 15  2  0  0  0  0
 25 19  1  0  0  0  0
 26 27  1  6  0  0  0
 26 20  1  0  0  0  0
 27 29  1  0  0  0  0
 28 27  2  0  0  0  0
 30 32  1  0  0  0  0
 30 29  1  0  0  0  0
 32 31  1  6  0  0  0
 34 33  1  0  0  0  0
 34 32  1  0  0  0  0
 35 34  2  0  0  0  0
 36 37  1  0  0  0  0
 39 41  1  6  0  0  0
 39 38  1  0  0  0  0
 40 37  1  6  0  0  0
 40 39  1  0  0  0  0
 40 38  1  0  0  0  0
 43 41  1  0  0  0  0
 43 42  1  0  0  0  0
 45 47  3  0  0  0  0
 46 45  1  0  0  0  0
 47 44  1  0  0  0  0
M  END
>  <MODEL>
3

>  <REMARK>
 VINA RESULT:      -6.6      2.691      5.159
  Name = 
  13 active torsions:
  status: ('A' for Active; 'I' for Inactive)
    1  A    between atoms: O_2  and  C_30
    2  A    between atoms: O_2  and  C_42
    3  A    between atoms: C_4  and  O_39
    4  A    between atoms: O_9  and  C_12
    5  A    between atoms: O_9  and  C_25
    6  A    between atoms: C_10  and  C_13
    7  A    between atoms: C_12  and  C_19
    8  A    between atoms: C_14  and  C_24
    9  A    between atoms: C_14  and  C_45
   10  A    between atoms: C_18  and  C_19
   11  A    between atoms: C_20  and  C_24
   12  A    between atoms: C_25  and  C_46
   13  A    between atoms: C_31  and  O_39
                            x       y       z     vdW  Elec       q    Type
                         _______ _______ _______ _____ _____    ______ ____

>  <TORSDO>
F 13

$$$$
=
 OpenBabel11062417043D

 47 51  0  0  1  0  0  0  0  0999 V2000
  190.5020  176.8400  140.5380 C   0  0  2  0  0  3  0  0  0  0  0  0
  191.2150  176.8370  139.3260 O   0  0  0  0  0  0  0  0  0  0  0  0
  186.3220  175.0450  136.3500 C   0  0  2  0  0  3  0  0  0  0  0  0
  189.2780  176.5800  137.9230 C   0  0  1  0  0  3  0  0  0  0  0  0
  189.0620  177.3920  140.3590 C   0  0  2  0  0  3  0  0  0  0  0  0
  187.1010  176.2100  136.9160 C   0  0  1  0  0  3  0  0  0  0  0  0
  187.3310  174.0550  135.9470 N   0  0  0  0  0  2  0  0  0  0  0  0
  187.1450  177.7620  138.8040 C   0  0  0  0  0  3  0  0  0  0  0  0
  188.6700  177.6710  138.8820 C   0  0  2  0  0  0  0  0  0  0  0  0
  189.2330  179.0150  138.4420 C   0  0  0  0  0  1  0  0  0  0  0  0
  188.5980  174.4770  136.5550 C   0  0  0  0  0  2  0  0  0  0  0  0
  186.4050  177.0680  137.9220 C   0  0  0  0  0  3  0  0  0  0  0  0
  190.5430  175.9300  138.4960 C   0  0  0  0  0  2  0  0  0  0  0  0
  188.2380  175.5220  137.5790 C   0  0  1  0  0  3  0  0  0  0  0  0
  184.1210  173.4500  134.8700 O   0  0  0  0  0  0  0  0  0  0  0  0
  179.0260  173.8770  135.3140 O   0  0  0  0  0  0  0  0  0  0  0  0
  181.6900  175.0350  135.4840 C   0  0  0  0  0  0  0  0  0  0  0  0
  183.0620  175.4570  135.5130 N   0  0  0  0  0  0  0  0  0  0  0  0
  185.4560  175.4460  135.1510 C   0  0  2  0  0  3  0  0  0  0  0  0
  184.9520  176.8890  135.3050 C   0  0  0  0  0  2  0  0  0  0  0  0
  180.0260  173.1680  135.0260 C   0  0  0  0  0  0  0  0  0  0  0  0
  179.8270  171.7550  134.6050 C   0  0  0  0  0  1  0  0  0  0  0  0
  181.3520  173.7000  135.0850 N   0  0  0  0  0  2  0  0  0  0  0  0
  180.7830  175.8530  135.8010 O   0  0  0  0  0  0  0  0  0  0  0  0
  184.1900  174.6740  135.1580 C   0  0  0  0  0  0  0  0  0  0  0  0
  183.4880  176.8240  135.7590 C   0  0  2  0  0  3  0  0  0  0  0  0
  183.3980  177.1420  137.2170 C   0  0  0  0  0  0  0  0  0  0  0  0
  183.5500  178.3330  137.6030 O   0  0  0  0  0  0  0  0  0  0  0  0
  183.1600  176.1190  138.1380 O   0  0  0  0  0  0  0  0  0  0  0  0
  182.6970  176.3670  139.4570 C   0  0  0  0  0  2  0  0  0  0  0  0
  180.4090  175.4760  139.8990 C   0  0  0  0  0  1  0  0  0  0  0  0
  181.2090  176.6830  139.4500 C   0  0  1  0  0  3  0  0  0  0  0  0
  181.3530  178.9970  140.0480 O   0  0  0  0  0  0  0  0  0  0  0  0
  180.9150  177.8500  140.3330 C   0  0  0  0  0  0  0  0  0  0  0  0
  180.1750  177.6680  141.4910 O   0  0  0  0  0  1  0  0  0  0  0  0
  188.6920  178.5180  141.3280 C   0  0  0  0  0  2  0  0  0  0  0  0
  187.3350  178.2390  141.9420 C   0  0  0  0  0  2  0  0  0  0  0  0
  188.0810  177.9350  144.2760 C   0  0  0  0  0  2  0  0  0  0  0  0
  186.6150  177.5510  144.2990 C   0  0  2  0  0  3  0  0  0  0  0  0
  187.4800  177.2350  143.0750 C   0  0  1  0  0  3  0  0  0  0  0  0
  185.8220  178.6890  144.1070 O   0  0  0  0  0  0  0  0  0  0  0  0
  183.6710  179.0020  145.0730 C   0  0  0  0  0  1  0  0  0  0  0  0
  184.5110  178.2130  144.0920 C   0  0  0  0  0  2  0  0  0  0  0  0
  191.2320  177.5490  141.5290 O   0  0  0  0  0  0  0  0  0  0  0  0
  191.3920  176.6640  143.9400 C   0  0  0  0  0  0  0  0  0  0  0  0
  191.4810  176.1640  145.3110 C   0  0  0  0  0  1  0  0  0  0  0  0
  191.3160  177.0770  142.8090 C   0  0  0  0  0  0  0  0  0  0  0  0
  1 44  1  1  0  0  0
  2  1  1  0  0  0  0
  3  7  1  6  0  0  0
  3  6  1  0  0  0  0
  4 13  1  1  0  0  0
  4  9  1  0  0  0  0
  5  1  1  0  0  0  0
  5 36  1  1  0  0  0
  6 14  1  0  0  0  0
  6 12  1  1  0  0  0
  7 11  1  0  0  0  0
  8  9  1  0  0  0  0
  9 10  1  6  0  0  0
  9  5  1  0  0  0  0
 12  8  2  0  0  0  0
 13  2  1  0  0  0  0
 14 11  1  6  0  0  0
 14  4  1  0  0  0  0
 15 25  2  0  0  0  0
 17 18  1  0  0  0  0
 17 24  2  0  0  0  0
 18 26  1  0  0  0  0
 19 25  1  0  0  0  0
 19 20  1  1  0  0  0
 19  3  1  0  0  0  0
 20 26  1  0  0  0  0
 21 23  1  0  0  0  0
 21 16  2  0  0  0  0
 22 21  1  0  0  0  0
 23 17  1  0  0  0  0
 25 18  1  0  0  0  0
 26 27  1  1  0  0  0
 27 28  2  0  0  0  0
 27 29  1  0  0  0  0
 29 30  1  0  0  0  0
 32 30  1  0  0  0  0
 32 31  1  1  0  0  0
 32 34  1  0  0  0  0
 33 34  2  0  0  0  0
 34 35  1  0  0  0  0
 36 37  1  0  0  0  0
 38 39  1  0  0  0  0
 39 41  1  6  0  0  0
 40 37  1  6  0  0  0
 40 38  1  0  0  0  0
 40 39  1  0  0  0  0
 43 41  1  0  0  0  0
 43 42  1  0  0  0  0
 44 47  1  0  0  0  0
 45 46  1  0  0  0  0
 47 45  3  0  0  0  0
M  END
>  <MODEL>
4

>  <REMARK>
 VINA RESULT:      -6.3      2.913      6.423
  Name = 
  13 active torsions:
  status: ('A' for Active; 'I' for Inactive)
    1  A    between atoms: O_2  and  C_30
    2  A    between atoms: O_2  and  C_42
    3  A    between atoms: C_4  and  O_39
    4  A    between atoms: O_9  and  C_12
    5  A    between atoms: O_9  and  C_25
    6  A    between atoms: C_10  and  C_13
    7  A    between atoms: C_12  and  C_19
    8  A    between atoms: C_14  and  C_24
    9  A    between atoms: C_14  and  C_45
   10  A    between atoms: C_18  and  C_19
   11  A    between atoms: C_20  and  C_24
   12  A    between atoms: C_25  and  C_46
   13  A    between atoms: C_31  and  O_39
                            x       y       z     vdW  Elec       q    Type
                         _______ _______ _______ _____ _____    ______ ____

>  <TORSDO>
F 13

$$$$
=
 OpenBabel11062417043D

 47 51  0  0  1  0  0  0  0  0999 V2000
  181.2930  175.7350  137.4770 C   0  0  2  0  0  3  0  0  0  0  0  0
  182.1660  174.7560  137.9860 O   0  0  0  0  0  0  0  0  0  0  0  0
  186.9060  178.2340  136.7860 C   0  0  2  0  0  3  0  0  0  0  0  0
  184.1080  176.1740  138.0100 C   0  0  1  0  0  3  0  0  0  0  0  0
  181.7350  177.1670  137.8810 C   0  0  2  0  0  3  0  0  0  0  0  0
  185.8030  177.8930  137.7610 C   0  0  1  0  0  3  0  0  0  0  0  0
  187.2550  176.9660  136.1280 N   0  0  0  0  0  2  0  0  0  0  0  0
  183.6190  178.6630  138.5430 C   0  0  0  0  0  3  0  0  0  0  0  0
  183.1030  177.2250  138.6130 C   0  0  2  0  0  0  0  0  0  0  0  0
  182.9190  176.8740  140.0830 C   0  0  0  0  0  1  0  0  0  0  0  0
  186.1870  176.0160  136.4580 C   0  0  0  0  0  2  0  0  0  0  0  0
  184.8530  178.9890  138.1210 C   0  0  0  0  0  3  0  0  0  0  0  0
  183.3960  174.9840  137.3550 C   0  0  0  0  0  2  0  0  0  0  0  0
  185.0600  176.8390  137.0250 C   0  0  1  0  0  3  0  0  0  0  0  0
  187.4900  178.6340  139.7980 O   0  0  0  0  0  0  0  0  0  0  0  0
  190.4410  175.7850  142.8830 O   0  0  0  0  0  0  0  0  0  0  0  0
  189.7730  176.7920  140.2360 C   0  0  0  0  0  0  0  0  0  0  0  0
  189.3220  177.3790  139.0050 N   0  0  0  0  0  0  0  0  0  0  0  0
  188.1350  178.8340  137.4770 C   0  0  2  0  0  3  0  0  0  0  0  0
  189.4280  178.3240  136.8230 C   0  0  0  0  0  2  0  0  0  0  0  0
  189.4730  176.5790  142.7520 C   0  0  0  0  0  0  0  0  0  0  0  0
  188.6890  176.9850  143.9480 C   0  0  0  0  0  1  0  0  0  0  0  0
  189.1170  177.1060  141.4710 N   0  0  0  0  0  2  0  0  0  0  0  0
  190.7610  176.0070  140.2230 O   0  0  0  0  0  0  0  0  0  0  0  0
  188.2530  178.2990  138.8550 C   0  0  0  0  0  0  0  0  0  0  0  0
  190.0130  177.2370  137.7350 C   0  0  2  0  0  3  0  0  0  0  0  0
  189.7460  175.8890  137.1460 C   0  0  0  0  0  0  0  0  0  0  0  0
  188.8980  175.1310  137.6910 O   0  0  0  0  0  0  0  0  0  0  0  0
  190.4450  175.4760  136.0090 O   0  0  0  0  0  0  0  0  0  0  0  0
  191.8610  175.5240  135.9200 C   0  0  0  0  0  2  0  0  0  0  0  0
  193.0550  173.4090  136.4940 C   0  0  0  0  0  1  0  0  0  0  0  0
  192.4950  174.7100  137.0380 C   0  0  1  0  0  3  0  0  0  0  0  0
  193.5540  176.7510  137.7030 O   0  0  0  0  0  0  0  0  0  0  0  0
  193.5730  175.4910  137.7120 C   0  0  0  0  0  0  0  0  0  0  0  0
  194.6200  174.8260  138.3310 O   0  0  0  0  0  1  0  0  0  0  0  0
  180.6360  178.0030  138.5420 C   0  0  0  0  0  2  0  0  0  0  0  0
  180.2960  179.1890  137.6620 C   0  0  0  0  0  2  0  0  0  0  0  0
  180.9030  181.1240  139.0700 C   0  0  0  0  0  2  0  0  0  0  0  0
  180.0500  181.7180  137.9660 C   0  0  2  0  0  3  0  0  0  0  0  0
  179.7450  180.3210  138.5150 C   0  0  1  0  0  3  0  0  0  0  0  0
  180.7440  181.6690  136.7510 O   0  0  0  0  0  0  0  0  0  0  0  0
  181.1790  184.0070  136.7360 C   0  0  0  0  0  1  0  0  0  0  0  0
  180.4180  182.8610  136.1040 C   0  0  0  0  0  2  0  0  0  0  0  0
  179.9590  175.4500  137.8740 O   0  0  0  0  0  0  0  0  0  0  0  0
  179.4630  174.3710  140.1570 C   0  0  0  0  0  0  0  0  0  0  0  0
  179.1840  173.7540  141.4530 C   0  0  0  0  0  1  0  0  0  0  0  0
  179.6960  174.8780  139.0880 C   0  0  0  0  0  0  0  0  0  0  0  0
  1 44  1  1  0  0  0
  1  5  1  0  0  0  0
  1  2  1  0  0  0  0
  3  7  1  1  0  0  0
  3 19  1  0  0  0  0
  3  6  1  0  0  0  0
  4 13  1  6  0  0  0
  4  9  1  0  0  0  0
  5 36  1  1  0  0  0
  5  9  1  0  0  0  0
  6 12  1  6  0  0  0
  7 11  1  0  0  0  0
  8  9  1  0  0  0  0
  9 10  1  1  0  0  0
 12  8  2  0  0  0  0
 13  2  1  0  0  0  0
 14 11  1  1  0  0  0
 14  6  1  0  0  0  0
 14  4  1  0  0  0  0
 17 23  1  0  0  0  0
 18 17  1  0  0  0  0
 19 20  1  6  0  0  0
 19 25  1  0  0  0  0
 20 26  1  0  0  0  0
 21 16  2  0  0  0  0
 21 22  1  0  0  0  0
 23 21  1  0  0  0  0
 24 17  2  0  0  0  0
 25 18  1  0  0  0  0
 25 15  2  0  0  0  0
 26 27  1  6  0  0  0
 26 18  1  0  0  0  0
 27 28  2  0  0  0  0
 29 27  1  0  0  0  0
 30 29  1  0  0  0  0
 30 32  1  0  0  0  0
 32 31  1  6  0  0  0
 32 34  1  0  0  0  0
 33 34  2  0  0  0  0
 34 35  1  0  0  0  0
 37 36  1  0  0  0  0
 39 41  1  6  0  0  0
 39 40  1  0  0  0  0
 39 38  1  0  0  0  0
 40 37  1  6  0  0  0
 40 38  1  0  0  0  0
 43 42  1  0  0  0  0
 43 41  1  0  0  0  0
 44 47  1  0  0  0  0
 45 46  1  0  0  0  0
 47 45  3  0  0  0  0
M  END
>  <MODEL>
5

>  <REMARK>
 VINA RESULT:      -6.3      3.296      9.370
  Name = 
  13 active torsions:
  status: ('A' for Active; 'I' for Inactive)
    1  A    between atoms: O_2  and  C_30
    2  A    between atoms: O_2  and  C_42
    3  A    between atoms: C_4  and  O_39
    4  A    between atoms: O_9  and  C_12
    5  A    between atoms: O_9  and  C_25
    6  A    between atoms: C_10  and  C_13
    7  A    between atoms: C_12  and  C_19
    8  A    between atoms: C_14  and  C_24
    9  A    between atoms: C_14  and  C_45
   10  A    between atoms: C_18  and  C_19
   11  A    between atoms: C_20  and  C_24
   12  A    between atoms: C_25  and  C_46
   13  A    between atoms: C_31  and  O_39
                            x       y       z     vdW  Elec       q    Type
                         _______ _______ _______ _____ _____    ______ ____

>  <TORSDO>
F 13

$$$$
=
 OpenBabel11062417043D

 47 51  0  0  1  0  0  0  0  0999 V2000
  187.9960  178.8330  146.9510 C   0  0  2  0  0  3  0  0  0  0  0  0
  186.9230  178.1840  147.5880 O   0  0  0  0  0  0  0  0  0  0  0  0
  183.4770  178.9290  142.7320 C   0  0  2  0  0  3  0  0  0  0  0  0
  185.5750  177.9770  145.6070 C   0  0  1  0  0  3  0  0  0  0  0  0
  188.1060  178.4330  145.4550 C   0  0  2  0  0  3  0  0  0  0  0  0
  184.5220  178.0830  143.4220 C   0  0  1  0  0  3  0  0  0  0  0  0
  182.6490  179.4890  143.8100 N   0  0  0  0  0  2  0  0  0  0  0  0
  186.9190  177.6040  143.4220 C   0  0  0  0  0  3  0  0  0  0  0  0
  186.9380  177.5420  144.9500 C   0  0  2  0  0  0  0  0  0  0  0  0
  187.1830  176.0930  145.3490 C   0  0  0  0  0  1  0  0  0  0  0  0
  183.3780  179.2560  145.0620 C   0  0  0  0  0  2  0  0  0  0  0  0
  185.8180  177.8840  142.7050 C   0  0  0  0  0  3  0  0  0  0  0  0
  185.7660  178.6670  146.9630 C   0  0  0  0  0  2  0  0  0  0  0  0
  184.7760  178.8640  144.6600 C   0  0  1  0  0  3  0  0  0  0  0  0
  180.9570  179.7650  141.1420 O   0  0  0  0  0  0  0  0  0  0  0  0
  180.5960  181.0780  136.1950 O   0  0  0  0  0  0  0  0  0  0  0  0
  181.9190  179.6260  138.3400 C   0  0  0  0  0  0  0  0  0  0  0  0
  182.4510  178.9690  139.5010 N   0  0  0  0  0  0  0  0  0  0  0  0
  182.6130  178.1160  141.7610 C   0  0  2  0  0  3  0  0  0  0  0  0
  183.4950  177.2830  140.8190 C   0  0  0  0  0  2  0  0  0  0  0  0
  180.1380  181.1560  137.3650 C   0  0  0  0  0  0  0  0  0  0  0  0
  178.9340  181.9870  137.6280 C   0  0  0  0  0  1  0  0  0  0  0  0
  180.7510  180.4490  138.4470 N   0  0  0  0  0  2  0  0  0  0  0  0
  182.4810  179.4610  137.2230 O   0  0  0  0  0  0  0  0  0  0  0  0
  181.9220  179.0250  140.8160 C   0  0  0  0  0  0  0  0  0  0  0  0
  183.5350  178.0020  139.4630 C   0  0  2  0  0  3  0  0  0  0  0  0
  184.8480  178.7000  139.3020 C   0  0  0  0  0  0  0  0  0  0  0  0
  185.0770  179.7500  139.9610 O   0  0  0  0  0  0  0  0  0  0  0  0
  185.8020  178.1900  138.4180 O   0  0  0  0  0  0  0  0  0  0  0  0
  185.4550  177.4250  137.2740 C   0  0  0  0  0  2  0  0  0  0  0  0
  187.5140  178.6190  136.5260 C   0  0  0  0  0  1  0  0  0  0  0  0
  186.5760  177.4600  136.2460 C   0  0  1  0  0  3  0  0  0  0  0  0
  187.2050  175.3560  137.2000 O   0  0  0  0  0  1  0  0  0  0  0  0
  187.3340  176.1740  136.2500 C   0  0  0  0  0  0  0  0  0  0  0  0
  188.2090  175.8880  135.2130 O   0  0  0  0  0  0  0  0  0  0  0  0
  189.4930  177.9450  145.0320 C   0  0  0  0  0  2  0  0  0  0  0  0
  189.9860  178.7600  143.8540 C   0  0  0  0  0  2  0  0  0  0  0  0
  191.5100  176.8340  143.5990 C   0  0  0  0  0  2  0  0  0  0  0  0
  191.4970  177.4850  142.2300 C   0  0  2  0  0  3  0  0  0  0  0  0
  191.4030  178.3410  143.4960 C   0  0  1  0  0  3  0  0  0  0  0  0
  190.2480  177.2960  141.6250 O   0  0  0  0  0  0  0  0  0  0  0  0
  189.2530  177.1240  139.4710 C   0  0  0  0  0  1  0  0  0  0  0  0
  190.4630  177.5570  140.2710 C   0  0  0  0  0  2  0  0  0  0  0  0
  189.2020  178.5910  147.6630 O   0  0  0  0  0  0  0  0  0  0  0  0
  190.5070  176.3960  147.3470 C   0  0  0  0  0  0  0  0  0  0  0  0
  191.2510  175.1500  147.1720 C   0  0  0  0  0  1  0  0  0  0  0  0
  189.8930  177.4240  147.4950 C   0  0  0  0  0  0  0  0  0  0  0  0
  1  2  1  0  0  0  0
  1 44  1  1  0  0  0
  3  6  1  0  0  0  0
  3  7  1  1  0  0  0
  4 13  1  1  0  0  0
  5 36  1  1  0  0  0
  5  1  1  0  0  0  0
  6 12  1  6  0  0  0
  6 14  1  0  0  0  0
  7 11  1  0  0  0  0
  8  9  1  0  0  0  0
  9 10  1  1  0  0  0
  9  5  1  0  0  0  0
  9  4  1  0  0  0  0
 12  8  2  0  0  0  0
 13  2  1  0  0  0  0
 14 11  1  1  0  0  0
 14  4  1  0  0  0  0
 16 21  2  0  0  0  0
 17 23  1  0  0  0  0
 17 18  1  0  0  0  0
 18 25  1  0  0  0  0
 19 20  1  6  0  0  0
 19  3  1  0  0  0  0
 21 22  1  0  0  0  0
 21 23  1  0  0  0  0
 24 17  2  0  0  0  0
 25 15  2  0  0  0  0
 25 19  1  0  0  0  0
 26 27  1  1  0  0  0
 26 18  1  0  0  0  0
 26 20  1  0  0  0  0
 27 28  2  0  0  0  0
 29 27  1  0  0  0  0
 30 29  1  0  0  0  0
 32 34  1  0  0  0  0
 32 31  1  1  0  0  0
 32 30  1  0  0  0  0
 34 33  1  0  0  0  0
 35 34  2  0  0  0  0
 37 36  1  0  0  0  0
 39 41  1  6  0  0  0
 39 40  1  0  0  0  0
 39 38  1  0  0  0  0
 40 38  1  0  0  0  0
 40 37  1  6  0  0  0
 42 43  1  0  0  0  0
 43 41  1  0  0  0  0
 45 47  3  0  0  0  0
 46 45  1  0  0  0  0
 47 44  1  0  0  0  0
M  END
>  <MODEL>
6

>  <REMARK>
 VINA RESULT:      -6.3      1.582      2.345
  Name = 
  13 active torsions:
  status: ('A' for Active; 'I' for Inactive)
    1  A    between atoms: O_2  and  C_30
    2  A    between atoms: O_2  and  C_42
    3  A    between atoms: C_4  and  O_39
    4  A    between atoms: O_9  and  C_12
    5  A    between atoms: O_9  and  C_25
    6  A    between atoms: C_10  and  C_13
    7  A    between atoms: C_12  and  C_19
    8  A    between atoms: C_14  and  C_24
    9  A    between atoms: C_14  and  C_45
   10  A    between atoms: C_18  and  C_19
   11  A    between atoms: C_20  and  C_24
   12  A    between atoms: C_25  and  C_46
   13  A    between atoms: C_31  and  O_39
                            x       y       z     vdW  Elec       q    Type
                         _______ _______ _______ _____ _____    ______ ____

>  <TORSDO>
F 13

$$$$
=
 OpenBabel11062417043D

 47 51  0  0  1  0  0  0  0  0999 V2000
  181.5570  177.7980  139.6610 C   0  0  2  0  0  3  0  0  0  0  0  0
  181.3650  178.8900  140.5250 O   0  0  0  0  0  0  0  0  0  0  0  0
  186.7570  177.9960  143.0000 C   0  0  2  0  0  3  0  0  0  0  0  0
  183.6410  178.9740  141.2960 C   0  0  1  0  0  3  0  0  0  0  0  0
  183.0130  177.7340  139.1270 C   0  0  2  0  0  3  0  0  0  0  0  0
  185.9730  178.6270  141.8720 C   0  0  1  0  0  3  0  0  0  0  0  0
  185.8620  178.0250  144.1660 N   0  0  0  0  0  2  0  0  0  0  0  0
  185.4070  178.3220  139.5140 C   0  0  0  0  0  3  0  0  0  0  0  0
  183.9690  178.7760  139.7690 C   0  0  2  0  0  0  0  0  0  0  0  0
  183.7880  180.1290  139.0940 C   0  0  0  0  0  1  0  0  0  0  0  0
  184.5230  178.3420  143.6580 C   0  0  0  0  0  2  0  0  0  0  0  0
  186.3340  178.2180  140.4810 C   0  0  0  0  0  3  0  0  0  0  0  0
  182.1830  178.6420  141.6340 C   0  0  0  0  0  2  0  0  0  0  0  0
  184.5930  178.1620  142.1640 C   0  0  1  0  0  3  0  0  0  0  0  0
  188.4880  178.0120  145.5650 O   0  0  0  0  0  0  0  0  0  0  0  0
  192.8570  175.4800  146.4820 O   0  0  0  0  0  0  0  0  0  0  0  0
  190.9930  176.7280  144.6290 C   0  0  0  0  0  0  0  0  0  0  0  0
  189.9820  177.3870  143.8500 N   0  0  0  0  0  0  0  0  0  0  0  0
  188.0570  178.7500  143.3030 C   0  0  2  0  0  3  0  0  0  0  0  0
  189.0140  178.6830  142.1040 C   0  0  0  0  0  2  0  0  0  0  0  0
  191.8160  176.0280  146.9300 C   0  0  0  0  0  0  0  0  0  0  0  0
  191.5590  176.0260  148.3950 C   0  0  0  0  0  1  0  0  0  0  0  0
  190.8790  176.6620  146.0560 N   0  0  0  0  0  2  0  0  0  0  0  0
  191.9890  176.2180  144.0460 O   0  0  0  0  0  0  0  0  0  0  0  0
  188.8240  178.0350  144.3520 C   0  0  0  0  0  0  0  0  0  0  0  0
  190.0860  177.6320  142.4220 C   0  0  2  0  0  3  0  0  0  0  0  0
  189.8030  176.3780  141.6580 C   0  0  0  0  0  0  0  0  0  0  0  0
  189.0960  175.4770  142.1850 O   0  0  0  0  0  0  0  0  0  0  0  0
  190.3330  176.2100  140.3760 O   0  0  0  0  0  0  0  0  0  0  0  0
  190.8400  177.2920  139.6090 C   0  0  0  0  0  2  0  0  0  0  0  0
  189.8380  175.7800  137.8950 C   0  0  0  0  0  1  0  0  0  0  0  0
  190.4220  177.1560  138.1520 C   0  0  1  0  0  3  0  0  0  0  0  0
  189.0560  179.0600  138.6420 O   0  0  0  0  0  1  0  0  0  0  0  0
  189.4310  178.2110  137.7890 C   0  0  0  0  0  0  0  0  0  0  0  0
  188.8950  178.2410  136.5110 O   0  0  0  0  0  0  0  0  0  0  0  0
  183.1230  177.6390  137.6030 C   0  0  0  0  0  2  0  0  0  0  0  0
  183.9410  176.4210  137.2240 C   0  0  0  0  0  2  0  0  0  0  0  0
  182.3870  174.5040  137.1180 C   0  0  0  0  0  2  0  0  0  0  0  0
  183.7530  173.8700  137.2930 C   0  0  2  0  0  3  0  0  0  0  0  0
  183.4240  175.2020  137.9730 C   0  0  1  0  0  3  0  0  0  0  0  0
  184.5100  174.0430  136.1280 O   0  0  0  0  0  0  0  0  0  0  0  0
  186.3550  173.0110  137.2190 C   0  0  0  0  0  1  0  0  0  0  0  0
  185.3570  172.9340  136.0840 C   0  0  0  0  0  2  0  0  0  0  0  0
  180.5990  177.8330  138.6110 O   0  0  0  0  0  0  0  0  0  0  0  0
  179.7360  180.0720  137.6840 C   0  0  0  0  0  0  0  0  0  0  0  0
  179.2410  181.3430  137.1560 C   0  0  0  0  0  1  0  0  0  0  0  0
  180.1410  179.0230  138.1200 C   0  0  0  0  0  0  0  0  0  0  0  0
  1 44  1  6  0  0  0
  1  2  1  0  0  0  0
  2 13  1  0  0  0  0
  3 19  1  0  0  0  0
  3  7  1  1  0  0  0
  4 13  1  6  0  0  0
  4 14  1  0  0  0  0
  5 36  1  6  0  0  0
  5  1  1  0  0  0  0
  5  9  1  0  0  0  0
  6 12  1  6  0  0  0
  6 14  1  0  0  0  0
  6  3  1  0  0  0  0
  8  9  1  0  0  0  0
  8 12  2  0  0  0  0
  9 10  1  6  0  0  0
  9  4  1  0  0  0  0
 11  7  1  0  0  0  0
 14 11  1  1  0  0  0
 16 21  2  0  0  0  0
 17 23  1  0  0  0  0
 18 25  1  0  0  0  0
 18 17  1  0  0  0  0
 19 20  1  6  0  0  0
 19 25  1  0  0  0  0
 20 26  1  0  0  0  0
 21 22  1  0  0  0  0
 23 21  1  0  0  0  0
 24 17  2  0  0  0  0
 25 15  2  0  0  0  0
 26 27  1  6  0  0  0
 26 18  1  0  0  0  0
 27 28  2  0  0  0  0
 29 27  1  0  0  0  0
 30 29  1  0  0  0  0
 32 31  1  1  0  0  0
 32 30  1  0  0  0  0
 34 32  1  0  0  0  0
 34 33  1  0  0  0  0
 35 34  2  0  0  0  0
 37 36  1  0  0  0  0
 38 39  1  0  0  0  0
 38 40  1  0  0  0  0
 39 41  1  6  0  0  0
 39 40  1  0  0  0  0
 40 37  1  6  0  0  0
 43 41  1  0  0  0  0
 43 42  1  0  0  0  0
 45 47  3  0  0  0  0
 46 45  1  0  0  0  0
 47 44  1  0  0  0  0
M  END
>  <MODEL>
7

>  <REMARK>
 VINA RESULT:      -6.1      2.354      8.836
  Name = 
  13 active torsions:
  status: ('A' for Active; 'I' for Inactive)
    1  A    between atoms: O_2  and  C_30
    2  A    between atoms: O_2  and  C_42
    3  A    between atoms: C_4  and  O_39
    4  A    between atoms: O_9  and  C_12
    5  A    between atoms: O_9  and  C_25
    6  A    between atoms: C_10  and  C_13
    7  A    between atoms: C_12  and  C_19
    8  A    between atoms: C_14  and  C_24
    9  A    between atoms: C_14  and  C_45
   10  A    between atoms: C_18  and  C_19
   11  A    between atoms: C_20  and  C_24
   12  A    between atoms: C_25  and  C_46
   13  A    between atoms: C_31  and  O_39
                            x       y       z     vdW  Elec       q    Type
                         _______ _______ _______ _____ _____    ______ ____

>  <TORSDO>
F 13

$$$$
=
 OpenBabel11062417043D

 47 51  0  0  1  0  0  0  0  0999 V2000
  181.0320  175.7280  137.7070 C   0  0  2  0  0  3  0  0  0  0  0  0
  181.9540  174.7360  138.0850 O   0  0  0  0  0  0  0  0  0  0  0  0
  186.5410  178.3360  136.6670 C   0  0  2  0  0  3  0  0  0  0  0  0
  183.8790  176.1770  138.0170 C   0  0  1  0  0  3  0  0  0  0  0  0
  181.4940  177.1430  138.1480 C   0  0  2  0  0  3  0  0  0  0  0  0
  185.5300  177.9300  137.7150 C   0  0  1  0  0  3  0  0  0  0  0  0
  186.8420  177.1090  135.9150 N   0  0  0  0  0  2  0  0  0  0  0  0
  183.4160  178.6270  138.7240 C   0  0  0  0  0  3  0  0  0  0  0  0
  182.9210  177.1810  138.7600 C   0  0  2  0  0  0  0  0  0  0  0  0
  182.8690  176.7500  140.2200 C   0  0  0  0  0  1  0  0  0  0  0  0
  185.8150  176.1290  136.2840 C   0  0  0  0  0  2  0  0  0  0  0  0
  184.6050  178.9920  138.2140 C   0  0  0  0  0  3  0  0  0  0  0  0
  183.1230  175.0140  137.3630 C   0  0  0  0  0  2  0  0  0  0  0  0
  184.7350  176.9060  136.9900 C   0  0  1  0  0  3  0  0  0  0  0  0
  187.3610  178.6280  139.6370 O   0  0  0  0  0  0  0  0  0  0  0  0
  190.5500  175.6800  142.3710 O   0  0  0  0  0  0  0  0  0  0  0  0
  189.6740  176.7800  139.8240 C   0  0  0  0  0  0  0  0  0  0  0  0
  189.1260  177.4100  138.6550 N   0  0  0  0  0  0  0  0  0  0  0  0
  187.8200  178.9160  137.2800 C   0  0  2  0  0  3  0  0  0  0  0  0
  189.0570  178.4350  136.5080 C   0  0  0  0  0  2  0  0  0  0  0  0
  189.5740  176.4740  142.3460 C   0  0  0  0  0  0  0  0  0  0  0  0
  188.8870  176.8330  143.6150 C   0  0  0  0  0  1  0  0  0  0  0  0
  189.1170  177.0470  141.1180 N   0  0  0  0  0  2  0  0  0  0  0  0
  190.6580  176.0010  139.7030 O   0  0  0  0  0  0  0  0  0  0  0  0
  188.0470  178.3310  138.6240 C   0  0  0  0  0  0  0  0  0  0  0  0
  189.7140  177.3180  137.3300 C   0  0  2  0  0  3  0  0  0  0  0  0
  189.4030  175.9910  136.7150 C   0  0  0  0  0  0  0  0  0  0  0  0
  189.7960  175.7430  135.5420 O   0  0  0  0  0  0  0  0  0  0  0  0
  188.6720  175.0440  137.4370 O   0  0  0  0  0  0  0  0  0  0  0  0
  188.7950  173.6480  137.2140 C   0  0  0  0  0  2  0  0  0  0  0  0
  188.5230  172.1640  135.2260 C   0  0  0  0  0  1  0  0  0  0  0  0
  187.8500  173.1970  136.1100 C   0  0  1  0  0  3  0  0  0  0  0  0
  185.8710  171.8530  136.0170 O   0  0  0  0  0  0  0  0  0  0  0  0
  186.5940  172.6360  136.6890 C   0  0  0  0  0  0  0  0  0  0  0  0
  186.2040  173.0000  137.9690 O   0  0  0  0  0  1  0  0  0  0  0  0
  180.4500  177.9280  138.9450 C   0  0  0  0  0  2  0  0  0  0  0  0
  179.9710  179.1140  138.1330 C   0  0  0  0  0  2  0  0  0  0  0  0
  180.4040  180.5280  140.1100 C   0  0  0  0  0  2  0  0  0  0  0  0
  180.0940  181.5170  139.0040 C   0  0  2  0  0  3  0  0  0  0  0  0
  179.3770  180.1650  139.0580 C   0  0  1  0  0  3  0  0  0  0  0  0
  181.1360  181.5260  138.0680 O   0  0  0  0  0  0  0  0  0  0  0  0
  179.7710  183.3700  137.4370 C   0  0  0  0  0  1  0  0  0  0  0  0
  181.1800  182.8380  137.5950 C   0  0  0  0  0  2  0  0  0  0  0  0
  179.7400  175.4040  138.2030 O   0  0  0  0  0  0  0  0  0  0  0  0
  179.4590  174.1850  140.4510 C   0  0  0  0  0  0  0  0  0  0  0  0
  179.3040  173.4920  141.7290 C   0  0  0  0  0  1  0  0  0  0  0  0
  179.5890  174.7580  139.3980 C   0  0  0  0  0  0  0  0  0  0  0  0
  1  2  1  0  0  0  0
  1  5  1  0  0  0  0
  1 44  1  1  0  0  0
  3  7  1  1  0  0  0
  3 19  1  0  0  0  0
  3  6  1  0  0  0  0
  4 13  1  6  0  0  0
  4  9  1  0  0  0  0
  5  9  1  0  0  0  0
  5 36  1  1  0  0  0
  6 12  1  6  0  0  0
  7 11  1  0  0  0  0
  8  9  1  0  0  0  0
  9 10  1  1  0  0  0
 12  8  2  0  0  0  0
 13  2  1  0  0  0  0
 14 11  1  1  0  0  0
 14  6  1  0  0  0  0
 14  4  1  0  0  0  0
 17 23  1  0  0  0  0
 18 17  1  0  0  0  0
 19 20  1  6  0  0  0
 19 25  1  0  0  0  0
 20 26  1  0  0  0  0
 21 16  2  0  0  0  0
 21 22  1  0  0  0  0
 23 21  1  0  0  0  0
 24 17  2  0  0  0  0
 25 18  1  0  0  0  0
 25 15  2  0  0  0  0
 26 27  1  6  0  0  0
 26 18  1  0  0  0  0
 27 29  1  0  0  0  0
 28 27  2  0  0  0  0
 30 29  1  0  0  0  0
 32 31  1  1  0  0  0
 32 34  1  0  0  0  0
 32 30  1  0  0  0  0
 33 34  2  0  0  0  0
 34 35  1  0  0  0  0
 37 36  1  0  0  0  0
 39 41  1  6  0  0  0
 39 40  1  0  0  0  0
 39 38  1  0  0  0  0
 40 37  1  6  0  0  0
 40 38  1  0  0  0  0
 42 43  1  0  0  0  0
 43 41  1  0  0  0  0
 44 47  1  0  0  0  0
 45 46  1  0  0  0  0
 47 45  3  0  0  0  0
M  END
>  <MODEL>
8

>  <REMARK>
 VINA RESULT:      -6.0      3.071      8.936
  Name = 
  13 active torsions:
  status: ('A' for Active; 'I' for Inactive)
    1  A    between atoms: O_2  and  C_30
    2  A    between atoms: O_2  and  C_42
    3  A    between atoms: C_4  and  O_39
    4  A    between atoms: O_9  and  C_12
    5  A    between atoms: O_9  and  C_25
    6  A    between atoms: C_10  and  C_13
    7  A    between atoms: C_12  and  C_19
    8  A    between atoms: C_14  and  C_24
    9  A    between atoms: C_14  and  C_45
   10  A    between atoms: C_18  and  C_19
   11  A    between atoms: C_20  and  C_24
   12  A    between atoms: C_25  and  C_46
   13  A    between atoms: C_31  and  O_39
                            x       y       z     vdW  Elec       q    Type
                         _______ _______ _______ _____ _____    ______ ____

>  <TORSDO>
F 13

$$$$
=
 OpenBabel11062417043D

 47 51  0  0  1  0  0  0  0  0999 V2000
  182.8850  178.1150  141.5940 C   0  0  2  0  0  3  0  0  0  0  0  0
  183.5000  179.3110  142.0060 O   0  0  0  0  0  0  0  0  0  0  0  0
  188.6970  177.5890  139.5490 C   0  0  2  0  0  3  0  0  0  0  0  0
  185.4950  179.0030  140.6990 C   0  0  1  0  0  3  0  0  0  0  0  0
  183.3410  177.6930  140.1710 C   0  0  2  0  0  3  0  0  0  0  0  0
  187.3520  178.2440  139.3330 C   0  0  1  0  0  3  0  0  0  0  0  0
  189.0820  177.9300  140.9270 N   0  0  0  0  0  2  0  0  0  0  0  0
  185.1230  177.8090  138.4280 C   0  0  0  0  0  3  0  0  0  0  0  0
  184.4730  178.5770  139.5800 C   0  0  2  0  0  0  0  0  0  0  0  0
  183.8820  179.8570  139.0050 C   0  0  0  0  0  1  0  0  0  0  0  0
  187.8800  178.4610  141.5790 C   0  0  0  0  0  2  0  0  0  0  0  0
  186.4480  177.6200  138.3180 C   0  0  0  0  0  3  0  0  0  0  0  0
  184.8670  179.0200  142.0980 C   0  0  0  0  0  2  0  0  0  0  0  0
  186.7280  178.1090  140.6740 C   0  0  1  0  0  3  0  0  0  0  0  0
  191.7560  177.1280  139.5210 O   0  0  0  0  0  0  0  0  0  0  0  0
  194.4590  173.8240  136.6720 O   0  0  0  0  0  0  0  0  0  0  0  0
  192.1140  175.5000  137.0670 C   0  0  0  0  0  0  0  0  0  0  0  0
  191.0280  176.3770  137.4080 N   0  0  0  0  0  0  0  0  0  0  0  0
  189.7560  178.0850  138.5590 C   0  0  2  0  0  3  0  0  0  0  0  0
  189.2560  177.9390  137.1140 C   0  0  0  0  0  2  0  0  0  0  0  0
  194.3620  174.5100  137.7230 C   0  0  0  0  0  0  0  0  0  0  0  0
  195.4440  174.4500  138.7400 C   0  0  0  0  0  1  0  0  0  0  0  0
  193.2320  175.3560  137.9530 N   0  0  0  0  0  2  0  0  0  0  0  0
  192.0810  174.8680  135.9760 O   0  0  0  0  0  0  0  0  0  0  0  0
  190.9280  177.1770  138.5750 C   0  0  0  0  0  0  0  0  0  0  0  0
  189.9310  176.6990  136.5110 C   0  0  2  0  0  3  0  0  0  0  0  0
  188.9530  175.5690  136.4590 C   0  0  0  0  0  0  0  0  0  0  0  0
  189.2410  174.4740  137.0140 O   0  0  0  0  0  0  0  0  0  0  0  0
  187.7390  175.7320  135.7880 O   0  0  0  0  0  0  0  0  0  0  0  0
  186.6500  174.8350  135.9460 C   0  0  0  0  0  2  0  0  0  0  0  0
  184.8260  173.7370  134.6440 C   0  0  0  0  0  1  0  0  0  0  0  0
  185.6530  174.9980  134.8080 C   0  0  1  0  0  3  0  0  0  0  0  0
  183.6540  176.0210  135.6390 O   0  0  0  0  0  1  0  0  0  0  0  0
  184.7610  176.1690  135.0530 C   0  0  0  0  0  0  0  0  0  0  0  0
  185.1390  177.4270  134.6110 O   0  0  0  0  0  0  0  0  0  0  0  0
  182.1930  177.4120  139.1980 C   0  0  0  0  0  2  0  0  0  0  0  0
  182.0290  175.9170  139.0170 C   0  0  0  0  0  2  0  0  0  0  0  0
  179.5860  176.2170  139.2140 C   0  0  0  0  0  2  0  0  0  0  0  0
  179.7540  174.7610  138.8320 C   0  0  2  0  0  3  0  0  0  0  0  0
  180.7770  175.4460  139.7420 C   0  0  1  0  0  3  0  0  0  0  0  0
  180.2020  174.6650  137.5090 O   0  0  0  0  0  0  0  0  0  0  0  0
  180.5400  172.9890  135.8540 C   0  0  0  0  0  1  0  0  0  0  0  0
  179.7400  173.4260  137.0630 C   0  0  0  0  0  2  0  0  0  0  0  0
  181.4720  178.2340  141.6940 O   0  0  0  0  0  0  0  0  0  0  0  0
  180.2490  180.2620  140.6880 C   0  0  0  0  0  0  0  0  0  0  0  0
  179.5550  181.4130  140.1120 C   0  0  0  0  0  1  0  0  0  0  0  0
  180.8210  179.3110  141.1610 C   0  0  0  0  0  0  0  0  0  0  0  0
  1 44  1  6  0  0  0
  1  2  1  0  0  0  0
  2 13  1  0  0  0  0
  3  7  1  1  0  0  0
  4 13  1  1  0  0  0
  5 36  1  6  0  0  0
  5  1  1  0  0  0  0
  6 12  1  6  0  0  0
  6  3  1  0  0  0  0
  6 14  1  0  0  0  0
  7 11  1  0  0  0  0
  8  9  1  0  0  0  0
  9 10  1  6  0  0  0
  9  5  1  0  0  0  0
  9  4  1  0  0  0  0
 12  8  2  0  0  0  0
 14  4  1  0  0  0  0
 14 11  1  1  0  0  0
 16 21  2  0  0  0  0
 17 18  1  0  0  0  0
 17 23  1  0  0  0  0
 18 25  1  0  0  0  0
 19 20  1  6  0  0  0
 19 25  1  0  0  0  0
 19  3  1  0  0  0  0
 21 23  1  0  0  0  0
 21 22  1  0  0  0  0
 24 17  2  0  0  0  0
 25 15  2  0  0  0  0
 26 27  1  1  0  0  0
 26 20  1  0  0  0  0
 26 18  1  0  0  0  0
 27 28  2  0  0  0  0
 29 30  1  0  0  0  0
 29 27  1  0  0  0  0
 32 31  1  1  0  0  0
 32 34  1  0  0  0  0
 32 30  1  0  0  0  0
 34 33  1  0  0  0  0
 35 34  2  0  0  0  0
 37 36  1  0  0  0  0
 38 40  1  0  0  0  0
 39 41  1  6  0  0  0
 39 38  1  0  0  0  0
 39 40  1  0  0  0  0
 40 37  1  6  0  0  0
 42 43  1  0  0  0  0
 43 41  1  0  0  0  0
 45 47  3  0  0  0  0
 46 45  1  0  0  0  0
 47 44  1  0  0  0  0
M  END
>  <MODEL>
9

>  <REMARK>
 VINA RESULT:      -5.9      3.778      9.060
  Name = 
  13 active torsions:
  status: ('A' for Active; 'I' for Inactive)
    1  A    between atoms: O_2  and  C_30
    2  A    between atoms: O_2  and  C_42
    3  A    between atoms: C_4  and  O_39
    4  A    between atoms: O_9  and  C_12
    5  A    between atoms: O_9  and  C_25
    6  A    between atoms: C_10  and  C_13
    7  A    between atoms: C_12  and  C_19
    8  A    between atoms: C_14  and  C_24
    9  A    between atoms: C_14  and  C_45
   10  A    between atoms: C_18  and  C_19
   11  A    between atoms: C_20  and  C_24
   12  A    between atoms: C_25  and  C_46
   13  A    between atoms: C_31  and  O_39
                            x       y       z     vdW  Elec       q    Type
                         _______ _______ _______ _____ _____    ______ ____

>  <TORSDO>
F 13

$$$$
