=
 OpenBabel11062412413D

 32 37  0  0  1  0  0  0  0  0999 V2000
  190.6080  178.0550  145.4110 C   0  0  0  0  0  3  0  0  0  0  0  0
  187.6040  177.6060  142.4410 C   0  0  0  0  0  3  0  0  0  0  0  0
  188.9780  177.5150  142.1610 C   0  0  0  0  0  0  0  0  0  0  0  0
  188.0670  177.9500  144.8240 C   0  0  0  0  0  0  0  0  0  0  0  0
  185.6790  177.9490  144.0620 C   0  0  2  0  0  3  0  0  0  0  0  0
  191.2450  177.6610  143.1670 O   0  0  0  0  0  0  0  0  0  0  0  0
  187.1460  177.8540  143.7500 C   0  0  0  0  0  0  0  0  0  0  0  0
  184.6280  178.4950  142.6880 S   0  0  0  0  0  0  0  0  0  0  0  0
  184.0440  178.9810  145.2930 C   0  0  0  0  0  2  0  0  0  0  0  0
  187.5770  178.1910  146.2500 C   0  0  1  0  0  3  0  0  0  0  0  0
  185.4820  178.8850  145.1540 N   0  0  1  0  0  0  0  0  0  0  0  0
  191.8060  177.8780  144.4590 C   0  0  0  0  0  3  0  0  0  0  0  0
  186.0390  178.2630  146.3470 C   0  0  0  0  0  2  0  0  0  0  0  0
  189.8680  177.6800  143.2290 C   0  0  0  0  0  0  0  0  0  0  0  0
  189.4340  177.8930  144.5100 C   0  0  0  0  0  0  0  0  0  0  0  0
  183.4620  179.1940  143.9040 C   0  0  2  0  0  3  0  0  0  0  0  0
  187.9070  177.4960  148.6110 C   0  0  0  0  0  2  0  0  0  0  0  0
  189.1460  177.5990  147.9580 O   0  0  0  0  0  0  0  0  0  0  0  0
  188.0750  177.0980  147.1930 C   0  0  2  0  0  3  0  0  0  0  0  0
  190.2030  176.2890  140.5490 O   0  0  0  0  0  0  0  0  0  0  0  0
  189.4400  177.2660  140.7810 C   0  0  0  0  0  0  0  0  0  0  0  0
  189.0290  178.1180  139.7450 O   0  0  0  0  0  0  0  0  0  0  0  0
  187.9720  177.8690  138.8610 C   0  0  0  0  0  0  0  0  0  0  0  0
  186.9310  178.5700  138.9380 O   0  0  0  0  0  0  0  0  0  0  0  0
  188.0450  176.8400  137.8760 N   0  0  0  0  0  1  0  0  0  0  0  0
  182.2020  178.5390  143.8120 O   0  0  0  0  0  0  0  0  0  0  0  0
  179.0280  180.0860  142.6430 C   0  0  0  0  0  3  0  0  0  0  0  0
  179.1210  179.8470  141.2700 C   0  0  0  0  0  3  0  0  0  0  0  0
  180.0460  179.6560  143.4980 C   0  0  0  0  0  3  0  0  0  0  0  0
  180.2330  179.1760  140.7520 C   0  0  0  0  0  3  0  0  0  0  0  0
  181.2520  178.7460  141.6070 C   0  0  0  0  0  3  0  0  0  0  0  0
  181.1670  178.9840  142.9840 C   0  0  0  0  0  0  0  0  0  0  0  0
  2  7  1  0  0  0  0
  3  2  2  0  0  0  0
  3 14  1  0  0  0  0
  4 10  1  0  0  0  0
  5  8  1  6  0  0  0
  5 11  1  0  0  0  0
  6 14  1  0  0  0  0
  6 12  1  0  0  0  0
  7  5  1  0  0  0  0
  7  4  2  0  0  0  0
  8 16  1  0  0  0  0
 10 13  1  6  0  0  0
 10 19  1  0  0  0  0
 11  9  1  1  0  0  0
 11 13  1  0  0  0  0
 12  1  2  0  0  0  0
 14 15  2  0  0  0  0
 15  4  1  0  0  0  0
 15  1  1  0  0  0  0
 16 26  1  1  0  0  0
 16  9  1  0  0  0  0
 18 17  1  0  0  0  0
 19 18  1  0  0  0  0
 19 17  1  1  0  0  0
 20 21  2  0  0  0  0
 21  3  1  0  0  0  0
 22 21  1  0  0  0  0
 23 24  2  0  0  0  0
 23 22  1  0  0  0  0
 25 23  1  0  0  0  0
 27 29  1  0  0  0  0
 28 27  2  0  0  0  0
 30 28  1  0  0  0  0
 30 31  2  0  0  0  0
 31 32  1  0  0  0  0
 32 29  2  0  0  0  0
 32 26  1  0  0  0  0
M  END
>  <MODEL>
1

>  <REMARK>
 VINA RESULT:      -9.0      0.000      0.000
  Name = 
  6 active torsions:
  status: ('A' for Active; 'I' for Inactive)
    1  A    between atoms: C_4  and  C_25
    2  A    between atoms: C_9  and  O_22
    3  A    between atoms: O_15  and  C_31
    4  A    between atoms: O_15  and  C_32
    5  A    between atoms: C_17  and  C_29
    6  A    between atoms: O_22  and  C_25
                            x       y       z     vdW  Elec       q    Type
                         _______ _______ _______ _____ _____    ______ ____

>  <TORSDO>
F 6

$$$$
=
 OpenBabel11062412413D

 32 37  0  0  1  0  0  0  0  0999 V2000
  185.1690  179.0490  145.4610 C   0  0  0  0  0  3  0  0  0  0  0  0
  188.8090  177.1650  144.3440 C   0  0  0  0  0  3  0  0  0  0  0  0
  188.4240  177.3550  145.6820 C   0  0  0  0  0  0  0  0  0  0  0  0
  186.7200  178.1750  143.5520 C   0  0  0  0  0  0  0  0  0  0  0  0
  188.3860  177.3940  141.8500 C   0  0  2  0  0  3  0  0  0  0  0  0
  186.6530  178.3010  147.1450 O   0  0  0  0  0  0  0  0  0  0  0  0
  187.9870  177.5970  143.2850 C   0  0  0  0  0  0  0  0  0  0  0  0
  190.1730  177.3140  141.5470 S   0  0  0  0  0  0  0  0  0  0  0  0
  188.3940  178.2490  139.7230 C   0  0  0  0  0  2  0  0  0  0  0  0
  185.8110  178.6210  142.4090 C   0  0  1  0  0  3  0  0  0  0  0  0
  187.8610  178.4850  141.0490 N   0  0  1  0  0  0  0  0  0  0  0  0
  185.3980  178.9540  146.9820 C   0  0  0  0  0  3  0  0  0  0  0  0
  186.4140  178.3270  141.0190 C   0  0  0  0  0  2  0  0  0  0  0  0
  187.1980  177.9890  145.9180 C   0  0  0  0  0  0  0  0  0  0  0  0
  186.3780  178.3880  144.8980 C   0  0  0  0  0  0  0  0  0  0  0  0
  189.8820  177.9710  139.8690 C   0  0  2  0  0  3  0  0  0  0  0  0
  183.5310  178.4390  141.4420 C   0  0  0  0  0  2  0  0  0  0  0  0
  183.4620  178.9220  142.7600 O   0  0  0  0  0  0  0  0  0  0  0  0
  184.4440  177.9460  142.5010 C   0  0  2  0  0  3  0  0  0  0  0  0
  188.8210  176.2200  147.7200 O   0  0  0  0  0  0  0  0  0  0  0  0
  189.3040  176.9070  146.7790 C   0  0  0  0  0  0  0  0  0  0  0  0
  190.6640  177.2500  146.7660 O   0  0  0  0  0  0  0  0  0  0  0  0
  191.7270  176.3500  146.6190 C   0  0  0  0  0  0  0  0  0  0  0  0
  191.9530  175.8480  145.4880 O   0  0  0  0  0  0  0  0  0  0  0  0
  192.5590  175.9850  147.7180 N   0  0  0  0  0  1  0  0  0  0  0  0
  190.2840  177.0190  138.8910 O   0  0  0  0  0  0  0  0  0  0  0  0
  188.8140  177.6400  135.5310 C   0  0  0  0  0  3  0  0  0  0  0  0
  188.2310  176.3960  135.2770 C   0  0  0  0  0  3  0  0  0  0  0  0
  189.4990  177.8590  136.7290 C   0  0  0  0  0  3  0  0  0  0  0  0
  188.3320  175.3710  136.2220 C   0  0  0  0  0  3  0  0  0  0  0  0
  189.0190  175.5890  137.4210 C   0  0  0  0  0  3  0  0  0  0  0  0
  189.6080  176.8320  137.6810 C   0  0  0  0  0  0  0  0  0  0  0  0
  1 12  2  0  0  0  0
  2  3  1  0  0  0  0
  3 14  2  0  0  0  0
  3 21  1  0  0  0  0
  4 15  2  0  0  0  0
  5  8  1  1  0  0  0
  5  7  1  0  0  0  0
  7  4  1  0  0  0  0
  7  2  2  0  0  0  0
  9 16  1  0  0  0  0
 10 13  1  6  0  0  0
 10 19  1  0  0  0  0
 10  4  1  0  0  0  0
 11  9  1  6  0  0  0
 11  5  1  0  0  0  0
 12  6  1  0  0  0  0
 13 11  1  0  0  0  0
 14  6  1  0  0  0  0
 15  1  1  0  0  0  0
 15 14  1  0  0  0  0
 16 26  1  6  0  0  0
 16  8  1  0  0  0  0
 17 18  1  0  0  0  0
 19 17  1  6  0  0  0
 19 18  1  0  0  0  0
 21 20  2  0  0  0  0
 22 21  1  0  0  0  0
 23 22  1  0  0  0  0
 23 25  1  0  0  0  0
 24 23  2  0  0  0  0
 27 29  1  0  0  0  0
 28 27  2  0  0  0  0
 28 30  1  0  0  0  0
 29 32  2  0  0  0  0
 30 31  2  0  0  0  0
 31 32  1  0  0  0  0
 32 26  1  0  0  0  0
M  END
>  <MODEL>
2

>  <REMARK>
 VINA RESULT:      -8.9      2.710      7.446
  Name = 
  6 active torsions:
  status: ('A' for Active; 'I' for Inactive)
    1  A    between atoms: C_4  and  C_25
    2  A    between atoms: C_9  and  O_22
    3  A    between atoms: O_15  and  C_31
    4  A    between atoms: O_15  and  C_32
    5  A    between atoms: C_17  and  C_29
    6  A    between atoms: O_22  and  C_25
                            x       y       z     vdW  Elec       q    Type
                         _______ _______ _______ _____ _____    ______ ____

>  <TORSDO>
F 6

$$$$
=
 OpenBabel11062412413D

 32 37  0  0  1  0  0  0  0  0999 V2000
  190.5070  178.0050  145.2870 C   0  0  0  0  0  3  0  0  0  0  0  0
  187.4690  177.6640  142.3360 C   0  0  0  0  0  3  0  0  0  0  0  0
  188.8380  177.5640  142.0400 C   0  0  0  0  0  0  0  0  0  0  0  0
  187.9590  177.9420  144.7230 C   0  0  0  0  0  0  0  0  0  0  0  0
  185.5640  177.9860  143.9850 C   0  0  2  0  0  3  0  0  0  0  0  0
  191.1170  177.6610  143.0270 O   0  0  0  0  0  0  0  0  0  0  0  0
  187.0260  177.8830  143.6560 C   0  0  0  0  0  0  0  0  0  0  0  0
  184.5050  178.5780  142.6360 S   0  0  0  0  0  0  0  0  0  0  0  0
  183.9520  179.0040  145.2580 C   0  0  0  0  0  2  0  0  0  0  0  0
  187.4860  178.1530  146.1600 C   0  0  1  0  0  3  0  0  0  0  0  0
  185.3880  178.8960  145.1020 N   0  0  1  0  0  0  0  0  0  0  0  0
  191.6930  177.8390  144.3180 C   0  0  0  0  0  3  0  0  0  0  0  0
  185.9490  178.2390  146.2740 C   0  0  0  0  0  2  0  0  0  0  0  0
  189.7410  177.6930  143.1040 C   0  0  0  0  0  0  0  0  0  0  0  0
  189.3230  177.8780  144.3930 C   0  0  0  0  0  0  0  0  0  0  0  0
  183.3590  179.2590  143.8810 C   0  0  2  0  0  3  0  0  0  0  0  0
  187.8910  177.4190  148.4960 C   0  0  0  0  0  2  0  0  0  0  0  0
  189.1040  177.4810  147.7910 O   0  0  0  0  0  0  0  0  0  0  0  0
  187.9810  177.0310  147.0690 C   0  0  2  0  0  3  0  0  0  0  0  0
  188.8040  178.0570  139.7250 O   0  0  0  0  0  0  0  0  0  0  0  0
  189.2850  177.3460  140.6500 C   0  0  0  0  0  0  0  0  0  0  0  0
  190.2350  176.3530  140.3720 O   0  0  0  0  0  0  0  0  0  0  0  0
  190.9350  176.2140  139.1660 C   0  0  0  0  0  0  0  0  0  0  0  0
  191.8980  176.9860  138.9250 O   0  0  0  0  0  0  0  0  0  0  0  0
  190.5830  175.2210  138.2050 N   0  0  0  0  0  1  0  0  0  0  0  0
  182.0910  178.6200  143.7850 O   0  0  0  0  0  0  0  0  0  0  0  0
  179.2510  180.4590  142.2400 C   0  0  0  0  0  3  0  0  0  0  0  0
  179.1280  179.7650  141.0340 C   0  0  0  0  0  3  0  0  0  0  0  0
  180.2320  180.0870  143.1630 C   0  0  0  0  0  3  0  0  0  0  0  0
  179.9870  178.6990  140.7500 C   0  0  0  0  0  3  0  0  0  0  0  0
  180.9700  178.3270  141.6730 C   0  0  0  0  0  3  0  0  0  0  0  0
  181.1000  179.0180  142.8830 C   0  0  0  0  0  0  0  0  0  0  0  0
  2  7  1  0  0  0  0
  3  2  2  0  0  0  0
  3 14  1  0  0  0  0
  4 10  1  0  0  0  0
  5  8  1  6  0  0  0
  5 11  1  0  0  0  0
  6 14  1  0  0  0  0
  6 12  1  0  0  0  0
  7  5  1  0  0  0  0
  7  4  2  0  0  0  0
  8 16  1  0  0  0  0
 10 13  1  6  0  0  0
 10 19  1  0  0  0  0
 11  9  1  1  0  0  0
 11 13  1  0  0  0  0
 12  1  2  0  0  0  0
 14 15  2  0  0  0  0
 15  4  1  0  0  0  0
 15  1  1  0  0  0  0
 16 26  1  1  0  0  0
 16  9  1  0  0  0  0
 18 17  1  0  0  0  0
 19 18  1  0  0  0  0
 19 17  1  1  0  0  0
 20 21  2  0  0  0  0
 21  3  1  0  0  0  0
 22 21  1  0  0  0  0
 23 22  1  0  0  0  0
 24 23  2  0  0  0  0
 25 23  1  0  0  0  0
 27 29  1  0  0  0  0
 28 27  2  0  0  0  0
 30 28  1  0  0  0  0
 30 31  2  0  0  0  0
 31 32  1  0  0  0  0
 32 29  2  0  0  0  0
 32 26  1  0  0  0  0
M  END
>  <MODEL>
3

>  <REMARK>
 VINA RESULT:      -8.8      0.849      1.376
  Name = 
  6 active torsions:
  status: ('A' for Active; 'I' for Inactive)
    1  A    between atoms: C_4  and  C_25
    2  A    between atoms: C_9  and  O_22
    3  A    between atoms: O_15  and  C_31
    4  A    between atoms: O_15  and  C_32
    5  A    between atoms: C_17  and  C_29
    6  A    between atoms: O_22  and  C_25
                            x       y       z     vdW  Elec       q    Type
                         _______ _______ _______ _____ _____    ______ ____

>  <TORSDO>
F 6

$$$$
=
 OpenBabel11062412413D

 32 37  0  0  1  0  0  0  0  0999 V2000
  190.0140  176.2240  135.4590 C   0  0  0  0  0  3  0  0  0  0  0  0
  192.1760  176.6100  139.0960 C   0  0  0  0  0  3  0  0  0  0  0  0
  192.7550  176.1340  137.9070 C   0  0  0  0  0  0  0  0  0  0  0  0
  190.0320  176.9680  137.9610 C   0  0  0  0  0  0  0  0  0  0  0  0
  190.1930  177.5080  140.4040 C   0  0  2  0  0  3  0  0  0  0  0  0
  192.2920  175.5890  135.5280 O   0  0  0  0  0  0  0  0  0  0  0  0
  190.8220  176.9930  139.1400 C   0  0  0  0  0  0  0  0  0  0  0  0
  190.9460  176.9110  141.9420 S   0  0  0  0  0  0  0  0  0  0  0  0
  188.3230  177.5710  141.7280 C   0  0  0  0  0  2  0  0  0  0  0  0
  188.5700  177.4070  137.9940 C   0  0  1  0  0  3  0  0  0  0  0  0
  188.7940  177.1250  140.4320 N   0  0  1  0  0  0  0  0  0  0  0  0
  191.1830  175.6520  134.6350 C   0  0  0  0  0  3  0  0  0  0  0  0
  188.1260  177.8930  139.3900 C   0  0  0  0  0  2  0  0  0  0  0  0
  191.9350  176.0560  136.7750 C   0  0  0  0  0  0  0  0  0  0  0  0
  190.6250  176.4520  136.7980 C   0  0  0  0  0  0  0  0  0  0  0  0
  189.3300  177.1040  142.7670 C   0  0  2  0  0  3  0  0  0  0  0  0
  186.8580  178.7150  136.7610 C   0  0  0  0  0  2  0  0  0  0  0  0
  187.6520  177.9850  135.8600 O   0  0  0  0  0  0  0  0  0  0  0  0
  188.3110  178.5220  136.9840 C   0  0  2  0  0  3  0  0  0  0  0  0
  194.7980  175.7170  136.7870 O   0  0  0  0  0  0  0  0  0  0  0  0
  194.1730  175.7250  137.8830 C   0  0  0  0  0  0  0  0  0  0  0  0
  194.8110  175.3500  139.0740 O   0  0  0  0  0  0  0  0  0  0  0  0
  195.8720  174.4420  139.1770 C   0  0  0  0  0  0  0  0  0  0  0  0
  195.6350  173.2100  139.0930 O   0  0  0  0  0  0  0  0  0  0  0  0
  197.2160  174.8780  139.3750 N   0  0  0  0  0  1  0  0  0  0  0  0
  189.4200  178.0700  143.8080 O   0  0  0  0  0  0  0  0  0  0  0  0
  187.4990  177.5990  146.9580 C   0  0  0  0  0  3  0  0  0  0  0  0
  188.5260  177.2220  147.8260 C   0  0  0  0  0  3  0  0  0  0  0  0
  187.7840  177.8830  145.6200 C   0  0  0  0  0  3  0  0  0  0  0  0
  189.8400  177.1300  147.3570 C   0  0  0  0  0  3  0  0  0  0  0  0
  190.1250  177.4140  146.0170 C   0  0  0  0  0  3  0  0  0  0  0  0
  189.1010  177.7900  145.1410 C   0  0  0  0  0  0  0  0  0  0  0  0
  1 15  1  0  0  0  0
  2  7  1  0  0  0  0
  3  2  2  0  0  0  0
  4 10  1  0  0  0  0
  4  7  2  0  0  0  0
  5  7  1  6  0  0  0
  5 11  1  0  0  0  0
  5  8  1  0  0  0  0
  6 14  1  0  0  0  0
  8 16  1  0  0  0  0
  9 16  1  0  0  0  0
 10 13  1  1  0  0  0
 11 13  1  6  0  0  0
 11  9  1  0  0  0  0
 12  1  2  0  0  0  0
 12  6  1  0  0  0  0
 14 15  2  0  0  0  0
 14  3  1  0  0  0  0
 15  4  1  0  0  0  0
 16 26  1  1  0  0  0
 18 17  1  0  0  0  0
 18 19  1  0  0  0  0
 19 17  1  1  0  0  0
 19 10  1  0  0  0  0
 20 21  2  0  0  0  0
 21  3  1  0  0  0  0
 21 22  1  0  0  0  0
 22 23  1  0  0  0  0
 23 25  1  0  0  0  0
 24 23  2  0  0  0  0
 26 32  1  0  0  0  0
 27 28  1  0  0  0  0
 29 27  2  0  0  0  0
 30 28  2  0  0  0  0
 31 30  1  0  0  0  0
 32 29  1  0  0  0  0
 32 31  2  0  0  0  0
M  END
>  <MODEL>
4

>  <REMARK>
 VINA RESULT:      -8.3      4.577      8.450
  Name = 
  6 active torsions:
  status: ('A' for Active; 'I' for Inactive)
    1  A    between atoms: C_4  and  C_25
    2  A    between atoms: C_9  and  O_22
    3  A    between atoms: O_15  and  C_31
    4  A    between atoms: O_15  and  C_32
    5  A    between atoms: C_17  and  C_29
    6  A    between atoms: O_22  and  C_25
                            x       y       z     vdW  Elec       q    Type
                         _______ _______ _______ _____ _____    ______ ____

>  <TORSDO>
F 6

$$$$
=
 OpenBabel11062412413D

 32 37  0  0  1  0  0  0  0  0999 V2000
  186.7500  178.6700  147.2250 C   0  0  0  0  0  3  0  0  0  0  0  0
  189.1420  176.9400  144.1690 C   0  0  0  0  0  3  0  0  0  0  0  0
  189.5190  176.9520  145.5220 C   0  0  0  0  0  0  0  0  0  0  0  0
  187.0230  178.0520  144.7030 C   0  0  0  0  0  0  0  0  0  0  0  0
  187.5080  177.5000  142.3070 C   0  0  2  0  0  3  0  0  0  0  0  0
  188.8320  177.7000  147.7900 O   0  0  0  0  0  0  0  0  0  0  0  0
  187.9240  177.5110  143.7510 C   0  0  0  0  0  0  0  0  0  0  0  0
  188.8700  177.4560  141.1090 S   0  0  0  0  0  0  0  0  0  0  0  0
  186.4770  178.6290  140.5990 C   0  0  0  0  0  2  0  0  0  0  0  0
  185.6880  178.6490  144.2610 C   0  0  1  0  0  3  0  0  0  0  0  0
  186.7250  178.6890  142.0250 N   0  0  1  0  0  0  0  0  0  0  0  0
  187.7240  178.3730  148.3800 C   0  0  0  0  0  3  0  0  0  0  0  0
  185.4640  178.5410  142.7380 C   0  0  0  0  0  2  0  0  0  0  0  0
  188.6400  177.5520  146.4330 C   0  0  0  0  0  0  0  0  0  0  0  0
  187.4420  178.0850  146.0430 C   0  0  0  0  0  0  0  0  0  0  0  0
  187.8010  178.3300  139.9150 C   0  0  2  0  0  3  0  0  0  0  0  0
  183.2350  178.6280  144.6420 C   0  0  0  0  0  2  0  0  0  0  0  0
  183.9100  178.8980  145.8440 O   0  0  0  0  0  0  0  0  0  0  0  0
  184.5220  177.9720  144.9760 C   0  0  2  0  0  3  0  0  0  0  0  0
  191.7040  176.1570  145.0810 O   0  0  0  0  0  0  0  0  0  0  0  0
  190.8040  176.3590  145.9420 C   0  0  0  0  0  0  0  0  0  0  0  0
  191.0120  176.0280  147.2880 O   0  0  0  0  0  0  0  0  0  0  0  0
  192.1120  176.4210  148.0610 C   0  0  0  0  0  0  0  0  0  0  0  0
  192.0550  177.5030  148.7000 O   0  0  0  0  0  0  0  0  0  0  0  0
  193.2940  175.6280  148.1420 N   0  0  0  0  0  1  0  0  0  0  0  0
  187.5710  177.5160  138.7710 O   0  0  0  0  0  0  0  0  0  0  0  0
  189.4210  174.8590  136.9410 C   0  0  0  0  0  3  0  0  0  0  0  0
  190.6690  175.4700  136.8030 C   0  0  0  0  0  3  0  0  0  0  0  0
  188.3830  175.5290  137.5930 C   0  0  0  0  0  3  0  0  0  0  0  0
  190.8810  176.7530  137.3180 C   0  0  0  0  0  3  0  0  0  0  0  0
  189.8420  177.4240  137.9710 C   0  0  0  0  0  3  0  0  0  0  0  0
  188.5870  176.8190  138.1110 C   0  0  0  0  0  0  0  0  0  0  0  0
  1 12  2  0  0  0  0
  2  3  1  0  0  0  0
  3 21  1  0  0  0  0
  3 14  2  0  0  0  0
  4 15  2  0  0  0  0
  5  8  1  6  0  0  0
  5  7  1  0  0  0  0
  6 12  1  0  0  0  0
  7  2  2  0  0  0  0
  7  4  1  0  0  0  0
 10 13  1  6  0  0  0
 10  4  1  0  0  0  0
 10 19  1  0  0  0  0
 11  9  1  6  0  0  0
 11  5  1  0  0  0  0
 11 13  1  0  0  0  0
 14  6  1  0  0  0  0
 15 14  1  0  0  0  0
 15  1  1  0  0  0  0
 16 26  1  6  0  0  0
 16  9  1  0  0  0  0
 16  8  1  0  0  0  0
 17 18  1  0  0  0  0
 19 17  1  6  0  0  0
 19 18  1  0  0  0  0
 20 21  2  0  0  0  0
 21 22  1  0  0  0  0
 22 23  1  0  0  0  0
 23 25  1  0  0  0  0
 23 24  2  0  0  0  0
 27 29  1  0  0  0  0
 28 27  2  0  0  0  0
 28 30  1  0  0  0  0
 29 32  2  0  0  0  0
 30 31  2  0  0  0  0
 31 32  1  0  0  0  0
 32 26  1  0  0  0  0
M  END
>  <MODEL>
5

>  <REMARK>
 VINA RESULT:      -8.2      2.723      7.136
  Name = 
  6 active torsions:
  status: ('A' for Active; 'I' for Inactive)
    1  A    between atoms: C_4  and  C_25
    2  A    between atoms: C_9  and  O_22
    3  A    between atoms: O_15  and  C_31
    4  A    between atoms: O_15  and  C_32
    5  A    between atoms: C_17  and  C_29
    6  A    between atoms: O_22  and  C_25
                            x       y       z     vdW  Elec       q    Type
                         _______ _______ _______ _____ _____    ______ ____

>  <TORSDO>
F 6

$$$$
=
 OpenBabel11062412413D

 32 37  0  0  1  0  0  0  0  0999 V2000
  187.4990  177.1650  146.0480 C   0  0  0  0  0  3  0  0  0  0  0  0
  186.8890  178.2490  141.9850 C   0  0  0  0  0  3  0  0  0  0  0  0
  185.8930  178.3700  142.9680 C   0  0  0  0  0  0  0  0  0  0  0  0
  188.4930  177.4290  143.6490 C   0  0  0  0  0  0  0  0  0  0  0  0
  189.2430  177.6230  141.2650 C   0  0  2  0  0  3  0  0  0  0  0  0
  185.3860  177.9870  145.3710 O   0  0  0  0  0  0  0  0  0  0  0  0
  188.1680  177.7530  142.3070 C   0  0  0  0  0  0  0  0  0  0  0  0
  188.6510  177.3800  139.5680 S   0  0  0  0  0  0  0  0  0  0  0  0
  191.0100  176.3950  140.4760 C   0  0  0  0  0  2  0  0  0  0  0  0
  189.8850  176.9160  144.0110 C   0  0  1  0  0  3  0  0  0  0  0  0
  190.0910  176.4920  141.5920 N   0  0  1  0  0  0  0  0  0  0  0  0
  186.0730  177.5070  146.5230 C   0  0  0  0  0  3  0  0  0  0  0  0
  190.8310  176.8530  142.7930 C   0  0  0  0  0  2  0  0  0  0  0  0
  186.2200  177.9800  144.2730 C   0  0  0  0  0  0  0  0  0  0  0  0
  187.4670  177.5230  144.6030 C   0  0  0  0  0  0  0  0  0  0  0  0
  190.1910  176.4720  139.1980 C   0  0  2  0  0  3  0  0  0  0  0  0
  191.6800  177.1030  145.7150 C   0  0  0  0  0  2  0  0  0  0  0  0
  190.4190  177.1480  146.3320 O   0  0  0  0  0  0  0  0  0  0  0  0
  190.5290  177.7910  145.0840 C   0  0  2  0  0  3  0  0  0  0  0  0
  184.0080  179.7530  143.3400 O   0  0  0  0  0  0  0  0  0  0  0  0
  184.5540  178.8800  142.6110 C   0  0  0  0  0  0  0  0  0  0  0  0
  183.9040  178.3910  141.4690 O   0  0  0  0  0  0  0  0  0  0  0  0
  183.5630  179.1490  140.3420 C   0  0  0  0  0  0  0  0  0  0  0  0
  182.3490  179.3000  140.0500 O   0  0  0  0  0  0  0  0  0  0  0  0
  184.5550  179.7530  139.5150 N   0  0  0  0  0  1  0  0  0  0  0  0
  190.9370  177.1540  138.1970 O   0  0  0  0  0  0  0  0  0  0  0  0
  193.9670  175.7200  136.5870 C   0  0  0  0  0  3  0  0  0  0  0  0
  193.4050  175.1810  135.4270 C   0  0  0  0  0  3  0  0  0  0  0  0
  193.1560  176.3780  137.5150 C   0  0  0  0  0  3  0  0  0  0  0  0
  192.0320  175.3010  135.1940 C   0  0  0  0  0  3  0  0  0  0  0  0
  191.2200  175.9600  136.1240 C   0  0  0  0  0  3  0  0  0  0  0  0
  191.7750  176.5000  137.2890 C   0  0  0  0  0  0  0  0  0  0  0  0
  1 12  2  0  0  0  0
  2  7  2  0  0  0  0
  2  3  1  0  0  0  0
  3 14  2  0  0  0  0
  4 10  1  0  0  0  0
  4 15  2  0  0  0  0
  5  8  1  6  0  0  0
  5 11  1  0  0  0  0
  5  7  1  0  0  0  0
  6 12  1  0  0  0  0
  7  4  1  0  0  0  0
 10 13  1  6  0  0  0
 10 19  1  0  0  0  0
 11  9  1  6  0  0  0
 11 13  1  0  0  0  0
 14 15  1  0  0  0  0
 14  6  1  0  0  0  0
 15  1  1  0  0  0  0
 16 26  1  6  0  0  0
 16  8  1  0  0  0  0
 16  9  1  0  0  0  0
 17 18  1  0  0  0  0
 19 17  1  6  0  0  0
 19 18  1  0  0  0  0
 21  3  1  0  0  0  0
 21 20  2  0  0  0  0
 22 21  1  0  0  0  0
 23 22  1  0  0  0  0
 24 23  2  0  0  0  0
 25 23  1  0  0  0  0
 27 29  1  0  0  0  0
 28 27  2  0  0  0  0
 30 28  1  0  0  0  0
 30 31  2  0  0  0  0
 31 32  1  0  0  0  0
 32 29  2  0  0  0  0
 32 26  1  0  0  0  0
M  END
>  <MODEL>
6

>  <REMARK>
 VINA RESULT:      -7.9      3.268      7.863
  Name = 
  6 active torsions:
  status: ('A' for Active; 'I' for Inactive)
    1  A    between atoms: C_4  and  C_25
    2  A    between atoms: C_9  and  O_22
    3  A    between atoms: O_15  and  C_31
    4  A    between atoms: O_15  and  C_32
    5  A    between atoms: C_17  and  C_29
    6  A    between atoms: O_22  and  C_25
                            x       y       z     vdW  Elec       q    Type
                         _______ _______ _______ _____ _____    ______ ____

>  <TORSDO>
F 6

$$$$
=
 OpenBabel11062412413D

 32 37  0  0  1  0  0  0  0  0999 V2000
  189.0250  176.9890  147.0130 C   0  0  0  0  0  3  0  0  0  0  0  0
  186.7100  178.5570  143.8140 C   0  0  0  0  0  3  0  0  0  0  0  0
  186.2260  178.4490  145.1280 C   0  0  0  0  0  0  0  0  0  0  0  0
  188.8930  177.6720  144.4960 C   0  0  0  0  0  0  0  0  0  0  0  0
  188.5470  178.2600  142.0850 C   0  0  2  0  0  3  0  0  0  0  0  0
  186.8050  177.6940  147.4240 O   0  0  0  0  0  0  0  0  0  0  0  0
  188.0170  178.1450  143.4860 C   0  0  0  0  0  0  0  0  0  0  0  0
  187.2940  178.1980  140.7740 S   0  0  0  0  0  0  0  0  0  0  0  0
  189.8400  177.3230  140.4410 C   0  0  0  0  0  2  0  0  0  0  0  0
  190.3190  177.2470  144.1540 C   0  0  1  0  0  3  0  0  0  0  0  0
  189.4830  177.1800  141.8370 N   0  0  1  0  0  0  0  0  0  0  0  0
  187.9300  177.1270  148.0880 C   0  0  0  0  0  3  0  0  0  0  0  0
  190.6550  177.4410  142.6610 C   0  0  0  0  0  2  0  0  0  0  0  0
  187.0900  177.9160  146.0930 C   0  0  0  0  0  0  0  0  0  0  0  0
  188.3700  177.5380  145.7930 C   0  0  0  0  0  0  0  0  0  0  0  0
  188.5520  177.4980  139.6530 C   0  0  2  0  0  3  0  0  0  0  0  0
  191.3420  179.4600  144.6240 C   0  0  0  0  0  2  0  0  0  0  0  0
  192.3140  178.5700  144.1350 O   0  0  0  0  0  0  0  0  0  0  0  0
  191.3360  178.0230  144.9880 C   0  0  2  0  0  3  0  0  0  0  0  0
  184.3760  178.6280  146.5940 O   0  0  0  0  0  0  0  0  0  0  0  0
  184.8500  178.8750  145.4510 C   0  0  0  0  0  0  0  0  0  0  0  0
  184.0860  179.5490  144.4880 O   0  0  0  0  0  0  0  0  0  0  0  0
  183.1520  178.9540  143.6300 C   0  0  0  0  0  0  0  0  0  0  0  0
  183.5080  178.6290  142.4680 O   0  0  0  0  0  0  0  0  0  0  0  0
  181.8080  178.7070  144.0380 N   0  0  0  0  0  1  0  0  0  0  0  0
  188.7800  178.3780  138.5580 O   0  0  0  0  0  0  0  0  0  0  0  0
  189.0740  177.2240  135.0340 C   0  0  0  0  0  3  0  0  0  0  0  0
  187.7630  177.4250  134.5940 C   0  0  0  0  0  3  0  0  0  0  0  0
  189.4230  177.5370  136.3510 C   0  0  0  0  0  3  0  0  0  0  0  0
  186.8020  177.9400  135.4690 C   0  0  0  0  0  3  0  0  0  0  0  0
  187.1520  178.2530  136.7860 C   0  0  0  0  0  3  0  0  0  0  0  0
  188.4620  178.0520  137.2360 C   0  0  0  0  0  0  0  0  0  0  0  0
  1 12  2  0  0  0  0
  2  3  1  0  0  0  0
  3 21  1  0  0  0  0
  3 14  2  0  0  0  0
  4 15  2  0  0  0  0
  5  8  1  6  0  0  0
  5  7  1  0  0  0  0
  6 12  1  0  0  0  0
  7  2  2  0  0  0  0
  7  4  1  0  0  0  0
 10 13  1  6  0  0  0
 10  4  1  0  0  0  0
 10 19  1  0  0  0  0
 11  9  1  6  0  0  0
 11  5  1  0  0  0  0
 11 13  1  0  0  0  0
 14  6  1  0  0  0  0
 15 14  1  0  0  0  0
 15  1  1  0  0  0  0
 16 26  1  6  0  0  0
 16  9  1  0  0  0  0
 16  8  1  0  0  0  0
 18 17  1  0  0  0  0
 18 19  1  0  0  0  0
 19 17  1  6  0  0  0
 21 20  2  0  0  0  0
 22 21  1  0  0  0  0
 23 25  1  0  0  0  0
 23 22  1  0  0  0  0
 24 23  2  0  0  0  0
 27 29  1  0  0  0  0
 28 27  2  0  0  0  0
 28 30  1  0  0  0  0
 29 32  2  0  0  0  0
 30 31  2  0  0  0  0
 31 32  1  0  0  0  0
 32 26  1  0  0  0  0
M  END
>  <MODEL>
7

>  <REMARK>
 VINA RESULT:      -7.9      2.272      6.714
  Name = 
  6 active torsions:
  status: ('A' for Active; 'I' for Inactive)
    1  A    between atoms: C_4  and  C_25
    2  A    between atoms: C_9  and  O_22
    3  A    between atoms: O_15  and  C_31
    4  A    between atoms: O_15  and  C_32
    5  A    between atoms: C_17  and  C_29
    6  A    between atoms: O_22  and  C_25
                            x       y       z     vdW  Elec       q    Type
                         _______ _______ _______ _____ _____    ______ ____

>  <TORSDO>
F 6

$$$$
=
 OpenBabel11062412413D

 32 37  0  0  1  0  0  0  0  0999 V2000
  188.0350  177.3470  145.9310 C   0  0  0  0  0  3  0  0  0  0  0  0
  187.0360  178.0120  141.8550 C   0  0  0  0  0  3  0  0  0  0  0  0
  186.1000  178.1070  142.8990 C   0  0  0  0  0  0  0  0  0  0  0  0
  188.8310  177.5150  143.4500 C   0  0  0  0  0  0  0  0  0  0  0  0
  189.3930  177.5890  141.0080 C   0  0  2  0  0  3  0  0  0  0  0  0
  185.8020  177.8740  145.3540 O   0  0  0  0  0  0  0  0  0  0  0  0
  188.3820  177.6880  142.1160 C   0  0  0  0  0  0  0  0  0  0  0  0
  188.7210  177.1410  139.3840 S   0  0  0  0  0  0  0  0  0  0  0  0
  191.2330  176.4990  140.1840 C   0  0  0  0  0  2  0  0  0  0  0  0
  190.2940  177.1900  143.7430 C   0  0  1  0  0  3  0  0  0  0  0  0
  190.3850  176.5890  141.3550 N   0  0  1  0  0  0  0  0  0  0  0  0
  186.6150  177.5700  146.4840 C   0  0  0  0  0  3  0  0  0  0  0  0
  191.1570  177.1280  142.4650 C   0  0  0  0  0  2  0  0  0  0  0  0
  186.5560  177.8650  144.2010 C   0  0  0  0  0  0  0  0  0  0  0  0
  187.8670  177.5770  144.4690 C   0  0  0  0  0  0  0  0  0  0  0  0
  190.3270  176.3790  138.9690 C   0  0  2  0  0  3  0  0  0  0  0  0
  191.0860  179.5260  144.0240 C   0  0  0  0  0  2  0  0  0  0  0  0
  192.1530  178.6290  144.1940 O   0  0  0  0  0  0  0  0  0  0  0  0
  190.9030  178.2170  144.6950 C   0  0  2  0  0  3  0  0  0  0  0  0
  184.1050  177.8600  141.6480 O   0  0  0  0  0  0  0  0  0  0  0  0
  184.6910  178.4360  142.6060 C   0  0  0  0  0  0  0  0  0  0  0  0
  184.0190  179.3830  143.3920 O   0  0  0  0  0  0  0  0  0  0  0  0
  182.9140  179.1210  144.2120 C   0  0  0  0  0  0  0  0  0  0  0  0
  183.0850  179.0000  145.4520 O   0  0  0  0  0  0  0  0  0  0  0  0
  181.5990  178.9870  143.6770 N   0  0  0  0  0  1  0  0  0  0  0  0
  190.9210  177.0520  137.8650 O   0  0  0  0  0  0  0  0  0  0  0  0
  191.9860  175.1520  134.8500 C   0  0  0  0  0  3  0  0  0  0  0  0
  193.3690  175.1200  135.0480 C   0  0  0  0  0  3  0  0  0  0  0  0
  191.1620  175.7910  135.7800 C   0  0  0  0  0  3  0  0  0  0  0  0
  193.9280  175.7270  136.1760 C   0  0  0  0  0  3  0  0  0  0  0  0
  193.1040  176.3680  137.1070 C   0  0  0  0  0  3  0  0  0  0  0  0
  191.7180  176.4060  136.9150 C   0  0  0  0  0  0  0  0  0  0  0  0
  1 12  2  0  0  0  0
  2  7  2  0  0  0  0
  2  3  1  0  0  0  0
  3 14  2  0  0  0  0
  4 10  1  0  0  0  0
  4 15  2  0  0  0  0
  5  8  1  6  0  0  0
  5 11  1  0  0  0  0
  5  7  1  0  0  0  0
  6 12  1  0  0  0  0
  7  4  1  0  0  0  0
 10 13  1  6  0  0  0
 10 19  1  0  0  0  0
 11  9  1  6  0  0  0
 11 13  1  0  0  0  0
 14 15  1  0  0  0  0
 14  6  1  0  0  0  0
 15  1  1  0  0  0  0
 16 26  1  6  0  0  0
 16  8  1  0  0  0  0
 16  9  1  0  0  0  0
 17 18  1  0  0  0  0
 18 19  1  0  0  0  0
 19 17  1  6  0  0  0
 20 21  2  0  0  0  0
 21  3  1  0  0  0  0
 21 22  1  0  0  0  0
 22 23  1  0  0  0  0
 23 24  2  0  0  0  0
 25 23  1  0  0  0  0
 27 28  2  0  0  0  0
 27 29  1  0  0  0  0
 28 30  1  0  0  0  0
 29 32  2  0  0  0  0
 30 31  2  0  0  0  0
 32 31  1  0  0  0  0
 32 26  1  0  0  0  0
M  END
>  <MODEL>
8

>  <REMARK>
 VINA RESULT:      -7.8      3.264      8.231
  Name = 
  6 active torsions:
  status: ('A' for Active; 'I' for Inactive)
    1  A    between atoms: C_4  and  C_25
    2  A    between atoms: C_9  and  O_22
    3  A    between atoms: O_15  and  C_31
    4  A    between atoms: O_15  and  C_32
    5  A    between atoms: C_17  and  C_29
    6  A    between atoms: O_22  and  C_25
                            x       y       z     vdW  Elec       q    Type
                         _______ _______ _______ _____ _____    ______ ____

>  <TORSDO>
F 6

$$$$
=
 OpenBabel11062412413D

 32 37  0  0  1  0  0  0  0  0999 V2000
  191.6640  176.1480  144.2070 C   0  0  0  0  0  3  0  0  0  0  0  0
  187.9290  178.1610  144.4420 C   0  0  0  0  0  3  0  0  0  0  0  0
  188.6200  177.6940  145.5730 C   0  0  0  0  0  0  0  0  0  0  0  0
  189.7280  177.3850  142.9670 C   0  0  0  0  0  0  0  0  0  0  0  0
  187.7270  178.4830  141.9310 C   0  0  2  0  0  3  0  0  0  0  0  0
  190.6600  176.4880  146.3220 O   0  0  0  0  0  0  0  0  0  0  0  0
  188.4540  177.9830  143.1470 C   0  0  0  0  0  0  0  0  0  0  0  0
  185.9240  178.5930  142.0970 S   0  0  0  0  0  0  0  0  0  0  0  0
  187.1740  178.1070  139.7390 C   0  0  0  0  0  2  0  0  0  0  0  0
  190.3160  177.2130  141.5680 C   0  0  1  0  0  3  0  0  0  0  0  0
  188.0030  177.6010  140.8120 N   0  0  1  0  0  0  0  0  0  0  0  0
  191.8140  175.9090  145.7210 C   0  0  0  0  0  3  0  0  0  0  0  0
  189.4050  177.7880  140.4640 C   0  0  0  0  0  2  0  0  0  0  0  0
  189.8440  177.0470  145.3610 C   0  0  0  0  0  0  0  0  0  0  0  0
  190.3780  176.8930  144.1110 C   0  0  0  0  0  0  0  0  0  0  0  0
  185.7760  178.3190  140.2990 C   0  0  2  0  0  3  0  0  0  0  0  0
  192.3710  177.5030  140.2050 C   0  0  0  0  0  2  0  0  0  0  0  0
  192.6830  176.8820  141.4270 O   0  0  0  0  0  0  0  0  0  0  0  0
  191.6870  177.8780  141.4660 C   0  0  2  0  0  3  0  0  0  0  0  0
  188.8120  178.1640  147.8850 O   0  0  0  0  0  0  0  0  0  0  0  0
  188.0490  177.8780  146.9220 C   0  0  0  0  0  0  0  0  0  0  0  0
  186.6680  177.7330  147.1190 O   0  0  0  0  0  0  0  0  0  0  0  0
  185.7220  178.7600  147.0220 C   0  0  0  0  0  0  0  0  0  0  0  0
  185.9090  179.8280  147.6600 O   0  0  0  0  0  0  0  0  0  0  0  0
  184.5500  178.6280  146.2200 N   0  0  0  0  0  1  0  0  0  0  0  0
  185.1820  179.4520  139.6760 O   0  0  0  0  0  0  0  0  0  0  0  0
  181.8350  180.3800  138.3440 C   0  0  0  0  0  3  0  0  0  0  0  0
  181.5230  179.2270  137.6210 C   0  0  0  0  0  3  0  0  0  0  0  0
  183.0490  180.4670  139.0310 C   0  0  0  0  0  3  0  0  0  0  0  0
  182.4240  178.1580  137.5850 C   0  0  0  0  0  3  0  0  0  0  0  0
  183.6390  178.2450  138.2720 C   0  0  0  0  0  3  0  0  0  0  0  0
  183.9600  179.3980  138.9970 C   0  0  0  0  0  0  0  0  0  0  0  0
  1 12  2  0  0  0  0
  2  3  1  0  0  0  0
  3 21  1  0  0  0  0
  4  7  1  0  0  0  0
  4 15  2  0  0  0  0
  5  8  1  1  0  0  0
  5  7  1  0  0  0  0
  7  2  2  0  0  0  0
  9 16  1  0  0  0  0
 10 13  1  6  0  0  0
 10  4  1  0  0  0  0
 11  9  1  6  0  0  0
 11  5  1  0  0  0  0
 12  6  1  0  0  0  0
 13 11  1  0  0  0  0
 14  3  2  0  0  0  0
 14  6  1  0  0  0  0
 15  1  1  0  0  0  0
 15 14  1  0  0  0  0
 16 26  1  6  0  0  0
 16  8  1  0  0  0  0
 17 18  1  0  0  0  0
 18 19  1  0  0  0  0
 19 17  1  6  0  0  0
 19 10  1  0  0  0  0
 21 22  1  0  0  0  0
 21 20  2  0  0  0  0
 23 22  1  0  0  0  0
 23 24  2  0  0  0  0
 25 23  1  0  0  0  0
 27 29  1  0  0  0  0
 28 27  2  0  0  0  0
 30 28  1  0  0  0  0
 30 31  2  0  0  0  0
 31 32  1  0  0  0  0
 32 29  2  0  0  0  0
 32 26  1  0  0  0  0
M  END
>  <MODEL>
9

>  <REMARK>
 VINA RESULT:      -7.8      2.705      5.527
  Name = 
  6 active torsions:
  status: ('A' for Active; 'I' for Inactive)
    1  A    between atoms: C_4  and  C_25
    2  A    between atoms: C_9  and  O_22
    3  A    between atoms: O_15  and  C_31
    4  A    between atoms: O_15  and  C_32
    5  A    between atoms: C_17  and  C_29
    6  A    between atoms: O_22  and  C_25
                            x       y       z     vdW  Elec       q    Type
                         _______ _______ _______ _____ _____    ______ ____

>  <TORSDO>
F 6

$$$$
