=
 OpenBabel11062412273D

 37 40  0  0  1  0  0  0  0  0999 V2000
  189.4360  177.7450  143.0490 C   0  0  1  0  0  3  0  0  0  0  0  0
  190.1810  176.4940  142.6090 C   0  0  0  0  0  2  0  0  0  0  0  0
  190.1180  177.6900  141.6730 C   0  0  1  0  0  3  0  0  0  0  0  0
  187.2220  178.0790  142.0060 O   0  0  0  0  0  0  0  0  0  0  0  0
  185.8830  177.9280  144.6820 C   0  0  2  0  0  3  0  0  0  0  0  0
  185.1230  178.0000  143.3470 C   0  0  2  0  0  3  0  0  0  0  0  0
  187.5130  178.4110  147.0790 C   0  0  0  0  0  2  0  0  0  0  0  0
  188.0620  177.8370  145.7960 C   0  0  0  0  0  0  0  0  0  0  0  0
  185.3930  178.8480  145.7030 N   0  0  0  0  0  2  0  0  0  0  0  0
  185.6850  179.7660  147.8230 O   0  0  0  0  0  0  0  0  0  0  0  0
  187.6730  176.0480  143.1810 C   0  0  0  0  0  1  0  0  0  0  0  0
  186.1530  179.0480  146.9030 C   0  0  0  0  0  0  0  0  0  0  0  0
  187.3740  178.1670  144.4920 C   0  0  1  0  0  3  0  0  0  0  0  0
  187.8970  177.5570  143.1610 C   0  0  1  0  0  0  0  0  0  0  0  0
  186.0960  180.0460  142.5110 O   0  0  0  0  0  1  0  0  0  0  0  0
  189.0580  177.1330  145.8310 O   0  0  0  0  0  0  0  0  0  0  0  0
  185.9510  178.6810  142.2510 C   0  0  1  0  0  3  0  0  0  0  0  0
  183.7170  178.5860  143.4440 C   0  0  0  0  0  2  0  0  0  0  0  0
  183.4140  177.5840  141.3060 O   0  0  0  0  0  0  0  0  0  0  0  0
  181.8100  179.1050  141.9210 O   0  0  0  0  0  1  0  0  0  0  0  0
  182.9780  178.3960  142.1650 C   0  0  0  0  0  0  0  0  0  0  0  0
  190.0130  176.5690  139.4400 C   0  0  0  0  0  2  0  0  0  0  0  0
  190.0710  177.4120  138.1640 C   0  0  2  0  0  3  0  0  0  0  0  0
  189.2210  177.3720  140.4870 C   0  0  2  0  0  3  0  0  0  0  0  0
  188.8080  178.6040  139.8400 N   0  0  0  0  0  2  0  0  0  0  0  0
  189.2930  178.6150  138.5160 C   0  0  0  0  0  0  0  0  0  0  0  0
  189.0950  179.5800  137.7320 O   0  0  0  0  0  0  0  0  0  0  0  0
  189.4800  176.6670  136.9640 C   0  0  0  0  0  2  0  0  0  0  0  0
  188.1460  176.1510  137.2440 N   0  0  0  0  0  2  0  0  0  0  0  0
  187.3150  176.4310  136.0810 C   0  0  2  0  0  3  0  0  0  0  0  0
  184.8590  178.1430  138.0590 C   0  0  0  0  0  0  0  0  0  0  0  0
  185.7670  177.9580  137.1440 C   0  0  0  0  0  0  0  0  0  0  0  0
  186.6690  177.7660  136.2220 C   0  0  0  0  0  3  0  0  0  0  0  0
  184.8930  179.2820  138.8520 O   0  0  0  0  0  1  0  0  0  0  0  0
  183.7800  177.1390  138.2480 C   0  0  0  0  0  1  0  0  0  0  0  0
  186.8320  174.1090  137.1810 C   0  0  0  0  0  1  0  0  0  0  0  0
  186.0370  175.1530  135.9290 S   0  0  0  0  0  0  0  0  0  0  0  0
  1  2  1  1  0  0  0
  1 14  1  0  0  0  0
  3  2  1  1  0  0  0
  3  1  1  0  0  0  0
  4 17  1  0  0  0  0
  4 14  1  0  0  0  0
  5  9  1  1  0  0  0
  6 18  1  1  0  0  0
  6  5  1  0  0  0  0
  8 16  2  0  0  0  0
  8  7  1  0  0  0  0
  9 12  1  0  0  0  0
 12  7  1  0  0  0  0
 12 10  2  0  0  0  0
 13  5  1  0  0  0  0
 13  8  1  1  0  0  0
 14 11  1  1  0  0  0
 14 13  1  0  0  0  0
 17 15  1  1  0  0  0
 17  6  1  0  0  0  0
 19 21  2  0  0  0  0
 20 21  1  0  0  0  0
 21 18  1  0  0  0  0
 23 28  1  6  0  0  0
 23 26  1  0  0  0  0
 23 22  1  0  0  0  0
 24 22  1  6  0  0  0
 24  3  1  0  0  0  0
 25 24  1  0  0  0  0
 26 25  1  0  0  0  0
 27 26  2  0  0  0  0
 28 29  1  0  0  0  0
 30 33  1  1  0  0  0
 30 29  1  0  0  0  0
 31 35  1  0  0  0  0
 31 34  1  0  0  0  0
 32 31  2  0  0  0  0
 33 32  2  0  0  0  0
 37 30  1  0  0  0  0
 37 36  1  0  0  0  0
M  END
>  <MODEL>
1

>  <REMARK>
 VINA RESULT:      -7.7      0.000      0.000
  Name = 
  9 active torsions:
  status: ('A' for Active; 'I' for Inactive)
    1  A    between atoms: C_4  and  C_34
    2  A    between atoms: C_7  and  C_13
    3  A    between atoms: C_8  and  C_30
    4  A    between atoms: N_9  and  C_13
    5  A    between atoms: N_9  and  C_30
    6  A    between atoms: C_10  and  C_29
    7  A    between atoms: C_15  and  C_16
    8  A    between atoms: C_15  and  C_27
    9  A    between atoms: S_17  and  C_30
                            x       y       z     vdW  Elec       q    Type
                         _______ _______ _______ _____ _____    ______ ____

>  <TORSDO>
F 9

$$$$
=
 OpenBabel11062412273D

 37 40  0  0  1  0  0  0  0  0999 V2000
  188.6930  177.9890  136.4230 C   0  0  1  0  0  3  0  0  0  0  0  0
  189.2380  179.1440  137.2470 C   0  0  0  0  0  2  0  0  0  0  0  0
  189.5240  177.7170  137.6870 C   0  0  1  0  0  3  0  0  0  0  0  0
  186.5590  178.8530  137.3170 O   0  0  0  0  0  0  0  0  0  0  0  0
  185.2300  176.2110  136.8390 C   0  0  2  0  0  3  0  0  0  0  0  0
  184.4850  177.4720  137.3050 C   0  0  2  0  0  3  0  0  0  0  0  0
  186.9330  173.8330  136.5500 C   0  0  0  0  0  2  0  0  0  0  0  0
  187.3710  175.2270  136.1700 C   0  0  0  0  0  0  0  0  0  0  0  0
  184.9070  175.0060  137.5970 N   0  0  0  0  0  2  0  0  0  0  0  0
  185.3610  172.7590  138.0010 O   0  0  0  0  0  0  0  0  0  0  0  0
  186.6730  178.1300  135.0430 C   0  0  0  0  0  1  0  0  0  0  0  0
  185.6970  173.8220  137.4210 C   0  0  0  0  0  0  0  0  0  0  0  0
  186.7390  176.4090  136.8680 C   0  0  1  0  0  3  0  0  0  0  0  0
  187.1450  177.8550  136.4680 C   0  0  1  0  0  0  0  0  0  0  0  0
  185.7790  177.9180  139.2950 O   0  0  0  0  0  1  0  0  0  0  0  0
  188.2360  175.3740  135.3230 O   0  0  0  0  0  0  0  0  0  0  0  0
  185.4070  178.4410  138.0530 C   0  0  1  0  0  3  0  0  0  0  0  0
  183.1960  177.2030  138.0790 C   0  0  0  0  0  2  0  0  0  0  0  0
  181.9850  179.0530  138.9590 O   0  0  0  0  0  1  0  0  0  0  0  0
  181.6840  178.6500  136.7210 O   0  0  0  0  0  0  0  0  0  0  0  0
  182.2560  178.3500  137.9500 C   0  0  0  0  0  0  0  0  0  0  0  0
  188.8010  178.6010  139.9110 C   0  0  0  0  0  2  0  0  0  0  0  0
  189.5210  178.1410  141.1810 C   0  0  2  0  0  3  0  0  0  0  0  0
  188.7450  177.3990  138.9530 C   0  0  2  0  0  3  0  0  0  0  0  0
  189.3680  176.2860  139.6460 N   0  0  0  0  0  2  0  0  0  0  0  0
  189.8020  176.7180  140.9150 C   0  0  0  0  0  0  0  0  0  0  0  0
  190.3960  175.9540  141.7210 O   0  0  0  0  0  0  0  0  0  0  0  0
  188.6560  178.3410  142.4290 C   0  0  0  0  0  2  0  0  0  0  0  0
  187.5110  177.4370  142.4500 N   0  0  0  0  0  2  0  0  0  0  0  0
  187.2450  177.1030  143.8420 C   0  0  2  0  0  3  0  0  0  0  0  0
  183.9490  178.4840  143.5050 C   0  0  0  0  0  0  0  0  0  0  0  0
  185.1470  178.3040  143.9830 C   0  0  0  0  0  0  0  0  0  0  0  0
  186.3510  178.1280  144.4520 C   0  0  0  0  0  3  0  0  0  0  0  0
  182.8670  178.5980  144.3670 O   0  0  0  0  0  1  0  0  0  0  0  0
  183.7420  178.5750  142.0370 C   0  0  0  0  0  1  0  0  0  0  0  0
  188.0390  177.7150  146.2580 C   0  0  0  0  0  1  0  0  0  0  0  0
  188.8090  177.0420  144.7590 S   0  0  0  0  0  0  0  0  0  0  0  0
  1 14  1  0  0  0  0
  1  2  1  1  0  0  0
  1  3  1  0  0  0  0
  3  2  1  1  0  0  0
  3 24  1  0  0  0  0
  4 17  1  0  0  0  0
  5 13  1  0  0  0  0
  5  6  1  0  0  0  0
  5  9  1  1  0  0  0
  6 17  1  0  0  0  0
  6 18  1  1  0  0  0
  7 12  1  0  0  0  0
  8  7  1  0  0  0  0
 12  9  1  0  0  0  0
 12 10  2  0  0  0  0
 13  8  1  6  0  0  0
 14 11  1  6  0  0  0
 14 13  1  0  0  0  0
 14  4  1  0  0  0  0
 16  8  2  0  0  0  0
 17 15  1  1  0  0  0
 20 21  2  0  0  0  0
 21 18  1  0  0  0  0
 21 19  1  0  0  0  0
 22 23  1  0  0  0  0
 23 28  1  1  0  0  0
 24 25  1  0  0  0  0
 24 22  1  1  0  0  0
 25 26  1  0  0  0  0
 26 23  1  0  0  0  0
 26 27  2  0  0  0  0
 28 29  1  0  0  0  0
 29 30  1  0  0  0  0
 30 33  1  1  0  0  0
 30 37  1  0  0  0  0
 31 32  2  0  0  0  0
 31 34  1  0  0  0  0
 32 33  2  0  0  0  0
 35 31  1  0  0  0  0
 37 36  1  0  0  0  0
M  END
>  <MODEL>
2

>  <REMARK>
 VINA RESULT:      -7.6      2.668      6.939
  Name = 
  9 active torsions:
  status: ('A' for Active; 'I' for Inactive)
    1  A    between atoms: C_4  and  C_34
    2  A    between atoms: C_7  and  C_13
    3  A    between atoms: C_8  and  C_30
    4  A    between atoms: N_9  and  C_13
    5  A    between atoms: N_9  and  C_30
    6  A    between atoms: C_10  and  C_29
    7  A    between atoms: C_15  and  C_16
    8  A    between atoms: C_15  and  C_27
    9  A    between atoms: S_17  and  C_30
                            x       y       z     vdW  Elec       q    Type
                         _______ _______ _______ _____ _____    ______ ____

>  <TORSDO>
F 9

$$$$
=
 OpenBabel11062412273D

 37 40  0  0  1  0  0  0  0  0999 V2000
  188.6750  177.9300  136.3710 C   0  0  1  0  0  3  0  0  0  0  0  0
  189.2300  179.0890  137.1840 C   0  0  0  0  0  2  0  0  0  0  0  0
  189.5020  177.6650  137.6390 C   0  0  1  0  0  3  0  0  0  0  0  0
  186.5490  178.8220  137.2550 O   0  0  0  0  0  0  0  0  0  0  0  0
  185.1960  176.1890  136.7990 C   0  0  2  0  0  3  0  0  0  0  0  0
  184.4610  177.4610  137.2520 C   0  0  2  0  0  3  0  0  0  0  0  0
  186.8760  173.7920  136.5340 C   0  0  0  0  0  2  0  0  0  0  0  0
  187.3280  175.1780  136.1420 C   0  0  0  0  0  0  0  0  0  0  0  0
  184.8600  174.9940  137.5670 N   0  0  0  0  0  2  0  0  0  0  0  0
  185.2920  172.7460  137.9920 O   0  0  0  0  0  0  0  0  0  0  0  0
  186.6580  178.0780  134.9870 C   0  0  0  0  0  1  0  0  0  0  0  0
  185.6390  173.8010  137.4030 C   0  0  0  0  0  0  0  0  0  0  0  0
  186.7060  176.3730  136.8280 C   0  0  1  0  0  3  0  0  0  0  0  0
  187.1260  177.8110  136.4150 C   0  0  1  0  0  0  0  0  0  0  0  0
  185.7570  177.9130  139.2390 O   0  0  0  0  0  1  0  0  0  0  0  0
  188.1960  175.3100  135.2940 O   0  0  0  0  0  0  0  0  0  0  0  0
  185.3920  178.4280  137.9930 C   0  0  1  0  0  3  0  0  0  0  0  0
  183.1690  177.2110  138.0260 C   0  0  0  0  0  2  0  0  0  0  0  0
  182.3240  179.0010  139.3490 O   0  0  0  0  0  1  0  0  0  0  0  0
  181.8020  179.0900  137.1170 O   0  0  0  0  0  0  0  0  0  0  0  0
  182.4100  178.4790  138.2060 C   0  0  0  0  0  0  0  0  0  0  0  0
  188.7710  178.5870  139.8460 C   0  0  0  0  0  2  0  0  0  0  0  0
  189.4850  178.1480  141.1260 C   0  0  2  0  0  3  0  0  0  0  0  0
  188.7170  177.3690  138.9080 C   0  0  2  0  0  3  0  0  0  0  0  0
  189.3380  176.2670  139.6220 N   0  0  0  0  0  2  0  0  0  0  0  0
  189.7670  176.7200  140.8860 C   0  0  0  0  0  0  0  0  0  0  0  0
  190.3580  175.9710  141.7070 O   0  0  0  0  0  0  0  0  0  0  0  0
  188.6150  178.3690  142.3670 C   0  0  0  0  0  2  0  0  0  0  0  0
  187.3370  177.6750  142.2670 N   0  0  0  0  0  2  0  0  0  0  0  0
  186.4660  178.2140  143.3030 C   0  0  2  0  0  3  0  0  0  0  0  0
  188.2570  177.5270  146.3360 C   0  0  0  0  0  0  0  0  0  0  0  0
  187.3460  177.4150  145.4120 C   0  0  0  0  0  0  0  0  0  0  0  0
  186.4420  177.2990  144.4790 C   0  0  0  0  0  3  0  0  0  0  0  0
  187.8940  177.4980  147.6760 O   0  0  0  0  0  1  0  0  0  0  0  0
  189.6850  177.6760  145.9570 C   0  0  0  0  0  1  0  0  0  0  0  0
  184.2330  179.3070  144.1130 C   0  0  0  0  0  1  0  0  0  0  0  0
  184.7860  178.3970  142.6450 S   0  0  0  0  0  0  0  0  0  0  0  0
  1 14  1  0  0  0  0
  1  2  1  1  0  0  0
  1  3  1  0  0  0  0
  3  2  1  1  0  0  0
  3 24  1  0  0  0  0
  4 17  1  0  0  0  0
  5 13  1  0  0  0  0
  5  6  1  0  0  0  0
  5  9  1  1  0  0  0
  6 17  1  0  0  0  0
  6 18  1  1  0  0  0
  7 12  1  0  0  0  0
  8  7  1  0  0  0  0
 12  9  1  0  0  0  0
 12 10  2  0  0  0  0
 13  8  1  6  0  0  0
 14 11  1  6  0  0  0
 14 13  1  0  0  0  0
 14  4  1  0  0  0  0
 16  8  2  0  0  0  0
 17 15  1  1  0  0  0
 18 21  1  0  0  0  0
 20 21  2  0  0  0  0
 21 19  1  0  0  0  0
 22 23  1  0  0  0  0
 23 28  1  1  0  0  0
 24 25  1  0  0  0  0
 24 22  1  1  0  0  0
 25 26  1  0  0  0  0
 26 23  1  0  0  0  0
 26 27  2  0  0  0  0
 29 28  1  0  0  0  0
 29 30  1  0  0  0  0
 30 33  1  1  0  0  0
 31 34  1  0  0  0  0
 32 31  2  0  0  0  0
 33 32  2  0  0  0  0
 35 31  1  0  0  0  0
 37 30  1  0  0  0  0
 37 36  1  0  0  0  0
M  END
>  <MODEL>
3

>  <REMARK>
 VINA RESULT:      -7.4      2.493      7.236
  Name = 
  9 active torsions:
  status: ('A' for Active; 'I' for Inactive)
    1  A    between atoms: C_4  and  C_34
    2  A    between atoms: C_7  and  C_13
    3  A    between atoms: C_8  and  C_30
    4  A    between atoms: N_9  and  C_13
    5  A    between atoms: N_9  and  C_30
    6  A    between atoms: C_10  and  C_29
    7  A    between atoms: C_15  and  C_16
    8  A    between atoms: C_15  and  C_27
    9  A    between atoms: S_17  and  C_30
                            x       y       z     vdW  Elec       q    Type
                         _______ _______ _______ _____ _____    ______ ____

>  <TORSDO>
F 9

$$$$
=
 OpenBabel11062412273D

 37 40  0  0  1  0  0  0  0  0999 V2000
  189.3850  177.8590  142.8890 C   0  0  1  0  0  3  0  0  0  0  0  0
  190.1570  176.6370  142.4160 C   0  0  0  0  0  2  0  0  0  0  0  0
  190.0360  177.8410  141.4970 C   0  0  1  0  0  3  0  0  0  0  0  0
  187.1400  178.1310  141.8970 O   0  0  0  0  0  0  0  0  0  0  0  0
  185.8650  177.9240  144.6000 C   0  0  2  0  0  3  0  0  0  0  0  0
  185.0740  177.9800  143.2830 C   0  0  2  0  0  3  0  0  0  0  0  0
  187.5310  178.4430  146.9650 C   0  0  0  0  0  2  0  0  0  0  0  0
  188.0700  177.8930  145.6660 C   0  0  0  0  0  0  0  0  0  0  0  0
  185.3690  178.8230  145.6380 N   0  0  0  0  0  2  0  0  0  0  0  0
  185.6800  179.7370  147.7570 O   0  0  0  0  0  0  0  0  0  0  0  0
  187.6780  176.1080  143.0490 C   0  0  0  0  0  1  0  0  0  0  0  0
  186.1490  179.0380  146.8220 C   0  0  0  0  0  0  0  0  0  0  0  0
  187.3430  178.2090  144.3790 C   0  0  1  0  0  3  0  0  0  0  0  0
  187.8550  177.6240  143.0340 C   0  0  1  0  0  0  0  0  0  0  0  0
  185.9650  180.0600  142.4380 O   0  0  0  0  0  1  0  0  0  0  0  0
  189.0870  177.2200  145.6750 O   0  0  0  0  0  0  0  0  0  0  0  0
  185.8560  178.6920  142.1730 C   0  0  1  0  0  3  0  0  0  0  0  0
  183.6530  178.5230  143.4140 C   0  0  0  0  0  2  0  0  0  0  0  0
  181.9110  179.1400  141.9130 O   0  0  0  0  0  1  0  0  0  0  0  0
  183.3870  177.5700  141.1240 O   0  0  0  0  0  0  0  0  0  0  0  0
  182.9320  178.4300  142.1140 C   0  0  0  0  0  0  0  0  0  0  0  0
  189.8800  176.6430  139.3080 C   0  0  0  0  0  2  0  0  0  0  0  0
  189.9600  177.4360  138.0010 C   0  0  2  0  0  3  0  0  0  0  0  0
  189.1230  177.5110  140.3280 C   0  0  2  0  0  3  0  0  0  0  0  0
  188.7490  178.7320  139.6370 N   0  0  0  0  0  2  0  0  0  0  0  0
  189.2260  178.6770  138.3120 C   0  0  0  0  0  0  0  0  0  0  0  0
  189.0570  179.6190  137.4940 O   0  0  0  0  0  0  0  0  0  0  0  0
  189.3370  176.6680  136.8320 C   0  0  0  0  0  2  0  0  0  0  0  0
  188.0040  176.1730  137.1530 N   0  0  0  0  0  2  0  0  0  0  0  0
  187.7520  175.0170  136.3030 C   0  0  2  0  0  3  0  0  0  0  0  0
  184.7540  173.4620  137.5160 C   0  0  0  0  0  0  0  0  0  0  0  0
  186.0260  173.6580  137.3190 C   0  0  0  0  0  0  0  0  0  0  0  0
  187.3000  173.8620  137.1280 C   0  0  0  0  0  3  0  0  0  0  0  0
  184.2190  172.1870  137.3900 O   0  0  0  0  0  1  0  0  0  0  0  0
  183.8750  174.6020  137.8830 C   0  0  0  0  0  1  0  0  0  0  0  0
  189.1270  172.8290  135.9020 C   0  0  0  0  0  1  0  0  0  0  0  0
  189.2730  174.5720  135.4210 S   0  0  0  0  0  0  0  0  0  0  0  0
  1  2  1  1  0  0  0
  1 14  1  0  0  0  0
  3  2  1  1  0  0  0
  3  1  1  0  0  0  0
  4 17  1  0  0  0  0
  4 14  1  0  0  0  0
  5  9  1  1  0  0  0
  6 18  1  1  0  0  0
  6  5  1  0  0  0  0
  8 16  2  0  0  0  0
  8  7  1  0  0  0  0
  9 12  1  0  0  0  0
 12  7  1  0  0  0  0
 12 10  2  0  0  0  0
 13  5  1  0  0  0  0
 13  8  1  1  0  0  0
 14 11  1  1  0  0  0
 14 13  1  0  0  0  0
 17 15  1  1  0  0  0
 17  6  1  0  0  0  0
 19 21  1  0  0  0  0
 20 21  2  0  0  0  0
 21 18  1  0  0  0  0
 23 28  1  6  0  0  0
 23 26  1  0  0  0  0
 23 22  1  0  0  0  0
 24 22  1  6  0  0  0
 24  3  1  0  0  0  0
 25 24  1  0  0  0  0
 26 25  1  0  0  0  0
 27 26  2  0  0  0  0
 28 29  1  0  0  0  0
 30 33  1  1  0  0  0
 30 29  1  0  0  0  0
 31 35  1  0  0  0  0
 32 31  2  0  0  0  0
 33 32  2  0  0  0  0
 34 31  1  0  0  0  0
 37 36  1  0  0  0  0
 37 30  1  0  0  0  0
M  END
>  <MODEL>
4

>  <REMARK>
 VINA RESULT:      -7.3      1.474      2.013
  Name = 
  9 active torsions:
  status: ('A' for Active; 'I' for Inactive)
    1  A    between atoms: C_4  and  C_34
    2  A    between atoms: C_7  and  C_13
    3  A    between atoms: C_8  and  C_30
    4  A    between atoms: N_9  and  C_13
    5  A    between atoms: N_9  and  C_30
    6  A    between atoms: C_10  and  C_29
    7  A    between atoms: C_15  and  C_16
    8  A    between atoms: C_15  and  C_27
    9  A    between atoms: S_17  and  C_30
                            x       y       z     vdW  Elec       q    Type
                         _______ _______ _______ _____ _____    ______ ____

>  <TORSDO>
F 9

$$$$
=
 OpenBabel11062412273D

 37 40  0  0  1  0  0  0  0  0999 V2000
  189.2970  177.8120  143.0090 C   0  0  1  0  0  3  0  0  0  0  0  0
  190.0130  176.5650  142.5140 C   0  0  0  0  0  2  0  0  0  0  0  0
  189.9190  177.7790  141.6040 C   0  0  1  0  0  3  0  0  0  0  0  0
  187.0450  178.1580  142.0550 O   0  0  0  0  0  0  0  0  0  0  0  0
  185.8130  178.0160  144.7820 C   0  0  2  0  0  3  0  0  0  0  0  0
  185.0010  178.0920  143.4780 C   0  0  2  0  0  3  0  0  0  0  0  0
  187.5400  178.4920  147.1120 C   0  0  0  0  0  2  0  0  0  0  0  0
  188.0340  177.9130  145.8080 C   0  0  0  0  0  0  0  0  0  0  0  0
  185.3690  178.9400  145.8210 N   0  0  0  0  0  2  0  0  0  0  0  0
  185.7510  179.8570  147.9270 O   0  0  0  0  0  0  0  0  0  0  0  0
  187.5310  176.1250  143.2120 C   0  0  0  0  0  1  0  0  0  0  0  0
  186.1780  179.1360  146.9900 C   0  0  0  0  0  0  0  0  0  0  0  0
  187.2970  178.2470  144.5320 C   0  0  1  0  0  3  0  0  0  0  0  0
  187.7620  177.6330  143.1820 C   0  0  1  0  0  0  0  0  0  0  0  0
  185.9510  180.1310  142.6020 O   0  0  0  0  0  1  0  0  0  0  0  0
  189.0270  177.2040  145.8040 O   0  0  0  0  0  0  0  0  0  0  0  0
  185.7880  178.7670  142.3500 C   0  0  1  0  0  3  0  0  0  0  0  0
  183.6030  178.6860  143.6310 C   0  0  0  0  0  2  0  0  0  0  0  0
  181.6080  178.8640  142.3440 O   0  0  0  0  0  1  0  0  0  0  0  0
  183.4040  177.9340  141.2610 O   0  0  0  0  0  0  0  0  0  0  0  0
  182.8130  178.5000  142.3820 C   0  0  0  0  0  0  0  0  0  0  0  0
  189.6340  176.5090  139.4690 C   0  0  0  0  0  2  0  0  0  0  0  0
  189.7840  177.2330  138.1290 C   0  0  2  0  0  3  0  0  0  0  0  0
  188.9710  177.4900  140.4510 C   0  0  2  0  0  3  0  0  0  0  0  0
  188.7160  178.7110  139.7080 N   0  0  0  0  0  2  0  0  0  0  0  0
  189.1780  178.5520  138.3860 C   0  0  0  0  0  0  0  0  0  0  0  0
  189.0970  179.4700  137.5280 O   0  0  0  0  0  0  0  0  0  0  0  0
  189.0820  176.4800  136.9950 C   0  0  0  0  0  2  0  0  0  0  0  0
  190.0200  175.7060  136.1900 N   0  0  0  0  0  2  0  0  0  0  0  0
  189.9030  174.3140  136.6030 C   0  0  2  0  0  3  0  0  0  0  0  0
  193.3550  174.8750  137.4050 C   0  0  0  0  0  0  0  0  0  0  0  0
  192.2950  174.2560  136.9710 C   0  0  0  0  0  0  0  0  0  0  0  0
  191.2320  173.6440  136.5290 C   0  0  0  0  0  3  0  0  0  0  0  0
  194.2740  174.2040  138.2010 O   0  0  0  0  0  1  0  0  0  0  0  0
  193.5880  176.2960  137.0400 C   0  0  0  0  0  1  0  0  0  0  0  0
  187.7430  172.8750  136.9170 C   0  0  0  0  0  1  0  0  0  0  0  0
  188.7320  173.4580  135.5140 S   0  0  0  0  0  0  0  0  0  0  0  0
  1  2  1  1  0  0  0
  1 14  1  0  0  0  0
  3  2  1  1  0  0  0
  3  1  1  0  0  0  0
  4 17  1  0  0  0  0
  4 14  1  0  0  0  0
  5  9  1  1  0  0  0
  6 18  1  1  0  0  0
  6  5  1  0  0  0  0
  8  7  1  0  0  0  0
  9 12  1  0  0  0  0
 12  7  1  0  0  0  0
 12 10  2  0  0  0  0
 13  5  1  0  0  0  0
 13  8  1  1  0  0  0
 14 11  1  1  0  0  0
 14 13  1  0  0  0  0
 16  8  2  0  0  0  0
 17 15  1  1  0  0  0
 17  6  1  0  0  0  0
 19 21  1  0  0  0  0
 20 21  2  0  0  0  0
 21 18  1  0  0  0  0
 23 28  1  6  0  0  0
 23 26  1  0  0  0  0
 23 22  1  0  0  0  0
 24 22  1  6  0  0  0
 24  3  1  0  0  0  0
 25 24  1  0  0  0  0
 26 25  1  0  0  0  0
 27 26  2  0  0  0  0
 29 30  1  0  0  0  0
 29 28  1  0  0  0  0
 30 33  1  6  0  0  0
 31 34  1  0  0  0  0
 32 31  2  0  0  0  0
 33 32  2  0  0  0  0
 35 31  1  0  0  0  0
 37 30  1  0  0  0  0
 37 36  1  0  0  0  0
M  END
>  <MODEL>
5

>  <REMARK>
 VINA RESULT:      -7.2      1.944      3.412
  Name = 
  9 active torsions:
  status: ('A' for Active; 'I' for Inactive)
    1  A    between atoms: C_4  and  C_34
    2  A    between atoms: C_7  and  C_13
    3  A    between atoms: C_8  and  C_30
    4  A    between atoms: N_9  and  C_13
    5  A    between atoms: N_9  and  C_30
    6  A    between atoms: C_10  and  C_29
    7  A    between atoms: C_15  and  C_16
    8  A    between atoms: C_15  and  C_27
    9  A    between atoms: S_17  and  C_30
                            x       y       z     vdW  Elec       q    Type
                         _______ _______ _______ _____ _____    ______ ____

>  <TORSDO>
F 9

$$$$
=
 OpenBabel11062412273D

 37 40  0  0  1  0  0  0  0  0999 V2000
  187.5240  176.8970  136.2300 C   0  0  1  0  0  3  0  0  0  0  0  0
  186.2750  176.0530  136.0300 C   0  0  0  0  0  2  0  0  0  0  0  0
  186.1310  177.5040  136.4580 C   0  0  1  0  0  3  0  0  0  0  0  0
  188.0580  177.2230  138.6190 O   0  0  0  0  0  0  0  0  0  0  0  0
  190.7840  176.0460  138.2230 C   0  0  2  0  0  3  0  0  0  0  0  0
  190.2070  176.4250  139.5970 C   0  0  2  0  0  3  0  0  0  0  0  0
  191.8840  175.9770  135.4980 C   0  0  0  0  0  2  0  0  0  0  0  0
  190.4070  175.9210  135.8060 C   0  0  0  0  0  0  0  0  0  0  0  0
  192.1460  176.5170  137.9920 N   0  0  0  0  0  2  0  0  0  0  0  0
  193.9160  176.7520  136.4970 O   0  0  0  0  0  0  0  0  0  0  0  0
  188.0160  175.0110  137.7160 C   0  0  0  0  0  1  0  0  0  0  0  0
  192.7130  176.4350  136.6760 C   0  0  0  0  0  0  0  0  0  0  0  0
  189.9020  176.5440  137.0870 C   0  0  1  0  0  3  0  0  0  0  0  0
  188.3920  176.4660  137.4460 C   0  0  1  0  0  0  0  0  0  0  0  0
  189.7310  178.7480  139.1370 O   0  0  0  0  0  1  0  0  0  0  0  0
  189.6470  175.3930  135.0110 O   0  0  0  0  0  0  0  0  0  0  0  0
  189.1470  177.5280  139.4900 C   0  0  1  0  0  3  0  0  0  0  0  0
  191.2530  176.7440  140.6630 C   0  0  0  0  0  2  0  0  0  0  0  0
  190.2010  175.6240  142.4810 O   0  0  0  0  0  0  0  0  0  0  0  0
  190.5750  177.8670  142.7840 O   0  0  0  0  0  1  0  0  0  0  0  0
  190.6460  176.7090  142.0220 C   0  0  0  0  0  0  0  0  0  0  0  0
  184.1890  177.1030  137.9810 C   0  0  0  0  0  2  0  0  0  0  0  0
  183.3530  178.2860  138.4740 C   0  0  2  0  0  3  0  0  0  0  0  0
  185.6510  177.5740  137.8990 C   0  0  2  0  0  3  0  0  0  0  0  0
  185.6690  178.9520  138.3550 N   0  0  0  0  0  2  0  0  0  0  0  0
  184.3570  179.3460  138.6850 C   0  0  0  0  0  0  0  0  0  0  0  0
  184.0820  180.5050  139.0920 O   0  0  0  0  0  0  0  0  0  0  0  0
  182.5870  177.9460  139.7550 C   0  0  0  0  0  2  0  0  0  0  0  0
  183.4010  178.1460  140.9480 N   0  0  0  0  0  2  0  0  0  0  0  0
  182.6690  179.0440  141.8310 C   0  0  2  0  0  3  0  0  0  0  0  0
  185.3240  178.5560  144.1960 C   0  0  0  0  0  0  0  0  0  0  0  0
  184.1100  178.6130  143.7280 C   0  0  0  0  0  0  0  0  0  0  0  0
  182.8960  178.6620  143.2530 C   0  0  0  0  0  3  0  0  0  0  0  0
  185.6190  179.1160  145.4310 O   0  0  0  0  0  1  0  0  0  0  0  0
  186.3910  177.8830  143.4110 C   0  0  0  0  0  1  0  0  0  0  0  0
  180.4780  178.5790  143.1800 C   0  0  0  0  0  1  0  0  0  0  0  0
  180.8980  178.9490  141.4540 S   0  0  0  0  0  0  0  0  0  0  0  0
  1  2  1  6  0  0  0
  1  3  1  0  0  0  0
  1 14  1  0  0  0  0
  3  2  1  6  0  0  0
  3 24  1  0  0  0  0
  4 17  1  0  0  0  0
  5  9  1  6  0  0  0
  5  6  1  0  0  0  0
  6 18  1  1  0  0  0
  7  8  1  0  0  0  0
  7 12  1  0  0  0  0
 10 12  2  0  0  0  0
 12  9  1  0  0  0  0
 13  8  1  6  0  0  0
 13 14  1  0  0  0  0
 13  5  1  0  0  0  0
 14 11  1  1  0  0  0
 14  4  1  0  0  0  0
 16  8  2  0  0  0  0
 17 15  1  6  0  0  0
 17  6  1  0  0  0  0
 18 21  1  0  0  0  0
 21 19  2  0  0  0  0
 21 20  1  0  0  0  0
 22 23  1  0  0  0  0
 23 26  1  0  0  0  0
 23 28  1  1  0  0  0
 24 22  1  6  0  0  0
 24 25  1  0  0  0  0
 25 26  1  0  0  0  0
 26 27  2  0  0  0  0
 28 29  1  0  0  0  0
 29 30  1  0  0  0  0
 30 33  1  1  0  0  0
 31 34  1  0  0  0  0
 32 31  2  0  0  0  0
 33 32  2  0  0  0  0
 35 31  1  0  0  0  0
 37 30  1  0  0  0  0
 37 36  1  0  0  0  0
M  END
>  <MODEL>
6

>  <REMARK>
 VINA RESULT:      -6.8      2.779      7.868
  Name = 
  9 active torsions:
  status: ('A' for Active; 'I' for Inactive)
    1  A    between atoms: C_4  and  C_34
    2  A    between atoms: C_7  and  C_13
    3  A    between atoms: C_8  and  C_30
    4  A    between atoms: N_9  and  C_13
    5  A    between atoms: N_9  and  C_30
    6  A    between atoms: C_10  and  C_29
    7  A    between atoms: C_15  and  C_16
    8  A    between atoms: C_15  and  C_27
    9  A    between atoms: S_17  and  C_30
                            x       y       z     vdW  Elec       q    Type
                         _______ _______ _______ _____ _____    ______ ____

>  <TORSDO>
F 9

$$$$
=
 OpenBabel11062412273D

 37 40  0  0  1  0  0  0  0  0999 V2000
  181.1920  179.4400  142.7230 C   0  0  1  0  0  3  0  0  0  0  0  0
  181.5150  178.6300  143.9690 C   0  0  0  0  0  2  0  0  0  0  0  0
  182.6180  179.4310  143.2960 C   0  0  1  0  0  3  0  0  0  0  0  0
  181.7360  177.4520  141.3630 O   0  0  0  0  0  0  0  0  0  0  0  0
  180.4100  178.6660  138.9660 C   0  0  2  0  0  3  0  0  0  0  0  0
  180.9510  177.2280  139.0080 C   0  0  2  0  0  3  0  0  0  0  0  0
  180.0180  181.5790  138.9240 C   0  0  0  0  0  2  0  0  0  0  0  0
  180.0560  180.7580  140.1910 C   0  0  0  0  0  0  0  0  0  0  0  0
  180.7970  179.4210  137.7780 N   0  0  0  0  0  2  0  0  0  0  0  0
  180.8030  181.4660  136.6660 O   0  0  0  0  0  0  0  0  0  0  0  0
  179.4470  178.0310  141.7340 C   0  0  0  0  0  1  0  0  0  0  0  0
  180.5580  180.8340  137.7250 C   0  0  0  0  0  0  0  0  0  0  0  0
  180.8260  179.4580  140.1980 C   0  0  1  0  0  3  0  0  0  0  0  0
  180.8500  178.5760  141.4770 C   0  0  1  0  0  0  0  0  0  0  0  0
  183.2330  177.7390  139.6110 O   0  0  0  0  0  1  0  0  0  0  0  0
  179.4820  181.1650  141.1870 O   0  0  0  0  0  0  0  0  0  0  0  0
  182.0810  177.0690  140.0320 C   0  0  1  0  0  3  0  0  0  0  0  0
  181.3310  176.6500  137.6470 C   0  0  0  0  0  2  0  0  0  0  0  0
  182.7420  174.7440  137.4310 O   0  0  0  0  0  0  0  0  0  0  0  0
  180.6280  174.3250  138.2180 O   0  0  0  0  0  1  0  0  0  0  0  0
  181.6100  175.1900  137.7550 C   0  0  0  0  0  0  0  0  0  0  0  0
  184.6050  177.9610  143.6740 C   0  0  0  0  0  2  0  0  0  0  0  0
  185.9980  178.4470  143.2660 C   0  0  2  0  0  3  0  0  0  0  0  0
  183.6080  178.4900  142.6290 C   0  0  2  0  0  3  0  0  0  0  0  0
  184.3870  179.2170  141.6420 N   0  0  0  0  0  2  0  0  0  0  0  0
  185.7470  179.1820  142.0120 C   0  0  0  0  0  0  0  0  0  0  0  0
  186.6440  179.7530  141.3390 O   0  0  0  0  0  0  0  0  0  0  0  0
  186.9720  177.2820  143.0730 C   0  0  0  0  0  2  0  0  0  0  0  0
  188.3620  177.7040  143.2070 N   0  0  0  0  0  2  0  0  0  0  0  0
  189.0280  176.7420  144.0750 C   0  0  2  0  0  3  0  0  0  0  0  0
  187.7910  177.7960  147.2740 C   0  0  0  0  0  0  0  0  0  0  0  0
  188.6380  177.6000  146.3050 C   0  0  0  0  0  0  0  0  0  0  0  0
  189.4800  177.4100  145.3280 C   0  0  0  0  0  3  0  0  0  0  0  0
  188.1540  177.5080  148.5830 O   0  0  0  0  0  1  0  0  0  0  0  0
  186.4390  178.3390  146.9810 C   0  0  0  0  0  1  0  0  0  0  0  0
  191.4600  177.5240  143.5180 C   0  0  0  0  0  1  0  0  0  0  0  0
  190.4610  176.0420  143.2120 S   0  0  0  0  0  0  0  0  0  0  0  0
  1  3  1  0  0  0  0
  1  2  1  1  0  0  0
  3  2  1  1  0  0  0
  4 14  1  0  0  0  0
  5  9  1  6  0  0  0
  5  6  1  0  0  0  0
  5 13  1  0  0  0  0
  6 18  1  6  0  0  0
  6 17  1  0  0  0  0
  7  8  1  0  0  0  0
  8 16  2  0  0  0  0
 10 12  2  0  0  0  0
 12  9  1  0  0  0  0
 12  7  1  0  0  0  0
 13  8  1  1  0  0  0
 13 14  1  0  0  0  0
 14 11  1  1  0  0  0
 14  1  1  0  0  0  0
 17 15  1  6  0  0  0
 17  4  1  0  0  0  0
 18 21  1  0  0  0  0
 19 21  2  0  0  0  0
 21 20  1  0  0  0  0
 23 28  1  6  0  0  0
 23 22  1  0  0  0  0
 24  3  1  0  0  0  0
 24 22  1  1  0  0  0
 25 26  1  0  0  0  0
 25 24  1  0  0  0  0
 26 23  1  0  0  0  0
 27 26  2  0  0  0  0
 28 29  1  0  0  0  0
 29 30  1  0  0  0  0
 30 33  1  1  0  0  0
 31 34  1  0  0  0  0
 32 31  2  0  0  0  0
 33 32  2  0  0  0  0
 35 31  1  0  0  0  0
 37 36  1  0  0  0  0
 37 30  1  0  0  0  0
M  END
>  <MODEL>
7

>  <REMARK>
 VINA RESULT:      -6.7      3.633      8.053
  Name = 
  9 active torsions:
  status: ('A' for Active; 'I' for Inactive)
    1  A    between atoms: C_4  and  C_34
    2  A    between atoms: C_7  and  C_13
    3  A    between atoms: C_8  and  C_30
    4  A    between atoms: N_9  and  C_13
    5  A    between atoms: N_9  and  C_30
    6  A    between atoms: C_10  and  C_29
    7  A    between atoms: C_15  and  C_16
    8  A    between atoms: C_15  and  C_27
    9  A    between atoms: S_17  and  C_30
                            x       y       z     vdW  Elec       q    Type
                         _______ _______ _______ _____ _____    ______ ____

>  <TORSDO>
F 9

$$$$
=
 OpenBabel11062412273D

 37 40  0  0  1  0  0  0  0  0999 V2000
  189.0450  176.6230  135.9080 C   0  0  1  0  0  3  0  0  0  0  0  0
  188.3360  175.5050  135.1590 C   0  0  0  0  0  2  0  0  0  0  0  0
  187.7190  176.8940  135.1790 C   0  0  1  0  0  3  0  0  0  0  0  0
  188.0230  177.2120  138.0780 O   0  0  0  0  0  0  0  0  0  0  0  0
  190.5520  176.5020  139.5190 C   0  0  2  0  0  3  0  0  0  0  0  0
  189.2390  176.8750  140.2270 C   0  0  2  0  0  3  0  0  0  0  0  0
  193.0530  176.4250  137.9780 C   0  0  0  0  0  2  0  0  0  0  0  0
  191.6950  176.1350  137.3840 C   0  0  0  0  0  0  0  0  0  0  0  0
  191.7320  177.1850  140.0400 N   0  0  0  0  0  2  0  0  0  0  0  0
  194.0100  177.6130  139.8210 O   0  0  0  0  0  0  0  0  0  0  0  0
  188.7400  174.9660  137.6880 C   0  0  0  0  0  1  0  0  0  0  0  0
  192.9720  177.1050  139.3250 C   0  0  0  0  0  0  0  0  0  0  0  0
  190.4710  176.7530  138.0200 C   0  0  1  0  0  3  0  0  0  0  0  0
  189.0590  176.4400  137.4520 C   0  0  1  0  0  0  0  0  0  0  0  0
  188.9050  179.0390  139.2080 O   0  0  0  0  0  1  0  0  0  0  0  0
  191.6110  175.4250  136.3950 O   0  0  0  0  0  0  0  0  0  0  0  0
  188.3480  177.7650  139.3530 C   0  0  1  0  0  3  0  0  0  0  0  0
  189.4120  177.4480  141.6320 C   0  0  0  0  0  2  0  0  0  0  0  0
  188.1850  176.1440  143.2000 O   0  0  0  0  0  1  0  0  0  0  0  0
  190.4110  175.6210  143.0060 O   0  0  0  0  0  0  0  0  0  0  0  0
  189.2980  176.3730  142.6560 C   0  0  0  0  0  0  0  0  0  0  0  0
  185.8010  175.5030  135.9780 C   0  0  0  0  0  2  0  0  0  0  0  0
  184.4180  175.6820  135.3450 C   0  0  2  0  0  3  0  0  0  0  0  0
  186.4640  176.8900  136.0370 C   0  0  2  0  0  3  0  0  0  0  0  0
  185.5000  177.8340  135.4990 N   0  0  0  0  0  2  0  0  0  0  0  0
  184.3370  177.1370  135.1130 C   0  0  0  0  0  0  0  0  0  0  0  0
  183.3450  177.7130  134.5950 O   0  0  0  0  0  0  0  0  0  0  0  0
  183.3030  175.1770  136.2650 C   0  0  0  0  0  2  0  0  0  0  0  0
  183.4810  175.6300  137.6390 N   0  0  0  0  0  2  0  0  0  0  0  0
  182.3490  176.4860  137.9670 C   0  0  2  0  0  3  0  0  0  0  0  0
  184.1680  178.6030  140.2230 C   0  0  0  0  0  0  0  0  0  0  0  0
  183.4900  178.2520  139.1680 C   0  0  0  0  0  0  0  0  0  0  0  0
  182.8020  177.8980  138.1180 C   0  0  0  0  0  3  0  0  0  0  0  0
  185.3000  179.3950  140.0880 O   0  0  0  0  0  1  0  0  0  0  0  0
  183.7250  178.1640  141.5710 C   0  0  0  0  0  1  0  0  0  0  0  0
  180.4140  174.8620  138.6390 C   0  0  0  0  0  1  0  0  0  0  0  0
  181.5950  175.9230  139.5170 S   0  0  0  0  0  0  0  0  0  0  0  0
  1  2  1  6  0  0  0
  1 14  1  0  0  0  0
  3  2  1  6  0  0  0
  3  1  1  0  0  0  0
  3 24  1  0  0  0  0
  4 17  1  0  0  0  0
  5  9  1  1  0  0  0
  5  6  1  0  0  0  0
  6 18  1  1  0  0  0
  7 12  1  0  0  0  0
  8  7  1  0  0  0  0
 12 10  2  0  0  0  0
 12  9  1  0  0  0  0
 13  8  1  6  0  0  0
 13  5  1  0  0  0  0
 14 11  1  1  0  0  0
 14 13  1  0  0  0  0
 14  4  1  0  0  0  0
 16  8  2  0  0  0  0
 17 15  1  6  0  0  0
 17  6  1  0  0  0  0
 18 21  1  0  0  0  0
 21 20  2  0  0  0  0
 21 19  1  0  0  0  0
 23 22  1  0  0  0  0
 23 28  1  1  0  0  0
 24 22  1  6  0  0  0
 25 24  1  0  0  0  0
 26 23  1  0  0  0  0
 26 25  1  0  0  0  0
 27 26  2  0  0  0  0
 28 29  1  0  0  0  0
 29 30  1  0  0  0  0
 30 33  1  1  0  0  0
 30 37  1  0  0  0  0
 31 35  1  0  0  0  0
 32 31  2  0  0  0  0
 33 32  2  0  0  0  0
 34 31  1  0  0  0  0
 36 37  1  0  0  0  0
M  END
>  <MODEL>
8

>  <REMARK>
 VINA RESULT:      -6.5      3.144      6.707
  Name = 
  9 active torsions:
  status: ('A' for Active; 'I' for Inactive)
    1  A    between atoms: C_4  and  C_34
    2  A    between atoms: C_7  and  C_13
    3  A    between atoms: C_8  and  C_30
    4  A    between atoms: N_9  and  C_13
    5  A    between atoms: N_9  and  C_30
    6  A    between atoms: C_10  and  C_29
    7  A    between atoms: C_15  and  C_16
    8  A    between atoms: C_15  and  C_27
    9  A    between atoms: S_17  and  C_30
                            x       y       z     vdW  Elec       q    Type
                         _______ _______ _______ _____ _____    ______ ____

>  <TORSDO>
F 9

$$$$
=
 OpenBabel11062412273D

 37 40  0  0  1  0  0  0  0  0999 V2000
  184.1810  178.1900  144.3780 C   0  0  1  0  0  3  0  0  0  0  0  0
  183.3140  179.4280  144.2110 C   0  0  0  0  0  2  0  0  0  0  0  0
  183.1230  178.2530  143.2650 C   0  0  1  0  0  3  0  0  0  0  0  0
  186.0570  177.7160  142.8430 O   0  0  0  0  0  0  0  0  0  0  0  0
  188.0440  178.3450  144.9950 C   0  0  2  0  0  3  0  0  0  0  0  0
  188.4270  178.0570  143.5350 C   0  0  2  0  0  3  0  0  0  0  0  0
  187.1380  178.2550  147.7900 C   0  0  0  0  0  2  0  0  0  0  0  0
  186.2350  178.5920  146.6280 C   0  0  0  0  0  0  0  0  0  0  0  0
  188.8410  177.6210  145.9810 N   0  0  0  0  0  2  0  0  0  0  0  0
  189.1760  177.0770  148.2200 O   0  0  0  0  0  0  0  0  0  0  0  0
  185.8090  179.9120  143.7530 C   0  0  0  0  0  1  0  0  0  0  0  0
  188.4390  177.6190  147.3570 C   0  0  0  0  0  0  0  0  0  0  0  0
  186.5730  178.0540  145.2570 C   0  0  1  0  0  3  0  0  0  0  0  0
  185.6810  178.4180  144.0380 C   0  0  1  0  0  0  0  0  0  0  0  0
  187.3950  175.8830  143.3340 O   0  0  0  0  0  1  0  0  0  0  0  0
  185.2420  179.2760  146.8180 O   0  0  0  0  0  0  0  0  0  0  0  0
  187.3820  177.1850  142.8280 C   0  0  1  0  0  3  0  0  0  0  0  0
  189.8420  177.5180  143.3410 C   0  0  0  0  0  2  0  0  0  0  0  0
  190.4780  175.9450  141.6710 O   0  0  0  0  0  1  0  0  0  0  0  0
  189.7920  177.9910  140.8910 O   0  0  0  0  0  0  0  0  0  0  0  0
  190.0580  177.1040  141.9260 C   0  0  0  0  0  0  0  0  0  0  0  0
  182.5600  179.4570  141.1480 C   0  0  0  0  0  2  0  0  0  0  0  0
  182.1140  178.6630  139.9170 C   0  0  2  0  0  3  0  0  0  0  0  0
  183.6240  178.6190  141.8770 C   0  0  2  0  0  3  0  0  0  0  0  0
  183.8130  177.4140  141.0900 N   0  0  0  0  0  2  0  0  0  0  0  0
  182.9530  177.4510  139.9740 C   0  0  0  0  0  0  0  0  0  0  0  0
  182.8990  176.5170  139.1320 O   0  0  0  0  0  0  0  0  0  0  0  0
  182.3220  179.4550  138.6240 C   0  0  0  0  0  2  0  0  0  0  0  0
  181.1450  179.4150  137.7640 N   0  0  0  0  0  2  0  0  0  0  0  0
  181.0760  180.6890  137.0600 C   0  0  2  0  0  3  0  0  0  0  0  0
  180.5260  184.2280  137.2800 C   0  0  0  0  0  0  0  0  0  0  0  0
  180.8400  183.0220  137.6590 C   0  0  0  0  0  0  0  0  0  0  0  0
  181.1630  181.8150  138.0310 C   0  0  0  0  0  3  0  0  0  0  0  0
  179.7240  185.0230  138.0870 O   0  0  0  0  0  1  0  0  0  0  0  0
  181.0340  184.7560  135.9880 C   0  0  0  0  0  1  0  0  0  0  0  0
  180.3520  181.2110  134.6020 C   0  0  0  0  0  1  0  0  0  0  0  0
  179.5090  180.7920  136.1530 S   0  0  0  0  0  0  0  0  0  0  0  0
  1  2  1  1  0  0  0
  3  2  1  1  0  0  0
  3  1  1  0  0  0  0
  4 14  1  0  0  0  0
  5 13  1  0  0  0  0
  5  9  1  1  0  0  0
  6 18  1  1  0  0  0
  6  5  1  0  0  0  0
  8 16  2  0  0  0  0
  8  7  1  0  0  0  0
  9 12  1  0  0  0  0
 12  7  1  0  0  0  0
 12 10  2  0  0  0  0
 13  8  1  1  0  0  0
 14 11  1  6  0  0  0
 14  1  1  0  0  0  0
 14 13  1  0  0  0  0
 17  4  1  0  0  0  0
 17 15  1  1  0  0  0
 17  6  1  0  0  0  0
 19 21  1  0  0  0  0
 20 21  2  0  0  0  0
 21 18  1  0  0  0  0
 23 28  1  6  0  0  0
 23 26  1  0  0  0  0
 23 22  1  0  0  0  0
 24 22  1  6  0  0  0
 24  3  1  0  0  0  0
 25 24  1  0  0  0  0
 26 25  1  0  0  0  0
 27 26  2  0  0  0  0
 29 28  1  0  0  0  0
 30 29  1  0  0  0  0
 30 33  1  1  0  0  0
 31 32  2  0  0  0  0
 31 34  1  0  0  0  0
 32 33  2  0  0  0  0
 35 31  1  0  0  0  0
 36 37  1  0  0  0  0
 37 30  1  0  0  0  0
M  END
>  <MODEL>
9

>  <REMARK>
 VINA RESULT:      -6.3      3.877      6.185
  Name = 
  9 active torsions:
  status: ('A' for Active; 'I' for Inactive)
    1  A    between atoms: C_4  and  C_34
    2  A    between atoms: C_7  and  C_13
    3  A    between atoms: C_8  and  C_30
    4  A    between atoms: N_9  and  C_13
    5  A    between atoms: N_9  and  C_30
    6  A    between atoms: C_10  and  C_29
    7  A    between atoms: C_15  and  C_16
    8  A    between atoms: C_15  and  C_27
    9  A    between atoms: S_17  and  C_30
                            x       y       z     vdW  Elec       q    Type
                         _______ _______ _______ _____ _____    ______ ____

>  <TORSDO>
F 9

$$$$
