=
 OpenBabel11062413453D

 35 38  0  0  1  0  0  0  0  0999 V2000
  185.9870  175.0130  136.4280 O   0  0  0  0  0  0  0  0  0  0  0  0
  190.8200  176.6750  138.0410 O   0  0  0  0  0  0  0  0  0  0  0  0
  190.0890  176.7920  142.2930 N   0  0  0  0  0  1  0  0  0  0  0  0
  191.5370  176.3060  135.8090 C   0  0  0  0  0  2  0  0  0  0  0  0
  189.6860  177.5780  140.0510 C   0  0  0  0  0  0  0  0  0  0  0  0
  188.7960  172.9190  134.9350 C   0  0  1  0  0  3  0  0  0  0  0  0
  187.5920  178.2170  138.9890 C   0  0  0  0  0  0  0  0  0  0  0  0
  189.0360  178.5450  139.1220 C   0  0  0  0  0  2  0  0  0  0  0  0
  188.3500  178.4750  141.9010 N   0  0  0  0  0  0  0  0  0  0  0  0
  187.4880  173.7330  134.9980 C   0  0  0  0  0  2  0  0  0  0  0  0
  191.7130  175.8610  137.2760 C   0  0  2  0  0  0  0  0  0  0  0  0
  186.7630  178.4080  140.0120 C   0  0  0  0  0  3  0  0  0  0  0  0
  187.2190  178.8330  141.3520 C   0  0  0  0  0  3  0  0  0  0  0  0
  185.8750  177.2580  137.1140 C   0  0  0  0  0  2  0  0  0  0  0  0
  190.0560  173.6250  135.4580 C   0  0  1  0  0  3  0  0  0  0  0  0
  189.3710  177.6020  141.3670 C   0  0  0  0  0  0  0  0  0  0  0  0
  191.3200  175.8250  140.1350 O   0  0  0  0  0  0  0  0  0  0  0  0
  186.5460  172.8180  137.1410 C   0  0  0  0  0  1  0  0  0  0  0  0
  186.4610  176.3120  136.1170 C   0  0  1  0  0  3  0  0  0  0  0  0
  187.7390  176.7000  136.7980 C   0  0  0  0  0  2  0  0  0  0  0  0
  187.1350  177.5860  137.7960 N   0  0  0  0  0  0  0  0  0  0  0  0
  190.4190  174.8270  134.5940 C   0  0  0  0  0  2  0  0  0  0  0  0
  189.9770  173.9920  136.9430 C   0  0  0  0  0  2  0  0  0  0  0  0
  190.6590  176.6410  139.4360 C   0  0  0  0  0  0  0  0  0  0  0  0
  191.3500  174.3760  137.4920 C   0  0  0  0  0  2  0  0  0  0  0  0
  187.0290  174.0650  136.4210 C   0  0  2  0  0  3  0  0  0  0  0  0
  191.7140  175.2550  134.9020 O   0  0  0  0  0  0  0  0  0  0  0  0
  193.7990  177.0510  136.9150 O   0  0  0  0  0  1  0  0  0  0  0  0
  193.1680  176.1250  137.7480 C   0  0  2  0  0  3  0  0  0  0  0  0
  194.0890  174.9070  137.9590 C   0  0  2  0  0  3  0  0  0  0  0  0
  195.0350  175.1410  138.9570 O   0  0  0  0  0  1  0  0  0  0  0  0
  194.7480  174.4940  136.7310 N   0  0  0  0  0  2  0  0  0  0  0  0
  196.0210  173.9020  137.1040 C   0  0  0  0  0  1  0  0  0  0  0  0
  188.6500  171.6600  135.5240 O   0  0  0  0  0  0  0  0  0  0  0  0
  189.2010  170.7670  134.6030 C   0  0  0  0  0  1  0  0  0  0  0  0
  2 24  1  0  0  0  0
  4 11  1  0  0  0  0
  5 16  2  0  0  0  0
  6 10  1  0  0  0  0
  6 15  1  0  0  0  0
  6 34  1  1  0  0  0
  7  8  1  0  0  0  0
  7 12  2  0  0  0  0
  8  5  1  0  0  0  0
 10 26  1  0  0  0  0
 11 25  1  0  0  0  0
 11 29  1  1  0  0  0
 11  2  1  0  0  0  0
 12 13  1  0  0  0  0
 13  9  2  0  0  0  0
 14 21  1  0  0  0  0
 15 22  1  6  0  0  0
 15 23  1  0  0  0  0
 16  9  1  0  0  0  0
 16  3  1  0  0  0  0
 19  1  1  0  0  0  0
 19 20  1  1  0  0  0
 19 14  1  0  0  0  0
 20 21  1  0  0  0  0
 21  7  1  0  0  0  0
 22 27  1  0  0  0  0
 23 25  1  0  0  0  0
 24  5  1  0  0  0  0
 24 17  2  0  0  0  0
 26  1  1  0  0  0  0
 26 18  1  6  0  0  0
 27  4  1  0  0  0  0
 29 28  1  6  0  0  0
 29 30  1  0  0  0  0
 30 31  1  1  0  0  0
 32 33  1  0  0  0  0
 32 30  1  0  0  0  0
 35 34  1  0  0  0  0
M  END
>  <MODEL>
1

>  <REMARK>
 VINA RESULT:      -6.2      0.000      0.000
  Name = 
  4 active torsions:
  status: ('A' for Active; 'I' for Inactive)
    1  A    between atoms: C_7  and  O_28
    2  A    between atoms: C_8  and  C_16
    3  A    between atoms: C_8  and  N_21
    4  A    between atoms: C_13  and  C_16
                            x       y       z     vdW  Elec       q    Type
                         _______ _______ _______ _____ _____    ______ ____

>  <TORSDO>
F 4

$$$$
=
 OpenBabel11062413453D

 35 38  0  0  1  0  0  0  0  0999 V2000
  183.7800  177.5070  138.0930 O   0  0  0  0  0  0  0  0  0  0  0  0
  188.9190  177.5500  139.6130 O   0  0  0  0  0  0  0  0  0  0  0  0
  188.4540  175.8500  143.5520 N   0  0  0  0  0  1  0  0  0  0  0  0
  189.4320  178.1230  137.3680 C   0  0  0  0  0  2  0  0  0  0  0  0
  188.0860  177.6080  141.9450 C   0  0  0  0  0  0  0  0  0  0  0  0
  186.0600  175.9250  135.4850 C   0  0  1  0  0  3  0  0  0  0  0  0
  186.0950  178.9510  141.5500 C   0  0  0  0  0  0  0  0  0  0  0  0
  187.5790  178.9720  141.6210 C   0  0  0  0  0  2  0  0  0  0  0  0
  187.0430  177.7610  144.1600 N   0  0  0  0  0  0  0  0  0  0  0  0
  184.9340  176.8040  136.0650 C   0  0  0  0  0  2  0  0  0  0  0  0
  189.6010  177.0460  138.4600 C   0  0  2  0  0  0  0  0  0  0  0  0
  185.3720  178.7800  142.6550 C   0  0  0  0  0  3  0  0  0  0  0  0
  185.9720  178.4870  143.9740 C   0  0  0  0  0  3  0  0  0  0  0  0
  184.1290  179.1950  139.6900 C   0  0  0  0  0  2  0  0  0  0  0  0
  187.4570  176.1310  136.0910 C   0  0  1  0  0  3  0  0  0  0  0  0
  187.8510  177.0840  143.1710 C   0  0  0  0  0  0  0  0  0  0  0  0
  189.3620  175.7880  141.0460 O   0  0  0  0  0  0  0  0  0  0  0  0
  183.9540  175.1710  137.7050 C   0  0  0  0  0  1  0  0  0  0  0  0
  184.4720  178.7240  138.3150 C   0  0  1  0  0  3  0  0  0  0  0  0
  185.8360  178.5760  138.9210 C   0  0  0  0  0  2  0  0  0  0  0  0
  185.4640  178.9960  140.2740 N   0  0  0  0  0  0  0  0  0  0  0  0
  187.9920  177.5270  135.7910 C   0  0  0  0  0  2  0  0  0  0  0  0
  187.5290  175.7990  137.5840 C   0  0  0  0  0  2  0  0  0  0  0  0
  188.8290  176.9170  140.8630 C   0  0  0  0  0  0  0  0  0  0  0  0
  188.9760  175.6930  138.0580 C   0  0  0  0  0  2  0  0  0  0  0  0
  184.6230  176.5240  137.5390 C   0  0  2  0  0  3  0  0  0  0  0  0
  189.3600  177.5780  136.0810 O   0  0  0  0  0  0  0  0  0  0  0  0
  191.5400  177.8530  139.6790 O   0  0  0  0  0  1  0  0  0  0  0  0
  191.1020  176.8570  138.8030 C   0  0  2  0  0  3  0  0  0  0  0  0
  192.0970  176.7220  137.6340 C   0  0  2  0  0  3  0  0  0  0  0  0
  191.8390  175.5880  136.8630 O   0  0  0  0  0  1  0  0  0  0  0  0
  193.4790  176.7190  138.0830 N   0  0  0  0  0  2  0  0  0  0  0  0
  193.9760  175.3610  137.9390 C   0  0  0  0  0  1  0  0  0  0  0  0
  185.7120  174.5710  135.4850 O   0  0  0  0  0  0  0  0  0  0  0  0
  186.6040  173.9720  134.5940 C   0  0  0  0  0  1  0  0  0  0  0  0
  1 19  1  0  0  0  0
  2 24  1  0  0  0  0
  4 11  1  0  0  0  0
  5 16  2  0  0  0  0
  6 34  1  1  0  0  0
  6 10  1  0  0  0  0
  6 15  1  0  0  0  0
  7  8  1  0  0  0  0
  7 12  2  0  0  0  0
  8  5  1  0  0  0  0
 10 26  1  0  0  0  0
 11 29  1  1  0  0  0
 11  2  1  0  0  0  0
 12 13  1  0  0  0  0
 13  9  2  0  0  0  0
 14 21  1  0  0  0  0
 15 22  1  1  0  0  0
 15 23  1  0  0  0  0
 16  3  1  0  0  0  0
 16  9  1  0  0  0  0
 19 20  1  1  0  0  0
 19 14  1  0  0  0  0
 20 21  1  0  0  0  0
 21  7  1  0  0  0  0
 22 27  1  0  0  0  0
 23 25  1  0  0  0  0
 24 17  2  0  0  0  0
 24  5  1  0  0  0  0
 25 11  1  0  0  0  0
 26 18  1  6  0  0  0
 26  1  1  0  0  0  0
 27  4  1  0  0  0  0
 29 28  1  6  0  0  0
 30 31  1  1  0  0  0
 30 32  1  0  0  0  0
 30 29  1  0  0  0  0
 33 32  1  0  0  0  0
 35 34  1  0  0  0  0
M  END
>  <MODEL>
2

>  <REMARK>
 VINA RESULT:      -5.2      2.290      3.239
  Name = 
  4 active torsions:
  status: ('A' for Active; 'I' for Inactive)
    1  A    between atoms: C_7  and  O_28
    2  A    between atoms: C_8  and  C_16
    3  A    between atoms: C_8  and  N_21
    4  A    between atoms: C_13  and  C_16
                            x       y       z     vdW  Elec       q    Type
                         _______ _______ _______ _____ _____    ______ ____

>  <TORSDO>
F 4

$$$$
=
 OpenBabel11062413453D

 35 38  0  0  1  0  0  0  0  0999 V2000
  182.8550  174.8250  136.7490 O   0  0  0  0  0  0  0  0  0  0  0  0
  186.5040  178.3690  138.4390 O   0  0  0  0  0  0  0  0  0  0  0  0
  185.7550  178.1110  142.6810 N   0  0  0  0  0  1  0  0  0  0  0  0
  187.3290  178.3680  136.2140 C   0  0  0  0  0  2  0  0  0  0  0  0
  185.0750  178.6780  140.4390 C   0  0  0  0  0  0  0  0  0  0  0  0
  186.3010  174.1470  135.2780 C   0  0  1  0  0  3  0  0  0  0  0  0
  182.9180  178.3760  139.3540 C   0  0  0  0  0  0  0  0  0  0  0  0
  184.0830  179.2870  139.5090 C   0  0  0  0  0  2  0  0  0  0  0  0
  183.4680  178.8960  142.2780 N   0  0  0  0  0  0  0  0  0  0  0  0
  184.7700  174.3250  135.3290 C   0  0  0  0  0  2  0  0  0  0  0  0
  187.6650  178.0220  137.6790 C   0  0  2  0  0  0  0  0  0  0  0  0
  182.0770  178.1830  140.3680 C   0  0  0  0  0  3  0  0  0  0  0  0
  182.2970  178.7450  141.7170 C   0  0  0  0  0  3  0  0  0  0  0  0
  181.7900  176.8000  137.4500 C   0  0  0  0  0  2  0  0  0  0  0  0
  187.1350  175.3170  135.8230 C   0  0  1  0  0  3  0  0  0  0  0  0
  184.7680  178.5490  141.7510 C   0  0  0  0  0  0  0  0  0  0  0  0
  187.2990  177.7870  140.5320 O   0  0  0  0  0  0  0  0  0  0  0  0
  184.2900  173.0700  137.4530 C   0  0  0  0  0  1  0  0  0  0  0  0
  182.7320  176.2060  136.4540 C   0  0  1  0  0  3  0  0  0  0  0  0
  183.7170  177.0940  137.1550 C   0  0  0  0  0  2  0  0  0  0  0  0
  182.7840  177.6260  138.1510 N   0  0  0  0  0  0  0  0  0  0  0  0
  186.9590  176.5690  134.9720 C   0  0  0  0  0  2  0  0  0  0  0  0
  186.8950  175.5960  137.3090 C   0  0  0  0  0  2  0  0  0  0  0  0
  186.3600  178.2520  139.8310 C   0  0  0  0  0  0  0  0  0  0  0  0
  187.9680  176.5210  137.8790 C   0  0  0  0  0  2  0  0  0  0  0  0
  184.2010  174.4120  136.7490 C   0  0  2  0  0  3  0  0  0  0  0  0
  187.9450  177.5040  135.3010 O   0  0  0  0  0  0  0  0  0  0  0  0
  189.0300  180.0080  137.3720 O   0  0  0  0  0  1  0  0  0  0  0  0
  188.8650  178.8750  138.1720 C   0  0  2  0  0  3  0  0  0  0  0  0
  190.2220  178.1700  138.3570 C   0  0  2  0  0  3  0  0  0  0  0  0
  190.4370  177.1970  137.3800 O   0  0  0  0  0  1  0  0  0  0  0  0
  190.3690  177.5900  139.6810 N   0  0  0  0  0  2  0  0  0  0  0  0
  191.7230  177.0740  139.7800 C   0  0  0  0  0  1  0  0  0  0  0  0
  186.7010  172.9390  135.8550 O   0  0  0  0  0  0  0  0  0  0  0  0
  187.9080  172.6240  135.2290 C   0  0  0  0  0  1  0  0  0  0  0  0
  1 26  1  0  0  0  0
  2 24  1  0  0  0  0
  4 11  1  0  0  0  0
  5 16  2  0  0  0  0
  6 10  1  0  0  0  0
  6 15  1  0  0  0  0
  6 34  1  1  0  0  0
  7  8  1  0  0  0  0
  7 12  2  0  0  0  0
  8  5  1  0  0  0  0
 10 26  1  0  0  0  0
 11 25  1  0  0  0  0
 11 29  1  1  0  0  0
 11  2  1  0  0  0  0
 12 13  1  0  0  0  0
 13  9  2  0  0  0  0
 14 21  1  0  0  0  0
 15 22  1  6  0  0  0
 15 23  1  0  0  0  0
 16  9  1  0  0  0  0
 16  3  1  0  0  0  0
 19  1  1  0  0  0  0
 19 20  1  1  0  0  0
 19 14  1  0  0  0  0
 20 21  1  0  0  0  0
 21  7  1  0  0  0  0
 22 27  1  0  0  0  0
 23 25  1  0  0  0  0
 24  5  1  0  0  0  0
 24 17  2  0  0  0  0
 26 18  1  6  0  0  0
 27  4  1  0  0  0  0
 29 28  1  6  0  0  0
 29 30  1  0  0  0  0
 30 31  1  6  0  0  0
 30 32  1  0  0  0  0
 32 33  1  0  0  0  0
 35 34  1  0  0  0  0
M  END
>  <MODEL>
3

>  <REMARK>
 VINA RESULT:      -5.0      2.905      4.361
  Name = 
  4 active torsions:
  status: ('A' for Active; 'I' for Inactive)
    1  A    between atoms: C_7  and  O_28
    2  A    between atoms: C_8  and  C_16
    3  A    between atoms: C_8  and  N_21
    4  A    between atoms: C_13  and  C_16
                            x       y       z     vdW  Elec       q    Type
                         _______ _______ _______ _____ _____    ______ ____

>  <TORSDO>
F 4

$$$$
=
 OpenBabel11062413453D

 35 38  0  0  1  0  0  0  0  0999 V2000
  187.8100  178.4250  141.4650 O   0  0  0  0  0  0  0  0  0  0  0  0
  184.4440  176.6510  137.6900 O   0  0  0  0  0  0  0  0  0  0  0  0
  185.9550  172.6280  137.2990 N   0  0  0  0  0  1  0  0  0  0  0  0
  183.2290  178.6620  138.0280 C   0  0  0  0  0  2  0  0  0  0  0  0
  186.2030  175.0160  137.0840 C   0  0  0  0  0  0  0  0  0  0  0  0
  184.1710  179.1210  142.3460 C   0  0  1  0  0  3  0  0  0  0  0  0
  188.1350  176.4190  137.5580 C   0  0  0  0  0  0  0  0  0  0  0  0
  186.9960  176.1930  136.6290 C   0  0  0  0  0  2  0  0  0  0  0  0
  188.1120  173.5560  136.5940 N   0  0  0  0  0  0  0  0  0  0  0  0
  185.6810  179.3780  142.1690 C   0  0  0  0  0  2  0  0  0  0  0  0
  183.1720  177.1240  138.1440 C   0  0  2  0  0  0  0  0  0  0  0  0
  189.1500  175.5590  137.5970 C   0  0  0  0  0  3  0  0  0  0  0  0
  189.1650  174.2930  136.8340 C   0  0  0  0  0  3  0  0  0  0  0  0
  188.9360  178.2370  139.4110 C   0  0  0  0  0  2  0  0  0  0  0  0
  183.4210  178.6150  141.1040 C   0  0  1  0  0  3  0  0  0  0  0  0
  186.7470  173.7780  137.0130 C   0  0  0  0  0  0  0  0  0  0  0  0
  184.0550  174.3840  137.9420 O   0  0  0  0  0  0  0  0  0  0  0  0
  186.5680  177.2130  143.0870 C   0  0  0  0  0  1  0  0  0  0  0  0
  187.8430  178.9420  140.1460 C   0  0  1  0  0  3  0  0  0  0  0  0
  186.9810  178.2160  139.1580 C   0  0  0  0  0  2  0  0  0  0  0  0
  188.0660  177.4980  138.4840 N   0  0  0  0  0  0  0  0  0  0  0  0
  183.4100  179.6640  139.9970 C   0  0  0  0  0  2  0  0  0  0  0  0
  183.9210  177.2580  140.6010 C   0  0  0  0  0  2  0  0  0  0  0  0
  184.8400  175.3070  137.5940 C   0  0  0  0  0  0  0  0  0  0  0  0
  182.9470  176.6480  139.5950 C   0  0  0  0  0  2  0  0  0  0  0  0
  186.4960  178.1160  141.8680 C   0  0  2  0  0  3  0  0  0  0  0  0
  182.4780  179.3050  139.0190 O   0  0  0  0  0  0  0  0  0  0  0  0
  181.7530  177.4580  136.2020 O   0  0  0  0  0  1  0  0  0  0  0  0
  182.0620  176.5540  137.2210 C   0  0  2  0  0  3  0  0  0  0  0  0
  180.7620  176.0550  137.8810 C   0  0  2  0  0  3  0  0  0  0  0  0
  180.3920  174.7960  137.4080 O   0  0  0  0  0  1  0  0  0  0  0  0
  179.6640  176.9940  137.7170 N   0  0  0  0  0  2  0  0  0  0  0  0
  179.3730  177.5500  139.0280 C   0  0  0  0  0  1  0  0  0  0  0  0
  183.9110  178.3040  143.4510 O   0  0  0  0  0  0  0  0  0  0  0  0
  183.4280  179.1710  144.4320 C   0  0  0  0  0  1  0  0  0  0  0  0
  1 26  1  0  0  0  0
  2 11  1  0  0  0  0
  4 11  1  0  0  0  0
  4 27  1  0  0  0  0
  5 24  1  0  0  0  0
  6 34  1  1  0  0  0
  7 12  2  0  0  0  0
  7 21  1  0  0  0  0
  8  5  1  0  0  0  0
  8  7  1  0  0  0  0
  9 13  2  0  0  0  0
  9 16  1  0  0  0  0
 10  6  1  0  0  0  0
 11 29  1  6  0  0  0
 11 25  1  0  0  0  0
 13 12  1  0  0  0  0
 14 19  1  0  0  0  0
 15 22  1  6  0  0  0
 15  6  1  0  0  0  0
 16  5  2  0  0  0  0
 16  3  1  0  0  0  0
 19 20  1  6  0  0  0
 19  1  1  0  0  0  0
 21 20  1  0  0  0  0
 21 14  1  0  0  0  0
 23 15  1  0  0  0  0
 24  2  1  0  0  0  0
 24 17  2  0  0  0  0
 25 23  1  0  0  0  0
 26 10  1  0  0  0  0
 26 18  1  1  0  0  0
 27 22  1  0  0  0  0
 29 28  1  6  0  0  0
 29 30  1  0  0  0  0
 30 31  1  6  0  0  0
 32 30  1  0  0  0  0
 32 33  1  0  0  0  0
 34 35  1  0  0  0  0
M  END
>  <MODEL>
4

>  <REMARK>
 VINA RESULT:      -4.9      3.862      9.164
  Name = 
  4 active torsions:
  status: ('A' for Active; 'I' for Inactive)
    1  A    between atoms: C_7  and  O_28
    2  A    between atoms: C_8  and  C_16
    3  A    between atoms: C_8  and  N_21
    4  A    between atoms: C_13  and  C_16
                            x       y       z     vdW  Elec       q    Type
                         _______ _______ _______ _____ _____    ______ ____

>  <TORSDO>
F 4

$$$$
=
 OpenBabel11062413453D

 35 38  0  0  1  0  0  0  0  0999 V2000
  192.0520  177.1080  141.7260 O   0  0  0  0  0  0  0  0  0  0  0  0
  190.2380  176.4310  136.7280 O   0  0  0  0  0  0  0  0  0  0  0  0
  191.5610  172.3740  136.0920 N   0  0  0  0  0  1  0  0  0  0  0  0
  189.0970  178.4930  137.0140 C   0  0  0  0  0  2  0  0  0  0  0  0
  192.0030  174.7130  136.4670 C   0  0  0  0  0  0  0  0  0  0  0  0
  188.3910  178.0980  141.3830 C   0  0  1  0  0  3  0  0  0  0  0  0
  193.6950  175.7620  137.8670 C   0  0  0  0  0  0  0  0  0  0  0  0
  192.9720  175.8400  136.5700 C   0  0  0  0  0  2  0  0  0  0  0  0
  193.8740  173.1280  136.4000 N   0  0  0  0  0  0  0  0  0  0  0  0
  189.8710  178.1890  141.8070 C   0  0  0  0  0  2  0  0  0  0  0  0
  188.9170  176.9770  136.7880 C   0  0  2  0  0  0  0  0  0  0  0  0
  194.5730  174.7870  138.0880 C   0  0  0  0  0  3  0  0  0  0  0  0
  194.8010  173.6760  137.1410 C   0  0  0  0  0  3  0  0  0  0  0  0
  193.8490  177.1280  140.2110 C   0  0  0  0  0  2  0  0  0  0  0  0
  188.1310  177.9070  139.8810 C   0  0  1  0  0  3  0  0  0  0  0  0
  192.4650  173.4460  136.3440 C   0  0  0  0  0  0  0  0  0  0  0  0
  189.6590  174.2210  136.3610 O   0  0  0  0  0  0  0  0  0  0  0  0
  190.2330  175.8070  142.5220 C   0  0  0  0  0  1  0  0  0  0  0  0
  192.6020  177.8320  140.6380 C   0  0  1  0  0  3  0  0  0  0  0  0
  192.1300  177.3960  139.2830 C   0  0  0  0  0  2  0  0  0  0  0  0
  193.3470  176.6710  138.9070 N   0  0  0  0  0  0  0  0  0  0  0  0
  188.5900  179.1190  139.0780 C   0  0  0  0  0  2  0  0  0  0  0  0
  188.7050  176.6010  139.3240 C   0  0  0  0  0  2  0  0  0  0  0  0
  190.5670  175.0840  136.5080 C   0  0  0  0  0  0  0  0  0  0  0  0
  188.1430  176.2960  137.9370 C   0  0  0  0  0  2  0  0  0  0  0  0
  190.6680  176.9040  141.5660 C   0  0  2  0  0  3  0  0  0  0  0  0
  188.0690  179.0500  137.7820 O   0  0  0  0  0  0  0  0  0  0  0  0
  188.1690  177.8740  134.6590 O   0  0  0  0  0  1  0  0  0  0  0  0
  188.2000  176.7150  135.4370 C   0  0  2  0  0  3  0  0  0  0  0  0
  186.7950  176.0830  135.4780 C   0  0  2  0  0  3  0  0  0  0  0  0
  186.6870  175.0060  134.5980 O   0  0  0  0  0  1  0  0  0  0  0  0
  185.7450  177.0530  135.2140 N   0  0  0  0  0  2  0  0  0  0  0  0
  184.9170  177.1280  136.4050 C   0  0  0  0  0  1  0  0  0  0  0  0
  187.6950  177.1470  142.1340 O   0  0  0  0  0  0  0  0  0  0  0  0
  186.7410  177.8780  142.8440 C   0  0  0  0  0  1  0  0  0  0  0  0
  2 11  1  0  0  0  0
  3 16  1  0  0  0  0
  4 27  1  0  0  0  0
  5 24  1  0  0  0  0
  5  8  1  0  0  0  0
  6 10  1  0  0  0  0
  6 34  1  1  0  0  0
  7 12  2  0  0  0  0
  7 21  1  0  0  0  0
  8  7  1  0  0  0  0
  9 13  2  0  0  0  0
 11 29  1  6  0  0  0
 11  4  1  0  0  0  0
 11 25  1  0  0  0  0
 13 12  1  0  0  0  0
 14 19  1  0  0  0  0
 15 22  1  6  0  0  0
 15  6  1  0  0  0  0
 16  9  1  0  0  0  0
 16  5  2  0  0  0  0
 17 24  2  0  0  0  0
 19 20  1  6  0  0  0
 19  1  1  0  0  0  0
 21 20  1  0  0  0  0
 21 14  1  0  0  0  0
 23 15  1  0  0  0  0
 24  2  1  0  0  0  0
 25 23  1  0  0  0  0
 26  1  1  0  0  0  0
 26 10  1  0  0  0  0
 26 18  1  1  0  0  0
 27 22  1  0  0  0  0
 29 28  1  1  0  0  0
 29 30  1  0  0  0  0
 30 31  1  6  0  0  0
 32 30  1  0  0  0  0
 32 33  1  0  0  0  0
 34 35  1  0  0  0  0
M  END
>  <MODEL>
5

>  <REMARK>
 VINA RESULT:      -4.8      2.502      7.237
  Name = 
  4 active torsions:
  status: ('A' for Active; 'I' for Inactive)
    1  A    between atoms: C_7  and  O_28
    2  A    between atoms: C_8  and  C_16
    3  A    between atoms: C_8  and  N_21
    4  A    between atoms: C_13  and  C_16
                            x       y       z     vdW  Elec       q    Type
                         _______ _______ _______ _____ _____    ______ ____

>  <TORSDO>
F 4

$$$$
=
 OpenBabel11062413453D

 35 38  0  0  1  0  0  0  0  0999 V2000
  180.1260  177.5090  135.6710 O   0  0  0  0  0  0  0  0  0  0  0  0
  184.3770  177.7600  138.9270 O   0  0  0  0  0  0  0  0  0  0  0  0
  187.4820  177.9740  135.9380 N   0  0  0  0  0  1  0  0  0  0  0  0
  182.8250  178.0460  140.7000 C   0  0  0  0  0  2  0  0  0  0  0  0
  185.6930  176.8090  137.0560 C   0  0  0  0  0  0  0  0  0  0  0  0
  179.7300  180.1930  138.3440 C   0  0  1  0  0  3  0  0  0  0  0  0
  183.9570  175.3810  136.1240 C   0  0  0  0  0  0  0  0  0  0  0  0
  184.8950  175.5680  137.2620 C   0  0  0  0  0  2  0  0  0  0  0  0
  186.7750  175.7760  135.1130 N   0  0  0  0  0  0  0  0  0  0  0  0
  179.3550  179.0100  137.4290 C   0  0  0  0  0  2  0  0  0  0  0  0
  183.9710  178.7140  139.9130 C   0  0  2  0  0  0  0  0  0  0  0  0
  184.4200  175.0660  134.9170 C   0  0  0  0  0  3  0  0  0  0  0  0
  185.8610  174.9960  134.5980 C   0  0  0  0  0  3  0  0  0  0  0  0
  181.2850  175.4640  135.6380 C   0  0  0  0  0  2  0  0  0  0  0  0
  181.0010  180.0170  139.1880 C   0  0  1  0  0  3  0  0  0  0  0  0
  186.6050  176.8570  136.0570 C   0  0  0  0  0  0  0  0  0  0  0  0
  186.0760  178.9970  137.9580 O   0  0  0  0  0  0  0  0  0  0  0  0
  180.3430  179.8390  135.2720 C   0  0  0  0  0  1  0  0  0  0  0  0
  180.4970  176.4090  136.4850 C   0  0  1  0  0  3  0  0  0  0  0  0
  181.8120  176.5570  137.1910 C   0  0  0  0  0  2  0  0  0  0  0  0
  182.5740  175.6630  136.3160 N   0  0  0  0  0  0  0  0  0  0  0  0
  180.8380  178.8980  140.2110 C   0  0  0  0  0  2  0  0  0  0  0  0
  182.2710  179.8460  138.3500 C   0  0  0  0  0  2  0  0  0  0  0  0
  185.4140  177.9240  137.9940 C   0  0  0  0  0  0  0  0  0  0  0  0
  183.5250  180.0110  139.2050 C   0  0  0  0  0  2  0  0  0  0  0  0
  180.3710  178.7370  136.3160 C   0  0  2  0  0  3  0  0  0  0  0  0
  181.8720  178.9660  141.1500 O   0  0  0  0  0  0  0  0  0  0  0  0
  186.3740  178.6260  140.2580 O   0  0  0  0  0  1  0  0  0  0  0  0
  185.1700  179.0090  140.8530 C   0  0  2  0  0  3  0  0  0  0  0  0
  185.1090  178.4620  142.2930 C   0  0  2  0  0  3  0  0  0  0  0  0
  184.6970  179.4390  143.2000 O   0  0  0  0  0  1  0  0  0  0  0  0
  186.3730  177.8850  142.7180 N   0  0  0  0  0  2  0  0  0  0  0  0
  186.3900  177.9060  144.1710 C   0  0  0  0  0  1  0  0  0  0  0  0
  179.7620  181.4000  137.6400 O   0  0  0  0  0  0  0  0  0  0  0  0
  179.3630  182.3660  138.5660 C   0  0  0  0  0  1  0  0  0  0  0  0
  1 26  1  0  0  0  0
  1 19  1  0  0  0  0
  2 11  1  0  0  0  0
  3 16  1  0  0  0  0
  4 27  1  0  0  0  0
  5  8  1  0  0  0  0
  5 24  1  0  0  0  0
  6 34  1  6  0  0  0
  6 15  1  0  0  0  0
  7 21  1  0  0  0  0
  7  8  1  0  0  0  0
  9 16  1  0  0  0  0
 10  6  1  0  0  0  0
 11  4  1  0  0  0  0
 11 29  1  1  0  0  0
 12  7  2  0  0  0  0
 13 12  1  0  0  0  0
 13  9  2  0  0  0  0
 14 21  1  0  0  0  0
 15 23  1  6  0  0  0
 15 22  1  0  0  0  0
 16  5  2  0  0  0  0
 17 24  2  0  0  0  0
 19 14  1  6  0  0  0
 19 20  1  0  0  0  0
 21 20  1  0  0  0  0
 22 27  1  0  0  0  0
 23 25  1  0  0  0  0
 24  2  1  0  0  0  0
 25 11  1  0  0  0  0
 26 18  1  6  0  0  0
 26 10  1  0  0  0  0
 29 28  1  6  0  0  0
 29 30  1  0  0  0  0
 30 32  1  0  0  0  0
 30 31  1  1  0  0  0
 32 33  1  0  0  0  0
 34 35  1  0  0  0  0
M  END
>  <MODEL>
6

>  <REMARK>
 VINA RESULT:      -4.3      5.225      9.134
  Name = 
  4 active torsions:
  status: ('A' for Active; 'I' for Inactive)
    1  A    between atoms: C_7  and  O_28
    2  A    between atoms: C_8  and  C_16
    3  A    between atoms: C_8  and  N_21
    4  A    between atoms: C_13  and  C_16
                            x       y       z     vdW  Elec       q    Type
                         _______ _______ _______ _____ _____    ______ ____

>  <TORSDO>
F 4

$$$$
=
 OpenBabel11062413453D

 35 38  0  0  1  0  0  0  0  0999 V2000
  185.9440  179.0030  139.3200 O   0  0  0  0  0  0  0  0  0  0  0  0
  184.3760  174.7980  136.3890 O   0  0  0  0  0  0  0  0  0  0  0  0
  187.3030  171.9290  137.7390 N   0  0  0  0  0  1  0  0  0  0  0  0
  182.4670  176.0860  135.8190 C   0  0  0  0  0  2  0  0  0  0  0  0
  186.7000  173.9630  136.5960 C   0  0  0  0  0  0  0  0  0  0  0  0
  182.2050  178.3490  139.6340 C   0  0  1  0  0  3  0  0  0  0  0  0
  187.8280  176.1190  136.5760 C   0  0  0  0  0  0  0  0  0  0  0  0
  187.0850  175.1290  135.7520 C   0  0  0  0  0  2  0  0  0  0  0  0
  189.0680  173.3780  136.8460 N   0  0  0  0  0  0  0  0  0  0  0  0
  183.5150  179.1430  139.4560 C   0  0  0  0  0  2  0  0  0  0  0  0
  182.9540  174.8120  136.5400 C   0  0  2  0  0  0  0  0  0  0  0  0
  189.0520  175.8400  137.0170 C   0  0  0  0  0  3  0  0  0  0  0  0
  189.6970  174.5240  136.8300 C   0  0  0  0  0  3  0  0  0  0  0  0
  187.4810  178.6180  137.5840 C   0  0  0  0  0  2  0  0  0  0  0  0
  181.9850  177.1830  138.6590 C   0  0  1  0  0  3  0  0  0  0  0  0
  187.6600  173.1300  137.0600 C   0  0  0  0  0  0  0  0  0  0  0  0
  184.8010  172.8180  137.5090 O   0  0  0  0  0  0  0  0  0  0  0  0
  184.9110  178.0170  141.2170 C   0  0  0  0  0  1  0  0  0  0  0  0
  186.0730  178.9990  137.9090 C   0  0  1  0  0  3  0  0  0  0  0  0
  185.7760  177.6860  137.2480 C   0  0  0  0  0  2  0  0  0  0  0  0
  187.1680  177.3120  136.9830 N   0  0  0  0  0  0  0  0  0  0  0  0
  181.8330  177.6780  137.2250 C   0  0  0  0  0  2  0  0  0  0  0  0
  183.0440  176.0830  138.7750 C   0  0  0  0  0  2  0  0  0  0  0  0
  185.2490  173.8050  136.8650 C   0  0  0  0  0  0  0  0  0  0  0  0
  182.6070  174.8150  138.0450 C   0  0  0  0  0  2  0  0  0  0  0  0
  184.7810  178.3260  139.7360 C   0  0  2  0  0  3  0  0  0  0  0  0
  181.3350  176.6470  136.4220 O   0  0  0  0  0  0  0  0  0  0  0  0
  181.8610  173.8550  134.5940 O   0  0  0  0  0  1  0  0  0  0  0  0
  182.3610  173.5490  135.8620 C   0  0  2  0  0  3  0  0  0  0  0  0
  181.3140  172.7340  136.6460 C   0  0  2  0  0  3  0  0  0  0  0  0
  181.6640  171.3860  136.7290 O   0  0  0  0  0  1  0  0  0  0  0  0
  179.9780  172.8710  136.0910 N   0  0  0  0  0  2  0  0  0  0  0  0
  179.2150  173.7050  137.0030 C   0  0  0  0  0  1  0  0  0  0  0  0
  182.0280  177.9330  140.9570 O   0  0  0  0  0  0  0  0  0  0  0  0
  181.1820  178.8870  141.5230 C   0  0  0  0  0  1  0  0  0  0  0  0
  1 26  1  0  0  0  0
  2 11  1  0  0  0  0
  2 24  1  0  0  0  0
  4 27  1  0  0  0  0
  4 11  1  0  0  0  0
  5 24  1  0  0  0  0
  5 16  2  0  0  0  0
  6 34  1  1  0  0  0
  7 21  1  0  0  0  0
  7 12  2  0  0  0  0
  8  7  1  0  0  0  0
  8  5  1  0  0  0  0
  9 16  1  0  0  0  0
 10  6  1  0  0  0  0
 10 26  1  0  0  0  0
 11 29  1  6  0  0  0
 11 25  1  0  0  0  0
 13  9  2  0  0  0  0
 13 12  1  0  0  0  0
 14 19  1  0  0  0  0
 15 22  1  6  0  0  0
 15 23  1  0  0  0  0
 15  6  1  0  0  0  0
 16  3  1  0  0  0  0
 19 20  1  6  0  0  0
 19  1  1  0  0  0  0
 21 20  1  0  0  0  0
 21 14  1  0  0  0  0
 24 17  2  0  0  0  0
 25 23  1  0  0  0  0
 26 18  1  1  0  0  0
 27 22  1  0  0  0  0
 29 28  1  6  0  0  0
 29 30  1  0  0  0  0
 30 31  1  6  0  0  0
 32 30  1  0  0  0  0
 32 33  1  0  0  0  0
 34 35  1  0  0  0  0
M  END
>  <MODEL>
7

>  <REMARK>
 VINA RESULT:      -4.0      4.149      8.861
  Name = 
  4 active torsions:
  status: ('A' for Active; 'I' for Inactive)
    1  A    between atoms: C_7  and  O_28
    2  A    between atoms: C_8  and  C_16
    3  A    between atoms: C_8  and  N_21
    4  A    between atoms: C_13  and  C_16
                            x       y       z     vdW  Elec       q    Type
                         _______ _______ _______ _____ _____    ______ ____

>  <TORSDO>
F 4

$$$$
=
 OpenBabel11062413453D

 35 38  0  0  1  0  0  0  0  0999 V2000
  186.3070  178.6220  138.1470 O   0  0  0  0  0  0  0  0  0  0  0  0
  181.6000  176.4350  136.8080 O   0  0  0  0  0  0  0  0  0  0  0  0
  179.8920  179.7900  134.7000 N   0  0  0  0  0  1  0  0  0  0  0  0
  182.4990  174.3760  137.5730 C   0  0  0  0  0  2  0  0  0  0  0  0
  180.7110  178.7450  136.7110 C   0  0  0  0  0  0  0  0  0  0  0  0
  186.7260  175.2190  136.4920 C   0  0  1  0  0  3  0  0  0  0  0  0
  182.0490  179.6900  138.5110 C   0  0  0  0  0  0  0  0  0  0  0  0
  180.9210  178.7780  138.1860 C   0  0  0  0  0  2  0  0  0  0  0  0
  180.0220  181.0980  136.7690 N   0  0  0  0  0  0  0  0  0  0  0  0
  186.9420  176.3590  137.5060 C   0  0  0  0  0  2  0  0  0  0  0  0
  181.9710  175.1350  136.3390 C   0  0  2  0  0  0  0  0  0  0  0  0
  181.9180  181.0040  138.3470 C   0  0  0  0  0  3  0  0  0  0  0  0
  180.7250  181.6270  137.7370 C   0  0  0  0  0  3  0  0  0  0  0  0
  184.5900  179.5460  139.4610 C   0  0  0  0  0  2  0  0  0  0  0  0
  185.2730  174.7630  136.2860 C   0  0  1  0  0  3  0  0  0  0  0  0
  180.2430  179.8470  136.0800 C   0  0  0  0  0  0  0  0  0  0  0  0
  180.8380  177.3000  134.8020 O   0  0  0  0  0  0  0  0  0  0  0  0
  187.0470  178.3010  135.9150 C   0  0  0  0  0  1  0  0  0  0  0  0
  185.3390  178.2960  139.1310 C   0  0  1  0  0  3  0  0  0  0  0  0
  184.0050  177.8760  138.5920 C   0  0  0  0  0  2  0  0  0  0  0  0
  183.3040  179.1300  138.8830 N   0  0  0  0  0  0  0  0  0  0  0  0
  184.7030  174.1370  137.5540 C   0  0  0  0  0  2  0  0  0  0  0  0
  184.3620  175.8620  135.7320 C   0  0  0  0  0  2  0  0  0  0  0  0
  181.0410  177.4660  136.0360 C   0  0  0  0  0  0  0  0  0  0  0  0
  183.0390  175.2860  135.2340 C   0  0  0  0  0  2  0  0  0  0  0  0
  186.3080  177.6900  137.0910 C   0  0  2  0  0  3  0  0  0  0  0  0
  183.5130  173.4660  137.2530 O   0  0  0  0  0  0  0  0  0  0  0  0
  179.5600  174.8580  136.4260 O   0  0  0  0  0  1  0  0  0  0  0  0
  180.7140  174.4270  135.7680 C   0  0  2  0  0  3  0  0  0  0  0  0
  180.7240  172.8880  135.6970 C   0  0  2  0  0  3  0  0  0  0  0  0
  181.4700  172.4250  134.6120 O   0  0  0  0  0  1  0  0  0  0  0  0
  179.3830  172.3280  135.6570 N   0  0  0  0  0  2  0  0  0  0  0  0
  179.3970  171.1180  136.4610 C   0  0  0  0  0  1  0  0  0  0  0  0
  187.3390  175.4940  135.2660 O   0  0  0  0  0  0  0  0  0  0  0  0
  188.4990  174.7170  135.2620 C   0  0  0  0  0  1  0  0  0  0  0  0
  1 19  1  0  0  0  0
  3 16  1  0  0  0  0
  5  8  1  0  0  0  0
  6 34  1  6  0  0  0
  6 10  1  0  0  0  0
  7 21  1  0  0  0  0
  8  7  1  0  0  0  0
  9 13  2  0  0  0  0
 11 29  1  6  0  0  0
 11  2  1  0  0  0  0
 11  4  1  0  0  0  0
 12  7  2  0  0  0  0
 13 12  1  0  0  0  0
 15 23  1  1  0  0  0
 15  6  1  0  0  0  0
 15 22  1  0  0  0  0
 16  5  2  0  0  0  0
 16  9  1  0  0  0  0
 17 24  2  0  0  0  0
 19 20  1  6  0  0  0
 19 14  1  0  0  0  0
 20 21  1  0  0  0  0
 21 14  1  0  0  0  0
 24  5  1  0  0  0  0
 24  2  1  0  0  0  0
 25 23  1  0  0  0  0
 25 11  1  0  0  0  0
 26 18  1  6  0  0  0
 26 10  1  0  0  0  0
 26  1  1  0  0  0  0
 27 22  1  0  0  0  0
 27  4  1  0  0  0  0
 29 28  1  1  0  0  0
 30 31  1  6  0  0  0
 30 29  1  0  0  0  0
 32 30  1  0  0  0  0
 32 33  1  0  0  0  0
 35 34  1  0  0  0  0
M  END
>  <MODEL>
8

>  <REMARK>
 VINA RESULT:      -4.0      4.888      9.146
  Name = 
  4 active torsions:
  status: ('A' for Active; 'I' for Inactive)
    1  A    between atoms: C_7  and  O_28
    2  A    between atoms: C_8  and  C_16
    3  A    between atoms: C_8  and  N_21
    4  A    between atoms: C_13  and  C_16
                            x       y       z     vdW  Elec       q    Type
                         _______ _______ _______ _____ _____    ______ ____

>  <TORSDO>
F 4

$$$$
=
 OpenBabel11062413453D

 35 38  0  0  1  0  0  0  0  0999 V2000
  183.4650  177.5420  138.2280 O   0  0  0  0  0  0  0  0  0  0  0  0
  188.1660  178.2290  140.7090 O   0  0  0  0  0  0  0  0  0  0  0  0
  187.1900  176.3890  144.4880 N   0  0  0  0  0  1  0  0  0  0  0  0
  189.0160  178.9180  138.6030 C   0  0  0  0  0  2  0  0  0  0  0  0
  186.9020  178.1210  142.8370 C   0  0  0  0  0  0  0  0  0  0  0  0
  186.3930  176.3390  136.1120 C   0  0  1  0  0  3  0  0  0  0  0  0
  184.8610  179.1970  142.0640 C   0  0  0  0  0  0  0  0  0  0  0  0
  186.2880  179.4130  142.4190 C   0  0  0  0  0  2  0  0  0  0  0  0
  185.4450  178.0820  144.8090 N   0  0  0  0  0  0  0  0  0  0  0  0
  185.0680  177.0460  136.4630 C   0  0  0  0  0  2  0  0  0  0  0  0
  189.1160  177.8480  139.7100 C   0  0  2  0  0  0  0  0  0  0  0  0
  183.9710  178.9050  143.0090 C   0  0  0  0  0  3  0  0  0  0  0  0
  184.3420  178.6630  144.4190 C   0  0  0  0  0  3  0  0  0  0  0  0
  183.2720  179.2230  139.8600 C   0  0  0  0  0  2  0  0  0  0  0  0
  187.6070  176.7130  136.9740 C   0  0  1  0  0  3  0  0  0  0  0  0
  186.5110  177.5410  143.9960 C   0  0  0  0  0  0  0  0  0  0  0  0
  188.5600  176.5080  142.2050 O   0  0  0  0  0  0  0  0  0  0  0  0
  184.0220  175.2590  137.8870 C   0  0  0  0  0  1  0  0  0  0  0  0
  183.9320  178.8340  138.5770 C   0  0  1  0  0  3  0  0  0  0  0  0
  185.1620  178.8530  139.4350 C   0  0  0  0  0  2  0  0  0  0  0  0
  184.4850  179.1890  140.6900 N   0  0  0  0  0  0  0  0  0  0  0  0
  187.9970  178.1740  136.7800 C   0  0  0  0  0  2  0  0  0  0  0  0
  187.4370  176.3580  138.4540 C   0  0  0  0  0  2  0  0  0  0  0  0
  187.9250  177.5600  141.9200 C   0  0  0  0  0  0  0  0  0  0  0  0
  188.7680  176.4330  139.1980 C   0  0  0  0  0  2  0  0  0  0  0  0
  184.5220  176.6920  137.8490 C   0  0  2  0  0  3  0  0  0  0  0  0
  189.2650  178.3990  137.3270 O   0  0  0  0  0  0  0  0  0  0  0  0
  191.3890  176.9950  139.6340 O   0  0  0  0  0  1  0  0  0  0  0  0
  190.5360  177.8500  140.3360 C   0  0  2  0  0  3  0  0  0  0  0  0
  190.6580  177.5760  141.8470 C   0  0  2  0  0  3  0  0  0  0  0  0
  190.9760  178.7330  142.5590 O   0  0  0  0  0  1  0  0  0  0  0  0
  191.6200  176.5260  142.1420 N   0  0  0  0  0  2  0  0  0  0  0  0
  191.6180  176.3320  143.5820 C   0  0  0  0  0  1  0  0  0  0  0  0
  186.2360  174.9510  136.0470 O   0  0  0  0  0  0  0  0  0  0  0  0
  185.7480  174.7040  134.7630 C   0  0  0  0  0  1  0  0  0  0  0  0
  1 19  1  0  0  0  0
  2 24  1  0  0  0  0
  4 11  1  0  0  0  0
  5 16  2  0  0  0  0
  6 34  1  1  0  0  0
  6 10  1  0  0  0  0
  6 15  1  0  0  0  0
  7  8  1  0  0  0  0
  7 12  2  0  0  0  0
  8  5  1  0  0  0  0
 10 26  1  0  0  0  0
 11 29  1  1  0  0  0
 11  2  1  0  0  0  0
 12 13  1  0  0  0  0
 13  9  2  0  0  0  0
 14 21  1  0  0  0  0
 15 22  1  1  0  0  0
 15 23  1  0  0  0  0
 16  3  1  0  0  0  0
 16  9  1  0  0  0  0
 19 20  1  1  0  0  0
 19 14  1  0  0  0  0
 20 21  1  0  0  0  0
 21  7  1  0  0  0  0
 22 27  1  0  0  0  0
 23 25  1  0  0  0  0
 24 17  2  0  0  0  0
 24  5  1  0  0  0  0
 25 11  1  0  0  0  0
 26 18  1  6  0  0  0
 26  1  1  0  0  0  0
 27  4  1  0  0  0  0
 29 28  1  6  0  0  0
 29 30  1  0  0  0  0
 30 32  1  0  0  0  0
 30 31  1  1  0  0  0
 32 33  1  0  0  0  0
 35 34  1  0  0  0  0
M  END
>  <MODEL>
9

>  <REMARK>
 VINA RESULT:      -3.4      3.437      4.535
  Name = 
  4 active torsions:
  status: ('A' for Active; 'I' for Inactive)
    1  A    between atoms: C_7  and  O_28
    2  A    between atoms: C_8  and  C_16
    3  A    between atoms: C_8  and  N_21
    4  A    between atoms: C_13  and  C_16
                            x       y       z     vdW  Elec       q    Type
                         _______ _______ _______ _____ _____    ______ ____

>  <TORSDO>
F 4

$$$$
