=
 OpenBabel11062417243D

 45 48  0  0  1  0  0  0  0  0999 V2000
  186.7010  177.6730  144.0480 C   0  0  0  0  0  2  0  0  0  0  0  0
  186.8770  178.2790  147.3300 C   0  0  0  0  0  2  0  0  0  0  0  0
  187.4710  177.2280  146.3990 C   0  0  0  0  0  2  0  0  0  0  0  0
  187.8320  177.8740  145.0620 C   0  0  1  0  0  3  0  0  0  0  0  0
  185.3180  179.2340  145.5760 C   0  0  0  0  0  2  0  0  0  0  0  0
  185.3080  178.1200  144.5290 C   0  0  1  0  0  3  0  0  0  0  0  0
  185.4350  178.6290  146.9710 C   0  0  0  0  0  2  0  0  0  0  0  0
  184.4260  178.4740  143.4090 N   0  0  0  0  0  0  0  0  0  0  0  0
  183.3330  179.3810  143.5950 C   0  0  0  0  0  3  0  0  0  0  0  0
  182.0640  179.0030  143.4670 C   0  0  0  0  0  2  0  0  0  0  0  0
  184.5700  177.8770  142.0790 C   0  0  0  0  0  2  0  0  0  0  0  0
  184.4990  178.9280  140.9770 C   0  0  0  0  0  2  0  0  0  0  0  0
  183.8750  178.3480  139.7220 C   0  0  0  0  0  2  0  0  0  0  0  0
  182.1110  177.4820  137.4880 C   0  0  1  0  0  3  0  0  0  0  0  0
  183.0940  179.4390  138.9990 C   0  0  2  0  0  3  0  0  0  0  0  0
  180.9250  180.7160  139.2650 C   0  0  0  0  0  1  0  0  0  0  0  0
  181.1330  176.6130  138.2850 C   0  0  0  0  0  2  0  0  0  0  0  0
  181.5870  179.3550  139.2270 C   0  0  2  0  0  0  0  0  0  0  0  0
  180.9690  178.2670  140.1350 C   0  0  0  0  0  2  0  0  0  0  0  0
  182.1500  178.9890  137.8540 C   0  0  2  0  0  3  0  0  0  0  0  0
  181.3330  176.8330  139.7700 C   0  0  0  0  0  2  0  0  0  0  0  0
  185.8840  175.6260  136.5210 C   0  0  0  0  0  0  0  0  0  0  0  0
  184.9650  174.9720  137.3460 C   0  0  0  0  0  3  0  0  0  0  0  0
  185.5860  176.8920  136.0110 C   0  0  0  0  0  3  0  0  0  0  0  0
  183.7480  175.5830  137.6620 C   0  0  0  0  0  3  0  0  0  0  0  0
  184.3680  177.5040  136.3230 C   0  0  0  0  0  3  0  0  0  0  0  0
  183.4390  176.8510  137.1510 C   0  0  0  0  0  0  0  0  0  0  0  0
  187.0610  175.0330  136.2150 F   0  0  0  0  0  0  0  0  0  0  0  0
  189.1620  177.3410  144.5080 C   0  0  2  0  0  3  0  0  0  0  0  0
  188.9190  176.3050  143.4220 C   0  0  0  0  0  2  0  0  0  0  0  0
  190.1360  176.1350  142.6360 N   0  0  0  0  0  2  0  0  0  0  0  0
  190.2290  177.1710  141.6020 C   0  0  1  0  0  3  0  0  0  0  0  0
  191.5950  177.2950  141.1190 N   0  0  0  0  0  1  0  0  0  0  0  0
  189.3270  176.8950  140.4890 N   0  0  0  0  0  2  0  0  0  0  0  0
  189.8820  177.5320  139.3060 C   0  0  0  0  0  2  0  0  0  0  0  0
  187.7780  178.6270  139.5570 O   0  0  0  0  0  1  0  0  0  0  0  0
  188.9860  178.6740  138.8600 C   0  0  2  0  0  3  0  0  0  0  0  0
  187.9010  179.3770  136.8480 O   0  0  0  0  0  0  0  0  0  0  0  0
  189.1970  177.4700  135.1890 C   0  0  0  0  0  1  0  0  0  0  0  0
  189.4290  177.6250  136.6150 N   0  0  0  0  0  2  0  0  0  0  0  0
  188.7260  178.5930  137.3920 C   0  0  0  0  0  0  0  0  0  0  0  0
  189.9850  176.6810  145.6070 C   0  0  0  0  0  2  0  0  0  0  0  0
  191.4320  177.1420  145.5510 C   0  0  0  0  0  2  0  0  0  0  0  0
  191.0980  176.7570  147.6960 C   0  0  0  0  0  1  0  0  0  0  0  0
  192.0940  176.7670  146.7190 O   0  0  0  0  0  0  0  0  0  0  0  0
  1  6  1  0  0  0  0
  1  4  1  0  0  0  0
  3  2  1  0  0  0  0
  4 29  1  6  0  0  0
  4  3  1  0  0  0  0
  5  7  1  0  0  0  0
  6  8  1  6  0  0  0
  6  5  1  0  0  0  0
  7  2  1  0  0  0  0
  8  9  1  0  0  0  0
 10  9  2  0  0  0  0
 11  8  1  0  0  0  0
 12 11  1  0  0  0  0
 13 12  1  0  0  0  0
 14 27  1  1  0  0  0
 14 20  1  0  0  0  0
 14 17  1  0  0  0  0
 15 18  1  0  0  0  0
 15 13  1  1  0  0  0
 17 21  1  0  0  0  0
 18 16  1  1  0  0  0
 18 19  1  0  0  0  0
 20 15  1  0  0  0  0
 20 18  1  0  0  0  0
 21 19  1  0  0  0  0
 22 23  1  0  0  0  0
 23 25  2  0  0  0  0
 24 26  1  0  0  0  0
 24 22  2  0  0  0  0
 26 27  2  0  0  0  0
 27 25  1  0  0  0  0
 28 22  1  0  0  0  0
 29 42  1  0  0  0  0
 30 29  1  0  0  0  0
 31 30  1  0  0  0  0
 32 31  1  0  0  0  0
 33 32  1  0  0  0  0
 34 32  1  0  0  0  0
 35 34  1  0  0  0  0
 37 35  1  0  0  0  0
 37 36  1  0  0  0  0
 38 41  2  0  0  0  0
 39 40  1  0  0  0  0
 40 41  1  0  0  0  0
 41 37  1  0  0  0  0
 43 42  1  0  0  0  0
 43 45  1  0  0  0  0
 45 44  1  0  0  0  0
M  END
>  <MODEL>
1

>  <REMARK>
 VINA RESULT:      -7.7      0.000      0.000
  Name = 
  18 active torsions:
  status: ('A' for Active; 'I' for Inactive)
    1  A    between atoms: N_2  and  C_20
    2  A    between atoms: N_2  and  C_33
    3  A    between atoms: N_5  and  C_16
    4  A    between atoms: N_5  and  C_20
    5  A    between atoms: C_9  and  N_39
    6  A    between atoms: C_10  and  C_21
    7  A    between atoms: C_10  and  O_35
    8  A    between atoms: C_11  and  C_34
    9  A    between atoms: C_13  and  C_27
   10  A    between atoms: C_15  and  N_39
   11  A    between atoms: C_15  and  C_45
   12  A    between atoms: C_16  and  C_43
   13  A    between atoms: C_21  and  C_30
   14  A    between atoms: C_23  and  C_30
   15  A    between atoms: C_27  and  C_45
   16  A    between atoms: C_30  and  C_33
   17  A    between atoms: C_38  and  N_39
   18  A    between atoms: C_43  and  C_44
                            x       y       z     vdW  Elec       q    Type
                         _______ _______ _______ _____ _____    ______ ____

>  <TORSDO>
F 18

$$$$
=
 OpenBabel11062417243D

 45 48  0  0  1  0  0  0  0  0999 V2000
  186.6840  177.6560  144.0060 C   0  0  0  0  0  2  0  0  0  0  0  0
  187.0750  178.3100  147.2610 C   0  0  0  0  0  2  0  0  0  0  0  0
  187.6010  177.2410  146.3100 C   0  0  0  0  0  2  0  0  0  0  0  0
  187.8800  177.8630  144.9420 C   0  0  1  0  0  3  0  0  0  0  0  0
  185.4130  179.2510  145.5950 C   0  0  0  0  0  2  0  0  0  0  0  0
  185.3290  178.1210  144.5680 C   0  0  1  0  0  3  0  0  0  0  0  0
  185.6150  178.6660  146.9880 C   0  0  0  0  0  2  0  0  0  0  0  0
  184.3790  178.4650  143.5010 N   0  0  0  0  0  0  0  0  0  0  0  0
  183.2830  179.3520  143.7540 C   0  0  0  0  0  3  0  0  0  0  0  0
  182.0240  178.9270  143.8210 C   0  0  0  0  0  2  0  0  0  0  0  0
  184.4580  177.8760  142.1620 C   0  0  0  0  0  2  0  0  0  0  0  0
  184.4810  178.9450  141.0750 C   0  0  0  0  0  2  0  0  0  0  0  0
  184.0120  178.3740  139.7510 C   0  0  0  0  0  2  0  0  0  0  0  0
  182.1560  177.4360  137.6230 C   0  0  1  0  0  3  0  0  0  0  0  0
  183.2460  179.4460  138.9840 C   0  0  2  0  0  3  0  0  0  0  0  0
  181.1290  180.8100  139.2300 C   0  0  0  0  0  1  0  0  0  0  0  0
  181.1740  176.6510  138.4980 C   0  0  0  0  0  2  0  0  0  0  0  0
  181.7450  179.4270  139.2580 C   0  0  2  0  0  0  0  0  0  0  0  0
  181.1190  178.4180  140.2480 C   0  0  0  0  0  2  0  0  0  0  0  0
  182.2560  178.9600  137.8950 C   0  0  2  0  0  3  0  0  0  0  0  0
  181.4250  176.9530  139.9610 C   0  0  0  0  0  2  0  0  0  0  0  0
  185.8350  175.3980  136.6610 C   0  0  0  0  0  0  0  0  0  0  0  0
  184.8510  174.7600  137.4230 C   0  0  0  0  0  3  0  0  0  0  0  0
  185.6330  176.7060  136.2130 C   0  0  0  0  0  3  0  0  0  0  0  0
  183.6660  175.4300  137.7370 C   0  0  0  0  0  3  0  0  0  0  0  0
  184.4460  177.3760  136.5240 C   0  0  0  0  0  3  0  0  0  0  0  0
  183.4520  176.7410  137.2890 C   0  0  0  0  0  0  0  0  0  0  0  0
  186.9820  174.7480  136.3550 F   0  0  0  0  0  0  0  0  0  0  0  0
  189.1670  177.3120  144.3120 C   0  0  2  0  0  3  0  0  0  0  0  0
  188.8480  176.2760  143.2470 C   0  0  0  0  0  2  0  0  0  0  0  0
  189.9980  176.1240  142.3620 N   0  0  0  0  0  2  0  0  0  0  0  0
  190.3830  177.4190  141.7920 C   0  0  1  0  0  3  0  0  0  0  0  0
  191.8270  177.5840  141.8180 N   0  0  0  0  0  1  0  0  0  0  0  0
  189.8860  177.5700  140.4280 N   0  0  0  0  0  2  0  0  0  0  0  0
  190.3860  176.4470  139.6520 C   0  0  0  0  0  2  0  0  0  0  0  0
  190.2030  176.7420  137.2920 O   0  0  0  0  0  1  0  0  0  0  0  0
  191.0500  176.9470  138.3810 C   0  0  2  0  0  3  0  0  0  0  0  0
  193.4390  176.8540  138.2980 O   0  0  0  0  0  0  0  0  0  0  0  0
  193.5520  174.1270  137.5100 C   0  0  0  0  0  1  0  0  0  0  0  0
  192.3290  174.8640  137.7800 N   0  0  0  0  0  2  0  0  0  0  0  0
  192.3460  176.2410  138.1540 C   0  0  0  0  0  0  0  0  0  0  0  0
  190.0450  176.6430  145.3640 C   0  0  0  0  0  2  0  0  0  0  0  0
  191.4270  177.2750  145.3960 C   0  0  0  0  0  2  0  0  0  0  0  0
  191.3380  176.0150  147.2040 C   0  0  0  0  0  1  0  0  0  0  0  0
  191.9840  177.1290  146.6660 O   0  0  0  0  0  0  0  0  0  0  0  0
  1  6  1  0  0  0  0
  1  4  1  0  0  0  0
  3  2  1  0  0  0  0
  4 29  1  6  0  0  0
  4  3  1  0  0  0  0
  5  7  1  0  0  0  0
  6  8  1  6  0  0  0
  6  5  1  0  0  0  0
  7  2  1  0  0  0  0
  8  9  1  0  0  0  0
  9 10  2  0  0  0  0
 11  8  1  0  0  0  0
 12 11  1  0  0  0  0
 13 12  1  0  0  0  0
 14 27  1  1  0  0  0
 14 20  1  0  0  0  0
 14 17  1  0  0  0  0
 15 18  1  0  0  0  0
 15 13  1  1  0  0  0
 17 21  1  0  0  0  0
 18 16  1  6  0  0  0
 18 19  1  0  0  0  0
 20 15  1  0  0  0  0
 20 18  1  0  0  0  0
 21 19  1  0  0  0  0
 22 23  1  0  0  0  0
 23 25  2  0  0  0  0
 24 26  1  0  0  0  0
 24 22  2  0  0  0  0
 26 27  2  0  0  0  0
 27 25  1  0  0  0  0
 28 22  1  0  0  0  0
 29 42  1  0  0  0  0
 30 29  1  0  0  0  0
 31 30  1  0  0  0  0
 32 33  1  0  0  0  0
 32 31  1  0  0  0  0
 34 32  1  0  0  0  0
 35 34  1  0  0  0  0
 36 37  1  0  0  0  0
 37 35  1  0  0  0  0
 39 40  1  0  0  0  0
 40 41  1  0  0  0  0
 41 38  2  0  0  0  0
 41 37  1  0  0  0  0
 42 43  1  0  0  0  0
 43 45  1  0  0  0  0
 45 44  1  0  0  0  0
M  END
>  <MODEL>
2

>  <REMARK>
 VINA RESULT:      -7.4      1.577      1.756
  Name = 
  18 active torsions:
  status: ('A' for Active; 'I' for Inactive)
    1  A    between atoms: N_2  and  C_20
    2  A    between atoms: N_2  and  C_33
    3  A    between atoms: N_5  and  C_16
    4  A    between atoms: N_5  and  C_20
    5  A    between atoms: C_9  and  N_39
    6  A    between atoms: C_10  and  C_21
    7  A    between atoms: C_10  and  O_35
    8  A    between atoms: C_11  and  C_34
    9  A    between atoms: C_13  and  C_27
   10  A    between atoms: C_15  and  N_39
   11  A    between atoms: C_15  and  C_45
   12  A    between atoms: C_16  and  C_43
   13  A    between atoms: C_21  and  C_30
   14  A    between atoms: C_23  and  C_30
   15  A    between atoms: C_27  and  C_45
   16  A    between atoms: C_30  and  C_33
   17  A    between atoms: C_38  and  N_39
   18  A    between atoms: C_43  and  C_44
                            x       y       z     vdW  Elec       q    Type
                         _______ _______ _______ _____ _____    ______ ____

>  <TORSDO>
F 18

$$$$
=
 OpenBabel11062417243D

 45 48  0  0  1  0  0  0  0  0999 V2000
  186.0970  177.9100  142.7650 C   0  0  0  0  0  2  0  0  0  0  0  0
  185.2010  178.6270  145.9040 C   0  0  0  0  0  2  0  0  0  0  0  0
  186.0390  177.5350  145.2500 C   0  0  0  0  0  2  0  0  0  0  0  0
  186.8380  178.1270  144.0890 C   0  0  1  0  0  3  0  0  0  0  0  0
  184.3330  179.5470  143.7080 C   0  0  0  0  0  2  0  0  0  0  0  0
  184.6380  178.3980  142.7470 C   0  0  1  0  0  3  0  0  0  0  0  0
  183.9670  178.9890  145.0790 C   0  0  0  0  0  2  0  0  0  0  0  0
  184.1830  178.7280  141.3890 N   0  0  0  0  0  0  0  0  0  0  0  0
  182.8190  179.0870  141.1400 C   0  0  0  0  0  3  0  0  0  0  0  0
  181.8010  178.3070  141.4940 C   0  0  0  0  0  2  0  0  0  0  0  0
  185.0680  178.6420  140.2250 C   0  0  0  0  0  2  0  0  0  0  0  0
  184.2960  178.7830  138.9180 C   0  0  0  0  0  2  0  0  0  0  0  0
  183.9400  177.4210  138.3550 C   0  0  0  0  0  2  0  0  0  0  0  0
  185.0460  176.0840  135.9370 C   0  0  1  0  0  3  0  0  0  0  0  0
  183.1660  177.6010  137.0540 C   0  0  2  0  0  3  0  0  0  0  0  0
  181.2000  176.5540  135.8540 C   0  0  0  0  0  1  0  0  0  0  0  0
  184.9190  174.6290  136.3950 C   0  0  0  0  0  2  0  0  0  0  0  0
  182.5210  176.3120  136.5520 C   0  0  2  0  0  0  0  0  0  0  0  0
  182.6470  174.9880  137.3410 C   0  0  0  0  0  2  0  0  0  0  0  0
  183.7230  176.8810  135.7990 C   0  0  2  0  0  3  0  0  0  0  0  0
  184.0730  174.5500  137.6500 C   0  0  0  0  0  2  0  0  0  0  0  0
  188.3840  178.3360  137.4860 C   0  0  0  0  0  0  0  0  0  0  0  0
  187.6250  178.8370  136.4240 C   0  0  0  0  0  3  0  0  0  0  0  0
  188.0690  177.0960  138.0470 C   0  0  0  0  0  3  0  0  0  0  0  0
  186.5500  178.0970  135.9230 C   0  0  0  0  0  3  0  0  0  0  0  0
  186.9920  176.3570  137.5480 C   0  0  0  0  0  3  0  0  0  0  0  0
  186.2240  176.8540  136.4820 C   0  0  0  0  0  0  0  0  0  0  0  0
  189.4250  179.0530  137.9720 F   0  0  0  0  0  0  0  0  0  0  0  0
  188.2600  177.5530  144.0190 C   0  0  2  0  0  3  0  0  0  0  0  0
  188.3570  176.4780  142.9480 C   0  0  0  0  0  2  0  0  0  0  0  0
  189.7610  176.1480  142.7220 N   0  0  0  0  0  2  0  0  0  0  0  0
  190.3450  177.0450  141.7200 C   0  0  1  0  0  3  0  0  0  0  0  0
  191.6330  177.5480  142.1680 N   0  0  0  0  0  1  0  0  0  0  0  0
  190.4870  176.3810  140.4290 N   0  0  0  0  0  2  0  0  0  0  0  0
  191.4520  177.1410  139.6490 C   0  0  0  0  0  2  0  0  0  0  0  0
  193.3680  176.9030  138.2490 O   0  0  0  0  0  1  0  0  0  0  0  0
  192.3060  176.2000  138.8180 C   0  0  2  0  0  3  0  0  0  0  0  0
  191.0510  174.3870  137.8920 O   0  0  0  0  0  0  0  0  0  0  0  0
  190.4470  175.7220  135.4590 C   0  0  0  0  0  1  0  0  0  0  0  0
  191.2050  176.2980  136.5560 N   0  0  0  0  0  2  0  0  0  0  0  0
  191.4900  175.5600  137.7450 C   0  0  0  0  0  0  0  0  0  0  0  0
  188.6600  176.9240  145.3490 C   0  0  0  0  0  2  0  0  0  0  0  0
  189.6810  177.7890  146.0700 C   0  0  0  0  0  2  0  0  0  0  0  0
  191.6010  176.7210  145.8830 C   0  0  0  0  0  1  0  0  0  0  0  0
  190.8810  177.7950  145.3600 O   0  0  0  0  0  0  0  0  0  0  0  0
  1  4  1  0  0  0  0
  3  2  1  0  0  0  0
  4 29  1  6  0  0  0
  4  3  1  0  0  0  0
  5  7  1  0  0  0  0
  6  8  1  6  0  0  0
  6  1  1  0  0  0  0
  6  5  1  0  0  0  0
  7  2  1  0  0  0  0
  9  8  1  0  0  0  0
  9 10  2  0  0  0  0
 11  8  1  0  0  0  0
 12 11  1  0  0  0  0
 13 12  1  0  0  0  0
 14 17  1  0  0  0  0
 14 27  1  1  0  0  0
 15 13  1  1  0  0  0
 17 21  1  0  0  0  0
 18 16  1  6  0  0  0
 18 15  1  0  0  0  0
 18 19  1  0  0  0  0
 19 21  1  0  0  0  0
 20 14  1  0  0  0  0
 20 18  1  0  0  0  0
 20 15  1  0  0  0  0
 22 28  1  0  0  0  0
 22 24  1  0  0  0  0
 23 22  2  0  0  0  0
 25 23  1  0  0  0  0
 25 27  2  0  0  0  0
 26 24  2  0  0  0  0
 27 26  1  0  0  0  0
 29 42  1  0  0  0  0
 30 29  1  0  0  0  0
 31 30  1  0  0  0  0
 32 33  1  0  0  0  0
 32 31  1  0  0  0  0
 34 32  1  0  0  0  0
 35 34  1  0  0  0  0
 36 37  1  0  0  0  0
 37 35  1  0  0  0  0
 39 40  1  0  0  0  0
 40 41  1  0  0  0  0
 41 38  2  0  0  0  0
 41 37  1  0  0  0  0
 42 43  1  0  0  0  0
 45 44  1  0  0  0  0
 45 43  1  0  0  0  0
M  END
>  <MODEL>
3

>  <REMARK>
 VINA RESULT:      -7.3      2.037      3.110
  Name = 
  18 active torsions:
  status: ('A' for Active; 'I' for Inactive)
    1  A    between atoms: N_2  and  C_20
    2  A    between atoms: N_2  and  C_33
    3  A    between atoms: N_5  and  C_16
    4  A    between atoms: N_5  and  C_20
    5  A    between atoms: C_9  and  N_39
    6  A    between atoms: C_10  and  C_21
    7  A    between atoms: C_10  and  O_35
    8  A    between atoms: C_11  and  C_34
    9  A    between atoms: C_13  and  C_27
   10  A    between atoms: C_15  and  N_39
   11  A    between atoms: C_15  and  C_45
   12  A    between atoms: C_16  and  C_43
   13  A    between atoms: C_21  and  C_30
   14  A    between atoms: C_23  and  C_30
   15  A    between atoms: C_27  and  C_45
   16  A    between atoms: C_30  and  C_33
   17  A    between atoms: C_38  and  N_39
   18  A    between atoms: C_43  and  C_44
                            x       y       z     vdW  Elec       q    Type
                         _______ _______ _______ _____ _____    ______ ____

>  <TORSDO>
F 18

$$$$
=
 OpenBabel11062417243D

 45 48  0  0  1  0  0  0  0  0999 V2000
  187.0090  178.1360  142.7700 C   0  0  0  0  0  2  0  0  0  0  0  0
  186.5390  177.6780  146.0470 C   0  0  0  0  0  2  0  0  0  0  0  0
  185.9690  178.6330  145.0040 C   0  0  0  0  0  2  0  0  0  0  0  0
  185.7960  177.8970  143.6760 C   0  0  1  0  0  3  0  0  0  0  0  0
  188.3360  176.7650  144.5130 C   0  0  0  0  0  2  0  0  0  0  0  0
  188.3730  177.8240  143.4110 C   0  0  1  0  0  3  0  0  0  0  0  0
  188.0330  177.4250  145.8530 C   0  0  0  0  0  2  0  0  0  0  0  0
  189.3900  177.4860  142.4060 N   0  0  0  0  0  0  0  0  0  0  0  0
  190.7850  177.5860  142.7130 C   0  0  0  0  0  3  0  0  0  0  0  0
  191.2820  178.5710  143.4570 C   0  0  0  0  0  2  0  0  0  0  0  0
  189.0400  177.1010  141.0360 C   0  0  0  0  0  2  0  0  0  0  0  0
  190.2220  177.2560  140.0860 C   0  0  0  0  0  2  0  0  0  0  0  0
  189.9130  176.6330  138.7390 C   0  0  0  0  0  2  0  0  0  0  0  0
  190.1010  175.9430  135.8500 C   0  0  1  0  0  3  0  0  0  0  0  0
  189.5620  177.7330  137.7440 C   0  0  2  0  0  3  0  0  0  0  0  0
  187.5050  178.7100  136.6400 C   0  0  0  0  0  1  0  0  0  0  0  0
  189.0200  174.8600  135.7970 C   0  0  0  0  0  2  0  0  0  0  0  0
  188.2840  177.4520  136.9580 C   0  0  2  0  0  0  0  0  0  0  0  0
  187.4500  176.1740  137.2090 C   0  0  0  0  0  2  0  0  0  0  0  0
  189.6300  177.3690  136.2390 C   0  0  2  0  0  3  0  0  0  0  0  0
  188.2170  174.8630  137.0810 C   0  0  0  0  0  2  0  0  0  0  0  0
  193.9420  174.7900  137.4430 C   0  0  0  0  0  0  0  0  0  0  0  0
  193.7500  176.0710  136.9160 C   0  0  0  0  0  3  0  0  0  0  0  0
  192.8880  173.8720  137.4480 C   0  0  0  0  0  3  0  0  0  0  0  0
  192.5050  176.4330  136.3940 C   0  0  0  0  0  3  0  0  0  0  0  0
  191.6420  174.2350  136.9300 C   0  0  0  0  0  3  0  0  0  0  0  0
  191.4410  175.5210  136.4000 C   0  0  0  0  0  0  0  0  0  0  0  0
  195.1470  174.4390  137.9490 F   0  0  0  0  0  0  0  0  0  0  0  0
  184.4960  178.2960  142.9630 C   0  0  2  0  0  3  0  0  0  0  0  0
  184.7920  178.9570  141.6260 C   0  0  0  0  0  2  0  0  0  0  0  0
  184.1270  178.2130  140.5620 N   0  0  0  0  0  2  0  0  0  0  0  0
  183.5420  179.1310  139.5810 C   0  0  1  0  0  3  0  0  0  0  0  0
  184.5530  180.0330  139.0540 N   0  0  0  0  0  1  0  0  0  0  0  0
  182.8990  178.4070  138.4900 N   0  0  0  0  0  2  0  0  0  0  0  0
  183.7620  177.2920  138.1340 C   0  0  0  0  0  2  0  0  0  0  0  0
  182.4550  175.5310  139.0720 O   0  0  0  0  0  1  0  0  0  0  0  0
  182.9270  176.0520  137.8670 C   0  0  2  0  0  3  0  0  0  0  0  0
  183.8710  175.0730  135.8990 O   0  0  0  0  0  0  0  0  0  0  0  0
  185.1270  172.9260  137.2700 C   0  0  0  0  0  1  0  0  0  0  0  0
  184.3580  173.9810  137.9070 N   0  0  0  0  0  2  0  0  0  0  0  0
  183.7350  175.0200  137.1520 C   0  0  0  0  0  0  0  0  0  0  0  0
  183.6950  179.2830  143.8040 C   0  0  0  0  0  2  0  0  0  0  0  0
  182.2530  178.8240  143.9490 C   0  0  0  0  0  2  0  0  0  0  0  0
  180.4570  179.7020  143.0200 C   0  0  0  0  0  1  0  0  0  0  0  0
  181.5930  178.9470  142.7270 O   0  0  0  0  0  0  0  0  0  0  0  0
  1  6  1  0  0  0  0
  1  4  1  0  0  0  0
  3  2  1  0  0  0  0
  4 29  1  6  0  0  0
  4  3  1  0  0  0  0
  5  7  1  0  0  0  0
  6  8  1  6  0  0  0
  6  5  1  0  0  0  0
  7  2  1  0  0  0  0
  8  9  1  0  0  0  0
  9 10  2  0  0  0  0
 11  8  1  0  0  0  0
 12 11  1  0  0  0  0
 13 12  1  0  0  0  0
 14 20  1  0  0  0  0
 14 27  1  1  0  0  0
 15 13  1  1  0  0  0
 17 14  1  0  0  0  0
 17 21  1  0  0  0  0
 18 16  1  6  0  0  0
 18 19  1  0  0  0  0
 18 15  1  0  0  0  0
 20 18  1  0  0  0  0
 20 15  1  0  0  0  0
 21 19  1  0  0  0  0
 22 24  1  0  0  0  0
 22 28  1  0  0  0  0
 23 22  2  0  0  0  0
 25 27  2  0  0  0  0
 25 23  1  0  0  0  0
 26 24  2  0  0  0  0
 27 26  1  0  0  0  0
 29 42  1  0  0  0  0
 30 29  1  0  0  0  0
 31 30  1  0  0  0  0
 32 31  1  0  0  0  0
 33 32  1  0  0  0  0
 34 32  1  0  0  0  0
 35 34  1  0  0  0  0
 37 35  1  0  0  0  0
 37 36  1  0  0  0  0
 38 41  2  0  0  0  0
 39 40  1  0  0  0  0
 41 37  1  0  0  0  0
 41 40  1  0  0  0  0
 42 43  1  0  0  0  0
 45 44  1  0  0  0  0
 45 43  1  0  0  0  0
M  END
>  <MODEL>
4

>  <REMARK>
 VINA RESULT:      -7.0      3.230      7.038
  Name = 
  18 active torsions:
  status: ('A' for Active; 'I' for Inactive)
    1  A    between atoms: N_2  and  C_20
    2  A    between atoms: N_2  and  C_33
    3  A    between atoms: N_5  and  C_16
    4  A    between atoms: N_5  and  C_20
    5  A    between atoms: C_9  and  N_39
    6  A    between atoms: C_10  and  C_21
    7  A    between atoms: C_10  and  O_35
    8  A    between atoms: C_11  and  C_34
    9  A    between atoms: C_13  and  C_27
   10  A    between atoms: C_15  and  N_39
   11  A    between atoms: C_15  and  C_45
   12  A    between atoms: C_16  and  C_43
   13  A    between atoms: C_21  and  C_30
   14  A    between atoms: C_23  and  C_30
   15  A    between atoms: C_27  and  C_45
   16  A    between atoms: C_30  and  C_33
   17  A    between atoms: C_38  and  N_39
   18  A    between atoms: C_43  and  C_44
                            x       y       z     vdW  Elec       q    Type
                         _______ _______ _______ _____ _____    ______ ____

>  <TORSDO>
F 18

$$$$
=
 OpenBabel11062417243D

 45 48  0  0  1  0  0  0  0  0999 V2000
  186.6520  177.9970  143.5950 C   0  0  0  0  0  2  0  0  0  0  0  0
  184.9500  178.6030  146.4070 C   0  0  0  0  0  2  0  0  0  0  0  0
  186.0480  177.6240  146.0060 C   0  0  0  0  0  2  0  0  0  0  0  0
  187.0220  178.3100  145.0490 C   0  0  1  0  0  3  0  0  0  0  0  0
  184.5260  179.3980  144.0390 C   0  0  0  0  0  2  0  0  0  0  0  0
  185.1900  178.2940  143.2160 C   0  0  1  0  0  3  0  0  0  0  0  0
  183.9140  178.8020  145.3020 C   0  0  0  0  0  2  0  0  0  0  0  0
  185.0370  178.5600  141.7790 N   0  0  0  0  0  0  0  0  0  0  0  0
  186.1840  178.7150  140.9360 C   0  0  0  0  0  3  0  0  0  0  0  0
  186.1200  178.5760  139.6140 C   0  0  0  0  0  2  0  0  0  0  0  0
  183.7250  178.7460  141.1530 C   0  0  0  0  0  2  0  0  0  0  0  0
  183.1050  177.4170  140.7360 C   0  0  0  0  0  2  0  0  0  0  0  0
  181.8990  177.6450  139.8450 C   0  0  0  0  0  2  0  0  0  0  0  0
  179.3820  177.6580  138.2580 C   0  0  1  0  0  3  0  0  0  0  0  0
  180.6650  177.0410  140.5060 C   0  0  2  0  0  3  0  0  0  0  0  0
  179.6040  174.7670  140.8290 C   0  0  0  0  0  1  0  0  0  0  0  0
  179.8250  176.7500  137.1080 C   0  0  0  0  0  2  0  0  0  0  0  0
  180.1940  175.7510  139.8420 C   0  0  2  0  0  0  0  0  0  0  0  0
  180.9490  175.1430  138.6380 C   0  0  0  0  0  2  0  0  0  0  0  0
  179.3590  177.0190  139.6710 C   0  0  2  0  0  3  0  0  0  0  0  0
  181.1400  176.0800  137.4510 C   0  0  0  0  0  2  0  0  0  0  0  0
  180.7140  181.7590  138.1270 C   0  0  0  0  0  0  0  0  0  0  0  0
  179.9150  181.3090  139.1820 C   0  0  0  0  0  3  0  0  0  0  0  0
  181.0790  180.8820  137.1030 C   0  0  0  0  0  3  0  0  0  0  0  0
  179.4810  179.9800  139.2120 C   0  0  0  0  0  3  0  0  0  0  0  0
  180.6480  179.5530  137.1340 C   0  0  0  0  0  3  0  0  0  0  0  0
  179.8460  179.0920  138.1920 C   0  0  0  0  0  0  0  0  0  0  0  0
  181.1360  183.0450  138.0980 F   0  0  0  0  0  0  0  0  0  0  0  0
  188.4790  177.9210  145.3370 C   0  0  2  0  0  3  0  0  0  0  0  0
  189.0320  177.0380  144.2300 C   0  0  0  0  0  2  0  0  0  0  0  0
  190.2040  177.6780  143.6420 N   0  0  0  0  0  2  0  0  0  0  0  0
  190.9920  176.7060  142.8770 C   0  0  1  0  0  3  0  0  0  0  0  0
  190.2820  175.4430  142.7650 N   0  0  0  0  0  1  0  0  0  0  0  0
  191.3240  177.2150  141.5510 N   0  0  0  0  0  2  0  0  0  0  0  0
  190.1180  177.1530  140.7420 C   0  0  0  0  0  2  0  0  0  0  0  0
  189.2760  177.5260  138.5420 O   0  0  0  0  0  1  0  0  0  0  0  0
  190.4520  177.4260  139.2870 C   0  0  2  0  0  3  0  0  0  0  0  0
  190.8420  175.1790  138.5650 O   0  0  0  0  0  0  0  0  0  0  0  0
  193.5640  175.6090  137.8790 C   0  0  0  0  0  1  0  0  0  0  0  0
  192.6650  176.6300  138.3890 N   0  0  0  0  0  2  0  0  0  0  0  0
  191.3110  176.3380  138.7330 C   0  0  0  0  0  0  0  0  0  0  0  0
  188.5890  177.1500  146.6480 C   0  0  0  0  0  2  0  0  0  0  0  0
  189.9870  177.2700  147.2300 C   0  0  0  0  0  2  0  0  0  0  0  0
  191.8640  176.2080  146.7680 C   0  0  0  0  0  1  0  0  0  0  0  0
  190.5850  176.0110  147.2890 O   0  0  0  0  0  0  0  0  0  0  0  0
  1  4  1  0  0  0  0
  3  2  1  0  0  0  0
  4 29  1  1  0  0  0
  4  3  1  0  0  0  0
  5  7  1  0  0  0  0
  6  8  1  6  0  0  0
  6  1  1  0  0  0  0
  6  5  1  0  0  0  0
  7  2  1  0  0  0  0
  9  8  1  0  0  0  0
 10  9  2  0  0  0  0
 11  8  1  0  0  0  0
 12 11  1  0  0  0  0
 13 12  1  0  0  0  0
 14 27  1  1  0  0  0
 14 20  1  0  0  0  0
 15 13  1  6  0  0  0
 17 21  1  0  0  0  0
 17 14  1  0  0  0  0
 18 15  1  0  0  0  0
 18 16  1  1  0  0  0
 19 18  1  0  0  0  0
 20 18  1  0  0  0  0
 20 15  1  0  0  0  0
 21 19  1  0  0  0  0
 22 23  1  0  0  0  0
 23 25  2  0  0  0  0
 24 26  1  0  0  0  0
 24 22  2  0  0  0  0
 26 27  2  0  0  0  0
 27 25  1  0  0  0  0
 28 22  1  0  0  0  0
 29 42  1  0  0  0  0
 30 29  1  0  0  0  0
 31 30  1  0  0  0  0
 32 31  1  0  0  0  0
 33 32  1  0  0  0  0
 34 32  1  0  0  0  0
 35 34  1  0  0  0  0
 36 37  1  0  0  0  0
 37 35  1  0  0  0  0
 38 41  2  0  0  0  0
 39 40  1  0  0  0  0
 40 41  1  0  0  0  0
 41 37  1  0  0  0  0
 42 43  1  0  0  0  0
 43 45  1  0  0  0  0
 44 45  1  0  0  0  0
M  END
>  <MODEL>
5

>  <REMARK>
 VINA RESULT:      -7.0      2.583      3.883
  Name = 
  18 active torsions:
  status: ('A' for Active; 'I' for Inactive)
    1  A    between atoms: N_2  and  C_20
    2  A    between atoms: N_2  and  C_33
    3  A    between atoms: N_5  and  C_16
    4  A    between atoms: N_5  and  C_20
    5  A    between atoms: C_9  and  N_39
    6  A    between atoms: C_10  and  C_21
    7  A    between atoms: C_10  and  O_35
    8  A    between atoms: C_11  and  C_34
    9  A    between atoms: C_13  and  C_27
   10  A    between atoms: C_15  and  N_39
   11  A    between atoms: C_15  and  C_45
   12  A    between atoms: C_16  and  C_43
   13  A    between atoms: C_21  and  C_30
   14  A    between atoms: C_23  and  C_30
   15  A    between atoms: C_27  and  C_45
   16  A    between atoms: C_30  and  C_33
   17  A    between atoms: C_38  and  N_39
   18  A    between atoms: C_43  and  C_44
                            x       y       z     vdW  Elec       q    Type
                         _______ _______ _______ _____ _____    ______ ____

>  <TORSDO>
F 18

$$$$
=
 OpenBabel11062417243D

 45 48  0  0  1  0  0  0  0  0999 V2000
  186.2760  178.0290  143.1540 C   0  0  0  0  0  2  0  0  0  0  0  0
  184.9570  178.5890  146.1740 C   0  0  0  0  0  2  0  0  0  0  0  0
  185.9840  177.6110  145.6160 C   0  0  0  0  0  2  0  0  0  0  0  0
  186.8340  178.3090  144.5540 C   0  0  1  0  0  3  0  0  0  0  0  0
  184.2390  179.4360  143.8970 C   0  0  0  0  0  2  0  0  0  0  0  0
  184.7810  178.3450  142.9730 C   0  0  1  0  0  3  0  0  0  0  0  0
  183.7900  178.8190  145.2160 C   0  0  0  0  0  2  0  0  0  0  0  0
  184.4460  178.6420  141.5730 N   0  0  0  0  0  0  0  0  0  0  0  0
  185.4670  179.0020  140.6360 C   0  0  0  0  0  3  0  0  0  0  0  0
  185.4930  178.5260  139.3940 C   0  0  0  0  0  2  0  0  0  0  0  0
  183.0650  178.6530  141.0840 C   0  0  0  0  0  2  0  0  0  0  0  0
  182.6280  177.2760  140.5960 C   0  0  0  0  0  2  0  0  0  0  0  0
  181.7160  177.4000  139.3910 C   0  0  0  0  0  2  0  0  0  0  0  0
  181.6110  177.2980  136.4190 C   0  0  1  0  0  3  0  0  0  0  0  0
  182.0380  178.6900  138.6460 C   0  0  2  0  0  3  0  0  0  0  0  0
  180.8540  180.7990  137.9000 C   0  0  0  0  0  1  0  0  0  0  0  0
  180.1220  176.9820  136.2480 C   0  0  0  0  0  2  0  0  0  0  0  0
  180.8340  179.2850  137.9200 C   0  0  2  0  0  0  0  0  0  0  0  0
  179.4410  178.6190  137.9920 C   0  0  0  0  0  2  0  0  0  0  0  0
  181.9550  178.6490  137.0990 C   0  0  2  0  0  3  0  0  0  0  0  0
  179.3980  177.1560  137.5670 C   0  0  0  0  0  2  0  0  0  0  0  0
  184.1930  174.0080  137.4780 C   0  0  0  0  0  0  0  0  0  0  0  0
  184.7280  175.2760  137.2310 C   0  0  0  0  0  3  0  0  0  0  0  0
  182.8150  173.7980  137.3740 C   0  0  0  0  0  3  0  0  0  0  0  0
  183.8850  176.3340  136.8800 C   0  0  0  0  0  3  0  0  0  0  0  0
  181.9710  174.8580  137.0270 C   0  0  0  0  0  3  0  0  0  0  0  0
  182.5010  176.1350  136.7780 C   0  0  0  0  0  0  0  0  0  0  0  0
  185.0090  172.9830  137.8180 F   0  0  0  0  0  0  0  0  0  0  0  0
  188.3120  177.9040  144.6440 C   0  0  2  0  0  3  0  0  0  0  0  0
  188.7460  177.1600  143.3910 C   0  0  0  0  0  2  0  0  0  0  0  0
  190.1030  177.5630  143.0370 N   0  0  0  0  0  2  0  0  0  0  0  0
  190.2900  177.5180  141.5830 C   0  0  1  0  0  3  0  0  0  0  0  0
  190.7420  176.2020  141.1630 N   0  0  0  0  0  1  0  0  0  0  0  0
  189.0660  177.8770  140.8760 N   0  0  0  0  0  2  0  0  0  0  0  0
  188.9890  177.0490  139.6830 C   0  0  0  0  0  2  0  0  0  0  0  0
  188.8860  179.2300  138.7240 O   0  0  0  0  0  1  0  0  0  0  0  0
  189.2020  177.9000  138.4440 C   0  0  2  0  0  3  0  0  0  0  0  0
  188.0970  176.1770  137.2070 O   0  0  0  0  0  0  0  0  0  0  0  0
  187.0420  177.9270  135.2340 C   0  0  0  0  0  1  0  0  0  0  0  0
  187.8410  178.3450  136.3730 N   0  0  0  0  0  2  0  0  0  0  0  0
  188.3570  177.4060  137.3170 C   0  0  0  0  0  0  0  0  0  0  0  0
  188.5540  176.9870  145.8370 C   0  0  0  0  0  2  0  0  0  0  0  0
  189.7480  177.4620  146.6500 C   0  0  0  0  0  2  0  0  0  0  0  0
  191.6410  176.3630  146.9100 C   0  0  0  0  0  1  0  0  0  0  0  0
  190.3120  176.3850  147.3340 O   0  0  0  0  0  0  0  0  0  0  0  0
  1  4  1  0  0  0  0
  3  2  1  0  0  0  0
  4 29  1  6  0  0  0
  4  3  1  0  0  0  0
  5  7  1  0  0  0  0
  6  8  1  6  0  0  0
  6  1  1  0  0  0  0
  6  5  1  0  0  0  0
  7  2  1  0  0  0  0
  9  8  1  0  0  0  0
 10  9  2  0  0  0  0
 11  8  1  0  0  0  0
 12 11  1  0  0  0  0
 13 12  1  0  0  0  0
 14 27  1  1  0  0  0
 14 20  1  0  0  0  0
 15 13  1  1  0  0  0
 17 14  1  0  0  0  0
 17 21  1  0  0  0  0
 18 16  1  6  0  0  0
 18 19  1  0  0  0  0
 18 15  1  0  0  0  0
 20 18  1  0  0  0  0
 20 15  1  0  0  0  0
 21 19  1  0  0  0  0
 22 28  1  0  0  0  0
 23 22  2  0  0  0  0
 24 22  1  0  0  0  0
 25 23  1  0  0  0  0
 26 24  2  0  0  0  0
 27 25  2  0  0  0  0
 27 26  1  0  0  0  0
 29 42  1  0  0  0  0
 30 29  1  0  0  0  0
 31 30  1  0  0  0  0
 32 31  1  0  0  0  0
 33 32  1  0  0  0  0
 34 32  1  0  0  0  0
 35 34  1  0  0  0  0
 37 36  1  0  0  0  0
 37 35  1  0  0  0  0
 38 41  2  0  0  0  0
 39 40  1  0  0  0  0
 40 41  1  0  0  0  0
 41 37  1  0  0  0  0
 42 43  1  0  0  0  0
 43 45  1  0  0  0  0
 44 45  1  0  0  0  0
M  END
>  <MODEL>
6

>  <REMARK>
 VINA RESULT:      -6.9      1.526      2.155
  Name = 
  18 active torsions:
  status: ('A' for Active; 'I' for Inactive)
    1  A    between atoms: N_2  and  C_20
    2  A    between atoms: N_2  and  C_33
    3  A    between atoms: N_5  and  C_16
    4  A    between atoms: N_5  and  C_20
    5  A    between atoms: C_9  and  N_39
    6  A    between atoms: C_10  and  C_21
    7  A    between atoms: C_10  and  O_35
    8  A    between atoms: C_11  and  C_34
    9  A    between atoms: C_13  and  C_27
   10  A    between atoms: C_15  and  N_39
   11  A    between atoms: C_15  and  C_45
   12  A    between atoms: C_16  and  C_43
   13  A    between atoms: C_21  and  C_30
   14  A    between atoms: C_23  and  C_30
   15  A    between atoms: C_27  and  C_45
   16  A    between atoms: C_30  and  C_33
   17  A    between atoms: C_38  and  N_39
   18  A    between atoms: C_43  and  C_44
                            x       y       z     vdW  Elec       q    Type
                         _______ _______ _______ _____ _____    ______ ____

>  <TORSDO>
F 18

$$$$
=
 OpenBabel11062417243D

 45 48  0  0  1  0  0  0  0  0999 V2000
  185.1860  177.9450  142.4070 C   0  0  0  0  0  2  0  0  0  0  0  0
  185.9890  178.5560  145.5930 C   0  0  0  0  0  2  0  0  0  0  0  0
  186.4280  177.5320  144.5530 C   0  0  0  0  0  2  0  0  0  0  0  0
  186.4880  178.1930  143.1760 C   0  0  1  0  0  3  0  0  0  0  0  0
  184.0740  179.4460  144.1940 C   0  0  0  0  0  2  0  0  0  0  0  0
  183.9010  178.3330  143.1600 C   0  0  1  0  0  3  0  0  0  0  0  0
  184.4910  178.8460  145.5310 C   0  0  0  0  0  2  0  0  0  0  0  0
  182.7980  178.6510  142.2410 N   0  0  0  0  0  0  0  0  0  0  0  0
  181.5400  179.1190  142.7410 C   0  0  0  0  0  3  0  0  0  0  0  0
  180.9630  178.5960  143.8200 C   0  0  0  0  0  2  0  0  0  0  0  0
  182.9000  178.4440  140.7950 C   0  0  0  0  0  2  0  0  0  0  0  0
  182.2160  177.1530  140.3590 C   0  0  0  0  0  2  0  0  0  0  0  0
  182.7590  176.6810  139.0250 C   0  0  0  0  0  2  0  0  0  0  0  0
  182.6150  176.0380  136.1230 C   0  0  1  0  0  3  0  0  0  0  0  0
  182.8030  177.8570  138.0560 C   0  0  2  0  0  3  0  0  0  0  0  0
  181.2090  179.5340  137.0300 C   0  0  0  0  0  1  0  0  0  0  0  0
  181.2160  175.4170  136.0890 C   0  0  0  0  0  2  0  0  0  0  0  0
  181.4910  178.0730  137.3070 C   0  0  2  0  0  0  0  0  0  0  0  0
  180.2590  177.1750  137.5670 C   0  0  0  0  0  2  0  0  0  0  0  0
  182.6980  177.5290  136.5450 C   0  0  2  0  0  3  0  0  0  0  0  0
  180.5000  175.6790  137.3980 C   0  0  0  0  0  2  0  0  0  0  0  0
  185.7660  173.4500  137.5350 C   0  0  0  0  0  0  0  0  0  0  0  0
  184.4330  173.0290  137.5740 C   0  0  0  0  0  3  0  0  0  0  0  0
  186.0830  174.7200  137.0440 C   0  0  0  0  0  3  0  0  0  0  0  0
  183.4180  173.8770  137.1220 C   0  0  0  0  0  3  0  0  0  0  0  0
  185.0680  175.5670  136.5890 C   0  0  0  0  0  3  0  0  0  0  0  0
  183.7270  175.1500  136.6240 C   0  0  0  0  0  0  0  0  0  0  0  0
  186.7490  172.6290  137.9710 F   0  0  0  0  0  0  0  0  0  0  0  0
  187.7000  177.7160  142.3630 C   0  0  2  0  0  3  0  0  0  0  0  0
  188.9680  177.7700  143.2000 C   0  0  0  0  0  2  0  0  0  0  0  0
  189.5940  176.4520  143.2110 N   0  0  0  0  0  2  0  0  0  0  0  0
  191.0310  176.5670  143.4810 C   0  0  1  0  0  3  0  0  0  0  0  0
  191.4610  177.9530  143.3930 N   0  0  0  0  0  1  0  0  0  0  0  0
  191.3750  176.0170  144.7870 N   0  0  0  0  0  2  0  0  0  0  0  0
  191.6750  177.1350  145.6690 C   0  0  0  0  0  2  0  0  0  0  0  0
  191.5390  175.4410  147.3420 O   0  0  0  0  0  1  0  0  0  0  0  0
  191.2870  176.7900  147.0960 C   0  0  2  0  0  3  0  0  0  0  0  0
  188.9620  176.6190  146.5630 O   0  0  0  0  0  0  0  0  0  0  0  0
  188.0930  178.2550  148.7150 C   0  0  0  0  0  1  0  0  0  0  0  0
  189.4760  177.8990  148.4480 N   0  0  0  0  0  2  0  0  0  0  0  0
  189.8430  177.0870  147.3330 C   0  0  0  0  0  0  0  0  0  0  0  0
  187.9140  178.5970  141.1370 C   0  0  0  0  0  2  0  0  0  0  0  0
  188.8750  177.9400  140.1600 C   0  0  0  0  0  2  0  0  0  0  0  0
  187.3040  178.2340  138.6420 C   0  0  0  0  0  1  0  0  0  0  0  0
  188.6630  178.4430  138.8770 O   0  0  0  0  0  0  0  0  0  0  0  0
  1  6  1  0  0  0  0
  1  4  1  0  0  0  0
  3  2  1  0  0  0  0
  4 29  1  6  0  0  0
  4  3  1  0  0  0  0
  5  7  1  0  0  0  0
  6  8  1  6  0  0  0
  6  5  1  0  0  0  0
  7  2  1  0  0  0  0
  8  9  1  0  0  0  0
  9 10  2  0  0  0  0
 11  8  1  0  0  0  0
 12 11  1  0  0  0  0
 13 12  1  0  0  0  0
 14 20  1  0  0  0  0
 14 27  1  1  0  0  0
 15 13  1  1  0  0  0
 17 14  1  0  0  0  0
 17 21  1  0  0  0  0
 18 16  1  6  0  0  0
 18 19  1  0  0  0  0
 18 15  1  0  0  0  0
 20 18  1  0  0  0  0
 20 15  1  0  0  0  0
 21 19  1  0  0  0  0
 22 23  1  0  0  0  0
 22 28  1  0  0  0  0
 24 22  2  0  0  0  0
 25 23  2  0  0  0  0
 26 27  2  0  0  0  0
 26 24  1  0  0  0  0
 27 25  1  0  0  0  0
 29 30  1  0  0  0  0
 30 31  1  0  0  0  0
 31 32  1  0  0  0  0
 32 34  1  0  0  0  0
 33 32  1  0  0  0  0
 34 35  1  0  0  0  0
 35 37  1  0  0  0  0
 37 41  1  0  0  0  0
 37 36  1  0  0  0  0
 38 41  2  0  0  0  0
 40 39  1  0  0  0  0
 41 40  1  0  0  0  0
 42 29  1  0  0  0  0
 43 42  1  0  0  0  0
 44 45  1  0  0  0  0
 45 43  1  0  0  0  0
M  END
>  <MODEL>
7

>  <REMARK>
 VINA RESULT:      -6.9      1.957      5.070
  Name = 
  18 active torsions:
  status: ('A' for Active; 'I' for Inactive)
    1  A    between atoms: N_2  and  C_20
    2  A    between atoms: N_2  and  C_33
    3  A    between atoms: N_5  and  C_16
    4  A    between atoms: N_5  and  C_20
    5  A    between atoms: C_9  and  N_39
    6  A    between atoms: C_10  and  C_21
    7  A    between atoms: C_10  and  O_35
    8  A    between atoms: C_11  and  C_34
    9  A    between atoms: C_13  and  C_27
   10  A    between atoms: C_15  and  N_39
   11  A    between atoms: C_15  and  C_45
   12  A    between atoms: C_16  and  C_43
   13  A    between atoms: C_21  and  C_30
   14  A    between atoms: C_23  and  C_30
   15  A    between atoms: C_27  and  C_45
   16  A    between atoms: C_30  and  C_33
   17  A    between atoms: C_38  and  N_39
   18  A    between atoms: C_43  and  C_44
                            x       y       z     vdW  Elec       q    Type
                         _______ _______ _______ _____ _____    ______ ____

>  <TORSDO>
F 18

$$$$
=
 OpenBabel11062417243D

 45 48  0  0  1  0  0  0  0  0999 V2000
  185.9660  177.9500  143.3340 C   0  0  0  0  0  2  0  0  0  0  0  0
  186.0980  178.3580  146.6480 C   0  0  0  0  0  2  0  0  0  0  0  0
  186.7650  177.4130  145.6560 C   0  0  0  0  0  2  0  0  0  0  0  0
  187.0810  178.1650  144.3630 C   0  0  1  0  0  3  0  0  0  0  0  0
  184.4770  179.3110  144.9500 C   0  0  0  0  0  2  0  0  0  0  0  0
  184.5460  178.2670  143.8350 C   0  0  1  0  0  3  0  0  0  0  0  0
  184.6350  178.6290  146.3040 C   0  0  0  0  0  2  0  0  0  0  0  0
  183.6410  178.6290  142.7350 N   0  0  0  0  0  0  0  0  0  0  0  0
  182.4260  179.3430  142.9900 C   0  0  0  0  0  3  0  0  0  0  0  0
  181.3080  178.7310  143.3720 C   0  0  0  0  0  2  0  0  0  0  0  0
  183.8930  178.2260  141.3490 C   0  0  0  0  0  2  0  0  0  0  0  0
  183.5100  179.3240  140.3630 C   0  0  0  0  0  2  0  0  0  0  0  0
  182.6750  178.7600  139.2300 C   0  0  0  0  0  2  0  0  0  0  0  0
  180.2140  178.2660  137.6320 C   0  0  1  0  0  3  0  0  0  0  0  0
  181.6800  177.7510  139.7920 C   0  0  2  0  0  3  0  0  0  0  0  0
  181.3130  175.2470  139.8000 C   0  0  0  0  0  1  0  0  0  0  0  0
  180.8640  177.6780  136.3760 C   0  0  0  0  0  2  0  0  0  0  0  0
  181.5740  176.4780  138.9580 C   0  0  2  0  0  0  0  0  0  0  0  0
  182.4370  176.2710  137.6910 C   0  0  0  0  0  2  0  0  0  0  0  0
  180.4110  177.4690  138.9480 C   0  0  2  0  0  3  0  0  0  0  0  0
  182.3230  177.3690  136.6420 C   0  0  0  0  0  2  0  0  0  0  0  0
  180.3340  182.5580  138.0590 C   0  0  0  0  0  0  0  0  0  0  0  0
  179.7680  181.7630  139.0600 C   0  0  0  0  0  3  0  0  0  0  0  0
  180.8590  181.9640  136.9080 C   0  0  0  0  0  3  0  0  0  0  0  0
  179.7250  180.3740  138.9100 C   0  0  0  0  0  3  0  0  0  0  0  0
  180.8190  180.5740  136.7580 C   0  0  0  0  0  3  0  0  0  0  0  0
  180.2530  179.7690  137.7610 C   0  0  0  0  0  0  0  0  0  0  0  0
  180.3770  183.9030  138.2050 F   0  0  0  0  0  0  0  0  0  0  0  0
  188.4440  177.7620  143.7830 C   0  0  2  0  0  3  0  0  0  0  0  0
  188.2770  176.7540  142.6570 C   0  0  0  0  0  2  0  0  0  0  0  0
  188.6660  177.3730  141.3940 N   0  0  0  0  0  2  0  0  0  0  0  0
  190.1000  177.1860  141.1510 C   0  0  1  0  0  3  0  0  0  0  0  0
  190.5830  175.9860  141.8150 N   0  0  0  0  0  1  0  0  0  0  0  0
  190.3950  177.1230  139.7240 N   0  0  0  0  0  2  0  0  0  0  0  0
  189.1270  177.0410  139.0170 C   0  0  0  0  0  2  0  0  0  0  0  0
  189.0590  179.3880  138.5960 O   0  0  0  0  0  1  0  0  0  0  0  0
  189.0420  178.1410  137.9720 C   0  0  2  0  0  3  0  0  0  0  0  0
  187.3240  178.9880  136.5400 O   0  0  0  0  0  0  0  0  0  0  0  0
  185.9220  176.5250  136.3510 C   0  0  0  0  0  1  0  0  0  0  0  0
  187.1550  176.7240  137.0930 N   0  0  0  0  0  2  0  0  0  0  0  0
  187.7960  177.9980  137.1610 C   0  0  0  0  0  0  0  0  0  0  0  0
  189.3250  177.1250  144.8520 C   0  0  0  0  0  2  0  0  0  0  0  0
  190.5900  177.9390  145.0650 C   0  0  0  0  0  2  0  0  0  0  0  0
  190.8000  176.8220  146.9540 C   0  0  0  0  0  1  0  0  0  0  0  0
  191.5070  177.2010  145.8120 O   0  0  0  0  0  0  0  0  0  0  0  0
  1  6  1  0  0  0  0
  1  4  1  0  0  0  0
  3  2  1  0  0  0  0
  4 29  1  6  0  0  0
  4  3  1  0  0  0  0
  5  7  1  0  0  0  0
  6  8  1  6  0  0  0
  6  5  1  0  0  0  0
  7  2  1  0  0  0  0
  8  9  1  0  0  0  0
  9 10  2  0  0  0  0
 11  8  1  0  0  0  0
 12 11  1  0  0  0  0
 13 12  1  0  0  0  0
 14 27  1  1  0  0  0
 14 20  1  0  0  0  0
 15 13  1  6  0  0  0
 17 21  1  0  0  0  0
 17 14  1  0  0  0  0
 18 15  1  0  0  0  0
 18 16  1  1  0  0  0
 19 18  1  0  0  0  0
 20 18  1  0  0  0  0
 20 15  1  0  0  0  0
 21 19  1  0  0  0  0
 22 28  1  0  0  0  0
 22 23  1  0  0  0  0
 24 22  2  0  0  0  0
 25 23  2  0  0  0  0
 26 24  1  0  0  0  0
 26 27  2  0  0  0  0
 27 25  1  0  0  0  0
 29 42  1  0  0  0  0
 30 29  1  0  0  0  0
 31 30  1  0  0  0  0
 32 31  1  0  0  0  0
 32 33  1  0  0  0  0
 34 32  1  0  0  0  0
 35 34  1  0  0  0  0
 37 36  1  0  0  0  0
 37 35  1  0  0  0  0
 38 41  2  0  0  0  0
 39 40  1  0  0  0  0
 40 41  1  0  0  0  0
 41 37  1  0  0  0  0
 42 43  1  0  0  0  0
 43 45  1  0  0  0  0
 45 44  1  0  0  0  0
M  END
>  <MODEL>
8

>  <REMARK>
 VINA RESULT:      -6.8      2.127      3.519
  Name = 
  18 active torsions:
  status: ('A' for Active; 'I' for Inactive)
    1  A    between atoms: N_2  and  C_20
    2  A    between atoms: N_2  and  C_33
    3  A    between atoms: N_5  and  C_16
    4  A    between atoms: N_5  and  C_20
    5  A    between atoms: C_9  and  N_39
    6  A    between atoms: C_10  and  C_21
    7  A    between atoms: C_10  and  O_35
    8  A    between atoms: C_11  and  C_34
    9  A    between atoms: C_13  and  C_27
   10  A    between atoms: C_15  and  N_39
   11  A    between atoms: C_15  and  C_45
   12  A    between atoms: C_16  and  C_43
   13  A    between atoms: C_21  and  C_30
   14  A    between atoms: C_23  and  C_30
   15  A    between atoms: C_27  and  C_45
   16  A    between atoms: C_30  and  C_33
   17  A    between atoms: C_38  and  N_39
   18  A    between atoms: C_43  and  C_44
                            x       y       z     vdW  Elec       q    Type
                         _______ _______ _______ _____ _____    ______ ____

>  <TORSDO>
F 18

$$$$
=
 OpenBabel11062417243D

 45 48  0  0  1  0  0  0  0  0999 V2000
  185.9590  178.0370  142.8770 C   0  0  0  0  0  2  0  0  0  0  0  0
  184.6350  178.6300  145.8880 C   0  0  0  0  0  2  0  0  0  0  0  0
  185.6340  177.6200  145.3350 C   0  0  0  0  0  2  0  0  0  0  0  0
  186.5140  178.2940  144.2820 C   0  0  1  0  0  3  0  0  0  0  0  0
  183.9640  179.5090  143.6090 C   0  0  0  0  0  2  0  0  0  0  0  0
  184.4760  178.4030  142.6860 C   0  0  1  0  0  3  0  0  0  0  0  0
  183.4840  178.9020  144.9220 C   0  0  0  0  0  2  0  0  0  0  0  0
  184.1620  178.7150  141.2840 N   0  0  0  0  0  0  0  0  0  0  0  0
  185.2010  178.8090  140.3040 C   0  0  0  0  0  3  0  0  0  0  0  0
  184.9750  178.6250  139.0060 C   0  0  0  0  0  2  0  0  0  0  0  0
  182.8000  179.0110  140.8350 C   0  0  0  0  0  2  0  0  0  0  0  0
  181.8530  177.8450  141.0970 C   0  0  0  0  0  2  0  0  0  0  0  0
  181.7530  176.9510  139.8760 C   0  0  0  0  0  2  0  0  0  0  0  0
  179.9200  177.0950  137.5360 C   0  0  1  0  0  3  0  0  0  0  0  0
  180.4690  176.1330  139.9560 C   0  0  2  0  0  3  0  0  0  0  0  0
  179.6940  173.7660  139.5080 C   0  0  0  0  0  1  0  0  0  0  0  0
  180.8400  176.4770  136.4800 C   0  0  0  0  0  2  0  0  0  0  0  0
  180.4290  174.9730  138.9660 C   0  0  2  0  0  0  0  0  0  0  0  0
  181.6160  174.6830  138.0180 C   0  0  0  0  0  2  0  0  0  0  0  0
  179.5260  176.1820  138.7270 C   0  0  2  0  0  3  0  0  0  0  0  0
  182.0500  175.8540  137.1440 C   0  0  0  0  0  2  0  0  0  0  0  0
  180.6620  181.2470  138.4470 C   0  0  0  0  0  0  0  0  0  0  0  0
  181.5310  180.5400  137.6110 C   0  0  0  0  0  3  0  0  0  0  0  0
  179.5490  180.6070  139.0000 C   0  0  0  0  0  3  0  0  0  0  0  0
  181.2880  179.1930  137.3280 C   0  0  0  0  0  3  0  0  0  0  0  0
  179.3040  179.2600  138.7140 C   0  0  0  0  0  3  0  0  0  0  0  0
  180.1720  178.5440  137.8740 C   0  0  0  0  0  0  0  0  0  0  0  0
  180.8960  182.5520  138.7210 F   0  0  0  0  0  0  0  0  0  0  0  0
  187.9780  177.8390  144.3820 C   0  0  2  0  0  3  0  0  0  0  0  0
  188.3160  176.8580  143.2710 C   0  0  0  0  0  2  0  0  0  0  0  0
  189.4390  177.3750  142.4960 N   0  0  0  0  0  2  0  0  0  0  0  0
  189.2830  177.0390  141.0770 C   0  0  1  0  0  3  0  0  0  0  0  0
  188.8470  178.2000  140.3180 N   0  0  0  0  0  1  0  0  0  0  0  0
  190.5210  176.5100  140.5160 N   0  0  0  0  0  2  0  0  0  0  0  0
  190.6000  176.9530  139.1330 C   0  0  0  0  0  2  0  0  0  0  0  0
  192.0560  176.4510  137.3110 O   0  0  0  0  0  1  0  0  0  0  0  0
  191.2310  175.8700  138.2750 C   0  0  2  0  0  3  0  0  0  0  0  0
  190.3860  173.8320  137.3520 O   0  0  0  0  0  0  0  0  0  0  0  0
  187.8750  174.9230  136.5970 C   0  0  0  0  0  1  0  0  0  0  0  0
  188.9290  175.6570  137.2780 N   0  0  0  0  0  2  0  0  0  0  0  0
  190.1770  175.0480  137.6090 C   0  0  0  0  0  0  0  0  0  0  0  0
  188.2440  177.1470  145.7130 C   0  0  0  0  0  2  0  0  0  0  0  0
  189.6600  177.4210  146.1910 C   0  0  0  0  0  2  0  0  0  0  0  0
  188.4160  177.3730  148.0110 C   0  0  0  0  0  1  0  0  0  0  0  0
  189.7350  177.2470  147.5730 O   0  0  0  0  0  0  0  0  0  0  0  0
  1  4  1  0  0  0  0
  3  2  1  0  0  0  0
  4 29  1  6  0  0  0
  4  3  1  0  0  0  0
  5  7  1  0  0  0  0
  6  8  1  6  0  0  0
  6  1  1  0  0  0  0
  6  5  1  0  0  0  0
  7  2  1  0  0  0  0
  9  8  1  0  0  0  0
 10  9  2  0  0  0  0
 11 12  1  0  0  0  0
 11  8  1  0  0  0  0
 13 12  1  0  0  0  0
 14 27  1  1  0  0  0
 14 20  1  0  0  0  0
 15 13  1  6  0  0  0
 17 21  1  0  0  0  0
 17 14  1  0  0  0  0
 18 16  1  1  0  0  0
 18 15  1  0  0  0  0
 19 18  1  0  0  0  0
 20 18  1  0  0  0  0
 20 15  1  0  0  0  0
 21 19  1  0  0  0  0
 22 28  1  0  0  0  0
 22 24  1  0  0  0  0
 23 22  2  0  0  0  0
 25 23  1  0  0  0  0
 25 27  2  0  0  0  0
 26 24  2  0  0  0  0
 27 26  1  0  0  0  0
 29 42  1  0  0  0  0
 30 29  1  0  0  0  0
 31 30  1  0  0  0  0
 32 31  1  0  0  0  0
 33 32  1  0  0  0  0
 34 32  1  0  0  0  0
 35 34  1  0  0  0  0
 36 37  1  0  0  0  0
 37 35  1  0  0  0  0
 38 41  2  0  0  0  0
 39 40  1  0  0  0  0
 40 41  1  0  0  0  0
 41 37  1  0  0  0  0
 42 43  1  0  0  0  0
 43 45  1  0  0  0  0
 45 44  1  0  0  0  0
M  END
>  <MODEL>
9

>  <REMARK>
 VINA RESULT:      -6.6      2.525      4.004
  Name = 
  18 active torsions:
  status: ('A' for Active; 'I' for Inactive)
    1  A    between atoms: N_2  and  C_20
    2  A    between atoms: N_2  and  C_33
    3  A    between atoms: N_5  and  C_16
    4  A    between atoms: N_5  and  C_20
    5  A    between atoms: C_9  and  N_39
    6  A    between atoms: C_10  and  C_21
    7  A    between atoms: C_10  and  O_35
    8  A    between atoms: C_11  and  C_34
    9  A    between atoms: C_13  and  C_27
   10  A    between atoms: C_15  and  N_39
   11  A    between atoms: C_15  and  C_45
   12  A    between atoms: C_16  and  C_43
   13  A    between atoms: C_21  and  C_30
   14  A    between atoms: C_23  and  C_30
   15  A    between atoms: C_27  and  C_45
   16  A    between atoms: C_30  and  C_33
   17  A    between atoms: C_38  and  N_39
   18  A    between atoms: C_43  and  C_44
                            x       y       z     vdW  Elec       q    Type
                         _______ _______ _______ _____ _____    ______ ____

>  <TORSDO>
F 18

$$$$
