=
 OpenBabel11062417453D

 39 43  0  0  1  0  0  0  0  0999 V2000
  186.5470  177.8730  144.1230 C   0  0  0  0  0  0  0  0  0  0  0  0
  184.4240  178.8760  144.5960 C   0  0  0  0  0  0  0  0  0  0  0  0
  188.6920  177.0890  144.4470 C   0  0  0  0  0  0  0  0  0  0  0  0
  184.7930  178.9970  145.9090 N   0  0  0  0  0  0  0  0  0  0  0  0
  189.8560  176.6330  144.2750 O   0  0  0  0  0  0  0  0  0  0  0  0
  187.6680  177.2360  143.3510 C   0  0  2  0  0  3  0  0  0  0  0  0
  186.9000  178.0210  145.4460 C   0  0  0  0  0  0  0  0  0  0  0  0
  188.2090  177.5400  145.7100 N   0  0  0  0  0  0  0  0  0  0  0  0
  186.0150  178.5890  146.3590 C   0  0  0  0  0  3  0  0  0  0  0  0
  185.3020  178.2970  143.6620 C   0  0  0  0  0  3  0  0  0  0  0  0
  183.0690  179.3170  144.1540 C   0  0  0  0  0  2  0  0  0  0  0  0
  182.7070  178.7420  142.7890 C   0  0  0  0  0  2  0  0  0  0  0  0
  181.2080  178.7880  142.5150 C   0  0  0  0  0  2  0  0  0  0  0  0
  180.9090  178.9360  141.0280 C   0  0  0  0  0  2  0  0  0  0  0  0
  181.3910  178.0420  138.7580 C   0  0  1  0  0  0  0  0  0  0  0  0
  182.6850  177.6570  138.0440 C   0  0  2  0  0  3  0  0  0  0  0  0
  180.2210  177.6250  138.1100 O   0  0  0  0  0  0  0  0  0  0  0  0
  181.4070  177.7320  140.2330 C   0  0  2  0  0  3  0  0  0  0  0  0
  182.2340  179.1160  138.0750 C   0  0  2  0  0  3  0  0  0  0  0  0
  179.6520  176.6620  138.9650 C   0  0  0  0  0  2  0  0  0  0  0  0
  180.3910  176.6300  140.2990 C   0  0  0  0  0  2  0  0  0  0  0  0
  182.4580  177.0260  136.7010 C   0  0  0  0  0  0  0  0  0  0  0  0
  182.4400  177.7540  135.6760 O   0  0  0  0  0  0  0  0  0  0  0  0
  182.2660  175.6550  136.5680 O   0  0  0  0  0  1  0  0  0  0  0  0
  183.1230  179.8700  139.0500 C   0  0  0  0  0  2  0  0  0  0  0  0
  185.1050  179.6280  140.3460 O   0  0  0  0  0  1  0  0  0  0  0  0
  184.4630  179.1770  139.1910 C   0  0  0  0  0  2  0  0  0  0  0  0
  188.1430  178.0760  142.2420 N   0  0  0  0  0  2  0  0  0  0  0  0
  189.7740  176.9330  140.8540 C   0  0  0  0  0  2  0  0  0  0  0  0
  188.0800  178.2300  139.8320 C   0  0  0  0  0  2  0  0  0  0  0  0
  188.3200  177.3210  141.0020 C   0  0  2  0  0  3  0  0  0  0  0  0
  190.4060  177.8970  140.0550 O   0  0  0  0  0  0  0  0  0  0  0  0
  189.4210  178.3080  139.1440 C   0  0  0  0  0  2  0  0  0  0  0  0
  189.0210  177.8830  146.8710 C   0  0  0  0  0  2  0  0  0  0  0  0
  189.8070  176.6690  147.3380 C   0  0  0  0  0  2  0  0  0  0  0  0
  191.1970  176.9490  147.2930 O   0  0  0  0  0  0  0  0  0  0  0  0
  192.1450  175.9310  147.3390 C   0  0  0  0  0  0  0  0  0  0  0  0
  192.9220  175.7350  148.4740 O   0  0  0  0  0  1  0  0  0  0  0  0
  192.3040  175.1840  146.3380 O   0  0  0  0  0  0  0  0  0  0  0  0
  1  7  1  0  0  0  0
  2  4  2  0  0  0  0
  3  8  1  0  0  0  0
  4  9  1  0  0  0  0
  5  3  2  0  0  0  0
  6 28  1  6  0  0  0
  6  1  1  0  0  0  0
  6  3  1  0  0  0  0
  7  8  1  0  0  0  0
  7  9  2  0  0  0  0
  8 34  1  0  0  0  0
 10  1  2  0  0  0  0
 10  2  1  0  0  0  0
 11  2  1  0  0  0  0
 12 11  1  0  0  0  0
 13 12  1  0  0  0  0
 14 13  1  0  0  0  0
 15 17  1  6  0  0  0
 15 18  1  0  0  0  0
 16 22  1  6  0  0  0
 16 19  1  0  0  0  0
 16 15  1  0  0  0  0
 17 20  1  0  0  0  0
 18 21  1  0  0  0  0
 18 14  1  1  0  0  0
 19 15  1  0  0  0  0
 19 25  1  1  0  0  0
 20 21  1  0  0  0  0
 23 22  2  0  0  0  0
 24 22  1  0  0  0  0
 25 27  1  0  0  0  0
 27 26  1  0  0  0  0
 29 31  1  0  0  0  0
 30 31  1  0  0  0  0
 31 28  1  1  0  0  0
 32 29  1  0  0  0  0
 33 30  1  0  0  0  0
 33 32  1  0  0  0  0
 34 35  1  0  0  0  0
 36 35  1  0  0  0  0
 36 37  1  0  0  0  0
 37 38  1  0  0  0  0
 39 37  2  0  0  0  0
M  END
>  <MODEL>
1

>  <REMARK>
 VINA RESULT:      -7.9      0.000      0.000
  Name = 
  14 active torsions:
  status: ('A' for Active; 'I' for Inactive)
    1  A    between atoms: C_2  and  C_8
    2  A    between atoms: C_2  and  C_13
    3  A    between atoms: C_4  and  C_7
    4  A    between atoms: C_5  and  O_35
    5  A    between atoms: C_10  and  C_15
    6  A    between atoms: C_12  and  C_13
    7  A    between atoms: C_12  and  C_39
    8  A    between atoms: C_15  and  C_26
    9  A    between atoms: C_19  and  C_32
   10  A    between atoms: C_19  and  O_35
   11  A    between atoms: C_20  and  C_39
   12  A    between atoms: C_21  and  N_23
   13  A    between atoms: N_23  and  C_29
   14  A    between atoms: N_25  and  C_32
                            x       y       z     vdW  Elec       q    Type
                         _______ _______ _______ _____ _____    ______ ____

>  <TORSDO>
F 14

$$$$
=
 OpenBabel11062417453D

 39 43  0  0  1  0  0  0  0  0999 V2000
  182.6380  178.1540  140.1490 C   0  0  0  0  0  0  0  0  0  0  0  0
  184.7740  178.9450  140.8890 C   0  0  0  0  0  0  0  0  0  0  0  0
  180.7440  177.9230  138.8530 C   0  0  0  0  0  0  0  0  0  0  0  0
  184.8630  179.7090  139.7570 N   0  0  0  0  0  0  0  0  0  0  0  0
  179.6000  177.6120  138.4210 O   0  0  0  0  0  0  0  0  0  0  0  0
  181.3380  177.4000  140.1360 C   0  0  2  0  0  3  0  0  0  0  0  0
  182.7460  178.9440  139.0260 C   0  0  0  0  0  0  0  0  0  0  0  0
  181.6120  178.8310  138.1790 N   0  0  0  0  0  0  0  0  0  0  0  0
  183.8730  179.7350  138.8190 C   0  0  0  0  0  3  0  0  0  0  0  0
  183.6470  178.1340  141.1110 C   0  0  0  0  0  3  0  0  0  0  0  0
  185.8920  178.9350  141.8770 C   0  0  0  0  0  2  0  0  0  0  0  0
  187.2350  178.6730  141.2030 C   0  0  0  0  0  2  0  0  0  0  0  0
  188.0700  177.6370  141.9490 C   0  0  0  0  0  2  0  0  0  0  0  0
  187.4140  177.2210  143.2600 C   0  0  0  0  0  2  0  0  0  0  0  0
  188.6810  177.6170  145.3630 C   0  0  1  0  0  0  0  0  0  0  0  0
  188.6310  176.9700  146.7460 C   0  0  2  0  0  3  0  0  0  0  0  0
  189.7860  178.4510  145.1490 O   0  0  0  0  0  0  0  0  0  0  0  0
  188.4330  176.6440  144.2390 C   0  0  2  0  0  3  0  0  0  0  0  0
  187.6370  178.0710  146.3800 C   0  0  2  0  0  3  0  0  0  0  0  0
  190.5530  177.7980  144.1650 C   0  0  0  0  0  2  0  0  0  0  0  0
  189.7870  176.6090  143.5930 C   0  0  0  0  0  2  0  0  0  0  0  0
  189.7040  177.4660  147.6720 C   0  0  0  0  0  0  0  0  0  0  0  0
  189.4280  178.3670  148.5040 O   0  0  0  0  0  1  0  0  0  0  0  0
  190.9940  176.9480  147.6280 O   0  0  0  0  0  0  0  0  0  0  0  0
  186.2790  177.4310  146.1510 C   0  0  0  0  0  2  0  0  0  0  0  0
  185.5710  179.4860  147.1220 O   0  0  0  0  0  1  0  0  0  0  0  0
  185.1790  178.4680  146.2500 C   0  0  0  0  0  2  0  0  0  0  0  0
  180.4990  177.6930  141.3070 N   0  0  0  0  0  2  0  0  0  0  0  0
  180.8190  178.9710  143.3470 C   0  0  0  0  0  2  0  0  0  0  0  0
  179.5090  179.8770  141.5970 C   0  0  0  0  0  2  0  0  0  0  0  0
  180.7280  179.0360  141.8390 C   0  0  2  0  0  3  0  0  0  0  0  0
  179.5520  179.2570  143.8750 O   0  0  0  0  0  0  0  0  0  0  0  0
  178.9930  180.1860  142.9830 C   0  0  0  0  0  2  0  0  0  0  0  0
  181.2290  179.7830  137.1440 C   0  0  0  0  0  2  0  0  0  0  0  0
  180.4460  180.9340  137.7550 C   0  0  0  0  0  2  0  0  0  0  0  0
  181.1550  182.1490  137.5730 O   0  0  0  0  0  0  0  0  0  0  0  0
  180.7530  183.0910  136.6310 C   0  0  0  0  0  0  0  0  0  0  0  0
  180.8240  182.8110  135.2720 O   0  0  0  0  0  0  0  0  0  0  0  0
  180.3270  184.2110  137.0150 O   0  0  0  0  0  1  0  0  0  0  0  0
  1 10  1  0  0  0  0
  2 10  2  0  0  0  0
  2 11  1  0  0  0  0
  3  6  1  0  0  0  0
  4  2  1  0  0  0  0
  5  3  2  0  0  0  0
  6  1  1  0  0  0  0
  6 28  1  1  0  0  0
  7  1  2  0  0  0  0
  8  3  1  0  0  0  0
  8  7  1  0  0  0  0
  9  7  1  0  0  0  0
  9  4  2  0  0  0  0
 12 11  1  0  0  0  0
 12 13  1  0  0  0  0
 13 14  1  0  0  0  0
 15 17  1  6  0  0  0
 15 19  1  0  0  0  0
 15 16  1  0  0  0  0
 16 22  1  1  0  0  0
 18 14  1  6  0  0  0
 18 15  1  0  0  0  0
 19 25  1  6  0  0  0
 19 16  1  0  0  0  0
 20 17  1  0  0  0  0
 21 20  1  0  0  0  0
 21 18  1  0  0  0  0
 22 23  1  0  0  0  0
 24 22  2  0  0  0  0
 25 27  1  0  0  0  0
 27 26  1  0  0  0  0
 29 32  1  0  0  0  0
 30 31  1  0  0  0  0
 30 33  1  0  0  0  0
 31 28  1  6  0  0  0
 31 29  1  0  0  0  0
 33 32  1  0  0  0  0
 34 35  1  0  0  0  0
 34  8  1  0  0  0  0
 36 35  1  0  0  0  0
 37 39  1  0  0  0  0
 37 36  1  0  0  0  0
 38 37  2  0  0  0  0
M  END
>  <MODEL>
2

>  <REMARK>
 VINA RESULT:      -7.6      3.080     10.573
  Name = 
  14 active torsions:
  status: ('A' for Active; 'I' for Inactive)
    1  A    between atoms: C_2  and  C_8
    2  A    between atoms: C_2  and  C_13
    3  A    between atoms: C_4  and  C_7
    4  A    between atoms: C_5  and  O_35
    5  A    between atoms: C_10  and  C_15
    6  A    between atoms: C_12  and  C_13
    7  A    between atoms: C_12  and  C_39
    8  A    between atoms: C_15  and  C_26
    9  A    between atoms: C_19  and  C_32
   10  A    between atoms: C_19  and  O_35
   11  A    between atoms: C_20  and  C_39
   12  A    between atoms: C_21  and  N_23
   13  A    between atoms: N_23  and  C_29
   14  A    between atoms: N_25  and  C_32
                            x       y       z     vdW  Elec       q    Type
                         _______ _______ _______ _____ _____    ______ ____

>  <TORSDO>
F 14

$$$$
=
 OpenBabel11062417453D

 39 43  0  0  1  0  0  0  0  0999 V2000
  185.0190  178.4860  139.7340 C   0  0  0  0  0  0  0  0  0  0  0  0
  184.5890  178.9950  142.0350 C   0  0  0  0  0  0  0  0  0  0  0  0
  184.6820  177.7120  137.5880 C   0  0  0  0  0  0  0  0  0  0  0  0
  183.3100  178.5340  141.8800 N   0  0  0  0  0  0  0  0  0  0  0  0
  184.8420  177.3510  136.3900 O   0  0  0  0  0  0  0  0  0  0  0  0
  185.7540  178.3540  138.4300 C   0  0  2  0  0  3  0  0  0  0  0  0
  183.7320  178.0130  139.6090 C   0  0  0  0  0  0  0  0  0  0  0  0
  183.4590  177.5360  138.3000 N   0  0  0  0  0  0  0  0  0  0  0  0
  182.8570  178.0360  140.6920 C   0  0  0  0  0  3  0  0  0  0  0  0
  185.4830  178.9870  140.9500 C   0  0  0  0  0  3  0  0  0  0  0  0
  185.0320  179.5490  143.3470 C   0  0  0  0  0  2  0  0  0  0  0  0
  184.2500  178.9420  144.5080 C   0  0  0  0  0  2  0  0  0  0  0  0
  185.0830  178.8350  145.7800 C   0  0  0  0  0  2  0  0  0  0  0  0
  186.1280  177.7290  145.6800 C   0  0  0  0  0  2  0  0  0  0  0  0
  188.5540  177.1910  145.7560 C   0  0  1  0  0  0  0  0  0  0  0  0
  189.7730  177.7750  145.0420 C   0  0  2  0  0  3  0  0  0  0  0  0
  188.8570  176.3290  146.8170 O   0  0  0  0  0  0  0  0  0  0  0  0
  187.5100  178.2240  146.0960 C   0  0  2  0  0  3  0  0  0  0  0  0
  188.9060  176.7290  144.3440 C   0  0  2  0  0  3  0  0  0  0  0  0
  188.4120  176.9990  147.9720 C   0  0  0  0  0  2  0  0  0  0  0  0
  187.6090  178.2400  147.5940 C   0  0  0  0  0  2  0  0  0  0  0  0
  191.0740  177.1990  145.5210 C   0  0  0  0  0  0  0  0  0  0  0  0
  191.6630  176.3420  144.8150 O   0  0  0  0  0  0  0  0  0  0  0  0
  191.6390  177.5950  146.7300 O   0  0  0  0  0  1  0  0  0  0  0  0
  188.0810  177.4270  143.2760 C   0  0  0  0  0  2  0  0  0  0  0  0
  189.7880  176.3490  142.0130 O   0  0  0  0  0  1  0  0  0  0  0  0
  188.6860  177.2000  141.9060 C   0  0  0  0  0  2  0  0  0  0  0  0
  186.9610  177.5220  138.5400 N   0  0  0  0  0  2  0  0  0  0  0  0
  188.7310  176.8650  137.0130 C   0  0  0  0  0  2  0  0  0  0  0  0
  189.1440  178.5530  138.6190 C   0  0  0  0  0  2  0  0  0  0  0  0
  188.0640  178.0230  137.7210 C   0  0  2  0  0  3  0  0  0  0  0  0
  189.8290  176.4540  137.7830 O   0  0  0  0  0  0  0  0  0  0  0  0
  190.3150  177.6320  138.3710 C   0  0  0  0  0  2  0  0  0  0  0  0
  182.3690  176.6420  137.9330 C   0  0  0  0  0  2  0  0  0  0  0  0
  182.7120  175.2120  138.3160 C   0  0  0  0  0  2  0  0  0  0  0  0
  183.3300  174.5550  137.2210 O   0  0  0  0  0  0  0  0  0  0  0  0
  183.8330  173.2630  137.3390 C   0  0  0  0  0  0  0  0  0  0  0  0
  185.0590  173.0320  137.9520 O   0  0  0  0  0  1  0  0  0  0  0  0
  183.1740  172.2940  136.8800 O   0  0  0  0  0  0  0  0  0  0  0  0
  1 10  1  0  0  0  0
  2 11  1  0  0  0  0
  3  8  1  0  0  0  0
  3  6  1  0  0  0  0
  4  2  1  0  0  0  0
  5  3  2  0  0  0  0
  6 28  1  1  0  0  0
  6  1  1  0  0  0  0
  7  1  2  0  0  0  0
  7  9  1  0  0  0  0
  8  7  1  0  0  0  0
  9  4  2  0  0  0  0
 10  2  2  0  0  0  0
 11 12  1  0  0  0  0
 12 13  1  0  0  0  0
 14 13  1  0  0  0  0
 15 18  1  0  0  0  0
 15 17  1  1  0  0  0
 16 22  1  1  0  0  0
 16 15  1  0  0  0  0
 17 20  1  0  0  0  0
 18 14  1  1  0  0  0
 18 21  1  0  0  0  0
 19 25  1  6  0  0  0
 19 16  1  0  0  0  0
 19 15  1  0  0  0  0
 21 20  1  0  0  0  0
 22 24  1  0  0  0  0
 23 22  2  0  0  0  0
 27 26  1  0  0  0  0
 27 25  1  0  0  0  0
 29 31  1  0  0  0  0
 29 32  1  0  0  0  0
 31 28  1  1  0  0  0
 31 30  1  0  0  0  0
 32 33  1  0  0  0  0
 33 30  1  0  0  0  0
 34  8  1  0  0  0  0
 34 35  1  0  0  0  0
 36 37  1  0  0  0  0
 36 35  1  0  0  0  0
 37 38  1  0  0  0  0
 39 37  2  0  0  0  0
M  END
>  <MODEL>
3

>  <REMARK>
 VINA RESULT:      -7.6      2.399      8.647
  Name = 
  14 active torsions:
  status: ('A' for Active; 'I' for Inactive)
    1  A    between atoms: C_2  and  C_8
    2  A    between atoms: C_2  and  C_13
    3  A    between atoms: C_4  and  C_7
    4  A    between atoms: C_5  and  O_35
    5  A    between atoms: C_10  and  C_15
    6  A    between atoms: C_12  and  C_13
    7  A    between atoms: C_12  and  C_39
    8  A    between atoms: C_15  and  C_26
    9  A    between atoms: C_19  and  C_32
   10  A    between atoms: C_19  and  O_35
   11  A    between atoms: C_20  and  C_39
   12  A    between atoms: C_21  and  N_23
   13  A    between atoms: N_23  and  C_29
   14  A    between atoms: N_25  and  C_32
                            x       y       z     vdW  Elec       q    Type
                         _______ _______ _______ _____ _____    ______ ____

>  <TORSDO>
F 14

$$$$
=
 OpenBabel11062417453D

 39 43  0  0  1  0  0  0  0  0999 V2000
  183.3510  178.2720  140.8400 C   0  0  0  0  0  0  0  0  0  0  0  0
  184.1520  179.1890  142.9020 C   0  0  0  0  0  0  0  0  0  0  0  0
  183.3290  177.5880  138.6380 C   0  0  0  0  0  0  0  0  0  0  0  0
  185.3860  179.3500  142.3310 N   0  0  0  0  0  0  0  0  0  0  0  0
  182.9750  177.1800  137.4970 O   0  0  0  0  0  0  0  0  0  0  0  0
  182.4140  177.6700  139.8320 C   0  0  2  0  0  3  0  0  0  0  0  0
  184.5970  178.4590  140.2850 C   0  0  0  0  0  0  0  0  0  0  0  0
  184.6500  178.0400  138.9290 N   0  0  0  0  0  0  0  0  0  0  0  0
  185.6360  179.0040  141.0350 C   0  0  0  0  0  3  0  0  0  0  0  0
  183.0950  178.6330  142.1620 C   0  0  0  0  0  3  0  0  0  0  0  0
  183.9330  179.5630  144.3300 C   0  0  0  0  0  2  0  0  0  0  0  0
  184.3910  178.4590  145.2780 C   0  0  0  0  0  2  0  0  0  0  0  0
  185.6800  178.8160  146.0100 C   0  0  0  0  0  2  0  0  0  0  0  0
  186.8630  178.0030  145.4980 C   0  0  0  0  0  2  0  0  0  0  0  0
  189.0740  177.1230  146.2200 C   0  0  1  0  0  0  0  0  0  0  0  0
  190.5120  177.5190  145.8870 C   0  0  2  0  0  3  0  0  0  0  0  0
  188.9490  176.2360  147.2960 O   0  0  0  0  0  0  0  0  0  0  0  0
  188.1320  178.2980  146.2930 C   0  0  2  0  0  3  0  0  0  0  0  0
  189.7330  176.6020  144.9450 C   0  0  2  0  0  3  0  0  0  0  0  0
  188.3000  176.9740  148.3050 C   0  0  0  0  0  2  0  0  0  0  0  0
  187.8150  178.3130  147.7590 C   0  0  0  0  0  2  0  0  0  0  0  0
  191.5350  176.7670  146.6870 C   0  0  0  0  0  0  0  0  0  0  0  0
  192.0600  175.7350  146.1970 O   0  0  0  0  0  0  0  0  0  0  0  0
  191.9150  177.1900  147.9570 O   0  0  0  0  0  1  0  0  0  0  0  0
  189.3420  177.4020  143.7140 C   0  0  0  0  0  2  0  0  0  0  0  0
  190.2500  175.4340  142.7290 O   0  0  0  0  0  1  0  0  0  0  0  0
  189.4440  176.5440  142.4700 C   0  0  0  0  0  2  0  0  0  0  0  0
  181.2330  178.5090  139.5820 N   0  0  0  0  0  2  0  0  0  0  0  0
  180.2820  176.3020  139.9290 C   0  0  0  0  0  2  0  0  0  0  0  0
  179.2430  177.7940  138.4150 C   0  0  0  0  0  2  0  0  0  0  0  0
  179.9790  177.7700  139.7220 C   0  0  2  0  0  3  0  0  0  0  0  0
  180.2210  175.6620  138.6830 O   0  0  0  0  0  0  0  0  0  0  0  0
  179.2220  176.3490  137.9760 C   0  0  0  0  0  2  0  0  0  0  0  0
  185.6590  178.4400  137.9560 C   0  0  0  0  0  2  0  0  0  0  0  0
  186.4230  177.2220  137.4640 C   0  0  0  0  0  2  0  0  0  0  0  0
  187.7680  177.5770  137.1870 O   0  0  0  0  0  0  0  0  0  0  0  0
  188.4580  178.4870  137.9830 C   0  0  0  0  0  0  0  0  0  0  0  0
  188.7250  178.2040  139.3170 O   0  0  0  0  0  1  0  0  0  0  0  0
  188.8390  179.5800  137.4890 O   0  0  0  0  0  0  0  0  0  0  0  0
  1 10  1  0  0  0  0
  2 11  1  0  0  0  0
  3  8  1  0  0  0  0
  3  6  1  0  0  0  0
  4  2  1  0  0  0  0
  5  3  2  0  0  0  0
  6 28  1  6  0  0  0
  6  1  1  0  0  0  0
  7  1  2  0  0  0  0
  7  9  1  0  0  0  0
  8  7  1  0  0  0  0
  9  4  2  0  0  0  0
 10  2  2  0  0  0  0
 11 12  1  0  0  0  0
 12 13  1  0  0  0  0
 14 13  1  0  0  0  0
 15 18  1  0  0  0  0
 15 17  1  1  0  0  0
 16 15  1  0  0  0  0
 16 22  1  1  0  0  0
 17 20  1  0  0  0  0
 18 14  1  6  0  0  0
 18 21  1  0  0  0  0
 19 25  1  6  0  0  0
 19 16  1  0  0  0  0
 19 15  1  0  0  0  0
 21 20  1  0  0  0  0
 22 24  1  0  0  0  0
 23 22  2  0  0  0  0
 27 26  1  0  0  0  0
 27 25  1  0  0  0  0
 30 31  1  0  0  0  0
 31 28  1  6  0  0  0
 31 29  1  0  0  0  0
 32 29  1  0  0  0  0
 33 30  1  0  0  0  0
 33 32  1  0  0  0  0
 34  8  1  0  0  0  0
 35 34  1  0  0  0  0
 36 35  1  0  0  0  0
 36 37  1  0  0  0  0
 37 38  1  0  0  0  0
 39 37  2  0  0  0  0
M  END
>  <MODEL>
4

>  <REMARK>
 VINA RESULT:      -7.5      2.212      9.141
  Name = 
  14 active torsions:
  status: ('A' for Active; 'I' for Inactive)
    1  A    between atoms: C_2  and  C_8
    2  A    between atoms: C_2  and  C_13
    3  A    between atoms: C_4  and  C_7
    4  A    between atoms: C_5  and  O_35
    5  A    between atoms: C_10  and  C_15
    6  A    between atoms: C_12  and  C_13
    7  A    between atoms: C_12  and  C_39
    8  A    between atoms: C_15  and  C_26
    9  A    between atoms: C_19  and  C_32
   10  A    between atoms: C_19  and  O_35
   11  A    between atoms: C_20  and  C_39
   12  A    between atoms: C_21  and  N_23
   13  A    between atoms: N_23  and  C_29
   14  A    between atoms: N_25  and  C_32
                            x       y       z     vdW  Elec       q    Type
                         _______ _______ _______ _____ _____    ______ ____

>  <TORSDO>
F 14

$$$$
=
 OpenBabel11062417453D

 39 43  0  0  1  0  0  0  0  0999 V2000
  182.9810  178.6930  140.6900 C   0  0  0  0  0  0  0  0  0  0  0  0
  183.7440  178.7630  142.9600 C   0  0  0  0  0  0  0  0  0  0  0  0
  181.5410  178.6800  138.8890 C   0  0  0  0  0  0  0  0  0  0  0  0
  182.4500  178.9380  143.3710 N   0  0  0  0  0  0  0  0  0  0  0  0
  181.0470  178.5880  137.7320 O   0  0  0  0  0  0  0  0  0  0  0  0
  183.0140  178.5850  139.1920 C   0  0  2  0  0  3  0  0  0  0  0  0
  181.6870  178.8550  141.1310 C   0  0  0  0  0  0  0  0  0  0  0  0
  180.7530  178.8710  140.0620 N   0  0  0  0  0  0  0  0  0  0  0  0
  181.4090  178.9820  142.4890 C   0  0  0  0  0  3  0  0  0  0  0  0
  184.0440  178.6410  141.5920 C   0  0  0  0  0  3  0  0  0  0  0  0
  184.8510  178.7420  143.9590 C   0  0  0  0  0  2  0  0  0  0  0  0
  184.3230  178.8450  145.3870 C   0  0  0  0  0  2  0  0  0  0  0  0
  185.3410  178.3760  146.4210 C   0  0  0  0  0  2  0  0  0  0  0  0
  186.3990  177.4710  145.8020 C   0  0  0  0  0  2  0  0  0  0  0  0
  188.8210  177.1330  145.3480 C   0  0  1  0  0  0  0  0  0  0  0  0
  189.7990  177.7890  144.3750 C   0  0  2  0  0  3  0  0  0  0  0  0
  189.4210  176.3330  146.3280 O   0  0  0  0  0  0  0  0  0  0  0  0
  187.7910  178.0880  145.8960 C   0  0  2  0  0  3  0  0  0  0  0  0
  188.8930  176.6540  143.9000 C   0  0  2  0  0  3  0  0  0  0  0  0
  189.1820  177.0020  147.5440 C   0  0  0  0  0  2  0  0  0  0  0  0
  188.2130  178.1610  147.3340 C   0  0  0  0  0  2  0  0  0  0  0  0
  191.2170  177.3360  144.5640 C   0  0  0  0  0  0  0  0  0  0  0  0
  191.9330  177.9030  145.4280 O   0  0  0  0  0  1  0  0  0  0  0  0
  191.7540  176.3030  143.8020 O   0  0  0  0  0  0  0  0  0  0  0  0
  187.7990  177.2480  143.0310 C   0  0  0  0  0  2  0  0  0  0  0  0
  187.5090  178.2620  140.8960 O   0  0  0  0  0  1  0  0  0  0  0  0
  188.3950  178.1520  141.9700 C   0  0  0  0  0  2  0  0  0  0  0  0
  183.6060  177.3210  138.7270 N   0  0  0  0  0  2  0  0  0  0  0  0
  184.4400  176.1230  136.7870 C   0  0  0  0  0  2  0  0  0  0  0  0
  185.7540  177.8390  137.7510 C   0  0  0  0  0  2  0  0  0  0  0  0
  184.3270  177.4710  137.4640 C   0  0  2  0  0  3  0  0  0  0  0  0
  185.6780  175.5620  137.1310 O   0  0  0  0  0  0  0  0  0  0  0  0
  186.5480  176.6580  137.2470 C   0  0  0  0  0  2  0  0  0  0  0  0
  179.3190  178.6390  140.1840 C   0  0  0  0  0  2  0  0  0  0  0  0
  178.9920  177.1930  139.8490 C   0  0  0  0  0  2  0  0  0  0  0  0
  179.8850  176.3270  140.5290 O   0  0  0  0  0  0  0  0  0  0  0  0
  180.2290  175.0820  140.0090 C   0  0  0  0  0  0  0  0  0  0  0  0
  181.1300  174.9770  138.9560 O   0  0  0  0  0  0  0  0  0  0  0  0
  179.7120  174.0420  140.4930 O   0  0  0  0  0  1  0  0  0  0  0  0
  1  7  2  0  0  0  0
  1 10  1  0  0  0  0
  2  4  1  0  0  0  0
  2 11  1  0  0  0  0
  3  6  1  0  0  0  0
  3  8  1  0  0  0  0
  5  3  2  0  0  0  0
  6 28  1  1  0  0  0
  6  1  1  0  0  0  0
  7  9  1  0  0  0  0
  8 34  1  0  0  0  0
  8  7  1  0  0  0  0
  9  4  2  0  0  0  0
 10  2  2  0  0  0  0
 11 12  1  0  0  0  0
 12 13  1  0  0  0  0
 14 13  1  0  0  0  0
 15 18  1  0  0  0  0
 15 17  1  1  0  0  0
 16 22  1  1  0  0  0
 16 15  1  0  0  0  0
 17 20  1  0  0  0  0
 18 14  1  1  0  0  0
 18 21  1  0  0  0  0
 19 25  1  6  0  0  0
 19 16  1  0  0  0  0
 19 15  1  0  0  0  0
 21 20  1  0  0  0  0
 22 23  1  0  0  0  0
 24 22  2  0  0  0  0
 26 27  1  0  0  0  0
 27 25  1  0  0  0  0
 29 32  1  0  0  0  0
 29 31  1  0  0  0  0
 31 30  1  0  0  0  0
 31 28  1  1  0  0  0
 32 33  1  0  0  0  0
 33 30  1  0  0  0  0
 35 34  1  0  0  0  0
 35 36  1  0  0  0  0
 37 39  1  0  0  0  0
 37 36  1  0  0  0  0
 38 37  2  0  0  0  0
M  END
>  <MODEL>
5

>  <REMARK>
 VINA RESULT:      -7.4      2.396      9.011
  Name = 
  14 active torsions:
  status: ('A' for Active; 'I' for Inactive)
    1  A    between atoms: C_2  and  C_8
    2  A    between atoms: C_2  and  C_13
    3  A    between atoms: C_4  and  C_7
    4  A    between atoms: C_5  and  O_35
    5  A    between atoms: C_10  and  C_15
    6  A    between atoms: C_12  and  C_13
    7  A    between atoms: C_12  and  C_39
    8  A    between atoms: C_15  and  C_26
    9  A    between atoms: C_19  and  C_32
   10  A    between atoms: C_19  and  O_35
   11  A    between atoms: C_20  and  C_39
   12  A    between atoms: C_21  and  N_23
   13  A    between atoms: N_23  and  C_29
   14  A    between atoms: N_25  and  C_32
                            x       y       z     vdW  Elec       q    Type
                         _______ _______ _______ _____ _____    ______ ____

>  <TORSDO>
F 14

$$$$
=
 OpenBabel11062417453D

 39 43  0  0  1  0  0  0  0  0999 V2000
  188.6430  177.2580  145.1020 C   0  0  0  0  0  0  0  0  0  0  0  0
  186.8480  178.2270  146.3560 C   0  0  0  0  0  0  0  0  0  0  0  0
  190.7260  176.3950  144.6140 C   0  0  0  0  0  0  0  0  0  0  0  0
  187.6220  178.1600  147.4830 N   0  0  0  0  0  0  0  0  0  0  0  0
  191.7430  175.9450  144.0190 O   0  0  0  0  0  0  0  0  0  0  0  0
  189.4170  176.7110  143.9360 C   0  0  2  0  0  3  0  0  0  0  0  0
  189.4070  177.2160  146.2470 C   0  0  0  0  0  0  0  0  0  0  0  0
  190.6990  176.6780  146.0110 N   0  0  0  0  0  0  0  0  0  0  0  0
  188.8960  177.6710  147.4590 C   0  0  0  0  0  3  0  0  0  0  0  0
  187.3450  177.7650  145.1250 C   0  0  0  0  0  3  0  0  0  0  0  0
  185.4530  178.7510  146.4350 C   0  0  0  0  0  2  0  0  0  0  0  0
  184.9450  179.2080  145.0710 C   0  0  0  0  0  2  0  0  0  0  0  0
  183.6750  178.4790  144.6470 C   0  0  0  0  0  2  0  0  0  0  0  0
  182.8620  179.2940  143.6490 C   0  0  0  0  0  2  0  0  0  0  0  0
  181.4270  178.9750  141.6430 C   0  0  1  0  0  0  0  0  0  0  0  0
  181.3340  177.8680  140.5940 C   0  0  2  0  0  3  0  0  0  0  0  0
  180.3720  179.8960  141.6130 O   0  0  0  0  0  0  0  0  0  0  0  0
  181.7430  178.4640  143.0250 C   0  0  2  0  0  3  0  0  0  0  0  0
  182.3910  178.9630  140.4590 C   0  0  2  0  0  3  0  0  0  0  0  0
  179.6750  179.6940  142.8200 C   0  0  0  0  0  2  0  0  0  0  0  0
  180.4510  178.7500  143.7320 C   0  0  0  0  0  2  0  0  0  0  0  0
  180.2000  178.0580  139.6290 C   0  0  0  0  0  0  0  0  0  0  0  0
  180.3900  178.7280  138.5820 O   0  0  0  0  0  0  0  0  0  0  0  0
  178.9450  177.5080  139.8700 O   0  0  0  0  0  1  0  0  0  0  0  0
  183.7430  178.3680  140.8100 C   0  0  0  0  0  2  0  0  0  0  0  0
  185.6090  179.5170  141.7420 O   0  0  0  0  0  1  0  0  0  0  0  0
  184.8460  179.3820  140.5800 C   0  0  0  0  0  2  0  0  0  0  0  0
  189.5660  177.6850  142.8450 N   0  0  0  0  0  2  0  0  0  0  0  0
  190.0640  176.8040  140.6380 C   0  0  0  0  0  2  0  0  0  0  0  0
  188.3210  178.3840  140.8970 C   0  0  0  0  0  2  0  0  0  0  0  0
  188.9680  177.2230  141.5940 C   0  0  2  0  0  3  0  0  0  0  0  0
  190.3520  177.8910  139.7990 O   0  0  0  0  0  0  0  0  0  0  0  0
  189.1230  178.5470  139.6280 C   0  0  0  0  0  2  0  0  0  0  0  0
  191.8590  176.8440  146.8790 C   0  0  0  0  0  2  0  0  0  0  0  0
  192.1360  175.5550  147.6340 C   0  0  0  0  0  2  0  0  0  0  0  0
  193.2190  175.7440  148.5290 O   0  0  0  0  0  0  0  0  0  0  0  0
  193.3430  176.9060  149.2860 C   0  0  0  0  0  0  0  0  0  0  0  0
  194.4420  177.1000  150.1140 O   0  0  0  0  0  1  0  0  0  0  0  0
  192.4450  177.7860  149.2240 O   0  0  0  0  0  0  0  0  0  0  0  0
  1 10  2  0  0  0  0
  1  7  1  0  0  0  0
  2 11  1  0  0  0  0
  2  4  2  0  0  0  0
  3  8  1  0  0  0  0
  5  3  2  0  0  0  0
  6 28  1  6  0  0  0
  6  3  1  0  0  0  0
  6  1  1  0  0  0  0
  7  9  2  0  0  0  0
  8  7  1  0  0  0  0
  8 34  1  0  0  0  0
  9  4  1  0  0  0  0
 10  2  1  0  0  0  0
 12 11  1  0  0  0  0
 13 12  1  0  0  0  0
 14 13  1  0  0  0  0
 15 17  1  6  0  0  0
 15 18  1  0  0  0  0
 16 22  1  6  0  0  0
 16 15  1  0  0  0  0
 17 20  1  0  0  0  0
 18 14  1  1  0  0  0
 18 21  1  0  0  0  0
 19 16  1  0  0  0  0
 19 25  1  1  0  0  0
 19 15  1  0  0  0  0
 20 21  1  0  0  0  0
 22 24  1  0  0  0  0
 23 22  2  0  0  0  0
 27 25  1  0  0  0  0
 27 26  1  0  0  0  0
 29 31  1  0  0  0  0
 30 31  1  0  0  0  0
 31 28  1  1  0  0  0
 32 29  1  0  0  0  0
 33 32  1  0  0  0  0
 33 30  1  0  0  0  0
 34 35  1  0  0  0  0
 35 36  1  0  0  0  0
 36 37  1  0  0  0  0
 37 38  1  0  0  0  0
 39 37  2  0  0  0  0
M  END
>  <MODEL>
6

>  <REMARK>
 VINA RESULT:      -7.3      1.801      2.878
  Name = 
  14 active torsions:
  status: ('A' for Active; 'I' for Inactive)
    1  A    between atoms: C_2  and  C_8
    2  A    between atoms: C_2  and  C_13
    3  A    between atoms: C_4  and  C_7
    4  A    between atoms: C_5  and  O_35
    5  A    between atoms: C_10  and  C_15
    6  A    between atoms: C_12  and  C_13
    7  A    between atoms: C_12  and  C_39
    8  A    between atoms: C_15  and  C_26
    9  A    between atoms: C_19  and  C_32
   10  A    between atoms: C_19  and  O_35
   11  A    between atoms: C_20  and  C_39
   12  A    between atoms: C_21  and  N_23
   13  A    between atoms: N_23  and  C_29
   14  A    between atoms: N_25  and  C_32
                            x       y       z     vdW  Elec       q    Type
                         _______ _______ _______ _____ _____    ______ ____

>  <TORSDO>
F 14

$$$$
=
 OpenBabel11062417453D

 39 43  0  0  1  0  0  0  0  0999 V2000
  186.3640  177.8410  143.9810 C   0  0  0  0  0  0  0  0  0  0  0  0
  184.2990  178.9930  144.3630 C   0  0  0  0  0  0  0  0  0  0  0  0
  188.4080  176.8600  144.4070 C   0  0  0  0  0  0  0  0  0  0  0  0
  184.5770  179.0100  145.7030 N   0  0  0  0  0  0  0  0  0  0  0  0
  189.5410  176.3170  144.2910 O   0  0  0  0  0  0  0  0  0  0  0  0
  187.4850  177.1540  143.2530 C   0  0  2  0  0  3  0  0  0  0  0  0
  186.6270  177.8850  145.3330 C   0  0  0  0  0  0  0  0  0  0  0  0
  187.8690  177.2810  145.6590 N   0  0  0  0  0  0  0  0  0  0  0  0
  185.7240  178.4750  146.2130 C   0  0  0  0  0  3  0  0  0  0  0  0
  185.1960  178.3940  143.4600 C   0  0  0  0  0  3  0  0  0  0  0  0
  183.0220  179.5720  143.8540 C   0  0  0  0  0  2  0  0  0  0  0  0
  181.8250  178.6940  144.2090 C   0  0  0  0  0  2  0  0  0  0  0  0
  180.8270  178.5770  143.0620 C   0  0  0  0  0  2  0  0  0  0  0  0
  181.4470  178.9820  141.7300 C   0  0  0  0  0  2  0  0  0  0  0  0
  180.8610  180.0540  139.5640 C   0  0  1  0  0  0  0  0  0  0  0  0
  180.6850  179.5090  138.1470 C   0  0  2  0  0  3  0  0  0  0  0  0
  180.4080  181.3660  139.7450 O   0  0  0  0  0  0  0  0  0  0  0  0
  180.3930  179.1000  140.6330 C   0  0  2  0  0  3  0  0  0  0  0  0
  182.0810  179.8420  138.6700 C   0  0  2  0  0  3  0  0  0  0  0  0
  179.3060  181.2560  140.6140 C   0  0  0  0  0  2  0  0  0  0  0  0
  179.1970  179.8370  141.1620 C   0  0  0  0  0  2  0  0  0  0  0  0
  180.1880  180.5380  137.1740 C   0  0  0  0  0  0  0  0  0  0  0  0
  179.0260  180.4310  136.7060 O   0  0  0  0  0  0  0  0  0  0  0  0
  180.9880  181.6070  136.7790 O   0  0  0  0  0  1  0  0  0  0  0  0
  182.8040  178.5390  138.9640 C   0  0  0  0  0  2  0  0  0  0  0  0
  184.5580  180.1440  139.0880 O   0  0  0  0  0  1  0  0  0  0  0  0
  184.2490  178.8050  139.3330 C   0  0  0  0  0  2  0  0  0  0  0  0
  188.1090  178.0100  142.2340 N   0  0  0  0  0  2  0  0  0  0  0  0
  189.7190  176.8930  140.8000 C   0  0  0  0  0  2  0  0  0  0  0  0
  188.0880  178.3120  139.8380 C   0  0  0  0  0  2  0  0  0  0  0  0
  188.2770  177.3260  140.9530 C   0  0  2  0  0  3  0  0  0  0  0  0
  190.3970  177.8790  140.0700 O   0  0  0  0  0  0  0  0  0  0  0  0
  189.4420  178.3810  139.1730 C   0  0  0  0  0  2  0  0  0  0  0  0
  188.6160  177.4890  146.8930 C   0  0  0  0  0  2  0  0  0  0  0  0
  190.0920  177.6770  146.5860 C   0  0  0  0  0  2  0  0  0  0  0  0
  190.8760  177.1270  147.6320 O   0  0  0  0  0  0  0  0  0  0  0  0
  191.9210  176.2460  147.3720 C   0  0  0  0  0  0  0  0  0  0  0  0
  192.8220  175.8970  148.3720 O   0  0  0  0  0  1  0  0  0  0  0  0
  192.0560  175.7650  146.2170 O   0  0  0  0  0  0  0  0  0  0  0  0
  1  7  1  0  0  0  0
  2  4  2  0  0  0  0
  3  8  1  0  0  0  0
  4  9  1  0  0  0  0
  5  3  2  0  0  0  0
  6 28  1  6  0  0  0
  6  1  1  0  0  0  0
  6  3  1  0  0  0  0
  7  8  1  0  0  0  0
  7  9  2  0  0  0  0
  8 34  1  0  0  0  0
 10  1  2  0  0  0  0
 10  2  1  0  0  0  0
 11 12  1  0  0  0  0
 11  2  1  0  0  0  0
 13 12  1  0  0  0  0
 14 13  1  0  0  0  0
 15 17  1  1  0  0  0
 15 18  1  0  0  0  0
 16 22  1  6  0  0  0
 16 19  1  0  0  0  0
 16 15  1  0  0  0  0
 17 20  1  0  0  0  0
 18 21  1  0  0  0  0
 18 14  1  1  0  0  0
 19 25  1  1  0  0  0
 19 15  1  0  0  0  0
 20 21  1  0  0  0  0
 23 22  2  0  0  0  0
 24 22  1  0  0  0  0
 25 27  1  0  0  0  0
 26 27  1  0  0  0  0
 29 31  1  0  0  0  0
 30 31  1  0  0  0  0
 31 28  1  1  0  0  0
 32 29  1  0  0  0  0
 33 30  1  0  0  0  0
 33 32  1  0  0  0  0
 35 34  1  0  0  0  0
 35 36  1  0  0  0  0
 37 36  1  0  0  0  0
 37 38  1  0  0  0  0
 39 37  2  0  0  0  0
M  END
>  <MODEL>
7

>  <REMARK>
 VINA RESULT:      -7.3      1.622      2.004
  Name = 
  14 active torsions:
  status: ('A' for Active; 'I' for Inactive)
    1  A    between atoms: C_2  and  C_8
    2  A    between atoms: C_2  and  C_13
    3  A    between atoms: C_4  and  C_7
    4  A    between atoms: C_5  and  O_35
    5  A    between atoms: C_10  and  C_15
    6  A    between atoms: C_12  and  C_13
    7  A    between atoms: C_12  and  C_39
    8  A    between atoms: C_15  and  C_26
    9  A    between atoms: C_19  and  C_32
   10  A    between atoms: C_19  and  O_35
   11  A    between atoms: C_20  and  C_39
   12  A    between atoms: C_21  and  N_23
   13  A    between atoms: N_23  and  C_29
   14  A    between atoms: N_25  and  C_32
                            x       y       z     vdW  Elec       q    Type
                         _______ _______ _______ _____ _____    ______ ____

>  <TORSDO>
F 14

$$$$
=
 OpenBabel11062417453D

 39 43  0  0  1  0  0  0  0  0999 V2000
  186.5750  177.8750  144.0790 C   0  0  0  0  0  0  0  0  0  0  0  0
  184.4550  178.8830  144.5540 C   0  0  0  0  0  0  0  0  0  0  0  0
  188.7180  177.0850  144.4000 C   0  0  0  0  0  0  0  0  0  0  0  0
  184.8250  179.0010  145.8670 N   0  0  0  0  0  0  0  0  0  0  0  0
  189.8800  176.6260  144.2270 O   0  0  0  0  0  0  0  0  0  0  0  0
  187.6930  177.2360  143.3050 C   0  0  2  0  0  3  0  0  0  0  0  0
  186.9290  178.0200  145.4020 C   0  0  0  0  0  0  0  0  0  0  0  0
  188.2370  177.5350  145.6650 N   0  0  0  0  0  0  0  0  0  0  0  0
  186.0460  178.5890  146.3160 C   0  0  0  0  0  3  0  0  0  0  0  0
  185.3310  178.3040  143.6200 C   0  0  0  0  0  3  0  0  0  0  0  0
  183.1010  179.3290  144.1140 C   0  0  0  0  0  2  0  0  0  0  0  0
  182.5510  178.4430  143.0000 C   0  0  0  0  0  2  0  0  0  0  0  0
  181.4740  179.1420  142.1770 C   0  0  0  0  0  2  0  0  0  0  0  0
  180.4840  178.1480  141.5810 C   0  0  0  0  0  2  0  0  0  0  0  0
  181.3080  176.8450  139.6300 C   0  0  1  0  0  0  0  0  0  0  0  0
  180.5980  176.0920  138.5060 C   0  0  2  0  0  3  0  0  0  0  0  0
  182.6820  177.0300  139.4310 O   0  0  0  0  0  0  0  0  0  0  0  0
  180.5870  178.0970  140.0600 C   0  0  2  0  0  3  0  0  0  0  0  0
  180.8110  175.4200  139.8610 C   0  0  2  0  0  3  0  0  0  0  0  0
  182.8450  178.4190  139.2670 C   0  0  0  0  0  2  0  0  0  0  0  0
  181.5440  179.1500  139.5850 C   0  0  0  0  0  2  0  0  0  0  0  0
  181.5370  175.5620  137.4610 C   0  0  0  0  0  0  0  0  0  0  0  0
  182.0080  174.4040  137.5900 O   0  0  0  0  0  1  0  0  0  0  0  0
  181.8950  176.3270  136.3560 O   0  0  0  0  0  0  0  0  0  0  0  0
  179.4780  175.3750  140.5870 C   0  0  0  0  0  2  0  0  0  0  0  0
  179.6770  173.3760  141.8640 O   0  0  0  0  0  1  0  0  0  0  0  0
  179.0200  173.9420  140.7700 C   0  0  0  0  0  2  0  0  0  0  0  0
  188.1710  178.0760  142.1980 N   0  0  0  0  0  2  0  0  0  0  0  0
  189.7570  176.9170  140.7720 C   0  0  0  0  0  2  0  0  0  0  0  0
  188.0680  178.2530  139.7910 C   0  0  0  0  0  2  0  0  0  0  0  0
  188.3130  177.3290  140.9480 C   0  0  2  0  0  3  0  0  0  0  0  0
  190.3920  177.8770  139.9700 O   0  0  0  0  0  0  0  0  0  0  0  0
  189.3990  178.3130  139.0800 C   0  0  0  0  0  2  0  0  0  0  0  0
  189.0500  177.8740  146.8260 C   0  0  0  0  0  2  0  0  0  0  0  0
  189.7400  176.6320  147.3630 C   0  0  0  0  0  2  0  0  0  0  0  0
  191.0800  176.9380  147.7140 O   0  0  0  0  0  0  0  0  0  0  0  0
  192.1160  176.0370  147.4860 C   0  0  0  0  0  0  0  0  0  0  0  0
  193.1770  175.9340  148.3770 O   0  0  0  0  0  1  0  0  0  0  0  0
  192.0930  175.3110  146.4580 O   0  0  0  0  0  0  0  0  0  0  0  0
  1  7  1  0  0  0  0
  2  4  2  0  0  0  0
  3  8  1  0  0  0  0
  4  9  1  0  0  0  0
  5  3  2  0  0  0  0
  6 28  1  6  0  0  0
  6  1  1  0  0  0  0
  6  3  1  0  0  0  0
  7  8  1  0  0  0  0
  7  9  2  0  0  0  0
  8 34  1  0  0  0  0
 10  1  2  0  0  0  0
 10  2  1  0  0  0  0
 11  2  1  0  0  0  0
 12 11  1  0  0  0  0
 13 12  1  0  0  0  0
 14 13  1  0  0  0  0
 15 17  1  6  0  0  0
 15 19  1  0  0  0  0
 15 18  1  0  0  0  0
 16 22  1  6  0  0  0
 16 15  1  0  0  0  0
 16 19  1  0  0  0  0
 18 14  1  1  0  0  0
 19 25  1  1  0  0  0
 20 17  1  0  0  0  0
 20 21  1  0  0  0  0
 21 18  1  0  0  0  0
 22 23  1  0  0  0  0
 24 22  2  0  0  0  0
 25 27  1  0  0  0  0
 27 26  1  0  0  0  0
 29 31  1  0  0  0  0
 30 31  1  0  0  0  0
 31 28  1  1  0  0  0
 32 29  1  0  0  0  0
 33 30  1  0  0  0  0
 33 32  1  0  0  0  0
 34 35  1  0  0  0  0
 35 36  1  0  0  0  0
 37 36  1  0  0  0  0
 37 38  1  0  0  0  0
 39 37  2  0  0  0  0
M  END
>  <MODEL>
8

>  <REMARK>
 VINA RESULT:      -7.2      1.346      2.513
  Name = 
  14 active torsions:
  status: ('A' for Active; 'I' for Inactive)
    1  A    between atoms: C_2  and  C_8
    2  A    between atoms: C_2  and  C_13
    3  A    between atoms: C_4  and  C_7
    4  A    between atoms: C_5  and  O_35
    5  A    between atoms: C_10  and  C_15
    6  A    between atoms: C_12  and  C_13
    7  A    between atoms: C_12  and  C_39
    8  A    between atoms: C_15  and  C_26
    9  A    between atoms: C_19  and  C_32
   10  A    between atoms: C_19  and  O_35
   11  A    between atoms: C_20  and  C_39
   12  A    between atoms: C_21  and  N_23
   13  A    between atoms: N_23  and  C_29
   14  A    between atoms: N_25  and  C_32
                            x       y       z     vdW  Elec       q    Type
                         _______ _______ _______ _____ _____    ______ ____

>  <TORSDO>
F 14

$$$$
=
 OpenBabel11062417453D

 39 43  0  0  1  0  0  0  0  0999 V2000
  187.8080  177.6850  142.6530 C   0  0  0  0  0  0  0  0  0  0  0  0
  186.0000  178.1860  144.1420 C   0  0  0  0  0  0  0  0  0  0  0  0
  189.9510  177.2610  141.9140 C   0  0  0  0  0  0  0  0  0  0  0  0
  186.8770  178.1410  145.1930 N   0  0  0  0  0  0  0  0  0  0  0  0
  190.9700  177.0620  141.1970 O   0  0  0  0  0  0  0  0  0  0  0  0
  188.5510  177.4080  141.3760 C   0  0  2  0  0  3  0  0  0  0  0  0
  188.6710  177.6620  143.7250 C   0  0  0  0  0  0  0  0  0  0  0  0
  190.0080  177.3880  143.3330 N   0  0  0  0  0  0  0  0  0  0  0  0
  188.2070  177.8900  145.0180 C   0  0  0  0  0  3  0  0  0  0  0  0
  186.4510  177.9490  142.8320 C   0  0  0  0  0  3  0  0  0  0  0  0
  184.5510  178.4440  144.3860 C   0  0  0  0  0  2  0  0  0  0  0  0
  183.8810  179.0810  143.1720 C   0  0  0  0  0  2  0  0  0  0  0  0
  182.4150  178.6840  143.0400 C   0  0  0  0  0  2  0  0  0  0  0  0
  181.8470  179.0670  141.6780 C   0  0  0  0  0  2  0  0  0  0  0  0
  181.3560  177.9910  139.4910 C   0  0  1  0  0  0  0  0  0  0  0  0
  181.8470  176.7040  138.8300 C   0  0  2  0  0  3  0  0  0  0  0  0
  180.2620  178.5920  138.8560 O   0  0  0  0  0  0  0  0  0  0  0  0
  181.1970  177.8730  140.9850 C   0  0  2  0  0  3  0  0  0  0  0  0
  182.6880  177.9760  138.7440 C   0  0  2  0  0  3  0  0  0  0  0  0
  179.1980  178.4760  139.7710 C   0  0  0  0  0  2  0  0  0  0  0  0
  179.7050  177.9660  141.1170 C   0  0  0  0  0  2  0  0  0  0  0  0
  181.1520  176.3990  137.5350 C   0  0  0  0  0  0  0  0  0  0  0  0
  181.6250  176.8550  136.4630 O   0  0  0  0  0  0  0  0  0  0  0  0
  179.9980  175.6230  137.4970 O   0  0  0  0  0  1  0  0  0  0  0  0
  183.8790  177.8250  139.6740 C   0  0  0  0  0  2  0  0  0  0  0  0
  184.1840  180.1240  139.1360 O   0  0  0  0  0  1  0  0  0  0  0  0
  184.8700  178.9500  139.4550 C   0  0  0  0  0  2  0  0  0  0  0  0
  188.4320  178.5010  140.4010 N   0  0  0  0  0  2  0  0  0  0  0  0
  188.8170  179.3110  138.1450 C   0  0  0  0  0  2  0  0  0  0  0  0
  188.3250  177.0230  138.4930 C   0  0  0  0  0  2  0  0  0  0  0  0
  189.0540  178.1770  139.1170 C   0  0  2  0  0  3  0  0  0  0  0  0
  187.6820  179.0040  137.3810 O   0  0  0  0  0  0  0  0  0  0  0  0
  187.7100  177.6070  137.2440 C   0  0  0  0  0  2  0  0  0  0  0  0
  191.1990  177.6660  144.1260 C   0  0  0  0  0  2  0  0  0  0  0  0
  191.6250  176.4200  144.8850 C   0  0  0  0  0  2  0  0  0  0  0  0
  192.0810  176.7770  146.1800 O   0  0  0  0  0  0  0  0  0  0  0  0
  191.4560  176.2990  147.3280 C   0  0  0  0  0  0  0  0  0  0  0  0
  190.1130  176.5660  147.5690 O   0  0  0  0  0  0  0  0  0  0  0  0
  192.1160  175.6220  148.1590 O   0  0  0  0  0  1  0  0  0  0  0  0
  1 10  2  0  0  0  0
  1  7  1  0  0  0  0
  2 11  1  0  0  0  0
  2  4  2  0  0  0  0
  3  8  1  0  0  0  0
  5  3  2  0  0  0  0
  6 28  1  6  0  0  0
  6  3  1  0  0  0  0
  6  1  1  0  0  0  0
  7  9  2  0  0  0  0
  8  7  1  0  0  0  0
  8 34  1  0  0  0  0
  9  4  1  0  0  0  0
 10  2  1  0  0  0  0
 12 11  1  0  0  0  0
 13 12  1  0  0  0  0
 14 13  1  0  0  0  0
 15 17  1  6  0  0  0
 15 18  1  0  0  0  0
 16 22  1  6  0  0  0
 16 15  1  0  0  0  0
 17 20  1  0  0  0  0
 18 21  1  0  0  0  0
 18 14  1  1  0  0  0
 19 16  1  0  0  0  0
 19 15  1  0  0  0  0
 19 25  1  1  0  0  0
 20 21  1  0  0  0  0
 23 22  2  0  0  0  0
 24 22  1  0  0  0  0
 26 27  1  0  0  0  0
 27 25  1  0  0  0  0
 29 31  1  0  0  0  0
 30 31  1  0  0  0  0
 31 28  1  1  0  0  0
 32 29  1  0  0  0  0
 33 32  1  0  0  0  0
 33 30  1  0  0  0  0
 34 35  1  0  0  0  0
 35 36  1  0  0  0  0
 36 37  1  0  0  0  0
 37 38  2  0  0  0  0
 37 39  1  0  0  0  0
M  END
>  <MODEL>
9

>  <REMARK>
 VINA RESULT:      -7.2      1.568      2.189
  Name = 
  14 active torsions:
  status: ('A' for Active; 'I' for Inactive)
    1  A    between atoms: C_2  and  C_8
    2  A    between atoms: C_2  and  C_13
    3  A    between atoms: C_4  and  C_7
    4  A    between atoms: C_5  and  O_35
    5  A    between atoms: C_10  and  C_15
    6  A    between atoms: C_12  and  C_13
    7  A    between atoms: C_12  and  C_39
    8  A    between atoms: C_15  and  C_26
    9  A    between atoms: C_19  and  C_32
   10  A    between atoms: C_19  and  O_35
   11  A    between atoms: C_20  and  C_39
   12  A    between atoms: C_21  and  N_23
   13  A    between atoms: N_23  and  C_29
   14  A    between atoms: N_25  and  C_32
                            x       y       z     vdW  Elec       q    Type
                         _______ _______ _______ _____ _____    ______ ____

>  <TORSDO>
F 14

$$$$
