=
 OpenBabel11062416323D

 29 32  0  0  1  0  0  0  0  0999 V2000
  188.2410  177.5270  140.5290 N   0  0  0  0  0  0  0  0  0  0  0  0
  193.1530  177.1560  139.9640 C   0  0  0  0  0  3  0  0  0  0  0  0
  189.2980  175.9960  137.2720 C   0  0  0  0  0  0  0  0  0  0  0  0
  192.3480  177.5820  140.9740 N   0  0  0  0  0  0  0  0  0  0  0  0
  189.0220  177.1140  139.4930 C   0  0  0  0  0  0  0  0  0  0  0  0
  188.6870  175.0920  136.0550 S   0  0  0  0  0  0  0  0  0  0  0  0
  190.9940  177.5650  140.8460 C   0  0  0  0  0  0  0  0  0  0  0  0
  188.7720  177.9480  141.7090 C   0  0  0  0  0  3  0  0  0  0  0  0
  190.1580  177.9820  141.8930 C   0  0  0  0  0  0  0  0  0  0  0  0
  190.4200  177.1130  139.6450 C   0  0  0  0  0  0  0  0  0  0  0  0
  191.2660  176.6560  138.6300 C   0  0  0  0  0  0  0  0  0  0  0  0
  188.3740  176.7780  138.1720 C   0  0  1  0  0  3  0  0  0  0  0  0
  192.6120  176.6900  138.8070 N   0  0  0  0  0  0  0  0  0  0  0  0
  190.7140  176.0790  137.4450 N   0  0  0  0  0  2  0  0  0  0  0  0
  187.7810  178.1020  135.8490 O   0  0  0  0  0  0  0  0  0  0  0  0
  188.9730  179.5450  137.6750 O   0  0  0  0  0  1  0  0  0  0  0  0
  186.3330  178.7860  137.9100 O   0  0  0  0  0  1  0  0  0  0  0  0
  187.8560  178.3200  137.3420 P   0  0  0  0  0  0  0  0  0  0  0  0
  190.7150  178.4890  143.1860 C   0  0  0  0  0  2  0  0  0  0  0  0
  188.7770  178.3350  147.6330 C   0  0  0  0  0  1  0  0  0  0  0  0
  187.8740  176.7690  146.1390 F   0  0  0  0  0  0  0  0  0  0  0  0
  189.0680  177.3480  146.5210 C   0  0  1  0  0  0  0  0  0  0  0  0
  191.7610  175.8190  145.3060 C   0  0  0  0  0  2  0  0  0  0  0  0
  190.3090  177.6020  144.3190 C   0  0  0  0  0  0  0  0  0  0  0  0
  191.9780  177.5720  146.9450 F   0  0  0  0  0  0  0  0  0  0  0  0
  191.4610  176.3060  146.7290 C   0  0  1  0  0  3  0  0  0  0  0  0
  189.6170  178.1240  145.3440 C   0  0  0  0  0  3  0  0  0  0  0  0
  190.6750  176.1500  144.2780 C   0  0  0  0  0  2  0  0  0  0  0  0
  189.9740  176.2350  147.0890 C   0  0  0  0  0  2  0  0  0  0  0  0
  1  8  1  0  0  0  0
  2  4  2  0  0  0  0
  3 14  1  0  0  0  0
  3 12  1  0  0  0  0
  5 10  1  0  0  0  0
  5  1  2  0  0  0  0
  6  3  2  0  0  0  0
  7  4  1  0  0  0  0
  7  9  1  0  0  0  0
  8  9  2  0  0  0  0
  9 19  1  0  0  0  0
 10  7  2  0  0  0  0
 11 13  2  0  0  0  0
 11 10  1  0  0  0  0
 12 18  1  6  0  0  0
 12  5  1  0  0  0  0
 13  2  1  0  0  0  0
 14 11  1  0  0  0  0
 15 18  2  0  0  0  0
 18 16  1  0  0  0  0
 18 17  1  0  0  0  0
 19 24  1  0  0  0  0
 21 22  1  0  0  0  0
 22 29  1  0  0  0  0
 22 20  1  1  0  0  0
 23 26  1  0  0  0  0
 24 27  2  0  0  0  0
 26 25  1  6  0  0  0
 26 29  1  0  0  0  0
 27 22  1  0  0  0  0
 28 24  1  0  0  0  0
 28 23  1  0  0  0  0
M  END
>  <MODEL>
1

>  <REMARK>
 VINA RESULT:      -8.2      0.000      0.000
  Name = 
  3 active torsions:
  status: ('A' for Active; 'I' for Inactive)
    1  A    between atoms: P_7  and  C_27
    2  A    between atoms: C_12  and  C_20
    3  A    between atoms: C_20  and  C_22
                            x       y       z     vdW  Elec       q    Type
                         _______ _______ _______ _____ _____    ______ ____

>  <TORSDO>
F 3

$$$$
=
 OpenBabel11062416323D

 29 32  0  0  1  0  0  0  0  0999 V2000
  187.3410  177.0540  143.7620 N   0  0  0  0  0  0  0  0  0  0  0  0
  187.8690  178.5370  148.4640 C   0  0  0  0  0  3  0  0  0  0  0  0
  190.7340  176.3790  145.2100 C   0  0  0  0  0  0  0  0  0  0  0  0
  186.8300  178.5300  147.5870 N   0  0  0  0  0  0  0  0  0  0  0  0
  188.4060  177.0670  144.6110 C   0  0  0  0  0  0  0  0  0  0  0  0
  192.0560  175.4580  144.9320 S   0  0  0  0  0  0  0  0  0  0  0  0
  186.9800  178.0420  146.3250 C   0  0  0  0  0  0  0  0  0  0  0  0
  186.1130  177.5040  144.1380 C   0  0  0  0  0  3  0  0  0  0  0  0
  185.9060  178.0110  145.4240 C   0  0  0  0  0  0  0  0  0  0  0  0
  188.2330  177.5520  145.9200 C   0  0  0  0  0  0  0  0  0  0  0  0
  189.2800  177.5450  146.8460 C   0  0  0  0  0  0  0  0  0  0  0  0
  189.7660  176.6710  144.0910 C   0  0  1  0  0  3  0  0  0  0  0  0
  189.0800  178.0400  148.0950 N   0  0  0  0  0  0  0  0  0  0  0  0
  190.5320  176.9450  146.5070 N   0  0  0  0  0  2  0  0  0  0  0  0
  191.5850  177.4920  142.2170 O   0  0  0  0  0  1  0  0  0  0  0  0
  190.9430  179.2930  144.0010 O   0  0  0  0  0  1  0  0  0  0  0  0
  189.2100  178.5510  141.9880 O   0  0  0  0  0  0  0  0  0  0  0  0
  190.4230  178.0070  143.0330 P   0  0  0  0  0  0  0  0  0  0  0  0
  184.5540  178.5360  145.7960 C   0  0  0  0  0  2  0  0  0  0  0  0
  180.6010  178.0630  143.0220 C   0  0  0  0  0  1  0  0  0  0  0  0
  181.1110  180.2790  143.5930 F   0  0  0  0  0  0  0  0  0  0  0  0
  181.6990  179.0880  143.2130 C   0  0  1  0  0  0  0  0  0  0  0  0
  184.8980  179.3780  142.3480 C   0  0  0  0  0  2  0  0  0  0  0  0
  183.8340  179.0420  144.5880 C   0  0  0  0  0  0  0  0  0  0  0  0
  183.7160  177.3050  142.0090 F   0  0  0  0  0  0  0  0  0  0  0  0
  183.7490  178.6410  141.6480 C   0  0  1  0  0  3  0  0  0  0  0  0
  182.5860  178.6150  144.3440 C   0  0  0  0  0  3  0  0  0  0  0  0
  184.5190  180.0210  143.6850 C   0  0  0  0  0  2  0  0  0  0  0  0
  182.3880  179.3150  141.8510 C   0  0  0  0  0  2  0  0  0  0  0  0
  1  8  2  0  0  0  0
  1  5  1  0  0  0  0
  3 14  1  0  0  0  0
  4  2  2  0  0  0  0
  5 10  2  0  0  0  0
  6  3  2  0  0  0  0
  7  4  1  0  0  0  0
  8  9  1  0  0  0  0
  9 19  1  0  0  0  0
  9  7  2  0  0  0  0
 10  7  1  0  0  0  0
 10 11  1  0  0  0  0
 11 13  2  0  0  0  0
 12 18  1  1  0  0  0
 12  5  1  0  0  0  0
 12  3  1  0  0  0  0
 13  2  1  0  0  0  0
 14 11  1  0  0  0  0
 15 18  1  0  0  0  0
 17 18  2  0  0  0  0
 18 16  1  0  0  0  0
 22 20  1  6  0  0  0
 22 21  1  0  0  0  0
 22 27  1  0  0  0  0
 23 28  1  0  0  0  0
 24 19  1  0  0  0  0
 26 29  1  0  0  0  0
 26 25  1  1  0  0  0
 26 23  1  0  0  0  0
 27 24  2  0  0  0  0
 28 24  1  0  0  0  0
 29 22  1  0  0  0  0
M  END
>  <MODEL>
2

>  <REMARK>
 VINA RESULT:      -7.4      5.424      7.705
  Name = 
  3 active torsions:
  status: ('A' for Active; 'I' for Inactive)
    1  A    between atoms: P_7  and  C_27
    2  A    between atoms: C_12  and  C_20
    3  A    between atoms: C_20  and  C_22
                            x       y       z     vdW  Elec       q    Type
                         _______ _______ _______ _____ _____    ______ ____

>  <TORSDO>
F 3

$$$$
=
 OpenBabel11062416323D

 29 32  0  0  1  0  0  0  0  0999 V2000
  193.3710  176.6920  138.6770 N   0  0  0  0  0  0  0  0  0  0  0  0
  190.1820  173.4140  136.7620 C   0  0  0  0  0  3  0  0  0  0  0  0
  194.9100  174.3110  136.2220 C   0  0  0  0  0  0  0  0  0  0  0  0
  190.0580  174.4620  137.6180 N   0  0  0  0  0  0  0  0  0  0  0  0
  193.5300  175.6350  137.8340 C   0  0  0  0  0  0  0  0  0  0  0  0
  196.2450  174.1580  135.2910 S   0  0  0  0  0  0  0  0  0  0  0  0
  191.1380  175.2100  137.9720 C   0  0  0  0  0  0  0  0  0  0  0  0
  192.1540  177.0410  139.1740 C   0  0  0  0  0  3  0  0  0  0  0  0
  191.0120  176.3070  138.8380 C   0  0  0  0  0  0  0  0  0  0  0  0
  192.4030  174.8830  137.4550 C   0  0  0  0  0  0  0  0  0  0  0  0
  192.5030  173.8170  136.5570 C   0  0  0  0  0  0  0  0  0  0  0  0
  194.9230  175.2260  137.4200 C   0  0  1  0  0  3  0  0  0  0  0  0
  191.3950  173.1020  136.2310 N   0  0  0  0  0  0  0  0  0  0  0  0
  193.7500  173.5320  135.9200 N   0  0  0  0  0  2  0  0  0  0  0  0
  195.0990  173.0730  139.1020 O   0  0  0  0  0  1  0  0  0  0  0  0
  195.6470  175.3840  140.1970 O   0  0  0  0  0  1  0  0  0  0  0  0
  197.3840  174.1500  138.4460 O   0  0  0  0  0  0  0  0  0  0  0  0
  195.7550  174.4050  138.8220 P   0  0  0  0  0  0  0  0  0  0  0  0
  189.6920  176.6900  139.4320 C   0  0  0  0  0  2  0  0  0  0  0  0
  191.6240  175.5820  143.7430 C   0  0  0  0  0  1  0  0  0  0  0  0
  192.0060  177.7930  143.0620 F   0  0  0  0  0  0  0  0  0  0  0  0
  191.0350  176.8100  143.0810 C   0  0  1  0  0  0  0  0  0  0  0  0
  187.9880  177.9050  142.3190 C   0  0  0  0  0  2  0  0  0  0  0  0
  189.8600  177.1270  140.8510 C   0  0  0  0  0  0  0  0  0  0  0  0
  188.3210  175.6580  143.1220 F   0  0  0  0  0  0  0  0  0  0  0  0
  188.4520  176.9930  143.4620 C   0  0  1  0  0  3  0  0  0  0  0  0
  190.6980  176.4500  141.6500 C   0  0  0  0  0  3  0  0  0  0  0  0
  189.0950  178.3170  141.3450 C   0  0  0  0  0  2  0  0  0  0  0  0
  189.8670  177.3150  143.9530 C   0  0  0  0  0  2  0  0  0  0  0  0
  1  8  1  0  0  0  0
  2  4  2  0  0  0  0
  3 12  1  0  0  0  0
  4  7  1  0  0  0  0
  5  1  2  0  0  0  0
  6  3  2  0  0  0  0
  7  9  1  0  0  0  0
  9  8  2  0  0  0  0
  9 19  1  0  0  0  0
 10  5  1  0  0  0  0
 10  7  2  0  0  0  0
 11 10  1  0  0  0  0
 12  5  1  0  0  0  0
 12 18  1  1  0  0  0
 13 11  2  0  0  0  0
 13  2  1  0  0  0  0
 14  3  1  0  0  0  0
 14 11  1  0  0  0  0
 17 18  2  0  0  0  0
 18 15  1  0  0  0  0
 18 16  1  0  0  0  0
 19 24  1  0  0  0  0
 21 22  1  0  0  0  0
 22 20  1  1  0  0  0
 22 29  1  0  0  0  0
 23 26  1  0  0  0  0
 24 28  1  0  0  0  0
 24 27  2  0  0  0  0
 26 25  1  6  0  0  0
 26 29  1  0  0  0  0
 27 22  1  0  0  0  0
 28 23  1  0  0  0  0
M  END
>  <MODEL>
3

>  <REMARK>
 VINA RESULT:      -7.4      4.301      5.805
  Name = 
  3 active torsions:
  status: ('A' for Active; 'I' for Inactive)
    1  A    between atoms: P_7  and  C_27
    2  A    between atoms: C_12  and  C_20
    3  A    between atoms: C_20  and  C_22
                            x       y       z     vdW  Elec       q    Type
                         _______ _______ _______ _____ _____    ______ ____

>  <TORSDO>
F 3

$$$$
=
 OpenBabel11062416323D

 29 32  0  0  1  0  0  0  0  0999 V2000
  187.7340  176.4030  137.1090 N   0  0  0  0  0  0  0  0  0  0  0  0
  184.5290  179.1450  139.7160 C   0  0  0  0  0  3  0  0  0  0  0  0
  184.1880  176.1680  135.9110 C   0  0  0  0  0  0  0  0  0  0  0  0
  185.8770  178.9730  139.7580 N   0  0  0  0  0  0  0  0  0  0  0  0
  186.3800  176.5380  137.0560 C   0  0  0  0  0  0  0  0  0  0  0  0
  183.3370  175.7050  134.5940 S   0  0  0  0  0  0  0  0  0  0  0  0
  186.5050  178.1350  138.8890 C   0  0  0  0  0  0  0  0  0  0  0  0
  188.4940  177.0940  138.0010 C   0  0  0  0  0  3  0  0  0  0  0  0
  187.8980  177.9710  138.9130 C   0  0  0  0  0  0  0  0  0  0  0  0
  185.7440  177.4250  137.9430 C   0  0  0  0  0  0  0  0  0  0  0  0
  184.3630  177.6370  137.9020 C   0  0  0  0  0  0  0  0  0  0  0  0
  185.5870  175.6500  136.1290 C   0  0  1  0  0  3  0  0  0  0  0  0
  183.7830  178.4870  138.7880 N   0  0  0  0  0  0  0  0  0  0  0  0
  183.5760  177.0260  136.8770 N   0  0  0  0  0  2  0  0  0  0  0  0
  186.8550  173.6100  137.4430 O   0  0  0  0  0  1  0  0  0  0  0  0
  185.1820  172.8580  135.5780 O   0  0  0  0  0  0  0  0  0  0  0  0
  184.3170  173.8680  137.9940 O   0  0  0  0  0  1  0  0  0  0  0  0
  185.5260  173.9590  136.8150 P   0  0  0  0  0  0  0  0  0  0  0  0
  188.7550  178.6870  139.9100 C   0  0  0  0  0  2  0  0  0  0  0  0
  187.6800  177.5990  144.5150 C   0  0  0  0  0  1  0  0  0  0  0  0
  187.8240  175.7360  143.0990 F   0  0  0  0  0  0  0  0  0  0  0  0
  188.4310  176.9470  143.3730 C   0  0  1  0  0  0  0  0  0  0  0  0
  191.3880  177.3400  141.9010 C   0  0  0  0  0  2  0  0  0  0  0  0
  189.0730  177.7980  141.0670 C   0  0  0  0  0  0  0  0  0  0  0  0
  190.6020  178.9360  143.5270 F   0  0  0  0  0  0  0  0  0  0  0  0
  190.9630  177.6110  143.3500 C   0  0  1  0  0  3  0  0  0  0  0  0
  188.2890  177.8340  142.1560 C   0  0  0  0  0  3  0  0  0  0  0  0
  190.2530  176.8800  140.9810 C   0  0  0  0  0  2  0  0  0  0  0  0
  189.8710  176.6570  143.8460 C   0  0  0  0  0  2  0  0  0  0  0  0
  1  8  1  0  0  0  0
  2  4  2  0  0  0  0
  3 12  1  0  0  0  0
  3 14  1  0  0  0  0
  5  1  2  0  0  0  0
  5 10  1  0  0  0  0
  6  3  2  0  0  0  0
  7  9  1  0  0  0  0
  7  4  1  0  0  0  0
  8  9  2  0  0  0  0
  9 19  1  0  0  0  0
 10  7  2  0  0  0  0
 11 10  1  0  0  0  0
 11 13  2  0  0  0  0
 12 18  1  1  0  0  0
 12  5  1  0  0  0  0
 13  2  1  0  0  0  0
 14 11  1  0  0  0  0
 16 18  2  0  0  0  0
 18 15  1  0  0  0  0
 18 17  1  0  0  0  0
 19 24  1  0  0  0  0
 21 22  1  0  0  0  0
 22 29  1  0  0  0  0
 22 20  1  1  0  0  0
 23 26  1  0  0  0  0
 24 27  2  0  0  0  0
 26 25  1  6  0  0  0
 26 29  1  0  0  0  0
 27 22  1  0  0  0  0
 28 24  1  0  0  0  0
 28 23  1  0  0  0  0
M  END
>  <MODEL>
4

>  <REMARK>
 VINA RESULT:      -7.3      3.512      5.116
  Name = 
  3 active torsions:
  status: ('A' for Active; 'I' for Inactive)
    1  A    between atoms: P_7  and  C_27
    2  A    between atoms: C_12  and  C_20
    3  A    between atoms: C_20  and  C_22
                            x       y       z     vdW  Elec       q    Type
                         _______ _______ _______ _____ _____    ______ ____

>  <TORSDO>
F 3

$$$$
=
 OpenBabel11062416323D

 29 32  0  0  1  0  0  0  0  0999 V2000
  185.5810  177.7690  142.2580 N   0  0  0  0  0  0  0  0  0  0  0  0
  186.1550  178.6670  147.1000 C   0  0  0  0  0  3  0  0  0  0  0  0
  188.8130  176.5030  143.6780 C   0  0  0  0  0  0  0  0  0  0  0  0
  185.1510  178.8890  146.2110 N   0  0  0  0  0  0  0  0  0  0  0  0
  186.6120  177.5520  143.1200 C   0  0  0  0  0  0  0  0  0  0  0  0
  190.0110  175.4500  143.3230 S   0  0  0  0  0  0  0  0  0  0  0  0
  185.2740  178.5210  144.9070 C   0  0  0  0  0  0  0  0  0  0  0  0
  184.4100  178.3350  142.6600 C   0  0  0  0  0  3  0  0  0  0  0  0
  184.2320  178.7280  143.9910 C   0  0  0  0  0  0  0  0  0  0  0  0
  186.4650  177.9150  144.4710 C   0  0  0  0  0  0  0  0  0  0  0  0
  187.4740  177.6730  145.4080 C   0  0  0  0  0  0  0  0  0  0  0  0
  187.9250  177.0370  142.5820 C   0  0  1  0  0  3  0  0  0  0  0  0
  187.3020  178.0560  146.6990 N   0  0  0  0  0  0  0  0  0  0  0  0
  188.6470  176.9510  145.0250 N   0  0  0  0  0  2  0  0  0  0  0  0
  187.7750  179.3980  141.2030 O   0  0  0  0  0  1  0  0  0  0  0  0
  189.6070  177.7340  140.3580 O   0  0  0  0  0  0  0  0  0  0  0  0
  189.8860  179.1350  142.7160 O   0  0  0  0  0  1  0  0  0  0  0  0
  188.7800  178.3780  141.6850 P   0  0  0  0  0  0  0  0  0  0  0  0
  182.9500  179.3850  144.3960 C   0  0  0  0  0  2  0  0  0  0  0  0
  180.9460  179.5440  139.9790 C   0  0  0  0  0  1  0  0  0  0  0  0
  181.1290  177.3830  140.8710 F   0  0  0  0  0  0  0  0  0  0  0  0
  180.8180  178.6840  141.2190 C   0  0  1  0  0  0  0  0  0  0  0  0
  179.4110  178.9810  144.2180 C   0  0  0  0  0  2  0  0  0  0  0  0
  181.8200  178.9080  143.5420 C   0  0  0  0  0  0  0  0  0  0  0  0
  179.5470  180.8730  142.7320 F   0  0  0  0  0  0  0  0  0  0  0  0
  179.0120  179.6040  142.8750 C   0  0  1  0  0  3  0  0  0  0  0  0
  181.8410  179.1630  142.2250 C   0  0  0  0  0  3  0  0  0  0  0  0
  180.6950  178.1480  144.1760 C   0  0  0  0  0  2  0  0  0  0  0  0
  179.3440  178.7120  141.6750 C   0  0  0  0  0  2  0  0  0  0  0  0
  1  8  2  0  0  0  0
  1  5  1  0  0  0  0
  3 14  1  0  0  0  0
  4  2  2  0  0  0  0
  5 10  2  0  0  0  0
  6  3  2  0  0  0  0
  7  4  1  0  0  0  0
  8  9  1  0  0  0  0
  9 19  1  0  0  0  0
  9  7  2  0  0  0  0
 10  7  1  0  0  0  0
 10 11  1  0  0  0  0
 11 13  2  0  0  0  0
 12 18  1  1  0  0  0
 12  5  1  0  0  0  0
 12  3  1  0  0  0  0
 13  2  1  0  0  0  0
 14 11  1  0  0  0  0
 15 18  1  0  0  0  0
 16 18  2  0  0  0  0
 18 17  1  0  0  0  0
 21 22  1  0  0  0  0
 22 20  1  6  0  0  0
 22 29  1  0  0  0  0
 22 27  1  0  0  0  0
 24 28  1  0  0  0  0
 24 19  1  0  0  0  0
 26 25  1  6  0  0  0
 26 23  1  0  0  0  0
 27 24  2  0  0  0  0
 28 23  1  0  0  0  0
 29 26  1  0  0  0  0
M  END
>  <MODEL>
5

>  <REMARK>
 VINA RESULT:      -7.2      6.272      8.453
  Name = 
  3 active torsions:
  status: ('A' for Active; 'I' for Inactive)
    1  A    between atoms: P_7  and  C_27
    2  A    between atoms: C_12  and  C_20
    3  A    between atoms: C_20  and  C_22
                            x       y       z     vdW  Elec       q    Type
                         _______ _______ _______ _____ _____    ______ ____

>  <TORSDO>
F 3

$$$$
=
 OpenBabel11062416323D

 29 32  0  0  1  0  0  0  0  0999 V2000
  182.6310  178.5980  142.1560 N   0  0  0  0  0  0  0  0  0  0  0  0
  185.8480  178.3790  138.3890 C   0  0  0  0  0  3  0  0  0  0  0  0
  181.0890  177.6200  138.8790 C   0  0  0  0  0  0  0  0  0  0  0  0
  185.9680  178.6290  139.7200 N   0  0  0  0  0  0  0  0  0  0  0  0
  182.4760  178.3650  140.8230 C   0  0  0  0  0  0  0  0  0  0  0  0
  179.7380  176.9160  138.2900 S   0  0  0  0  0  0  0  0  0  0  0  0
  184.8790  178.6160  140.5370 C   0  0  0  0  0  0  0  0  0  0  0  0
  183.8510  178.8320  142.7110 C   0  0  0  0  0  3  0  0  0  0  0  0
  185.0010  178.8510  141.9150 C   0  0  0  0  0  0  0  0  0  0  0  0
  183.6100  178.3560  139.9920 C   0  0  0  0  0  0  0  0  0  0  0  0
  183.5140  178.0770  138.6250 C   0  0  0  0  0  0  0  0  0  0  0  0
  181.0840  178.2380  140.2550 C   0  0  1  0  0  3  0  0  0  0  0  0
  184.6300  178.0980  137.8520 N   0  0  0  0  0  0  0  0  0  0  0  0
  182.2590  177.6900  138.0610 N   0  0  0  0  0  2  0  0  0  0  0  0
  178.9320  179.7830  139.5640 O   0  0  0  0  0  1  0  0  0  0  0  0
  181.2620  180.9360  139.2790 O   0  0  0  0  0  0  0  0  0  0  0  0
  180.1440  180.4990  141.7620 O   0  0  0  0  0  1  0  0  0  0  0  0
  180.3010  179.8860  140.1940 P   0  0  0  0  0  0  0  0  0  0  0  0
  186.3250  179.1510  142.5460 C   0  0  0  0  0  2  0  0  0  0  0  0
  186.4190  179.0760  147.3970 C   0  0  0  0  0  1  0  0  0  0  0  0
  185.1920  177.3250  146.4350 F   0  0  0  0  0  0  0  0  0  0  0  0
  186.3530  178.0570  146.2790 C   0  0  1  0  0  0  0  0  0  0  0  0
  188.4810  176.7590  144.0760 C   0  0  0  0  0  2  0  0  0  0  0  0
  186.5370  178.3010  143.7570 C   0  0  0  0  0  0  0  0  0  0  0  0
  189.1250  178.6290  145.4520 F   0  0  0  0  0  0  0  0  0  0  0  0
  188.7320  177.3030  145.4880 C   0  0  1  0  0  3  0  0  0  0  0  0
  186.2660  178.8090  144.9690 C   0  0  0  0  0  3  0  0  0  0  0  0
  187.0370  176.8990  143.5880 C   0  0  0  0  0  2  0  0  0  0  0  0
  187.5460  177.0910  146.4350 C   0  0  0  0  0  2  0  0  0  0  0  0
  1  8  1  0  0  0  0
  2  4  2  0  0  0  0
  3 12  1  0  0  0  0
  4  7  1  0  0  0  0
  5  1  2  0  0  0  0
  6  3  2  0  0  0  0
  7  9  1  0  0  0  0
  9 19  1  0  0  0  0
  9  8  2  0  0  0  0
 10  7  2  0  0  0  0
 10  5  1  0  0  0  0
 11 10  1  0  0  0  0
 12 18  1  6  0  0  0
 12  5  1  0  0  0  0
 13  2  1  0  0  0  0
 13 11  2  0  0  0  0
 14 11  1  0  0  0  0
 14  3  1  0  0  0  0
 15 18  1  0  0  0  0
 16 18  2  0  0  0  0
 18 17  1  0  0  0  0
 19 24  1  0  0  0  0
 22 21  1  0  0  0  0
 22 29  1  0  0  0  0
 22 20  1  1  0  0  0
 23 26  1  0  0  0  0
 24 27  2  0  0  0  0
 26 25  1  6  0  0  0
 26 29  1  0  0  0  0
 27 22  1  0  0  0  0
 28 24  1  0  0  0  0
 28 23  1  0  0  0  0
M  END
>  <MODEL>
6

>  <REMARK>
 VINA RESULT:      -7.0      5.102      6.306
  Name = 
  3 active torsions:
  status: ('A' for Active; 'I' for Inactive)
    1  A    between atoms: P_7  and  C_27
    2  A    between atoms: C_12  and  C_20
    3  A    between atoms: C_20  and  C_22
                            x       y       z     vdW  Elec       q    Type
                         _______ _______ _______ _____ _____    ______ ____

>  <TORSDO>
F 3

$$$$
=
 OpenBabel11062416323D

 29 32  0  0  1  0  0  0  0  0999 V2000
  187.2080  178.6670  140.5650 N   0  0  0  0  0  0  0  0  0  0  0  0
  190.3330  175.7840  138.0130 C   0  0  0  0  0  3  0  0  0  0  0  0
  190.3980  177.8860  142.3760 C   0  0  0  0  0  0  0  0  0  0  0  0
  189.1250  176.3450  137.7360 N   0  0  0  0  0  0  0  0  0  0  0  0
  188.4060  178.1010  140.8790 C   0  0  0  0  0  0  0  0  0  0  0  0
  191.2920  178.4300  143.6310 S   0  0  0  0  0  0  0  0  0  0  0  0
  188.4840  177.1170  138.6550 C   0  0  0  0  0  0  0  0  0  0  0  0
  186.6270  178.4980  139.3460 C   0  0  0  0  0  3  0  0  0  0  0  0
  187.2480  177.7170  138.3660 C   0  0  0  0  0  0  0  0  0  0  0  0
  189.0720  177.3240  139.9140 C   0  0  0  0  0  0  0  0  0  0  0  0
  190.3250  176.7590  140.1680 C   0  0  0  0  0  0  0  0  0  0  0  0
  188.9310  178.2250  142.2890 C   0  0  1  0  0  3  0  0  0  0  0  0
  190.9270  175.9990  139.2170 N   0  0  0  0  0  0  0  0  0  0  0  0
  191.0060  177.0480  141.3910 N   0  0  0  0  0  2  0  0  0  0  0  0
  188.2630  175.6840  143.0590 O   0  0  0  0  0  0  0  0  0  0  0  0
  186.3200  177.4300  143.1910 O   0  0  0  0  0  1  0  0  0  0  0  0
  188.4020  177.4240  144.9990 O   0  0  0  0  0  1  0  0  0  0  0  0
  187.9730  177.1290  143.3910 P   0  0  0  0  0  0  0  0  0  0  0  0
  186.5680  177.5160  137.0480 C   0  0  0  0  0  2  0  0  0  0  0  0
  185.5640  172.8830  136.0090 C   0  0  0  0  0  1  0  0  0  0  0  0
  185.0440  173.5060  138.2090 F   0  0  0  0  0  0  0  0  0  0  0  0
  184.9930  173.9610  136.9060 C   0  0  1  0  0  0  0  0  0  0  0  0
  183.1410  176.6950  136.5020 C   0  0  0  0  0  2  0  0  0  0  0  0
  185.5450  176.4300  137.1430 C   0  0  0  0  0  0  0  0  0  0  0  0
  184.0140  175.5100  134.5950 F   0  0  0  0  0  0  0  0  0  0  0  0
  183.1730  175.3960  135.6880 C   0  0  1  0  0  3  0  0  0  0  0  0
  185.8840  175.1790  136.7940 C   0  0  0  0  0  3  0  0  0  0  0  0
  184.1700  176.7610  137.6340 C   0  0  0  0  0  2  0  0  0  0  0  0
  183.5090  174.1630  136.5330 C   0  0  0  0  0  2  0  0  0  0  0  0
  1  5  1  0  0  0  0
  2 13  1  0  0  0  0
  3  6  2  0  0  0  0
  4  2  2  0  0  0  0
  4  7  1  0  0  0  0
  5 12  1  0  0  0  0
  7 10  1  0  0  0  0
  8  1  2  0  0  0  0
  9  7  2  0  0  0  0
  9  8  1  0  0  0  0
 10 11  1  0  0  0  0
 10  5  2  0  0  0  0
 11 14  1  0  0  0  0
 12  3  1  0  0  0  0
 12 18  1  1  0  0  0
 13 11  2  0  0  0  0
 14  3  1  0  0  0  0
 15 18  2  0  0  0  0
 16 18  1  0  0  0  0
 18 17  1  0  0  0  0
 19 24  1  0  0  0  0
 19  9  1  0  0  0  0
 22 20  1  6  0  0  0
 22 21  1  0  0  0  0
 23 28  1  0  0  0  0
 24 28  1  0  0  0  0
 26 25  1  6  0  0  0
 26 23  1  0  0  0  0
 26 29  1  0  0  0  0
 27 22  1  0  0  0  0
 27 24  2  0  0  0  0
 29 22  1  0  0  0  0
M  END
>  <MODEL>
7

>  <REMARK>
 VINA RESULT:      -7.0      4.851      7.971
  Name = 
  3 active torsions:
  status: ('A' for Active; 'I' for Inactive)
    1  A    between atoms: P_7  and  C_27
    2  A    between atoms: C_12  and  C_20
    3  A    between atoms: C_20  and  C_22
                            x       y       z     vdW  Elec       q    Type
                         _______ _______ _______ _____ _____    ______ ____

>  <TORSDO>
F 3

$$$$
=
 OpenBabel11062416323D

 29 32  0  0  1  0  0  0  0  0999 V2000
  183.3510  178.5710  141.9800 N   0  0  0  0  0  0  0  0  0  0  0  0
  185.5510  178.0020  137.5730 C   0  0  0  0  0  3  0  0  0  0  0  0
  181.1460  177.0580  139.3500 C   0  0  0  0  0  0  0  0  0  0  0  0
  185.9720  178.4440  138.7880 N   0  0  0  0  0  0  0  0  0  0  0  0
  182.8950  178.1450  140.7700 C   0  0  0  0  0  0  0  0  0  0  0  0
  179.7590  176.2030  139.2160 S   0  0  0  0  0  0  0  0  0  0  0  0
  185.1230  178.4860  139.8510 C   0  0  0  0  0  0  0  0  0  0  0  0
  184.6440  178.9480  142.1720 C   0  0  0  0  0  3  0  0  0  0  0  0
  185.5570  178.9190  141.1130 C   0  0  0  0  0  0  0  0  0  0  0  0
  183.7870  178.0820  139.6840 C   0  0  0  0  0  0  0  0  0  0  0  0
  183.3840  177.6080  138.4320 C   0  0  0  0  0  0  0  0  0  0  0  0
  181.4230  177.8620  140.5950 C   0  0  1  0  0  3  0  0  0  0  0  0
  184.2700  177.5820  137.4030 N   0  0  0  0  0  0  0  0  0  0  0  0
  182.0680  177.0770  138.2580 N   0  0  0  0  0  2  0  0  0  0  0  0
  179.0910  179.1950  140.0630 O   0  0  0  0  0  1  0  0  0  0  0  0
  181.2770  180.5020  139.4690 O   0  0  0  0  0  0  0  0  0  0  0  0
  180.4630  180.1310  142.0770 O   0  0  0  0  0  1  0  0  0  0  0  0
  180.5060  179.4400  140.5350 P   0  0  0  0  0  0  0  0  0  0  0  0
  186.9630  179.3780  141.3440 C   0  0  0  0  0  2  0  0  0  0  0  0
  188.5850  177.0460  145.2780 C   0  0  0  0  0  1  0  0  0  0  0  0
  187.7700  175.6320  143.5940 F   0  0  0  0  0  0  0  0  0  0  0  0
  188.5140  176.7800  143.7890 C   0  0  1  0  0  0  0  0  0  0  0  0
  190.1520  177.8040  141.0810 C   0  0  0  0  0  2  0  0  0  0  0  0
  187.8100  178.2520  141.8410 C   0  0  0  0  0  0  0  0  0  0  0  0
  190.5360  178.8490  143.2190 F   0  0  0  0  0  0  0  0  0  0  0  0
  190.6360  177.6530  142.5290 C   0  0  1  0  0  3  0  0  0  0  0  0
  187.7790  177.9360  143.1450 C   0  0  0  0  0  3  0  0  0  0  0  0
  188.6670  177.4970  140.8720 C   0  0  0  0  0  2  0  0  0  0  0  0
  189.9450  176.5090  143.2790 C   0  0  0  0  0  2  0  0  0  0  0  0
  1  8  1  0  0  0  0
  2  4  2  0  0  0  0
  3 12  1  0  0  0  0
  4  7  1  0  0  0  0
  5  1  2  0  0  0  0
  6  3  2  0  0  0  0
  7  9  1  0  0  0  0
  9 19  1  0  0  0  0
  9  8  2  0  0  0  0
 10  7  2  0  0  0  0
 10  5  1  0  0  0  0
 11 10  1  0  0  0  0
 12 18  1  6  0  0  0
 12  5  1  0  0  0  0
 13  2  1  0  0  0  0
 13 11  2  0  0  0  0
 14 11  1  0  0  0  0
 14  3  1  0  0  0  0
 15 18  1  0  0  0  0
 16 18  2  0  0  0  0
 18 17  1  0  0  0  0
 19 24  1  0  0  0  0
 21 22  1  0  0  0  0
 22 20  1  1  0  0  0
 23 26  1  0  0  0  0
 24 27  2  0  0  0  0
 26 25  1  1  0  0  0
 26 29  1  0  0  0  0
 27 22  1  0  0  0  0
 28 23  1  0  0  0  0
 28 24  1  0  0  0  0
 29 22  1  0  0  0  0
M  END
>  <MODEL>
8

>  <REMARK>
 VINA RESULT:      -6.9      4.911      6.334
  Name = 
  3 active torsions:
  status: ('A' for Active; 'I' for Inactive)
    1  A    between atoms: P_7  and  C_27
    2  A    between atoms: C_12  and  C_20
    3  A    between atoms: C_20  and  C_22
                            x       y       z     vdW  Elec       q    Type
                         _______ _______ _______ _____ _____    ______ ____

>  <TORSDO>
F 3

$$$$
=
 OpenBabel11062416323D

 29 32  0  0  1  0  0  0  0  0999 V2000
  184.0440  178.4120  141.0560 N   0  0  0  0  0  0  0  0  0  0  0  0
  186.7720  177.9080  136.9470 C   0  0  0  0  0  3  0  0  0  0  0  0
  182.1510  177.0540  138.1170 C   0  0  0  0  0  0  0  0  0  0  0  0
  187.0470  178.2970  138.2200 N   0  0  0  0  0  0  0  0  0  0  0  0
  183.7350  178.0380  139.7840 C   0  0  0  0  0  0  0  0  0  0  0  0
  180.7690  176.2500  137.7790 S   0  0  0  0  0  0  0  0  0  0  0  0
  186.0700  178.3350  139.1680 C   0  0  0  0  0  0  0  0  0  0  0  0
  185.3130  178.7400  141.4240 C   0  0  0  0  0  3  0  0  0  0  0  0
  186.3520  178.7130  140.4890 C   0  0  0  0  0  0  0  0  0  0  0  0
  184.7560  177.9800  138.8190 C   0  0  0  0  0  0  0  0  0  0  0  0
  184.5020  177.5580  137.5100 C   0  0  0  0  0  0  0  0  0  0  0  0
  182.2890  177.8090  139.4150 C   0  0  1  0  0  3  0  0  0  0  0  0
  185.5110  177.5350  136.6010 N   0  0  0  0  0  0  0  0  0  0  0  0
  183.2050  177.0770  137.1530 N   0  0  0  0  0  2  0  0  0  0  0  0
  180.8580  179.7970  140.6390 O   0  0  0  0  0  1  0  0  0  0  0  0
  180.1830  179.3090  138.1600 O   0  0  0  0  0  0  0  0  0  0  0  0
  182.5280  180.6090  138.8040 O   0  0  0  0  0  1  0  0  0  0  0  0
  181.4330  179.4170  139.2940 P   0  0  0  0  0  0  0  0  0  0  0  0
  187.7300  179.1180  140.9120 C   0  0  0  0  0  2  0  0  0  0  0  0
  188.8680  176.9630  145.1080 C   0  0  0  0  0  1  0  0  0  0  0  0
  188.0660  175.4960  143.4640 F   0  0  0  0  0  0  0  0  0  0  0  0
  188.8840  176.5960  143.6390 C   0  0  1  0  0  0  0  0  0  0  0  0
  190.7920  177.2930  141.0050 C   0  0  0  0  0  2  0  0  0  0  0  0
  188.4450  177.9710  141.5480 C   0  0  0  0  0  0  0  0  0  0  0  0
  191.1030  178.4590  143.0910 F   0  0  0  0  0  0  0  0  0  0  0  0
  191.1550  177.2110  142.4930 C   0  0  1  0  0  3  0  0  0  0  0  0
  188.2930  177.7540  142.8640 C   0  0  0  0  0  3  0  0  0  0  0  0
  189.3050  177.0850  140.7010 C   0  0  0  0  0  2  0  0  0  0  0  0
  190.3210  176.1810  143.2610 C   0  0  0  0  0  2  0  0  0  0  0  0
  1  8  1  0  0  0  0
  2  4  2  0  0  0  0
  3 12  1  0  0  0  0
  4  7  1  0  0  0  0
  5  1  2  0  0  0  0
  6  3  2  0  0  0  0
  7  9  1  0  0  0  0
  9 19  1  0  0  0  0
  9  8  2  0  0  0  0
 10  7  2  0  0  0  0
 10  5  1  0  0  0  0
 11 10  1  0  0  0  0
 12 18  1  6  0  0  0
 12  5  1  0  0  0  0
 13  2  1  0  0  0  0
 13 11  2  0  0  0  0
 14 11  1  0  0  0  0
 14  3  1  0  0  0  0
 16 18  2  0  0  0  0
 17 18  1  0  0  0  0
 18 15  1  0  0  0  0
 19 24  1  0  0  0  0
 21 22  1  0  0  0  0
 22 20  1  1  0  0  0
 23 26  1  0  0  0  0
 24 27  2  0  0  0  0
 26 25  1  1  0  0  0
 26 29  1  0  0  0  0
 27 22  1  0  0  0  0
 28 23  1  0  0  0  0
 28 24  1  0  0  0  0
 29 22  1  0  0  0  0
M  END
>  <MODEL>
9

>  <REMARK>
 VINA RESULT:      -6.6      4.171      5.599
  Name = 
  3 active torsions:
  status: ('A' for Active; 'I' for Inactive)
    1  A    between atoms: P_7  and  C_27
    2  A    between atoms: C_12  and  C_20
    3  A    between atoms: C_20  and  C_22
                            x       y       z     vdW  Elec       q    Type
                         _______ _______ _______ _____ _____    ______ ____

>  <TORSDO>
F 3

$$$$
