=
 OpenBabel11062416033D

 36 42  0  0  1  0  0  0  0  0999 V2000
  188.6510  178.1020  140.7810 C   0  0  0  0  0  0  0  0  0  0  0  0
  189.2740  177.3200  138.5470 C   0  0  0  0  0  0  0  0  0  0  0  0
  189.0350  178.3380  142.1150 C   0  0  0  0  0  3  0  0  0  0  0  0
  187.9780  177.5990  138.0820 C   0  0  0  0  0  0  0  0  0  0  0  0
  190.2220  176.8070  137.7140 N   0  0  0  0  0  2  0  0  0  0  0  0
  183.2960  179.3040  139.1160 C   0  0  0  0  0  1  0  0  0  0  0  0
  191.8170  176.7740  139.4510 N   0  0  0  0  0  0  0  0  0  0  0  0
  190.9120  177.2850  140.3240 C   0  0  0  0  0  0  0  0  0  0  0  0
  191.4800  176.5370  138.1560 C   0  0  0  0  0  3  0  0  0  0  0  0
  185.6180  178.4160  138.4500 C   0  0  0  0  0  3  0  0  0  0  0  0
  187.3470  178.3800  140.3180 C   0  0  0  0  0  0  0  0  0  0  0  0
  190.3350  178.0510  142.5470 C   0  0  0  0  0  0  0  0  0  0  0  0
  191.2720  177.5240  141.6500 C   0  0  0  0  0  3  0  0  0  0  0  0
  189.6050  177.5720  139.8890 C   0  0  0  0  0  0  0  0  0  0  0  0
  184.6940  178.9750  139.4940 C   0  0  0  0  0  0  0  0  0  0  0  0
  186.4220  178.8830  141.1500 C   0  0  0  0  0  3  0  0  0  0  0  0
  185.0900  179.1750  140.7120 N   0  0  0  0  0  0  0  0  0  0  0  0
  187.0110  178.1280  138.9650 C   0  0  0  0  0  0  0  0  0  0  0  0
  187.6400  177.3640  136.6350 C   0  0  0  0  0  2  0  0  0  0  0  0
  185.9990  175.5520  136.5850 N   0  0  0  0  0  0  0  0  0  0  0  0
  185.5940  173.3840  137.6130 C   0  0  0  0  0  1  0  0  0  0  0  0
  186.0270  174.1110  136.3550 C   0  0  2  0  0  3  0  0  0  0  0  0
  187.4300  173.8250  136.0820 N   0  0  0  0  0  0  0  0  0  0  0  0
  187.2140  175.9510  136.4270 C   0  0  0  0  0  0  0  0  0  0  0  0
  188.1070  174.8960  136.1260 N   0  0  0  0  0  0  0  0  0  0  0  0
  190.7190  178.2860  143.9760 C   0  0  0  0  0  2  0  0  0  0  0  0
  191.0880  176.6650  145.8920 C   0  0  0  0  0  2  0  0  0  0  0  0
  189.4350  176.2240  147.5790 O   0  0  0  0  0  0  0  0  0  0  0  0
  190.6410  176.9230  147.3250 C   0  0  2  0  0  3  0  0  0  0  0  0
  189.0050  177.9630  145.8160 C   0  0  2  0  0  3  0  0  0  0  0  0
  190.0680  177.3010  144.9520 C   0  0  1  0  0  3  0  0  0  0  0  0
  189.0490  178.4370  148.3110 O   0  0  0  0  0  1  0  0  0  0  0  0
  189.3310  177.5840  147.2460 C   0  0  1  0  0  0  0  0  0  0  0  0
  186.4120  178.1030  146.1000 C   0  0  0  0  0  1  0  0  0  0  0  0
  187.4770  176.7490  144.5070 O   0  0  0  0  0  0  0  0  0  0  0  0
  187.6200  177.5510  145.4130 C   0  0  0  0  0  0  0  0  0  0  0  0
  1  3  2  0  0  0  0
  2 14  1  0  0  0  0
  3 12  1  0  0  0  0
  4  2  2  0  0  0  0
  4 18  1  0  0  0  0
  5  9  1  0  0  0  0
  5  2  1  0  0  0  0
  6 15  1  0  0  0  0
  7  8  1  0  0  0  0
  8 13  1  0  0  0  0
  9  7  2  0  0  0  0
 10 18  2  0  0  0  0
 10 15  1  0  0  0  0
 11  1  1  0  0  0  0
 11 16  2  0  0  0  0
 12 26  1  0  0  0  0
 13 12  2  0  0  0  0
 14  8  2  0  0  0  0
 14  1  1  0  0  0  0
 15 17  2  0  0  0  0
 17 16  1  0  0  0  0
 18 11  1  0  0  0  0
 19  4  1  0  0  0  0
 22 20  1  0  0  0  0
 22 21  1  1  0  0  0
 23 25  2  0  0  0  0
 23 22  1  0  0  0  0
 24 20  2  0  0  0  0
 24 19  1  0  0  0  0
 25 24  1  0  0  0  0
 29 27  1  6  0  0  0
 29 28  1  0  0  0  0
 30 36  1  6  0  0  0
 30 33  1  0  0  0  0
 31 26  1  1  0  0  0
 31 30  1  0  0  0  0
 31 27  1  0  0  0  0
 33 29  1  0  0  0  0
 33 28  1  0  0  0  0
 33 32  1  1  0  0  0
 35 36  2  0  0  0  0
 36 34  1  0  0  0  0
M  END
>  <MODEL>
1

>  <REMARK>
 VINA RESULT:     -10.0      0.000      0.000
  Name = 
  5 active torsions:
  status: ('A' for Active; 'I' for Inactive)
    1  A    between atoms: C_5  and  C_21
    2  A    between atoms: C_15  and  C_32
    3  A    between atoms: C_16  and  C_31
    4  A    between atoms: C_21  and  C_22
    5  A    between atoms: C_26  and  C_31
                            x       y       z     vdW  Elec       q    Type
                         _______ _______ _______ _____ _____    ______ ____

>  <TORSDO>
F 5

$$$$
=
 OpenBabel11062416033D

 36 42  0  0  1  0  0  0  0  0999 V2000
  184.7330  178.6330  142.2700 C   0  0  0  0  0  0  0  0  0  0  0  0
  182.4420  178.6890  141.4120 C   0  0  0  0  0  0  0  0  0  0  0  0
  185.5910  178.6400  143.3860 C   0  0  0  0  0  3  0  0  0  0  0  0
  182.9280  178.6210  140.0950 C   0  0  0  0  0  0  0  0  0  0  0  0
  181.1040  178.7510  141.6630 N   0  0  0  0  0  0  0  0  0  0  0  0
  186.9490  178.3630  136.9860 C   0  0  0  0  0  1  0  0  0  0  0  0
  181.4820  178.8210  143.9890 N   0  0  0  0  0  0  0  0  0  0  0  0
  182.8250  178.7620  143.7960 C   0  0  0  0  0  0  0  0  0  0  0  0
  180.6260  178.8150  142.9340 C   0  0  0  0  0  3  0  0  0  0  0  0
  184.8260  178.4940  138.4350 C   0  0  0  0  0  2  0  0  0  0  0  0
  185.2240  178.5680  140.9480 C   0  0  0  0  0  0  0  0  0  0  0  0
  185.0760  178.7070  144.6860 C   0  0  0  0  0  0  0  0  0  0  0  0
  183.6930  178.7690  144.8890 C   0  0  0  0  0  3  0  0  0  0  0  0
  183.3420  178.6950  142.4900 C   0  0  0  0  0  0  0  0  0  0  0  0
  186.3220  178.4340  138.3320 C   0  0  0  0  0  0  0  0  0  0  0  0
  186.5450  178.5110  140.7150 C   0  0  0  0  0  3  0  0  0  0  0  0
  187.0760  178.4440  139.3870 N   0  0  0  0  0  0  0  0  0  0  0  0
  184.3190  178.5610  139.8590 C   0  0  0  0  0  0  0  0  0  0  0  0
  181.9580  178.5760  138.9460 C   0  0  0  0  0  2  0  0  0  0  0  0
  180.3220  180.2010  138.1310 N   0  0  0  0  0  0  0  0  0  0  0  0
  180.0920  181.8940  136.3980 C   0  0  0  0  0  1  0  0  0  0  0  0
  180.3000  181.6370  137.8780 C   0  0  2  0  0  3  0  0  0  0  0  0
  181.6310  182.0850  138.2700 N   0  0  0  0  0  0  0  0  0  0  0  0
  181.4920  179.9510  138.6080 C   0  0  0  0  0  0  0  0  0  0  0  0
  182.3120  181.1010  138.6900 N   0  0  0  0  0  0  0  0  0  0  0  0
  186.0060  178.7370  145.8590 C   0  0  0  0  0  2  0  0  0  0  0  0
  187.2170  177.0420  144.4120 C   0  0  0  0  0  2  0  0  0  0  0  0
  189.5140  176.4230  144.7530 O   0  0  0  0  0  0  0  0  0  0  0  0
  188.6550  177.2000  143.9360 C   0  0  2  0  0  3  0  0  0  0  0  0
  188.4700  178.2250  146.1610 C   0  0  2  0  0  3  0  0  0  0  0  0
  187.1020  177.6690  145.7980 C   0  0  1  0  0  3  0  0  0  0  0  0
  190.4960  178.5700  144.6680 O   0  0  0  0  0  1  0  0  0  0  0  0
  189.4060  177.7900  145.0520 C   0  0  1  0  0  0  0  0  0  0  0  0
  188.0890  177.9730  148.7340 C   0  0  0  0  0  1  0  0  0  0  0  0
  189.9980  177.1890  147.6170 O   0  0  0  0  0  0  0  0  0  0  0  0
  188.9240  177.7570  147.5130 C   0  0  0  0  0  0  0  0  0  0  0  0
  1 14  1  0  0  0  0
  1  3  2  0  0  0  0
  2  5  2  0  0  0  0
  2 14  1  0  0  0  0
  3 12  1  0  0  0  0
  4  2  1  0  0  0  0
  5  9  1  0  0  0  0
  6 15  1  0  0  0  0
  8  7  1  0  0  0  0
  8 13  1  0  0  0  0
  9  7  2  0  0  0  0
 10 18  1  0  0  0  0
 11  1  1  0  0  0  0
 12 13  2  0  0  0  0
 12 26  1  0  0  0  0
 14  8  2  0  0  0  0
 15 10  1  0  0  0  0
 15 17  2  0  0  0  0
 16 11  2  0  0  0  0
 17 16  1  0  0  0  0
 18  4  2  0  0  0  0
 18 11  1  0  0  0  0
 19  4  1  0  0  0  0
 20 24  2  0  0  0  0
 22 21  1  6  0  0  0
 22 20  1  0  0  0  0
 22 23  1  0  0  0  0
 23 25  2  0  0  0  0
 24 25  1  0  0  0  0
 24 19  1  0  0  0  0
 27 31  1  0  0  0  0
 28 33  1  0  0  0  0
 29 27  1  1  0  0  0
 29 28  1  0  0  0  0
 29 33  1  0  0  0  0
 30 36  1  1  0  0  0
 31 26  1  6  0  0  0
 31 30  1  0  0  0  0
 33 32  1  6  0  0  0
 33 30  1  0  0  0  0
 36 35  2  0  0  0  0
 36 34  1  0  0  0  0
M  END
>  <MODEL>
2

>  <REMARK>
 VINA RESULT:      -9.5      2.862      6.304
  Name = 
  5 active torsions:
  status: ('A' for Active; 'I' for Inactive)
    1  A    between atoms: C_5  and  C_21
    2  A    between atoms: C_15  and  C_32
    3  A    between atoms: C_16  and  C_31
    4  A    between atoms: C_21  and  C_22
    5  A    between atoms: C_26  and  C_31
                            x       y       z     vdW  Elec       q    Type
                         _______ _______ _______ _____ _____    ______ ____

>  <TORSDO>
F 5

$$$$
=
 OpenBabel11062416033D

 36 42  0  0  1  0  0  0  0  0999 V2000
  187.5190  178.2830  142.4750 C   0  0  0  0  0  0  0  0  0  0  0  0
  186.8290  178.4110  140.1310 C   0  0  0  0  0  0  0  0  0  0  0  0
  188.5640  178.1340  143.4070 C   0  0  0  0  0  3  0  0  0  0  0  0
  185.4910  178.5780  140.5280 C   0  0  0  0  0  0  0  0  0  0  0  0
  187.1700  178.3870  138.8120 N   0  0  0  0  0  2  0  0  0  0  0  0
  182.1320  178.9380  144.3340 C   0  0  0  0  0  1  0  0  0  0  0  0
  189.4470  178.0850  139.3450 N   0  0  0  0  0  0  0  0  0  0  0  0
  189.1630  178.1010  140.6720 C   0  0  0  0  0  0  0  0  0  0  0  0
  188.4620  178.2280  138.4200 C   0  0  0  0  0  3  0  0  0  0  0  0
  183.7150  178.7710  142.3120 C   0  0  0  0  0  3  0  0  0  0  0  0
  186.1760  178.4480  142.8780 C   0  0  0  0  0  0  0  0  0  0  0  0
  189.8860  177.9710  142.9800 C   0  0  0  0  0  0  0  0  0  0  0  0
  190.1840  177.9530  141.6120 C   0  0  0  0  0  3  0  0  0  0  0  0
  187.8330  178.2640  141.1010 C   0  0  0  0  0  0  0  0  0  0  0  0
  183.5080  178.7720  143.7980 C   0  0  0  0  0  0  0  0  0  0  0  0
  185.8520  178.4660  144.1800 C   0  0  0  0  0  3  0  0  0  0  0  0
  184.5000  178.6310  144.6210 N   0  0  0  0  0  0  0  0  0  0  0  0
  185.1600  178.5970  141.9010 C   0  0  0  0  0  0  0  0  0  0  0  0
  184.4250  178.7730  139.4850 C   0  0  0  0  0  2  0  0  0  0  0  0
  184.1920  176.9070  137.9220 N   0  0  0  0  0  0  0  0  0  0  0  0
  182.4650  175.7430  136.6650 C   0  0  0  0  0  1  0  0  0  0  0  0
  183.4030  175.6820  137.8540 C   0  0  2  0  0  3  0  0  0  0  0  0
  182.6280  175.6920  139.0900 N   0  0  0  0  0  0  0  0  0  0  0  0
  183.8840  177.4550  139.0460 C   0  0  0  0  0  0  0  0  0  0  0  0
  182.9150  176.7220  139.7710 N   0  0  0  0  0  0  0  0  0  0  0  0
  190.9820  177.7900  143.9850 C   0  0  0  0  0  2  0  0  0  0  0  0
  191.7130  175.6670  145.1660 C   0  0  0  0  0  2  0  0  0  0  0  0
  191.1790  175.1860  147.4580 O   0  0  0  0  0  0  0  0  0  0  0  0
  192.2200  175.6210  146.6010 C   0  0  2  0  0  3  0  0  0  0  0  0
  190.5240  177.3920  146.4460 C   0  0  2  0  0  3  0  0  0  0  0  0
  190.6520  176.7590  145.0690 C   0  0  1  0  0  3  0  0  0  0  0  0
  192.0490  177.1400  148.4620 O   0  0  0  0  0  1  0  0  0  0  0  0
  191.4010  176.5690  147.3680 C   0  0  1  0  0  0  0  0  0  0  0  0
  188.6890  178.2690  148.0860 C   0  0  0  0  0  1  0  0  0  0  0  0
  188.2520  176.8030  146.3070 O   0  0  0  0  0  0  0  0  0  0  0  0
  189.0970  177.4460  146.9070 C   0  0  0  0  0  0  0  0  0  0  0  0
  1 11  1  0  0  0  0
  1  3  2  0  0  0  0
  2  4  2  0  0  0  0
  2 14  1  0  0  0  0
  4 18  1  0  0  0  0
  5  2  1  0  0  0  0
  7  8  1  0  0  0  0
  8 14  2  0  0  0  0
  8 13  1  0  0  0  0
  9  5  1  0  0  0  0
  9  7  2  0  0  0  0
 10 15  1  0  0  0  0
 11 16  2  0  0  0  0
 12  3  1  0  0  0  0
 12 26  1  0  0  0  0
 13 12  2  0  0  0  0
 14  1  1  0  0  0  0
 15  6  1  0  0  0  0
 15 17  2  0  0  0  0
 16 17  1  0  0  0  0
 18 10  2  0  0  0  0
 18 11  1  0  0  0  0
 19  4  1  0  0  0  0
 20 24  2  0  0  0  0
 22 21  1  6  0  0  0
 22 20  1  0  0  0  0
 22 23  1  0  0  0  0
 23 25  2  0  0  0  0
 24 19  1  0  0  0  0
 24 25  1  0  0  0  0
 29 27  1  6  0  0  0
 29 33  1  0  0  0  0
 29 28  1  0  0  0  0
 30 36  1  1  0  0  0
 30 33  1  0  0  0  0
 31 26  1  6  0  0  0
 31 27  1  0  0  0  0
 31 30  1  0  0  0  0
 33 28  1  0  0  0  0
 33 32  1  1  0  0  0
 35 36  2  0  0  0  0
 36 34  1  0  0  0  0
M  END
>  <MODEL>
3

>  <REMARK>
 VINA RESULT:      -9.5      2.257      3.283
  Name = 
  5 active torsions:
  status: ('A' for Active; 'I' for Inactive)
    1  A    between atoms: C_5  and  C_21
    2  A    between atoms: C_15  and  C_32
    3  A    between atoms: C_16  and  C_31
    4  A    between atoms: C_21  and  C_22
    5  A    between atoms: C_26  and  C_31
                            x       y       z     vdW  Elec       q    Type
                         _______ _______ _______ _____ _____    ______ ____

>  <TORSDO>
F 5

$$$$
=
 OpenBabel11062416033D

 36 42  0  0  1  0  0  0  0  0999 V2000
  189.6450  177.6030  140.1180 C   0  0  0  0  0  0  0  0  0  0  0  0
  187.7020  177.8720  138.6550 C   0  0  0  0  0  0  0  0  0  0  0  0
  190.1970  177.7310  141.4060 C   0  0  0  0  0  3  0  0  0  0  0  0
  188.4440  177.3800  137.5690 C   0  0  0  0  0  0  0  0  0  0  0  0
  186.4010  178.2480  138.5020 N   0  0  0  0  0  0  0  0  0  0  0  0
  192.8770  175.5800  135.8330 C   0  0  0  0  0  1  0  0  0  0  0  0
  186.2390  178.8360  140.7790 N   0  0  0  0  0  0  0  0  0  0  0  0
  187.5310  178.4760  140.9880 C   0  0  0  0  0  0  0  0  0  0  0  0
  185.6750  178.7240  139.5480 C   0  0  0  0  0  3  0  0  0  0  0  0
  190.5790  176.4760  136.5700 C   0  0  0  0  0  2  0  0  0  0  0  0
  190.3950  177.1100  139.0280 C   0  0  0  0  0  0  0  0  0  0  0  0
  189.4310  178.2240  142.4690 C   0  0  0  0  0  0  0  0  0  0  0  0
  188.0980  178.5970  142.2570 C   0  0  0  0  0  3  0  0  0  0  0  0
  188.3010  177.9820  139.9200 C   0  0  0  0  0  0  0  0  0  0  0  0
  191.9950  176.1090  136.9060 C   0  0  0  0  0  0  0  0  0  0  0  0
  191.6760  176.7470  139.1920 C   0  0  0  0  0  3  0  0  0  0  0  0
  192.4640  176.2440  138.1070 N   0  0  0  0  0  0  0  0  0  0  0  0
  189.7920  176.9980  137.7510 C   0  0  0  0  0  0  0  0  0  0  0  0
  187.7850  177.2280  136.2250 C   0  0  0  0  0  2  0  0  0  0  0  0
  186.0340  175.5460  136.5180 N   0  0  0  0  0  0  0  0  0  0  0  0
  185.7060  173.3680  137.5510 C   0  0  0  0  0  1  0  0  0  0  0  0
  185.8870  174.1200  136.2480 C   0  0  2  0  0  3  0  0  0  0  0  0
  187.1570  173.7440  135.6370 N   0  0  0  0  0  0  0  0  0  0  0  0
  187.2050  175.8620  136.0850 C   0  0  0  0  0  0  0  0  0  0  0  0
  187.9110  174.7590  135.5480 N   0  0  0  0  0  0  0  0  0  0  0  0
  190.0420  178.3750  143.8270 C   0  0  0  0  0  2  0  0  0  0  0  0
  190.5600  176.6790  145.6430 C   0  0  0  0  0  2  0  0  0  0  0  0
  189.1300  176.3020  147.5360 O   0  0  0  0  0  0  0  0  0  0  0  0
  190.3350  176.9260  147.1290 C   0  0  2  0  0  3  0  0  0  0  0  0
  188.5820  178.1150  145.8830 C   0  0  2  0  0  3  0  0  0  0  0  0
  189.4660  177.4080  144.8670 C   0  0  1  0  0  3  0  0  0  0  0  0
  189.0040  178.5140  148.3560 O   0  0  0  0  0  1  0  0  0  0  0  0
  189.0760  177.6750  147.2460 C   0  0  1  0  0  0  0  0  0  0  0  0
  186.0590  178.5640  146.3910 C   0  0  0  0  0  1  0  0  0  0  0  0
  186.8140  176.9210  144.8960 O   0  0  0  0  0  0  0  0  0  0  0  0
  187.1290  177.8070  145.6710 C   0  0  0  0  0  0  0  0  0  0  0  0
  1  3  2  0  0  0  0
  2 14  1  0  0  0  0
  3 12  1  0  0  0  0
  4 18  2  0  0  0  0
  4  2  1  0  0  0  0
  5  2  2  0  0  0  0
  5  9  1  0  0  0  0
  6 15  1  0  0  0  0
  7  8  1  0  0  0  0
  8 13  1  0  0  0  0
  9  7  2  0  0  0  0
 10 15  1  0  0  0  0
 10 18  1  0  0  0  0
 11 16  2  0  0  0  0
 11  1  1  0  0  0  0
 12 26  1  0  0  0  0
 13 12  2  0  0  0  0
 14  1  1  0  0  0  0
 14  8  2  0  0  0  0
 15 17  2  0  0  0  0
 17 16  1  0  0  0  0
 18 11  1  0  0  0  0
 19  4  1  0  0  0  0
 22 20  1  0  0  0  0
 22 21  1  1  0  0  0
 23 22  1  0  0  0  0
 24 19  1  0  0  0  0
 24 20  2  0  0  0  0
 25 23  2  0  0  0  0
 25 24  1  0  0  0  0
 29 27  1  6  0  0  0
 29 33  1  0  0  0  0
 29 28  1  0  0  0  0
 30 36  1  6  0  0  0
 30 33  1  0  0  0  0
 31 26  1  6  0  0  0
 31 27  1  0  0  0  0
 31 30  1  0  0  0  0
 33 28  1  0  0  0  0
 33 32  1  1  0  0  0
 35 36  2  0  0  0  0
 36 34  1  0  0  0  0
M  END
>  <MODEL>
4

>  <REMARK>
 VINA RESULT:      -9.4      1.039      3.649
  Name = 
  5 active torsions:
  status: ('A' for Active; 'I' for Inactive)
    1  A    between atoms: C_5  and  C_21
    2  A    between atoms: C_15  and  C_32
    3  A    between atoms: C_16  and  C_31
    4  A    between atoms: C_21  and  C_22
    5  A    between atoms: C_26  and  C_31
                            x       y       z     vdW  Elec       q    Type
                         _______ _______ _______ _____ _____    ______ ____

>  <TORSDO>
F 5

$$$$
=
 OpenBabel11062416033D

 36 42  0  0  1  0  0  0  0  0999 V2000
  184.6010  178.6490  142.4220 C   0  0  0  0  0  0  0  0  0  0  0  0
  182.2920  178.6290  141.6120 C   0  0  0  0  0  0  0  0  0  0  0  0
  185.4820  178.6670  143.5190 C   0  0  0  0  0  3  0  0  0  0  0  0
  182.7510  178.6090  140.2840 C   0  0  0  0  0  0  0  0  0  0  0  0
  180.9580  178.6290  141.8920 N   0  0  0  0  0  0  0  0  0  0  0  0
  186.7120  178.5850  137.0890 C   0  0  0  0  0  1  0  0  0  0  0  0
  181.3830  178.6650  144.2110 N   0  0  0  0  0  0  0  0  0  0  0  0
  182.7230  178.6660  143.9890 C   0  0  0  0  0  0  0  0  0  0  0  0
  180.5050  178.6460  143.1740 C   0  0  0  0  0  3  0  0  0  0  0  0
  184.6170  178.5970  138.5840 C   0  0  0  0  0  2  0  0  0  0  0  0
  185.0660  178.6320  141.0890 C   0  0  0  0  0  0  0  0  0  0  0  0
  184.9930  178.6850  144.8300 C   0  0  0  0  0  0  0  0  0  0  0  0
  183.6130  178.6860  145.0630 C   0  0  0  0  0  3  0  0  0  0  0  0
  183.2140  178.6490  142.6710 C   0  0  0  0  0  0  0  0  0  0  0  0
  186.1120  178.6010  138.4480 C   0  0  0  0  0  0  0  0  0  0  0  0
  186.3820  178.6350  140.8270 C   0  0  0  0  0  3  0  0  0  0  0  0
  186.8870  178.6190  139.4870 N   0  0  0  0  0  0  0  0  0  0  0  0
  184.1380  178.6110  140.0180 C   0  0  0  0  0  0  0  0  0  0  0  0
  181.7600  178.5480  139.1550 C   0  0  0  0  0  2  0  0  0  0  0  0
  180.0590  176.7920  139.2240 N   0  0  0  0  0  0  0  0  0  0  0  0
  179.6670  174.6280  140.2650 C   0  0  0  0  0  1  0  0  0  0  0  0
  180.0200  175.3540  138.9820 C   0  0  2  0  0  3  0  0  0  0  0  0
  181.3870  175.0240  138.5930 N   0  0  0  0  0  0  0  0  0  0  0  0
  181.2700  177.1520  138.9710 C   0  0  0  0  0  0  0  0  0  0  0  0
  182.1000  176.0720  138.5910 N   0  0  0  0  0  0  0  0  0  0  0  0
  185.9460  178.7290  145.9850 C   0  0  0  0  0  2  0  0  0  0  0  0
  187.1540  177.0530  144.5120 C   0  0  0  0  0  2  0  0  0  0  0  0
  189.4640  176.4640  144.8110 O   0  0  0  0  0  0  0  0  0  0  0  0
  188.5810  177.2310  144.0110 C   0  0  2  0  0  3  0  0  0  0  0  0
  188.4220  178.2490  146.2420 C   0  0  2  0  0  3  0  0  0  0  0  0
  187.0550  177.6750  145.9020 C   0  0  1  0  0  3  0  0  0  0  0  0
  190.4150  178.6250  144.7130 O   0  0  0  0  0  1  0  0  0  0  0  0
  189.3440  177.8300  145.1150 C   0  0  1  0  0  0  0  0  0  0  0  0
  188.0430  177.8810  148.8000 C   0  0  0  0  0  1  0  0  0  0  0  0
  190.0290  177.3200  147.6840 O   0  0  0  0  0  0  0  0  0  0  0  0
  188.9060  177.7850  147.5840 C   0  0  0  0  0  0  0  0  0  0  0  0
  1 14  1  0  0  0  0
  1  3  2  0  0  0  0
  2  5  2  0  0  0  0
  2 14  1  0  0  0  0
  3 12  1  0  0  0  0
  4  2  1  0  0  0  0
  5  9  1  0  0  0  0
  6 15  1  0  0  0  0
  8  7  1  0  0  0  0
  8 13  1  0  0  0  0
  9  7  2  0  0  0  0
 10 18  1  0  0  0  0
 11  1  1  0  0  0  0
 12 13  2  0  0  0  0
 12 26  1  0  0  0  0
 14  8  2  0  0  0  0
 15 10  1  0  0  0  0
 15 17  2  0  0  0  0
 16 11  2  0  0  0  0
 17 16  1  0  0  0  0
 18  4  2  0  0  0  0
 18 11  1  0  0  0  0
 19  4  1  0  0  0  0
 22 20  1  0  0  0  0
 22 21  1  1  0  0  0
 23 22  1  0  0  0  0
 24 19  1  0  0  0  0
 24 20  2  0  0  0  0
 25 23  2  0  0  0  0
 25 24  1  0  0  0  0
 27 31  1  0  0  0  0
 28 33  1  0  0  0  0
 29 27  1  1  0  0  0
 29 28  1  0  0  0  0
 29 33  1  0  0  0  0
 30 36  1  1  0  0  0
 31 26  1  6  0  0  0
 31 30  1  0  0  0  0
 33 32  1  6  0  0  0
 33 30  1  0  0  0  0
 36 35  2  0  0  0  0
 36 34  1  0  0  0  0
M  END
>  <MODEL>
5

>  <REMARK>
 VINA RESULT:      -9.2      3.021      5.856
  Name = 
  5 active torsions:
  status: ('A' for Active; 'I' for Inactive)
    1  A    between atoms: C_5  and  C_21
    2  A    between atoms: C_15  and  C_32
    3  A    between atoms: C_16  and  C_31
    4  A    between atoms: C_21  and  C_22
    5  A    between atoms: C_26  and  C_31
                            x       y       z     vdW  Elec       q    Type
                         _______ _______ _______ _____ _____    ______ ____

>  <TORSDO>
F 5

$$$$
=
 OpenBabel11062416033D

 36 42  0  0  1  0  0  0  0  0999 V2000
  186.6060  178.0150  143.1600 C   0  0  0  0  0  0  0  0  0  0  0  0
  184.4620  178.9170  142.3990 C   0  0  0  0  0  0  0  0  0  0  0  0
  187.3970  177.5600  144.2310 C   0  0  0  0  0  3  0  0  0  0  0  0
  184.9360  178.9420  141.0760 C   0  0  0  0  0  0  0  0  0  0  0  0
  183.2010  179.3360  142.6990 N   0  0  0  0  0  0  0  0  0  0  0  0
  188.7630  178.0360  137.8450 C   0  0  0  0  0  1  0  0  0  0  0  0
  183.5250  178.8700  144.9870 N   0  0  0  0  0  0  0  0  0  0  0  0
  184.7900  178.4420  144.7440 C   0  0  0  0  0  0  0  0  0  0  0  0
  182.7340  179.3130  143.9750 C   0  0  0  0  0  3  0  0  0  0  0  0
  186.7450  178.5440  139.3610 C   0  0  0  0  0  2  0  0  0  0  0  0
  187.0860  178.0410  141.8330 C   0  0  0  0  0  0  0  0  0  0  0  0
  186.8960  177.5470  145.5380 C   0  0  0  0  0  0  0  0  0  0  0  0
  185.5930  177.9890  145.7920 C   0  0  0  0  0  3  0  0  0  0  0  0
  185.2940  178.4560  143.4310 C   0  0  0  0  0  0  0  0  0  0  0  0
  188.1540  178.0520  139.2010 C   0  0  0  0  0  0  0  0  0  0  0  0
  188.3310  177.6290  141.5510 C   0  0  0  0  0  3  0  0  0  0  0  0
  188.8490  177.6430  140.2160 N   0  0  0  0  0  0  0  0  0  0  0  0
  186.2480  178.5050  140.7890 C   0  0  0  0  0  0  0  0  0  0  0  0
  184.0270  179.4000  139.9690 C   0  0  0  0  0  2  0  0  0  0  0  0
  181.7160  178.6780  139.6210 N   0  0  0  0  0  0  0  0  0  0  0  0
  180.0730  177.1770  140.6030 C   0  0  0  0  0  1  0  0  0  0  0  0
  181.0250  177.4050  139.4460 C   0  0  2  0  0  3  0  0  0  0  0  0
  182.0940  176.4150  139.4890 N   0  0  0  0  0  0  0  0  0  0  0  0
  182.9670  178.3830  139.7160 C   0  0  0  0  0  0  0  0  0  0  0  0
  183.2130  176.9920  139.6450 N   0  0  0  0  0  0  0  0  0  0  0  0
  187.7620  177.0820  146.6680 C   0  0  0  0  0  2  0  0  0  0  0  0
  189.8070  177.8760  147.9420 C   0  0  0  0  0  2  0  0  0  0  0  0
  192.0560  177.5250  147.1700 O   0  0  0  0  0  0  0  0  0  0  0  0
  191.0860  177.0630  148.0930 C   0  0  2  0  0  3  0  0  0  0  0  0
  190.1180  176.5600  145.8920 C   0  0  2  0  0  3  0  0  0  0  0  0
  189.2090  177.5730  146.5710 C   0  0  1  0  0  3  0  0  0  0  0  0
  191.9960  175.1790  146.9010 O   0  0  0  0  0  1  0  0  0  0  0  0
  191.3130  176.3900  146.8070 C   0  0  1  0  0  0  0  0  0  0  0  0
  190.7380  178.4360  144.1820 C   0  0  0  0  0  1  0  0  0  0  0  0
  190.6420  176.1550  143.6360 O   0  0  0  0  0  0  0  0  0  0  0  0
  190.5090  176.9950  144.5100 C   0  0  0  0  0  0  0  0  0  0  0  0
  1 14  1  0  0  0  0
  1  3  2  0  0  0  0
  2  5  2  0  0  0  0
  2 14  1  0  0  0  0
  3 12  1  0  0  0  0
  4  2  1  0  0  0  0
  5  9  1  0  0  0  0
  6 15  1  0  0  0  0
  8  7  1  0  0  0  0
  8 13  1  0  0  0  0
  9  7  2  0  0  0  0
 10 18  1  0  0  0  0
 11  1  1  0  0  0  0
 12 13  2  0  0  0  0
 12 26  1  0  0  0  0
 14  8  2  0  0  0  0
 15 10  1  0  0  0  0
 15 17  2  0  0  0  0
 16 11  2  0  0  0  0
 17 16  1  0  0  0  0
 18  4  2  0  0  0  0
 18 11  1  0  0  0  0
 19  4  1  0  0  0  0
 20 24  2  0  0  0  0
 22 23  1  0  0  0  0
 22 20  1  0  0  0  0
 22 21  1  1  0  0  0
 23 25  2  0  0  0  0
 24 19  1  0  0  0  0
 25 24  1  0  0  0  0
 28 29  1  0  0  0  0
 29 27  1  6  0  0  0
 30 36  1  6  0  0  0
 30 31  1  0  0  0  0
 30 33  1  0  0  0  0
 31 26  1  1  0  0  0
 31 27  1  0  0  0  0
 33 32  1  1  0  0  0
 33 28  1  0  0  0  0
 33 29  1  0  0  0  0
 34 36  1  0  0  0  0
 35 36  2  0  0  0  0
M  END
>  <MODEL>
6

>  <REMARK>
 VINA RESULT:      -9.0      2.632      5.313
  Name = 
  5 active torsions:
  status: ('A' for Active; 'I' for Inactive)
    1  A    between atoms: C_5  and  C_21
    2  A    between atoms: C_15  and  C_32
    3  A    between atoms: C_16  and  C_31
    4  A    between atoms: C_21  and  C_22
    5  A    between atoms: C_26  and  C_31
                            x       y       z     vdW  Elec       q    Type
                         _______ _______ _______ _____ _____    ______ ____

>  <TORSDO>
F 5

$$$$
=
 OpenBabel11062416033D

 36 42  0  0  1  0  0  0  0  0999 V2000
  187.9250  177.5760  141.4060 C   0  0  0  0  0  0  0  0  0  0  0  0
  186.7080  178.5330  139.5120 C   0  0  0  0  0  0  0  0  0  0  0  0
  187.9360  177.2410  142.7730 C   0  0  0  0  0  3  0  0  0  0  0  0
  187.8060  178.2810  138.6720 C   0  0  0  0  0  0  0  0  0  0  0  0
  185.5750  179.1160  139.0280 N   0  0  0  0  0  0  0  0  0  0  0  0
  192.5350  176.4670  138.1780 C   0  0  0  0  0  1  0  0  0  0  0  0
  184.5510  179.0260  141.1500 N   0  0  0  0  0  0  0  0  0  0  0  0
  185.6540  178.4430  141.6840 C   0  0  0  0  0  0  0  0  0  0  0  0
  184.5070  179.3600  139.8330 C   0  0  0  0  0  3  0  0  0  0  0  0
  190.1470  177.4210  138.2800 C   0  0  0  0  0  2  0  0  0  0  0  0
  189.0320  177.3250  140.5660 C   0  0  0  0  0  0  0  0  0  0  0  0
  186.8250  177.5030  143.5840 C   0  0  0  0  0  0  0  0  0  0  0  0
  185.6860  178.1050  143.0370 C   0  0  0  0  0  3  0  0  0  0  0  0
  186.7710  178.1810  140.8700 C   0  0  0  0  0  0  0  0  0  0  0  0
  191.3150  176.7760  138.9670 C   0  0  0  0  0  0  0  0  0  0  0  0
  190.1430  176.7530  141.0560 C   0  0  0  0  0  3  0  0  0  0  0  0
  191.2820  176.4850  140.2310 N   0  0  0  0  0  0  0  0  0  0  0  0
  188.9710  177.6780  139.1950 C   0  0  0  0  0  0  0  0  0  0  0  0
  187.7190  178.6250  137.2100 C   0  0  0  0  0  2  0  0  0  0  0  0
  186.4540  176.5920  136.7110 N   0  0  0  0  0  0  0  0  0  0  0  0
  186.8150  174.2020  136.4340 C   0  0  0  0  0  1  0  0  0  0  0  0
  186.5350  175.5150  135.7300 C   0  0  2  0  0  3  0  0  0  0  0  0
  187.6770  175.8790  134.9000 N   0  0  0  0  0  0  0  0  0  0  0  0
  187.4060  177.4060  136.4100 C   0  0  0  0  0  0  0  0  0  0  0  0
  188.1730  176.9750  135.3030 N   0  0  0  0  0  0  0  0  0  0  0  0
  186.8630  177.1610  145.0410 C   0  0  0  0  0  2  0  0  0  0  0  0
  187.5880  178.1270  147.2730 C   0  0  0  0  0  2  0  0  0  0  0  0
  189.8840  178.2530  147.9680 O   0  0  0  0  0  0  0  0  0  0  0  0
  188.6810  177.5270  148.1470 C   0  0  2  0  0  3  0  0  0  0  0  0
  189.2830  177.1370  145.7970 C   0  0  2  0  0  3  0  0  0  0  0  0
  187.9640  177.8960  145.8120 C   0  0  1  0  0  3  0  0  0  0  0  0
  190.4750  175.9790  147.7180 O   0  0  0  0  0  1  0  0  0  0  0  0
  189.7380  177.0610  147.2400 C   0  0  1  0  0  0  0  0  0  0  0  0
  191.4480  177.0280  144.3390 C   0  0  0  0  0  1  0  0  0  0  0  0
  190.1800  178.9790  144.6440 O   0  0  0  0  0  0  0  0  0  0  0  0
  190.2970  177.7940  144.9080 C   0  0  0  0  0  0  0  0  0  0  0  0
  1  3  2  0  0  0  0
  2 14  1  0  0  0  0
  3 12  1  0  0  0  0
  4 18  2  0  0  0  0
  4  2  1  0  0  0  0
  5  2  2  0  0  0  0
  5  9  1  0  0  0  0
  6 15  1  0  0  0  0
  7  8  1  0  0  0  0
  8 13  1  0  0  0  0
  9  7  2  0  0  0  0
 10 15  1  0  0  0  0
 10 18  1  0  0  0  0
 11 16  2  0  0  0  0
 11  1  1  0  0  0  0
 12 26  1  0  0  0  0
 13 12  2  0  0  0  0
 14  1  1  0  0  0  0
 14  8  2  0  0  0  0
 15 17  2  0  0  0  0
 17 16  1  0  0  0  0
 18 11  1  0  0  0  0
 19  4  1  0  0  0  0
 22 21  1  1  0  0  0
 22 20  1  0  0  0  0
 23 25  2  0  0  0  0
 23 22  1  0  0  0  0
 24 20  2  0  0  0  0
 24 19  1  0  0  0  0
 25 24  1  0  0  0  0
 28 29  1  0  0  0  0
 29 27  1  6  0  0  0
 30 36  1  6  0  0  0
 30 31  1  0  0  0  0
 30 33  1  0  0  0  0
 31 26  1  1  0  0  0
 31 27  1  0  0  0  0
 33 32  1  1  0  0  0
 33 28  1  0  0  0  0
 33 29  1  0  0  0  0
 34 36  1  0  0  0  0
 35 36  2  0  0  0  0
M  END
>  <MODEL>
7

>  <REMARK>
 VINA RESULT:      -9.0      1.371      4.139
  Name = 
  5 active torsions:
  status: ('A' for Active; 'I' for Inactive)
    1  A    between atoms: C_5  and  C_21
    2  A    between atoms: C_15  and  C_32
    3  A    between atoms: C_16  and  C_31
    4  A    between atoms: C_21  and  C_22
    5  A    between atoms: C_26  and  C_31
                            x       y       z     vdW  Elec       q    Type
                         _______ _______ _______ _____ _____    ______ ____

>  <TORSDO>
F 5

$$$$
=
 OpenBabel11062416033D

 36 42  0  0  1  0  0  0  0  0999 V2000
  185.4730  178.2550  143.1240 C   0  0  0  0  0  0  0  0  0  0  0  0
  185.7990  178.6280  140.7280 C   0  0  0  0  0  0  0  0  0  0  0  0
  186.0280  177.8780  144.3610 C   0  0  0  0  0  3  0  0  0  0  0  0
  184.4510  179.0000  140.5960 C   0  0  0  0  0  0  0  0  0  0  0  0
  186.6320  178.6190  139.6490 N   0  0  0  0  0  2  0  0  0  0  0  0
  179.9350  179.7220  142.8290 C   0  0  0  0  0  1  0  0  0  0  0  0
  188.4430  177.9010  140.9780 N   0  0  0  0  0  0  0  0  0  0  0  0
  187.6580  177.8920  142.0850 C   0  0  0  0  0  0  0  0  0  0  0  0
  187.9390  178.2620  139.7680 C   0  0  0  0  0  3  0  0  0  0  0  0
  182.1550  179.3970  141.5680 C   0  0  0  0  0  3  0  0  0  0  0  0
  184.1160  178.6250  142.9950 C   0  0  0  0  0  0  0  0  0  0  0  0
  187.3760  177.5130  144.4600 C   0  0  0  0  0  0  0  0  0  0  0  0
  188.1890  177.5200  143.3210 C   0  0  0  0  0  3  0  0  0  0  0  0
  186.3030  178.2580  141.9850 C   0  0  0  0  0  0  0  0  0  0  0  0
  181.3740  179.3520  142.8490 C   0  0  0  0  0  0  0  0  0  0  0  0
  183.3060  178.6270  144.0640 C   0  0  0  0  0  3  0  0  0  0  0  0
  181.9260  178.9970  143.9670 N   0  0  0  0  0  0  0  0  0  0  0  0
  183.6050  179.0000  141.7270 C   0  0  0  0  0  0  0  0  0  0  0  0
  183.9260  179.4330  139.2540 C   0  0  0  0  0  2  0  0  0  0  0  0
  182.1440  177.9300  138.5160 N   0  0  0  0  0  0  0  0  0  0  0  0
  181.5500  175.5720  138.6000 C   0  0  0  0  0  1  0  0  0  0  0  0
  182.0570  176.7040  137.7300 C   0  0  2  0  0  3  0  0  0  0  0  0
  183.4370  176.4390  137.3370 N   0  0  0  0  0  0  0  0  0  0  0  0
  183.3890  178.2600  138.5070 C   0  0  0  0  0  0  0  0  0  0  0  0
  184.1980  177.3450  137.7920 N   0  0  0  0  0  0  0  0  0  0  0  0
  187.9440  177.0920  145.7800 C   0  0  0  0  0  2  0  0  0  0  0  0
  189.6930  177.7020  147.5140 C   0  0  0  0  0  2  0  0  0  0  0  0
  192.0550  177.5030  147.1260 O   0  0  0  0  0  0  0  0  0  0  0  0
  190.9550  176.8900  147.7740 C   0  0  2  0  0  3  0  0  0  0  0  0
  190.4200  176.7260  145.3820 C   0  0  2  0  0  3  0  0  0  0  0  0
  189.3640  177.6100  146.0270 C   0  0  1  0  0  3  0  0  0  0  0  0
  192.1400  175.2260  146.4990 O   0  0  0  0  0  1  0  0  0  0  0  0
  191.4370  176.4290  146.4650 C   0  0  1  0  0  0  0  0  0  0  0  0
  191.1480  178.8620  144.0660 C   0  0  0  0  0  1  0  0  0  0  0  0
  191.4530  176.6760  143.2710 O   0  0  0  0  0  0  0  0  0  0  0  0
  191.0360  177.3760  144.1770 C   0  0  0  0  0  0  0  0  0  0  0  0
  1  3  2  0  0  0  0
  2 14  1  0  0  0  0
  3 12  1  0  0  0  0
  4  2  2  0  0  0  0
  4 18  1  0  0  0  0
  5  9  1  0  0  0  0
  5  2  1  0  0  0  0
  6 15  1  0  0  0  0
  7  8  1  0  0  0  0
  8 13  1  0  0  0  0
  9  7  2  0  0  0  0
 10 18  2  0  0  0  0
 10 15  1  0  0  0  0
 11  1  1  0  0  0  0
 11 16  2  0  0  0  0
 12 26  1  0  0  0  0
 13 12  2  0  0  0  0
 14  8  2  0  0  0  0
 14  1  1  0  0  0  0
 15 17  2  0  0  0  0
 17 16  1  0  0  0  0
 18 11  1  0  0  0  0
 19  4  1  0  0  0  0
 22 20  1  0  0  0  0
 22 21  1  1  0  0  0
 23 22  1  0  0  0  0
 23 25  2  0  0  0  0
 24 20  2  0  0  0  0
 24 19  1  0  0  0  0
 25 24  1  0  0  0  0
 28 29  1  0  0  0  0
 29 27  1  6  0  0  0
 30 36  1  6  0  0  0
 30 31  1  0  0  0  0
 30 33  1  0  0  0  0
 31 26  1  1  0  0  0
 31 27  1  0  0  0  0
 33 32  1  6  0  0  0
 33 28  1  0  0  0  0
 33 29  1  0  0  0  0
 34 36  1  0  0  0  0
 35 36  2  0  0  0  0
M  END
>  <MODEL>
8

>  <REMARK>
 VINA RESULT:      -9.0      2.735      4.123
  Name = 
  5 active torsions:
  status: ('A' for Active; 'I' for Inactive)
    1  A    between atoms: C_5  and  C_21
    2  A    between atoms: C_15  and  C_32
    3  A    between atoms: C_16  and  C_31
    4  A    between atoms: C_21  and  C_22
    5  A    between atoms: C_26  and  C_31
                            x       y       z     vdW  Elec       q    Type
                         _______ _______ _______ _____ _____    ______ ____

>  <TORSDO>
F 5

$$$$
=
 OpenBabel11062416033D

 36 42  0  0  1  0  0  0  0  0999 V2000
  188.9890  177.4010  139.8930 C   0  0  0  0  0  0  0  0  0  0  0  0
  186.9640  177.8510  138.5950 C   0  0  0  0  0  0  0  0  0  0  0  0
  189.6820  177.5360  141.1100 C   0  0  0  0  0  3  0  0  0  0  0  0
  187.5150  177.1790  137.4910 C   0  0  0  0  0  0  0  0  0  0  0  0
  185.7200  178.4040  138.5290 N   0  0  0  0  0  0  0  0  0  0  0  0
  191.4500  174.6260  135.5180 C   0  0  0  0  0  1  0  0  0  0  0  0
  185.8760  179.1680  140.7550 N   0  0  0  0  0  0  0  0  0  0  0  0
  187.1190  178.6370  140.8750 C   0  0  0  0  0  0  0  0  0  0  0  0
  185.1780  179.0540  139.5940 C   0  0  0  0  0  3  0  0  0  0  0  0
  189.3890  175.9020  136.3820 C   0  0  0  0  0  2  0  0  0  0  0  0
  189.5470  176.7280  138.7850 C   0  0  0  0  0  0  0  0  0  0  0  0
  189.1060  178.2110  142.1920 C   0  0  0  0  0  0  0  0  0  0  0  0
  187.8240  178.7610  142.0720 C   0  0  0  0  0  3  0  0  0  0  0  0
  187.6990  177.9600  139.7870 C   0  0  0  0  0  0  0  0  0  0  0  0
  190.7660  175.3540  136.6180 C   0  0  0  0  0  0  0  0  0  0  0  0
  190.7740  176.1910  138.8610 C   0  0  0  0  0  3  0  0  0  0  0  0
  191.3690  175.5020  137.7560 N   0  0  0  0  0  0  0  0  0  0  0  0
  188.8070  176.6160  137.5810 C   0  0  0  0  0  0  0  0  0  0  0  0
  186.7070  177.0320  136.2310 C   0  0  0  0  0  2  0  0  0  0  0  0
  184.4800  176.0540  135.9750 N   0  0  0  0  0  0  0  0  0  0  0  0
  182.6860  175.1390  137.3400 C   0  0  0  0  0  1  0  0  0  0  0  0
  183.8180  174.8200  136.3830 C   0  0  2  0  0  3  0  0  0  0  0  0
  184.8580  174.0770  137.0850 N   0  0  0  0  0  0  0  0  0  0  0  0
  185.6960  175.9480  136.3880 C   0  0  0  0  0  0  0  0  0  0  0  0
  185.9390  174.7400  137.0820 N   0  0  0  0  0  0  0  0  0  0  0  0
  189.8680  178.3650  143.4720 C   0  0  0  0  0  2  0  0  0  0  0  0
  190.6460  176.7550  145.2720 C   0  0  0  0  0  2  0  0  0  0  0  0
  189.3750  176.2860  147.2570 O   0  0  0  0  0  0  0  0  0  0  0  0
  190.4920  177.0070  146.7660 C   0  0  2  0  0  3  0  0  0  0  0  0
  188.5670  178.0140  145.6190 C   0  0  2  0  0  3  0  0  0  0  0  0
  189.4460  177.3700  144.5580 C   0  0  1  0  0  3  0  0  0  0  0  0
  189.1040  178.4930  148.0560 O   0  0  0  0  0  1  0  0  0  0  0  0
  189.1810  177.6430  146.9530 C   0  0  1  0  0  0  0  0  0  0  0  0
  186.0590  178.2040  146.3280 C   0  0  0  0  0  1  0  0  0  0  0  0
  186.8470  176.6870  144.7200 O   0  0  0  0  0  0  0  0  0  0  0  0
  187.1360  177.5760  145.5030 C   0  0  0  0  0  0  0  0  0  0  0  0
  1  3  2  0  0  0  0
  2 14  1  0  0  0  0
  3 12  1  0  0  0  0
  4 18  2  0  0  0  0
  4  2  1  0  0  0  0
  5  2  2  0  0  0  0
  5  9  1  0  0  0  0
  6 15  1  0  0  0  0
  7  8  1  0  0  0  0
  8 13  1  0  0  0  0
  9  7  2  0  0  0  0
 10 15  1  0  0  0  0
 10 18  1  0  0  0  0
 11 16  2  0  0  0  0
 11  1  1  0  0  0  0
 12 26  1  0  0  0  0
 13 12  2  0  0  0  0
 14  1  1  0  0  0  0
 14  8  2  0  0  0  0
 15 17  2  0  0  0  0
 17 16  1  0  0  0  0
 18 11  1  0  0  0  0
 19 24  1  0  0  0  0
 19  4  1  0  0  0  0
 20 22  1  0  0  0  0
 20 24  2  0  0  0  0
 22 23  1  0  0  0  0
 22 21  1  1  0  0  0
 24 25  1  0  0  0  0
 25 23  2  0  0  0  0
 29 27  1  6  0  0  0
 29 33  1  0  0  0  0
 29 28  1  0  0  0  0
 30 36  1  1  0  0  0
 30 33  1  0  0  0  0
 31 26  1  6  0  0  0
 31 27  1  0  0  0  0
 31 30  1  0  0  0  0
 33 28  1  0  0  0  0
 33 32  1  1  0  0  0
 35 36  2  0  0  0  0
 36 34  1  0  0  0  0
M  END
>  <MODEL>
9

>  <REMARK>
 VINA RESULT:      -8.8      1.394      3.709
  Name = 
  5 active torsions:
  status: ('A' for Active; 'I' for Inactive)
    1  A    between atoms: C_5  and  C_21
    2  A    between atoms: C_15  and  C_32
    3  A    between atoms: C_16  and  C_31
    4  A    between atoms: C_21  and  C_22
    5  A    between atoms: C_26  and  C_31
                            x       y       z     vdW  Elec       q    Type
                         _______ _______ _______ _____ _____    ______ ____

>  <TORSDO>
F 5

$$$$
