=
 OpenBabel11062415313D

 37 40  0  0  1  0  0  0  0  0999 V2000
  187.7040  177.3480  141.7500 C   0  0  1  0  0  3  0  0  0  0  0  0
  187.2100  178.7550  142.0340 C   0  0  1  0  0  3  0  0  0  0  0  0
  188.3610  178.5190  141.0430 C   0  0  2  0  0  3  0  0  0  0  0  0
  190.0570  176.7860  138.6080 C   0  0  0  0  0  0  0  0  0  0  0  0
  190.2940  178.2490  138.8380 C   0  0  0  0  0  2  0  0  0  0  0  0
  188.0080  178.4530  139.5520 C   0  0  2  0  0  3  0  0  0  0  0  0
  191.4140  175.7460  138.2490 Cl  0  0  0  0  0  0  0  0  0  0  0  0
  187.7060  177.0110  139.1360 C   0  0  2  0  0  3  0  0  0  0  0  0
  189.0620  179.0150  138.7020 N   0  0  0  0  0  2  0  0  0  0  0  0
  188.9020  176.2560  138.8180 N   0  0  0  0  0  0  0  0  0  0  0  0
  186.7410  176.9840  137.9530 C   0  0  0  0  0  2  0  0  0  0  0  0
  185.7090  177.9090  138.1700 O   0  0  0  0  0  0  0  0  0  0  0  0
  184.5300  177.2030  137.9210 C   0  0  0  0  0  2  0  0  0  0  0  0
  183.3280  178.1280  138.0220 C   0  0  0  0  0  2  0  0  0  0  0  0
  182.5370  177.8750  139.2710 C   0  0  0  0  0  0  0  0  0  0  0  0
  182.2910  176.6720  139.6480 N   0  0  0  0  0  2  0  0  0  0  0  0
  182.0400  179.0370  140.0760 C   0  0  0  0  0  2  0  0  0  0  0  0
  181.8580  178.9180  142.5820 C   0  0  0  0  0  1  0  0  0  0  0  0
  181.1830  178.5850  141.2540 C   0  0  0  0  0  2  0  0  0  0  0  0
  185.8600  179.0190  141.3740 C   0  0  0  0  0  3  0  0  0  0  0  0
  185.0530  177.8860  141.4620 O   0  0  0  0  0  1  0  0  0  0  0  0
  185.2260  180.0860  142.0130 O   0  0  0  0  0  1  0  0  0  0  0  0
  188.6400  176.8660  142.8500 C   0  0  0  0  0  2  0  0  0  0  0  0
  186.6330  178.9890  147.0920 C   0  0  0  0  0  2  0  0  0  0  0  0
  187.8570  178.1820  147.4160 C   0  0  0  0  0  3  0  0  0  0  0  0
  189.9180  178.1700  144.6490 N   0  0  0  0  0  0  0  0  0  0  0  0
  186.2500  177.3040  145.1120 C   0  0  0  0  0  2  0  0  0  0  0  0
  190.5660  177.1160  145.4480 C   0  0  0  0  0  2  0  0  0  0  0  0
  189.7810  176.8390  146.7490 C   0  0  0  0  0  2  0  0  0  0  0  0
  185.7290  178.3020  146.1060 C   0  0  0  0  0  0  0  0  0  0  0  0
  188.5960  177.7210  144.1310 C   0  0  2  0  0  3  0  0  0  0  0  0
  187.7540  177.0280  145.2200 C   0  0  1  0  0  3  0  0  0  0  0  0
  188.3560  177.2650  146.5790 C   0  0  0  0  0  0  0  0  0  0  0  0
  184.5420  178.5860  146.0930 O   0  0  0  0  0  0  0  0  0  0  0  0
  190.8120  178.6010  143.5730 C   0  0  0  0  0  2  0  0  0  0  0  0
  191.9660  177.4020  141.8640 O   0  0  0  0  0  1  0  0  0  0  0  0
  191.8050  177.4960  143.2420 C   0  0  0  0  0  2  0  0  0  0  0  0
  1  2  1  0  0  0  0
  1 23  1  1  0  0  0
  2 20  1  6  0  0  0
  3  6  1  6  0  0  0
  3  1  1  0  0  0  0
  3  2  1  0  0  0  0
  4 10  2  0  0  0  0
  4  5  1  0  0  0  0
  6  9  1  6  0  0  0
  7  4  1  0  0  0  0
  8 11  1  6  0  0  0
  8  6  1  0  0  0  0
  9  5  1  0  0  0  0
 10  8  1  0  0  0  0
 11 12  1  0  0  0  0
 13 14  1  0  0  0  0
 13 12  1  0  0  0  0
 14 15  1  0  0  0  0
 15 16  2  0  0  0  0
 15 17  1  0  0  0  0
 17 19  1  0  0  0  0
 19 18  1  0  0  0  0
 20 21  1  0  0  0  0
 20 22  1  0  0  0  0
 24 25  1  0  0  0  0
 26 28  1  0  0  0  0
 27 30  1  0  0  0  0
 28 29  1  0  0  0  0
 30 24  1  0  0  0  0
 31 23  1  6  0  0  0
 31 26  1  0  0  0  0
 31 32  1  0  0  0  0
 32 27  1  1  0  0  0
 32 33  1  0  0  0  0
 33 29  1  0  0  0  0
 33 25  2  0  0  0  0
 34 30  2  0  0  0  0
 35 26  1  0  0  0  0
 36 37  1  0  0  0  0
 37 35  1  0  0  0  0
M  END
>  <MODEL>
1

>  <REMARK>
 VINA RESULT:      -6.3      0.000      0.000
  Name = 
  13 active torsions:
  status: ('A' for Active; 'I' for Inactive)
    1  A    between atoms: C_3  and  C_21
    2  A    between atoms: C_3  and  O_37
    3  A    between atoms: C_5  and  C_23
    4  A    between atoms: C_6  and  C_29
    5  A    between atoms: C_6  and  C_34
    6  A    between atoms: N_9  and  C_18
    7  A    between atoms: C_10  and  C_34
    8  A    between atoms: C_10  and  O_37
    9  A    between atoms: C_11  and  C_24
   10  A    between atoms: C_15  and  C_36
   11  A    between atoms: C_16  and  C_18
   12  A    between atoms: C_24  and  C_28
   13  A    between atoms: C_29  and  C_30
                            x       y       z     vdW  Elec       q    Type
                         _______ _______ _______ _____ _____    ______ ____

>  <TORSDO>
F 13

$$$$
=
 OpenBabel11062415313D

 37 40  0  0  1  0  0  0  0  0999 V2000
  187.6070  177.3610  141.7180 C   0  0  1  0  0  3  0  0  0  0  0  0
  187.1280  178.7830  141.9430 C   0  0  1  0  0  3  0  0  0  0  0  0
  188.3040  178.4990  140.9960 C   0  0  2  0  0  3  0  0  0  0  0  0
  190.1620  176.8340  138.6320 C   0  0  0  0  0  0  0  0  0  0  0  0
  190.3080  178.3110  138.8460 C   0  0  0  0  0  2  0  0  0  0  0  0
  187.9950  178.3910  139.4970 C   0  0  2  0  0  3  0  0  0  0  0  0
  191.5860  175.8710  138.3240 Cl  0  0  0  0  0  0  0  0  0  0  0  0
  187.7890  176.9280  139.0960 C   0  0  2  0  0  3  0  0  0  0  0  0
  189.0370  179.0020  138.6660 N   0  0  0  0  0  2  0  0  0  0  0  0
  189.0350  176.2400  138.8210 N   0  0  0  0  0  0  0  0  0  0  0  0
  186.8600  176.8280  137.8890 C   0  0  0  0  0  2  0  0  0  0  0  0
  185.8640  177.8140  137.9820 O   0  0  0  0  0  0  0  0  0  0  0  0
  184.6590  177.1300  137.8060 C   0  0  0  0  0  2  0  0  0  0  0  0
  184.8940  175.8300  137.0530 C   0  0  0  0  0  2  0  0  0  0  0  0
  183.8730  174.7920  137.4090 C   0  0  0  0  0  0  0  0  0  0  0  0
  182.6660  175.1370  137.6790 N   0  0  0  0  0  2  0  0  0  0  0  0
  184.2720  173.3480  137.4440 C   0  0  0  0  0  2  0  0  0  0  0  0
  186.3820  172.4090  136.4470 C   0  0  0  0  0  1  0  0  0  0  0  0
  185.7780  173.1790  137.6180 C   0  0  0  0  0  2  0  0  0  0  0  0
  185.8030  179.0480  141.2340 C   0  0  0  0  0  3  0  0  0  0  0  0
  185.0200  177.8950  141.2350 O   0  0  0  0  0  1  0  0  0  0  0  0
  185.1150  180.0700  141.8890 O   0  0  0  0  0  1  0  0  0  0  0  0
  188.5010  176.8990  142.8610 C   0  0  0  0  0  2  0  0  0  0  0  0
  186.3060  179.1210  146.9570 C   0  0  0  0  0  2  0  0  0  0  0  0
  187.4930  178.2940  147.3580 C   0  0  0  0  0  3  0  0  0  0  0  0
  189.7040  178.2020  144.7110 N   0  0  0  0  0  0  0  0  0  0  0  0
  185.9980  177.4160  144.9800 C   0  0  0  0  0  2  0  0  0  0  0  0
  190.2850  177.1460  145.5580 C   0  0  0  0  0  2  0  0  0  0  0  0
  189.4230  176.9040  146.8170 C   0  0  0  0  0  2  0  0  0  0  0  0
  185.4440  178.4380  145.9310 C   0  0  0  0  0  0  0  0  0  0  0  0
  188.4030  177.7720  144.1260 C   0  0  2  0  0  3  0  0  0  0  0  0
  187.4890  177.1110  145.1750 C   0  0  1  0  0  3  0  0  0  0  0  0
  188.0190  177.3560  146.5620 C   0  0  0  0  0  0  0  0  0  0  0  0
  184.2650  178.7460  145.8480 O   0  0  0  0  0  0  0  0  0  0  0  0
  190.6650  178.6010  143.6820 C   0  0  0  0  0  2  0  0  0  0  0  0
  191.9600  177.1990  142.2490 O   0  0  0  0  0  1  0  0  0  0  0  0
  191.7800  177.5690  143.5780 C   0  0  0  0  0  2  0  0  0  0  0  0
  1  2  1  0  0  0  0
  1 23  1  1  0  0  0
  2 20  1  6  0  0  0
  3  6  1  6  0  0  0
  3  1  1  0  0  0  0
  3  2  1  0  0  0  0
  4 10  2  0  0  0  0
  4  5  1  0  0  0  0
  6  9  1  6  0  0  0
  7  4  1  0  0  0  0
  8 11  1  6  0  0  0
  8  6  1  0  0  0  0
  9  5  1  0  0  0  0
 10  8  1  0  0  0  0
 11 12  1  0  0  0  0
 13 12  1  0  0  0  0
 14 15  1  0  0  0  0
 14 13  1  0  0  0  0
 15 17  1  0  0  0  0
 15 16  2  0  0  0  0
 17 19  1  0  0  0  0
 18 19  1  0  0  0  0
 20 21  1  0  0  0  0
 20 22  1  0  0  0  0
 24 25  1  0  0  0  0
 26 28  1  0  0  0  0
 27 30  1  0  0  0  0
 28 29  1  0  0  0  0
 30 24  1  0  0  0  0
 31 23  1  6  0  0  0
 31 26  1  0  0  0  0
 31 32  1  0  0  0  0
 32 27  1  1  0  0  0
 32 33  1  0  0  0  0
 33 29  1  0  0  0  0
 33 25  2  0  0  0  0
 34 30  2  0  0  0  0
 35 26  1  0  0  0  0
 36 37  1  0  0  0  0
 37 35  1  0  0  0  0
M  END
>  <MODEL>
2

>  <REMARK>
 VINA RESULT:      -6.2      1.403      2.547
  Name = 
  13 active torsions:
  status: ('A' for Active; 'I' for Inactive)
    1  A    between atoms: C_3  and  C_21
    2  A    between atoms: C_3  and  O_37
    3  A    between atoms: C_5  and  C_23
    4  A    between atoms: C_6  and  C_29
    5  A    between atoms: C_6  and  C_34
    6  A    between atoms: N_9  and  C_18
    7  A    between atoms: C_10  and  C_34
    8  A    between atoms: C_10  and  O_37
    9  A    between atoms: C_11  and  C_24
   10  A    between atoms: C_15  and  C_36
   11  A    between atoms: C_16  and  C_18
   12  A    between atoms: C_24  and  C_28
   13  A    between atoms: C_29  and  C_30
                            x       y       z     vdW  Elec       q    Type
                         _______ _______ _______ _____ _____    ______ ____

>  <TORSDO>
F 13

$$$$
=
 OpenBabel11062415313D

 37 40  0  0  1  0  0  0  0  0999 V2000
  184.7310  176.7380  137.9510 C   0  0  1  0  0  3  0  0  0  0  0  0
  185.6820  177.6280  137.1730 C   0  0  1  0  0  3  0  0  0  0  0  0
  184.3910  178.2070  137.7750 C   0  0  2  0  0  3  0  0  0  0  0  0
  181.7980  179.4860  139.6320 C   0  0  0  0  0  0  0  0  0  0  0  0
  182.6270  180.3590  138.7380 C   0  0  0  0  0  2  0  0  0  0  0  0
  184.4970  178.9020  139.1380 C   0  0  2  0  0  3  0  0  0  0  0  0
  180.0740  179.7490  139.7230 Cl  0  0  0  0  0  0  0  0  0  0  0  0
  183.7150  178.1230  140.1990 C   0  0  2  0  0  3  0  0  0  0  0  0
  184.0400  180.2940  139.0930 N   0  0  0  0  0  2  0  0  0  0  0  0
  182.3040  178.4550  140.2140 N   0  0  0  0  0  0  0  0  0  0  0  0
  184.3190  178.3470  141.5840 C   0  0  0  0  0  2  0  0  0  0  0  0
  183.2890  178.4640  142.5300 O   0  0  0  0  0  0  0  0  0  0  0  0
  183.8830  179.0670  143.6410 C   0  0  0  0  0  2  0  0  0  0  0  0
  185.1510  178.3240  144.0300 C   0  0  0  0  0  2  0  0  0  0  0  0
  185.4270  178.4310  145.5000 C   0  0  0  0  0  0  0  0  0  0  0  0
  184.5450  178.9300  146.2890 N   0  0  0  0  0  2  0  0  0  0  0  0
  186.7380  177.9470  146.0410 C   0  0  0  0  0  2  0  0  0  0  0  0
  189.0560  177.1400  145.4920 C   0  0  0  0  0  1  0  0  0  0  0  0
  187.7020  177.5540  144.9250 C   0  0  0  0  0  2  0  0  0  0  0  0
  186.9420  177.9400  137.9750 C   0  0  0  0  0  3  0  0  0  0  0  0
  187.7660  176.8180  138.0270 O   0  0  0  0  0  1  0  0  0  0  0  0
  187.6340  178.9920  137.3720 O   0  0  0  0  0  1  0  0  0  0  0  0
  183.8500  175.9270  137.0110 C   0  0  0  0  0  2  0  0  0  0  0  0
  179.7710  174.0490  139.5330 C   0  0  0  0  0  2  0  0  0  0  0  0
  180.0130  173.2970  138.2570 C   0  0  0  0  0  3  0  0  0  0  0  0
  183.3800  173.4590  137.5190 N   0  0  0  0  0  0  0  0  0  0  0  0
  180.8000  176.1320  138.3050 C   0  0  0  0  0  2  0  0  0  0  0  0
  182.8690  172.9320  136.2420 C   0  0  0  0  0  2  0  0  0  0  0  0
  181.3280  172.8330  136.2550 C   0  0  0  0  0  2  0  0  0  0  0  0
  179.9220  175.5360  139.3670 C   0  0  0  0  0  0  0  0  0  0  0  0
  182.9730  174.8770  137.7210 C   0  0  2  0  0  3  0  0  0  0  0  0
  181.4840  175.1030  137.3970 C   0  0  1  0  0  3  0  0  0  0  0  0
  180.7700  173.7840  137.2670 C   0  0  0  0  0  0  0  0  0  0  0  0
  179.3380  176.2810  140.1390 O   0  0  0  0  0  0  0  0  0  0  0  0
  184.8320  173.2890  137.5840 C   0  0  0  0  0  2  0  0  0  0  0  0
  186.1830  173.4510  135.6240 O   0  0  0  0  0  1  0  0  0  0  0  0
  185.3360  172.5990  136.3240 C   0  0  0  0  0  2  0  0  0  0  0  0
  1 23  1  6  0  0  0
  2  3  1  0  0  0  0
  2  1  1  0  0  0  0
  2 20  1  1  0  0  0
  3  1  1  0  0  0  0
  3  6  1  1  0  0  0
  4  7  1  0  0  0  0
  4 10  2  0  0  0  0
  5  9  1  0  0  0  0
  5  4  1  0  0  0  0
  6  9  1  6  0  0  0
  6  8  1  0  0  0  0
  8 10  1  0  0  0  0
  8 11  1  1  0  0  0
 11 12  1  0  0  0  0
 12 13  1  0  0  0  0
 13 14  1  0  0  0  0
 14 15  1  0  0  0  0
 15 17  1  0  0  0  0
 15 16  2  0  0  0  0
 19 18  1  0  0  0  0
 19 17  1  0  0  0  0
 20 21  1  0  0  0  0
 22 20  1  0  0  0  0
 25 24  1  0  0  0  0
 26 35  1  0  0  0  0
 26 31  1  0  0  0  0
 27 30  1  0  0  0  0
 28 29  1  0  0  0  0
 28 26  1  0  0  0  0
 29 33  1  0  0  0  0
 30 24  1  0  0  0  0
 30 34  2  0  0  0  0
 31 23  1  6  0  0  0
 32 31  1  0  0  0  0
 32 27  1  1  0  0  0
 33 32  1  0  0  0  0
 33 25  2  0  0  0  0
 36 37  1  0  0  0  0
 37 35  1  0  0  0  0
M  END
>  <MODEL>
3

>  <REMARK>
 VINA RESULT:      -6.1      3.805      8.453
  Name = 
  13 active torsions:
  status: ('A' for Active; 'I' for Inactive)
    1  A    between atoms: C_3  and  C_21
    2  A    between atoms: C_3  and  O_37
    3  A    between atoms: C_5  and  C_23
    4  A    between atoms: C_6  and  C_29
    5  A    between atoms: C_6  and  C_34
    6  A    between atoms: N_9  and  C_18
    7  A    between atoms: C_10  and  C_34
    8  A    between atoms: C_10  and  O_37
    9  A    between atoms: C_11  and  C_24
   10  A    between atoms: C_15  and  C_36
   11  A    between atoms: C_16  and  C_18
   12  A    between atoms: C_24  and  C_28
   13  A    between atoms: C_29  and  C_30
                            x       y       z     vdW  Elec       q    Type
                         _______ _______ _______ _____ _____    ______ ____

>  <TORSDO>
F 13

$$$$
=
 OpenBabel11062415313D

 37 40  0  0  1  0  0  0  0  0999 V2000
  184.0760  176.2640  138.1990 C   0  0  1  0  0  3  0  0  0  0  0  0
  184.4410  176.9520  136.8960 C   0  0  1  0  0  3  0  0  0  0  0  0
  183.4060  177.5790  137.8450 C   0  0  2  0  0  3  0  0  0  0  0  0
  181.6070  179.0310  140.3870 C   0  0  0  0  0  0  0  0  0  0  0  0
  181.7410  179.6900  139.0470 C   0  0  0  0  0  2  0  0  0  0  0  0
  183.9010  178.6590  138.8160 C   0  0  2  0  0  3  0  0  0  0  0  0
  180.0740  179.0970  141.2220 Cl  0  0  0  0  0  0  0  0  0  0  0  0
  183.8550  178.1450  140.2570 C   0  0  2  0  0  3  0  0  0  0  0  0
  183.1400  179.9060  138.6990 N   0  0  0  0  0  2  0  0  0  0  0  0
  182.5470  178.2910  140.8650 N   0  0  0  0  0  0  0  0  0  0  0  0
  184.9080  178.8460  141.1110 C   0  0  0  0  0  2  0  0  0  0  0  0
  186.1300  178.8720  140.4190 O   0  0  0  0  0  0  0  0  0  0  0  0
  187.0950  178.5400  141.3730 C   0  0  0  0  0  2  0  0  0  0  0  0
  186.4340  178.2190  142.7040 C   0  0  0  0  0  2  0  0  0  0  0  0
  187.2820  177.3070  143.5380 C   0  0  0  0  0  0  0  0  0  0  0  0
  188.0990  176.4910  142.9770 N   0  0  0  0  0  2  0  0  0  0  0  0
  187.1690  177.3570  145.0310 C   0  0  0  0  0  2  0  0  0  0  0  0
  188.3960  177.5870  147.2150 C   0  0  0  0  0  1  0  0  0  0  0  0
  188.5210  177.6030  145.6940 C   0  0  0  0  0  2  0  0  0  0  0  0
  185.8240  177.5920  136.9680 C   0  0  0  0  0  3  0  0  0  0  0  0
  186.7130  176.7390  137.6190 O   0  0  0  0  0  1  0  0  0  0  0  0
  186.2920  177.8440  135.6770 O   0  0  0  0  0  1  0  0  0  0  0  0
  183.0790  175.1390  137.9610 C   0  0  0  0  0  2  0  0  0  0  0  0
  186.0310  171.7280  135.4740 C   0  0  0  0  0  2  0  0  0  0  0  0
  184.6720  171.1600  135.7650 C   0  0  0  0  0  3  0  0  0  0  0  0
  182.4100  173.7610  135.9060 N   0  0  0  0  0  0  0  0  0  0  0  0
  185.7210  173.1510  137.6620 C   0  0  0  0  0  2  0  0  0  0  0  0
  181.5820  172.6790  136.4670 C   0  0  0  0  0  2  0  0  0  0  0  0
  182.3910  171.3710  136.6050 C   0  0  0  0  0  2  0  0  0  0  0  0
  186.6000  172.4960  136.6360 C   0  0  0  0  0  0  0  0  0  0  0  0
  183.4930  174.1570  136.8480 C   0  0  2  0  0  3  0  0  0  0  0  0
  184.2180  172.9350  137.4410 C   0  0  1  0  0  3  0  0  0  0  0  0
  183.8530  171.6880  136.6820 C   0  0  0  0  0  0  0  0  0  0  0  0
  187.8110  172.6160  136.7300 O   0  0  0  0  0  0  0  0  0  0  0  0
  181.5630  174.8950  135.5330 C   0  0  0  0  0  2  0  0  0  0  0  0
  179.6550  175.4610  136.8500 O   0  0  0  0  0  1  0  0  0  0  0  0
  180.1070  174.5930  135.8630 C   0  0  0  0  0  2  0  0  0  0  0  0
  1 23  1  6  0  0  0
  2 20  1  1  0  0  0
  2  3  1  0  0  0  0
  2  1  1  0  0  0  0
  3  1  1  0  0  0  0
  3  6  1  1  0  0  0
  4 10  2  0  0  0  0
  4  7  1  0  0  0  0
  5  4  1  0  0  0  0
  6  9  1  1  0  0  0
  6  8  1  0  0  0  0
  8 10  1  0  0  0  0
  8 11  1  1  0  0  0
  9  5  1  0  0  0  0
 12 11  1  0  0  0  0
 12 13  1  0  0  0  0
 13 14  1  0  0  0  0
 14 15  1  0  0  0  0
 15 17  1  0  0  0  0
 16 15  2  0  0  0  0
 17 19  1  0  0  0  0
 19 18  1  0  0  0  0
 20 21  1  0  0  0  0
 22 20  1  0  0  0  0
 24 25  1  0  0  0  0
 24 30  1  0  0  0  0
 25 33  2  0  0  0  0
 26 28  1  0  0  0  0
 26 31  1  0  0  0  0
 28 29  1  0  0  0  0
 29 33  1  0  0  0  0
 30 34  2  0  0  0  0
 30 27  1  0  0  0  0
 31 32  1  0  0  0  0
 31 23  1  1  0  0  0
 32 27  1  6  0  0  0
 33 32  1  0  0  0  0
 35 37  1  0  0  0  0
 35 26  1  0  0  0  0
 37 36  1  0  0  0  0
M  END
>  <MODEL>
4

>  <REMARK>
 VINA RESULT:      -5.8      4.048      9.201
  Name = 
  13 active torsions:
  status: ('A' for Active; 'I' for Inactive)
    1  A    between atoms: C_3  and  C_21
    2  A    between atoms: C_3  and  O_37
    3  A    between atoms: C_5  and  C_23
    4  A    between atoms: C_6  and  C_29
    5  A    between atoms: C_6  and  C_34
    6  A    between atoms: N_9  and  C_18
    7  A    between atoms: C_10  and  C_34
    8  A    between atoms: C_10  and  O_37
    9  A    between atoms: C_11  and  C_24
   10  A    between atoms: C_15  and  C_36
   11  A    between atoms: C_16  and  C_18
   12  A    between atoms: C_24  and  C_28
   13  A    between atoms: C_29  and  C_30
                            x       y       z     vdW  Elec       q    Type
                         _______ _______ _______ _____ _____    ______ ____

>  <TORSDO>
F 13

$$$$
=
 OpenBabel11062415313D

 37 40  0  0  1  0  0  0  0  0999 V2000
  183.8580  177.6020  140.5240 C   0  0  1  0  0  3  0  0  0  0  0  0
  183.4100  179.0070  140.1660 C   0  0  1  0  0  3  0  0  0  0  0  0
  183.7910  178.6560  141.6130 C   0  0  2  0  0  3  0  0  0  0  0  0
  184.9630  178.6840  144.8440 C   0  0  0  0  0  0  0  0  0  0  0  0
  184.5240  179.9430  144.1580 C   0  0  0  0  0  2  0  0  0  0  0  0
  185.2200  178.9840  142.0670 C   0  0  2  0  0  3  0  0  0  0  0  0
  184.5690  178.4470  146.5290 Cl  0  0  0  0  0  0  0  0  0  0  0  0
  185.8450  177.7820  142.7790 C   0  0  2  0  0  3  0  0  0  0  0  0
  185.2740  180.1690  142.9290 N   0  0  0  0  0  2  0  0  0  0  0  0
  185.4870  177.7110  144.1820 N   0  0  0  0  0  0  0  0  0  0  0  0
  187.3650  177.8000  142.6290 C   0  0  0  0  0  2  0  0  0  0  0  0
  187.9600  177.4530  143.8520 O   0  0  0  0  0  0  0  0  0  0  0  0
  189.3070  177.7970  143.7110 C   0  0  0  0  0  2  0  0  0  0  0  0
  189.8730  178.2720  145.0390 C   0  0  0  0  0  2  0  0  0  0  0  0
  190.5600  177.1630  145.7770 C   0  0  0  0  0  0  0  0  0  0  0  0
  191.5650  176.5610  145.2500 N   0  0  0  0  0  2  0  0  0  0  0  0
  190.0660  176.7650  147.1340 C   0  0  0  0  0  2  0  0  0  0  0  0
  188.4610  178.1980  148.4370 C   0  0  0  0  0  1  0  0  0  0  0  0
  188.6040  177.1460  147.3410 C   0  0  0  0  0  2  0  0  0  0  0  0
  184.4910  179.7630  139.3990 C   0  0  0  0  0  3  0  0  0  0  0  0
  185.0230  178.9530  138.3970 O   0  0  0  0  0  1  0  0  0  0  0  0
  183.9420  180.9090  138.8210 O   0  0  0  0  0  1  0  0  0  0  0  0
  182.6640  176.6720  140.6830 C   0  0  0  0  0  2  0  0  0  0  0  0
  180.6080  176.8330  135.9630 C   0  0  0  0  0  2  0  0  0  0  0  0
  179.8790  175.8570  136.8390 C   0  0  0  0  0  3  0  0  0  0  0  0
  180.1750  176.9010  140.1140 N   0  0  0  0  0  0  0  0  0  0  0  0
  182.7410  176.2640  137.3890 C   0  0  0  0  0  2  0  0  0  0  0  0
  179.6420  175.5450  140.3320 C   0  0  0  0  0  2  0  0  0  0  0  0
  179.4850  174.7870  138.9960 C   0  0  0  0  0  2  0  0  0  0  0  0
  182.1020  176.7500  136.1200 C   0  0  0  0  0  0  0  0  0  0  0  0
  181.5750  176.8580  139.6090 C   0  0  2  0  0  3  0  0  0  0  0  0
  181.7480  175.8300  138.4740 C   0  0  1  0  0  3  0  0  0  0  0  0
  180.4050  175.3740  137.9710 C   0  0  0  0  0  0  0  0  0  0  0  0
  182.8160  177.1190  135.2010 O   0  0  0  0  0  0  0  0  0  0  0  0
  180.0590  177.6860  141.3450 C   0  0  0  0  0  2  0  0  0  0  0  0
  178.9340  179.1500  139.8340 O   0  0  0  0  0  1  0  0  0  0  0  0
  179.6620  179.1190  141.0180 C   0  0  0  0  0  2  0  0  0  0  0  0
  1 23  1  1  0  0  0
  1  3  1  0  0  0  0
  2 20  1  6  0  0  0
  2  1  1  0  0  0  0
  2  3  1  0  0  0  0
  3  6  1  6  0  0  0
  4  7  1  0  0  0  0
  5  4  1  0  0  0  0
  6  8  1  0  0  0  0
  6  9  1  1  0  0  0
  8 11  1  1  0  0  0
  8 10  1  0  0  0  0
  9  5  1  0  0  0  0
 10  4  2  0  0  0  0
 11 12  1  0  0  0  0
 13 12  1  0  0  0  0
 13 14  1  0  0  0  0
 14 15  1  0  0  0  0
 15 17  1  0  0  0  0
 16 15  2  0  0  0  0
 17 19  1  0  0  0  0
 19 18  1  0  0  0  0
 21 20  1  0  0  0  0
 22 20  1  0  0  0  0
 24 30  1  0  0  0  0
 24 25  1  0  0  0  0
 25 33  2  0  0  0  0
 26 28  1  0  0  0  0
 26 35  1  0  0  0  0
 29 28  1  0  0  0  0
 30 27  1  0  0  0  0
 31 26  1  0  0  0  0
 31 23  1  1  0  0  0
 32 27  1  6  0  0  0
 32 31  1  0  0  0  0
 33 32  1  0  0  0  0
 33 29  1  0  0  0  0
 34 30  2  0  0  0  0
 36 37  1  0  0  0  0
 37 35  1  0  0  0  0
M  END
>  <MODEL>
5

>  <REMARK>
 VINA RESULT:      -5.7      3.352      9.088
  Name = 
  13 active torsions:
  status: ('A' for Active; 'I' for Inactive)
    1  A    between atoms: C_3  and  C_21
    2  A    between atoms: C_3  and  O_37
    3  A    between atoms: C_5  and  C_23
    4  A    between atoms: C_6  and  C_29
    5  A    between atoms: C_6  and  C_34
    6  A    between atoms: N_9  and  C_18
    7  A    between atoms: C_10  and  C_34
    8  A    between atoms: C_10  and  O_37
    9  A    between atoms: C_11  and  C_24
   10  A    between atoms: C_15  and  C_36
   11  A    between atoms: C_16  and  C_18
   12  A    between atoms: C_24  and  C_28
   13  A    between atoms: C_29  and  C_30
                            x       y       z     vdW  Elec       q    Type
                         _______ _______ _______ _____ _____    ______ ____

>  <TORSDO>
F 13

$$$$
=
 OpenBabel11062415313D

 37 40  0  0  1  0  0  0  0  0999 V2000
  185.3660  177.8740  142.2120 C   0  0  1  0  0  3  0  0  0  0  0  0
  185.5100  179.2700  142.7890 C   0  0  1  0  0  3  0  0  0  0  0  0
  185.3410  179.0660  141.2750 C   0  0  2  0  0  3  0  0  0  0  0  0
  184.1710  177.6760  138.3580 C   0  0  0  0  0  0  0  0  0  0  0  0
  184.6600  179.0930  138.4100 C   0  0  0  0  0  2  0  0  0  0  0  0
  183.9260  179.2060  140.6960 C   0  0  2  0  0  3  0  0  0  0  0  0
  184.5540  176.6910  136.9680 Cl  0  0  0  0  0  0  0  0  0  0  0  0
  183.2530  177.8350  140.5910 C   0  0  2  0  0  3  0  0  0  0  0  0
  183.9190  179.8750  139.3920 N   0  0  0  0  0  2  0  0  0  0  0  0
  183.6080  177.1260  139.3770 N   0  0  0  0  0  0  0  0  0  0  0  0
  181.7360  177.9730  140.6900 C   0  0  0  0  0  2  0  0  0  0  0  0
  181.4180  179.1380  141.4060 O   0  0  0  0  0  0  0  0  0  0  0  0
  180.1790  179.5450  140.9050 C   0  0  0  0  0  2  0  0  0  0  0  0
  180.2880  179.8670  139.4230 C   0  0  0  0  0  2  0  0  0  0  0  0
  180.0970  181.3300  139.1580 C   0  0  0  0  0  0  0  0  0  0  0  0
  179.2180  181.9970  139.8150 N   0  0  0  0  0  2  0  0  0  0  0  0
  180.9420  182.0070  138.1220 C   0  0  0  0  0  2  0  0  0  0  0  0
  181.1700  183.9700  136.5670 C   0  0  0  0  0  1  0  0  0  0  0  0
  180.3310  183.3290  137.6670 C   0  0  0  0  0  2  0  0  0  0  0  0
  184.2390  179.7140  143.5070 C   0  0  0  0  0  3  0  0  0  0  0  0
  183.5870  178.6110  144.0540 O   0  0  0  0  0  1  0  0  0  0  0  0
  184.5650  180.6090  144.5270 O   0  0  0  0  0  1  0  0  0  0  0  0
  186.7220  177.1940  142.0860 C   0  0  0  0  0  2  0  0  0  0  0  0
  188.9380  178.3270  146.5950 C   0  0  0  0  0  2  0  0  0  0  0  0
  189.8310  177.4620  145.7540 C   0  0  0  0  0  3  0  0  0  0  0  0
  189.1100  178.0580  142.4330 N   0  0  0  0  0  0  0  0  0  0  0  0
  186.9290  177.1270  145.3980 C   0  0  0  0  0  2  0  0  0  0  0  0
  189.9410  176.8490  142.2950 C   0  0  0  0  0  2  0  0  0  0  0  0
  190.3510  176.2930  143.6760 C   0  0  0  0  0  2  0  0  0  0  0  0
  187.5020  177.8800  146.5640 C   0  0  0  0  0  0  0  0  0  0  0  0
  187.7920  177.7410  143.0490 C   0  0  2  0  0  3  0  0  0  0  0  0
  187.9360  176.8270  144.2810 C   0  0  1  0  0  3  0  0  0  0  0  0
  189.3750  176.7530  144.7150 C   0  0  0  0  0  0  0  0  0  0  0  0
  186.7720  178.1650  147.5010 O   0  0  0  0  0  0  0  0  0  0  0  0
  188.9650  178.7140  141.1320 C   0  0  0  0  0  2  0  0  0  0  0  0
  188.6650  177.3940  139.1680 O   0  0  0  0  0  1  0  0  0  0  0  0
  189.6280  177.8790  140.0460 C   0  0  0  0  0  2  0  0  0  0  0  0
  1 23  1  6  0  0  0
  1  2  1  0  0  0  0
  2 20  1  1  0  0  0
  3  6  1  1  0  0  0
  3  1  1  0  0  0  0
  3  2  1  0  0  0  0
  4  5  1  0  0  0  0
  4 10  2  0  0  0  0
  5  9  1  0  0  0  0
  6  9  1  6  0  0  0
  7  4  1  0  0  0  0
  8 11  1  6  0  0  0
  8  6  1  0  0  0  0
 10  8  1  0  0  0  0
 11 12  1  0  0  0  0
 13 12  1  0  0  0  0
 14 13  1  0  0  0  0
 15 14  1  0  0  0  0
 15 16  2  0  0  0  0
 17 15  1  0  0  0  0
 18 19  1  0  0  0  0
 19 17  1  0  0  0  0
 20 21  1  0  0  0  0
 20 22  1  0  0  0  0
 25 24  1  0  0  0  0
 26 31  1  0  0  0  0
 27 30  1  0  0  0  0
 28 26  1  0  0  0  0
 28 29  1  0  0  0  0
 29 33  1  0  0  0  0
 30 24  1  0  0  0  0
 30 34  2  0  0  0  0
 31 23  1  6  0  0  0
 31 32  1  0  0  0  0
 32 33  1  0  0  0  0
 32 27  1  1  0  0  0
 33 25  2  0  0  0  0
 35 26  1  0  0  0  0
 36 37  1  0  0  0  0
 37 35  1  0  0  0  0
M  END
>  <MODEL>
6

>  <REMARK>
 VINA RESULT:      -5.5      2.780      4.169
  Name = 
  13 active torsions:
  status: ('A' for Active; 'I' for Inactive)
    1  A    between atoms: C_3  and  C_21
    2  A    between atoms: C_3  and  O_37
    3  A    between atoms: C_5  and  C_23
    4  A    between atoms: C_6  and  C_29
    5  A    between atoms: C_6  and  C_34
    6  A    between atoms: N_9  and  C_18
    7  A    between atoms: C_10  and  C_34
    8  A    between atoms: C_10  and  O_37
    9  A    between atoms: C_11  and  C_24
   10  A    between atoms: C_15  and  C_36
   11  A    between atoms: C_16  and  C_18
   12  A    between atoms: C_24  and  C_28
   13  A    between atoms: C_29  and  C_30
                            x       y       z     vdW  Elec       q    Type
                         _______ _______ _______ _____ _____    ______ ____

>  <TORSDO>
F 13

$$$$
=
 OpenBabel11062415313D

 37 40  0  0  1  0  0  0  0  0999 V2000
  189.2030  177.1970  139.3820 C   0  0  1  0  0  3  0  0  0  0  0  0
  189.6330  178.4680  138.6740 C   0  0  1  0  0  3  0  0  0  0  0  0
  190.3910  177.1520  138.4400 C   0  0  2  0  0  3  0  0  0  0  0  0
  192.1620  174.5310  137.0950 C   0  0  0  0  0  0  0  0  0  0  0  0
  192.2860  175.9220  136.5490 C   0  0  0  0  0  2  0  0  0  0  0  0
  190.0080  176.3250  137.2050 C   0  0  2  0  0  3  0  0  0  0  0  0
  193.5890  173.5320  137.2200 Cl  0  0  0  0  0  0  0  0  0  0  0  0
  189.8140  174.8550  137.5840 C   0  0  2  0  0  3  0  0  0  0  0  0
  190.9930  176.4440  136.1250 N   0  0  0  0  0  2  0  0  0  0  0  0
  191.0590  174.1120  137.6130 N   0  0  0  0  0  0  0  0  0  0  0  0
  188.8260  174.1810  136.6340 C   0  0  0  0  0  2  0  0  0  0  0  0
  187.7820  175.0720  136.3370 O   0  0  0  0  0  0  0  0  0  0  0  0
  186.7570  174.7380  137.2250 C   0  0  0  0  0  2  0  0  0  0  0  0
  185.5370  174.2450  136.4630 C   0  0  0  0  0  2  0  0  0  0  0  0
  184.3360  175.1020  136.7270 C   0  0  0  0  0  0  0  0  0  0  0  0
  183.1840  174.5640  136.9060 N   0  0  0  0  0  2  0  0  0  0  0  0
  184.4920  176.5910  136.7820 C   0  0  0  0  0  2  0  0  0  0  0  0
  182.9420  178.2580  137.8520 C   0  0  0  0  0  1  0  0  0  0  0  0
  183.9790  177.1670  138.0990 C   0  0  0  0  0  2  0  0  0  0  0  0
  188.6660  178.8420  137.5540 C   0  0  0  0  0  3  0  0  0  0  0  0
  187.3520  178.6190  137.9610 O   0  0  0  0  0  1  0  0  0  0  0  0
  188.8240  180.1890  137.2270 O   0  0  0  0  0  1  0  0  0  0  0  0
  189.7240  177.1660  140.8120 C   0  0  0  0  0  2  0  0  0  0  0  0
  185.5710  179.6010  142.6440 C   0  0  0  0  0  2  0  0  0  0  0  0
  186.0150  178.5100  143.5740 C   0  0  0  0  0  3  0  0  0  0  0  0
  189.4150  178.0670  143.1910 N   0  0  0  0  0  0  0  0  0  0  0  0
  186.5450  178.1160  140.7060 C   0  0  0  0  0  2  0  0  0  0  0  0
  189.0940  176.8640  143.9790 C   0  0  0  0  0  2  0  0  0  0  0  0
  187.5750  176.7540  144.2350 C   0  0  0  0  0  2  0  0  0  0  0  0
  185.6110  179.1840  141.1990 C   0  0  0  0  0  0  0  0  0  0  0  0
  188.8690  177.9700  141.8100 C   0  0  2  0  0  3  0  0  0  0  0  0
  187.4100  177.4750  141.7990 C   0  0  1  0  0  3  0  0  0  0  0  0
  186.8300  177.5210  143.1870 C   0  0  0  0  0  0  0  0  0  0  0  0
  184.8850  179.7510  140.3990 O   0  0  0  0  0  0  0  0  0  0  0  0
  190.8610  178.2940  143.1960 C   0  0  0  0  0  2  0  0  0  0  0  0
  192.0550  176.2320  143.3120 O   0  0  0  0  0  1  0  0  0  0  0  0
  191.5500  177.2700  144.0870 C   0  0  0  0  0  2  0  0  0  0  0  0
  1 23  1  1  0  0  0
  2 20  1  6  0  0  0
  2  1  1  0  0  0  0
  3  6  1  6  0  0  0
  3  2  1  0  0  0  0
  3  1  1  0  0  0  0
  4  7  1  0  0  0  0
  4 10  2  0  0  0  0
  5  4  1  0  0  0  0
  6  9  1  6  0  0  0
  6  8  1  0  0  0  0
  8 11  1  6  0  0  0
  8 10  1  0  0  0  0
  9  5  1  0  0  0  0
 12 11  1  0  0  0  0
 12 13  1  0  0  0  0
 14 15  1  0  0  0  0
 14 13  1  0  0  0  0
 15 17  1  0  0  0  0
 15 16  2  0  0  0  0
 17 19  1  0  0  0  0
 18 19  1  0  0  0  0
 20 21  1  0  0  0  0
 22 20  1  0  0  0  0
 24 25  1  0  0  0  0
 26 35  1  0  0  0  0
 26 28  1  0  0  0  0
 27 30  1  0  0  0  0
 28 29  1  0  0  0  0
 30 24  1  0  0  0  0
 31 23  1  6  0  0  0
 31 26  1  0  0  0  0
 32 27  1  6  0  0  0
 32 31  1  0  0  0  0
 32 33  1  0  0  0  0
 33 25  2  0  0  0  0
 33 29  1  0  0  0  0
 34 30  2  0  0  0  0
 35 37  1  0  0  0  0
 36 37  1  0  0  0  0
M  END
>  <MODEL>
7

>  <REMARK>
 VINA RESULT:      -5.5      2.390      3.830
  Name = 
  13 active torsions:
  status: ('A' for Active; 'I' for Inactive)
    1  A    between atoms: C_3  and  C_21
    2  A    between atoms: C_3  and  O_37
    3  A    between atoms: C_5  and  C_23
    4  A    between atoms: C_6  and  C_29
    5  A    between atoms: C_6  and  C_34
    6  A    between atoms: N_9  and  C_18
    7  A    between atoms: C_10  and  C_34
    8  A    between atoms: C_10  and  O_37
    9  A    between atoms: C_11  and  C_24
   10  A    between atoms: C_15  and  C_36
   11  A    between atoms: C_16  and  C_18
   12  A    between atoms: C_24  and  C_28
   13  A    between atoms: C_29  and  C_30
                            x       y       z     vdW  Elec       q    Type
                         _______ _______ _______ _____ _____    ______ ____

>  <TORSDO>
F 13

$$$$
=
 OpenBabel11062415313D

 37 40  0  0  1  0  0  0  0  0999 V2000
  189.1340  177.1380  139.6450 C   0  0  1  0  0  3  0  0  0  0  0  0
  189.4250  178.4750  138.9910 C   0  0  1  0  0  3  0  0  0  0  0  0
  190.3690  177.2810  138.7760 C   0  0  2  0  0  3  0  0  0  0  0  0
  192.5070  174.8880  137.5460 C   0  0  0  0  0  0  0  0  0  0  0  0
  192.5260  176.2960  137.0300 C   0  0  0  0  0  2  0  0  0  0  0  0
  190.1740  176.4450  137.5040 C   0  0  2  0  0  3  0  0  0  0  0  0
  194.0170  174.0410  137.7740 Cl  0  0  0  0  0  0  0  0  0  0  0  0
  190.1070  174.9550  137.8480 C   0  0  2  0  0  3  0  0  0  0  0  0
  191.2230  176.6890  136.5090 N   0  0  0  0  0  2  0  0  0  0  0  0
  191.4170  174.3460  137.9680 N   0  0  0  0  0  0  0  0  0  0  0  0
  189.2740  174.2020  136.8130 C   0  0  0  0  0  2  0  0  0  0  0  0
  188.5410  175.1210  136.0450 O   0  0  0  0  0  0  0  0  0  0  0  0
  187.2010  174.8310  136.3130 C   0  0  0  0  0  2  0  0  0  0  0  0
  187.0560  173.3940  136.7890 C   0  0  0  0  0  2  0  0  0  0  0  0
  185.6190  172.9740  136.8520 C   0  0  0  0  0  0  0  0  0  0  0  0
  184.9850  173.0010  137.9680 N   0  0  0  0  0  2  0  0  0  0  0  0
  184.9270  172.5250  135.6010 C   0  0  0  0  0  2  0  0  0  0  0  0
  186.1160  170.3970  134.9810 C   0  0  0  0  0  1  0  0  0  0  0  0
  184.8260  171.0050  135.5230 C   0  0  0  0  0  2  0  0  0  0  0  0
  188.4810  178.7450  137.8220 C   0  0  0  0  0  3  0  0  0  0  0  0
  187.1570  178.6820  138.2510 O   0  0  0  0  0  1  0  0  0  0  0  0
  188.7340  180.0130  137.2970 O   0  0  0  0  0  1  0  0  0  0  0  0
  189.5720  177.1380  141.1030 C   0  0  0  0  0  2  0  0  0  0  0  0
  185.3400  179.5770  142.7370 C   0  0  0  0  0  2  0  0  0  0  0  0
  185.8470  178.6160  143.7730 C   0  0  0  0  0  3  0  0  0  0  0  0
  189.2580  178.2840  143.3740 N   0  0  0  0  0  0  0  0  0  0  0  0
  186.3520  177.9280  140.9560 C   0  0  0  0  0  2  0  0  0  0  0  0
  189.0040  177.1640  144.2970 C   0  0  0  0  0  2  0  0  0  0  0  0
  187.4960  177.0160  144.5930 C   0  0  0  0  0  2  0  0  0  0  0  0
  185.3770  179.0020  141.3470 C   0  0  0  0  0  0  0  0  0  0  0  0
  188.6960  178.0090  142.0230 C   0  0  2  0  0  3  0  0  0  0  0  0
  187.2610  177.4530  142.0960 C   0  0  1  0  0  3  0  0  0  0  0  0
  186.7010  177.6280  143.4820 C   0  0  0  0  0  0  0  0  0  0  0  0
  184.6140  179.4450  140.5030 O   0  0  0  0  0  0  0  0  0  0  0  0
  190.6920  178.5740  143.3250 C   0  0  0  0  0  2  0  0  0  0  0  0
  192.0550  176.6200  143.4470 O   0  0  0  0  0  1  0  0  0  0  0  0
  191.4540  177.6070  144.2200 C   0  0  0  0  0  2  0  0  0  0  0  0
  1 23  1  1  0  0  0
  2 20  1  6  0  0  0
  2  1  1  0  0  0  0
  3  6  1  6  0  0  0
  3  2  1  0  0  0  0
  3  1  1  0  0  0  0
  4  7  1  0  0  0  0
  4 10  2  0  0  0  0
  5  4  1  0  0  0  0
  6  9  1  6  0  0  0
  6  8  1  0  0  0  0
  8 11  1  6  0  0  0
  8 10  1  0  0  0  0
  9  5  1  0  0  0  0
 12 13  1  0  0  0  0
 12 11  1  0  0  0  0
 13 14  1  0  0  0  0
 14 15  1  0  0  0  0
 15 16  2  0  0  0  0
 17 15  1  0  0  0  0
 18 19  1  0  0  0  0
 19 17  1  0  0  0  0
 20 21  1  0  0  0  0
 22 20  1  0  0  0  0
 24 25  1  0  0  0  0
 26 28  1  0  0  0  0
 27 30  1  0  0  0  0
 28 29  1  0  0  0  0
 30 24  1  0  0  0  0
 31 23  1  1  0  0  0
 31 32  1  0  0  0  0
 31 26  1  0  0  0  0
 32 27  1  6  0  0  0
 32 33  1  0  0  0  0
 33 25  2  0  0  0  0
 33 29  1  0  0  0  0
 34 30  2  0  0  0  0
 35 26  1  0  0  0  0
 35 37  1  0  0  0  0
 36 37  1  0  0  0  0
M  END
>  <MODEL>
8

>  <REMARK>
 VINA RESULT:      -5.4      2.966      4.711
  Name = 
  13 active torsions:
  status: ('A' for Active; 'I' for Inactive)
    1  A    between atoms: C_3  and  C_21
    2  A    between atoms: C_3  and  O_37
    3  A    between atoms: C_5  and  C_23
    4  A    between atoms: C_6  and  C_29
    5  A    between atoms: C_6  and  C_34
    6  A    between atoms: N_9  and  C_18
    7  A    between atoms: C_10  and  C_34
    8  A    between atoms: C_10  and  O_37
    9  A    between atoms: C_11  and  C_24
   10  A    between atoms: C_15  and  C_36
   11  A    between atoms: C_16  and  C_18
   12  A    between atoms: C_24  and  C_28
   13  A    between atoms: C_29  and  C_30
                            x       y       z     vdW  Elec       q    Type
                         _______ _______ _______ _____ _____    ______ ____

>  <TORSDO>
F 13

$$$$
=
 OpenBabel11062415313D

 37 40  0  0  1  0  0  0  0  0999 V2000
  185.8150  178.1580  142.1470 C   0  0  1  0  0  3  0  0  0  0  0  0
  185.0650  179.2680  142.8600 C   0  0  1  0  0  3  0  0  0  0  0  0
  184.7560  178.9390  141.3900 C   0  0  2  0  0  3  0  0  0  0  0  0
  182.2150  179.4820  139.1410 C   0  0  0  0  0  0  0  0  0  0  0  0
  182.0560  179.8070  140.5960 C   0  0  0  0  0  2  0  0  0  0  0  0
  183.5680  178.0100  141.1090 C   0  0  2  0  0  3  0  0  0  0  0  0
  181.5470  180.5650  137.9450 Cl  0  0  0  0  0  0  0  0  0  0  0  0
  183.5820  177.5510  139.6480 C   0  0  2  0  0  3  0  0  0  0  0  0
  182.2820  178.6340  141.4310 N   0  0  0  0  0  2  0  0  0  0  0  0
  182.9610  178.5070  138.7520 N   0  0  0  0  0  0  0  0  0  0  0  0
  182.9070  176.1880  139.5070 C   0  0  0  0  0  2  0  0  0  0  0  0
  182.6560  175.9290  138.1510 O   0  0  0  0  0  0  0  0  0  0  0  0
  183.3960  174.7810  137.8580 C   0  0  0  0  0  2  0  0  0  0  0  0
  184.7000  175.1540  137.1710 C   0  0  0  0  0  2  0  0  0  0  0  0
  185.4530  173.9400  136.7150 C   0  0  0  0  0  0  0  0  0  0  0  0
  186.4340  174.0570  135.8950 N   0  0  0  0  0  2  0  0  0  0  0  0
  185.0520  172.5900  137.2260 C   0  0  0  0  0  2  0  0  0  0  0  0
  183.4450  170.8090  136.4680 C   0  0  0  0  0  1  0  0  0  0  0  0
  184.6650  171.6450  136.0920 C   0  0  0  0  0  2  0  0  0  0  0  0
  184.0490  178.7110  143.8530 C   0  0  0  0  0  3  0  0  0  0  0  0
  184.7070  178.0980  144.9170 O   0  0  0  0  0  1  0  0  0  0  0  0
  183.2520  179.7480  144.3410 O   0  0  0  0  0  1  0  0  0  0  0  0
  187.1840  178.6360  141.6830 C   0  0  0  0  0  2  0  0  0  0  0  0
  189.5710  175.9720  137.9770 C   0  0  0  0  0  2  0  0  0  0  0  0
  190.5460  176.4580  139.0090 C   0  0  0  0  0  3  0  0  0  0  0  0
  188.8880  176.7510  142.0210 N   0  0  0  0  0  0  0  0  0  0  0  0
  188.1520  178.1090  138.5520 C   0  0  0  0  0  2  0  0  0  0  0  0
  190.1340  177.4640  142.3520 C   0  0  0  0  0  2  0  0  0  0  0  0
  191.0620  177.5640  141.1220 C   0  0  0  0  0  2  0  0  0  0  0  0
  188.5520  177.0140  137.6040 C   0  0  0  0  0  0  0  0  0  0  0  0
  188.0580  177.5300  141.0610 C   0  0  2  0  0  3  0  0  0  0  0  0
  188.8940  178.0880  139.8940 C   0  0  1  0  0  3  0  0  0  0  0  0
  190.2540  177.4420  139.8680 C   0  0  0  0  0  0  0  0  0  0  0  0
  188.0120  176.9510  136.5120 O   0  0  0  0  0  0  0  0  0  0  0  0
  188.1560  176.4310  143.2480 C   0  0  0  0  0  2  0  0  0  0  0  0
  188.1040  177.8760  145.1460 O   0  0  0  0  0  1  0  0  0  0  0  0
  188.9040  176.9690  144.4600 C   0  0  0  0  0  2  0  0  0  0  0  0
  1 23  1  6  0  0  0
  1  2  1  0  0  0  0
  2 20  1  1  0  0  0
  3  6  1  1  0  0  0
  3  1  1  0  0  0  0
  3  2  1  0  0  0  0
  4  5  1  0  0  0  0
  5  9  1  0  0  0  0
  6  9  1  6  0  0  0
  7  4  1  0  0  0  0
  8 11  1  1  0  0  0
  8  6  1  0  0  0  0
 10  4  2  0  0  0  0
 10  8  1  0  0  0  0
 12 11  1  0  0  0  0
 13 12  1  0  0  0  0
 14 13  1  0  0  0  0
 15 14  1  0  0  0  0
 15 17  1  0  0  0  0
 16 15  2  0  0  0  0
 19 18  1  0  0  0  0
 19 17  1  0  0  0  0
 20 22  1  0  0  0  0
 20 21  1  0  0  0  0
 24 25  1  0  0  0  0
 25 33  2  0  0  0  0
 26 28  1  0  0  0  0
 26 35  1  0  0  0  0
 29 28  1  0  0  0  0
 30 24  1  0  0  0  0
 30 27  1  0  0  0  0
 31 23  1  1  0  0  0
 31 26  1  0  0  0  0
 32 27  1  6  0  0  0
 32 31  1  0  0  0  0
 33 32  1  0  0  0  0
 33 29  1  0  0  0  0
 34 30  2  0  0  0  0
 35 37  1  0  0  0  0
 37 36  1  0  0  0  0
M  END
>  <MODEL>
9

>  <REMARK>
 VINA RESULT:      -5.3      3.171      6.229
  Name = 
  13 active torsions:
  status: ('A' for Active; 'I' for Inactive)
    1  A    between atoms: C_3  and  C_21
    2  A    between atoms: C_3  and  O_37
    3  A    between atoms: C_5  and  C_23
    4  A    between atoms: C_6  and  C_29
    5  A    between atoms: C_6  and  C_34
    6  A    between atoms: N_9  and  C_18
    7  A    between atoms: C_10  and  C_34
    8  A    between atoms: C_10  and  O_37
    9  A    between atoms: C_11  and  C_24
   10  A    between atoms: C_15  and  C_36
   11  A    between atoms: C_16  and  C_18
   12  A    between atoms: C_24  and  C_28
   13  A    between atoms: C_29  and  C_30
                            x       y       z     vdW  Elec       q    Type
                         _______ _______ _______ _____ _____    ______ ____

>  <TORSDO>
F 13

$$$$
