=
 OpenBabel11062412123D

 55 62  0  0  1  0  0  0  0  0999 V2000
  189.4310  174.8390  137.0490 C   0  0  2  0  0  3  0  0  0  0  0  0
  188.7290  177.8200  141.0500 C   0  0  2  0  0  3  0  0  0  0  0  0
  188.3360  177.8810  139.6490 N   0  0  0  0  0  2  0  0  0  0  0  0
  191.6520  176.9290  138.8620 C   0  0  0  0  0  0  0  0  0  0  0  0
  188.9630  173.6590  137.6000 F   0  0  0  0  0  0  0  0  0  0  0  0
  190.8640  175.0700  137.4640 C   0  0  0  0  0  2  0  0  0  0  0  0
  188.6430  176.0250  137.5760 C   0  0  1  0  0  3  0  0  0  0  0  0
  189.5690  178.0650  138.8820 C   0  0  1  0  0  3  0  0  0  0  0  0
  190.7880  177.7490  139.7390 C   0  0  1  0  0  3  0  0  0  0  0  0
  189.6350  177.1830  137.6170 C   0  0  1  0  0  3  0  0  0  0  0  0
  192.8290  176.7260  139.1110 O   0  0  0  0  0  0  0  0  0  0  0  0
  190.2180  176.8060  141.1680 S   0  0  0  0  0  0  0  0  0  0  0  0
  191.0330  176.5730  137.5620 C   0  0  1  0  0  3  0  0  0  0  0  0
  187.4950  176.3860  136.6380 C   0  0  0  0  0  2  0  0  0  0  0  0
  186.8750  175.1960  136.0580 N   0  0  0  0  0  0  0  0  0  0  0  0
  186.2430  174.3640  137.0900 C   0  0  0  0  0  2  0  0  0  0  0  0
  185.4780  173.1560  136.5360 C   0  0  1  0  0  3  0  0  0  0  0  0
  186.3710  172.1230  136.2380 O   0  0  0  0  0  1  0  0  0  0  0  0
  182.9540  172.8900  136.8760 C   0  0  0  0  0  2  0  0  0  0  0  0
  184.3420  172.7190  137.4810 C   0  0  0  0  0  3  0  0  0  0  0  0
  183.5910  171.5210  136.9170 C   0  0  0  0  0  2  0  0  0  0  0  0
  185.8740  175.6490  135.1040 C   0  0  0  0  0  2  0  0  0  0  0  0
  185.2310  176.8610  135.6020 N   0  0  0  0  0  2  0  0  0  0  0  0
  182.1550  175.9410  139.3540 C   0  0  0  0  0  2  0  0  0  0  0  0
  183.6700  176.4400  137.4290 C   0  0  0  0  0  3  0  0  0  0  0  0
  179.7080  176.0380  138.8910 C   0  0  0  0  0  2  0  0  0  0  0  0
  180.7960  176.3610  139.9070 C   0  0  0  0  0  2  0  0  0  0  0  0
  183.9030  176.8730  136.1230 C   0  0  0  0  0  0  0  0  0  0  0  0
  179.9000  176.9080  137.6500 C   0  0  0  0  0  2  0  0  0  0  0  0
  181.5600  177.2850  135.8630 N   0  0  0  0  0  0  0  0  0  0  0  0
  182.8180  177.3080  135.3500 C   0  0  0  0  0  3  0  0  0  0  0  0
  181.3060  176.8480  137.1280 C   0  0  0  0  0  0  0  0  0  0  0  0
  182.3760  176.4460  137.9530 C   0  0  0  0  0  0  0  0  0  0  0  0
  187.6110  177.2500  141.8970 C   0  0  0  0  0  2  0  0  0  0  0  0
  187.1630  178.3100  142.8980 C   0  0  2  0  0  3  0  0  0  0  0  0
  186.9270  176.2670  144.6470 O   0  0  0  0  0  0  0  0  0  0  0  0
  187.3120  177.7170  144.5810 S   0  0  0  0  0  0  0  0  0  0  0  0
  186.3940  178.5100  145.4750 O   0  0  0  0  0  0  0  0  0  0  0  0
  190.0080  178.6500  144.2490 C   0  0  0  0  0  2  0  0  0  0  0  0
  189.6540  176.6850  145.7000 C   0  0  1  0  0  3  0  0  0  0  0  0
  191.3670  178.1360  144.6650 C   0  0  0  0  0  2  0  0  0  0  0  0
  189.0030  177.9160  145.1150 C   0  0  2  0  0  0  0  0  0  0  0  0
  191.1300  176.7690  145.2920 C   0  0  2  0  0  0  0  0  0  0  0  0
  189.2390  177.8420  146.6080 C   0  0  0  0  0  2  0  0  0  0  0  0
  191.4010  175.7840  144.3420 O   0  0  0  0  0  1  0  0  0  0  0  0
  191.6860  175.4720  147.2370 O   0  0  0  0  0  1  0  0  0  0  0  0
  192.0580  176.5910  146.4880 C   0  0  0  0  0  2  0  0  0  0  0  0
  185.7630  178.8520  142.6070 C   0  0  2  0  0  3  0  0  0  0  0  0
  184.7840  178.0430  143.1850 O   0  0  0  0  0  1  0  0  0  0  0  0
  185.5580  178.9580  141.1020 C   0  0  0  0  0  2  0  0  0  0  0  0
  184.0940  178.7780  140.7260 C   0  0  0  0  0  2  0  0  0  0  0  0
  184.6930  180.0970  138.8390 O   0  0  0  0  0  0  0  0  0  0  0  0
  183.7690  179.5440  139.4890 C   0  0  0  0  0  0  0  0  0  0  0  0
  182.4540  179.6650  139.0490 O   0  0  0  0  0  0  0  0  0  0  0  0
  181.9880  180.8400  138.6050 O   0  0  0  0  0  1  0  0  0  0  0  0
  1  6  1  0  0  0  0
  1  7  1  0  0  0  0
  1  5  1  1  0  0  0
  2 12  1  0  0  0  0
  2 34  1  1  0  0  0
  3  2  1  0  0  0  0
  4 11  2  0  0  0  0
  6 13  1  0  0  0  0
  7 14  1  6  0  0  0
  7 10  1  0  0  0  0
  8  3  1  1  0  0  0
  8  9  1  0  0  0  0
  9  4  1  6  0  0  0
  9 12  1  0  0  0  0
 10  8  1  0  0  0  0
 13 10  1  0  0  0  0
 13  4  1  0  0  0  0
 15 14  1  0  0  0  0
 15 16  1  0  0  0  0
 17 16  1  0  0  0  0
 17 20  1  0  0  0  0
 18 17  1  0  0  0  0
 19 21  1  0  0  0  0
 19 20  1  0  0  0  0
 21 20  1  0  0  0  0
 22 23  1  0  0  0  0
 22 15  1  0  0  0  0
 23 28  1  0  0  0  0
 24 27  1  0  0  0  0
 25 33  1  0  0  0  0
 26 27  1  0  0  0  0
 28 25  2  0  0  0  0
 29 26  1  0  0  0  0
 30 32  1  0  0  0  0
 31 30  2  0  0  0  0
 31 28  1  0  0  0  0
 32 29  1  0  0  0  0
 32 33  2  0  0  0  0
 33 24  1  0  0  0  0
 34 35  1  0  0  0  0
 35 37  1  0  0  0  0
 37 36  2  0  0  0  0
 37 42  1  0  0  0  0
 37 38  2  0  0  0  0
 39 41  1  0  0  0  0
 39 42  1  0  0  0  0
 40 44  1  0  0  0  0
 41 43  1  0  0  0  0
 42 40  1  0  0  0  0
 42 44  1  0  0  0  0
 43 40  1  0  0  0  0
 43 47  1  0  0  0  0
 45 43  1  0  0  0  0
 47 46  1  0  0  0  0
 48 35  1  0  0  0  0
 48 49  1  0  0  0  0
 50 48  1  0  0  0  0
 51 50  1  0  0  0  0
 52 53  2  0  0  0  0
 53 51  1  0  0  0  0
 54 53  1  0  0  0  0
 55 54  1  0  0  0  0
M  END
>  <MODEL>
1

>  <REMARK>
 VINA RESULT:      -7.1      0.000      0.000
  Name = 
  18 active torsions:
  status: ('A' for Active; 'I' for Inactive)
    1  A    between atoms: C_1  and  C_12
    2  A    between atoms: C_1  and  C_23
    3  A    between atoms: C_1  and  S_28
    4  A    between atoms: C_4  and  N_44
    5  A    between atoms: C_4  and  N_50
    6  A    between atoms: O_6  and  C_38
    7  A    between atoms: C_7  and  C_23
    8  A    between atoms: C_7  and  C_34
    9  A    between atoms: C_11  and  C_36
   10  A    between atoms: C_11  and  N_44
   11  A    between atoms: C_12  and  C_13
   12  A    between atoms: C_17  and  C_36
   13  A    between atoms: C_21  and  N_50
   14  A    between atoms: C_25  and  C_33
   15  A    between atoms: C_25  and  N_44
   16  A    between atoms: S_28  and  C_29
   17  A    between atoms: C_34  and  C_38
   18  A    between atoms: C_35  and  C_39
                            x       y       z     vdW  Elec       q    Type
                         _______ _______ _______ _____ _____    ______ ____

>  <TORSDO>
F 18

$$$$
=
 OpenBabel11062412123D

 55 62  0  0  1  0  0  0  0  0999 V2000
  186.7240  177.6130  143.1350 C   0  0  2  0  0  3  0  0  0  0  0  0
  183.7450  177.6230  139.0720 C   0  0  2  0  0  3  0  0  0  0  0  0
  185.0150  178.2500  139.4080 N   0  0  0  0  0  2  0  0  0  0  0  0
  183.5650  179.1070  142.5200 C   0  0  0  0  0  0  0  0  0  0  0  0
  186.8390  176.2420  143.2890 F   0  0  0  0  0  0  0  0  0  0  0  0
  185.4330  178.0950  143.7520 C   0  0  0  0  0  2  0  0  0  0  0  0
  186.6510  177.9810  141.6640 C   0  0  1  0  0  3  0  0  0  0  0  0
  184.7270  179.2310  140.4550 C   0  0  1  0  0  3  0  0  0  0  0  0
  183.3520  178.9830  141.0610 C   0  0  1  0  0  3  0  0  0  0  0  0
  185.7610  179.2180  141.6010 C   0  0  1  0  0  3  0  0  0  0  0  0
  182.6410  179.2450  143.3050 O   0  0  0  0  0  0  0  0  0  0  0  0
  182.8520  177.3090  140.6100 S   0  0  0  0  0  0  0  0  0  0  0  0
  184.9850  179.2760  142.9140 C   0  0  1  0  0  3  0  0  0  0  0  0
  188.0300  178.3310  141.1130 C   0  0  0  0  0  2  0  0  0  0  0  0
  188.9370  177.1860  141.1550 N   0  0  0  0  0  0  0  0  0  0  0  0
  189.1080  176.5880  139.8250 C   0  0  0  0  0  2  0  0  0  0  0  0
  189.4990  177.5940  138.7350 C   0  0  1  0  0  3  0  0  0  0  0  0
  190.8470  177.4330  138.4010 O   0  0  0  0  0  1  0  0  0  0  0  0
  187.8930  178.8310  137.1710 C   0  0  0  0  0  2  0  0  0  0  0  0
  188.5600  177.5050  137.5160 C   0  0  0  0  0  3  0  0  0  0  0  0
  189.0780  178.3550  136.3640 C   0  0  0  0  0  2  0  0  0  0  0  0
  190.2190  177.6630  141.6540 C   0  0  0  0  0  2  0  0  0  0  0  0
  190.7500  176.7180  142.6300 N   0  0  0  0  0  2  0  0  0  0  0  0
  187.9120  177.7490  146.5360 C   0  0  0  0  0  2  0  0  0  0  0  0
  189.3920  177.2070  144.5950 C   0  0  0  0  0  3  0  0  0  0  0  0
  189.0540  178.2330  148.6980 C   0  0  0  0  0  2  0  0  0  0  0  0
  187.8550  177.5540  148.0490 C   0  0  0  0  0  2  0  0  0  0  0  0
  190.6370  176.9160  144.0380 C   0  0  0  0  0  0  0  0  0  0  0  0
  190.3350  177.5190  148.2700 C   0  0  0  0  0  2  0  0  0  0  0  0
  191.6200  177.0450  146.2160 N   0  0  0  0  0  0  0  0  0  0  0  0
  191.7530  176.8280  144.8820 C   0  0  0  0  0  3  0  0  0  0  0  0
  190.4180  177.3500  146.7800 C   0  0  0  0  0  0  0  0  0  0  0  0
  189.2640  177.4030  145.9720 C   0  0  0  0  0  0  0  0  0  0  0  0
  183.9660  176.3420  138.2960 C   0  0  0  0  0  2  0  0  0  0  0  0
  183.4610  176.5360  136.8700 C   0  0  2  0  0  3  0  0  0  0  0  0
  181.2230  175.5160  137.9840 O   0  0  0  0  0  0  0  0  0  0  0  0
  181.6970  176.2480  136.7620 S   0  0  0  0  0  0  0  0  0  0  0  0
  181.3990  175.4150  135.5420 O   0  0  0  0  0  0  0  0  0  0  0  0
  181.2470  178.8230  135.5700 C   0  0  0  0  0  2  0  0  0  0  0  0
  180.6440  178.5480  137.9480 C   0  0  1  0  0  3  0  0  0  0  0  0
  180.8220  180.1750  136.0950 C   0  0  0  0  0  2  0  0  0  0  0  0
  180.8620  177.8220  136.6410 C   0  0  2  0  0  0  0  0  0  0  0  0
  180.7550  180.0400  137.6090 C   0  0  2  0  0  0  0  0  0  0  0  0
  179.4710  177.8800  137.2330 C   0  0  0  0  0  2  0  0  0  0  0  0
  181.9310  180.5500  138.1600 O   0  0  0  0  0  1  0  0  0  0  0  0
  179.8760  182.1880  138.2340 O   0  0  0  0  0  1  0  0  0  0  0  0
  179.5630  180.8300  138.1380 C   0  0  0  0  0  2  0  0  0  0  0  0
  184.2360  175.7080  135.8450 C   0  0  2  0  0  3  0  0  0  0  0  0
  184.3110  174.3720  136.2350 O   0  0  0  0  0  1  0  0  0  0  0  0
  185.6290  176.2970  135.6600 C   0  0  0  0  0  2  0  0  0  0  0  0
  186.4350  175.5090  134.6370 C   0  0  0  0  0  2  0  0  0  0  0  0
  188.7470  174.9520  134.6670 O   0  0  0  0  0  0  0  0  0  0  0  0
  187.6430  174.9060  135.2680 C   0  0  0  0  0  0  0  0  0  0  0  0
  187.5650  174.2820  136.5090 O   0  0  0  0  0  0  0  0  0  0  0  0
  188.1020  173.0700  136.7000 O   0  0  0  0  0  1  0  0  0  0  0  0
  1  5  1  6  0  0  0
  1  6  1  0  0  0  0
  2 34  1  1  0  0  0
  2  3  1  0  0  0  0
  2 12  1  0  0  0  0
  4 13  1  0  0  0  0
  4 11  2  0  0  0  0
  7 14  1  1  0  0  0
  7  1  1  0  0  0  0
  8  3  1  6  0  0  0
  8  9  1  0  0  0  0
  8 10  1  0  0  0  0
  9 12  1  1  0  0  0
  9  4  1  0  0  0  0
 10  7  1  0  0  0  0
 10 13  1  0  0  0  0
 13  6  1  0  0  0  0
 14 15  1  0  0  0  0
 15 22  1  0  0  0  0
 16 15  1  0  0  0  0
 17 16  1  0  0  0  0
 18 17  1  0  0  0  0
 19 20  1  0  0  0  0
 20 17  1  0  0  0  0
 21 19  1  0  0  0  0
 21 20  1  0  0  0  0
 22 23  1  0  0  0  0
 23 28  1  0  0  0  0
 24 27  1  0  0  0  0
 25 33  1  0  0  0  0
 27 26  1  0  0  0  0
 28 25  2  0  0  0  0
 28 31  1  0  0  0  0
 29 26  1  0  0  0  0
 30 32  1  0  0  0  0
 31 30  2  0  0  0  0
 32 29  1  0  0  0  0
 33 24  1  0  0  0  0
 33 32  2  0  0  0  0
 35 34  1  0  0  0  0
 37 35  1  0  0  0  0
 37 36  2  0  0  0  0
 38 37  2  0  0  0  0
 39 41  1  0  0  0  0
 39 42  1  0  0  0  0
 41 43  1  0  0  0  0
 42 37  1  0  0  0  0
 42 44  1  0  0  0  0
 42 40  1  0  0  0  0
 43 40  1  0  0  0  0
 43 47  1  0  0  0  0
 43 45  1  0  0  0  0
 44 40  1  0  0  0  0
 47 46  1  0  0  0  0
 48 49  1  0  0  0  0
 48 35  1  0  0  0  0
 50 48  1  0  0  0  0
 51 53  1  0  0  0  0
 51 50  1  0  0  0  0
 52 53  2  0  0  0  0
 53 54  1  0  0  0  0
 54 55  1  0  0  0  0
M  END
>  <MODEL>
2

>  <REMARK>
 VINA RESULT:      -7.0      3.121      9.713
  Name = 
  18 active torsions:
  status: ('A' for Active; 'I' for Inactive)
    1  A    between atoms: C_1  and  C_12
    2  A    between atoms: C_1  and  C_23
    3  A    between atoms: C_1  and  S_28
    4  A    between atoms: C_4  and  N_44
    5  A    between atoms: C_4  and  N_50
    6  A    between atoms: O_6  and  C_38
    7  A    between atoms: C_7  and  C_23
    8  A    between atoms: C_7  and  C_34
    9  A    between atoms: C_11  and  C_36
   10  A    between atoms: C_11  and  N_44
   11  A    between atoms: C_12  and  C_13
   12  A    between atoms: C_17  and  C_36
   13  A    between atoms: C_21  and  N_50
   14  A    between atoms: C_25  and  C_33
   15  A    between atoms: C_25  and  N_44
   16  A    between atoms: S_28  and  C_29
   17  A    between atoms: C_34  and  C_38
   18  A    between atoms: C_35  and  C_39
                            x       y       z     vdW  Elec       q    Type
                         _______ _______ _______ _____ _____    ______ ____

>  <TORSDO>
F 18

$$$$
=
 OpenBabel11062412123D

 55 62  0  0  1  0  0  0  0  0999 V2000
  186.7600  177.6910  142.9590 C   0  0  2  0  0  3  0  0  0  0  0  0
  183.4130  177.7380  139.1930 C   0  0  2  0  0  3  0  0  0  0  0  0
  184.6420  178.4660  139.4770 N   0  0  0  0  0  2  0  0  0  0  0  0
  183.4250  178.8860  142.7720 C   0  0  0  0  0  0  0  0  0  0  0  0
  187.0240  176.3320  142.9680 F   0  0  0  0  0  0  0  0  0  0  0  0
  185.4940  177.9750  143.7310 C   0  0  0  0  0  2  0  0  0  0  0  0
  186.5090  178.1770  141.5430 C   0  0  1  0  0  3  0  0  0  0  0  0
  184.3620  179.3140  140.6350 C   0  0  1  0  0  3  0  0  0  0  0  0
  183.0840  178.8680  141.3330 C   0  0  1  0  0  3  0  0  0  0  0  0
  185.4990  179.3120  141.6790 C   0  0  1  0  0  3  0  0  0  0  0  0
  182.5730  178.8540  143.6450 O   0  0  0  0  0  0  0  0  0  0  0  0
  182.7100  177.1960  140.7660 S   0  0  0  0  0  0  0  0  0  0  0  0
  184.8530  179.1710  143.0540 C   0  0  1  0  0  3  0  0  0  0  0  0
  187.7860  178.7200  140.9100 C   0  0  0  0  0  2  0  0  0  0  0  0
  188.3150  177.8130  139.8920 N   0  0  0  0  0  0  0  0  0  0  0  0
  188.8470  178.5520  138.7400 C   0  0  0  0  0  2  0  0  0  0  0  0
  188.1740  178.2010  137.4080 C   0  0  1  0  0  3  0  0  0  0  0  0
  187.1790  179.1380  137.1160 O   0  0  0  0  0  1  0  0  0  0  0  0
  189.4300  176.5920  135.8620 C   0  0  0  0  0  2  0  0  0  0  0  0
  189.2060  178.0410  136.2740 C   0  0  0  0  0  3  0  0  0  0  0  0
  188.5540  177.4850  135.0150 C   0  0  0  0  0  2  0  0  0  0  0  0
  189.3730  177.0310  140.5140 C   0  0  0  0  0  2  0  0  0  0  0  0
  190.1240  177.8700  141.4420 N   0  0  0  0  0  2  0  0  0  0  0  0
  189.4260  177.9070  146.3300 C   0  0  0  0  0  2  0  0  0  0  0  0
  189.8140  177.8400  143.8610 C   0  0  0  0  0  3  0  0  0  0  0  0
  191.2070  176.9070  147.7580 C   0  0  0  0  0  2  0  0  0  0  0  0
  189.7040  177.0720  147.5760 C   0  0  0  0  0  2  0  0  0  0  0  0
  190.5260  177.4220  142.7350 C   0  0  0  0  0  0  0  0  0  0  0  0
  191.7680  176.0730  146.6080 C   0  0  0  0  0  2  0  0  0  0  0  0
  192.0020  176.1810  144.1530 N   0  0  0  0  0  0  0  0  0  0  0  0
  191.6260  176.5720  142.9070 C   0  0  0  0  0  3  0  0  0  0  0  0
  191.3340  176.5920  145.2680 C   0  0  0  0  0  0  0  0  0  0  0  0
  190.1950  177.4110  145.1340 C   0  0  0  0  0  0  0  0  0  0  0  0
  183.6830  176.5610  138.2800 C   0  0  0  0  0  2  0  0  0  0  0  0
  182.6000  176.5110  137.2080 C   0  0  2  0  0  3  0  0  0  0  0  0
  180.6150  174.9500  136.2510 O   0  0  0  0  0  0  0  0  0  0  0  0
  181.8090  174.9040  137.1610 S   0  0  0  0  0  0  0  0  0  0  0  0
  181.3560  174.5270  138.5480 O   0  0  0  0  0  0  0  0  0  0  0  0
  182.8760  172.2450  136.9610 C   0  0  0  0  0  2  0  0  0  0  0  0
  184.4300  174.1260  136.5930 C   0  0  1  0  0  3  0  0  0  0  0  0
  184.2630  171.6680  136.7990 C   0  0  0  0  0  2  0  0  0  0  0  0
  182.9810  173.7020  136.5560 C   0  0  2  0  0  0  0  0  0  0  0  0
  185.2240  172.8450  136.8820 C   0  0  2  0  0  0  0  0  0  0  0  0
  183.6820  174.0540  135.2630 C   0  0  0  0  0  2  0  0  0  0  0  0
  185.7480  172.9110  138.1730 O   0  0  0  0  0  1  0  0  0  0  0  0
  187.2440  173.7260  135.9230 O   0  0  0  0  0  1  0  0  0  0  0  0
  186.3590  172.6460  135.8830 C   0  0  0  0  0  2  0  0  0  0  0  0
  183.1040  176.9370  135.8290 C   0  0  2  0  0  3  0  0  0  0  0  0
  184.3980  177.4510  135.9070 O   0  0  0  0  0  1  0  0  0  0  0  0
  182.1500  177.9620  135.2300 C   0  0  0  0  0  2  0  0  0  0  0  0
  181.0880  178.3870  136.2350 C   0  0  0  0  0  2  0  0  0  0  0  0
  180.9220  180.6190  135.4300 O   0  0  0  0  0  0  0  0  0  0  0  0
  181.1000  179.8660  136.4210 C   0  0  0  0  0  0  0  0  0  0  0  0
  181.3180  180.4250  137.6770 O   0  0  0  0  0  0  0  0  0  0  0  0
  181.3770  181.7550  137.8320 O   0  0  0  0  0  1  0  0  0  0  0  0
  1  5  1  6  0  0  0
  1  6  1  0  0  0  0
  2 34  1  6  0  0  0
  2  3  1  0  0  0  0
  2 12  1  0  0  0  0
  4 13  1  0  0  0  0
  4 11  2  0  0  0  0
  7 14  1  1  0  0  0
  7 10  1  0  0  0  0
  7  1  1  0  0  0  0
  8  3  1  6  0  0  0
  8  9  1  0  0  0  0
  8 10  1  0  0  0  0
  9 12  1  6  0  0  0
  9  4  1  0  0  0  0
 10 13  1  0  0  0  0
 13  6  1  0  0  0  0
 15 22  1  0  0  0  0
 15 14  1  0  0  0  0
 16 15  1  0  0  0  0
 17 16  1  0  0  0  0
 18 17  1  0  0  0  0
 19 20  1  0  0  0  0
 20 17  1  0  0  0  0
 21 19  1  0  0  0  0
 21 20  1  0  0  0  0
 22 23  1  0  0  0  0
 23 28  1  0  0  0  0
 24 27  1  0  0  0  0
 25 33  1  0  0  0  0
 27 26  1  0  0  0  0
 28 31  1  0  0  0  0
 28 25  2  0  0  0  0
 29 26  1  0  0  0  0
 30 32  1  0  0  0  0
 31 30  2  0  0  0  0
 32 29  1  0  0  0  0
 33 32  2  0  0  0  0
 33 24  1  0  0  0  0
 35 34  1  0  0  0  0
 36 37  2  0  0  0  0
 37 35  1  0  0  0  0
 37 38  2  0  0  0  0
 40 43  1  0  0  0  0
 41 43  1  0  0  0  0
 41 39  1  0  0  0  0
 42 40  1  0  0  0  0
 42 39  1  0  0  0  0
 42 37  1  0  0  0  0
 43 45  1  0  0  0  0
 44 42  1  0  0  0  0
 44 40  1  0  0  0  0
 47 46  1  0  0  0  0
 47 43  1  0  0  0  0
 48 49  1  0  0  0  0
 48 35  1  0  0  0  0
 50 48  1  0  0  0  0
 50 51  1  0  0  0  0
 51 53  1  0  0  0  0
 52 53  2  0  0  0  0
 53 54  1  0  0  0  0
 54 55  1  0  0  0  0
M  END
>  <MODEL>
3

>  <REMARK>
 VINA RESULT:      -6.9      3.289      8.983
  Name = 
  18 active torsions:
  status: ('A' for Active; 'I' for Inactive)
    1  A    between atoms: C_1  and  C_12
    2  A    between atoms: C_1  and  C_23
    3  A    between atoms: C_1  and  S_28
    4  A    between atoms: C_4  and  N_44
    5  A    between atoms: C_4  and  N_50
    6  A    between atoms: O_6  and  C_38
    7  A    between atoms: C_7  and  C_23
    8  A    between atoms: C_7  and  C_34
    9  A    between atoms: C_11  and  C_36
   10  A    between atoms: C_11  and  N_44
   11  A    between atoms: C_12  and  C_13
   12  A    between atoms: C_17  and  C_36
   13  A    between atoms: C_21  and  N_50
   14  A    between atoms: C_25  and  C_33
   15  A    between atoms: C_25  and  N_44
   16  A    between atoms: S_28  and  C_29
   17  A    between atoms: C_34  and  C_38
   18  A    between atoms: C_35  and  C_39
                            x       y       z     vdW  Elec       q    Type
                         _______ _______ _______ _____ _____    ______ ____

>  <TORSDO>
F 18

$$$$
=
 OpenBabel11062412123D

 55 62  0  0  1  0  0  0  0  0999 V2000
  189.8370  176.9180  135.4220 C   0  0  2  0  0  3  0  0  0  0  0  0
  185.3610  176.6250  137.7150 C   0  0  2  0  0  3  0  0  0  0  0  0
  186.7400  176.7150  138.1740 N   0  0  0  0  0  2  0  0  0  0  0  0
  187.5190  174.2520  135.7570 C   0  0  0  0  0  0  0  0  0  0  0  0
  189.5630  177.9930  134.5940 F   0  0  0  0  0  0  0  0  0  0  0  0
  189.3060  175.6450  134.8070 C   0  0  0  0  0  2  0  0  0  0  0  0
  189.1260  177.0720  136.7530 C   0  0  1  0  0  3  0  0  0  0  0  0
  187.3850  175.4580  137.7960 C   0  0  1  0  0  3  0  0  0  0  0  0
  186.5430  174.7090  136.7690 C   0  0  1  0  0  3  0  0  0  0  0  0
  188.7960  175.6520  137.2020 C   0  0  1  0  0  3  0  0  0  0  0  0
  187.2520  173.3900  134.9350 O   0  0  0  0  0  0  0  0  0  0  0  0
  185.3680  175.8850  136.0680 S   0  0  0  0  0  0  0  0  0  0  0  0
  188.8970  174.7600  135.9680 C   0  0  1  0  0  3  0  0  0  0  0  0
  190.0320  177.7250  137.7920 C   0  0  0  0  0  2  0  0  0  0  0  0
  190.3150  176.8230  138.9070 N   0  0  0  0  0  0  0  0  0  0  0  0
  191.7600  176.6830  139.1300 C   0  0  0  0  0  2  0  0  0  0  0  0
  192.5260  176.1220  137.9250 C   0  0  1  0  0  3  0  0  0  0  0  0
  193.8900  176.3950  138.0600 O   0  0  0  0  0  1  0  0  0  0  0  0
  192.5700  174.1400  136.3050 C   0  0  0  0  0  2  0  0  0  0  0  0
  192.2270  174.6260  137.7080 C   0  0  0  0  0  3  0  0  0  0  0  0
  193.5080  173.8440  137.4510 C   0  0  0  0  0  2  0  0  0  0  0  0
  189.6820  177.3840  140.0920 C   0  0  0  0  0  2  0  0  0  0  0  0
  190.5650  177.2290  141.2420 N   0  0  0  0  0  2  0  0  0  0  0  0
  186.7740  177.6190  144.3820 C   0  0  0  0  0  2  0  0  0  0  0  0
  188.7270  177.4000  142.8370 C   0  0  0  0  0  3  0  0  0  0  0  0
  187.3030  177.9240  146.7980 C   0  0  0  0  0  2  0  0  0  0  0  0
  186.3670  177.2480  145.8050 C   0  0  0  0  0  2  0  0  0  0  0  0
  190.0930  177.2550  142.5880 C   0  0  0  0  0  0  0  0  0  0  0  0
  188.7090  177.3470  146.6420 C   0  0  0  0  0  2  0  0  0  0  0  0
  190.4960  177.1960  144.9470 N   0  0  0  0  0  0  0  0  0  0  0  0
  190.9710  177.1430  143.6750 C   0  0  0  0  0  3  0  0  0  0  0  0
  189.1690  177.3570  145.2130 C   0  0  0  0  0  0  0  0  0  0  0  0
  188.2490  177.4280  144.1480 C   0  0  0  0  0  0  0  0  0  0  0  0
  184.7090  177.9910  137.6980 C   0  0  0  0  0  2  0  0  0  0  0  0
  183.4800  177.9620  138.6000 C   0  0  2  0  0  3  0  0  0  0  0  0
  182.0500  178.5140  136.3770 O   0  0  0  0  0  0  0  0  0  0  0  0
  181.9830  177.7160  137.6470 S   0  0  0  0  0  0  0  0  0  0  0  0
  180.7950  178.1740  138.4540 O   0  0  0  0  0  0  0  0  0  0  0  0
  181.8980  175.4950  135.8270 C   0  0  0  0  0  2  0  0  0  0  0  0
  180.7100  175.2520  137.9770 C   0  0  1  0  0  3  0  0  0  0  0  0
  181.1610  174.1770  135.7970 C   0  0  0  0  0  2  0  0  0  0  0  0
  181.8230  175.9810  137.2620 C   0  0  2  0  0  0  0  0  0  0  0  0
  180.2080  174.1960  136.9840 C   0  0  2  0  0  0  0  0  0  0  0  0
  182.1660  175.0200  138.3780 C   0  0  0  0  0  2  0  0  0  0  0  0
  178.9370  174.5540  136.5370 O   0  0  0  0  0  1  0  0  0  0  0  0
  179.4110  171.9350  136.8150 O   0  0  0  0  0  1  0  0  0  0  0  0
  180.1530  172.8090  137.6130 C   0  0  0  0  0  2  0  0  0  0  0  0
  183.3790  179.1840  139.5120 C   0  0  2  0  0  3  0  0  0  0  0  0
  184.3540  180.1290  139.1920 O   0  0  0  0  0  1  0  0  0  0  0  0
  183.5050  178.7490  140.9670 C   0  0  0  0  0  2  0  0  0  0  0  0
  182.1550  178.7560  141.6680 C   0  0  0  0  0  2  0  0  0  0  0  0
  183.4860  178.6400  143.6360 O   0  0  0  0  0  0  0  0  0  0  0  0
  182.3280  178.6950  143.1470 C   0  0  0  0  0  0  0  0  0  0  0  0
  181.2250  178.6870  143.9960 O   0  0  0  0  0  0  0  0  0  0  0  0
  180.0020  178.4090  143.5230 O   0  0  0  0  0  1  0  0  0  0  0  0
  1  5  1  6  0  0  0
  1  7  1  0  0  0  0
  2 34  1  6  0  0  0
  2  3  1  0  0  0  0
  4 13  1  0  0  0  0
  6  1  1  0  0  0  0
  6 13  1  0  0  0  0
  7 10  1  0  0  0  0
  7 14  1  1  0  0  0
  8  3  1  6  0  0  0
  9  4  1  6  0  0  0
  9  8  1  0  0  0  0
 10  8  1  0  0  0  0
 11  4  2  0  0  0  0
 12  9  1  0  0  0  0
 12  2  1  0  0  0  0
 13 10  1  0  0  0  0
 14 15  1  0  0  0  0
 15 16  1  0  0  0  0
 15 22  1  0  0  0  0
 17 18  1  0  0  0  0
 17 16  1  0  0  0  0
 19 21  1  0  0  0  0
 19 20  1  0  0  0  0
 20 17  1  0  0  0  0
 21 20  1  0  0  0  0
 22 23  1  0  0  0  0
 23 28  1  0  0  0  0
 24 27  1  0  0  0  0
 25 33  1  0  0  0  0
 27 26  1  0  0  0  0
 28 25  2  0  0  0  0
 28 31  1  0  0  0  0
 29 26  1  0  0  0  0
 30 32  1  0  0  0  0
 31 30  2  0  0  0  0
 32 29  1  0  0  0  0
 33 24  1  0  0  0  0
 33 32  2  0  0  0  0
 34 35  1  0  0  0  0
 35 48  1  0  0  0  0
 36 37  2  0  0  0  0
 37 38  2  0  0  0  0
 37 35  1  0  0  0  0
 39 42  1  0  0  0  0
 40 44  1  0  0  0  0
 41 39  1  0  0  0  0
 41 43  1  0  0  0  0
 42 37  1  0  0  0  0
 42 40  1  0  0  0  0
 42 44  1  0  0  0  0
 43 47  1  0  0  0  0
 43 40  1  0  0  0  0
 45 43  1  0  0  0  0
 46 47  1  0  0  0  0
 48 50  1  0  0  0  0
 49 48  1  0  0  0  0
 50 51  1  0  0  0  0
 51 53  1  0  0  0  0
 53 52  2  0  0  0  0
 53 54  1  0  0  0  0
 55 54  1  0  0  0  0
M  END
>  <MODEL>
4

>  <REMARK>
 VINA RESULT:      -6.9      3.036      8.534
  Name = 
  18 active torsions:
  status: ('A' for Active; 'I' for Inactive)
    1  A    between atoms: C_1  and  C_12
    2  A    between atoms: C_1  and  C_23
    3  A    between atoms: C_1  and  S_28
    4  A    between atoms: C_4  and  N_44
    5  A    between atoms: C_4  and  N_50
    6  A    between atoms: O_6  and  C_38
    7  A    between atoms: C_7  and  C_23
    8  A    between atoms: C_7  and  C_34
    9  A    between atoms: C_11  and  C_36
   10  A    between atoms: C_11  and  N_44
   11  A    between atoms: C_12  and  C_13
   12  A    between atoms: C_17  and  C_36
   13  A    between atoms: C_21  and  N_50
   14  A    between atoms: C_25  and  C_33
   15  A    between atoms: C_25  and  N_44
   16  A    between atoms: S_28  and  C_29
   17  A    between atoms: C_34  and  C_38
   18  A    between atoms: C_35  and  C_39
                            x       y       z     vdW  Elec       q    Type
                         _______ _______ _______ _____ _____    ______ ____

>  <TORSDO>
F 18

$$$$
=
 OpenBabel11062412123D

 55 62  0  0  1  0  0  0  0  0999 V2000
  186.5360  177.6930  142.9620 C   0  0  2  0  0  3  0  0  0  0  0  0
  184.2640  177.6340  138.4650 C   0  0  2  0  0  3  0  0  0  0  0  0
  185.3790  178.3760  139.0370 N   0  0  0  0  0  2  0  0  0  0  0  0
  183.3580  178.8610  141.9000 C   0  0  0  0  0  0  0  0  0  0  0  0
  186.7900  176.3370  143.0700 F   0  0  0  0  0  0  0  0  0  0  0  0
  185.1140  177.9860  143.3780 C   0  0  0  0  0  2  0  0  0  0  0  0
  186.6550  178.1460  141.5180 C   0  0  1  0  0  3  0  0  0  0  0  0
  184.8110  179.2480  140.0650 C   0  0  1  0  0  3  0  0  0  0  0  0
  183.3970  178.8090  140.4220 C   0  0  1  0  0  3  0  0  0  0  0  0
  185.6430  179.2770  141.3640 C   0  0  1  0  0  3  0  0  0  0  0  0
  182.3110  178.8430  142.5260 O   0  0  0  0  0  0  0  0  0  0  0  0
  183.1820  177.1220  139.8180 S   0  0  0  0  0  0  0  0  0  0  0  0
  184.6660  179.1620  142.5310 C   0  0  1  0  0  3  0  0  0  0  0  0
  188.0510  178.6840  141.2200 C   0  0  0  0  0  2  0  0  0  0  0  0
  188.7890  177.8040  140.3140 N   0  0  0  0  0  0  0  0  0  0  0  0
  189.4370  178.5650  139.2390 C   0  0  0  0  0  2  0  0  0  0  0  0
  188.7790  178.3880  137.8650 C   0  0  1  0  0  3  0  0  0  0  0  0
  188.6890  179.6240  137.2170 O   0  0  0  0  0  1  0  0  0  0  0  0
  188.6260  176.1040  136.7160 C   0  0  0  0  0  2  0  0  0  0  0  0
  189.4980  177.3160  137.0230 C   0  0  0  0  0  3  0  0  0  0  0  0
  188.8420  177.1610  135.6580 C   0  0  0  0  0  2  0  0  0  0  0  0
  189.7930  177.1080  141.1050 C   0  0  0  0  0  2  0  0  0  0  0  0
  190.4090  178.0380  142.0460 N   0  0  0  0  0  2  0  0  0  0  0  0
  188.0480  177.8940  146.3810 C   0  0  0  0  0  2  0  0  0  0  0  0
  189.2880  177.9350  144.2100 C   0  0  0  0  0  3  0  0  0  0  0  0
  189.4320  177.6700  148.4420 C   0  0  0  0  0  2  0  0  0  0  0  0
  188.1360  177.2490  147.7610 C   0  0  0  0  0  2  0  0  0  0  0  0
  190.4520  177.7990  143.4520 C   0  0  0  0  0  0  0  0  0  0  0  0
  190.6190  177.0910  147.6750 C   0  0  0  0  0  2  0  0  0  0  0  0
  191.6590  177.2360  145.4410 N   0  0  0  0  0  0  0  0  0  0  0  0
  191.6410  177.4330  144.0960 C   0  0  0  0  0  3  0  0  0  0  0  0
  190.5390  177.3830  146.2040 C   0  0  0  0  0  0  0  0  0  0  0  0
  189.3140  177.7060  145.5870 C   0  0  0  0  0  0  0  0  0  0  0  0
  184.7600  176.4380  137.6800 C   0  0  0  0  0  2  0  0  0  0  0  0
  183.6840  176.0250  136.6810 C   0  0  2  0  0  3  0  0  0  0  0  0
  183.9990  173.6420  137.9120 O   0  0  0  0  0  0  0  0  0  0  0  0
  183.4940  174.2440  136.6320 S   0  0  0  0  0  0  0  0  0  0  0  0
  184.2880  173.6870  135.4790 O   0  0  0  0  0  0  0  0  0  0  0  0
  180.6950  174.8860  136.7280 C   0  0  0  0  0  2  0  0  0  0  0  0
  181.3280  172.5110  136.9610 C   0  0  1  0  0  3  0  0  0  0  0  0
  179.4380  174.1030  137.0270 C   0  0  0  0  0  2  0  0  0  0  0  0
  181.7640  173.8540  136.4250 C   0  0  2  0  0  0  0  0  0  0  0  0
  179.8930  172.7180  137.4630 C   0  0  2  0  0  0  0  0  0  0  0  0
  181.4500  172.7380  135.4540 C   0  0  0  0  0  2  0  0  0  0  0  0
  179.8820  172.6570  138.8570 O   0  0  0  0  0  1  0  0  0  0  0  0
  179.6520  170.5760  136.4020 O   0  0  0  0  0  1  0  0  0  0  0  0
  178.9410  171.6690  136.9020 C   0  0  0  0  0  2  0  0  0  0  0  0
  183.9060  176.6110  135.2860 C   0  0  2  0  0  3  0  0  0  0  0  0
  185.1900  177.1410  135.1660 O   0  0  0  0  0  1  0  0  0  0  0  0
  182.8530  177.6750  135.0050 C   0  0  0  0  0  2  0  0  0  0  0  0
  181.7670  177.6780  136.0710 C   0  0  0  0  0  2  0  0  0  0  0  0
  180.8930  179.7350  135.2560 O   0  0  0  0  0  0  0  0  0  0  0  0
  181.2170  179.0510  136.2600 C   0  0  0  0  0  0  0  0  0  0  0  0
  181.0680  179.5900  137.5350 O   0  0  0  0  0  0  0  0  0  0  0  0
  181.8370  180.6100  137.9390 O   0  0  0  0  0  1  0  0  0  0  0  0
  1  5  1  6  0  0  0
  1  6  1  0  0  0  0
  2 34  1  1  0  0  0
  2  3  1  0  0  0  0
  2 12  1  0  0  0  0
  4 11  2  0  0  0  0
  4 13  1  0  0  0  0
  7 14  1  1  0  0  0
  7  1  1  0  0  0  0
  8  3  1  6  0  0  0
  8  9  1  0  0  0  0
  8 10  1  0  0  0  0
  9 12  1  1  0  0  0
  9  4  1  0  0  0  0
 10  7  1  0  0  0  0
 10 13  1  0  0  0  0
 13  6  1  0  0  0  0
 15 22  1  0  0  0  0
 15 14  1  0  0  0  0
 16 15  1  0  0  0  0
 17 16  1  0  0  0  0
 18 17  1  0  0  0  0
 19 20  1  0  0  0  0
 20 17  1  0  0  0  0
 21 19  1  0  0  0  0
 21 20  1  0  0  0  0
 22 23  1  0  0  0  0
 23 28  1  0  0  0  0
 24 27  1  0  0  0  0
 25 33  1  0  0  0  0
 27 26  1  0  0  0  0
 28 31  1  0  0  0  0
 28 25  2  0  0  0  0
 29 26  1  0  0  0  0
 30 32  1  0  0  0  0
 31 30  2  0  0  0  0
 32 29  1  0  0  0  0
 33 32  2  0  0  0  0
 33 24  1  0  0  0  0
 35 34  1  0  0  0  0
 37 35  1  0  0  0  0
 37 36  2  0  0  0  0
 38 37  2  0  0  0  0
 39 41  1  0  0  0  0
 40 43  1  0  0  0  0
 41 43  1  0  0  0  0
 42 37  1  0  0  0  0
 42 39  1  0  0  0  0
 42 40  1  0  0  0  0
 43 45  1  0  0  0  0
 44 42  1  0  0  0  0
 44 40  1  0  0  0  0
 46 47  1  0  0  0  0
 47 43  1  0  0  0  0
 48 35  1  0  0  0  0
 49 48  1  0  0  0  0
 50 48  1  0  0  0  0
 50 51  1  0  0  0  0
 51 53  1  0  0  0  0
 52 53  2  0  0  0  0
 53 54  1  0  0  0  0
 54 55  1  0  0  0  0
M  END
>  <MODEL>
5

>  <REMARK>
 VINA RESULT:      -6.9      3.375      9.542
  Name = 
  18 active torsions:
  status: ('A' for Active; 'I' for Inactive)
    1  A    between atoms: C_1  and  C_12
    2  A    between atoms: C_1  and  C_23
    3  A    between atoms: C_1  and  S_28
    4  A    between atoms: C_4  and  N_44
    5  A    between atoms: C_4  and  N_50
    6  A    between atoms: O_6  and  C_38
    7  A    between atoms: C_7  and  C_23
    8  A    between atoms: C_7  and  C_34
    9  A    between atoms: C_11  and  C_36
   10  A    between atoms: C_11  and  N_44
   11  A    between atoms: C_12  and  C_13
   12  A    between atoms: C_17  and  C_36
   13  A    between atoms: C_21  and  N_50
   14  A    between atoms: C_25  and  C_33
   15  A    between atoms: C_25  and  N_44
   16  A    between atoms: S_28  and  C_29
   17  A    between atoms: C_34  and  C_38
   18  A    between atoms: C_35  and  C_39
                            x       y       z     vdW  Elec       q    Type
                         _______ _______ _______ _____ _____    ______ ____

>  <TORSDO>
F 18

$$$$
=
 OpenBabel11062412123D

 55 62  0  0  1  0  0  0  0  0999 V2000
  189.7430  174.7190  137.0280 C   0  0  2  0  0  3  0  0  0  0  0  0
  189.3960  177.5670  141.1690 C   0  0  2  0  0  3  0  0  0  0  0  0
  188.8840  177.6740  139.8100 N   0  0  0  0  0  2  0  0  0  0  0  0
  192.1170  176.7490  138.7100 C   0  0  0  0  0  0  0  0  0  0  0  0
  189.3210  173.5210  137.5790 F   0  0  0  0  0  0  0  0  0  0  0  0
  191.2070  174.9350  137.3250 C   0  0  0  0  0  2  0  0  0  0  0  0
  189.0060  175.8870  137.6590 C   0  0  1  0  0  3  0  0  0  0  0  0
  190.0470  177.8830  138.9460 C   0  0  1  0  0  3  0  0  0  0  0  0
  191.3340  177.5390  139.6850 C   0  0  1  0  0  3  0  0  0  0  0  0
  190.0020  177.0420  137.6520 C   0  0  1  0  0  3  0  0  0  0  0  0
  193.3110  176.5370  138.8500 O   0  0  0  0  0  0  0  0  0  0  0  0
  190.8870  176.5500  141.1260 S   0  0  0  0  0  0  0  0  0  0  0  0
  191.3880  176.4350  137.4570 C   0  0  1  0  0  3  0  0  0  0  0  0
  187.7830  176.2790  136.8360 C   0  0  0  0  0  2  0  0  0  0  0  0
  187.0930  175.1070  136.2990 N   0  0  0  0  0  0  0  0  0  0  0  0
  186.5520  174.2640  137.3730 C   0  0  0  0  0  2  0  0  0  0  0  0
  186.2960  172.8100  136.9570 C   0  0  1  0  0  3  0  0  0  0  0  0
  184.9210  172.5600  136.9260 O   0  0  0  0  0  1  0  0  0  0  0  0
  187.7820  171.1540  135.6900 C   0  0  0  0  0  2  0  0  0  0  0  0
  187.0050  172.4640  135.6330 C   0  0  0  0  0  3  0  0  0  0  0  0
  186.4280  171.1950  135.0200 C   0  0  0  0  0  2  0  0  0  0  0  0
  186.0120  175.5880  135.4520 C   0  0  0  0  0  2  0  0  0  0  0  0
  185.4680  176.8250  136.0050 N   0  0  0  0  0  2  0  0  0  0  0  0
  182.9450  178.9830  139.6590 C   0  0  0  0  0  2  0  0  0  0  0  0
  184.1730  177.8610  137.7930 C   0  0  0  0  0  3  0  0  0  0  0  0
  180.9730  177.7650  140.5760 C   0  0  0  0  0  2  0  0  0  0  0  0
  181.5240  179.1330  140.1950 C   0  0  0  0  0  2  0  0  0  0  0  0
  184.3080  176.8560  136.8340 C   0  0  0  0  0  0  0  0  0  0  0  0
  180.8170  176.9130  139.3180 C   0  0  0  0  0  2  0  0  0  0  0  0
  182.2120  175.9350  137.5320 N   0  0  0  0  0  0  0  0  0  0  0  0
  183.2950  175.8960  136.7120 C   0  0  0  0  0  3  0  0  0  0  0  0
  182.0690  176.8950  138.4880 C   0  0  0  0  0  0  0  0  0  0  0  0
  183.0440  177.9050  138.6120 C   0  0  0  0  0  0  0  0  0  0  0  0
  188.3530  176.9700  142.0910 C   0  0  0  0  0  2  0  0  0  0  0  0
  187.5690  178.1030  142.7450 C   0  0  2  0  0  3  0  0  0  0  0  0
  186.8420  176.5450  144.8280 O   0  0  0  0  0  0  0  0  0  0  0  0
  187.4630  177.8770  144.5190 S   0  0  0  0  0  0  0  0  0  0  0  0
  186.6090  178.9680  145.1120 O   0  0  0  0  0  0  0  0  0  0  0  0
  190.2360  178.6240  144.4530 C   0  0  0  0  0  2  0  0  0  0  0  0
  189.6150  176.6680  145.8250 C   0  0  1  0  0  3  0  0  0  0  0  0
  191.5120  178.0090  144.9800 C   0  0  0  0  0  2  0  0  0  0  0  0
  189.1070  177.9500  145.2080 C   0  0  2  0  0  0  0  0  0  0  0  0
  191.1250  176.6540  145.5540 C   0  0  2  0  0  0  0  0  0  0  0  0
  189.1990  177.8390  146.7140 C   0  0  0  0  0  2  0  0  0  0  0  0
  191.4140  175.6660  144.6130 O   0  0  0  0  0  1  0  0  0  0  0  0
  192.7210  175.2550  146.6820 O   0  0  0  0  0  1  0  0  0  0  0  0
  191.9250  176.3940  146.8250 C   0  0  0  0  0  2  0  0  0  0  0  0
  186.1920  178.3170  142.1150 C   0  0  2  0  0  3  0  0  0  0  0  0
  186.2920  179.0390  140.9270 O   0  0  0  0  0  1  0  0  0  0  0  0
  185.2810  179.0300  143.1070 C   0  0  0  0  0  2  0  0  0  0  0  0
  183.9880  178.2600  143.3270 C   0  0  0  0  0  2  0  0  0  0  0  0
  182.0150  179.5840  143.4360 O   0  0  0  0  0  0  0  0  0  0  0  0
  182.9930  179.0960  144.0570 C   0  0  0  0  0  0  0  0  0  0  0  0
  183.1390  179.3540  145.4170 O   0  0  0  0  0  0  0  0  0  0  0  0
  183.9600  178.6090  146.1700 O   0  0  0  0  0  1  0  0  0  0  0  0
  1  6  1  0  0  0  0
  1  5  1  1  0  0  0
  1  7  1  0  0  0  0
  2 34  1  1  0  0  0
  3  2  1  0  0  0  0
  4 11  2  0  0  0  0
  6 13  1  0  0  0  0
  7 14  1  6  0  0  0
  8  9  1  0  0  0  0
  8  3  1  1  0  0  0
  9  4  1  6  0  0  0
  9 12  1  0  0  0  0
 10  7  1  0  0  0  0
 10  8  1  0  0  0  0
 12  2  1  0  0  0  0
 13 10  1  0  0  0  0
 13  4  1  0  0  0  0
 15 14  1  0  0  0  0
 15 16  1  0  0  0  0
 17 16  1  0  0  0  0
 18 17  1  0  0  0  0
 20 19  1  0  0  0  0
 20 17  1  0  0  0  0
 21 20  1  0  0  0  0
 21 19  1  0  0  0  0
 22 23  1  0  0  0  0
 22 15  1  0  0  0  0
 23 28  1  0  0  0  0
 24 27  1  0  0  0  0
 25 33  1  0  0  0  0
 27 26  1  0  0  0  0
 28 25  2  0  0  0  0
 29 26  1  0  0  0  0
 30 32  1  0  0  0  0
 31 28  1  0  0  0  0
 31 30  2  0  0  0  0
 32 33  2  0  0  0  0
 32 29  1  0  0  0  0
 33 24  1  0  0  0  0
 34 35  1  0  0  0  0
 35 37  1  0  0  0  0
 37 36  2  0  0  0  0
 37 38  2  0  0  0  0
 37 42  1  0  0  0  0
 39 41  1  0  0  0  0
 39 42  1  0  0  0  0
 40 44  1  0  0  0  0
 41 43  1  0  0  0  0
 42 40  1  0  0  0  0
 42 44  1  0  0  0  0
 43 40  1  0  0  0  0
 43 47  1  0  0  0  0
 45 43  1  0  0  0  0
 46 47  1  0  0  0  0
 48 35  1  0  0  0  0
 48 50  1  0  0  0  0
 49 48  1  0  0  0  0
 50 51  1  0  0  0  0
 51 53  1  0  0  0  0
 52 53  2  0  0  0  0
 53 54  1  0  0  0  0
 54 55  1  0  0  0  0
M  END
>  <MODEL>
6

>  <REMARK>
 VINA RESULT:      -6.6      1.483      2.281
  Name = 
  18 active torsions:
  status: ('A' for Active; 'I' for Inactive)
    1  A    between atoms: C_1  and  C_12
    2  A    between atoms: C_1  and  C_23
    3  A    between atoms: C_1  and  S_28
    4  A    between atoms: C_4  and  N_44
    5  A    between atoms: C_4  and  N_50
    6  A    between atoms: O_6  and  C_38
    7  A    between atoms: C_7  and  C_23
    8  A    between atoms: C_7  and  C_34
    9  A    between atoms: C_11  and  C_36
   10  A    between atoms: C_11  and  N_44
   11  A    between atoms: C_12  and  C_13
   12  A    between atoms: C_17  and  C_36
   13  A    between atoms: C_21  and  N_50
   14  A    between atoms: C_25  and  C_33
   15  A    between atoms: C_25  and  N_44
   16  A    between atoms: S_28  and  C_29
   17  A    between atoms: C_34  and  C_38
   18  A    between atoms: C_35  and  C_39
                            x       y       z     vdW  Elec       q    Type
                         _______ _______ _______ _____ _____    ______ ____

>  <TORSDO>
F 18

$$$$
=
 OpenBabel11062412123D

 55 62  0  0  1  0  0  0  0  0999 V2000
  188.2350  175.5600  136.4500 C   0  0  2  0  0  3  0  0  0  0  0  0
  187.7980  178.3180  140.6440 C   0  0  2  0  0  3  0  0  0  0  0  0
  187.4810  178.5370  139.2390 N   0  0  0  0  0  2  0  0  0  0  0  0
  190.6540  177.1620  138.4920 C   0  0  0  0  0  0  0  0  0  0  0  0
  187.5760  174.4260  136.8920 F   0  0  0  0  0  0  0  0  0  0  0  0
  189.6670  175.5440  136.9290 C   0  0  0  0  0  2  0  0  0  0  0  0
  187.6060  176.8090  137.0410 C   0  0  1  0  0  3  0  0  0  0  0  0
  188.7600  178.5890  138.5310 C   0  0  1  0  0  3  0  0  0  0  0  0
  189.8810  178.0350  139.4010 C   0  0  1  0  0  3  0  0  0  0  0  0
  188.7530  177.8000  137.2040 C   0  0  1  0  0  3  0  0  0  0  0  0
  191.7770  176.7680  138.7640 O   0  0  0  0  0  0  0  0  0  0  0  0
  189.1170  177.0880  140.7330 S   0  0  0  0  0  0  0  0  0  0  0  0
  190.0490  176.9950  137.1480 C   0  0  1  0  0  3  0  0  0  0  0  0
  186.5660  177.4030  136.0960 C   0  0  0  0  0  2  0  0  0  0  0  0
  185.2770  176.7220  136.2120 N   0  0  0  0  0  0  0  0  0  0  0  0
  185.2820  175.4410  135.4940 C   0  0  0  0  0  2  0  0  0  0  0  0
  184.1470  174.4930  135.9020 C   0  0  1  0  0  3  0  0  0  0  0  0
  183.1080  174.5660  134.9700 O   0  0  0  0  0  1  0  0  0  0  0  0
  184.9190  172.7290  137.5910 C   0  0  0  0  0  2  0  0  0  0  0  0
  184.6590  173.0560  136.1250 C   0  0  0  0  0  3  0  0  0  0  0  0
  183.6550  172.2360  136.9250 C   0  0  0  0  0  2  0  0  0  0  0  0
  185.0300  176.4970  137.6280 C   0  0  0  0  0  2  0  0  0  0  0  0
  183.5980  176.5800  137.8970 N   0  0  0  0  0  2  0  0  0  0  0  0
  181.7970  181.1000  138.7360 C   0  0  0  0  0  2  0  0  0  0  0  0
  182.6930  178.8170  138.2540 C   0  0  0  0  0  3  0  0  0  0  0  0
  179.9810  181.9160  137.2360 C   0  0  0  0  0  2  0  0  0  0  0  0
  181.2390  182.3130  137.9970 C   0  0  0  0  0  2  0  0  0  0  0  0
  182.7920  177.6720  137.4610 C   0  0  0  0  0  0  0  0  0  0  0  0
  180.3490  180.9310  136.1280 C   0  0  0  0  0  2  0  0  0  0  0  0
  181.3080  178.6710  135.8700 N   0  0  0  0  0  0  0  0  0  0  0  0
  182.0880  177.6250  136.2500 C   0  0  0  0  0  3  0  0  0  0  0  0
  181.1810  179.7900  136.6380 C   0  0  0  0  0  0  0  0  0  0  0  0
  181.9080  179.8950  137.8410 C   0  0  0  0  0  0  0  0  0  0  0  0
  186.5730  177.8620  141.4070 C   0  0  0  0  0  2  0  0  0  0  0  0
  186.5390  178.5730  142.7550 C   0  0  2  0  0  3  0  0  0  0  0  0
  186.9640  176.0440  143.5990 O   0  0  0  0  0  0  0  0  0  0  0  0
  186.9950  177.4640  144.0850 S   0  0  0  0  0  0  0  0  0  0  0  0
  186.0180  177.6170  145.2220 O   0  0  0  0  0  0  0  0  0  0  0  0
  189.5800  178.6740  143.7570 C   0  0  0  0  0  2  0  0  0  0  0  0
  189.4090  176.7530  145.2980 C   0  0  1  0  0  3  0  0  0  0  0  0
  190.9770  178.3340  144.2230 C   0  0  0  0  0  2  0  0  0  0  0  0
  188.6410  177.8750  144.6400 C   0  0  2  0  0  0  0  0  0  0  0  0
  190.8770  176.9810  144.9130 C   0  0  2  0  0  0  0  0  0  0  0  0
  188.8480  177.9000  146.1380 C   0  0  0  0  0  2  0  0  0  0  0  0
  191.2770  175.9880  144.0190 O   0  0  0  0  0  1  0  0  0  0  0  0
  192.0500  175.6520  146.5350 O   0  0  0  0  0  1  0  0  0  0  0  0
  191.7900  176.9640  146.1330 C   0  0  0  0  0  2  0  0  0  0  0  0
  185.2060  179.2720  143.0280 C   0  0  2  0  0  3  0  0  0  0  0  0
  185.2310  179.9320  144.2560 O   0  0  0  0  0  1  0  0  0  0  0  0
  184.0760  178.2510  142.9850 C   0  0  0  0  0  2  0  0  0  0  0  0
  183.0260  178.6280  141.9500 C   0  0  0  0  0  2  0  0  0  0  0  0
  180.9080  179.7100  141.9480 O   0  0  0  0  0  0  0  0  0  0  0  0
  181.7700  179.0800  142.6130 C   0  0  0  0  0  0  0  0  0  0  0  0
  181.5420  178.8230  143.9610 O   0  0  0  0  0  0  0  0  0  0  0  0
  180.4810  178.1030  144.3500 O   0  0  0  0  0  1  0  0  0  0  0  0
  1  5  1  1  0  0  0
  1  6  1  0  0  0  0
  1  7  1  0  0  0  0
  2 12  1  0  0  0  0
  2 34  1  1  0  0  0
  3  2  1  0  0  0  0
  4 11  2  0  0  0  0
  6 13  1  0  0  0  0
  7 14  1  6  0  0  0
  7 10  1  0  0  0  0
  8  3  1  1  0  0  0
  8  9  1  0  0  0  0
  9  4  1  6  0  0  0
  9 12  1  0  0  0  0
 10  8  1  0  0  0  0
 13 10  1  0  0  0  0
 13  4  1  0  0  0  0
 14 15  1  0  0  0  0
 15 22  1  0  0  0  0
 16 17  1  0  0  0  0
 16 15  1  0  0  0  0
 17 20  1  0  0  0  0
 18 17  1  0  0  0  0
 20 21  1  0  0  0  0
 20 19  1  0  0  0  0
 21 19  1  0  0  0  0
 22 23  1  0  0  0  0
 26 27  1  0  0  0  0
 27 24  1  0  0  0  0
 28 23  1  0  0  0  0
 28 25  2  0  0  0  0
 29 32  1  0  0  0  0
 29 26  1  0  0  0  0
 30 31  2  0  0  0  0
 30 32  1  0  0  0  0
 31 28  1  0  0  0  0
 32 33  2  0  0  0  0
 33 25  1  0  0  0  0
 33 24  1  0  0  0  0
 34 35  1  0  0  0  0
 35 48  1  0  0  0  0
 35 37  1  0  0  0  0
 36 37  2  0  0  0  0
 37 42  1  0  0  0  0
 37 38  2  0  0  0  0
 39 41  1  0  0  0  0
 39 42  1  0  0  0  0
 40 44  1  0  0  0  0
 41 43  1  0  0  0  0
 42 40  1  0  0  0  0
 42 44  1  0  0  0  0
 43 40  1  0  0  0  0
 43 47  1  0  0  0  0
 45 43  1  0  0  0  0
 47 46  1  0  0  0  0
 48 49  1  0  0  0  0
 50 48  1  0  0  0  0
 51 53  1  0  0  0  0
 51 50  1  0  0  0  0
 52 53  2  0  0  0  0
 53 54  1  0  0  0  0
 54 55  1  0  0  0  0
M  END
>  <MODEL>
7

>  <REMARK>
 VINA RESULT:      -6.2      1.969      2.572
  Name = 
  18 active torsions:
  status: ('A' for Active; 'I' for Inactive)
    1  A    between atoms: C_1  and  C_12
    2  A    between atoms: C_1  and  C_23
    3  A    between atoms: C_1  and  S_28
    4  A    between atoms: C_4  and  N_44
    5  A    between atoms: C_4  and  N_50
    6  A    between atoms: O_6  and  C_38
    7  A    between atoms: C_7  and  C_23
    8  A    between atoms: C_7  and  C_34
    9  A    between atoms: C_11  and  C_36
   10  A    between atoms: C_11  and  N_44
   11  A    between atoms: C_12  and  C_13
   12  A    between atoms: C_17  and  C_36
   13  A    between atoms: C_21  and  N_50
   14  A    between atoms: C_25  and  C_33
   15  A    between atoms: C_25  and  N_44
   16  A    between atoms: S_28  and  C_29
   17  A    between atoms: C_34  and  C_38
   18  A    between atoms: C_35  and  C_39
                            x       y       z     vdW  Elec       q    Type
                         _______ _______ _______ _____ _____    ______ ____

>  <TORSDO>
F 18

$$$$
=
 OpenBabel11062412123D

 55 62  0  0  1  0  0  0  0  0999 V2000
  185.5370  176.5430  136.6280 C   0  0  2  0  0  3  0  0  0  0  0  0
  188.8960  177.6480  140.2170 C   0  0  2  0  0  3  0  0  0  0  0  0
  187.5580  178.1210  139.8890 N   0  0  0  0  0  2  0  0  0  0  0  0
  188.6310  178.2770  136.5220 C   0  0  0  0  0  0  0  0  0  0  0  0
  185.5020  175.1710  136.8100 F   0  0  0  0  0  0  0  0  0  0  0  0
  186.7240  176.9200  135.7750 C   0  0  0  0  0  2  0  0  0  0  0  0
  185.7290  177.2530  137.9560 C   0  0  1  0  0  3  0  0  0  0  0  0
  187.6730  178.8370  138.6190 C   0  0  1  0  0  3  0  0  0  0  0  0
  188.9950  178.5120  137.9350 C   0  0  1  0  0  3  0  0  0  0  0  0
  186.5340  178.5070  137.6300 C   0  0  1  0  0  3  0  0  0  0  0  0
  189.4610  178.2640  135.6270 O   0  0  0  0  0  0  0  0  0  0  0  0
  189.6510  177.0170  138.7030 S   0  0  0  0  0  0  0  0  0  0  0  0
  187.1700  178.2850  136.2620 C   0  0  1  0  0  3  0  0  0  0  0  0
  184.3910  177.6640  138.5620 C   0  0  0  0  0  2  0  0  0  0  0  0
  183.2690  177.0070  137.8920 N   0  0  0  0  0  0  0  0  0  0  0  0
  183.0880  175.6310  138.3740 C   0  0  0  0  0  2  0  0  0  0  0  0
  181.8920  174.9030  137.7490 C   0  0  1  0  0  3  0  0  0  0  0  0
  182.2560  173.5980  137.4050 O   0  0  0  0  0  1  0  0  0  0  0  0
  179.3540  175.2120  137.8960 C   0  0  0  0  0  2  0  0  0  0  0  0
  180.6500  174.9640  138.6590 C   0  0  0  0  0  3  0  0  0  0  0  0
  179.6960  173.8150  138.3610 C   0  0  0  0  0  2  0  0  0  0  0  0
  182.0760  177.7920  138.1720 C   0  0  0  0  0  2  0  0  0  0  0  0
  181.7470  178.6170  137.0140 N   0  0  0  0  0  2  0  0  0  0  0  0
  179.8050  182.6650  134.9580 C   0  0  0  0  0  2  0  0  0  0  0  0
  180.7850  180.6420  136.0530 C   0  0  0  0  0  3  0  0  0  0  0  0
  180.1610  184.8370  136.1270 C   0  0  0  0  0  2  0  0  0  0  0  0
  179.1670  183.9990  135.3340 C   0  0  0  0  0  2  0  0  0  0  0  0
  181.4140  180.0000  137.1210 C   0  0  0  0  0  0  0  0  0  0  0  0
  180.4410  184.1590  137.4670 C   0  0  0  0  0  2  0  0  0  0  0  0
  181.4000  182.0590  138.3410 N   0  0  0  0  0  0  0  0  0  0  0  0
  181.7070  180.7370  138.2760 C   0  0  0  0  0  3  0  0  0  0  0  0
  180.8040  182.7110  137.3030 C   0  0  0  0  0  0  0  0  0  0  0  0
  180.4530  181.9950  136.1410 C   0  0  0  0  0  0  0  0  0  0  0  0
  188.8410  176.5800  141.2880 C   0  0  0  0  0  2  0  0  0  0  0  0
  189.0890  177.2290  142.6450 C   0  0  2  0  0  3  0  0  0  0  0  0
  191.7720  177.4970  142.5010 O   0  0  0  0  0  0  0  0  0  0  0  0
  190.7030  176.7940  143.2880 S   0  0  0  0  0  0  0  0  0  0  0  0
  190.9040  175.3050  143.1710 O   0  0  0  0  0  0  0  0  0  0  0  0
  191.6820  176.5400  145.9760 C   0  0  0  0  0  2  0  0  0  0  0  0
  189.4720  177.5950  145.6640 C   0  0  1  0  0  3  0  0  0  0  0  0
  191.0960  176.7920  147.3460 C   0  0  0  0  0  2  0  0  0  0  0  0
  190.7940  177.2870  145.0010 C   0  0  2  0  0  0  0  0  0  0  0  0
  189.6340  177.1510  147.1240 C   0  0  2  0  0  0  0  0  0  0  0  0
  190.4310  178.7260  145.2950 C   0  0  0  0  0  2  0  0  0  0  0  0
  188.8520  176.0170  147.3480 O   0  0  0  0  0  1  0  0  0  0  0  0
  187.8720  178.5610  147.9490 O   0  0  0  0  0  1  0  0  0  0  0  0
  189.2250  178.2500  148.0970 C   0  0  0  0  0  2  0  0  0  0  0  0
  187.9780  176.9420  143.6560 C   0  0  2  0  0  3  0  0  0  0  0  0
  187.5690  175.6110  143.5850 O   0  0  0  0  0  1  0  0  0  0  0  0
  186.8060  177.8820  143.4090 C   0  0  0  0  0  2  0  0  0  0  0  0
  186.0250  178.1460  144.6880 C   0  0  0  0  0  2  0  0  0  0  0  0
  184.0030  179.2650  145.2510 O   0  0  0  0  0  0  0  0  0  0  0  0
  184.6520  178.6370  144.3760 C   0  0  0  0  0  0  0  0  0  0  0  0
  184.0740  178.4000  143.1330 O   0  0  0  0  0  0  0  0  0  0  0  0
  182.8940  178.9480  142.8120 O   0  0  0  0  0  1  0  0  0  0  0  0
  1  5  1  1  0  0  0
  1  7  1  0  0  0  0
  2 34  1  1  0  0  0
  3  2  1  0  0  0  0
  6 13  1  0  0  0  0
  6  1  1  0  0  0  0
  7 14  1  6  0  0  0
  8  3  1  1  0  0  0
  9  4  1  6  0  0  0
  9  8  1  0  0  0  0
  9 12  1  0  0  0  0
 10  7  1  0  0  0  0
 10  8  1  0  0  0  0
 11  4  2  0  0  0  0
 12  2  1  0  0  0  0
 13  4  1  0  0  0  0
 13 10  1  0  0  0  0
 15 22  1  0  0  0  0
 15 16  1  0  0  0  0
 15 14  1  0  0  0  0
 17 16  1  0  0  0  0
 17 20  1  0  0  0  0
 18 17  1  0  0  0  0
 19 21  1  0  0  0  0
 19 20  1  0  0  0  0
 21 20  1  0  0  0  0
 23 28  1  0  0  0  0
 23 22  1  0  0  0  0
 24 27  1  0  0  0  0
 24 33  1  0  0  0  0
 25 33  2  0  0  0  0
 25 28  1  0  0  0  0
 26 29  1  0  0  0  0
 27 26  1  0  0  0  0
 28 31  2  0  0  0  0
 31 30  1  0  0  0  0
 32 29  1  0  0  0  0
 32 30  2  0  0  0  0
 33 32  1  0  0  0  0
 34 35  1  0  0  0  0
 35 37  1  0  0  0  0
 35 48  1  0  0  0  0
 36 37  2  0  0  0  0
 37 42  1  0  0  0  0
 38 37  2  0  0  0  0
 39 41  1  0  0  0  0
 40 43  1  0  0  0  0
 42 44  1  0  0  0  0
 42 40  1  0  0  0  0
 42 39  1  0  0  0  0
 43 41  1  0  0  0  0
 43 45  1  0  0  0  0
 43 47  1  0  0  0  0
 44 40  1  0  0  0  0
 46 47  1  0  0  0  0
 49 48  1  0  0  0  0
 50 48  1  0  0  0  0
 50 51  1  0  0  0  0
 53 51  1  0  0  0  0
 53 52  2  0  0  0  0
 54 53  1  0  0  0  0
 55 54  1  0  0  0  0
M  END
>  <MODEL>
8

>  <REMARK>
 VINA RESULT:      -6.1      2.989      4.565
  Name = 
  18 active torsions:
  status: ('A' for Active; 'I' for Inactive)
    1  A    between atoms: C_1  and  C_12
    2  A    between atoms: C_1  and  C_23
    3  A    between atoms: C_1  and  S_28
    4  A    between atoms: C_4  and  N_44
    5  A    between atoms: C_4  and  N_50
    6  A    between atoms: O_6  and  C_38
    7  A    between atoms: C_7  and  C_23
    8  A    between atoms: C_7  and  C_34
    9  A    between atoms: C_11  and  C_36
   10  A    between atoms: C_11  and  N_44
   11  A    between atoms: C_12  and  C_13
   12  A    between atoms: C_17  and  C_36
   13  A    between atoms: C_21  and  N_50
   14  A    between atoms: C_25  and  C_33
   15  A    between atoms: C_25  and  N_44
   16  A    between atoms: S_28  and  C_29
   17  A    between atoms: C_34  and  C_38
   18  A    between atoms: C_35  and  C_39
                            x       y       z     vdW  Elec       q    Type
                         _______ _______ _______ _____ _____    ______ ____

>  <TORSDO>
F 18

$$$$
=
 OpenBabel11062412123D

 55 62  0  0  1  0  0  0  0  0999 V2000
  181.6450  174.5660  136.8100 C   0  0  2  0  0  3  0  0  0  0  0  0
  186.3710  176.3100  136.7550 C   0  0  2  0  0  3  0  0  0  0  0  0
  185.1400  176.6720  136.0660 N   0  0  0  0  0  2  0  0  0  0  0  0
  184.6510  173.2150  135.4950 C   0  0  0  0  0  0  0  0  0  0  0  0
  181.4330  174.6190  138.1770 F   0  0  0  0  0  0  0  0  0  0  0  0
  182.3900  173.3020  136.4530 C   0  0  0  0  0  2  0  0  0  0  0  0
  182.5250  175.7170  136.3600 C   0  0  1  0  0  3  0  0  0  0  0  0
  184.8240  175.5590  135.1710 C   0  0  1  0  0  3  0  0  0  0  0  0
  185.6300  174.3220  135.5460 C   0  0  1  0  0  3  0  0  0  0  0  0
  183.3300  175.1740  135.1830 C   0  0  1  0  0  3  0  0  0  0  0  0
  184.9900  172.0430  135.4670 O   0  0  0  0  0  0  0  0  0  0  0  0
  186.2590  174.5680  137.2190 S   0  0  0  0  0  0  0  0  0  0  0  0
  183.2530  173.6520  135.2560 C   0  0  1  0  0  3  0  0  0  0  0  0
  181.6880  176.9010  135.8870 C   0  0  0  0  0  2  0  0  0  0  0  0
  181.6420  177.9670  136.8870 N   0  0  0  0  0  0  0  0  0  0  0  0
  180.2620  178.2560  137.2990 C   0  0  0  0  0  2  0  0  0  0  0  0
  179.8130  179.6940  137.0120 C   0  0  1  0  0  3  0  0  0  0  0  0
  179.3070  180.2750  138.1780 O   0  0  0  0  0  1  0  0  0  0  0  0
  180.5210  181.1910  135.0590 C   0  0  0  0  0  2  0  0  0  0  0  0
  180.9390  180.5230  136.3630 C   0  0  0  0  0  3  0  0  0  0  0  0
  180.5810  182.0020  136.3320 C   0  0  0  0  0  2  0  0  0  0  0  0
  182.4200  177.5210  138.0330 C   0  0  0  0  0  2  0  0  0  0  0  0
  182.9080  178.6770  138.7770 N   0  0  0  0  0  2  0  0  0  0  0  0
  185.2800  178.5230  143.1050 C   0  0  0  0  0  2  0  0  0  0  0  0
  184.0320  178.6260  140.9410 C   0  0  0  0  0  3  0  0  0  0  0  0
  183.8980  178.4210  145.1760 C   0  0  0  0  0  2  0  0  0  0  0  0
  185.1550  179.0070  144.5460 C   0  0  0  0  0  2  0  0  0  0  0  0
  182.8570  178.7580  140.2000 C   0  0  0  0  0  0  0  0  0  0  0  0
  182.6660  178.9910  144.4750 C   0  0  0  0  0  2  0  0  0  0  0  0
  181.6250  179.0130  142.2370 N   0  0  0  0  0  0  0  0  0  0  0  0
  181.6480  178.9650  140.8790 C   0  0  0  0  0  3  0  0  0  0  0  0
  182.7570  178.8670  142.9810 C   0  0  0  0  0  0  0  0  0  0  0  0
  183.9990  178.7030  142.3340 C   0  0  0  0  0  0  0  0  0  0  0  0
  186.5860  177.1870  137.9700 C   0  0  0  0  0  2  0  0  0  0  0  0
  188.0720  177.1970  138.3130 C   0  0  2  0  0  3  0  0  0  0  0  0
  187.1360  178.9270  140.1640 O   0  0  0  0  0  0  0  0  0  0  0  0
  188.4120  178.2950  139.6870 S   0  0  0  0  0  0  0  0  0  0  0  0
  189.3610  179.3770  139.2410 O   0  0  0  0  0  0  0  0  0  0  0  0
  188.2890  176.7580  142.1110 C   0  0  0  0  0  2  0  0  0  0  0  0
  190.3990  177.9400  141.6190 C   0  0  1  0  0  3  0  0  0  0  0  0
  189.2040  176.5770  143.3000 C   0  0  0  0  0  2  0  0  0  0  0  0
  189.1480  177.3500  141.0110 C   0  0  2  0  0  0  0  0  0  0  0  0
  190.3540  177.5540  143.1030 C   0  0  2  0  0  0  0  0  0  0  0  0
  190.4870  176.7170  140.7070 C   0  0  0  0  0  2  0  0  0  0  0  0
  190.1110  178.6960  143.8670 O   0  0  0  0  0  1  0  0  0  0  0  0
  191.4350  175.5850  143.9550 O   0  0  0  0  0  1  0  0  0  0  0  0
  191.6560  176.9060  143.5590 C   0  0  0  0  0  2  0  0  0  0  0  0
  188.9610  177.5020  137.1080 C   0  0  2  0  0  3  0  0  0  0  0  0
  188.5240  178.6470  136.4410 O   0  0  0  0  0  1  0  0  0  0  0  0
  188.9790  176.3030  136.1690 C   0  0  0  0  0  2  0  0  0  0  0  0
  190.3970  175.8030  135.9330 C   0  0  0  0  0  2  0  0  0  0  0  0
  190.8020  174.6160  137.9550 O   0  0  0  0  0  0  0  0  0  0  0  0
  191.1060  175.5970  137.2280 C   0  0  0  0  0  0  0  0  0  0  0  0
  192.0930  176.4830  137.6500 O   0  0  0  0  0  0  0  0  0  0  0  0
  193.2560  176.5730  136.9920 O   0  0  0  0  0  1  0  0  0  0  0  0
  1  5  1  1  0  0  0
  2 12  1  0  0  0  0
  2 34  1  1  0  0  0
  3  2  1  0  0  0  0
  6  1  1  0  0  0  0
  7 14  1  6  0  0  0
  7  1  1  0  0  0  0
  8 10  1  0  0  0  0
  8  9  1  0  0  0  0
  8  3  1  1  0  0  0
  9  4  1  1  0  0  0
  9 12  1  0  0  0  0
 10 13  1  0  0  0  0
 10  7  1  0  0  0  0
 11  4  2  0  0  0  0
 13  4  1  0  0  0  0
 13  6  1  0  0  0  0
 14 15  1  0  0  0  0
 15 16  1  0  0  0  0
 15 22  1  0  0  0  0
 17 16  1  0  0  0  0
 17 18  1  0  0  0  0
 19 21  1  0  0  0  0
 19 20  1  0  0  0  0
 20 17  1  0  0  0  0
 21 20  1  0  0  0  0
 22 23  1  0  0  0  0
 23 28  1  0  0  0  0
 24 27  1  0  0  0  0
 25 33  1  0  0  0  0
 27 26  1  0  0  0  0
 28 31  1  0  0  0  0
 28 25  2  0  0  0  0
 29 26  1  0  0  0  0
 30 32  1  0  0  0  0
 31 30  2  0  0  0  0
 32 29  1  0  0  0  0
 33 32  2  0  0  0  0
 33 24  1  0  0  0  0
 34 35  1  0  0  0  0
 35 37  1  0  0  0  0
 37 36  2  0  0  0  0
 37 42  1  0  0  0  0
 38 37  2  0  0  0  0
 39 41  1  0  0  0  0
 40 43  1  0  0  0  0
 42 40  1  0  0  0  0
 42 39  1  0  0  0  0
 43 41  1  0  0  0  0
 43 47  1  0  0  0  0
 43 45  1  0  0  0  0
 44 42  1  0  0  0  0
 44 40  1  0  0  0  0
 47 46  1  0  0  0  0
 48 35  1  0  0  0  0
 49 48  1  0  0  0  0
 50 48  1  0  0  0  0
 51 50  1  0  0  0  0
 51 53  1  0  0  0  0
 53 54  1  0  0  0  0
 53 52  2  0  0  0  0
 55 54  1  0  0  0  0
M  END
>  <MODEL>
9

>  <REMARK>
 VINA RESULT:      -6.0      2.758      6.890
  Name = 
  18 active torsions:
  status: ('A' for Active; 'I' for Inactive)
    1  A    between atoms: C_1  and  C_12
    2  A    between atoms: C_1  and  C_23
    3  A    between atoms: C_1  and  S_28
    4  A    between atoms: C_4  and  N_44
    5  A    between atoms: C_4  and  N_50
    6  A    between atoms: O_6  and  C_38
    7  A    between atoms: C_7  and  C_23
    8  A    between atoms: C_7  and  C_34
    9  A    between atoms: C_11  and  C_36
   10  A    between atoms: C_11  and  N_44
   11  A    between atoms: C_12  and  C_13
   12  A    between atoms: C_17  and  C_36
   13  A    between atoms: C_21  and  N_50
   14  A    between atoms: C_25  and  C_33
   15  A    between atoms: C_25  and  N_44
   16  A    between atoms: S_28  and  C_29
   17  A    between atoms: C_34  and  C_38
   18  A    between atoms: C_35  and  C_39
                            x       y       z     vdW  Elec       q    Type
                         _______ _______ _______ _____ _____    ______ ____

>  <TORSDO>
F 18

$$$$
