=
 OpenBabel11062416583D

 26 31  0  0  1  0  0  0  0  0999 V2000
  186.8750  175.6420  137.0540 C   0  0  0  0  0  0  0  0  0  0  0  0
  187.3510  176.8550  137.6130 C   0  0  0  0  0  0  0  0  0  0  0  0
  185.5390  175.5720  136.6190 C   0  0  0  0  0  3  0  0  0  0  0  0
  186.4990  177.9710  137.6560 C   0  0  0  0  0  3  0  0  0  0  0  0
  185.1860  177.8890  137.1930 C   0  0  0  0  0  3  0  0  0  0  0  0
  184.7030  176.6860  136.6830 C   0  0  0  0  0  3  0  0  0  0  0  0
  189.8520  177.1880  137.3430 C   0  0  0  0  0  2  0  0  0  0  0  0
  188.6790  176.9750  138.1570 N   0  0  0  0  0  0  0  0  0  0  0  0
  191.0100  177.0800  140.6300 C   0  0  0  0  0  2  0  0  0  0  0  0
  190.5060  176.3170  139.4930 N   0  0  2  0  0  0  0  0  0  0  0  0
  189.8370  177.4790  141.5050 C   0  0  1  0  0  3  0  0  0  0  0  0
  191.0180  176.9550  138.2800 C   0  0  0  0  0  2  0  0  0  0  0  0
  189.0500  176.4760  139.4700 C   0  0  1  0  0  3  0  0  0  0  0  0
  188.6350  177.4200  140.6000 C   0  0  2  0  0  3  0  0  0  0  0  0
  188.3630  178.7060  140.1250 O   0  0  0  0  0  1  0  0  0  0  0  0
  188.2920  176.3350  143.2310 C   0  0  0  0  0  2  0  0  0  0  0  0
  190.4810  175.3680  142.7360 O   0  0  0  0  0  1  0  0  0  0  0  0
  189.3450  177.1130  144.0150 C   0  0  0  0  0  2  0  0  0  0  0  0
  189.6830  176.5120  142.6730 C   0  0  0  0  0  0  0  0  0  0  0  0
  187.4430  172.4550  136.1240 C   0  0  0  0  0  2  0  0  0  0  0  0
  189.0620  174.5460  136.1570 C   0  0  0  0  0  2  0  0  0  0  0  0
  187.1140  174.4160  134.5950 O   0  0  0  0  0  1  0  0  0  0  0  0
  187.7740  174.4180  136.9430 C   0  0  2  0  0  0  0  0  0  0  0  0
  186.0500  173.0560  137.9610 O   0  0  0  0  0  1  0  0  0  0  0  0
  187.9160  173.7760  135.5440 C   0  0  1  0  0  0  0  0  0  0  0  0
  187.3720  173.0610  137.5110 C   0  0  1  0  0  3  0  0  0  0  0  0
  1  2  1  0  0  0  0
  2  4  2  0  0  0  0
  2  8  1  0  0  0  0
  3  6  1  0  0  0  0
  3  1  2  0  0  0  0
  5  4  1  0  0  0  0
  6  5  2  0  0  0  0
  7  8  1  0  0  0  0
  7 12  1  0  0  0  0
 10 12  1  6  0  0  0
 10  9  1  0  0  0  0
 11  9  1  6  0  0  0
 11 19  1  0  0  0  0
 13  8  1  6  0  0  0
 13 10  1  0  0  0  0
 13 14  1  0  0  0  0
 14 15  1  6  0  0  0
 14 11  1  0  0  0  0
 16 18  1  0  0  0  0
 19 17  1  0  0  0  0
 19 16  1  0  0  0  0
 19 18  1  0  0  0  0
 20 26  1  0  0  0  0
 21 23  1  0  0  0  0
 23  1  1  1  0  0  0
 23 26  1  0  0  0  0
 25 22  1  6  0  0  0
 25 20  1  0  0  0  0
 25 21  1  0  0  0  0
 25 23  1  0  0  0  0
 26 24  1  6  0  0  0
M  END
>  <MODEL>
1

>  <REMARK>
 VINA RESULT:      -6.0      0.000      0.000
  Name = 
  3 active torsions:
  status: ('A' for Active; 'I' for Inactive)
    1  A    between atoms: C_1  and  C_15
    2  A    between atoms: C_4  and  N_8
    3  A    between atoms: C_14  and  C_26
                            x       y       z     vdW  Elec       q    Type
                         _______ _______ _______ _____ _____    ______ ____

>  <TORSDO>
F 3

$$$$
=
 OpenBabel11062416583D

 26 31  0  0  1  0  0  0  0  0999 V2000
  181.9870  178.9670  140.2240 C   0  0  0  0  0  0  0  0  0  0  0  0
  180.7010  179.5640  140.2270 C   0  0  0  0  0  0  0  0  0  0  0  0
  182.5950  178.6560  141.4540 C   0  0  0  0  0  3  0  0  0  0  0  0
  180.0410  179.7670  141.4500 C   0  0  0  0  0  3  0  0  0  0  0  0
  180.6500  179.4250  142.6580 C   0  0  0  0  0  3  0  0  0  0  0  0
  181.9310  178.8790  142.6610 C   0  0  0  0  0  3  0  0  0  0  0  0
  179.1150  179.1640  138.2860 C   0  0  0  0  0  2  0  0  0  0  0  0
  180.0540  179.9870  139.0120 N   0  0  0  0  0  0  0  0  0  0  0  0
  179.3320  182.1400  136.4810 C   0  0  0  0  0  2  0  0  0  0  0  0
  179.9810  180.8810  136.8320 N   0  0  2  0  0  0  0  0  0  0  0  0
  179.7680  183.2040  137.4700 C   0  0  1  0  0  3  0  0  0  0  0  0
  178.9310  179.8710  136.9600 C   0  0  0  0  0  2  0  0  0  0  0  0
  180.5690  181.0480  138.1630 C   0  0  1  0  0  3  0  0  0  0  0  0
  180.2250  182.4430  138.6880 C   0  0  2  0  0  3  0  0  0  0  0  0
  179.1780  182.4050  139.6130 O   0  0  0  0  0  1  0  0  0  0  0  0
  180.5260  185.3170  136.1900 C   0  0  0  0  0  2  0  0  0  0  0  0
  182.1340  184.0880  137.5610 O   0  0  0  0  0  1  0  0  0  0  0  0
  181.0080  184.1080  135.3920 C   0  0  0  0  0  2  0  0  0  0  0  0
  180.9080  184.0380  136.8950 C   0  0  0  0  0  0  0  0  0  0  0  0
  184.6580  177.8340  138.5140 C   0  0  0  0  0  2  0  0  0  0  0  0
  182.0810  177.7410  137.9280 C   0  0  0  0  0  2  0  0  0  0  0  0
  183.0420  176.4480  139.8410 O   0  0  0  0  0  1  0  0  0  0  0  0
  182.7230  178.6860  138.9220 C   0  0  2  0  0  0  0  0  0  0  0  0
  184.6650  179.8640  139.7610 O   0  0  0  0  0  1  0  0  0  0  0  0
  183.2710  177.2540  138.7210 C   0  0  1  0  0  0  0  0  0  0  0  0
  184.1140  179.2420  138.6380 C   0  0  1  0  0  3  0  0  0  0  0  0
  1  2  2  0  0  0  0
  1  3  1  0  0  0  0
  2  4  1  0  0  0  0
  3  6  2  0  0  0  0
  4  5  2  0  0  0  0
  5  6  1  0  0  0  0
  7  8  1  0  0  0  0
  8  2  1  0  0  0  0
 10  9  1  1  0  0  0
 10 12  1  0  0  0  0
 10 13  1  0  0  0  0
 11  9  1  6  0  0  0
 11 14  1  0  0  0  0
 12  7  1  0  0  0  0
 13 14  1  0  0  0  0
 13  8  1  1  0  0  0
 14 15  1  1  0  0  0
 16 19  1  0  0  0  0
 18 16  1  0  0  0  0
 18 19  1  0  0  0  0
 19 11  1  0  0  0  0
 19 17  1  0  0  0  0
 20 26  1  0  0  0  0
 20 25  1  0  0  0  0
 21 25  1  0  0  0  0
 21 23  1  0  0  0  0
 23  1  1  1  0  0  0
 25 23  1  0  0  0  0
 25 22  1  1  0  0  0
 26 23  1  0  0  0  0
 26 24  1  1  0  0  0
M  END
>  <MODEL>
2

>  <REMARK>
 VINA RESULT:      -6.0      6.530      9.797
  Name = 
  3 active torsions:
  status: ('A' for Active; 'I' for Inactive)
    1  A    between atoms: C_1  and  C_15
    2  A    between atoms: C_4  and  N_8
    3  A    between atoms: C_14  and  C_26
                            x       y       z     vdW  Elec       q    Type
                         _______ _______ _______ _____ _____    ______ ____

>  <TORSDO>
F 3

$$$$
=
 OpenBabel11062416583D

 26 31  0  0  1  0  0  0  0  0999 V2000
  184.8060  175.3070  137.1200 C   0  0  0  0  0  0  0  0  0  0  0  0
  185.2440  176.6460  137.2890 C   0  0  0  0  0  0  0  0  0  0  0  0
  183.5670  174.9240  137.6640 C   0  0  0  0  0  3  0  0  0  0  0  0
  184.4020  177.5670  137.9340 C   0  0  0  0  0  3  0  0  0  0  0  0
  183.1640  177.1720  138.4410 C   0  0  0  0  0  3  0  0  0  0  0  0
  182.7500  175.8490  138.3150 C   0  0  0  0  0  3  0  0  0  0  0  0
  186.7710  177.6230  135.5140 C   0  0  0  0  0  2  0  0  0  0  0  0
  186.5360  177.0890  136.8340 N   0  0  0  0  0  0  0  0  0  0  0  0
  189.8660  177.7170  137.1190 C   0  0  0  0  0  2  0  0  0  0  0  0
  188.8560  176.8850  136.4720 N   0  0  2  0  0  0  0  0  0  0  0  0
  189.5700  177.7720  138.6050 C   0  0  1  0  0  3  0  0  0  0  0  0
  188.2790  177.6700  135.3810 C   0  0  0  0  0  2  0  0  0  0  0  0
  187.7840  176.6620  137.4440 C   0  0  1  0  0  3  0  0  0  0  0  0
  188.1080  177.4310  138.7260 C   0  0  2  0  0  3  0  0  0  0  0  0
  187.3740  178.6180  138.8170 O   0  0  0  0  0  1  0  0  0  0  0  0
  190.2790  176.7360  140.8640 C   0  0  0  0  0  2  0  0  0  0  0  0
  190.7040  175.5200  138.7870 O   0  0  0  0  0  1  0  0  0  0  0  0
  191.5350  177.3170  140.2190 C   0  0  0  0  0  2  0  0  0  0  0  0
  190.4250  176.7620  139.3620 C   0  0  0  0  0  0  0  0  0  0  0  0
  185.4010  172.1780  136.0270 C   0  0  0  0  0  2  0  0  0  0  0  0
  185.9540  174.5140  134.9200 C   0  0  0  0  0  2  0  0  0  0  0  0
  183.6000  173.7220  135.2120 O   0  0  0  0  0  1  0  0  0  0  0  0
  185.6620  174.2840  136.3880 C   0  0  2  0  0  0  0  0  0  0  0  0
  185.5670  172.8210  138.3150 O   0  0  0  0  0  1  0  0  0  0  0  0
  184.9660  173.4360  135.2980 C   0  0  1  0  0  0  0  0  0  0  0  0
  186.1460  173.0010  137.0570 C   0  0  1  0  0  3  0  0  0  0  0  0
  1  2  2  0  0  0  0
  1  3  1  0  0  0  0
  2  4  1  0  0  0  0
  3  6  2  0  0  0  0
  4  5  2  0  0  0  0
  6  5  1  0  0  0  0
  7  8  1  0  0  0  0
  8  2  1  0  0  0  0
 10 12  1  6  0  0  0
 10  9  1  0  0  0  0
 10 13  1  0  0  0  0
 11  9  1  6  0  0  0
 11 14  1  0  0  0  0
 11 19  1  0  0  0  0
 12  7  1  0  0  0  0
 13  8  1  6  0  0  0
 13 14  1  0  0  0  0
 14 15  1  6  0  0  0
 17 19  1  0  0  0  0
 18 16  1  0  0  0  0
 19 18  1  0  0  0  0
 19 16  1  0  0  0  0
 20 26  1  0  0  0  0
 21 25  1  0  0  0  0
 21 23  1  0  0  0  0
 23 26  1  0  0  0  0
 23  1  1  1  0  0  0
 25 22  1  6  0  0  0
 25 20  1  0  0  0  0
 25 23  1  0  0  0  0
 26 24  1  1  0  0  0
M  END
>  <MODEL>
3

>  <REMARK>
 VINA RESULT:      -5.9      2.061      2.881
  Name = 
  3 active torsions:
  status: ('A' for Active; 'I' for Inactive)
    1  A    between atoms: C_1  and  C_15
    2  A    between atoms: C_4  and  N_8
    3  A    between atoms: C_14  and  C_26
                            x       y       z     vdW  Elec       q    Type
                         _______ _______ _______ _____ _____    ______ ____

>  <TORSDO>
F 3

$$$$
=
 OpenBabel11062416583D

 26 31  0  0  1  0  0  0  0  0999 V2000
  190.4040  176.9660  138.3380 C   0  0  0  0  0  0  0  0  0  0  0  0
  190.8530  177.1260  139.6740 C   0  0  0  0  0  0  0  0  0  0  0  0
  191.3530  176.7560  137.3220 C   0  0  0  0  0  3  0  0  0  0  0  0
  192.2230  177.0030  139.9560 C   0  0  0  0  0  3  0  0  0  0  0  0
  193.1460  176.7660  138.9370 C   0  0  0  0  0  3  0  0  0  0  0  0
  192.7120  176.6520  137.6190 C   0  0  0  0  0  3  0  0  0  0  0  0
  188.5990  177.9000  140.5460 C   0  0  0  0  0  2  0  0  0  0  0  0
  189.9480  177.4280  140.7520 N   0  0  0  0  0  0  0  0  0  0  0  0
  188.9950  177.7000  144.0050 C   0  0  0  0  0  2  0  0  0  0  0  0
  189.3110  178.4370  142.7860 N   0  0  2  0  0  0  0  0  0  0  0  0
  190.0830  176.6710  144.2480 C   0  0  1  0  0  3  0  0  0  0  0  0
  188.1400  178.3590  141.9140 C   0  0  0  0  0  2  0  0  0  0  0  0
  190.3900  177.7150  142.1060 C   0  0  1  0  0  3  0  0  0  0  0  0
  190.7200  176.4500  142.9010 C   0  0  2  0  0  3  0  0  0  0  0  0
  190.1570  175.3110  142.3170 O   0  0  0  0  0  1  0  0  0  0  0  0
  191.8400  176.1660  146.0730 C   0  0  0  0  0  2  0  0  0  0  0  0
  191.8530  178.3350  144.9460 O   0  0  0  0  0  1  0  0  0  0  0  0
  190.7650  177.0420  146.7120 C   0  0  0  0  0  2  0  0  0  0  0  0
  191.1050  177.1960  145.2500 C   0  0  0  0  0  0  0  0  0  0  0  0
  187.8880  177.8080  136.2630 C   0  0  0  0  0  2  0  0  0  0  0  0
  188.1380  175.7530  137.9090 C   0  0  0  0  0  2  0  0  0  0  0  0
  189.5880  176.0020  135.8860 O   0  0  0  0  0  1  0  0  0  0  0  0
  188.9240  177.0460  137.9890 C   0  0  2  0  0  0  0  0  0  0  0  0
  189.1650  179.4030  137.4900 O   0  0  0  0  0  1  0  0  0  0  0  0
  188.4930  176.4630  136.6230 C   0  0  1  0  0  0  0  0  0  0  0  0
  188.2430  178.3610  137.6280 C   0  0  1  0  0  3  0  0  0  0  0  0
  1  2  1  0  0  0  0
  2  4  2  0  0  0  0
  2  8  1  0  0  0  0
  3  6  1  0  0  0  0
  3  1  2  0  0  0  0
  5  4  1  0  0  0  0
  6  5  2  0  0  0  0
  7  8  1  0  0  0  0
  7 12  1  0  0  0  0
 10 12  1  6  0  0  0
 10  9  1  0  0  0  0
 11  9  1  6  0  0  0
 11 19  1  0  0  0  0
 13  8  1  6  0  0  0
 13 10  1  0  0  0  0
 13 14  1  0  0  0  0
 14 15  1  6  0  0  0
 14 11  1  0  0  0  0
 16 18  1  0  0  0  0
 17 19  1  0  0  0  0
 19 16  1  0  0  0  0
 19 18  1  0  0  0  0
 20 25  1  0  0  0  0
 20 26  1  0  0  0  0
 21 23  1  0  0  0  0
 23  1  1  1  0  0  0
 25 22  1  6  0  0  0
 25 21  1  0  0  0  0
 25 23  1  0  0  0  0
 26 24  1  6  0  0  0
 26 23  1  0  0  0  0
M  END
>  <MODEL>
4

>  <REMARK>
 VINA RESULT:      -5.8      2.325      4.648
  Name = 
  3 active torsions:
  status: ('A' for Active; 'I' for Inactive)
    1  A    between atoms: C_1  and  C_15
    2  A    between atoms: C_4  and  N_8
    3  A    between atoms: C_14  and  C_26
                            x       y       z     vdW  Elec       q    Type
                         _______ _______ _______ _____ _____    ______ ____

>  <TORSDO>
F 3

$$$$
=
 OpenBabel11062416583D

 26 31  0  0  1  0  0  0  0  0999 V2000
  182.0530  178.9280  140.6790 C   0  0  0  0  0  0  0  0  0  0  0  0
  182.4640  179.4050  139.4080 C   0  0  0  0  0  0  0  0  0  0  0  0
  183.0320  178.4870  141.5870 C   0  0  0  0  0  3  0  0  0  0  0  0
  183.8350  179.4870  139.1160 C   0  0  0  0  0  3  0  0  0  0  0  0
  184.7910  179.0710  140.0430 C   0  0  0  0  0  3  0  0  0  0  0  0
  184.3890  178.5610  141.2750 C   0  0  0  0  0  3  0  0  0  0  0  0
  180.6760  178.8510  137.6940 C   0  0  0  0  0  2  0  0  0  0  0  0
  181.5150  179.7930  138.3960 N   0  0  0  0  0  0  0  0  0  0  0  0
  179.8360  181.9820  136.4090 C   0  0  0  0  0  2  0  0  0  0  0  0
  180.8180  180.9030  136.4370 N   0  0  2  0  0  0  0  0  0  0  0  0
  180.1900  182.9900  137.4860 C   0  0  1  0  0  3  0  0  0  0  0  0
  180.0800  179.6450  136.5510 C   0  0  0  0  0  2  0  0  0  0  0  0
  181.5930  181.0490  137.6710 C   0  0  1  0  0  3  0  0  0  0  0  0
  181.0370  182.2280  138.4720 C   0  0  2  0  0  3  0  0  0  0  0  0
  180.2260  181.8010  139.5270 O   0  0  0  0  0  1  0  0  0  0  0  0
  180.1610  185.3310  136.3920 C   0  0  0  0  0  2  0  0  0  0  0  0
  182.2160  184.4990  137.4210 O   0  0  0  0  0  1  0  0  0  0  0  0
  180.8370  184.3810  135.4070 C   0  0  0  0  0  2  0  0  0  0  0  0
  180.9690  184.1590  136.8930 C   0  0  0  0  0  0  0  0  0  0  0  0
  179.4760  177.5170  142.3260 C   0  0  0  0  0  2  0  0  0  0  0  0
  179.9720  180.0540  141.7680 C   0  0  0  0  0  2  0  0  0  0  0  0
  181.4030  178.7530  143.3530 O   0  0  0  0  0  1  0  0  0  0  0  0
  180.5810  178.8620  141.0590 C   0  0  2  0  0  0  0  0  0  0  0  0
  180.5170  176.5260  140.4260 O   0  0  0  0  0  1  0  0  0  0  0  0
  180.2480  178.8020  142.5680 C   0  0  1  0  0  0  0  0  0  0  0  0
  179.7390  177.6110  140.8370 C   0  0  1  0  0  3  0  0  0  0  0  0
  1  3  1  0  0  0  0
  2  1  2  0  0  0  0
  4  2  1  0  0  0  0
  4  5  2  0  0  0  0
  5  6  1  0  0  0  0
  6  3  2  0  0  0  0
  7  8  1  0  0  0  0
  8  2  1  0  0  0  0
 10  9  1  1  0  0  0
 10 12  1  0  0  0  0
 10 13  1  0  0  0  0
 11  9  1  6  0  0  0
 11 14  1  0  0  0  0
 12  7  1  0  0  0  0
 13  8  1  1  0  0  0
 13 14  1  0  0  0  0
 14 15  1  1  0  0  0
 16 19  1  0  0  0  0
 18 16  1  0  0  0  0
 18 19  1  0  0  0  0
 19 17  1  0  0  0  0
 19 11  1  0  0  0  0
 20 25  1  0  0  0  0
 21 25  1  0  0  0  0
 23  1  1  6  0  0  0
 23 21  1  0  0  0  0
 23 25  1  0  0  0  0
 25 22  1  1  0  0  0
 26 24  1  1  0  0  0
 26 23  1  0  0  0  0
 26 20  1  0  0  0  0
M  END
>  <MODEL>
5

>  <REMARK>
 VINA RESULT:      -5.8      6.671     10.030
  Name = 
  3 active torsions:
  status: ('A' for Active; 'I' for Inactive)
    1  A    between atoms: C_1  and  C_15
    2  A    between atoms: C_4  and  N_8
    3  A    between atoms: C_14  and  C_26
                            x       y       z     vdW  Elec       q    Type
                         _______ _______ _______ _____ _____    ______ ____

>  <TORSDO>
F 3

$$$$
=
 OpenBabel11062416583D

 26 31  0  0  1  0  0  0  0  0999 V2000
  189.0650  176.3150  136.9520 C   0  0  0  0  0  0  0  0  0  0  0  0
  189.0660  177.4500  137.8030 C   0  0  0  0  0  0  0  0  0  0  0  0
  188.2210  176.3110  135.8270 C   0  0  0  0  0  3  0  0  0  0  0  0
  188.2780  178.5620  137.4640 C   0  0  0  0  0  3  0  0  0  0  0  0
  187.4690  178.5480  136.3280 C   0  0  0  0  0  3  0  0  0  0  0  0
  187.4330  177.4180  135.5140 C   0  0  0  0  0  3  0  0  0  0  0  0
  191.2750  177.6340  139.0380 C   0  0  0  0  0  2  0  0  0  0  0  0
  189.8380  177.4920  139.0170 N   0  0  0  0  0  0  0  0  0  0  0  0
  190.3100  177.4620  142.3850 C   0  0  0  0  0  2  0  0  0  0  0  0
  190.5210  176.7280  141.1410 N   0  0  2  0  0  0  0  0  0  0  0  0
  188.8690  177.9310  142.4340 C   0  0  1  0  0  3  0  0  0  0  0  0
  191.6700  177.3330  140.4680 C   0  0  0  0  0  2  0  0  0  0  0  0
  189.3570  176.9730  140.2860 C   0  0  1  0  0  3  0  0  0  0  0  0
  188.4110  177.9410  140.9990 C   0  0  2  0  0  3  0  0  0  0  0  0
  188.5270  179.2410  140.4980 O   0  0  0  0  0  1  0  0  0  0  0  0
  186.6050  177.4070  143.5640 C   0  0  0  0  0  2  0  0  0  0  0  0
  188.1870  175.5970  143.1230 O   0  0  0  0  0  1  0  0  0  0  0  0
  187.6640  177.4210  144.6620 C   0  0  0  0  0  2  0  0  0  0  0  0
  188.0200  176.9760  143.2660 C   0  0  0  0  0  0  0  0  0  0  0  0
  190.2980  173.2830  136.1630 C   0  0  0  0  0  2  0  0  0  0  0  0
  191.4260  175.3180  137.4190 C   0  0  0  0  0  2  0  0  0  0  0  0
  190.8070  175.4460  134.9990 O   0  0  0  0  0  1  0  0  0  0  0  0
  189.9360  175.1040  137.2520 C   0  0  2  0  0  0  0  0  0  0  0  0
  188.0470  173.6420  136.8530 O   0  0  0  0  0  1  0  0  0  0  0  0
  190.9290  174.6640  136.1520 C   0  0  1  0  0  0  0  0  0  0  0  0
  189.3720  173.6870  137.2910 C   0  0  1  0  0  3  0  0  0  0  0  0
  1  2  1  0  0  0  0
  2  8  1  0  0  0  0
  3  1  2  0  0  0  0
  4  2  2  0  0  0  0
  5  4  1  0  0  0  0
  6  3  1  0  0  0  0
  6  5  2  0  0  0  0
  7 12  1  0  0  0  0
  8  7  1  0  0  0  0
 10 12  1  6  0  0  0
 10  9  1  0  0  0  0
 11  9  1  6  0  0  0
 11 19  1  0  0  0  0
 13  8  1  6  0  0  0
 13 14  1  0  0  0  0
 13 10  1  0  0  0  0
 14 15  1  6  0  0  0
 14 11  1  0  0  0  0
 16 18  1  0  0  0  0
 17 19  1  0  0  0  0
 19 16  1  0  0  0  0
 19 18  1  0  0  0  0
 20 26  1  0  0  0  0
 23  1  1  6  0  0  0
 23 26  1  0  0  0  0
 23 21  1  0  0  0  0
 25 22  1  6  0  0  0
 25 20  1  0  0  0  0
 25 23  1  0  0  0  0
 25 21  1  0  0  0  0
 26 24  1  6  0  0  0
M  END
>  <MODEL>
6

>  <REMARK>
 VINA RESULT:      -5.6      1.833      2.260
  Name = 
  3 active torsions:
  status: ('A' for Active; 'I' for Inactive)
    1  A    between atoms: C_1  and  C_15
    2  A    between atoms: C_4  and  N_8
    3  A    between atoms: C_14  and  C_26
                            x       y       z     vdW  Elec       q    Type
                         _______ _______ _______ _____ _____    ______ ____

>  <TORSDO>
F 3

$$$$
=
 OpenBabel11062416583D

 26 31  0  0  1  0  0  0  0  0999 V2000
  182.7290  178.1310  137.6460 C   0  0  0  0  0  0  0  0  0  0  0  0
  183.2350  177.4910  136.4850 C   0  0  0  0  0  0  0  0  0  0  0  0
  181.6710  179.0470  137.5100 C   0  0  0  0  0  3  0  0  0  0  0  0
  182.6230  177.7370  135.2450 C   0  0  0  0  0  3  0  0  0  0  0  0
  181.5560  178.6280  135.1370 C   0  0  0  0  0  3  0  0  0  0  0  0
  181.0850  179.2910  136.2680 C   0  0  0  0  0  3  0  0  0  0  0  0
  184.2620  175.1710  136.4370 C   0  0  0  0  0  2  0  0  0  0  0  0
  184.3710  176.6070  136.5350 N   0  0  0  0  0  0  0  0  0  0  0  0
  187.6710  175.8240  136.7700 C   0  0  0  0  0  2  0  0  0  0  0  0
  186.3750  175.7570  137.4380 N   0  0  2  0  0  0  0  0  0  0  0  0
  187.8830  177.2380  136.2620 C   0  0  1  0  0  3  0  0  0  0  0  0
  185.6300  174.6550  136.8300 C   0  0  0  0  0  2  0  0  0  0  0  0
  185.6500  176.9860  137.1110 C   0  0  1  0  0  3  0  0  0  0  0  0
  186.5000  177.8270  136.1570 C   0  0  2  0  0  3  0  0  0  0  0  0
  186.0610  177.7130  134.8350 O   0  0  0  0  0  1  0  0  0  0  0  0
  190.1030  177.4800  137.5610 C   0  0  0  0  0  2  0  0  0  0  0  0
  188.6690  179.4330  137.2390 O   0  0  0  0  0  1  0  0  0  0  0  0
  188.9810  177.4230  138.5940 C   0  0  0  0  0  2  0  0  0  0  0  0
  188.7390  178.0380  137.2380 C   0  0  0  0  0  0  0  0  0  0  0  0
  183.1830  178.9200  140.8880 C   0  0  0  0  0  2  0  0  0  0  0  0
  182.9780  176.5610  139.7100 C   0  0  0  0  0  2  0  0  0  0  0  0
  181.0450  178.1440  139.8300 O   0  0  0  0  0  1  0  0  0  0  0  0
  183.3290  177.8630  139.0190 C   0  0  2  0  0  0  0  0  0  0  0  0
  184.1810  180.1280  139.0940 O   0  0  0  0  0  1  0  0  0  0  0  0
  182.3530  177.8400  140.2180 C   0  0  1  0  0  0  0  0  0  0  0  0
  184.1810  178.8940  139.7500 C   0  0  1  0  0  3  0  0  0  0  0  0
  2  8  1  0  0  0  0
  2  1  2  0  0  0  0
  3  1  1  0  0  0  0
  4  2  1  0  0  0  0
  5  4  2  0  0  0  0
  5  6  1  0  0  0  0
  6  3  2  0  0  0  0
  7  8  1  0  0  0  0
  7 12  1  0  0  0  0
 10  9  1  6  0  0  0
 11  9  1  1  0  0  0
 11 19  1  0  0  0  0
 12 10  1  0  0  0  0
 13  8  1  6  0  0  0
 13 10  1  0  0  0  0
 14 15  1  6  0  0  0
 14 11  1  0  0  0  0
 14 13  1  0  0  0  0
 16 18  1  0  0  0  0
 19 17  1  0  0  0  0
 19 16  1  0  0  0  0
 19 18  1  0  0  0  0
 21 25  1  0  0  0  0
 23  1  1  6  0  0  0
 23 21  1  0  0  0  0
 23 26  1  0  0  0  0
 23 25  1  0  0  0  0
 25 22  1  6  0  0  0
 25 20  1  0  0  0  0
 26 24  1  6  0  0  0
 26 20  1  0  0  0  0
M  END
>  <MODEL>
7

>  <REMARK>
 VINA RESULT:      -5.5      3.202      6.053
  Name = 
  3 active torsions:
  status: ('A' for Active; 'I' for Inactive)
    1  A    between atoms: C_1  and  C_15
    2  A    between atoms: C_4  and  N_8
    3  A    between atoms: C_14  and  C_26
                            x       y       z     vdW  Elec       q    Type
                         _______ _______ _______ _____ _____    ______ ____

>  <TORSDO>
F 3

$$$$
=
 OpenBabel11062416583D

 26 31  0  0  1  0  0  0  0  0999 V2000
  186.4030  176.9730  137.3080 C   0  0  0  0  0  0  0  0  0  0  0  0
  186.8370  177.8020  138.3740 C   0  0  0  0  0  0  0  0  0  0  0  0
  185.0370  176.9520  136.9750 C   0  0  0  0  0  3  0  0  0  0  0  0
  185.9050  178.6290  139.0220 C   0  0  0  0  0  3  0  0  0  0  0  0
  184.5580  178.6140  138.6570 C   0  0  0  0  0  3  0  0  0  0  0  0
  184.1220  177.7690  137.6400 C   0  0  0  0  0  3  0  0  0  0  0  0
  189.3210  178.1190  137.9650 C   0  0  0  0  0  2  0  0  0  0  0  0
  188.2040  177.8120  138.8260 N   0  0  0  0  0  0  0  0  0  0  0  0
  190.7100  177.4970  141.1020 C   0  0  0  0  0  2  0  0  0  0  0  0
  190.1010  176.9230  139.9070 N   0  0  2  0  0  0  0  0  0  0  0  0
  189.6180  177.7860  142.1130 C   0  0  1  0  0  3  0  0  0  0  0  0
  190.5430  177.7230  138.7650 C   0  0  0  0  0  2  0  0  0  0  0  0
  188.6530  177.1140  140.0190 C   0  0  1  0  0  3  0  0  0  0  0  0
  188.3510  177.8880  141.3030 C   0  0  2  0  0  3  0  0  0  0  0  0
  188.0880  179.2360  141.0460 O   0  0  0  0  0  1  0  0  0  0  0  0
  188.2610  176.6060  143.9690 C   0  0  0  0  0  2  0  0  0  0  0  0
  190.0730  175.4100  142.8460 O   0  0  0  0  0  1  0  0  0  0  0  0
  189.5830  177.0510  144.5900 C   0  0  0  0  0  2  0  0  0  0  0  0
  189.5170  176.6590  143.1350 C   0  0  0  0  0  0  0  0  0  0  0  0
  187.1010  174.3490  135.3150 C   0  0  0  0  0  2  0  0  0  0  0  0
  188.2290  176.7350  135.4650 C   0  0  0  0  0  2  0  0  0  0  0  0
  185.8830  176.4390  134.6530 O   0  0  0  0  0  1  0  0  0  0  0  0
  187.3830  176.0930  136.5450 C   0  0  2  0  0  0  0  0  0  0  0  0
  186.4390  174.1250  137.5930 O   0  0  0  0  0  1  0  0  0  0  0  0
  187.0840  175.8430  135.0490 C   0  0  1  0  0  0  0  0  0  0  0  0
  187.4660  174.5860  136.7660 C   0  0  1  0  0  3  0  0  0  0  0  0
  1  2  1  0  0  0  0
  2  8  1  0  0  0  0
  2  4  2  0  0  0  0
  3  1  2  0  0  0  0
  3  6  1  0  0  0  0
  5  4  1  0  0  0  0
  6  5  2  0  0  0  0
  7 12  1  0  0  0  0
  7  8  1  0  0  0  0
 10 12  1  6  0  0  0
 10 13  1  0  0  0  0
 10  9  1  0  0  0  0
 11  9  1  6  0  0  0
 11 19  1  0  0  0  0
 13  8  1  6  0  0  0
 13 14  1  0  0  0  0
 14 15  1  6  0  0  0
 14 11  1  0  0  0  0
 16 18  1  0  0  0  0
 17 19  1  0  0  0  0
 19 16  1  0  0  0  0
 19 18  1  0  0  0  0
 20 26  1  0  0  0  0
 21 23  1  0  0  0  0
 23 26  1  0  0  0  0
 23  1  1  1  0  0  0
 25 22  1  6  0  0  0
 25 20  1  0  0  0  0
 25 21  1  0  0  0  0
 25 23  1  0  0  0  0
 26 24  1  1  0  0  0
M  END
>  <MODEL>
8

>  <REMARK>
 VINA RESULT:      -5.5      1.193      1.425
  Name = 
  3 active torsions:
  status: ('A' for Active; 'I' for Inactive)
    1  A    between atoms: C_1  and  C_15
    2  A    between atoms: C_4  and  N_8
    3  A    between atoms: C_14  and  C_26
                            x       y       z     vdW  Elec       q    Type
                         _______ _______ _______ _____ _____    ______ ____

>  <TORSDO>
F 3

$$$$
=
 OpenBabel11062416583D

 26 31  0  0  1  0  0  0  0  0999 V2000
  188.7140  177.1610  138.0280 C   0  0  0  0  0  0  0  0  0  0  0  0
  189.8080  176.3770  138.4760 C   0  0  0  0  0  0  0  0  0  0  0  0
  188.1200  178.0700  138.9220 C   0  0  0  0  0  3  0  0  0  0  0  0
  190.3100  176.5760  139.7720 C   0  0  0  0  0  3  0  0  0  0  0  0
  189.7230  177.5030  140.6330 C   0  0  0  0  0  3  0  0  0  0  0  0
  188.6210  178.2430  140.2120 C   0  0  0  0  0  3  0  0  0  0  0  0
  189.6500  174.3870  136.9090 C   0  0  0  0  0  2  0  0  0  0  0  0
  190.4120  175.3670  137.6460 N   0  0  0  0  0  0  0  0  0  0  0  0
  192.9920  173.7090  136.1760 C   0  0  0  0  0  2  0  0  0  0  0  0
  191.9220  173.6220  137.1650 N   0  0  2  0  0  0  0  0  0  0  0  0
  193.7430  175.0090  136.3870 C   0  0  1  0  0  3  0  0  0  0  0  0
  190.6760  173.3780  136.4380 C   0  0  0  0  0  2  0  0  0  0  0  0
  191.7940  174.9400  137.7890 C   0  0  1  0  0  3  0  0  0  0  0  0
  192.7810  175.9030  137.1250 C   0  0  2  0  0  3  0  0  0  0  0  0
  192.1460  176.7400  136.2030 O   0  0  0  0  0  1  0  0  0  0  0  0
  196.3170  174.7930  136.4680 C   0  0  0  0  0  2  0  0  0  0  0  0
  195.0740  175.2530  138.5220 O   0  0  0  0  0  1  0  0  0  0  0  0
  195.7370  173.4760  136.9800 C   0  0  0  0  0  2  0  0  0  0  0  0
  195.0040  174.7740  137.2120 C   0  0  0  0  0  0  0  0  0  0  0  0
  186.2590  177.5210  135.7510 C   0  0  0  0  0  2  0  0  0  0  0  0
  188.8820  177.7310  135.4920 C   0  0  0  0  0  2  0  0  0  0  0  0
  187.5590  179.3680  136.8430 O   0  0  0  0  0  1  0  0  0  0  0  0
  188.1640  177.0150  136.6170 C   0  0  2  0  0  0  0  0  0  0  0  0
  186.2040  175.8960  137.4930 O   0  0  0  0  0  1  0  0  0  0  0  0
  187.5560  178.2790  135.9660 C   0  0  1  0  0  0  0  0  0  0  0  0
  186.8730  176.2590  136.3210 C   0  0  1  0  0  3  0  0  0  0  0  0
  1  2  2  0  0  0  0
  1  3  1  0  0  0  0
  2  4  1  0  0  0  0
  3  6  2  0  0  0  0
  4  5  2  0  0  0  0
  6  5  1  0  0  0  0
  7  8  1  0  0  0  0
  8  2  1  0  0  0  0
 10  9  1  6  0  0  0
 10 13  1  0  0  0  0
 11  9  1  1  0  0  0
 11 14  1  0  0  0  0
 11 19  1  0  0  0  0
 12  7  1  0  0  0  0
 12 10  1  0  0  0  0
 13  8  1  6  0  0  0
 14 15  1  6  0  0  0
 14 13  1  0  0  0  0
 16 18  1  0  0  0  0
 16 19  1  0  0  0  0
 18 19  1  0  0  0  0
 19 17  1  0  0  0  0
 20 25  1  0  0  0  0
 20 26  1  0  0  0  0
 21 25  1  0  0  0  0
 21 23  1  0  0  0  0
 23  1  1  1  0  0  0
 25 23  1  0  0  0  0
 25 22  1  1  0  0  0
 26 23  1  0  0  0  0
 26 24  1  1  0  0  0
M  END
>  <MODEL>
9

>  <REMARK>
 VINA RESULT:      -5.3      3.259      5.380
  Name = 
  3 active torsions:
  status: ('A' for Active; 'I' for Inactive)
    1  A    between atoms: C_1  and  C_15
    2  A    between atoms: C_4  and  N_8
    3  A    between atoms: C_14  and  C_26
                            x       y       z     vdW  Elec       q    Type
                         _______ _______ _______ _____ _____    ______ ____

>  <TORSDO>
F 3

$$$$
