=
 OpenBabel11062414323D

 31 36  0  0  1  0  0  0  0  0999 V2000
  190.7380  175.4550  137.4210 C   0  0  2  0  0  3  0  0  0  0  0  0
  193.6260  175.2040  136.2390 C   0  0  1  0  0  3  0  0  0  0  0  0
  189.7170  176.4200  139.5400 C   0  0  2  0  0  3  0  0  0  0  0  0
  189.6440  176.3690  138.0010 C   0  0  2  0  0  3  0  0  0  0  0  0
  192.6010  176.1760  136.7990 C   0  0  2  0  0  0  0  0  0  0  0  0
  188.7510  177.4470  140.1820 C   0  0  2  0  0  3  0  0  0  0  0  0
  187.2050  178.3120  138.4360 C   0  0  0  0  0  2  0  0  0  0  0  0
  191.4380  177.2930  141.2700 C   0  0  0  0  0  2  0  0  0  0  0  0
  188.1870  176.1410  137.5330 C   0  0  1  0  0  3  0  0  0  0  0  0
  188.4250  178.6400  139.2910 C   0  0  0  0  0  2  0  0  0  0  0  0
  192.1130  175.6840  138.1240 C   0  0  1  0  0  3  0  0  0  0  0  0
  187.5370  177.4930  137.1870 C   0  0  1  0  0  3  0  0  0  0  0  0
  192.0740  176.7720  139.0190 O   0  0  0  0  0  0  0  0  0  0  0  0
  190.2970  177.2550  142.2860 C   0  0  2  0  0  0  0  0  0  0  0  0
  189.9860  175.8120  142.6970 C   0  0  0  0  0  1  0  0  0  0  0  0
  187.7960  177.8160  142.4660 C   0  0  0  0  0  1  0  0  0  0  0  0
  191.2910  176.0060  136.0930 C   0  0  0  0  0  2  0  0  0  0  0  0
  194.3780  175.8780  135.1080 C   0  0  0  0  0  2  0  0  0  0  0  0
  186.3590  177.3120  136.4590 O   0  0  0  0  0  1  0  0  0  0  0  0
  191.1810  176.4210  140.0440 C   0  0  2  0  0  3  0  0  0  0  0  0
  193.9560  176.6730  136.3280 C   0  0  2  0  0  3  0  0  0  0  0  0
  189.0590  177.9010  141.6160 C   0  0  2  0  0  3  0  0  0  0  0  0
  187.9130  175.0310  136.4970 C   0  0  2  0  0  3  0  0  0  0  0  0
  187.8620  175.5650  135.1460 N   0  0  0  0  0  1  0  0  0  0  0  0
  186.6760  174.2000  136.7950 C   0  0  0  0  0  1  0  0  0  0  0  0
  190.9480  179.2470  143.4160 O   0  0  0  0  0  0  0  0  0  0  0  0
  190.7410  178.0440  143.5150 C   0  0  0  0  0  0  0  0  0  0  0  0
  190.9710  177.3910  144.8680 C   0  0  0  0  0  0  0  0  0  0  0  0
  191.6180  176.0330  144.6740 C   0  0  0  0  0  1  0  0  0  0  0  0
  191.8000  178.1680  145.6810 O   0  0  0  0  0  1  0  0  0  0  0  0
  189.6430  177.2040  145.5790 C   0  0  0  0  0  1  0  0  0  0  0  0
  1 17  1  6  0  0  0
  1  4  1  0  0  0  0
  1 11  1  0  0  0  0
  2 18  1  6  0  0  0
  2 21  1  0  0  0  0
  2  5  1  0  0  0  0
  3 20  1  0  0  0  0
  3  6  1  0  0  0  0
  4  3  1  0  0  0  0
  5 11  1  0  0  0  0
  6 22  1  0  0  0  0
  7 10  1  0  0  0  0
  8 14  1  0  0  0  0
  9  4  1  0  0  0  0
 10  6  1  0  0  0  0
 11 13  1  0  0  0  0
 12  9  1  0  0  0  0
 12  7  1  0  0  0  0
 13 20  1  0  0  0  0
 14 15  1  0  0  0  0
 14 27  1  0  0  0  0
 17  5  1  0  0  0  0
 18 21  1  0  0  0  0
 19 12  1  0  0  0  0
 20  8  1  0  0  0  0
 21  5  1  0  0  0  0
 22 14  1  0  0  0  0
 22 16  1  0  0  0  0
 23 25  1  0  0  0  0
 23  9  1  0  0  0  0
 24 23  1  0  0  0  0
 26 27  2  0  0  0  0
 27 28  1  0  0  0  0
 28 31  1  0  0  0  0
 28 30  1  0  0  0  0
 29 28  1  0  0  0  0
M  END
>  <MODEL>
1

>  <REMARK>
 VINA RESULT:      -7.0      0.000      0.000
  Name = 
  3 active torsions:
  status: ('A' for Active; 'I' for Inactive)
    1  A    between atoms: C_5  and  C_10
    2  A    between atoms: C_17  and  C_19
    3  A    between atoms: C_19  and  C_22
                            x       y       z     vdW  Elec       q    Type
                         _______ _______ _______ _____ _____    ______ ____

>  <TORSDO>
F 3

$$$$
=
 OpenBabel11062414323D

 31 36  0  0  1  0  0  0  0  0999 V2000
  184.0110  179.1880  140.4440 C   0  0  2  0  0  3  0  0  0  0  0  0
  184.9980  179.5320  143.3950 C   0  0  1  0  0  3  0  0  0  0  0  0
  185.0080  178.2880  138.2860 C   0  0  2  0  0  3  0  0  0  0  0  0
  183.8020  178.2480  139.2430 C   0  0  2  0  0  3  0  0  0  0  0  0
  184.8230  178.5380  142.2590 C   0  0  2  0  0  0  0  0  0  0  0  0
  184.9390  177.2460  137.1410 C   0  0  2  0  0  3  0  0  0  0  0  0
  182.6830  176.1990  137.1300 C   0  0  0  0  0  2  0  0  0  0  0  0
  187.5060  177.6120  138.4470 C   0  0  0  0  0  2  0  0  0  0  0  0
  182.4770  178.3680  138.4530 C   0  0  1  0  0  3  0  0  0  0  0  0
  184.1510  175.9890  137.4880 C   0  0  0  0  0  2  0  0  0  0  0  0
  185.4580  179.0750  141.0180 C   0  0  1  0  0  3  0  0  0  0  0  0
  181.8980  176.9640  138.1990 C   0  0  1  0  0  3  0  0  0  0  0  0
  186.1910  178.0390  140.4050 O   0  0  0  0  0  0  0  0  0  0  0  0
  187.5170  177.6430  136.9190 C   0  0  2  0  0  0  0  0  0  0  0  0
  187.5080  179.0870  136.4070 C   0  0  0  0  0  1  0  0  0  0  0  0
  186.0560  176.9540  134.9200 C   0  0  0  0  0  1  0  0  0  0  0  0
  183.4210  178.5940  141.7370 C   0  0  0  0  0  2  0  0  0  0  0  0
  184.6950  178.8390  144.7090 C   0  0  0  0  0  2  0  0  0  0  0  0
  180.5650  177.0370  137.7900 O   0  0  0  0  0  1  0  0  0  0  0  0
  186.3480  178.3980  139.0560 C   0  0  2  0  0  3  0  0  0  0  0  0
  185.3980  178.0920  143.5920 C   0  0  2  0  0  3  0  0  0  0  0  0
  186.2530  176.8920  136.4310 C   0  0  2  0  0  3  0  0  0  0  0  0
  181.4310  179.4000  138.9230 C   0  0  2  0  0  3  0  0  0  0  0  0
  180.4260  178.7890  139.7770 N   0  0  0  0  0  1  0  0  0  0  0  0
  180.7770  180.1750  137.7920 C   0  0  0  0  0  1  0  0  0  0  0  0
  189.6560  177.6020  135.8730 O   0  0  0  0  0  0  0  0  0  0  0  0
  188.7940  176.9500  136.4490 C   0  0  0  0  0  0  0  0  0  0  0  0
  189.0340  175.4610  136.6380 C   0  0  0  0  0  0  0  0  0  0  0  0
  190.1880  175.2510  137.6000 C   0  0  0  0  0  1  0  0  0  0  0  0
  187.9050  174.8180  137.1490 O   0  0  0  0  0  1  0  0  0  0  0  0
  189.3860  174.8250  135.3050 C   0  0  0  0  0  1  0  0  0  0  0  0
  1 11  1  0  0  0  0
  1 17  1  1  0  0  0
  2 21  1  0  0  0  0
  2 18  1  1  0  0  0
  3 20  1  0  0  0  0
  3  4  1  0  0  0  0
  4  1  1  0  0  0  0
  5  2  1  0  0  0  0
  5 21  1  0  0  0  0
  6 10  1  0  0  0  0
  6  3  1  0  0  0  0
  7 10  1  0  0  0  0
  7 12  1  0  0  0  0
  8 20  1  0  0  0  0
  9 23  1  0  0  0  0
  9  4  1  0  0  0  0
 11  5  1  0  0  0  0
 12  9  1  0  0  0  0
 13 11  1  0  0  0  0
 14  8  1  0  0  0  0
 15 14  1  0  0  0  0
 16 22  1  0  0  0  0
 17  5  1  0  0  0  0
 19 12  1  0  0  0  0
 20 13  1  0  0  0  0
 21 18  1  0  0  0  0
 22 14  1  0  0  0  0
 22  6  1  0  0  0  0
 23 24  1  0  0  0  0
 25 23  1  0  0  0  0
 26 27  2  0  0  0  0
 27 28  1  0  0  0  0
 27 14  1  0  0  0  0
 28 30  1  0  0  0  0
 28 29  1  0  0  0  0
 31 28  1  0  0  0  0
M  END
>  <MODEL>
2

>  <REMARK>
 VINA RESULT:      -6.8      4.123      8.048
  Name = 
  3 active torsions:
  status: ('A' for Active; 'I' for Inactive)
    1  A    between atoms: C_5  and  C_10
    2  A    between atoms: C_17  and  C_19
    3  A    between atoms: C_19  and  C_22
                            x       y       z     vdW  Elec       q    Type
                         _______ _______ _______ _____ _____    ______ ____

>  <TORSDO>
F 3

$$$$
=
 OpenBabel11062414323D

 31 36  0  0  1  0  0  0  0  0999 V2000
  189.8810  177.6840  139.4410 C   0  0  2  0  0  3  0  0  0  0  0  0
  190.2600  178.1640  142.5110 C   0  0  1  0  0  3  0  0  0  0  0  0
  191.2190  176.5570  137.5970 C   0  0  2  0  0  3  0  0  0  0  0  0
  189.8420  176.6790  138.2760 C   0  0  2  0  0  3  0  0  0  0  0  0
  190.2360  177.1070  141.4200 C   0  0  2  0  0  0  0  0  0  0  0  0
  191.2950  175.4440  136.5220 C   0  0  2  0  0  3  0  0  0  0  0  0
  189.0050  174.5750  136.0880 C   0  0  0  0  0  2  0  0  0  0  0  0
  193.5570  175.7040  138.3230 C   0  0  0  0  0  2  0  0  0  0  0  0
  188.7260  176.8430  137.2160 C   0  0  1  0  0  3  0  0  0  0  0  0
  190.3410  174.2790  136.7610 C   0  0  0  0  0  2  0  0  0  0  0  0
  191.1620  177.5020  140.3150 C   0  0  1  0  0  3  0  0  0  0  0  0
  188.0880  175.4730  136.9210 C   0  0  1  0  0  3  0  0  0  0  0  0
  191.9090  176.3710  139.9290 O   0  0  0  0  0  0  0  0  0  0  0  0
  193.8880  175.6240  136.8330 C   0  0  2  0  0  0  0  0  0  0  0  0
  194.1160  177.0230  136.2530 C   0  0  0  0  0  1  0  0  0  0  0  0
  192.8180  174.9060  134.6090 C   0  0  0  0  0  1  0  0  0  0  0  0
  188.9840  177.2330  140.6090 C   0  0  0  0  0  2  0  0  0  0  0  0
  189.6300  177.5930  143.7660 C   0  0  0  0  0  2  0  0  0  0  0  0
  186.8810  175.6200  136.2340 O   0  0  0  0  0  1  0  0  0  0  0  0
  192.3730  176.6180  138.6280 C   0  0  2  0  0  3  0  0  0  0  0  0
  190.4790  176.7150  142.8660 C   0  0  2  0  0  3  0  0  0  0  0  0
  192.6900  174.9390  136.1280 C   0  0  2  0  0  3  0  0  0  0  0  0
  187.7030  177.9840  137.3950 C   0  0  2  0  0  3  0  0  0  0  0  0
  186.4970  177.5180  138.0590 N   0  0  0  0  0  1  0  0  0  0  0  0
  187.3610  178.7150  136.1080 C   0  0  0  0  0  1  0  0  0  0  0  0
  196.2110  175.3630  136.3790 O   0  0  0  0  0  0  0  0  0  0  0  0
  195.1660  174.8020  136.6840 C   0  0  0  0  0  0  0  0  0  0  0  0
  195.1960  173.2930  136.8700 C   0  0  0  0  0  0  0  0  0  0  0  0
  196.1820  172.9360  137.9660 C   0  0  0  0  0  1  0  0  0  0  0  0
  193.9410  172.7920  137.2190 O   0  0  0  0  0  1  0  0  0  0  0  0
  195.6370  172.6270  135.5790 C   0  0  0  0  0  1  0  0  0  0  0  0
  1 11  1  0  0  0  0
  1 17  1  1  0  0  0
  2 21  1  0  0  0  0
  2 18  1  1  0  0  0
  3  4  1  0  0  0  0
  3 20  1  0  0  0  0
  4  1  1  0  0  0  0
  5  2  1  0  0  0  0
  5 21  1  0  0  0  0
  6 10  1  0  0  0  0
  6  3  1  0  0  0  0
  7 10  1  0  0  0  0
  7 12  1  0  0  0  0
  8 20  1  0  0  0  0
  9 23  1  0  0  0  0
  9  4  1  0  0  0  0
 11  5  1  0  0  0  0
 12  9  1  0  0  0  0
 13 11  1  0  0  0  0
 14  8  1  0  0  0  0
 15 14  1  0  0  0  0
 16 22  1  0  0  0  0
 17  5  1  0  0  0  0
 19 12  1  0  0  0  0
 20 13  1  0  0  0  0
 21 18  1  0  0  0  0
 22  6  1  0  0  0  0
 22 14  1  0  0  0  0
 23 24  1  0  0  0  0
 25 23  1  0  0  0  0
 26 27  2  0  0  0  0
 27 14  1  0  0  0  0
 27 28  1  0  0  0  0
 28 30  1  0  0  0  0
 28 29  1  0  0  0  0
 31 28  1  0  0  0  0
M  END
>  <MODEL>
3

>  <REMARK>
 VINA RESULT:      -6.2      2.026      6.481
  Name = 
  3 active torsions:
  status: ('A' for Active; 'I' for Inactive)
    1  A    between atoms: C_5  and  C_10
    2  A    between atoms: C_17  and  C_19
    3  A    between atoms: C_19  and  C_22
                            x       y       z     vdW  Elec       q    Type
                         _______ _______ _______ _____ _____    ______ ____

>  <TORSDO>
F 3

$$$$
=
 OpenBabel11062414323D

 31 36  0  0  1  0  0  0  0  0999 V2000
  188.8060  178.6010  141.1540 C   0  0  2  0  0  3  0  0  0  0  0  0
  188.6660  178.0830  138.0700 C   0  0  1  0  0  3  0  0  0  0  0  0
  187.1290  178.6790  143.0640 C   0  0  2  0  0  3  0  0  0  0  0  0
  188.4730  178.1060  142.5740 C   0  0  2  0  0  3  0  0  0  0  0  0
  188.3020  177.5230  139.4350 C   0  0  2  0  0  0  0  0  0  0  0  0
  186.6520  178.0950  144.4180 C   0  0  2  0  0  3  0  0  0  0  0  0
  188.4870  176.7410  145.4110 C   0  0  0  0  0  2  0  0  0  0  0  0
  184.6530  178.4320  142.3410 C   0  0  0  0  0  2  0  0  0  0  0  0
  189.5590  178.2580  143.6660 C   0  0  1  0  0  3  0  0  0  0  0  0
  187.1420  176.6790  144.6940 C   0  0  0  0  0  2  0  0  0  0  0  0
  187.5560  178.5520  140.2200 C   0  0  1  0  0  3  0  0  0  0  0  0
  189.6740  176.9470  144.4660 C   0  0  1  0  0  3  0  0  0  0  0  0
  186.4550  177.9310  140.8430 O   0  0  0  0  0  0  0  0  0  0  0  0
  184.2920  178.9840  143.7190 C   0  0  2  0  0  0  0  0  0  0  0  0
  184.5580  180.4910  143.7850 C   0  0  0  0  0  1  0  0  0  0  0  0
  185.0090  178.7760  146.1780 C   0  0  0  0  0  1  0  0  0  0  0  0
  189.5060  177.5090  140.3240 C   0  0  0  0  0  2  0  0  0  0  0  0
  189.0760  176.9420  137.1610 C   0  0  0  0  0  2  0  0  0  0  0  0
  190.8450  176.9240  145.2260 O   0  0  0  0  0  1  0  0  0  0  0  0
  186.0860  178.7490  141.9220 C   0  0  2  0  0  3  0  0  0  0  0  0
  187.9600  176.7550  138.1700 C   0  0  2  0  0  3  0  0  0  0  0  0
  185.1630  178.2380  144.7600 C   0  0  2  0  0  3  0  0  0  0  0  0
  190.9190  178.8700  143.2710 C   0  0  2  0  0  3  0  0  0  0  0  0
  191.8600  177.8470  142.8450 N   0  0  0  0  0  1  0  0  0  0  0  0
  191.5330  179.7530  144.3430 C   0  0  0  0  0  1  0  0  0  0  0  0
  182.4330  178.2540  145.0170 O   0  0  0  0  0  0  0  0  0  0  0  0
  182.8050  178.7250  143.9490 C   0  0  0  0  0  0  0  0  0  0  0  0
  181.7520  179.0000  142.8870 C   0  0  0  0  0  0  0  0  0  0  0  0
  180.5170  178.1650  143.1670 C   0  0  0  0  0  1  0  0  0  0  0  0
  181.3830  180.3470  142.8650 O   0  0  0  0  0  1  0  0  0  0  0  0
  182.2940  178.6290  141.5190 C   0  0  0  0  0  1  0  0  0  0  0  0
  1 17  1  6  0  0  0
  1  4  1  0  0  0  0
  2 18  1  1  0  0  0
  2 21  1  0  0  0  0
  2  5  1  0  0  0  0
  3  6  1  0  0  0  0
  4  3  1  0  0  0  0
  4  9  1  0  0  0  0
  5 11  1  0  0  0  0
  5 17  1  0  0  0  0
  6 10  1  0  0  0  0
  6 22  1  0  0  0  0
  8 14  1  0  0  0  0
  9 12  1  0  0  0  0
 10  7  1  0  0  0  0
 11 13  1  0  0  0  0
 11  1  1  0  0  0  0
 12 19  1  0  0  0  0
 12  7  1  0  0  0  0
 13 20  1  0  0  0  0
 14 15  1  0  0  0  0
 14 27  1  0  0  0  0
 14 22  1  0  0  0  0
 18 21  1  0  0  0  0
 20  8  1  0  0  0  0
 20  3  1  0  0  0  0
 21  5  1  0  0  0  0
 22 16  1  0  0  0  0
 23  9  1  0  0  0  0
 23 25  1  0  0  0  0
 24 23  1  0  0  0  0
 27 26  2  0  0  0  0
 28 29  1  0  0  0  0
 28 27  1  0  0  0  0
 30 28  1  0  0  0  0
 31 28  1  0  0  0  0
M  END
>  <MODEL>
4

>  <REMARK>
 VINA RESULT:      -6.2      4.096      7.310
  Name = 
  3 active torsions:
  status: ('A' for Active; 'I' for Inactive)
    1  A    between atoms: C_5  and  C_10
    2  A    between atoms: C_17  and  C_19
    3  A    between atoms: C_19  and  C_22
                            x       y       z     vdW  Elec       q    Type
                         _______ _______ _______ _____ _____    ______ ____

>  <TORSDO>
F 3

$$$$
=
 OpenBabel11062414323D

 31 36  0  0  1  0  0  0  0  0999 V2000
  189.3330  177.0380  137.3500 C   0  0  2  0  0  3  0  0  0  0  0  0
  188.7010  178.5370  140.0250 C   0  0  1  0  0  3  0  0  0  0  0  0
  191.3400  175.8170  136.3790 C   0  0  2  0  0  3  0  0  0  0  0  0
  189.8280  175.7510  136.6650 C   0  0  2  0  0  3  0  0  0  0  0  0
  189.1980  177.2310  139.4290 C   0  0  2  0  0  0  0  0  0  0  0  0
  191.9380  174.4930  135.8400 C   0  0  2  0  0  3  0  0  0  0  0  0
  190.0840  172.9240  135.3030 C   0  0  0  0  0  2  0  0  0  0  0  0
  193.4820  175.9280  137.8350 C   0  0  0  0  0  2  0  0  0  0  0  0
  189.0600  175.2550  135.4160 C   0  0  1  0  0  3  0  0  0  0  0  0
  191.1970  173.2420  136.2960 C   0  0  0  0  0  2  0  0  0  0  0  0
  190.3130  177.5060  138.4710 C   0  0  1  0  0  3  0  0  0  0  0  0
  188.8090  173.7400  135.5320 C   0  0  1  0  0  3  0  0  0  0  0  0
  191.3410  176.5700  138.6990 O   0  0  0  0  0  0  0  0  0  0  0  0
  194.2420  175.4840  136.5860 C   0  0  2  0  0  0  0  0  0  0  0  0
  194.3580  176.6380  135.5840 C   0  0  0  0  0  1  0  0  0  0  0  0
  194.0260  173.8390  134.6240 C   0  0  0  0  0  1  0  0  0  0  0  0
  188.2370  176.7390  138.3910 C   0  0  0  0  0  2  0  0  0  0  0  0
  187.8530  178.2330  141.2430 C   0  0  0  0  0  2  0  0  0  0  0  0
  187.8510  173.3180  134.6080 O   0  0  0  0  0  1  0  0  0  0  0  0
  192.1090  176.5190  137.5260 C   0  0  2  0  0  3  0  0  0  0  0  0
  189.0780  177.3950  140.9330 C   0  0  2  0  0  3  0  0  0  0  0  0
  193.4560  174.3060  135.9600 C   0  0  2  0  0  3  0  0  0  0  0  0
  187.8310  176.0580  134.9410 C   0  0  2  0  0  3  0  0  0  0  0  0
  188.1610  177.4570  134.7260 N   0  0  0  0  0  1  0  0  0  0  0  0
  186.6190  175.9230  135.8460 C   0  0  0  0  0  1  0  0  0  0  0  0
  196.6020  175.3150  136.3090 O   0  0  0  0  0  0  0  0  0  0  0  0
  195.6410  175.0530  137.0210 C   0  0  0  0  0  0  0  0  0  0  0  0
  195.8960  174.2740  138.3020 C   0  0  0  0  0  0  0  0  0  0  0  0
  197.3570  173.8690  138.3680 C   0  0  0  0  0  1  0  0  0  0  0  0
  195.5920  175.0320  139.4350 O   0  0  0  0  0  1  0  0  0  0  0  0
  195.0390  173.0220  138.3200 C   0  0  0  0  0  1  0  0  0  0  0  0
  1 17  1  1  0  0  0
  1 11  1  0  0  0  0
  2 21  1  0  0  0  0
  2 18  1  6  0  0  0
  3  4  1  0  0  0  0
  3 20  1  0  0  0  0
  4  1  1  0  0  0  0
  5  2  1  0  0  0  0
  5 21  1  0  0  0  0
  6 22  1  0  0  0  0
  6 10  1  0  0  0  0
  6  3  1  0  0  0  0
  7 12  1  0  0  0  0
  7 10  1  0  0  0  0
  9 12  1  0  0  0  0
  9  4  1  0  0  0  0
 11 13  1  0  0  0  0
 11  5  1  0  0  0  0
 14 27  1  0  0  0  0
 14  8  1  0  0  0  0
 15 14  1  0  0  0  0
 16 22  1  0  0  0  0
 17  5  1  0  0  0  0
 19 12  1  0  0  0  0
 20  8  1  0  0  0  0
 20 13  1  0  0  0  0
 21 18  1  0  0  0  0
 22 14  1  0  0  0  0
 23  9  1  0  0  0  0
 23 25  1  0  0  0  0
 24 23  1  0  0  0  0
 26 27  2  0  0  0  0
 27 28  1  0  0  0  0
 28 31  1  0  0  0  0
 28 29  1  0  0  0  0
 28 30  1  0  0  0  0
M  END
>  <MODEL>
5

>  <REMARK>
 VINA RESULT:      -6.0      2.694      6.344
  Name = 
  3 active torsions:
  status: ('A' for Active; 'I' for Inactive)
    1  A    between atoms: C_5  and  C_10
    2  A    between atoms: C_17  and  C_19
    3  A    between atoms: C_19  and  C_22
                            x       y       z     vdW  Elec       q    Type
                         _______ _______ _______ _____ _____    ______ ____

>  <TORSDO>
F 3

$$$$
=
 OpenBabel11062414323D

 31 36  0  0  1  0  0  0  0  0999 V2000
  182.0450  175.9640  137.5190 C   0  0  2  0  0  3  0  0  0  0  0  0
  180.7910  177.9950  139.5450 C   0  0  1  0  0  3  0  0  0  0  0  0
  184.3540  175.5720  136.5300 C   0  0  2  0  0  3  0  0  0  0  0  0
  183.1440  174.9250  137.2300 C   0  0  2  0  0  3  0  0  0  0  0  0
  181.9060  176.9830  139.3410 C   0  0  2  0  0  0  0  0  0  0  0  0
  185.5640  174.6210  136.3550 C   0  0  2  0  0  3  0  0  0  0  0  0
  184.8720  172.3070  136.9520 C   0  0  0  0  0  2  0  0  0  0  0  0
  186.1290  177.3420  137.1900 C   0  0  0  0  0  2  0  0  0  0  0  0
  182.7330  173.6190  136.5070 C   0  0  1  0  0  3  0  0  0  0  0  0
  185.6590  173.5290  137.4150 C   0  0  0  0  0  2  0  0  0  0  0  0
  182.6440  177.2930  138.0780 C   0  0  1  0  0  3  0  0  0  0  0  0
  183.3680  172.4120  137.2210 C   0  0  1  0  0  3  0  0  0  0  0  0
  184.0260  177.1870  138.3290 O   0  0  0  0  0  0  0  0  0  0  0  0
  186.9600  176.8100  136.0230 C   0  0  2  0  0  0  0  0  0  0  0  0
  186.3780  177.2810  134.6860 C   0  0  0  0  0  1  0  0  0  0  0  0
  187.6160  174.5830  134.9220 C   0  0  0  0  0  1  0  0  0  0  0  0
  181.3400  175.6830  138.8590 C   0  0  0  0  0  2  0  0  0  0  0  0
  180.3020  177.9090  140.9760 C   0  0  0  0  0  2  0  0  0  0  0  0
  182.7700  171.2170  136.8150 O   0  0  0  0  0  1  0  0  0  0  0  0
  184.6480  176.9880  137.0860 C   0  0  2  0  0  3  0  0  0  0  0  0
  181.7730  177.7270  140.6570 C   0  0  2  0  0  3  0  0  0  0  0  0
  186.9350  175.2630  136.1050 C   0  0  2  0  0  3  0  0  0  0  0  0
  181.2480  173.4190  136.1400 C   0  0  2  0  0  3  0  0  0  0  0  0
  180.5440  172.6650  137.1640 N   0  0  0  0  0  1  0  0  0  0  0  0
  181.0290  172.8010  134.7700 C   0  0  0  0  0  1  0  0  0  0  0  0
  188.9320  177.8710  135.2130 O   0  0  0  0  0  0  0  0  0  0  0  0
  188.3780  177.3540  136.1750 C   0  0  0  0  0  0  0  0  0  0  0  0
  189.1580  177.2550  137.4770 C   0  0  0  0  0  0  0  0  0  0  0  0
  189.2600  178.6280  138.1130 C   0  0  0  0  0  1  0  0  0  0  0  0
  188.5410  176.3890  138.3820 O   0  0  0  0  0  1  0  0  0  0  0  0
  190.5580  176.7390  137.1970 C   0  0  0  0  0  1  0  0  0  0  0  0
  1 11  1  0  0  0  0
  1 17  1  1  0  0  0
  2 21  1  0  0  0  0
  2 18  1  1  0  0  0
  3 20  1  0  0  0  0
  3  4  1  0  0  0  0
  4  1  1  0  0  0  0
  5  2  1  0  0  0  0
  5 21  1  0  0  0  0
  6  3  1  0  0  0  0
  6 10  1  0  0  0  0
  7 12  1  0  0  0  0
  7 10  1  0  0  0  0
  9 12  1  0  0  0  0
  9  4  1  0  0  0  0
 11 13  1  0  0  0  0
 11  5  1  0  0  0  0
 14 22  1  0  0  0  0
 14 27  1  0  0  0  0
 14  8  1  0  0  0  0
 15 14  1  0  0  0  0
 16 22  1  0  0  0  0
 17  5  1  0  0  0  0
 19 12  1  0  0  0  0
 20  8  1  0  0  0  0
 20 13  1  0  0  0  0
 21 18  1  0  0  0  0
 22  6  1  0  0  0  0
 23  9  1  0  0  0  0
 23 24  1  0  0  0  0
 25 23  1  0  0  0  0
 26 27  2  0  0  0  0
 27 28  1  0  0  0  0
 28 29  1  0  0  0  0
 28 30  1  0  0  0  0
 31 28  1  0  0  0  0
M  END
>  <MODEL>
6

>  <REMARK>
 VINA RESULT:      -5.8      4.330      8.519
  Name = 
  3 active torsions:
  status: ('A' for Active; 'I' for Inactive)
    1  A    between atoms: C_5  and  C_10
    2  A    between atoms: C_17  and  C_19
    3  A    between atoms: C_19  and  C_22
                            x       y       z     vdW  Elec       q    Type
                         _______ _______ _______ _____ _____    ______ ____

>  <TORSDO>
F 3

$$$$
=
 OpenBabel11062414323D

 31 36  0  0  1  0  0  0  0  0999 V2000
  187.3230  177.2000  144.5930 C   0  0  2  0  0  3  0  0  0  0  0  0
  184.3190  177.9950  144.9730 C   0  0  1  0  0  3  0  0  0  0  0  0
  189.0080  177.3140  142.6920 C   0  0  2  0  0  3  0  0  0  0  0  0
  188.7410  177.6320  144.1760 C   0  0  2  0  0  3  0  0  0  0  0  0
  185.6860  178.5020  144.5470 C   0  0  2  0  0  0  0  0  0  0  0  0
  190.3540  177.8680  142.1620 C   0  0  2  0  0  3  0  0  0  0  0  0
  191.6940  178.7190  144.0780 C   0  0  0  0  0  2  0  0  0  0  0  0
  188.0380  178.1350  140.4330 C   0  0  0  0  0  2  0  0  0  0  0  0
  189.9260  177.1650  145.0540 C   0  0  1  0  0  3  0  0  0  0  0  0
  190.8390  179.1220  142.8800 C   0  0  0  0  0  2  0  0  0  0  0  0
  186.2630  177.5890  143.5140 C   0  0  1  0  0  3  0  0  0  0  0  0
  190.8740  178.3500  145.3160 C   0  0  1  0  0  3  0  0  0  0  0  0
  186.8200  178.3720  142.4840 O   0  0  0  0  0  0  0  0  0  0  0  0
  189.2960  177.5560  139.7890 C   0  0  2  0  0  0  0  0  0  0  0  0
  189.2260  176.0270  139.7410 C   0  0  0  0  0  1  0  0  0  0  0  0
  191.8290  177.4000  140.1950 C   0  0  0  0  0  1  0  0  0  0  0  0
  186.7040  178.1870  145.6000 C   0  0  0  0  0  2  0  0  0  0  0  0
  183.5940  179.0980  145.7190 C   0  0  0  0  0  2  0  0  0  0  0  0
  191.7610  178.0620  146.3560 O   0  0  0  0  0  1  0  0  0  0  0  0
  187.7530  177.5610  141.8190 C   0  0  2  0  0  3  0  0  0  0  0  0
  184.4840  179.4290  144.5370 C   0  0  2  0  0  3  0  0  0  0  0  0
  190.5060  178.0120  140.6420 C   0  0  2  0  0  3  0  0  0  0  0  0
  189.6240  176.3160  146.3070 C   0  0  2  0  0  3  0  0  0  0  0  0
  189.0630  177.1270  147.3750 N   0  0  0  0  0  1  0  0  0  0  0  0
  190.8110  175.5110  146.8080 C   0  0  0  0  0  1  0  0  0  0  0  0
  189.3600  179.3110  138.1790 O   0  0  0  0  0  0  0  0  0  0  0  0
  189.3820  178.1000  138.3640 C   0  0  0  0  0  0  0  0  0  0  0  0
  189.4640  177.1950  137.1450 C   0  0  0  0  0  0  0  0  0  0  0  0
  190.8720  176.6440  137.0160 C   0  0  0  0  0  1  0  0  0  0  0  0
  188.5730  176.1240  137.2380 O   0  0  0  0  0  1  0  0  0  0  0  0
  189.1320  177.9880  135.8950 C   0  0  0  0  0  1  0  0  0  0  0  0
  1 17  1  1  0  0  0
  2 18  1  1  0  0  0
  3  4  1  0  0  0  0
  4  1  1  0  0  0  0
  4  9  1  0  0  0  0
  5  2  1  0  0  0  0
  5 17  1  0  0  0  0
  6  3  1  0  0  0  0
  6 10  1  0  0  0  0
  7 12  1  0  0  0  0
  8 20  1  0  0  0  0
  9 12  1  0  0  0  0
  9 23  1  0  0  0  0
 10  7  1  0  0  0  0
 11  5  1  0  0  0  0
 11  1  1  0  0  0  0
 12 19  1  0  0  0  0
 13 11  1  0  0  0  0
 14  8  1  0  0  0  0
 14 22  1  0  0  0  0
 15 14  1  0  0  0  0
 16 22  1  0  0  0  0
 20 13  1  0  0  0  0
 20  3  1  0  0  0  0
 21  5  1  0  0  0  0
 21  2  1  0  0  0  0
 21 18  1  0  0  0  0
 22  6  1  0  0  0  0
 23 25  1  0  0  0  0
 23 24  1  0  0  0  0
 26 27  2  0  0  0  0
 27 14  1  0  0  0  0
 28 30  1  0  0  0  0
 28 27  1  0  0  0  0
 29 28  1  0  0  0  0
 31 28  1  0  0  0  0
M  END
>  <MODEL>
7

>  <REMARK>
 VINA RESULT:      -5.3      3.208      8.385
  Name = 
  3 active torsions:
  status: ('A' for Active; 'I' for Inactive)
    1  A    between atoms: C_5  and  C_10
    2  A    between atoms: C_17  and  C_19
    3  A    between atoms: C_19  and  C_22
                            x       y       z     vdW  Elec       q    Type
                         _______ _______ _______ _____ _____    ______ ____

>  <TORSDO>
F 3

$$$$
=
 OpenBabel11062414323D

 31 36  0  0  1  0  0  0  0  0999 V2000
  184.5240  175.1300  135.9630 C   0  0  2  0  0  3  0  0  0  0  0  0
  183.5830  172.1600  135.6620 C   0  0  1  0  0  3  0  0  0  0  0  0
  183.6290  177.2140  137.1130 C   0  0  2  0  0  3  0  0  0  0  0  0
  184.8540  176.3020  136.9060 C   0  0  2  0  0  3  0  0  0  0  0  0
  183.8900  173.2630  136.6610 C   0  0  2  0  0  0  0  0  0  0  0  0
  183.8400  178.3200  138.1770 C   0  0  2  0  0  3  0  0  0  0  0  0
  186.2410  178.3760  138.8270 C   0  0  0  0  0  2  0  0  0  0  0  0
  181.2900  176.9340  138.1940 C   0  0  0  0  0  2  0  0  0  0  0  0
  186.1140  177.1450  136.5990 C   0  0  1  0  0  3  0  0  0  0  0  0
  184.8420  177.9560  139.2670 C   0  0  0  0  0  2  0  0  0  0  0  0
  183.1350  174.4990  136.2940 C   0  0  1  0  0  3  0  0  0  0  0  0
  186.9160  177.3670  137.8940 C   0  0  1  0  0  3  0  0  0  0  0  0
  182.5720  175.0450  137.4650 O   0  0  0  0  0  0  0  0  0  0  0  0
  181.2280  178.4610  138.2310 C   0  0  2  0  0  0  0  0  0  0  0  0
  180.9750  179.0270  136.8310 C   0  0  0  0  0  1  0  0  0  0  0  0
  182.7220  180.4850  138.7510 C   0  0  0  0  0  1  0  0  0  0  0  0
  185.2460  173.8390  136.3920 C   0  0  0  0  0  2  0  0  0  0  0  0
  184.0390  170.8330  136.2360 C   0  0  0  0  0  2  0  0  0  0  0  0
  188.2040  177.8290  137.6140 O   0  0  0  0  0  1  0  0  0  0  0  0
  182.3150  176.3990  137.1970 C   0  0  2  0  0  3  0  0  0  0  0  0
  183.4410  171.8940  137.1390 C   0  0  2  0  0  3  0  0  0  0  0  0
  182.5850  178.9670  138.7790 C   0  0  2  0  0  3  0  0  0  0  0  0
  186.9830  176.7540  135.3850 C   0  0  2  0  0  3  0  0  0  0  0  0
  188.0700  175.8700  135.7710 N   0  0  0  0  0  1  0  0  0  0  0  0
  187.5070  177.9400  134.5940 C   0  0  0  0  0  1  0  0  0  0  0  0
  179.0850  179.4000  138.6760 O   0  0  0  0  0  0  0  0  0  0  0  0
  180.0740  178.8560  139.1510 C   0  0  0  0  0  0  0  0  0  0  0  0
  180.1100  178.6300  140.6540 C   0  0  0  0  0  0  0  0  0  0  0  0
  178.9310  177.7690  141.0660 C   0  0  0  0  0  1  0  0  0  0  0  0
  181.2880  177.9930  141.0510 O   0  0  0  0  0  1  0  0  0  0  0  0
  180.0190  179.9620  141.3750 C   0  0  0  0  0  1  0  0  0  0  0  0
  1 11  1  0  0  0  0
  1 17  1  1  0  0  0
  1  4  1  0  0  0  0
  2 18  1  1  0  0  0
  2  5  1  0  0  0  0
  2 21  1  0  0  0  0
  3 20  1  0  0  0  0
  3  6  1  0  0  0  0
  4  3  1  0  0  0  0
  5 21  1  0  0  0  0
  6 22  1  0  0  0  0
  6 10  1  0  0  0  0
  7 10  1  0  0  0  0
  8 14  1  0  0  0  0
  9  4  1  0  0  0  0
  9 12  1  0  0  0  0
 11  5  1  0  0  0  0
 11 13  1  0  0  0  0
 12  7  1  0  0  0  0
 14 22  1  0  0  0  0
 14 27  1  0  0  0  0
 15 14  1  0  0  0  0
 16 22  1  0  0  0  0
 17  5  1  0  0  0  0
 18 21  1  0  0  0  0
 19 12  1  0  0  0  0
 20 13  1  0  0  0  0
 20  8  1  0  0  0  0
 23 24  1  0  0  0  0
 23  9  1  0  0  0  0
 25 23  1  0  0  0  0
 26 27  2  0  0  0  0
 27 28  1  0  0  0  0
 28 30  1  0  0  0  0
 28 29  1  0  0  0  0
 28 31  1  0  0  0  0
M  END
>  <MODEL>
8

>  <REMARK>
 VINA RESULT:      -5.3      5.142      8.534
  Name = 
  3 active torsions:
  status: ('A' for Active; 'I' for Inactive)
    1  A    between atoms: C_5  and  C_10
    2  A    between atoms: C_17  and  C_19
    3  A    between atoms: C_19  and  C_22
                            x       y       z     vdW  Elec       q    Type
                         _______ _______ _______ _____ _____    ______ ____

>  <TORSDO>
F 3

$$$$
=
 OpenBabel11062414323D

 31 36  0  0  1  0  0  0  0  0999 V2000
  189.7020  178.2600  142.0420 C   0  0  2  0  0  3  0  0  0  0  0  0
  190.5780  177.4980  139.1340 C   0  0  1  0  0  3  0  0  0  0  0  0
  187.4900  178.5180  143.2670 C   0  0  2  0  0  3  0  0  0  0  0  0
  188.8940  177.8860  143.2980 C   0  0  2  0  0  3  0  0  0  0  0  0
  189.7560  177.0550  140.3330 C   0  0  2  0  0  0  0  0  0  0  0  0
  186.5640  178.0530  144.4190 C   0  0  2  0  0  3  0  0  0  0  0  0
  187.9040  176.7530  146.0630 C   0  0  0  0  0  2  0  0  0  0  0  0
  185.3880  178.2530  141.7720 C   0  0  0  0  0  2  0  0  0  0  0  0
  189.5590  178.1070  144.6780 C   0  0  1  0  0  3  0  0  0  0  0  0
  186.8730  176.6550  144.9430 C   0  0  0  0  0  2  0  0  0  0  0  0
  188.8350  178.1560  140.7480 C   0  0  1  0  0  3  0  0  0  0  0  0
  189.3450  176.8630  145.5600 C   0  0  1  0  0  3  0  0  0  0  0  0
  187.5640  177.6050  141.0060 O   0  0  0  0  0  0  0  0  0  0  0  0
  184.6120  178.9200  142.9070 C   0  0  2  0  0  0  0  0  0  0  0  0
  184.9040  180.4230  142.9530 C   0  0  0  0  0  1  0  0  0  0  0  0
  184.4570  178.8990  145.4720 C   0  0  0  0  0  1  0  0  0  0  0  0
  190.5930  177.0940  141.5740 C   0  0  0  0  0  2  0  0  0  0  0  0
  191.2190  176.2820  138.4980 C   0  0  0  0  0  2  0  0  0  0  0  0
  190.1930  176.8820  146.6690 O   0  0  0  0  0  1  0  0  0  0  0  0
  186.8910  178.5130  141.8380 C   0  0  2  0  0  3  0  0  0  0  0  0
  189.8240  176.1940  139.0850 C   0  0  2  0  0  3  0  0  0  0  0  0
  185.0530  178.2460  144.2300 C   0  0  2  0  0  3  0  0  0  0  0  0
  190.9980  178.6640  144.7210 C   0  0  2  0  0  3  0  0  0  0  0  0
  191.1060  179.9140  143.9880 N   0  0  0  0  0  1  0  0  0  0  0  0
  192.0560  177.6750  144.2600 C   0  0  0  0  0  1  0  0  0  0  0  0
  182.3290  178.7750  143.5710 O   0  0  0  0  0  0  0  0  0  0  0  0
  183.1230  178.7050  142.6420 C   0  0  0  0  0  0  0  0  0  0  0  0
  182.5770  178.3720  141.2620 C   0  0  0  0  0  0  0  0  0  0  0  0
  183.0990  179.3790  140.2540 C   0  0  0  0  0  1  0  0  0  0  0  0
  182.9570  177.0930  140.8520 O   0  0  0  0  0  1  0  0  0  0  0  0
  181.0610  178.4390  141.2810 C   0  0  0  0  0  1  0  0  0  0  0  0
  1 17  1  6  0  0  0
  1  4  1  0  0  0  0
  2 18  1  1  0  0  0
  2  5  1  0  0  0  0
  3  4  1  0  0  0  0
  3  6  1  0  0  0  0
  4  9  1  0  0  0  0
  5 11  1  0  0  0  0
  5 17  1  0  0  0  0
  6 10  1  0  0  0  0
  8 20  1  0  0  0  0
  8 14  1  0  0  0  0
  9 23  1  0  0  0  0
  9 12  1  0  0  0  0
 10  7  1  0  0  0  0
 11 13  1  0  0  0  0
 11  1  1  0  0  0  0
 12  7  1  0  0  0  0
 12 19  1  0  0  0  0
 13 20  1  0  0  0  0
 14 15  1  0  0  0  0
 14 22  1  0  0  0  0
 18 21  1  0  0  0  0
 20  3  1  0  0  0  0
 21  2  1  0  0  0  0
 21  5  1  0  0  0  0
 22  6  1  0  0  0  0
 22 16  1  0  0  0  0
 24 23  1  0  0  0  0
 25 23  1  0  0  0  0
 27 14  1  0  0  0  0
 27 26  2  0  0  0  0
 28 31  1  0  0  0  0
 28 27  1  0  0  0  0
 29 28  1  0  0  0  0
 30 28  1  0  0  0  0
M  END
>  <MODEL>
9

>  <REMARK>
 VINA RESULT:      -5.3      3.814      7.254
  Name = 
  3 active torsions:
  status: ('A' for Active; 'I' for Inactive)
    1  A    between atoms: C_5  and  C_10
    2  A    between atoms: C_17  and  C_19
    3  A    between atoms: C_19  and  C_22
                            x       y       z     vdW  Elec       q    Type
                         _______ _______ _______ _____ _____    ______ ____

>  <TORSDO>
F 3

$$$$
