=
 OpenBabel11062415383D

 34 38  0  0  1  0  0  0  0  0999 V2000
  188.9820  178.0200  142.1130 C   0  0  0  0  0  0  0  0  0  0  0  0
  190.6330  176.4140  145.6140 O   0  0  0  0  0  1  0  0  0  0  0  0
  186.9920  178.9830  141.0130 N   0  0  0  0  0  0  0  0  0  0  0  0
  190.9220  177.3710  143.4180 C   0  0  0  0  0  3  0  0  0  0  0  0
  188.6990  177.0770  144.3330 C   0  0  0  0  0  3  0  0  0  0  0  0
  188.3700  178.5060  140.8170 C   0  0  2  0  0  3  0  0  0  0  0  0
  190.0850  176.9500  144.4560 C   0  0  0  0  0  0  0  0  0  0  0  0
  186.2200  178.6170  141.9960 C   0  0  0  0  0  0  0  0  0  0  0  0
  190.3720  177.9020  142.2480 C   0  0  0  0  0  3  0  0  0  0  0  0
  188.1490  177.6140  143.1660 C   0  0  0  0  0  0  0  0  0  0  0  0
  186.7430  177.8360  143.0730 N   0  0  0  0  0  2  0  0  0  0  0  0
  180.5250  178.0920  141.0700 C   0  0  0  0  0  3  0  0  0  0  0  0
  181.6380  178.7320  141.6210 C   0  0  0  0  0  0  0  0  0  0  0  0
  182.9150  179.5200  143.6690 C   0  0  0  0  0  2  0  0  0  0  0  0
  179.5340  177.5880  141.9140 C   0  0  0  0  0  3  0  0  0  0  0  0
  184.0060  178.5090  140.8960 C   0  0  0  0  0  2  0  0  0  0  0  0
  182.6940  179.2580  140.7010 C   0  0  0  0  0  2  0  0  0  0  0  0
  179.6540  177.7190  143.2620 N   0  0  0  0  0  0  0  0  0  0  0  0
  184.8030  179.0890  142.0630 C   0  0  1  0  0  3  0  0  0  0  0  0
  181.7430  178.8570  143.0190 C   0  0  0  0  0  0  0  0  0  0  0  0
  184.1930  178.7330  143.4170 C   0  0  0  0  0  2  0  0  0  0  0  0
  180.7280  178.3340  143.8240 C   0  0  0  0  0  3  0  0  0  0  0  0
  188.5260  176.1030  137.2150 C   0  0  0  0  0  0  0  0  0  0  0  0
  188.4390  175.2470  136.1230 O   0  0  0  0  0  1  0  0  0  0  0  0
  189.7430  177.2580  139.0310 C   0  0  1  0  0  3  0  0  0  0  0  0
  187.2740  177.5420  138.7450 C   0  0  0  0  0  3  0  0  0  0  0  0
  187.3350  176.8980  137.5780 C   0  0  0  0  0  3  0  0  0  0  0  0
  190.1380  178.4840  138.4890 O   0  0  0  0  0  1  0  0  0  0  0  0
  188.3880  177.3930  139.7500 C   0  0  2  0  0  3  0  0  0  0  0  0
  189.6700  176.2230  137.9310 C   0  0  0  0  0  0  0  0  0  0  0  0
  190.8940  175.4450  137.6330 C   0  0  0  0  0  0  0  0  0  0  0  0
  190.9990  174.2380  137.9830 O   0  0  0  0  0  0  0  0  0  0  0  0
  191.9500  176.0700  136.9610 O   0  0  0  0  0  0  0  0  0  0  0  0
  193.1730  176.3840  137.6090 C   0  0  0  0  0  1  0  0  0  0  0  0
  1  9  2  0  0  0  0
  1 10  1  0  0  0  0
  3  8  2  0  0  0  0
  4  7  2  0  0  0  0
  5  7  1  0  0  0  0
  6  3  1  1  0  0  0
  6  1  1  0  0  0  0
  7  2  1  0  0  0  0
  8 11  1  0  0  0  0
  9  4  1  0  0  0  0
 10  5  2  0  0  0  0
 11 10  1  0  0  0  0
 12 13  2  0  0  0  0
 12 15  1  0  0  0  0
 13 20  1  0  0  0  0
 15 18  2  0  0  0  0
 16 19  1  0  0  0  0
 17 16  1  0  0  0  0
 17 13  1  0  0  0  0
 18 22  1  0  0  0  0
 19  8  1  1  0  0  0
 19 21  1  0  0  0  0
 20 14  1  0  0  0  0
 20 22  2  0  0  0  0
 21 14  1  0  0  0  0
 23 27  1  0  0  0  0
 23 30  2  0  0  0  0
 24 23  1  0  0  0  0
 25 28  1  6  0  0  0
 25 29  1  0  0  0  0
 27 26  2  0  0  0  0
 29 26  1  6  0  0  0
 29  6  1  0  0  0  0
 30 25  1  0  0  0  0
 31 30  1  0  0  0  0
 31 32  2  0  0  0  0
 33 34  1  0  0  0  0
 33 31  1  0  0  0  0
M  END
>  <MODEL>
1

>  <REMARK>
 VINA RESULT:      -8.5      0.000      0.000
  Name = 
  4 active torsions:
  status: ('A' for Active; 'I' for Inactive)
    1  A    between atoms: O_9  and  C_15
    2  A    between atoms: C_15  and  C_30
    3  A    between atoms: C_17  and  C_27
    4  A    between atoms: C_24  and  C_25
                            x       y       z     vdW  Elec       q    Type
                         _______ _______ _______ _____ _____    ______ ____

>  <TORSDO>
F 4

$$$$
=
 OpenBabel11062415383D

 34 38  0  0  1  0  0  0  0  0999 V2000
  188.5600  178.0850  142.0570 C   0  0  0  0  0  0  0  0  0  0  0  0
  189.2200  176.8360  146.0020 O   0  0  0  0  0  1  0  0  0  0  0  0
  186.9350  178.9070  140.3880 N   0  0  0  0  0  0  0  0  0  0  0  0
  190.0830  177.5950  143.8810 C   0  0  0  0  0  3  0  0  0  0  0  0
  187.6960  177.3430  144.2020 C   0  0  0  0  0  3  0  0  0  0  0  0
  188.3130  178.4400  140.6060 C   0  0  2  0  0  3  0  0  0  0  0  0
  189.0000  177.2540  144.6960 C   0  0  0  0  0  0  0  0  0  0  0  0
  185.9290  178.6170  141.1630 C   0  0  0  0  0  0  0  0  0  0  0  0
  189.8640  178.0070  142.5620 C   0  0  0  0  0  3  0  0  0  0  0  0
  187.4750  177.7610  142.8870 C   0  0  0  0  0  0  0  0  0  0  0  0
  186.1450  177.9470  142.4070 N   0  0  0  0  0  2  0  0  0  0  0  0
  181.3170  178.9690  137.6750 C   0  0  0  0  0  3  0  0  0  0  0  0
  181.9670  179.1680  138.8950 C   0  0  0  0  0  0  0  0  0  0  0  0
  182.1240  178.7100  141.3880 C   0  0  0  0  0  2  0  0  0  0  0  0
  180.1820  178.1590  137.6230 C   0  0  0  0  0  3  0  0  0  0  0  0
  184.4190  179.2180  139.2970 C   0  0  0  0  0  2  0  0  0  0  0  0
  183.1870  180.0330  138.9280 C   0  0  0  0  0  2  0  0  0  0  0  0
  179.7150  177.5660  138.7550 N   0  0  0  0  0  0  0  0  0  0  0  0
  184.5480  179.0650  140.8110 C   0  0  1  0  0  3  0  0  0  0  0  0
  181.4660  178.5460  140.0550 C   0  0  0  0  0  0  0  0  0  0  0  0
  183.5170  178.0960  141.3860 C   0  0  0  0  0  2  0  0  0  0  0  0
  180.3290  177.7410  139.9550 C   0  0  0  0  0  3  0  0  0  0  0  0
  189.1340  175.7110  137.3430 C   0  0  0  0  0  0  0  0  0  0  0  0
  189.2750  174.7320  136.3650 O   0  0  0  0  0  1  0  0  0  0  0  0
  190.0000  177.2870  139.0380 C   0  0  1  0  0  3  0  0  0  0  0  0
  187.5430  177.0430  138.6370 C   0  0  0  0  0  3  0  0  0  0  0  0
  187.7930  176.2920  137.5630 C   0  0  0  0  0  3  0  0  0  0  0  0
  190.1830  178.4950  138.3600 O   0  0  0  0  0  1  0  0  0  0  0  0
  188.6050  177.2350  139.6900 C   0  0  2  0  0  3  0  0  0  0  0  0
  190.1900  176.1370  138.0760 C   0  0  0  0  0  0  0  0  0  0  0  0
  191.5560  175.5860  137.9200 C   0  0  0  0  0  0  0  0  0  0  0  0
  191.7680  174.3440  137.9790 O   0  0  0  0  0  0  0  0  0  0  0  0
  192.6230  176.4650  137.7130 O   0  0  0  0  0  0  0  0  0  0  0  0
  193.5320  176.3030  136.6340 C   0  0  0  0  0  1  0  0  0  0  0  0
  1  9  2  0  0  0  0
  1 10  1  0  0  0  0
  3  8  2  0  0  0  0
  4  7  2  0  0  0  0
  5  7  1  0  0  0  0
  6  3  1  1  0  0  0
  6  1  1  0  0  0  0
  7  2  1  0  0  0  0
  8 11  1  0  0  0  0
  9  4  1  0  0  0  0
 10  5  2  0  0  0  0
 11 10  1  0  0  0  0
 12 13  1  0  0  0  0
 13 17  1  0  0  0  0
 13 20  2  0  0  0  0
 15 12  2  0  0  0  0
 15 18  1  0  0  0  0
 16 19  1  0  0  0  0
 17 16  1  0  0  0  0
 18 22  2  0  0  0  0
 19  8  1  6  0  0  0
 19 21  1  0  0  0  0
 20 14  1  0  0  0  0
 21 14  1  0  0  0  0
 22 20  1  0  0  0  0
 23 27  1  0  0  0  0
 23 30  2  0  0  0  0
 24 23  1  0  0  0  0
 25 28  1  6  0  0  0
 25 29  1  0  0  0  0
 27 26  2  0  0  0  0
 29 26  1  6  0  0  0
 29  6  1  0  0  0  0
 30 25  1  0  0  0  0
 31 32  2  0  0  0  0
 31 30  1  0  0  0  0
 33 31  1  0  0  0  0
 34 33  1  0  0  0  0
M  END
>  <MODEL>
2

>  <REMARK>
 VINA RESULT:      -7.8      1.470      1.880
  Name = 
  4 active torsions:
  status: ('A' for Active; 'I' for Inactive)
    1  A    between atoms: O_9  and  C_15
    2  A    between atoms: C_15  and  C_30
    3  A    between atoms: C_17  and  C_27
    4  A    between atoms: C_24  and  C_25
                            x       y       z     vdW  Elec       q    Type
                         _______ _______ _______ _____ _____    ______ ____

>  <TORSDO>
F 4

$$$$
=
 OpenBabel11062415383D

 34 38  0  0  1  0  0  0  0  0999 V2000
  189.8970  176.9400  137.7870 C   0  0  0  0  0  0  0  0  0  0  0  0
  192.3830  173.8550  136.4230 O   0  0  0  0  0  1  0  0  0  0  0  0
  189.2020  178.3530  139.6900 N   0  0  0  0  0  0  0  0  0  0  0  0
  190.9140  175.7110  135.9580 C   0  0  0  0  0  3  0  0  0  0  0  0
  191.3950  175.0840  138.2470 C   0  0  0  0  0  3  0  0  0  0  0  0
  188.9260  177.9860  138.2920 C   0  0  2  0  0  3  0  0  0  0  0  0
  191.5630  174.8800  136.8750 C   0  0  0  0  0  0  0  0  0  0  0  0
  189.8340  177.5930  140.5390 C   0  0  0  0  0  0  0  0  0  0  0  0
  190.0810  176.7380  136.4130 C   0  0  0  0  0  3  0  0  0  0  0  0
  190.5670  176.1140  138.7030 C   0  0  0  0  0  0  0  0  0  0  0  0
  190.4670  176.3900  140.0980 N   0  0  0  0  0  2  0  0  0  0  0  0
  188.8930  177.0980  146.2340 C   0  0  0  0  0  3  0  0  0  0  0  0
  189.5280  177.6650  145.1260 C   0  0  0  0  0  0  0  0  0  0  0  0
  191.6640  178.1420  143.8380 C   0  0  0  0  0  2  0  0  0  0  0  0
  189.6540  176.4420  147.2020 C   0  0  0  0  0  3  0  0  0  0  0  0
  188.7540  177.6140  142.7650 C   0  0  0  0  0  2  0  0  0  0  0  0
  188.6940  178.3550  144.0930 C   0  0  0  0  0  2  0  0  0  0  0  0
  191.0040  176.3570  147.0670 N   0  0  0  0  0  0  0  0  0  0  0  0
  189.9900  178.0160  141.9630 C   0  0  1  0  0  3  0  0  0  0  0  0
  190.9270  177.5650  145.0050 C   0  0  0  0  0  0  0  0  0  0  0  0
  191.2760  177.4340  142.5480 C   0  0  0  0  0  2  0  0  0  0  0  0
  191.6480  176.8980  145.9980 C   0  0  0  0  0  3  0  0  0  0  0  0
  184.6750  177.4870  137.6230 C   0  0  0  0  0  0  0  0  0  0  0  0
  183.3060  177.2480  137.5640 O   0  0  0  0  0  1  0  0  0  0  0  0
  186.9700  177.4480  136.7060 C   0  0  1  0  0  3  0  0  0  0  0  0
  186.5170  178.2840  139.0200 C   0  0  0  0  0  3  0  0  0  0  0  0
  185.2060  178.2370  138.7800 C   0  0  0  0  0  3  0  0  0  0  0  0
  187.1410  178.6900  136.0870 O   0  0  0  0  0  1  0  0  0  0  0  0
  187.4720  177.4930  138.1610 C   0  0  2  0  0  3  0  0  0  0  0  0
  185.5110  177.0550  136.6490 C   0  0  0  0  0  0  0  0  0  0  0  0
  185.0500  176.2830  135.4720 C   0  0  0  0  0  0  0  0  0  0  0  0
  184.3130  176.8120  134.5960 O   0  0  0  0  0  0  0  0  0  0  0  0
  185.4350  174.9450  135.3430 O   0  0  0  0  0  0  0  0  0  0  0  0
  184.8680  173.9200  136.1450 C   0  0  0  0  0  1  0  0  0  0  0  0
  1 10  1  0  0  0  0
  2  7  1  0  0  0  0
  3  8  2  0  0  0  0
  4  9  1  0  0  0  0
  4  7  2  0  0  0  0
  5 10  2  0  0  0  0
  6  1  1  1  0  0  0
  6  3  1  0  0  0  0
  7  5  1  0  0  0  0
  9  1  2  0  0  0  0
 10 11  1  0  0  0  0
 11  8  1  0  0  0  0
 12 15  1  0  0  0  0
 13 12  2  0  0  0  0
 14 20  1  0  0  0  0
 16 17  1  0  0  0  0
 17 13  1  0  0  0  0
 18 15  2  0  0  0  0
 19  8  1  6  0  0  0
 19 21  1  0  0  0  0
 19 16  1  0  0  0  0
 20 13  1  0  0  0  0
 20 22  2  0  0  0  0
 21 14  1  0  0  0  0
 22 18  1  0  0  0  0
 23 27  1  0  0  0  0
 24 23  1  0  0  0  0
 25 28  1  1  0  0  0
 25 29  1  0  0  0  0
 27 26  2  0  0  0  0
 29  6  1  0  0  0  0
 29 26  1  1  0  0  0
 30 25  1  0  0  0  0
 30 23  2  0  0  0  0
 31 30  1  0  0  0  0
 32 31  2  0  0  0  0
 33 31  1  0  0  0  0
 33 34  1  0  0  0  0
M  END
>  <MODEL>
3

>  <REMARK>
 VINA RESULT:      -7.8      3.970      6.944
  Name = 
  4 active torsions:
  status: ('A' for Active; 'I' for Inactive)
    1  A    between atoms: O_9  and  C_15
    2  A    between atoms: C_15  and  C_30
    3  A    between atoms: C_17  and  C_27
    4  A    between atoms: C_24  and  C_25
                            x       y       z     vdW  Elec       q    Type
                         _______ _______ _______ _____ _____    ______ ____

>  <TORSDO>
F 4

$$$$
=
 OpenBabel11062415383D

 34 38  0  0  1  0  0  0  0  0999 V2000
  187.8020  178.0400  138.9660 C   0  0  0  0  0  0  0  0  0  0  0  0
  189.6930  175.5170  136.2060 O   0  0  0  0  0  1  0  0  0  0  0  0
  187.7940  178.9730  141.2520 N   0  0  0  0  0  0  0  0  0  0  0  0
  188.1370  177.2980  136.6800 C   0  0  0  0  0  3  0  0  0  0  0  0
  189.3840  176.2620  138.4790 C   0  0  0  0  0  3  0  0  0  0  0  0
  187.0550  178.8750  139.9830 C   0  0  2  0  0  3  0  0  0  0  0  0
  189.0700  176.3560  137.1200 C   0  0  0  0  0  0  0  0  0  0  0  0
  188.6870  178.1130  141.6520 C   0  0  0  0  0  0  0  0  0  0  0  0
  187.5020  178.1370  137.6000 C   0  0  0  0  0  3  0  0  0  0  0  0
  188.7550  177.1050  139.3990 C   0  0  0  0  0  0  0  0  0  0  0  0
  189.1400  177.0820  140.7720 N   0  0  0  0  0  2  0  0  0  0  0  0
  189.5570  176.5510  147.1630 C   0  0  0  0  0  3  0  0  0  0  0  0
  189.8550  177.3060  146.0260 C   0  0  0  0  0  0  0  0  0  0  0  0
  191.5060  177.9710  144.2140 C   0  0  0  0  0  2  0  0  0  0  0  0
  190.5260  175.7040  147.6990 C   0  0  0  0  0  3  0  0  0  0  0  0
  188.3720  177.7310  144.0760 C   0  0  0  0  0  2  0  0  0  0  0  0
  188.7990  178.2030  145.4590 C   0  0  0  0  0  2  0  0  0  0  0  0
  191.7520  175.6130  147.1180 N   0  0  0  0  0  0  0  0  0  0  0  0
  189.3200  178.2500  142.9980 C   0  0  1  0  0  3  0  0  0  0  0  0
  191.1300  177.1980  145.4380 C   0  0  0  0  0  0  0  0  0  0  0  0
  190.6700  177.5340  143.0190 C   0  0  0  0  0  2  0  0  0  0  0  0
  192.0680  176.3340  146.0090 C   0  0  0  0  0  3  0  0  0  0  0  0
  182.8660  178.1660  140.8280 C   0  0  0  0  0  0  0  0  0  0  0  0
  181.5760  177.8120  141.2070 O   0  0  0  0  0  1  0  0  0  0  0  0
  184.6190  178.6940  139.1680 C   0  0  1  0  0  3  0  0  0  0  0  0
  185.1320  178.6410  141.6160 C   0  0  0  0  0  3  0  0  0  0  0  0
  183.8300  178.5340  141.8860 C   0  0  0  0  0  3  0  0  0  0  0  0
  184.5760  180.0820  139.0140 O   0  0  0  0  0  1  0  0  0  0  0  0
  185.6500  178.2980  140.2420 C   0  0  2  0  0  3  0  0  0  0  0  0
  183.2420  178.1840  139.5270 C   0  0  0  0  0  0  0  0  0  0  0  0
  182.3340  177.8110  138.4190 C   0  0  0  0  0  0  0  0  0  0  0  0
  181.8410  178.6870  137.6580 O   0  0  0  0  0  0  0  0  0  0  0  0
  182.0160  176.4630  138.2250 O   0  0  0  0  0  0  0  0  0  0  0  0
  183.0140  175.4540  138.1800 C   0  0  0  0  0  1  0  0  0  0  0  0
  1 10  1  0  0  0  0
  2  7  1  0  0  0  0
  3  8  2  0  0  0  0
  4  7  2  0  0  0  0
  4  9  1  0  0  0  0
  5 10  2  0  0  0  0
  6  1  1  6  0  0  0
  6 29  1  0  0  0  0
  6  3  1  0  0  0  0
  7  5  1  0  0  0  0
  9  1  2  0  0  0  0
 10 11  1  0  0  0  0
 11  8  1  0  0  0  0
 12 15  1  0  0  0  0
 13 12  2  0  0  0  0
 14 20  1  0  0  0  0
 16 17  1  0  0  0  0
 17 13  1  0  0  0  0
 18 15  2  0  0  0  0
 19  8  1  6  0  0  0
 19 21  1  0  0  0  0
 19 16  1  0  0  0  0
 20 22  2  0  0  0  0
 20 13  1  0  0  0  0
 21 14  1  0  0  0  0
 22 18  1  0  0  0  0
 23 24  1  0  0  0  0
 23 27  1  0  0  0  0
 25 28  1  1  0  0  0
 25 30  1  0  0  0  0
 25 29  1  0  0  0  0
 26 27  2  0  0  0  0
 29 26  1  1  0  0  0
 30 23  2  0  0  0  0
 31 30  1  0  0  0  0
 32 31  2  0  0  0  0
 33 31  1  0  0  0  0
 34 33  1  0  0  0  0
M  END
>  <MODEL>
4

>  <REMARK>
 VINA RESULT:      -7.7      3.241      7.659
  Name = 
  4 active torsions:
  status: ('A' for Active; 'I' for Inactive)
    1  A    between atoms: O_9  and  C_15
    2  A    between atoms: C_15  and  C_30
    3  A    between atoms: C_17  and  C_27
    4  A    between atoms: C_24  and  C_25
                            x       y       z     vdW  Elec       q    Type
                         _______ _______ _______ _____ _____    ______ ____

>  <TORSDO>
F 4

$$$$
=
 OpenBabel11062415383D

 34 38  0  0  1  0  0  0  0  0999 V2000
  187.5910  177.3710  142.3510 C   0  0  0  0  0  0  0  0  0  0  0  0
  191.1330  177.6100  140.1240 O   0  0  0  0  0  1  0  0  0  0  0  0
  185.1700  177.8510  142.4520 N   0  0  0  0  0  0  0  0  0  0  0  0
  189.8840  176.6770  141.9650 C   0  0  0  0  0  3  0  0  0  0  0  0
  188.8470  178.2900  140.4860 C   0  0  0  0  0  3  0  0  0  0  0  0
  186.3400  177.3680  143.2030 C   0  0  2  0  0  3  0  0  0  0  0  0
  189.9580  177.5280  140.8590 C   0  0  0  0  0  0  0  0  0  0  0  0
  185.2370  178.6190  141.4020 C   0  0  0  0  0  0  0  0  0  0  0  0
  188.7040  176.6000  142.7120 C   0  0  0  0  0  3  0  0  0  0  0  0
  187.6650  178.2090  141.2280 C   0  0  0  0  0  0  0  0  0  0  0  0
  186.4990  178.9080  140.7970 N   0  0  0  0  0  2  0  0  0  0  0  0
  181.4830  179.1010  137.0150 C   0  0  0  0  0  3  0  0  0  0  0  0
  181.8750  179.3060  138.3400 C   0  0  0  0  0  0  0  0  0  0  0  0
  181.4810  178.9240  140.8200 C   0  0  0  0  0  2  0  0  0  0  0  0
  180.3380  178.3510  136.7440 C   0  0  0  0  0  3  0  0  0  0  0  0
  184.1890  179.2380  139.2470 C   0  0  0  0  0  2  0  0  0  0  0  0
  183.1110  180.1050  138.6100 C   0  0  0  0  0  2  0  0  0  0  0  0
  179.6110  177.8230  137.7640 N   0  0  0  0  0  0  0  0  0  0  0  0
  183.9890  179.1300  140.7570 C   0  0  1  0  0  3  0  0  0  0  0  0
  181.1080  178.7510  139.3820 C   0  0  0  0  0  0  0  0  0  0  0  0
  182.8050  178.2360  141.1240 C   0  0  0  0  0  2  0  0  0  0  0  0
  179.9710  178.0050  139.0630 C   0  0  0  0  0  3  0  0  0  0  0  0
  186.1900  179.2430  147.1060 C   0  0  0  0  0  0  0  0  0  0  0  0
  186.1470  179.9960  148.2740 O   0  0  0  0  0  1  0  0  0  0  0  0
  187.0640  177.4280  145.6740 C   0  0  1  0  0  3  0  0  0  0  0  0
  185.2880  178.9840  144.8480 C   0  0  0  0  0  3  0  0  0  0  0  0
  185.1600  179.4890  146.0760 C   0  0  0  0  0  3  0  0  0  0  0  0
  186.2450  176.3260  145.9320 O   0  0  0  0  0  1  0  0  0  0  0  0
  186.5360  178.2270  144.4680 C   0  0  2  0  0  3  0  0  0  0  0  0
  187.1400  178.2980  146.9080 C   0  0  0  0  0  0  0  0  0  0  0  0
  188.2120  178.0120  147.8890 C   0  0  0  0  0  0  0  0  0  0  0  0
  187.9400  177.7680  149.0960 O   0  0  0  0  0  0  0  0  0  0  0  0
  189.5440  178.0220  147.4640 O   0  0  0  0  0  0  0  0  0  0  0  0
  190.2730  176.8240  147.2460 C   0  0  0  0  0  1  0  0  0  0  0  0
  1  9  1  0  0  0  0
  2  7  1  0  0  0  0
  3  6  1  0  0  0  0
  4  9  2  0  0  0  0
  5  7  2  0  0  0  0
  5 10  1  0  0  0  0
  6  1  1  6  0  0  0
  6 29  1  0  0  0  0
  7  4  1  0  0  0  0
  8  3  2  0  0  0  0
 10  1  2  0  0  0  0
 11 10  1  0  0  0  0
 11  8  1  0  0  0  0
 12 13  1  0  0  0  0
 13 17  1  0  0  0  0
 13 20  2  0  0  0  0
 14 21  1  0  0  0  0
 15 12  2  0  0  0  0
 15 18  1  0  0  0  0
 16 19  1  0  0  0  0
 17 16  1  0  0  0  0
 18 22  2  0  0  0  0
 19 21  1  0  0  0  0
 19  8  1  1  0  0  0
 20 14  1  0  0  0  0
 22 20  1  0  0  0  0
 23 24  1  0  0  0  0
 25 28  1  1  0  0  0
 25 30  1  0  0  0  0
 26 27  2  0  0  0  0
 27 23  1  0  0  0  0
 29 26  1  1  0  0  0
 29 25  1  0  0  0  0
 30 23  2  0  0  0  0
 30 31  1  0  0  0  0
 31 32  2  0  0  0  0
 33 31  1  0  0  0  0
 34 33  1  0  0  0  0
M  END
>  <MODEL>
5

>  <REMARK>
 VINA RESULT:      -7.5      2.804      6.419
  Name = 
  4 active torsions:
  status: ('A' for Active; 'I' for Inactive)
    1  A    between atoms: O_9  and  C_15
    2  A    between atoms: C_15  and  C_30
    3  A    between atoms: C_17  and  C_27
    4  A    between atoms: C_24  and  C_25
                            x       y       z     vdW  Elec       q    Type
                         _______ _______ _______ _____ _____    ______ ____

>  <TORSDO>
F 4

$$$$
=
 OpenBabel11062415383D

 34 38  0  0  1  0  0  0  0  0999 V2000
  187.8070  178.3180  142.1680 C   0  0  0  0  0  0  0  0  0  0  0  0
  189.8180  177.1400  145.6510 O   0  0  0  0  0  1  0  0  0  0  0  0
  185.6340  178.6740  141.0500 N   0  0  0  0  0  0  0  0  0  0  0  0
  189.8330  178.2360  143.5020 C   0  0  0  0  0  3  0  0  0  0  0  0
  187.7940  177.2350  144.3420 C   0  0  0  0  0  3  0  0  0  0  0  0
  187.0950  178.6500  140.8750 C   0  0  2  0  0  3  0  0  0  0  0  0
  189.1500  177.5340  144.4990 C   0  0  0  0  0  0  0  0  0  0  0  0
  184.9970  178.0450  141.9970 C   0  0  0  0  0  0  0  0  0  0  0  0
  189.1640  178.6260  142.3370 C   0  0  0  0  0  3  0  0  0  0  0  0
  187.1230  177.6300  143.1820 C   0  0  0  0  0  0  0  0  0  0  0  0
  185.7190  177.4150  143.0580 N   0  0  0  0  0  2  0  0  0  0  0  0
  179.8480  180.5830  142.7770 C   0  0  0  0  0  3  0  0  0  0  0  0
  180.6560  179.5120  142.3890 C   0  0  0  0  0  0  0  0  0  0  0  0
  181.4600  177.9240  140.5780 C   0  0  0  0  0  2  0  0  0  0  0  0
  179.0070  181.1850  141.8400 C   0  0  0  0  0  3  0  0  0  0  0  0
  183.0200  179.1050  143.0420 C   0  0  0  0  0  2  0  0  0  0  0  0
  181.5580  178.8850  143.4060 C   0  0  0  0  0  2  0  0  0  0  0  0
  178.9780  180.7310  140.5580 N   0  0  0  0  0  0  0  0  0  0  0  0
  183.5030  178.0570  142.0420 C   0  0  1  0  0  3  0  0  0  0  0  0
  180.6110  179.0580  141.0570 C   0  0  0  0  0  0  0  0  0  0  0  0
  182.9380  178.2870  140.6410 C   0  0  0  0  0  2  0  0  0  0  0  0
  179.7560  179.6930  140.1530 C   0  0  0  0  0  3  0  0  0  0  0  0
  188.2720  176.6090  137.2400 C   0  0  0  0  0  0  0  0  0  0  0  0
  188.5150  175.8470  136.1020 O   0  0  0  0  0  1  0  0  0  0  0  0
  188.9450  177.7360  139.3340 C   0  0  1  0  0  3  0  0  0  0  0  0
  186.5630  177.7480  138.5670 C   0  0  0  0  0  3  0  0  0  0  0  0
  186.9370  177.2210  137.4000 C   0  0  0  0  0  3  0  0  0  0  0  0
  189.2700  179.0430  138.9620 O   0  0  0  0  0  1  0  0  0  0  0  0
  187.4690  177.6450  139.7680 C   0  0  2  0  0  3  0  0  0  0  0  0
  189.2270  176.8000  138.1810 C   0  0  0  0  0  0  0  0  0  0  0  0
  190.5790  176.2030  138.0920 C   0  0  0  0  0  0  0  0  0  0  0  0
  190.7550  174.9650  138.2570 O   0  0  0  0  0  0  0  0  0  0  0  0
  191.6730  177.0320  137.8310 O   0  0  0  0  0  0  0  0  0  0  0  0
  192.9940  176.5230  137.7180 C   0  0  0  0  0  1  0  0  0  0  0  0
  1  9  2  0  0  0  0
  1 10  1  0  0  0  0
  3  8  2  0  0  0  0
  4  7  2  0  0  0  0
  5  7  1  0  0  0  0
  6  3  1  1  0  0  0
  6  1  1  0  0  0  0
  7  2  1  0  0  0  0
  8 11  1  0  0  0  0
  9  4  1  0  0  0  0
 10  5  2  0  0  0  0
 11 10  1  0  0  0  0
 13 12  1  0  0  0  0
 13 17  1  0  0  0  0
 14 21  1  0  0  0  0
 14 20  1  0  0  0  0
 15 12  2  0  0  0  0
 16 17  1  0  0  0  0
 18 15  1  0  0  0  0
 19  8  1  6  0  0  0
 19 16  1  0  0  0  0
 20 13  2  0  0  0  0
 21 19  1  0  0  0  0
 22 18  2  0  0  0  0
 22 20  1  0  0  0  0
 23 27  1  0  0  0  0
 23 30  2  0  0  0  0
 24 23  1  0  0  0  0
 25 28  1  6  0  0  0
 25 29  1  0  0  0  0
 27 26  2  0  0  0  0
 29 26  1  6  0  0  0
 29  6  1  0  0  0  0
 30 25  1  0  0  0  0
 31 30  1  0  0  0  0
 31 32  2  0  0  0  0
 33 31  1  0  0  0  0
 34 33  1  0  0  0  0
M  END
>  <MODEL>
6

>  <REMARK>
 VINA RESULT:      -7.5      1.426      1.951
  Name = 
  4 active torsions:
  status: ('A' for Active; 'I' for Inactive)
    1  A    between atoms: O_9  and  C_15
    2  A    between atoms: C_15  and  C_30
    3  A    between atoms: C_17  and  C_27
    4  A    between atoms: C_24  and  C_25
                            x       y       z     vdW  Elec       q    Type
                         _______ _______ _______ _____ _____    ______ ____

>  <TORSDO>
F 4

$$$$
=
 OpenBabel11062415383D

 34 38  0  0  1  0  0  0  0  0999 V2000
  188.5310  176.8900  143.1290 C   0  0  0  0  0  0  0  0  0  0  0  0
  191.3240  177.2610  140.0270 O   0  0  0  0  0  1  0  0  0  0  0  0
  186.2510  177.3930  143.9360 N   0  0  0  0  0  0  0  0  0  0  0  0
  190.6010  176.1990  142.0690 C   0  0  0  0  0  3  0  0  0  0  0  0
  189.2530  177.9400  141.0610 C   0  0  0  0  0  3  0  0  0  0  0  0
  187.5650  176.8360  144.2930 C   0  0  2  0  0  3  0  0  0  0  0  0
  190.3960  177.1360  141.0520 C   0  0  0  0  0  0  0  0  0  0  0  0
  186.0520  178.2430  142.9680 C   0  0  0  0  0  0  0  0  0  0  0  0
  189.6720  176.0780  143.1070 C   0  0  0  0  0  3  0  0  0  0  0  0
  188.3200  177.8150  142.0940 C   0  0  0  0  0  0  0  0  0  0  0  0
  187.1070  178.5620  142.0590 N   0  0  0  0  0  2  0  0  0  0  0  0
  180.5900  178.0550  141.0440 C   0  0  0  0  0  3  0  0  0  0  0  0
  181.6390  178.6580  141.7440 C   0  0  0  0  0  0  0  0  0  0  0  0
  182.5930  179.5260  143.9310 C   0  0  0  0  0  2  0  0  0  0  0  0
  179.4250  177.7000  141.7230 C   0  0  0  0  0  3  0  0  0  0  0  0
  184.0690  178.2020  141.4880 C   0  0  0  0  0  2  0  0  0  0  0  0
  182.8840  179.0240  141.0000 C   0  0  0  0  0  2  0  0  0  0  0  0
  179.3120  177.9380  143.0570 N   0  0  0  0  0  0  0  0  0  0  0  0
  184.6930  178.8210  142.7370 C   0  0  1  0  0  3  0  0  0  0  0  0
  181.5020  178.8950  143.1250 C   0  0  0  0  0  0  0  0  0  0  0  0
  183.8220  178.6290  143.9770 C   0  0  0  0  0  2  0  0  0  0  0  0
  180.3180  178.5200  143.7630 C   0  0  0  0  0  3  0  0  0  0  0  0
  188.8160  178.2070  148.2080 C   0  0  0  0  0  0  0  0  0  0  0  0
  189.1540  178.8030  149.4180 O   0  0  0  0  0  1  0  0  0  0  0  0
  189.2940  176.8440  146.2020 C   0  0  1  0  0  3  0  0  0  0  0  0
  187.0670  177.9400  146.5190 C   0  0  0  0  0  3  0  0  0  0  0  0
  187.4070  178.2680  147.7670 C   0  0  0  0  0  3  0  0  0  0  0  0
  188.9130  175.5420  146.5410 O   0  0  0  0  0  1  0  0  0  0  0  0
  188.1340  177.5870  145.5130 C   0  0  2  0  0  3  0  0  0  0  0  0
  189.7420  177.5770  147.4460 C   0  0  0  0  0  0  0  0  0  0  0  0
  191.1730  177.4930  147.8190 C   0  0  0  0  0  0  0  0  0  0  0  0
  191.6140  178.0820  148.8430 O   0  0  0  0  0  0  0  0  0  0  0  0
  192.0430  176.7540  147.0120 O   0  0  0  0  0  0  0  0  0  0  0  0
  192.4310  175.4280  147.3410 C   0  0  0  0  0  1  0  0  0  0  0  0
  2  7  1  0  0  0  0
  3  6  1  0  0  0  0
  4  9  2  0  0  0  0
  5 10  1  0  0  0  0
  6  1  1  6  0  0  0
  6 29  1  0  0  0  0
  7  5  2  0  0  0  0
  7  4  1  0  0  0  0
  8  3  2  0  0  0  0
  9  1  1  0  0  0  0
 10  1  2  0  0  0  0
 11 10  1  0  0  0  0
 11  8  1  0  0  0  0
 12 15  2  0  0  0  0
 12 13  1  0  0  0  0
 13 20  2  0  0  0  0
 14 21  1  0  0  0  0
 15 18  1  0  0  0  0
 16 19  1  0  0  0  0
 17 16  1  0  0  0  0
 17 13  1  0  0  0  0
 18 22  2  0  0  0  0
 19  8  1  1  0  0  0
 19 21  1  0  0  0  0
 20 22  1  0  0  0  0
 20 14  1  0  0  0  0
 23 24  1  0  0  0  0
 25 28  1  1  0  0  0
 25 30  1  0  0  0  0
 26 27  2  0  0  0  0
 27 23  1  0  0  0  0
 29 25  1  0  0  0  0
 29 26  1  1  0  0  0
 30 31  1  0  0  0  0
 30 23  2  0  0  0  0
 31 32  2  0  0  0  0
 33 34  1  0  0  0  0
 33 31  1  0  0  0  0
M  END
>  <MODEL>
7

>  <REMARK>
 VINA RESULT:      -7.2      2.286      6.118
  Name = 
  4 active torsions:
  status: ('A' for Active; 'I' for Inactive)
    1  A    between atoms: O_9  and  C_15
    2  A    between atoms: C_15  and  C_30
    3  A    between atoms: C_17  and  C_27
    4  A    between atoms: C_24  and  C_25
                            x       y       z     vdW  Elec       q    Type
                         _______ _______ _______ _____ _____    ______ ____

>  <TORSDO>
F 4

$$$$
=
 OpenBabel11062415383D

 34 38  0  0  1  0  0  0  0  0999 V2000
  187.7370  177.4640  138.3300 C   0  0  0  0  0  0  0  0  0  0  0  0
  184.1730  176.5000  136.3500 O   0  0  0  0  0  1  0  0  0  0  0  0
  190.1880  177.1800  138.4410 N   0  0  0  0  0  0  0  0  0  0  0  0
  185.3920  177.9010  137.8890 C   0  0  0  0  0  3  0  0  0  0  0  0
  186.5100  176.0710  136.7640 C   0  0  0  0  0  3  0  0  0  0  0  0
  189.0040  177.7400  139.1120 C   0  0  2  0  0  3  0  0  0  0  0  0
  185.3550  176.8220  137.0020 C   0  0  0  0  0  0  0  0  0  0  0  0
  190.1540  176.1940  137.5900 C   0  0  0  0  0  0  0  0  0  0  0  0
  186.5790  178.2210  138.5540 C   0  0  0  0  0  3  0  0  0  0  0  0
  187.6990  176.3940  137.4230 C   0  0  0  0  0  0  0  0  0  0  0  0
  188.9030  175.6950  137.1130 N   0  0  0  0  0  2  0  0  0  0  0  0
  195.6130  174.2940  137.9770 C   0  0  0  0  0  3  0  0  0  0  0  0
  194.4180  174.5000  137.2840 C   0  0  0  0  0  0  0  0  0  0  0  0
  192.4190  173.5470  136.0420 C   0  0  0  0  0  2  0  0  0  0  0  0
  196.0870  172.9940  138.1600 C   0  0  0  0  0  3  0  0  0  0  0  0
  192.6130  176.1110  137.8540 C   0  0  0  0  0  2  0  0  0  0  0  0
  193.9220  175.9000  137.1060 C   0  0  0  0  0  2  0  0  0  0  0  0
  195.3880  171.9370  137.6680 N   0  0  0  0  0  0  0  0  0  0  0  0
  191.4210  175.6370  137.0260 C   0  0  1  0  0  3  0  0  0  0  0  0
  193.7100  173.3920  136.7820 C   0  0  0  0  0  0  0  0  0  0  0  0
  191.3370  174.1130  136.9500 C   0  0  0  0  0  2  0  0  0  0  0  0
  194.2210  172.1090  136.9920 C   0  0  0  0  0  3  0  0  0  0  0  0
  189.2310  176.9120  143.3580 C   0  0  0  0  0  0  0  0  0  0  0  0
  189.3430  176.4830  144.6760 O   0  0  0  0  0  1  0  0  0  0  0  0
  188.0890  178.0690  141.4960 C   0  0  1  0  0  3  0  0  0  0  0  0
  190.2510  176.8630  141.1360 C   0  0  0  0  0  3  0  0  0  0  0  0
  190.3810  176.7030  142.4540 C   0  0  0  0  0  3  0  0  0  0  0  0
  188.5980  179.3710  141.5030 O   0  0  0  0  0  1  0  0  0  0  0  0
  188.9010  177.1730  140.5410 C   0  0  2  0  0  3  0  0  0  0  0  0
  188.1070  177.5160  142.9030 C   0  0  0  0  0  0  0  0  0  0  0  0
  186.9130  177.7410  143.7480 C   0  0  0  0  0  0  0  0  0  0  0  0
  185.7530  177.5060  143.3120 O   0  0  0  0  0  0  0  0  0  0  0  0
  187.0810  178.2320  145.0470 O   0  0  0  0  0  0  0  0  0  0  0  0
  186.3970  177.6720  146.1570 C   0  0  0  0  0  1  0  0  0  0  0  0
  1  9  1  0  0  0  0
  2  7  1  0  0  0  0
  3  6  1  0  0  0  0
  4  9  2  0  0  0  0
  5  7  2  0  0  0  0
  5 10  1  0  0  0  0
  6  1  1  6  0  0  0
  6 29  1  0  0  0  0
  7  4  1  0  0  0  0
  8  3  2  0  0  0  0
 10  1  2  0  0  0  0
 11 10  1  0  0  0  0
 11  8  1  0  0  0  0
 12 15  1  0  0  0  0
 13 12  2  0  0  0  0
 14 20  1  0  0  0  0
 14 21  1  0  0  0  0
 17 13  1  0  0  0  0
 17 16  1  0  0  0  0
 18 15  2  0  0  0  0
 19  8  1  1  0  0  0
 19 16  1  0  0  0  0
 20 22  2  0  0  0  0
 20 13  1  0  0  0  0
 21 19  1  0  0  0  0
 22 18  1  0  0  0  0
 23 24  1  0  0  0  0
 25 28  1  1  0  0  0
 25 30  1  0  0  0  0
 26 27  2  0  0  0  0
 27 23  1  0  0  0  0
 29 26  1  1  0  0  0
 29 25  1  0  0  0  0
 30 23  2  0  0  0  0
 30 31  1  0  0  0  0
 31 33  1  0  0  0  0
 32 31  2  0  0  0  0
 33 34  1  0  0  0  0
M  END
>  <MODEL>
8

>  <REMARK>
 VINA RESULT:      -7.0      4.077      9.767
  Name = 
  4 active torsions:
  status: ('A' for Active; 'I' for Inactive)
    1  A    between atoms: O_9  and  C_15
    2  A    between atoms: C_15  and  C_30
    3  A    between atoms: C_17  and  C_27
    4  A    between atoms: C_24  and  C_25
                            x       y       z     vdW  Elec       q    Type
                         _______ _______ _______ _____ _____    ______ ____

>  <TORSDO>
F 4

$$$$
=
 OpenBabel11062415383D

 34 38  0  0  1  0  0  0  0  0999 V2000
  187.8350  178.3180  139.6060 C   0  0  0  0  0  0  0  0  0  0  0  0
  190.7980  177.0560  136.9250 O   0  0  0  0  0  1  0  0  0  0  0  0
  186.9950  178.2930  141.9280 N   0  0  0  0  0  0  0  0  0  0  0  0
  188.9580  178.5200  137.4640 C   0  0  0  0  0  3  0  0  0  0  0  0
  189.7030  176.8630  139.0650 C   0  0  0  0  0  3  0  0  0  0  0  0
  186.7090  178.6980  140.5430 C   0  0  2  0  0  3  0  0  0  0  0  0
  189.8190  177.4770  137.8150 C   0  0  0  0  0  0  0  0  0  0  0  0
  187.8210  177.3410  142.2600 C   0  0  0  0  0  0  0  0  0  0  0  0
  187.9660  178.9390  138.3560 C   0  0  0  0  0  3  0  0  0  0  0  0
  188.7160  177.2850  139.9600 C   0  0  0  0  0  0  0  0  0  0  0  0
  188.6530  176.7300  141.2720 N   0  0  0  0  0  2  0  0  0  0  0  0
  190.0490  177.8800  147.5810 C   0  0  0  0  0  3  0  0  0  0  0  0
  189.1610  177.3210  146.6590 C   0  0  0  0  0  0  0  0  0  0  0  0
  186.7740  176.9030  145.9000 C   0  0  0  0  0  2  0  0  0  0  0  0
  189.5490  178.5750  148.6830 C   0  0  0  0  0  3  0  0  0  0  0  0
  189.3790  177.3120  144.1830 C   0  0  0  0  0  2  0  0  0  0  0  0
  189.7150  176.5870  145.4790 C   0  0  0  0  0  2  0  0  0  0  0  0
  188.2070  178.7070  148.8560 N   0  0  0  0  0  0  0  0  0  0  0  0
  187.9810  176.9430  143.6920 C   0  0  1  0  0  3  0  0  0  0  0  0
  187.7740  177.4680  146.8570 C   0  0  0  0  0  0  0  0  0  0  0  0
  186.8800  177.5790  144.5400 C   0  0  0  0  0  2  0  0  0  0  0  0
  187.3200  178.1750  147.9730 C   0  0  0  0  0  3  0  0  0  0  0  0
  182.6050  177.7770  139.5040 C   0  0  0  0  0  0  0  0  0  0  0  0
  181.3120  177.3290  139.2520 O   0  0  0  0  0  1  0  0  0  0  0  0
  184.7760  178.7570  138.8420 C   0  0  1  0  0  3  0  0  0  0  0  0
  184.3590  178.0070  141.1920 C   0  0  0  0  0  3  0  0  0  0  0  0
  183.0680  177.8270  140.9060 C   0  0  0  0  0  3  0  0  0  0  0  0
  184.6400  180.1320  139.0570 O   0  0  0  0  0  1  0  0  0  0  0  0
  185.3780  178.0710  140.0830 C   0  0  2  0  0  3  0  0  0  0  0  0
  183.4270  178.1670  138.5000 C   0  0  0  0  0  0  0  0  0  0  0  0
  183.0340  178.1260  137.0730 C   0  0  0  0  0  0  0  0  0  0  0  0
  182.0570  178.8010  136.6470 O   0  0  0  0  0  0  0  0  0  0  0  0
  183.7570  177.3160  136.1920 O   0  0  0  0  0  0  0  0  0  0  0  0
  183.1160  176.4990  135.2230 C   0  0  0  0  0  1  0  0  0  0  0  0
  1 10  1  0  0  0  0
  2  7  1  0  0  0  0
  3  8  2  0  0  0  0
  4  7  2  0  0  0  0
  4  9  1  0  0  0  0
  5 10  2  0  0  0  0
  6  1  1  6  0  0  0
  6  3  1  0  0  0  0
  7  5  1  0  0  0  0
  9  1  2  0  0  0  0
 10 11  1  0  0  0  0
 11  8  1  0  0  0  0
 12 15  1  0  0  0  0
 13 20  1  0  0  0  0
 13 12  2  0  0  0  0
 14 20  1  0  0  0  0
 15 18  2  0  0  0  0
 16 17  1  0  0  0  0
 17 13  1  0  0  0  0
 19  8  1  6  0  0  0
 19 16  1  0  0  0  0
 19 21  1  0  0  0  0
 20 22  2  0  0  0  0
 21 14  1  0  0  0  0
 22 18  1  0  0  0  0
 23 27  1  0  0  0  0
 24 23  1  0  0  0  0
 25 28  1  1  0  0  0
 25 29  1  0  0  0  0
 27 26  2  0  0  0  0
 29  6  1  0  0  0  0
 29 26  1  1  0  0  0
 30 25  1  0  0  0  0
 30 23  2  0  0  0  0
 31 30  1  0  0  0  0
 32 31  2  0  0  0  0
 33 31  1  0  0  0  0
 34 33  1  0  0  0  0
M  END
>  <MODEL>
9

>  <REMARK>
 VINA RESULT:      -6.8      3.299      6.899
  Name = 
  4 active torsions:
  status: ('A' for Active; 'I' for Inactive)
    1  A    between atoms: O_9  and  C_15
    2  A    between atoms: C_15  and  C_30
    3  A    between atoms: C_17  and  C_27
    4  A    between atoms: C_24  and  C_25
                            x       y       z     vdW  Elec       q    Type
                         _______ _______ _______ _____ _____    ______ ____

>  <TORSDO>
F 4

$$$$
