=
 OpenBabel11062416093D

 59 65  0  0  1  0  0  0  0  0999 V2000
  183.8390  175.8870  138.2240 O   0  0  0  0  0  0  0  0  0  0  0  0
  184.8830  171.1030  134.9540 C   0  0  2  0  0  3  0  0  0  0  0  0
  182.3960  175.2510  135.6900 C   0  0  0  0  0  0  0  0  0  0  0  0
  191.7470  175.9980  138.9010 C   0  0  0  0  0  1  0  0  0  0  0  0
  183.7990  174.7840  135.4050 C   0  0  2  0  0  3  0  0  0  0  0  0
  178.9300  176.3130  134.8270 C   0  0  0  0  0  1  0  0  0  0  0  0
  189.0240  176.9990  138.1200 C   0  0  0  0  0  3  0  0  0  0  0  0
  188.9200  172.7360  137.4330 O   0  0  0  0  0  0  0  0  0  0  0  0
  186.0270  175.3140  136.6750 C   0  0  0  0  0  2  0  0  0  0  0  0
  184.0040  170.4820  135.8450 O   0  0  0  0  0  1  0  0  0  0  0  0
  190.1460  172.8500  136.7760 C   0  0  0  0  0  0  0  0  0  0  0  0
  184.0380  173.3400  135.8210 C   0  0  0  0  0  2  0  0  0  0  0  0
  187.3880  177.3210  136.3790 O   0  0  0  0  0  0  0  0  0  0  0  0
  181.8260  175.5690  136.8590 C   0  0  2  0  0  3  0  0  0  0  0  0
  190.6690  171.8520  136.2060 O   0  0  0  0  0  0  0  0  0  0  0  0
  192.3920  176.1700  135.5640 C   0  0  0  0  0  2  0  0  0  0  0  0
  185.0180  175.7350  135.5930 C   0  0  2  0  0  3  0  0  0  0  0  0
  187.4210  175.9180  136.5500 C   0  0  1  0  0  3  0  0  0  0  0  0
  190.0820  176.9740  137.3010 C   0  0  0  0  0  3  0  0  0  0  0  0
  180.4890  175.9990  136.6680 N   0  0  0  0  0  0  0  0  0  0  0  0
  192.2870  174.4010  136.0060 P   0  0  2  0  0  0  0  0  0  0  0  0
  186.8990  172.1140  136.3150 C   0  0  1  0  0  3  0  0  0  0  0  0
  192.5520  177.1260  136.7580 C   0  0  1  0  0  3  0  0  0  0  0  0
  182.4550  175.6390  138.2290 C   0  0  0  0  0  2  0  0  0  0  0  0
  184.1210  177.2380  137.8940 C   0  0  1  0  0  3  0  0  0  0  0  0
  190.7430  174.1090  136.7070 O   0  0  0  0  0  0  0  0  0  0  0  0
  180.2450  175.9350  135.4040 C   0  0  0  0  0  0  0  0  0  0  0  0
  184.8030  177.1390  135.5120 O   0  0  0  0  0  0  0  0  0  0  0  0
  186.8680  169.7230  135.6270 F   0  0  0  0  0  0  0  0  0  0  0  0
  191.4730  177.0790  137.8580 C   0  0  2  0  0  3  0  0  0  0  0  0
  183.8470  177.6250  136.4360 C   0  0  0  0  0  2  0  0  0  0  0  0
  193.8410  177.0480  137.2920 O   0  0  0  0  0  1  0  0  0  0  0  0
  193.3850  174.0410  136.9790 O   0  0  0  0  0  1  0  0  0  0  0  0
  187.3140  171.9720  134.8530 C   0  0  0  0  0  2  0  0  0  0  0  0
  181.3950  175.4370  134.6030 C   0  0  0  0  0  3  0  0  0  0  0  0
  186.3330  170.9910  135.4600 C   0  0  1  0  0  0  0  0  0  0  0  0
  192.4770  173.4850  134.5940 O   0  0  0  0  0  0  0  0  0  0  0  0
  184.4030  172.5150  134.5940 C   0  0  0  0  0  2  0  0  0  0  0  0
  187.5880  176.8550  137.6910 C   0  0  1  0  0  3  0  0  0  0  0  0
  188.0350  171.6470  137.2110 C   0  0  0  0  0  2  0  0  0  0  0  0
  183.8640  178.3100  138.9740 C   0  0  1  0  0  3  0  0  0  0  0  0
  182.4390  178.9130  138.9660 C   0  0  1  0  0  3  0  0  0  0  0  0
  181.3690  177.6980  141.0910 C   0  0  1  0  0  3  0  0  0  0  0  0
  181.7370  178.9620  140.3120 C   0  0  2  0  0  3  0  0  0  0  0  0
  180.5930  179.9490  140.1490 C   0  0  2  0  0  0  0  0  0  0  0  0
  181.2790  181.0580  139.3530 C   0  0  1  0  0  3  0  0  0  0  0  0
  179.7500  179.1810  142.3900 C   0  0  0  0  0  2  0  0  0  0  0  0
  182.3760  180.3910  138.5090 C   0  0  1  0  0  3  0  0  0  0  0  0
  180.1810  180.3980  141.5510 C   0  0  0  0  0  2  0  0  0  0  0  0
  180.8640  178.1240  142.4760 C   0  0  0  0  0  2  0  0  0  0  0  0
  183.5780  181.0610  138.7550 O   0  0  0  0  0  1  0  0  0  0  0  0
  180.4100  176.9410  140.4340 F   0  0  0  0  0  0  0  0  0  0  0  0
  180.3720  181.9690  138.5740 C   0  0  0  0  0  0  0  0  0  0  0  0
  179.5160  182.6820  139.1620 O   0  0  0  0  0  0  0  0  0  0  0  0
  180.5060  182.0520  137.1620 N   0  0  0  0  0  1  0  0  0  0  0  0
  179.6770  178.8400  138.1630 O   0  0  0  0  0  1  0  0  0  0  0  0
  179.3580  179.3580  139.4220 C   0  0  0  0  0  2  0  0  0  0  0  0
  184.3160  177.7890  140.3420 C   0  0  0  0  0  2  0  0  0  0  0  0
  185.2230  178.7700  141.0690 C   0  0  0  0  0  1  0  0  0  0  0  0
  1 24  1  0  0  0  0
  2 36  1  0  0  0  0
  2 10  1  1  0  0  0
  3 14  1  0  0  0  0
  5 17  1  0  0  0  0
  5  3  1  0  0  0  0
  5 12  1  1  0  0  0
  6 27  1  0  0  0  0
 11  8  1  0  0  0  0
 13 18  1  0  0  0  0
 13 39  1  0  0  0  0
 14 24  1  6  0  0  0
 15 11  2  0  0  0  0
 16 21  1  0  0  0  0
 16 23  1  0  0  0  0
 17  9  1  1  0  0  0
 18  9  1  1  0  0  0
 18 39  1  0  0  0  0
 19 30  1  0  0  0  0
 19  7  2  0  0  0  0
 20 14  1  0  0  0  0
 21 37  2  6  0  0  0
 21 26  1  0  0  0  0
 21 33  1  0  0  0  0
 22 34  1  6  0  0  0
 22 40  1  0  0  0  0
 23 32  1  1  0  0  0
 23 30  1  0  0  0  0
 25  1  1  0  0  0  0
 25 41  1  1  0  0  0
 26 11  1  0  0  0  0
 27 20  2  0  0  0  0
 28 17  1  0  0  0  0
 28 31  1  0  0  0  0
 30  4  1  1  0  0  0
 31 25  1  0  0  0  0
 34 36  1  0  0  0  0
 35 27  1  0  0  0  0
 35  3  2  0  0  0  0
 36 29  1  1  0  0  0
 36 22  1  0  0  0  0
 38  2  1  0  0  0  0
 38 12  1  0  0  0  0
 39  7  1  6  0  0  0
 40  8  1  0  0  0  0
 41 58  1  1  0  0  0
 42 41  1  1  0  0  0
 42 44  1  0  0  0  0
 43 52  1  6  0  0  0
 43 50  1  0  0  0  0
 44 43  1  0  0  0  0
 45 44  1  0  0  0  0
 45 49  1  0  0  0  0
 46 45  1  0  0  0  0
 47 50  1  0  0  0  0
 48 51  1  0  0  0  0
 48 42  1  0  0  0  0
 48 46  1  0  0  0  0
 49 47  1  0  0  0  0
 53 54  2  0  0  0  0
 53 46  1  0  0  0  0
 55 53  1  0  0  0  0
 56 57  1  0  0  0  0
 57 45  1  0  0  0  0
 58 59  1  0  0  0  0
M  END
>  <MODEL>
1

>  <REMARK>
 VINA RESULT:      -1.2      0.000      0.000
  Name = 
  5 active torsions:
  status: ('A' for Active; 'I' for Inactive)
    1  A    between atoms: C_3  and  C_55
    2  A    between atoms: C_9  and  C_47
    3  A    between atoms: C_23  and  C_55
    4  A    between atoms: C_24  and  C_29
    5  A    between atoms: C_38  and  C_55
                            x       y       z     vdW  Elec       q    Type
                         _______ _______ _______ _____ _____    ______ ____

>  <TORSDO>
F 5

$$$$
=
 OpenBabel11062416093D

 59 65  0  0  1  0  0  0  0  0999 V2000
  183.9220  176.3980  138.2660 O   0  0  0  0  0  0  0  0  0  0  0  0
  184.5360  171.5700  134.9550 C   0  0  2  0  0  3  0  0  0  0  0  0
  182.4350  175.9200  135.7240 C   0  0  0  0  0  0  0  0  0  0  0  0
  191.8050  175.7830  138.9610 C   0  0  0  0  0  1  0  0  0  0  0  0
  183.7900  175.3300  135.4380 C   0  0  2  0  0  3  0  0  0  0  0  0
  179.0830  177.3010  134.8630 C   0  0  0  0  0  1  0  0  0  0  0  0
  189.1870  177.0340  138.1840 C   0  0  0  0  0  3  0  0  0  0  0  0
  188.6970  172.8050  137.4570 O   0  0  0  0  0  0  0  0  0  0  0  0
  186.0540  175.6430  136.7170 C   0  0  0  0  0  2  0  0  0  0  0  0
  183.6010  171.0230  135.8380 O   0  0  0  0  0  1  0  0  0  0  0  0
  189.9310  172.8130  136.8030 C   0  0  0  0  0  0  0  0  0  0  0  0
  183.8950  173.8660  135.8400 C   0  0  0  0  0  2  0  0  0  0  0  0
  187.5920  177.5200  136.4430 O   0  0  0  0  0  0  0  0  0  0  0  0
  181.8930  176.2780  136.8940 C   0  0  2  0  0  3  0  0  0  0  0  0
  190.3630  171.7770  136.2260 O   0  0  0  0  0  0  0  0  0  0  0  0
  192.4730  175.9250  135.6270 C   0  0  0  0  0  2  0  0  0  0  0  0
  185.0910  176.1640  135.6370 C   0  0  2  0  0  3  0  0  0  0  0  0
  187.4970  176.1190  136.6010 C   0  0  1  0  0  3  0  0  0  0  0  0
  190.2410  176.9210  137.3670 C   0  0  0  0  0  3  0  0  0  0  0  0
  180.6010  176.8300  136.7050 N   0  0  0  0  0  0  0  0  0  0  0  0
  192.2070  174.1690  136.0530 P   0  0  2  0  0  0  0  0  0  0  0  0
  186.6320  172.3810  136.3290 C   0  0  1  0  0  3  0  0  0  0  0  0
  192.7160  176.8520  136.8310 C   0  0  1  0  0  3  0  0  0  0  0  0
  182.5210  176.2780  138.2670 C   0  0  0  0  0  2  0  0  0  0  0  0
  184.3270  177.7210  137.9500 C   0  0  1  0  0  3  0  0  0  0  0  0
  190.6400  174.0130  136.7470 O   0  0  0  0  0  0  0  0  0  0  0  0
  180.3550  176.7990  135.4400 C   0  0  0  0  0  0  0  0  0  0  0  0
  185.0050  177.5820  135.5680 O   0  0  0  0  0  0  0  0  0  0  0  0
  186.3850  170.0090  135.6180 F   0  0  0  0  0  0  0  0  0  0  0  0
  191.6350  176.8940  137.9270 C   0  0  2  0  0  3  0  0  0  0  0  0
  184.0940  178.1450  136.4950 C   0  0  0  0  0  2  0  0  0  0  0  0
  193.9910  176.6520  137.3670 O   0  0  0  0  0  1  0  0  0  0  0  0
  193.2640  173.7020  137.0250 O   0  0  0  0  0  1  0  0  0  0  0  0
  187.0370  172.2140  134.8670 C   0  0  0  0  0  2  0  0  0  0  0  0
  181.4580  176.2060  134.6370 C   0  0  0  0  0  3  0  0  0  0  0  0
  185.9690  171.3220  135.4630 C   0  0  1  0  0  0  0  0  0  0  0  0
  192.3160  173.2530  134.6330 O   0  0  0  0  0  0  0  0  0  0  0  0
  184.1870  173.0230  134.6070 C   0  0  0  0  0  2  0  0  0  0  0  0
  187.7460  177.0260  137.7510 C   0  0  1  0  0  3  0  0  0  0  0  0
  187.7170  171.8030  137.2230 C   0  0  0  0  0  2  0  0  0  0  0  0
  184.1660  178.8020  139.0390 C   0  0  1  0  0  3  0  0  0  0  0  0
  183.0990  178.4880  140.1150 C   0  0  1  0  0  3  0  0  0  0  0  0
  184.5820  178.5790  142.3350 C   0  0  1  0  0  3  0  0  0  0  0  0
  183.3820  179.0350  141.5030 C   0  0  2  0  0  3  0  0  0  0  0  0
  182.0570  178.9910  142.2470 C   0  0  2  0  0  0  0  0  0  0  0  0
  181.1020  179.4930  141.1640 C   0  0  1  0  0  3  0  0  0  0  0  0
  183.3350  179.5370  144.3420 C   0  0  0  0  0  2  0  0  0  0  0  0
  181.6980  179.0740  139.8120 C   0  0  1  0  0  3  0  0  0  0  0  0
  182.1700  179.9560  143.4270 C   0  0  0  0  0  2  0  0  0  0  0  0
  184.6680  179.4740  143.5780 C   0  0  0  0  0  2  0  0  0  0  0  0
  181.7750  180.2110  139.0030 O   0  0  0  0  0  1  0  0  0  0  0  0
  184.4870  177.2440  142.7010 F   0  0  0  0  0  0  0  0  0  0  0  0
  179.6560  179.1260  141.3400 C   0  0  0  0  0  0  0  0  0  0  0  0
  178.9350  179.7300  142.1790 O   0  0  0  0  0  0  0  0  0  0  0  0
  179.0860  178.1100  140.5260 N   0  0  0  0  0  1  0  0  0  0  0  0
  180.8400  177.6370  143.8890 O   0  0  0  0  0  1  0  0  0  0  0  0
  181.6850  177.5820  142.7760 C   0  0  0  0  0  2  0  0  0  0  0  0
  185.5380  179.1750  139.6080 C   0  0  0  0  0  2  0  0  0  0  0  0
  186.3120  177.9640  140.1060 C   0  0  0  0  0  1  0  0  0  0  0  0
  1 24  1  0  0  0  0
  2 36  1  0  0  0  0
  2 10  1  1  0  0  0
  3 14  1  0  0  0  0
  5 17  1  0  0  0  0
  5  3  1  0  0  0  0
  5 12  1  1  0  0  0
  6 27  1  0  0  0  0
 11  8  1  0  0  0  0
 13 18  1  0  0  0  0
 13 39  1  0  0  0  0
 14 24  1  6  0  0  0
 15 11  2  0  0  0  0
 16 21  1  0  0  0  0
 16 23  1  0  0  0  0
 17  9  1  1  0  0  0
 18  9  1  1  0  0  0
 18 39  1  0  0  0  0
 19 30  1  0  0  0  0
 19  7  2  0  0  0  0
 20 14  1  0  0  0  0
 21 37  2  6  0  0  0
 21 26  1  0  0  0  0
 21 33  1  0  0  0  0
 22 34  1  6  0  0  0
 22 40  1  0  0  0  0
 23 32  1  1  0  0  0
 23 30  1  0  0  0  0
 25  1  1  0  0  0  0
 25 41  1  1  0  0  0
 26 11  1  0  0  0  0
 27 20  2  0  0  0  0
 28 17  1  0  0  0  0
 28 31  1  0  0  0  0
 30  4  1  1  0  0  0
 31 25  1  0  0  0  0
 34 36  1  0  0  0  0
 35 27  1  0  0  0  0
 35  3  2  0  0  0  0
 36 29  1  1  0  0  0
 36 22  1  0  0  0  0
 38  2  1  0  0  0  0
 38 12  1  0  0  0  0
 39  7  1  6  0  0  0
 40  8  1  0  0  0  0
 41 58  1  1  0  0  0
 42 41  1  6  0  0  0
 42 44  1  0  0  0  0
 43 52  1  1  0  0  0
 43 50  1  0  0  0  0
 44 45  1  0  0  0  0
 44 43  1  0  0  0  0
 45 57  1  0  0  0  0
 45 49  1  0  0  0  0
 46 53  1  0  0  0  0
 46 45  1  0  0  0  0
 48 42  1  0  0  0  0
 48 46  1  0  0  0  0
 49 47  1  0  0  0  0
 50 47  1  0  0  0  0
 51 48  1  0  0  0  0
 53 54  2  0  0  0  0
 55 53  1  0  0  0  0
 57 56  1  0  0  0  0
 58 59  1  0  0  0  0
M  END
>  <MODEL>
2

>  <REMARK>
 VINA RESULT:      -0.7      1.615      2.013
  Name = 
  5 active torsions:
  status: ('A' for Active; 'I' for Inactive)
    1  A    between atoms: C_3  and  C_55
    2  A    between atoms: C_9  and  C_47
    3  A    between atoms: C_23  and  C_55
    4  A    between atoms: C_24  and  C_29
    5  A    between atoms: C_38  and  C_55
                            x       y       z     vdW  Elec       q    Type
                         _______ _______ _______ _____ _____    ______ ____

>  <TORSDO>
F 5

$$$$
=
 OpenBabel11062416093D

 59 65  0  0  1  0  0  0  0  0999 V2000
  187.8780  175.8550  138.7600 O   0  0  0  0  0  0  0  0  0  0  0  0
  186.7290  178.4830  143.9020 C   0  0  2  0  0  3  0  0  0  0  0  0
  189.8040  177.6240  140.1950 C   0  0  0  0  0  0  0  0  0  0  0  0
  180.3840  177.8910  137.1170 C   0  0  0  0  0  1  0  0  0  0  0  0
  188.4780  178.2850  140.4620 C   0  0  2  0  0  3  0  0  0  0  0  0
  193.5200  177.4350  139.9790 C   0  0  0  0  0  1  0  0  0  0  0  0
  183.3720  177.8630  136.8110 C   0  0  0  0  0  3  0  0  0  0  0  0
  182.6540  177.7910  141.0700 O   0  0  0  0  0  0  0  0  0  0  0  0
  186.1690  177.9350  139.2770 C   0  0  0  0  0  2  0  0  0  0  0  0
  187.1350  177.2630  144.4490 O   0  0  0  0  0  1  0  0  0  0  0  0
  181.7380  178.8290  140.8950 C   0  0  0  0  0  0  0  0  0  0  0  0
  187.7910  177.7490  141.7100 C   0  0  0  0  0  2  0  0  0  0  0  0
  185.4740  178.9830  137.1830 O   0  0  0  0  0  0  0  0  0  0  0  0
  190.0660  176.3980  139.7250 C   0  0  0  0  0  0  0  0  0  0  0  0
  181.1830  179.3760  141.8890 O   0  0  0  0  0  0  0  0  0  0  0  0
  180.8050  181.2330  137.5960 C   0  0  0  0  0  2  0  0  0  0  0  0
  187.5200  178.6690  139.2950 C   0  0  2  0  0  3  0  0  0  0  0  0
  185.0590  178.6130  138.4830 C   0  0  1  0  0  3  0  0  0  0  0  0
  182.6260  178.9740  136.8360 C   0  0  0  0  0  3  0  0  0  0  0  0
  191.4620  176.1960  139.5900 N   0  0  0  0  0  0  0  0  0  0  0  0
  180.3510  180.5070  139.2090 P   0  0  2  0  0  0  0  0  0  0  0  0
  184.7050  178.0540  142.2720 C   0  0  1  0  0  3  0  0  0  0  0  0
  180.5350  180.3290  136.3820 C   0  0  1  0  0  3  0  0  0  0  0  0
  189.0990  175.3470  139.2380 C   0  0  0  0  0  2  0  0  0  0  0  0
  188.0350  176.4690  137.4910 C   0  0  1  0  0  3  0  0  0  0  0  0
  181.5060  179.2930  139.6000 O   0  0  0  0  0  0  0  0  0  0  0  0
  192.0430  177.2780  139.9810 C   0  0  0  0  0  0  0  0  0  0  0  0
  188.0780  178.8950  138.0060 O   0  0  0  0  0  0  0  0  0  0  0  0
  184.3660  178.3040  144.7240 F   0  0  0  0  0  0  0  0  0  0  0  0
  181.2000  178.9390  136.3660 C   0  0  2  0  0  3  0  0  0  0  0  0
  188.8080  177.7930  137.4980 C   0  0  0  0  0  2  0  0  0  0  0  0
  179.1660  180.2520  136.1100 O   0  0  0  0  0  1  0  0  0  0  0  0
  178.9630  179.9140  139.1420 O   0  0  0  0  0  0  0  0  0  0  0  0
  184.7150  179.5280  142.6670 C   0  0  0  0  0  2  0  0  0  0  0  0
  191.0940  178.3290  140.4380 C   0  0  0  0  0  2  0  0  0  0  0  0
  185.2120  178.4810  143.6400 C   0  0  1  0  0  0  0  0  0  0  0  0
  180.3710  181.7370  140.3730 O   0  0  0  0  0  1  0  0  0  0  0  0
  187.6160  178.8810  142.7140 C   0  0  0  0  0  2  0  0  0  0  0  0
  184.7930  177.7580  137.2970 C   0  0  1  0  0  3  0  0  0  0  0  0
  183.2790  177.5280  142.3190 C   0  0  0  0  0  2  0  0  0  0  0  0
  188.2120  175.5500  136.2640 C   0  0  1  0  0  3  0  0  0  0  0  0
  187.5190  174.1720  136.3790 C   0  0  1  0  0  3  0  0  0  0  0  0
  184.9480  174.8940  136.3110 C   0  0  1  0  0  3  0  0  0  0  0  0
  186.1280  174.0810  135.7760 C   0  0  2  0  0  3  0  0  0  0  0  0
  185.8400  172.5970  135.6160 C   0  0  2  0  0  0  0  0  0  0  0  0
  187.1820  172.0980  135.0810 C   0  0  1  0  0  3  0  0  0  0  0  0
  183.4640  173.2240  135.0820 C   0  0  0  0  0  2  0  0  0  0  0  0
  188.2650  173.0220  135.6570 C   0  0  1  0  0  3  0  0  0  0  0  0
  184.7110  172.4650  134.5940 C   0  0  0  0  0  2  0  0  0  0  0  0
  183.7670  174.7070  135.3500 C   0  0  0  0  0  2  0  0  0  0  0  0
  189.0390  173.4950  134.5940 O   0  0  0  0  0  1  0  0  0  0  0  0
  184.5940  174.5160  137.5980 F   0  0  0  0  0  0  0  0  0  0  0  0
  187.4610  170.6330  135.2640 C   0  0  0  0  0  0  0  0  0  0  0  0
  188.3850  170.2440  136.0270 O   0  0  0  0  0  0  0  0  0  0  0  0
  186.6500  169.6760  134.5960 N   0  0  0  0  0  1  0  0  0  0  0  0
  184.1680  171.2740  136.8280 O   0  0  0  0  0  1  0  0  0  0  0  0
  185.4160  171.8970  136.9330 C   0  0  0  0  0  2  0  0  0  0  0  0
  187.8680  176.3200  134.9850 C   0  0  0  0  0  2  0  0  0  0  0  0
  188.9280  177.3470  134.6190 C   0  0  0  0  0  1  0  0  0  0  0  0
  1 24  1  0  0  0  0
  2 10  1  6  0  0  0
  3 35  1  0  0  0  0
  3  5  1  0  0  0  0
  5 12  1  1  0  0  0
  6 27  1  0  0  0  0
  7 19  2  0  0  0  0
  8 40  1  0  0  0  0
 11  8  1  0  0  0  0
 11 15  2  0  0  0  0
 12 38  1  0  0  0  0
 13 39  1  0  0  0  0
 13 18  1  0  0  0  0
 14  3  2  0  0  0  0
 16 21  1  0  0  0  0
 17  9  1  6  0  0  0
 17  5  1  0  0  0  0
 18  9  1  1  0  0  0
 20 14  1  0  0  0  0
 20 27  2  0  0  0  0
 21 33  2  6  0  0  0
 21 26  1  0  0  0  0
 21 37  1  0  0  0  0
 22 40  1  1  0  0  0
 22 34  1  0  0  0  0
 22 36  1  0  0  0  0
 23 32  1  1  0  0  0
 23 16  1  0  0  0  0
 24 14  1  0  0  0  0
 25 41  1  6  0  0  0
 25 31  1  0  0  0  0
 25  1  1  0  0  0  0
 26 11  1  0  0  0  0
 27 35  1  0  0  0  0
 28 17  1  0  0  0  0
 30 23  1  0  0  0  0
 30 19  1  0  0  0  0
 30  4  1  1  0  0  0
 31 28  1  0  0  0  0
 34 36  1  0  0  0  0
 36  2  1  0  0  0  0
 36 29  1  1  0  0  0
 38  2  1  0  0  0  0
 39  7  1  6  0  0  0
 39 18  1  0  0  0  0
 41 58  1  6  0  0  0
 42 41  1  6  0  0  0
 43 52  1  1  0  0  0
 44 43  1  0  0  0  0
 44 42  1  0  0  0  0
 45 44  1  0  0  0  0
 45 57  1  0  0  0  0
 46 53  1  0  0  0  0
 46 45  1  0  0  0  0
 46 48  1  0  0  0  0
 47 50  1  0  0  0  0
 48 42  1  0  0  0  0
 49 47  1  0  0  0  0
 49 45  1  0  0  0  0
 50 43  1  0  0  0  0
 51 48  1  0  0  0  0
 53 54  2  0  0  0  0
 55 53  1  0  0  0  0
 56 57  1  0  0  0  0
 59 58  1  0  0  0  0
M  END
>  <MODEL>
3

>  <REMARK>
 VINA RESULT:       0.4      3.639     10.134
  Name = 
  5 active torsions:
  status: ('A' for Active; 'I' for Inactive)
    1  A    between atoms: C_3  and  C_55
    2  A    between atoms: C_9  and  C_47
    3  A    between atoms: C_23  and  C_55
    4  A    between atoms: C_24  and  C_29
    5  A    between atoms: C_38  and  C_55
                            x       y       z     vdW  Elec       q    Type
                         _______ _______ _______ _____ _____    ______ ____

>  <TORSDO>
F 5

$$$$
=
 OpenBabel11062416093D

 59 65  0  0  1  0  0  0  0  0999 V2000
  189.3410  175.4180  138.3340 O   0  0  0  0  0  0  0  0  0  0  0  0
  191.5200  176.7960  143.6270 C   0  0  2  0  0  3  0  0  0  0  0  0
  191.8790  176.9310  138.7500 C   0  0  0  0  0  0  0  0  0  0  0  0
  182.4270  177.3630  141.7130 C   0  0  0  0  0  1  0  0  0  0  0  0
  190.9950  177.4460  139.8550 C   0  0  2  0  0  3  0  0  0  0  0  0
  194.7910  176.9910  136.4270 C   0  0  0  0  0  1  0  0  0  0  0  0
  184.7060  177.5610  139.7650 C   0  0  0  0  0  3  0  0  0  0  0  0
  186.5170  176.5230  143.5470 O   0  0  0  0  0  0  0  0  0  0  0  0
  188.4010  177.2420  140.1520 C   0  0  0  0  0  2  0  0  0  0  0  0
  192.0620  175.5090  143.5770 O   0  0  0  0  0  1  0  0  0  0  0  0
  185.7520  177.5250  144.1450 C   0  0  0  0  0  0  0  0  0  0  0  0
  191.0920  176.6160  141.1260 C   0  0  0  0  0  2  0  0  0  0  0  0
  186.7330  178.6830  139.1000 O   0  0  0  0  0  0  0  0  0  0  0  0
  191.7280  175.8530  137.9710 C   0  0  0  0  0  0  0  0  0  0  0  0
  185.9020  177.8100  145.3660 O   0  0  0  0  0  0  0  0  0  0  0  0
  183.3170  180.5380  142.5540 C   0  0  0  0  0  2  0  0  0  0  0  0
  189.5810  178.0240  139.5510 C   0  0  2  0  0  3  0  0  0  0  0  0
  187.0970  178.0170  140.2930 C   0  0  1  0  0  3  0  0  0  0  0  0
  184.1980  178.5990  140.4410 C   0  0  0  0  0  3  0  0  0  0  0  0
  192.7810  175.7600  137.0280 N   0  0  0  0  0  0  0  0  0  0  0  0
  183.7970  179.4540  143.9440 P   0  0  2  0  0  0  0  0  0  0  0  0
  188.9010  176.6260  143.3920 C   0  0  1  0  0  3  0  0  0  0  0  0
  182.3360  179.9070  141.5520 C   0  0  1  0  0  3  0  0  0  0  0  0
  190.5720  174.8840  137.9130 C   0  0  0  0  0  2  0  0  0  0  0  0
  188.8040  176.3020  137.3630 C   0  0  1  0  0  3  0  0  0  0  0  0
  184.8670  178.2470  143.3440 O   0  0  0  0  0  0  0  0  0  0  0  0
  193.5680  176.7600  137.2350 C   0  0  0  0  0  0  0  0  0  0  0  0
  189.3280  178.5560  138.2560 O   0  0  0  0  0  0  0  0  0  0  0  0
  190.0290  176.3160  145.5880 F   0  0  0  0  0  0  0  0  0  0  0  0
  182.7590  178.5920  140.8710 C   0  0  2  0  0  3  0  0  0  0  0  0
  189.5510  177.6320  137.2060 C   0  0  0  0  0  2  0  0  0  0  0  0
  181.0520  179.8190  142.0980 O   0  0  0  0  0  1  0  0  0  0  0  0
  182.5710  178.8170  144.5550 O   0  0  0  0  0  0  0  0  0  0  0  0
  189.2530  177.9770  144.0090 C   0  0  0  0  0  2  0  0  0  0  0  0
  193.1330  177.6330  138.3580 C   0  0  0  0  0  2  0  0  0  0  0  0
  190.1260  176.7700  144.2820 C   0  0  1  0  0  0  0  0  0  0  0  0
  184.5720  180.3990  145.1150 O   0  0  0  0  0  1  0  0  0  0  0  0
  191.6090  177.4900  142.2610 C   0  0  0  0  0  2  0  0  0  0  0  0
  186.1380  177.4280  139.3220 C   0  0  1  0  0  3  0  0  0  0  0  0
  187.7140  176.0270  144.1290 C   0  0  0  0  0  2  0  0  0  0  0  0
  188.1800  175.6840  136.0940 C   0  0  1  0  0  3  0  0  0  0  0  0
  187.3330  174.4130  136.3390 C   0  0  1  0  0  3  0  0  0  0  0  0
  184.8640  175.4310  136.2470 C   0  0  1  0  0  3  0  0  0  0  0  0
  185.9260  174.4390  135.7670 C   0  0  2  0  0  3  0  0  0  0  0  0
  185.4600  172.9930  135.7410 C   0  0  2  0  0  0  0  0  0  0  0  0
  186.7190  172.2930  135.2320 C   0  0  1  0  0  3  0  0  0  0  0  0
  183.1620  173.8530  135.1900 C   0  0  0  0  0  2  0  0  0  0  0  0
  187.9180  173.1260  135.7090 C   0  0  1  0  0  3  0  0  0  0  0  0
  184.2980  172.9110  134.7510 C   0  0  0  0  0  2  0  0  0  0  0  0
  183.6450  175.3070  135.3230 C   0  0  0  0  0  2  0  0  0  0  0  0
  188.7160  173.4100  134.5970 O   0  0  0  0  0  1  0  0  0  0  0  0
  184.5000  175.2080  137.5670 F   0  0  0  0  0  0  0  0  0  0  0  0
  186.8280  170.8260  135.5380 C   0  0  0  0  0  0  0  0  0  0  0  0
  187.6580  170.4040  136.3870 O   0  0  0  0  0  0  0  0  0  0  0  0
  185.9600  169.9080  134.8870 N   0  0  0  0  0  1  0  0  0  0  0  0
  183.9800  171.5030  137.0060 O   0  0  0  0  0  1  0  0  0  0  0  0
  184.9890  172.4630  137.1200 C   0  0  0  0  0  2  0  0  0  0  0  0
  187.4620  176.7700  135.2860 C   0  0  0  0  0  2  0  0  0  0  0  0
  188.4300  177.7200  134.5970 C   0  0  0  0  0  1  0  0  0  0  0  0
  2 10  1  6  0  0  0
  2 36  1  0  0  0  0
  3  5  1  0  0  0  0
  5 12  1  1  0  0  0
  6 27  1  0  0  0  0
  7 19  2  0  0  0  0
  8 40  1  0  0  0  0
  8 11  1  0  0  0  0
 11 15  2  0  0  0  0
 12 38  1  0  0  0  0
 13 39  1  0  0  0  0
 13 18  1  0  0  0  0
 14  3  2  0  0  0  0
 16 21  1  0  0  0  0
 17  5  1  0  0  0  0
 17  9  1  6  0  0  0
 18  9  1  6  0  0  0
 19 30  1  0  0  0  0
 20 27  2  0  0  0  0
 20 14  1  0  0  0  0
 21 33  2  1  0  0  0
 21 37  1  0  0  0  0
 22 34  1  1  0  0  0
 22 40  1  0  0  0  0
 22 36  1  0  0  0  0
 23 32  1  1  0  0  0
 23 16  1  0  0  0  0
 24 14  1  0  0  0  0
 24  1  1  0  0  0  0
 25 41  1  6  0  0  0
 25  1  1  0  0  0  0
 26 21  1  0  0  0  0
 26 11  1  0  0  0  0
 27 35  1  0  0  0  0
 28 17  1  0  0  0  0
 30 23  1  0  0  0  0
 30  4  1  1  0  0  0
 31 25  1  0  0  0  0
 31 28  1  0  0  0  0
 34 36  1  0  0  0  0
 35  3  1  0  0  0  0
 36 29  1  1  0  0  0
 38  2  1  0  0  0  0
 39  7  1  1  0  0  0
 39 18  1  0  0  0  0
 41 58  1  1  0  0  0
 42 41  1  6  0  0  0
 43 52  1  1  0  0  0
 44 43  1  0  0  0  0
 44 42  1  0  0  0  0
 45 44  1  0  0  0  0
 45 57  1  0  0  0  0
 46 53  1  0  0  0  0
 46 48  1  0  0  0  0
 46 45  1  0  0  0  0
 47 50  1  0  0  0  0
 48 42  1  0  0  0  0
 49 47  1  0  0  0  0
 49 45  1  0  0  0  0
 50 43  1  0  0  0  0
 51 48  1  0  0  0  0
 53 54  2  0  0  0  0
 55 53  1  0  0  0  0
 56 57  1  0  0  0  0
 59 58  1  0  0  0  0
M  END
>  <MODEL>
4

>  <REMARK>
 VINA RESULT:       0.9      4.282      9.919
  Name = 
  5 active torsions:
  status: ('A' for Active; 'I' for Inactive)
    1  A    between atoms: C_3  and  C_55
    2  A    between atoms: C_9  and  C_47
    3  A    between atoms: C_23  and  C_55
    4  A    between atoms: C_24  and  C_29
    5  A    between atoms: C_38  and  C_55
                            x       y       z     vdW  Elec       q    Type
                         _______ _______ _______ _____ _____    ______ ____

>  <TORSDO>
F 5

$$$$
=
 OpenBabel11062416093D

 59 65  0  0  1  0  0  0  0  0999 V2000
  184.0170  177.2870  141.4310 O   0  0  0  0  0  0  0  0  0  0  0  0
  182.9330  176.2280  135.7420 C   0  0  2  0  0  3  0  0  0  0  0  0
  182.2470  178.9800  139.7280 C   0  0  0  0  0  0  0  0  0  0  0  0
  191.4180  175.2250  139.4350 C   0  0  0  0  0  1  0  0  0  0  0  0
  183.3460  178.5810  138.7790 C   0  0  2  0  0  3  0  0  0  0  0  0
  179.3750  181.0300  140.9270 C   0  0  0  0  0  1  0  0  0  0  0  0
  189.2160  177.0190  140.4140 C   0  0  0  0  0  3  0  0  0  0  0  0
  187.4690  174.6960  137.2190 O   0  0  0  0  0  0  0  0  0  0  0  0
  185.7030  177.5590  139.2860 C   0  0  0  0  0  2  0  0  0  0  0  0
  181.9580  175.3600  136.2410 O   0  0  0  0  0  1  0  0  0  0  0  0
  188.5930  174.9860  136.4440 C   0  0  0  0  0  0  0  0  0  0  0  0
  183.0580  177.2720  138.0580 C   0  0  0  0  0  2  0  0  0  0  0  0
  187.6880  178.8220  139.9400 O   0  0  0  0  0  0  0  0  0  0  0  0
  181.9310  178.4740  140.9260 C   0  0  2  0  0  3  0  0  0  0  0  0
  188.6570  174.6210  135.2370 O   0  0  0  0  0  0  0  0  0  0  0  0
  191.8160  177.5950  137.0270 C   0  0  0  0  0  2  0  0  0  0  0  0
  184.8430  178.8240  139.1320 C   0  0  2  0  0  3  0  0  0  0  0  0
  187.2070  177.7590  139.1420 C   0  0  1  0  0  3  0  0  0  0  0  0
  190.1200  177.3680  139.4910 C   0  0  0  0  0  3  0  0  0  0  0  0
  180.8430  179.1760  141.5000 N   0  0  0  0  0  0  0  0  0  0  0  0
  191.0910  176.1230  136.2250 P   0  0  2  0  0  0  0  0  0  0  0  0
  185.2810  175.5050  136.6920 C   0  0  1  0  0  3  0  0  0  0  0  0
  192.4150  177.3430  138.4200 C   0  0  1  0  0  3  0  0  0  0  0  0
  182.6460  177.4070  141.7200 C   0  0  0  0  0  2  0  0  0  0  0  0
  184.7580  178.3630  141.9850 C   0  0  1  0  0  3  0  0  0  0  0  0
  189.6100  175.7490  137.0170 O   0  0  0  0  0  0  0  0  0  0  0  0
  180.4930  180.0890  140.6610 C   0  0  0  0  0  0  0  0  0  0  0  0
  185.1640  179.8620  140.0510 O   0  0  0  0  0  0  0  0  0  0  0  0
  184.3030  174.4130  134.6810 F   0  0  0  0  0  0  0  0  0  0  0  0
  191.4880  176.7490  139.4980 C   0  0  2  0  0  3  0  0  0  0  0  0
  184.5350  179.7230  141.3120 C   0  0  0  0  0  2  0  0  0  0  0  0
  193.6190  176.6390  138.3270 O   0  0  0  0  0  1  0  0  0  0  0  0
  192.0470  174.9570  136.3150 O   0  0  0  0  0  1  0  0  0  0  0  0
  185.4960  176.3710  135.4530 C   0  0  0  0  0  2  0  0  0  0  0  0
  181.3060  180.0920  139.4160 C   0  0  0  0  0  3  0  0  0  0  0  0
  184.2710  175.4880  135.5560 C   0  0  1  0  0  0  0  0  0  0  0  0
  190.8120  176.4860  134.5940 O   0  0  0  0  0  0  0  0  0  0  0  0
  182.9900  177.5260  136.5580 C   0  0  0  0  0  2  0  0  0  0  0  0
  187.8020  177.5300  140.4850 C   0  0  1  0  0  3  0  0  0  0  0  0
  186.2260  174.3140  136.6460 C   0  0  0  0  0  2  0  0  0  0  0  0
  185.0070  178.3570  143.5070 C   0  0  1  0  0  3  0  0  0  0  0  0
  186.4980  178.3760  143.9220 C   0  0  1  0  0  3  0  0  0  0  0  0
  186.2820  178.8070  146.5500 C   0  0  1  0  0  3  0  0  0  0  0  0
  186.7860  177.9860  145.3620 C   0  0  2  0  0  3  0  0  0  0  0  0
  188.2700  177.6610  145.4160 C   0  0  2  0  0  0  0  0  0  0  0  0
  188.4370  176.8610  144.1240 C   0  0  1  0  0  3  0  0  0  0  0  0
  188.0560  177.5910  147.9200 C   0  0  0  0  0  2  0  0  0  0  0  0
  187.3930  177.3910  143.1310 C   0  0  1  0  0  3  0  0  0  0  0  0
  188.5000  176.8140  146.6670 C   0  0  0  0  0  2  0  0  0  0  0  0
  186.5820  178.0200  147.8330 C   0  0  0  0  0  2  0  0  0  0  0  0
  186.6620  176.3010  142.6480 O   0  0  0  0  0  1  0  0  0  0  0  0
  186.8640  180.0640  146.6020 F   0  0  0  0  0  0  0  0  0  0  0  0
  189.8310  176.7870  143.5700 C   0  0  0  0  0  0  0  0  0  0  0  0
  190.3970  177.8140  143.1090 O   0  0  0  0  0  0  0  0  0  0  0  0
  190.5330  175.5510  143.5990 N   0  0  0  0  0  1  0  0  0  0  0  0
  190.3700  178.6740  146.1740 O   0  0  0  0  0  1  0  0  0  0  0  0
  189.1820  178.9120  145.4740 C   0  0  0  0  0  2  0  0  0  0  0  0
  184.1560  179.4400  144.1780 C   0  0  0  0  0  2  0  0  0  0  0  0
  182.7760  178.9360  144.5720 C   0  0  0  0  0  1  0  0  0  0  0  0
  1 24  1  0  0  0  0
  1 25  1  0  0  0  0
  2 10  1  1  0  0  0
  2 38  1  0  0  0  0
  3 14  1  0  0  0  0
  5 12  1  1  0  0  0
  5 17  1  0  0  0  0
  5  3  1  0  0  0  0
 11 26  1  0  0  0  0
 11  8  1  0  0  0  0
 13 39  1  0  0  0  0
 14 20  1  0  0  0  0
 14 24  1  1  0  0  0
 15 11  2  0  0  0  0
 16 23  1  0  0  0  0
 17  9  1  1  0  0  0
 17 28  1  0  0  0  0
 18  9  1  1  0  0  0
 18 13  1  0  0  0  0
 18 39  1  0  0  0  0
 19 30  1  0  0  0  0
 19  7  2  0  0  0  0
 21 37  2  6  0  0  0
 21 33  1  0  0  0  0
 21 26  1  0  0  0  0
 21 16  1  0  0  0  0
 22 34  1  6  0  0  0
 23 32  1  6  0  0  0
 23 30  1  0  0  0  0
 25 41  1  1  0  0  0
 27  6  1  0  0  0  0
 27 20  2  0  0  0  0
 28 31  1  0  0  0  0
 30  4  1  6  0  0  0
 31 25  1  0  0  0  0
 34 36  1  0  0  0  0
 35  3  2  0  0  0  0
 35 27  1  0  0  0  0
 36 29  1  6  0  0  0
 36  2  1  0  0  0  0
 36 22  1  0  0  0  0
 38 12  1  0  0  0  0
 39  7  1  6  0  0  0
 40 22  1  0  0  0  0
 40  8  1  0  0  0  0
 41 58  1  1  0  0  0
 42 41  1  6  0  0  0
 42 44  1  0  0  0  0
 43 52  1  1  0  0  0
 43 50  1  0  0  0  0
 44 45  1  0  0  0  0
 44 43  1  0  0  0  0
 45 57  1  0  0  0  0
 45 49  1  0  0  0  0
 46 45  1  0  0  0  0
 48 42  1  0  0  0  0
 48 46  1  0  0  0  0
 49 47  1  0  0  0  0
 50 47  1  0  0  0  0
 51 48  1  0  0  0  0
 53 55  1  0  0  0  0
 53 46  1  0  0  0  0
 54 53  2  0  0  0  0
 57 56  1  0  0  0  0
 58 59  1  0  0  0  0
M  END
>  <MODEL>
5

>  <REMARK>
 VINA RESULT:       1.0      4.007      6.336
  Name = 
  5 active torsions:
  status: ('A' for Active; 'I' for Inactive)
    1  A    between atoms: C_3  and  C_55
    2  A    between atoms: C_9  and  C_47
    3  A    between atoms: C_23  and  C_55
    4  A    between atoms: C_24  and  C_29
    5  A    between atoms: C_38  and  C_55
                            x       y       z     vdW  Elec       q    Type
                         _______ _______ _______ _____ _____    ______ ____

>  <TORSDO>
F 5

$$$$
