=
 OpenBabel11062417163D

 26 28  0  0  1  0  0  0  0  0999 V2000
  187.2060  178.5530  140.0610 C   0  0  0  0  0  0  0  0  0  0  0  0
  189.7500  177.8340  142.6920 C   0  0  0  0  0  0  0  0  0  0  0  0
  188.3530  177.8370  142.1830 C   0  0  0  0  0  0  0  0  0  0  0  0
  187.1780  178.5930  138.6350 N   0  0  0  0  0  1  0  0  0  0  0  0
  186.6510  176.9580  145.3530 C   0  0  0  0  0  2  0  0  0  0  0  0
  188.1220  177.7940  140.6980 C   0  0  0  0  0  0  0  0  0  0  0  0
  189.0300  177.7230  145.0670 C   0  0  1  0  0  3  0  0  0  0  0  0
  189.0070  178.5910  146.3260 C   0  0  0  0  0  2  0  0  0  0  0  0
  185.9270  178.0210  142.7960 C   0  0  0  0  0  3  0  0  0  0  0  0
  187.3600  177.8210  143.1100 C   0  0  0  0  0  0  0  0  0  0  0  0
  186.9180  178.0110  147.6490 C   0  0  0  0  0  2  0  0  0  0  0  0
  190.7160  177.5000  141.9550 O   0  0  0  0  0  0  0  0  0  0  0  0
  186.2060  179.2900  140.7550 N   0  0  0  0  0  2  0  0  0  0  0  0
  187.6760  177.5690  144.5040 N   0  0  0  0  0  0  0  0  0  0  0  0
  186.1210  177.9850  146.3420 C   0  0  0  0  0  2  0  0  0  0  0  0
  185.4170  178.7110  141.7860 C   0  0  0  0  0  3  0  0  0  0  0  0
  190.0100  178.3380  144.0780 C   0  0  1  0  0  3  0  0  0  0  0  0
  188.4290  177.8080  147.4950 C   0  0  0  0  0  2  0  0  0  0  0  0
  191.7260  178.0180  144.6270 S   0  0  0  0  0  0  0  0  0  0  0  0
  191.3310  176.3410  145.2100 C   0  0  0  0  0  2  0  0  0  0  0  0
  192.0090  176.0770  146.5100 C   0  0  0  0  0  0  0  0  0  0  0  0
  192.6880  175.0300  146.6650 O   0  0  0  0  0  0  0  0  0  0  0  0
  191.8600  176.9680  147.5630 O   0  0  0  0  0  1  0  0  0  0  0  0
  188.9980  176.8900  139.8690 C   0  0  0  0  0  2  0  0  0  0  0  0
  189.9370  177.6900  138.9770 C   0  0  0  0  0  2  0  0  0  0  0  0
  190.9900  176.7690  138.4020 C   0  0  0  0  0  1  0  0  0  0  0  0
  1  6  2  0  0  0  0
  1 13  1  0  0  0  0
  2 17  1  0  0  0  0
  3  2  1  0  0  0  0
  3 10  2  0  0  0  0
  4  1  1  0  0  0  0
  5 15  1  0  0  0  0
  6  3  1  0  0  0  0
  7  8  1  1  0  0  0
  8 18  1  0  0  0  0
  9 10  1  0  0  0  0
 10 14  1  0  0  0  0
 12  2  2  0  0  0  0
 13 16  1  0  0  0  0
 14  7  1  0  0  0  0
 14  5  1  0  0  0  0
 15 11  1  0  0  0  0
 16  9  2  0  0  0  0
 17 19  1  1  0  0  0
 17  7  1  0  0  0  0
 18 11  1  0  0  0  0
 19 20  1  0  0  0  0
 20 21  1  0  0  0  0
 21 22  2  0  0  0  0
 21 23  1  0  0  0  0
 24  6  1  0  0  0  0
 25 24  1  0  0  0  0
 26 25  1  0  0  0  0
M  END
>  <MODEL>
1

>  <REMARK>
 VINA RESULT:      -7.5      0.000      0.000
  Name = 
  5 active torsions:
  status: ('A' for Active; 'I' for Inactive)
    1  A    between atoms: C_3  and  C_11
    2  A    between atoms: C_5  and  C_22
    3  A    between atoms: C_8  and  C_22
    4  A    between atoms: C_11  and  S_14
    5  A    between atoms: S_14  and  C_24
                            x       y       z     vdW  Elec       q    Type
                         _______ _______ _______ _____ _____    ______ ____

>  <TORSDO>
F 5

$$$$
=
 OpenBabel11062417163D

 26 28  0  0  1  0  0  0  0  0999 V2000
  183.9570  179.0680  143.6350 C   0  0  0  0  0  0  0  0  0  0  0  0
  186.8440  178.4170  141.3650 C   0  0  0  0  0  0  0  0  0  0  0  0
  186.1270  178.2510  142.6570 C   0  0  0  0  0  0  0  0  0  0  0  0
  182.5610  179.3210  143.4840 N   0  0  0  0  0  1  0  0  0  0  0  0
  188.8540  176.6120  144.5510 C   0  0  0  0  0  2  0  0  0  0  0  0
  184.6300  178.3950  142.6790 C   0  0  0  0  0  0  0  0  0  0  0  0
  189.0440  177.8190  142.3530 C   0  0  1  0  0  3  0  0  0  0  0  0
  190.3830  178.4670  142.7110 C   0  0  0  0  0  2  0  0  0  0  0  0
  186.3690  177.9080  145.1300 C   0  0  0  0  0  3  0  0  0  0  0  0
  186.8770  177.9180  143.7390 C   0  0  0  0  0  0  0  0  0  0  0  0
  191.2780  177.3320  144.7980 C   0  0  0  0  0  2  0  0  0  0  0  0
  186.2320  178.3760  140.2640 O   0  0  0  0  0  0  0  0  0  0  0  0
  184.5730  179.5030  144.8420 N   0  0  0  0  0  2  0  0  0  0  0  0
  188.2600  177.5170  143.5650 N   0  0  0  0  0  0  0  0  0  0  0  0
  189.8690  177.3650  145.3970 C   0  0  0  0  0  2  0  0  0  0  0  0
  185.3860  178.6430  145.6300 C   0  0  0  0  0  3  0  0  0  0  0  0
  188.3060  178.7410  141.3930 C   0  0  1  0  0  3  0  0  0  0  0  0
  191.3390  177.4250  143.2710 C   0  0  0  0  0  2  0  0  0  0  0  0
  189.0730  178.6500  139.7340 S   0  0  0  0  0  0  0  0  0  0  0  0
  189.2730  176.8440  139.8180 C   0  0  0  0  0  2  0  0  0  0  0  0
  190.6370  176.4570  139.3640 C   0  0  0  0  0  0  0  0  0  0  0  0
  191.6270  177.1750  139.6590 O   0  0  0  0  0  1  0  0  0  0  0  0
  190.8130  175.3230  138.5830 O   0  0  0  0  0  0  0  0  0  0  0  0
  183.8430  177.7970  141.5410 C   0  0  0  0  0  2  0  0  0  0  0  0
  183.2640  178.8760  140.6380 C   0  0  0  0  0  2  0  0  0  0  0  0
  181.9820  178.3730  140.0100 C   0  0  0  0  0  1  0  0  0  0  0  0
  1 13  1  0  0  0  0
  2 17  1  0  0  0  0
  2  3  1  0  0  0  0
  3  6  1  0  0  0  0
  3 10  2  0  0  0  0
  4  1  1  0  0  0  0
  5 15  1  0  0  0  0
  6  1  2  0  0  0  0
  7  8  1  1  0  0  0
  7 14  1  0  0  0  0
  8 18  1  0  0  0  0
  9 16  2  0  0  0  0
 10  9  1  0  0  0  0
 11 15  1  0  0  0  0
 12  2  2  0  0  0  0
 13 16  1  0  0  0  0
 14 10  1  0  0  0  0
 14  5  1  0  0  0  0
 17 19  1  6  0  0  0
 17  7  1  0  0  0  0
 18 11  1  0  0  0  0
 19 20  1  0  0  0  0
 21 22  1  0  0  0  0
 21 20  1  0  0  0  0
 23 21  2  0  0  0  0
 24  6  1  0  0  0  0
 25 24  1  0  0  0  0
 26 25  1  0  0  0  0
M  END
>  <MODEL>
2

>  <REMARK>
 VINA RESULT:      -7.3      3.012      5.177
  Name = 
  5 active torsions:
  status: ('A' for Active; 'I' for Inactive)
    1  A    between atoms: C_3  and  C_11
    2  A    between atoms: C_5  and  C_22
    3  A    between atoms: C_8  and  C_22
    4  A    between atoms: C_11  and  S_14
    5  A    between atoms: S_14  and  C_24
                            x       y       z     vdW  Elec       q    Type
                         _______ _______ _______ _____ _____    ______ ____

>  <TORSDO>
F 5

$$$$
=
 OpenBabel11062417163D

 26 28  0  0  1  0  0  0  0  0999 V2000
  184.5020  178.3160  143.0550 C   0  0  0  0  0  0  0  0  0  0  0  0
  188.1000  177.3480  143.2190 C   0  0  0  0  0  0  0  0  0  0  0  0
  186.9580  178.0480  142.5760 C   0  0  0  0  0  0  0  0  0  0  0  0
  183.4540  178.5600  143.9920 N   0  0  0  0  0  1  0  0  0  0  0  0
  188.6400  178.9680  139.4070 C   0  0  0  0  0  2  0  0  0  0  0  0
  185.7900  178.4660  143.4260 C   0  0  2  0  0  3  0  0  0  0  0  0
  189.4370  177.3130  141.1250 C   0  0  1  0  0  3  0  0  0  0  0  0
  189.9490  176.3230  140.0780 C   0  0  0  0  0  2  0  0  0  0  0  0
  185.9630  178.8270  140.4080 C   0  0  0  0  0  3  0  0  0  0  0  0
  187.0710  178.3210  141.2490 C   0  0  0  0  0  0  0  0  0  0  0  0
  189.9740  177.4940  137.8250 C   0  0  0  0  0  2  0  0  0  0  0  0
  188.2570  177.3590  144.4690 O   0  0  0  0  0  0  0  0  0  0  0  0
  184.1230  177.9720  141.7270 N   0  0  0  0  0  0  0  0  0  0  0  0
  188.3460  178.1430  140.5810 N   0  0  0  0  0  0  0  0  0  0  0  0
  188.6100  178.1090  138.1530 C   0  0  0  0  0  2  0  0  0  0  0  0
  184.6640  178.6320  140.5900 C   0  0  0  0  0  3  0  0  0  0  0  0
  189.0160  176.5310  142.3610 C   0  0  1  0  0  3  0  0  0  0  0  0
  190.7930  177.0440  139.0390 C   0  0  0  0  0  2  0  0  0  0  0  0
  190.5000  175.9620  143.2680 S   0  0  0  0  0  0  0  0  0  0  0  0
  191.4170  177.4960  142.9270 C   0  0  0  0  0  2  0  0  0  0  0  0
  191.5180  178.3190  144.1630 C   0  0  0  0  0  0  0  0  0  0  0  0
  191.8100  177.7760  145.2600 O   0  0  0  0  0  1  0  0  0  0  0  0
  191.2540  179.6810  144.1140 O   0  0  0  0  0  0  0  0  0  0  0  0
  186.0750  179.0360  144.7920 C   0  0  0  0  0  2  0  0  0  0  0  0
  185.6690  178.0700  145.8940 C   0  0  0  0  0  2  0  0  0  0  0  0
  185.9030  178.7160  147.2430 C   0  0  0  0  0  1  0  0  0  0  0  0
  1  6  1  0  0  0  0
  1  4  1  0  0  0  0
  2 12  2  0  0  0  0
  3  2  1  0  0  0  0
  3  6  1  0  0  0  0
  5 14  1  0  0  0  0
  6 24  1  1  0  0  0
  7  8  1  6  0  0  0
  7 17  1  0  0  0  0
  9 16  2  0  0  0  0
  9 10  1  0  0  0  0
 10  3  2  0  0  0  0
 11 15  1  0  0  0  0
 11 18  1  0  0  0  0
 13  1  2  0  0  0  0
 14  7  1  0  0  0  0
 14 10  1  0  0  0  0
 15  5  1  0  0  0  0
 16 13  1  0  0  0  0
 17  2  1  0  0  0  0
 17 19  1  1  0  0  0
 18  8  1  0  0  0  0
 20 19  1  0  0  0  0
 20 21  1  0  0  0  0
 21 22  1  0  0  0  0
 23 21  2  0  0  0  0
 24 25  1  0  0  0  0
 25 26  1  0  0  0  0
M  END
>  <MODEL>
3

>  <REMARK>
 VINA RESULT:      -7.1      2.138      5.407
  Name = 
  5 active torsions:
  status: ('A' for Active; 'I' for Inactive)
    1  A    between atoms: C_3  and  C_11
    2  A    between atoms: C_5  and  C_22
    3  A    between atoms: C_8  and  C_22
    4  A    between atoms: C_11  and  S_14
    5  A    between atoms: S_14  and  C_24
                            x       y       z     vdW  Elec       q    Type
                         _______ _______ _______ _____ _____    ______ ____

>  <TORSDO>
F 5

$$$$
=
 OpenBabel11062417163D

 26 28  0  0  1  0  0  0  0  0999 V2000
  190.0820  176.5330  141.0030 C   0  0  0  0  0  0  0  0  0  0  0  0
  187.1110  178.2900  142.4140 C   0  0  0  0  0  0  0  0  0  0  0  0
  188.5070  177.7890  142.5100 C   0  0  0  0  0  0  0  0  0  0  0  0
  190.6510  176.3410  139.7080 N   0  0  0  0  0  1  0  0  0  0  0  0
  189.0210  178.3940  146.1280 C   0  0  0  0  0  2  0  0  0  0  0  0
  189.3000  177.6050  141.2460 C   0  0  0  0  0  0  0  0  0  0  0  0
  186.8370  178.4050  144.8810 C   0  0  1  0  0  3  0  0  0  0  0  0
  186.0750  177.7080  146.0090 C   0  0  0  0  0  2  0  0  0  0  0  0
  190.2870  176.9020  144.0390 C   0  0  0  0  0  3  0  0  0  0  0  0
  189.0020  177.5800  143.7590 C   0  0  0  0  0  0  0  0  0  0  0  0
  187.5430  177.7200  148.0810 C   0  0  0  0  0  2  0  0  0  0  0  0
  186.6810  178.8390  141.3650 O   0  0  0  0  0  0  0  0  0  0  0  0
  190.4230  175.5890  142.0120 N   0  0  0  0  0  2  0  0  0  0  0  0
  188.2700  178.0600  144.9160 N   0  0  0  0  0  0  0  0  0  0  0  0
  188.7460  177.3570  147.2060 C   0  0  0  0  0  2  0  0  0  0  0  0
  190.8900  175.9860  143.2940 C   0  0  0  0  0  3  0  0  0  0  0  0
  186.1780  178.0390  143.5590 C   0  0  1  0  0  3  0  0  0  0  0  0
  186.3750  178.3790  147.3410 C   0  0  0  0  0  2  0  0  0  0  0  0
  184.5980  178.9450  143.3830 S   0  0  0  0  0  0  0  0  0  0  0  0
  184.0320  177.8900  142.0130 C   0  0  0  0  0  2  0  0  0  0  0  0
  183.1090  178.6510  141.1270 C   0  0  0  0  0  0  0  0  0  0  0  0
  181.8830  178.7180  141.4020 O   0  0  0  0  0  1  0  0  0  0  0  0
  183.5940  179.2570  139.9760 O   0  0  0  0  0  0  0  0  0  0  0  0
  189.1740  178.6530  140.1700 C   0  0  0  0  0  2  0  0  0  0  0  0
  188.4500  178.1100  138.9470 C   0  0  0  0  0  2  0  0  0  0  0  0
  188.9750  178.7980  137.7050 C   0  0  0  0  0  1  0  0  0  0  0  0
  1  6  2  0  0  0  0
  1 13  1  0  0  0  0
  2  3  1  0  0  0  0
  2 17  1  0  0  0  0
  3 10  2  0  0  0  0
  4  1  1  0  0  0  0
  5 15  1  0  0  0  0
  6  3  1  0  0  0  0
  7 14  1  0  0  0  0
  7  8  1  1  0  0  0
  8 18  1  0  0  0  0
 10  9  1  0  0  0  0
 10 14  1  0  0  0  0
 12  2  2  0  0  0  0
 13 16  1  0  0  0  0
 14  5  1  0  0  0  0
 15 11  1  0  0  0  0
 16  9  2  0  0  0  0
 17 19  1  6  0  0  0
 17  7  1  0  0  0  0
 18 11  1  0  0  0  0
 20 19  1  0  0  0  0
 21 22  1  0  0  0  0
 21 20  1  0  0  0  0
 23 21  2  0  0  0  0
 24  6  1  0  0  0  0
 25 24  1  0  0  0  0
 26 25  1  0  0  0  0
M  END
>  <MODEL>
4

>  <REMARK>
 VINA RESULT:      -6.8      3.411      5.357
  Name = 
  5 active torsions:
  status: ('A' for Active; 'I' for Inactive)
    1  A    between atoms: C_3  and  C_11
    2  A    between atoms: C_5  and  C_22
    3  A    between atoms: C_8  and  C_22
    4  A    between atoms: C_11  and  S_14
    5  A    between atoms: S_14  and  C_24
                            x       y       z     vdW  Elec       q    Type
                         _______ _______ _______ _____ _____    ______ ____

>  <TORSDO>
F 5

$$$$
=
 OpenBabel11062417163D

 26 28  0  0  1  0  0  0  0  0999 V2000
  183.6130  178.4420  141.6010 C   0  0  0  0  0  0  0  0  0  0  0  0
  186.9770  177.8710  143.1060 C   0  0  0  0  0  0  0  0  0  0  0  0
  186.0950  178.3360  142.0040 C   0  0  0  0  0  0  0  0  0  0  0  0
  182.3030  178.7400  142.0820 N   0  0  0  0  0  1  0  0  0  0  0  0
  188.7110  178.8580  139.4350 C   0  0  0  0  0  2  0  0  0  0  0  0
  184.6950  178.7780  142.3320 C   0  0  2  0  0  3  0  0  0  0  0  0
  188.9410  177.6080  141.6050 C   0  0  1  0  0  3  0  0  0  0  0  0
  189.8090  176.5070  140.9940 C   0  0  0  0  0  2  0  0  0  0  0  0
  185.8600  178.6310  139.5230 C   0  0  0  0  0  3  0  0  0  0  0  0
  186.6380  178.3870  140.7590 C   0  0  0  0  0  0  0  0  0  0  0  0
  190.5490  177.2700  138.6890 C   0  0  0  0  0  2  0  0  0  0  0  0
  186.7050  178.1130  144.3110 O   0  0  0  0  0  0  0  0  0  0  0  0
  183.7150  177.8390  140.3160 N   0  0  0  0  0  0  0  0  0  0  0  0
  188.0690  178.2220  140.5870 N   0  0  0  0  0  0  0  0  0  0  0  0
  189.1340  177.7970  138.4310 C   0  0  0  0  0  2  0  0  0  0  0  0
  184.5830  178.3430  139.3090 C   0  0  0  0  0  3  0  0  0  0  0  0
  188.1570  177.0120  142.7660 C   0  0  1  0  0  3  0  0  0  0  0  0
  190.9280  177.1180  140.1650 C   0  0  0  0  0  2  0  0  0  0  0  0
  189.2680  176.7560  144.1970 S   0  0  0  0  0  0  0  0  0  0  0  0
  189.9900  178.4200  144.0600 C   0  0  0  0  0  2  0  0  0  0  0  0
  191.4730  178.3310  143.9710 C   0  0  0  0  0  0  0  0  0  0  0  0
  192.0180  177.2640  143.5870 O   0  0  0  0  0  0  0  0  0  0  0  0
  192.2580  179.4120  144.3480 O   0  0  0  0  0  1  0  0  0  0  0  0
  184.4850  179.6000  143.5790 C   0  0  0  0  0  2  0  0  0  0  0  0
  183.5230  178.9170  144.5390 C   0  0  0  0  0  2  0  0  0  0  0  0
  184.1620  178.8190  145.9070 C   0  0  0  0  0  1  0  0  0  0  0  0
  1  4  1  0  0  0  0
  1  6  1  0  0  0  0
  2 12  2  0  0  0  0
  3  6  1  0  0  0  0
  3  2  1  0  0  0  0
  5 14  1  0  0  0  0
  6 24  1  1  0  0  0
  7  8  1  6  0  0  0
  7 17  1  0  0  0  0
  9 10  1  0  0  0  0
 10  3  2  0  0  0  0
 11 18  1  0  0  0  0
 13  1  2  0  0  0  0
 14 10  1  0  0  0  0
 14  7  1  0  0  0  0
 15 11  1  0  0  0  0
 15  5  1  0  0  0  0
 16  9  2  0  0  0  0
 16 13  1  0  0  0  0
 17  2  1  0  0  0  0
 17 19  1  1  0  0  0
 18  8  1  0  0  0  0
 20 19  1  0  0  0  0
 21 20  1  0  0  0  0
 21 23  1  0  0  0  0
 22 21  2  0  0  0  0
 24 25  1  0  0  0  0
 25 26  1  0  0  0  0
M  END
>  <MODEL>
5

>  <REMARK>
 VINA RESULT:      -6.6      2.326      5.380
  Name = 
  5 active torsions:
  status: ('A' for Active; 'I' for Inactive)
    1  A    between atoms: C_3  and  C_11
    2  A    between atoms: C_5  and  C_22
    3  A    between atoms: C_8  and  C_22
    4  A    between atoms: C_11  and  S_14
    5  A    between atoms: S_14  and  C_24
                            x       y       z     vdW  Elec       q    Type
                         _______ _______ _______ _____ _____    ______ ____

>  <TORSDO>
F 5

$$$$
=
 OpenBabel11062417163D

 26 28  0  0  1  0  0  0  0  0999 V2000
  189.0020  176.8410  141.7840 C   0  0  0  0  0  0  0  0  0  0  0  0
  185.9950  178.4520  140.2770 C   0  0  0  0  0  0  0  0  0  0  0  0
  186.8850  178.1540  141.4300 C   0  0  0  0  0  0  0  0  0  0  0  0
  190.3110  176.4810  141.3440 N   0  0  0  0  0  1  0  0  0  0  0  0
  184.7100  179.4870  144.1140 C   0  0  0  0  0  2  0  0  0  0  0  0
  188.3310  177.8350  141.1670 C   0  0  0  0  0  0  0  0  0  0  0  0
  184.0580  178.9950  141.7360 C   0  0  1  0  0  3  0  0  0  0  0  0
  182.6890  178.4340  142.1220 C   0  0  0  0  0  2  0  0  0  0  0  0
  187.0100  177.7970  143.9100 C   0  0  0  0  0  3  0  0  0  0  0  0
  186.3380  178.2470  142.6700 C   0  0  0  0  0  0  0  0  0  0  0  0
  182.2520  179.0160  144.5550 C   0  0  0  0  0  2  0  0  0  0  0  0
  186.4630  178.7370  139.1430 O   0  0  0  0  0  0  0  0  0  0  0  0
  188.4800  176.1530  142.9150 N   0  0  0  0  0  2  0  0  0  0  0  0
  185.0250  178.8410  142.8390 N   0  0  0  0  0  0  0  0  0  0  0  0
  183.7020  178.6460  144.8830 C   0  0  0  0  0  2  0  0  0  0  0  0
  187.9190  176.8390  144.0270 C   0  0  0  0  0  3  0  0  0  0  0  0
  184.5150  178.3080  140.4570 C   0  0  1  0  0  3  0  0  0  0  0  0
  181.9880  179.3750  143.0890 C   0  0  0  0  0  2  0  0  0  0  0  0
  183.5720  178.9630  139.0320 S   0  0  0  0  0  0  0  0  0  0  0  0
  182.8670  177.3360  138.6250 C   0  0  0  0  0  2  0  0  0  0  0  0
  183.8000  176.5780  137.7460 C   0  0  0  0  0  0  0  0  0  0  0  0
  184.5310  177.1920  136.9260 O   0  0  0  0  0  0  0  0  0  0  0  0
  183.8370  175.1920  137.8050 O   0  0  0  0  0  1  0  0  0  0  0  0
  189.0550  178.6390  140.1170 C   0  0  0  0  0  2  0  0  0  0  0  0
  189.4030  177.7860  138.9060 C   0  0  0  0  0  2  0  0  0  0  0  0
  189.3520  178.6400  137.6580 C   0  0  0  0  0  1  0  0  0  0  0  0
  1 13  1  0  0  0  0
  2 17  1  0  0  0  0
  2  3  1  0  0  0  0
  3 10  2  0  0  0  0
  4  1  1  0  0  0  0
  5 15  1  0  0  0  0
  6  3  1  0  0  0  0
  6  1  2  0  0  0  0
  7  8  1  1  0  0  0
  7 14  1  0  0  0  0
  8 18  1  0  0  0  0
  9 16  2  0  0  0  0
 10 14  1  0  0  0  0
 10  9  1  0  0  0  0
 11 15  1  0  0  0  0
 12  2  2  0  0  0  0
 13 16  1  0  0  0  0
 14  5  1  0  0  0  0
 17 19  1  6  0  0  0
 17  7  1  0  0  0  0
 18 11  1  0  0  0  0
 20 19  1  0  0  0  0
 21 23  1  0  0  0  0
 21 20  1  0  0  0  0
 22 21  2  0  0  0  0
 24  6  1  0  0  0  0
 25 24  1  0  0  0  0
 26 25  1  0  0  0  0
M  END
>  <MODEL>
6

>  <REMARK>
 VINA RESULT:      -6.3      4.289      6.456
  Name = 
  5 active torsions:
  status: ('A' for Active; 'I' for Inactive)
    1  A    between atoms: C_3  and  C_11
    2  A    between atoms: C_5  and  C_22
    3  A    between atoms: C_8  and  C_22
    4  A    between atoms: C_11  and  S_14
    5  A    between atoms: S_14  and  C_24
                            x       y       z     vdW  Elec       q    Type
                         _______ _______ _______ _____ _____    ______ ____

>  <TORSDO>
F 5

$$$$
=
 OpenBabel11062417163D

 26 28  0  0  1  0  0  0  0  0999 V2000
  189.9880  176.1350  143.1390 C   0  0  0  0  0  0  0  0  0  0  0  0
  189.1300  177.8050  139.9170 C   0  0  0  0  0  0  0  0  0  0  0  0
  188.9150  177.5640  141.3680 C   0  0  0  0  0  0  0  0  0  0  0  0
  191.1700  175.6280  143.7580 N   0  0  0  0  0  1  0  0  0  0  0  0
  185.6860  179.3460  141.7100 C   0  0  0  0  0  2  0  0  0  0  0  0
  190.0750  177.1060  142.2070 C   0  0  0  0  0  0  0  0  0  0  0  0
  186.8190  178.6520  139.5750 C   0  0  1  0  0  3  0  0  0  0  0  0
  185.5100  178.2450  138.8960 C   0  0  0  0  0  2  0  0  0  0  0  0
  187.2280  177.4680  143.2220 C   0  0  0  0  0  3  0  0  0  0  0  0
  187.6770  177.8330  141.8600 C   0  0  0  0  0  0  0  0  0  0  0  0
  183.5840  179.1190  140.3010 C   0  0  0  0  0  2  0  0  0  0  0  0
  190.2880  177.9280  139.4360 O   0  0  0  0  0  0  0  0  0  0  0  0
  188.7410  175.6160  143.5890 N   0  0  0  0  0  2  0  0  0  0  0  0
  186.7120  178.5430  141.0410 N   0  0  0  0  0  0  0  0  0  0  0  0
  184.3290  178.6750  141.5630 C   0  0  0  0  0  2  0  0  0  0  0  0
  187.6610  176.4600  143.9660 C   0  0  0  0  0  3  0  0  0  0  0  0
  187.9420  177.7980  139.0040 C   0  0  1  0  0  3  0  0  0  0  0  0
  184.4660  179.3370  139.0670 C   0  0  0  0  0  2  0  0  0  0  0  0
  188.3560  178.3670  137.3150 S   0  0  0  0  0  0  0  0  0  0  0  0
  188.1060  176.7170  136.5920 C   0  0  0  0  0  2  0  0  0  0  0  0
  189.3410  175.8990  136.7400 C   0  0  0  0  0  0  0  0  0  0  0  0
  189.2710  174.7300  137.2020 O   0  0  0  0  0  1  0  0  0  0  0  0
  190.5750  176.4380  136.4050 O   0  0  0  0  0  0  0  0  0  0  0  0
  191.4230  177.7320  141.9560 C   0  0  0  0  0  2  0  0  0  0  0  0
  191.9770  178.3860  143.2130 C   0  0  0  0  0  2  0  0  0  0  0  0
  190.9400  179.3240  143.7910 C   0  0  0  0  0  1  0  0  0  0  0  0
  1 13  1  0  0  0  0
  1  4  1  0  0  0  0
  2  3  1  0  0  0  0
  3 10  2  0  0  0  0
  3  6  1  0  0  0  0
  6  1  2  0  0  0  0
  7  8  1  6  0  0  0
  7 14  1  0  0  0  0
  8 18  1  0  0  0  0
  9 16  2  0  0  0  0
 10  9  1  0  0  0  0
 11 15  1  0  0  0  0
 12  2  2  0  0  0  0
 13 16  1  0  0  0  0
 14  5  1  0  0  0  0
 14 10  1  0  0  0  0
 15  5  1  0  0  0  0
 17 19  1  6  0  0  0
 17  7  1  0  0  0  0
 17  2  1  0  0  0  0
 18 11  1  0  0  0  0
 20 21  1  0  0  0  0
 20 19  1  0  0  0  0
 21 22  1  0  0  0  0
 23 21  2  0  0  0  0
 24  6  1  0  0  0  0
 24 25  1  0  0  0  0
 25 26  1  0  0  0  0
M  END
>  <MODEL>
7

>  <REMARK>
 VINA RESULT:      -6.2      3.500      6.330
  Name = 
  5 active torsions:
  status: ('A' for Active; 'I' for Inactive)
    1  A    between atoms: C_3  and  C_11
    2  A    between atoms: C_5  and  C_22
    3  A    between atoms: C_8  and  C_22
    4  A    between atoms: C_11  and  S_14
    5  A    between atoms: S_14  and  C_24
                            x       y       z     vdW  Elec       q    Type
                         _______ _______ _______ _____ _____    ______ ____

>  <TORSDO>
F 5

$$$$
=
 OpenBabel11062417163D

 26 28  0  0  1  0  0  0  0  0999 V2000
  188.3210  177.1660  142.4310 C   0  0  0  0  0  0  0  0  0  0  0  0
  185.5320  178.3580  140.2620 C   0  0  0  0  0  0  0  0  0  0  0  0
  186.2130  178.2420  141.5780 C   0  0  0  0  0  0  0  0  0  0  0  0
  189.7120  176.8920  142.2680 N   0  0  0  0  0  1  0  0  0  0  0  0
  183.4830  179.5890  143.6880 C   0  0  0  0  0  2  0  0  0  0  0  0
  187.7020  178.0370  141.6090 C   0  0  0  0  0  0  0  0  0  0  0  0
  183.3230  178.8390  141.2930 C   0  0  1  0  0  3  0  0  0  0  0  0
  181.9520  178.1880  141.4850 C   0  0  0  0  0  2  0  0  0  0  0  0
  185.9040  178.1080  144.0640 C   0  0  0  0  0  3  0  0  0  0  0  0
  185.4400  178.3880  142.6860 C   0  0  0  0  0  0  0  0  0  0  0  0
  181.0300  178.9300  143.7310 C   0  0  0  0  0  2  0  0  0  0  0  0
  186.1790  178.5880  139.2060 O   0  0  0  0  0  0  0  0  0  0  0  0
  187.6530  176.5300  143.5150 N   0  0  0  0  0  2  0  0  0  0  0  0
  184.0770  178.8700  142.5590 N   0  0  0  0  0  0  0  0  0  0  0  0
  182.4180  178.7260  144.3460 C   0  0  0  0  0  2  0  0  0  0  0  0
  186.8450  177.2520  144.4350 C   0  0  0  0  0  3  0  0  0  0  0  0
  184.0590  178.0920  140.1900 C   0  0  1  0  0  3  0  0  0  0  0  0
  181.0150  179.1380  142.2140 C   0  0  0  0  0  2  0  0  0  0  0  0
  183.3490  178.5340  138.5630 S   0  0  0  0  0  0  0  0  0  0  0  0
  183.1680  180.2890  139.0080 C   0  0  0  0  0  2  0  0  0  0  0  0
  181.8310  180.7900  138.5870 C   0  0  0  0  0  0  0  0  0  0  0  0
  181.6830  181.9970  138.2650 O   0  0  0  0  0  0  0  0  0  0  0  0
  180.7380  179.9340  138.5850 O   0  0  0  0  0  1  0  0  0  0  0  0
  188.5450  178.8130  140.6290 C   0  0  0  0  0  2  0  0  0  0  0  0
  189.1640  177.8990  139.5820 C   0  0  0  0  0  2  0  0  0  0  0  0
  189.2720  178.6410  138.2670 C   0  0  0  0  0  1  0  0  0  0  0  0
  1 13  1  0  0  0  0
  2  3  1  0  0  0  0
  3  6  1  0  0  0  0
  3 10  2  0  0  0  0
  4  1  1  0  0  0  0
  5 15  1  0  0  0  0
  6  1  2  0  0  0  0
  7  8  1  1  0  0  0
  7 14  1  0  0  0  0
  8 18  1  0  0  0  0
  9 16  2  0  0  0  0
 10  9  1  0  0  0  0
 11 15  1  0  0  0  0
 12  2  2  0  0  0  0
 13 16  1  0  0  0  0
 14 10  1  0  0  0  0
 14  5  1  0  0  0  0
 17 19  1  6  0  0  0
 17  2  1  0  0  0  0
 17  7  1  0  0  0  0
 18 11  1  0  0  0  0
 19 20  1  0  0  0  0
 21 20  1  0  0  0  0
 22 21  2  0  0  0  0
 23 21  1  0  0  0  0
 24  6  1  0  0  0  0
 25 24  1  0  0  0  0
 26 25  1  0  0  0  0
M  END
>  <MODEL>
8

>  <REMARK>
 VINA RESULT:      -6.1      4.518      7.261
  Name = 
  5 active torsions:
  status: ('A' for Active; 'I' for Inactive)
    1  A    between atoms: C_3  and  C_11
    2  A    between atoms: C_5  and  C_22
    3  A    between atoms: C_8  and  C_22
    4  A    between atoms: C_11  and  S_14
    5  A    between atoms: S_14  and  C_24
                            x       y       z     vdW  Elec       q    Type
                         _______ _______ _______ _____ _____    ______ ____

>  <TORSDO>
F 5

$$$$
=
 OpenBabel11062417163D

 26 28  0  0  1  0  0  0  0  0999 V2000
  180.5760  177.0070  140.3180 C   0  0  0  0  0  0  0  0  0  0  0  0
  183.0560  178.7830  142.4630 C   0  0  0  0  0  0  0  0  0  0  0  0
  182.5840  178.2760  141.1480 C   0  0  0  0  0  0  0  0  0  0  0  0
  179.1630  176.8070  140.3210 N   0  0  0  0  0  1  0  0  0  0  0  0
  185.6830  178.8950  139.2170 C   0  0  0  0  0  2  0  0  0  0  0  0
  181.1080  178.0830  140.9330 C   0  0  2  0  0  3  0  0  0  0  0  0
  185.4230  178.9110  141.7180 C   0  0  1  0  0  3  0  0  0  0  0  0
  186.7670  178.2210  141.9620 C   0  0  0  0  0  2  0  0  0  0  0  0
  183.2700  177.3880  138.9050 C   0  0  0  0  0  3  0  0  0  0  0  0
  183.5270  178.0710  140.1920 C   0  0  0  0  0  0  0  0  0  0  0  0
  188.0700  178.2360  139.7830 C   0  0  0  0  0  2  0  0  0  0  0  0
  182.2660  179.3300  143.2780 O   0  0  0  0  0  0  0  0  0  0  0  0
  181.3670  176.0660  139.6020 N   0  0  0  0  0  0  0  0  0  0  0  0
  184.8790  178.5590  140.3940 N   0  0  0  0  0  0  0  0  0  0  0  0
  186.7860  177.8640  139.0350 C   0  0  0  0  0  2  0  0  0  0  0  0
  182.3500  176.4660  138.6560 C   0  0  0  0  0  3  0  0  0  0  0  0
  184.4810  178.5420  142.8560 C   0  0  1  0  0  3  0  0  0  0  0  0
  187.8600  178.8970  141.1490 C   0  0  0  0  0  2  0  0  0  0  0  0
  184.9530  179.4540  144.3700 S   0  0  0  0  0  0  0  0  0  0  0  0
  185.7270  177.9920  145.1280 C   0  0  0  0  0  2  0  0  0  0  0  0
  186.2040  178.3180  146.5000 C   0  0  0  0  0  0  0  0  0  0  0  0
  187.0860  177.6060  147.0460 O   0  0  0  0  0  0  0  0  0  0  0  0
  185.6490  179.3860  147.1930 O   0  0  0  0  0  1  0  0  0  0  0  0
  180.1690  179.1270  141.4800 C   0  0  0  0  0  2  0  0  0  0  0  0
  180.1100  180.3510  140.5780 C   0  0  0  0  0  2  0  0  0  0  0  0
  179.0070  181.2730  141.0510 C   0  0  0  0  0  1  0  0  0  0  0  0
  1  4  1  0  0  0  0
  1  6  1  0  0  0  0
  2 17  1  0  0  0  0
  2 12  2  0  0  0  0
  3  2  1  0  0  0  0
  5 14  1  0  0  0  0
  6  3  1  0  0  0  0
  6 24  1  1  0  0  0
  7  8  1  1  0  0  0
  7 17  1  0  0  0  0
  9 10  1  0  0  0  0
 10 14  1  0  0  0  0
 10  3  2  0  0  0  0
 11 18  1  0  0  0  0
 13  1  2  0  0  0  0
 14  7  1  0  0  0  0
 15  5  1  0  0  0  0
 15 11  1  0  0  0  0
 16  9  2  0  0  0  0
 16 13  1  0  0  0  0
 17 19  1  1  0  0  0
 18  8  1  0  0  0  0
 19 20  1  0  0  0  0
 20 21  1  0  0  0  0
 21 22  2  0  0  0  0
 21 23  1  0  0  0  0
 25 26  1  0  0  0  0
 25 24  1  0  0  0  0
M  END
>  <MODEL>
9

>  <REMARK>
 VINA RESULT:      -6.0      4.451      7.080
  Name = 
  5 active torsions:
  status: ('A' for Active; 'I' for Inactive)
    1  A    between atoms: C_3  and  C_11
    2  A    between atoms: C_5  and  C_22
    3  A    between atoms: C_8  and  C_22
    4  A    between atoms: C_11  and  S_14
    5  A    between atoms: S_14  and  C_24
                            x       y       z     vdW  Elec       q    Type
                         _______ _______ _______ _____ _____    ______ ____

>  <TORSDO>
F 5

$$$$
