=
 OpenBabel11062413273D

 30 34  0  0  1  0  0  0  0  0999 V2000
  190.2800  176.5470  140.7760 O   0  0  0  0  0  0  0  0  0  0  0  0
  185.1700  179.1330  140.3910 C   0  0  0  0  0  0  0  0  0  0  0  0
  187.6960  175.5220  137.7170 C   0  0  0  0  0  2  0  0  0  0  0  0
  184.6150  179.6720  139.3990 O   0  0  0  0  0  0  0  0  0  0  0  0
  184.4080  179.0150  141.6410 C   0  0  0  0  0  3  0  0  0  0  0  0
  186.8700  176.1630  136.5920 C   0  0  0  0  0  2  0  0  0  0  0  0
  192.6660  176.2690  137.5810 C   0  0  0  0  0  2  0  0  0  0  0  0
  189.0820  177.1830  140.4800 C   0  0  0  0  0  0  0  0  0  0  0  0
  187.0490  177.8570  139.1240 C   0  0  2  0  0  3  0  0  0  0  0  0
  189.0260  177.4080  144.0890 C   0  0  0  0  0  1  0  0  0  0  0  0
  193.9700  174.3770  137.1940 C   0  0  0  0  0  1  0  0  0  0  0  0
  190.1290  176.0360  137.6680 C   0  0  0  0  0  0  0  0  0  0  0  0
  184.9620  178.4990  142.7340 C   0  0  0  0  0  0  0  0  0  0  0  0
  189.3160  178.8190  138.6450 C   0  0  0  0  0  1  0  0  0  0  0  0
  189.1730  176.9570  142.7160 N   0  0  0  0  0  0  0  0  0  0  0  0
  186.4800  178.3930  137.7900 C   0  0  0  0  0  2  0  0  0  0  0  0
  188.8850  176.3650  138.1340 C   0  0  0  0  0  0  0  0  0  0  0  0
  190.4080  176.3960  142.1870 C   0  0  0  0  0  2  0  0  0  0  0  0
  186.6380  178.7350  140.3370 C   0  0  2  0  0  3  0  0  0  0  0  0
  192.6370  174.8170  137.5620 N   0  0  0  0  0  0  0  0  0  0  0  0
  186.9830  177.6880  136.5300 C   0  0  0  0  0  2  0  0  0  0  0  0
  191.7600  174.4550  136.4590 C   0  0  0  0  0  2  0  0  0  0  0  0
  187.1110  178.0750  141.6200 C   0  0  0  0  0  0  0  0  0  0  0  0
  188.5940  177.5460  139.0880 C   0  0  1  0  0  0  0  0  0  0  0  0
  188.4380  177.4460  141.6000 C   0  0  0  0  0  0  0  0  0  0  0  0
  189.6370  175.0120  135.5550 O   0  0  0  0  0  1  0  0  0  0  0  0
  190.3050  174.8170  136.7640 C   0  0  2  0  0  3  0  0  0  0  0  0
  191.3530  176.8070  138.1330 C   0  0  0  0  0  2  0  0  0  0  0  0
  184.1990  178.4000  143.9300 N   0  0  0  0  0  1  0  0  0  0  0  0
  186.3390  177.9900  142.7100 C   0  0  0  0  0  3  0  0  0  0  0  0
  1 18  1  0  0  0  0
  2  5  1  0  0  0  0
  3 17  1  0  0  0  0
  4  2  2  0  0  0  0
  5 13  2  0  0  0  0
  6  3  1  0  0  0  0
  7 28  1  0  0  0  0
  8  1  1  0  0  0  0
  8 25  2  0  0  0  0
  9 16  1  6  0  0  0
  9 19  1  0  0  0  0
 11 20  1  0  0  0  0
 12 28  1  0  0  0  0
 12 17  2  0  0  0  0
 13 29  1  0  0  0  0
 15 10  1  0  0  0  0
 17 24  1  0  0  0  0
 18 15  1  0  0  0  0
 19  2  1  1  0  0  0
 19 23  1  0  0  0  0
 20  7  1  0  0  0  0
 21  6  1  0  0  0  0
 21 16  1  0  0  0  0
 22 27  1  0  0  0  0
 22 20  1  0  0  0  0
 23 30  2  0  0  0  0
 24 14  1  6  0  0  0
 24  9  1  0  0  0  0
 24  8  1  0  0  0  0
 25 23  1  0  0  0  0
 25 15  1  0  0  0  0
 27 26  1  6  0  0  0
 27 12  1  0  0  0  0
 30 13  1  0  0  0  0
M  END
>  <MODEL>
1

>  <REMARK>
 VINA RESULT:      -8.4      0.000      0.000
  Name = 
  0 active torsions:
  status: ('A' for Active; 'I' for Inactive)
                            x       y       z     vdW  Elec       q    Type
                         _______ _______ _______ _____ _____    ______ ____

>  <TORSDO>
F 0

$$$$
=
 OpenBabel11062413273D

 30 34  0  0  1  0  0  0  0  0999 V2000
  187.1210  178.0610  141.3960 O   0  0  0  0  0  0  0  0  0  0  0  0
  188.2730  177.4180  146.9830 C   0  0  0  0  0  0  0  0  0  0  0  0
  191.0040  178.5030  142.7470 C   0  0  0  0  0  2  0  0  0  0  0  0
  189.1650  176.7310  147.5450 O   0  0  0  0  0  0  0  0  0  0  0  0
  187.4380  178.2960  147.8130 C   0  0  0  0  0  3  0  0  0  0  0  0
  192.0670  177.7640  143.5720 C   0  0  0  0  0  2  0  0  0  0  0  0
  189.3000  176.1600  138.6370 C   0  0  0  0  0  2  0  0  0  0  0  0
  187.5660  177.8000  142.6860 C   0  0  0  0  0  0  0  0  0  0  0  0
  189.2110  177.3380  144.5580 C   0  0  2  0  0  3  0  0  0  0  0  0
  184.2910  179.1430  143.4230 C   0  0  0  0  0  1  0  0  0  0  0  0
  189.8300  177.1600  136.6010 C   0  0  0  0  0  1  0  0  0  0  0  0
  190.1060  177.2370  140.8020 C   0  0  0  0  0  0  0  0  0  0  0  0
  186.4500  179.0060  147.2780 C   0  0  0  0  0  0  0  0  0  0  0  0
  188.6090  175.5690  142.8830 C   0  0  0  0  0  1  0  0  0  0  0  0
  185.6130  178.8980  142.8730 N   0  0  0  0  0  0  0  0  0  0  0  0
  190.4130  176.5140  145.0760 C   0  0  0  0  0  2  0  0  0  0  0  0
  189.9830  177.5700  142.1240 C   0  0  0  0  0  0  0  0  0  0  0  0
  185.8690  178.7390  141.4490 C   0  0  0  0  0  2  0  0  0  0  0  0
  187.9800  177.2430  145.5000 C   0  0  2  0  0  3  0  0  0  0  0  0
  189.7880  177.3880  138.0340 N   0  0  0  0  0  0  0  0  0  0  0  0
  191.6010  176.4130  144.1190 C   0  0  0  0  0  2  0  0  0  0  0  0
  191.1680  177.5220  138.4740 C   0  0  0  0  0  2  0  0  0  0  0  0
  186.8940  178.1810  145.0050 C   0  0  0  0  0  0  0  0  0  0  0  0
  188.8490  177.0710  143.0470 C   0  0  1  0  0  0  0  0  0  0  0  0
  186.6880  178.2610  143.5540 C   0  0  0  0  0  0  0  0  0  0  0  0
  192.4760  177.3790  140.4510 O   0  0  0  0  0  1  0  0  0  0  0  0
  191.2450  177.8290  139.9720 C   0  0  2  0  0  3  0  0  0  0  0  0
  189.0550  176.3750  140.1250 C   0  0  0  0  0  2  0  0  0  0  0  0
  185.6580  179.8460  148.1080 N   0  0  0  0  0  1  0  0  0  0  0  0
  186.1940  178.9670  145.8320 C   0  0  0  0  0  3  0  0  0  0  0  0
  1 18  1  0  0  0  0
  1  8  1  0  0  0  0
  2  4  2  0  0  0  0
  2  5  1  0  0  0  0
  3  6  1  0  0  0  0
  6 21  1  0  0  0  0
  7 28  1  0  0  0  0
  8 24  1  0  0  0  0
  8 25  2  0  0  0  0
  9 16  1  1  0  0  0
  9 19  1  0  0  0  0
 11 20  1  0  0  0  0
 12 17  2  0  0  0  0
 13  5  2  0  0  0  0
 13 29  1  0  0  0  0
 15 10  1  0  0  0  0
 15 25  1  0  0  0  0
 17  3  1  0  0  0  0
 17 24  1  0  0  0  0
 18 15  1  0  0  0  0
 19 23  1  6  0  0  0
 19  2  1  0  0  0  0
 20 22  1  0  0  0  0
 20  7  1  0  0  0  0
 21 16  1  0  0  0  0
 22 27  1  0  0  0  0
 23 30  2  0  0  0  0
 24 14  1  6  0  0  0
 24  9  1  0  0  0  0
 25 23  1  0  0  0  0
 27 26  1  1  0  0  0
 27 12  1  0  0  0  0
 28 12  1  0  0  0  0
 30 13  1  0  0  0  0
M  END
>  <MODEL>
2

>  <REMARK>
 VINA RESULT:      -7.3      2.669      5.517
  Name = 
  0 active torsions:
  status: ('A' for Active; 'I' for Inactive)
                            x       y       z     vdW  Elec       q    Type
                         _______ _______ _______ _____ _____    ______ ____

>  <TORSDO>
F 0

$$$$
=
 OpenBabel11062413273D

 30 34  0  0  1  0  0  0  0  0999 V2000
  185.2710  178.2220  141.0670 O   0  0  0  0  0  0  0  0  0  0  0  0
  179.6420  179.3060  140.7730 C   0  0  0  0  0  0  0  0  0  0  0  0
  182.9640  176.2960  138.2280 C   0  0  0  0  0  2  0  0  0  0  0  0
  178.9310  179.5940  139.7760 O   0  0  0  0  0  0  0  0  0  0  0  0
  178.9800  179.0910  142.0660 C   0  0  0  0  0  3  0  0  0  0  0  0
  181.9610  176.5990  137.1060 C   0  0  0  0  0  2  0  0  0  0  0  0
  187.5400  178.3330  137.7780 C   0  0  0  0  0  2  0  0  0  0  0  0
  183.9360  178.4870  140.7910 C   0  0  0  0  0  0  0  0  0  0  0  0
  181.7550  178.4800  139.5000 C   0  0  2  0  0  3  0  0  0  0  0  0
  183.9360  178.9830  144.3730 C   0  0  0  0  0  1  0  0  0  0  0  0
  189.2950  176.8340  137.4570 C   0  0  0  0  0  1  0  0  0  0  0  0
  185.1650  177.4380  138.0150 C   0  0  0  0  0  0  0  0  0  0  0  0
  179.6880  178.8320  143.1620 C   0  0  0  0  0  0  0  0  0  0  0  0
  183.6600  179.9710  138.8360 C   0  0  0  0  0  1  0  0  0  0  0  0
  184.1570  178.4770  143.0290 N   0  0  0  0  0  0  0  0  0  0  0  0
  181.0200  178.7330  138.1640 C   0  0  0  0  0  2  0  0  0  0  0  0
  183.8930  177.4580  138.5220 C   0  0  0  0  0  0  0  0  0  0  0  0
  185.4800  178.2260  142.4770 C   0  0  0  0  0  2  0  0  0  0  0  0
  181.1600  179.3120  140.6700 C   0  0  2  0  0  3  0  0  0  0  0  0
  187.9040  176.9290  137.8630 N   0  0  0  0  0  0  0  0  0  0  0  0
  181.6550  178.0880  136.9320 C   0  0  0  0  0  2  0  0  0  0  0  0
  187.1240  176.2570  136.8350 C   0  0  0  0  0  2  0  0  0  0  0  0
  181.8360  178.9090  141.9680 C   0  0  0  0  0  0  0  0  0  0  0  0
  183.3250  178.5920  139.4050 C   0  0  1  0  0  0  0  0  0  0  0  0
  183.2810  178.6590  141.9220 C   0  0  0  0  0  0  0  0  0  0  0  0
  184.9010  176.1500  136.0070 O   0  0  0  0  0  1  0  0  0  0  0  0
  185.6360  176.2400  137.1900 C   0  0  2  0  0  3  0  0  0  0  0  0
  186.1480  178.5430  138.3600 C   0  0  0  0  0  2  0  0  0  0  0  0
  179.0190  178.6300  144.4000 N   0  0  0  0  0  1  0  0  0  0  0  0
  181.1500  178.7100  143.1000 C   0  0  0  0  0  3  0  0  0  0  0  0
  1 18  1  0  0  0  0
  2  5  1  0  0  0  0
  3 17  1  0  0  0  0
  4  2  2  0  0  0  0
  5 13  2  0  0  0  0
  6  3  1  0  0  0  0
  7 20  1  0  0  0  0
  7 28  1  0  0  0  0
  8  1  1  0  0  0  0
  8 25  2  0  0  0  0
  9 16  1  6  0  0  0
  9 19  1  0  0  0  0
 11 20  1  0  0  0  0
 12 28  1  0  0  0  0
 12 17  2  0  0  0  0
 13 29  1  0  0  0  0
 15 10  1  0  0  0  0
 17 24  1  0  0  0  0
 18 15  1  0  0  0  0
 19  2  1  1  0  0  0
 19 23  1  0  0  0  0
 21  6  1  0  0  0  0
 21 16  1  0  0  0  0
 22 27  1  0  0  0  0
 22 20  1  0  0  0  0
 23 30  2  0  0  0  0
 24 14  1  6  0  0  0
 24  9  1  0  0  0  0
 24  8  1  0  0  0  0
 25 23  1  0  0  0  0
 25 15  1  0  0  0  0
 27 26  1  6  0  0  0
 27 12  1  0  0  0  0
 30 13  1  0  0  0  0
M  END
>  <MODEL>
3

>  <REMARK>
 VINA RESULT:      -7.0      3.442      5.297
  Name = 
  0 active torsions:
  status: ('A' for Active; 'I' for Inactive)
                            x       y       z     vdW  Elec       q    Type
                         _______ _______ _______ _____ _____    ______ ____

>  <TORSDO>
F 0

$$$$
=
 OpenBabel11062413273D

 30 34  0  0  1  0  0  0  0  0999 V2000
  183.8440  178.8920  141.6280 O   0  0  0  0  0  0  0  0  0  0  0  0
  185.5790  177.4670  136.3450 C   0  0  0  0  0  0  0  0  0  0  0  0
  181.7330  180.2560  138.3450 C   0  0  0  0  0  2  0  0  0  0  0  0
  184.9190  177.0000  135.3810 O   0  0  0  0  0  0  0  0  0  0  0  0
  186.9840  177.8310  136.1200 C   0  0  0  0  0  3  0  0  0  0  0  0
  181.0560  179.7390  137.0680 C   0  0  0  0  0  2  0  0  0  0  0  0
  180.0220  178.4310  142.7070 C   0  0  0  0  0  2  0  0  0  0  0  0
  184.0640  178.5160  140.3090 C   0  0  0  0  0  0  0  0  0  0  0  0
  183.5850  178.2160  137.8380 C   0  0  2  0  0  3  0  0  0  0  0  0
  187.4710  178.5440  141.5190 C   0  0  0  0  0  1  0  0  0  0  0  0
  178.9580  179.9620  144.1040 C   0  0  0  0  0  1  0  0  0  0  0  0
  180.9330  179.2190  140.4610 C   0  0  0  0  0  0  0  0  0  0  0  0
  187.7420  178.2830  137.1140 C   0  0  0  0  0  0  0  0  0  0  0  0
  182.5030  176.7520  139.5640 C   0  0  0  0  0  1  0  0  0  0  0  0
  186.0810  178.8610  141.2400 N   0  0  0  0  0  0  0  0  0  0  0  0
  182.6120  177.7320  136.7380 C   0  0  0  0  0  2  0  0  0  0  0  0
  181.8350  179.2020  139.4300 C   0  0  0  0  0  0  0  0  0  0  0  0
  185.0920  179.1030  142.2810 C   0  0  0  0  0  2  0  0  0  0  0  0
  184.9760  177.5300  137.7400 C   0  0  2  0  0  3  0  0  0  0  0  0
  179.8140  179.8510  142.9380 N   0  0  0  0  0  0  0  0  0  0  0  0
  181.1710  178.2260  136.8720 C   0  0  0  0  0  2  0  0  0  0  0  0
  179.0350  180.3230  141.8040 C   0  0  0  0  0  2  0  0  0  0  0  0
  185.9160  178.1530  138.7560 C   0  0  0  0  0  0  0  0  0  0  0  0
  182.9840  178.1790  139.2950 C   0  0  1  0  0  0  0  0  0  0  0  0
  185.3600  178.4730  140.0760 C   0  0  0  0  0  0  0  0  0  0  0  0
  178.9920  180.1870  139.4330 O   0  0  0  0  0  1  0  0  0  0  0  0
  179.8630  180.3090  140.5170 C   0  0  2  0  0  3  0  0  0  0  0  0
  181.0570  178.2310  141.6080 C   0  0  0  0  0  2  0  0  0  0  0  0
  189.0990  178.6250  136.8660 N   0  0  0  0  0  1  0  0  0  0  0  0
  187.1810  178.4760  138.4580 C   0  0  0  0  0  3  0  0  0  0  0  0
  1 18  1  0  0  0  0
  3 17  1  0  0  0  0
  4  2  2  0  0  0  0
  5  2  1  0  0  0  0
  5 13  2  0  0  0  0
  6  3  1  0  0  0  0
  7 20  1  0  0  0  0
  8  1  1  0  0  0  0
  9 16  1  6  0  0  0
  9 24  1  0  0  0  0
 12 27  1  0  0  0  0
 12 28  1  0  0  0  0
 13 30  1  0  0  0  0
 15 10  1  0  0  0  0
 15 18  1  0  0  0  0
 16 21  1  0  0  0  0
 17 12  2  0  0  0  0
 19  2  1  6  0  0  0
 19  9  1  0  0  0  0
 19 23  1  0  0  0  0
 20 11  1  0  0  0  0
 21  6  1  0  0  0  0
 22 20  1  0  0  0  0
 23 25  1  0  0  0  0
 24 17  1  0  0  0  0
 24 14  1  1  0  0  0
 24  8  1  0  0  0  0
 25  8  2  0  0  0  0
 25 15  1  0  0  0  0
 27 26  1  6  0  0  0
 27 22  1  0  0  0  0
 28  7  1  0  0  0  0
 29 13  1  0  0  0  0
 30 23  2  0  0  0  0
M  END
>  <MODEL>
4

>  <REMARK>
 VINA RESULT:      -7.0      3.661      8.496
  Name = 
  0 active torsions:
  status: ('A' for Active; 'I' for Inactive)
                            x       y       z     vdW  Elec       q    Type
                         _______ _______ _______ _____ _____    ______ ____

>  <TORSDO>
F 0

$$$$
=
 OpenBabel11062413273D

 30 34  0  0  1  0  0  0  0  0999 V2000
  187.0210  177.1290  139.0700 O   0  0  0  0  0  0  0  0  0  0  0  0
  192.6750  176.4080  138.3970 C   0  0  0  0  0  0  0  0  0  0  0  0
  189.3420  176.0310  142.3110 C   0  0  0  0  0  2  0  0  0  0  0  0
  193.6300  176.8650  139.0770 O   0  0  0  0  0  0  0  0  0  0  0  0
  192.9760  175.4520  137.3230 C   0  0  0  0  0  3  0  0  0  0  0  0
  190.6030  176.4640  143.0710 C   0  0  0  0  0  2  0  0  0  0  0  0
  185.5970  179.3780  142.0530 C   0  0  0  0  0  2  0  0  0  0  0  0
  188.4070  177.0560  139.0860 C   0  0  0  0  0  0  0  0  0  0  0  0
  190.7450  176.9330  140.0590 C   0  0  2  0  0  3  0  0  0  0  0  0
  187.7670  175.9010  135.7200 C   0  0  0  0  0  1  0  0  0  0  0  0
  183.6410  178.8060  143.1830 C   0  0  0  0  0  1  0  0  0  0  0  0
  187.5790  177.7760  142.1060 C   0  0  0  0  0  0  0  0  0  0  0  0
  192.0110  174.9750  136.5420 C   0  0  0  0  0  0  0  0  0  0  0  0
  189.4420  179.0770  140.0580 C   0  0  0  0  0  1  0  0  0  0  0  0
  187.7220  176.1340  137.1530 N   0  0  0  0  0  0  0  0  0  0  0  0
  191.7860  177.5030  141.0500 C   0  0  0  0  0  2  0  0  0  0  0  0
  188.6810  177.1720  141.5610 C   0  0  0  0  0  0  0  0  0  0  0  0
  186.5250  176.5800  137.8530 C   0  0  0  0  0  2  0  0  0  0  0  0
  191.2610  176.9340  138.5940 C   0  0  2  0  0  3  0  0  0  0  0  0
  184.8940  178.2720  142.6820 N   0  0  0  0  0  0  0  0  0  0  0  0
  191.2900  177.6990  142.4830 C   0  0  0  0  0  2  0  0  0  0  0  0
  185.6890  177.9130  143.8470 C   0  0  0  0  0  2  0  0  0  0  0  0
  190.2490  176.2370  137.7030 C   0  0  0  0  0  0  0  0  0  0  0  0
  189.3060  177.5610  140.2020 C   0  0  1  0  0  0  0  0  0  0  0  0
  188.8290  176.5000  137.9690 C   0  0  0  0  0  0  0  0  0  0  0  0
  187.9430  177.4890  144.4600 O   0  0  0  0  0  1  0  0  0  0  0  0
  187.0190  177.2760  143.4370 C   0  0  2  0  0  3  0  0  0  0  0  0
  186.8420  178.8630  141.3430 C   0  0  0  0  0  2  0  0  0  0  0  0
  192.3330  174.0520  135.5100 N   0  0  0  0  0  1  0  0  0  0  0  0
  190.6090  175.3570  136.7610 C   0  0  0  0  0  3  0  0  0  0  0  0
  1  8  1  0  0  0  0
  2 19  1  0  0  0  0
  2  4  2  0  0  0  0
  3  6  1  0  0  0  0
  5  2  1  0  0  0  0
  7 20  1  0  0  0  0
  8 24  1  0  0  0  0
  9 24  1  0  0  0  0
  9 16  1  1  0  0  0
 10 15  1  0  0  0  0
 12 27  1  0  0  0  0
 13 30  1  0  0  0  0
 13  5  2  0  0  0  0
 15 18  1  0  0  0  0
 15 25  1  0  0  0  0
 16 21  1  0  0  0  0
 17 12  2  0  0  0  0
 17  3  1  0  0  0  0
 18  1  1  0  0  0  0
 19 23  1  6  0  0  0
 19  9  1  0  0  0  0
 20 11  1  0  0  0  0
 20 22  1  0  0  0  0
 21  6  1  0  0  0  0
 23 25  1  0  0  0  0
 24 14  1  6  0  0  0
 24 17  1  0  0  0  0
 25  8  2  0  0  0  0
 27 22  1  0  0  0  0
 27 26  1  1  0  0  0
 28  7  1  0  0  0  0
 28 12  1  0  0  0  0
 29 13  1  0  0  0  0
 30 23  2  0  0  0  0
M  END
>  <MODEL>
5

>  <REMARK>
 VINA RESULT:      -6.9      1.925      7.460
  Name = 
  0 active torsions:
  status: ('A' for Active; 'I' for Inactive)
                            x       y       z     vdW  Elec       q    Type
                         _______ _______ _______ _____ _____    ______ ____

>  <TORSDO>
F 0

$$$$
=
 OpenBabel11062413273D

 30 34  0  0  1  0  0  0  0  0999 V2000
  189.5810  177.1110  138.8710 O   0  0  0  0  0  0  0  0  0  0  0  0
  184.2500  178.9300  139.9770 C   0  0  0  0  0  0  0  0  0  0  0  0
  186.3580  175.1310  137.2020 C   0  0  0  0  0  2  0  0  0  0  0  0
  183.3010  179.1640  139.1850 O   0  0  0  0  0  0  0  0  0  0  0  0
  183.9930  179.0070  141.4210 C   0  0  0  0  0  3  0  0  0  0  0  0
  185.0950  175.4030  136.3720 C   0  0  0  0  0  2  0  0  0  0  0  0
  190.7520  176.4050  135.1140 C   0  0  0  0  0  2  0  0  0  0  0  0
  188.2560  177.5200  138.9370 C   0  0  0  0  0  0  0  0  0  0  0  0
  185.7960  177.6310  138.3370 C   0  0  2  0  0  3  0  0  0  0  0  0
  189.3820  178.5410  142.2190 C   0  0  0  0  0  1  0  0  0  0  0  0
  192.1820  174.6410  134.5950 C   0  0  0  0  0  1  0  0  0  0  0  0
  188.4880  175.9030  136.1710 C   0  0  0  0  0  0  0  0  0  0  0  0
  184.9710  178.8180  142.3010 C   0  0  0  0  0  0  0  0  0  0  0  0
  187.5400  178.7190  136.9000 C   0  0  0  0  0  1  0  0  0  0  0  0
  189.1390  177.8140  140.9850 N   0  0  0  0  0  0  0  0  0  0  0  0
  184.7180  177.7840  137.2390 C   0  0  0  0  0  2  0  0  0  0  0  0
  187.4360  176.1800  137.0030 C   0  0  0  0  0  0  0  0  0  0  0  0
  190.2050  177.2960  140.1390 C   0  0  0  0  0  2  0  0  0  0  0  0
  185.6600  178.7040  139.4510 C   0  0  2  0  0  3  0  0  0  0  0  0
  190.9940  174.9920  135.3510 N   0  0  0  0  0  0  0  0  0  0  0  0
  184.8890  176.8780  136.0190 C   0  0  0  0  0  2  0  0  0  0  0  0
  189.8820  174.2920  134.7280 C   0  0  0  0  0  2  0  0  0  0  0  0
  186.6560  178.4080  140.5590 C   0  0  0  0  0  0  0  0  0  0  0  0
  187.2670  177.5020  137.7850 C   0  0  1  0  0  0  0  0  0  0  0  0
  187.9910  177.9510  140.1550 C   0  0  0  0  0  0  0  0  0  0  0  0
  187.5130  174.3800  134.5940 O   0  0  0  0  0  1  0  0  0  0  0  0
  188.5750  174.5410  135.4840 C   0  0  2  0  0  3  0  0  0  0  0  0
  189.6260  176.8960  136.0150 C   0  0  0  0  0  2  0  0  0  0  0  0
  184.6910  178.9010  143.6930 N   0  0  0  0  0  1  0  0  0  0  0  0
  186.3290  178.4800  141.8540 C   0  0  0  0  0  3  0  0  0  0  0  0
  1  8  1  0  0  0  0
  1 18  1  0  0  0  0
  2  5  1  0  0  0  0
  4  2  2  0  0  0  0
  5 13  2  0  0  0  0
  6  3  1  0  0  0  0
  7 20  1  0  0  0  0
  7 28  1  0  0  0  0
  8 25  2  0  0  0  0
  9 16  1  6  0  0  0
  9 19  1  0  0  0  0
 11 20  1  0  0  0  0
 12 17  2  0  0  0  0
 13 29  1  0  0  0  0
 15 10  1  0  0  0  0
 17  3  1  0  0  0  0
 17 24  1  0  0  0  0
 18 15  1  0  0  0  0
 19  2  1  1  0  0  0
 19 23  1  0  0  0  0
 21  6  1  0  0  0  0
 21 16  1  0  0  0  0
 22 20  1  0  0  0  0
 22 27  1  0  0  0  0
 23 30  2  0  0  0  0
 24 14  1  6  0  0  0
 24  9  1  0  0  0  0
 24  8  1  0  0  0  0
 25 23  1  0  0  0  0
 25 15  1  0  0  0  0
 27 26  1  6  0  0  0
 27 12  1  0  0  0  0
 28 12  1  0  0  0  0
 30 13  1  0  0  0  0
M  END
>  <MODEL>
6

>  <REMARK>
 VINA RESULT:      -6.5      1.735      1.996
  Name = 
  0 active torsions:
  status: ('A' for Active; 'I' for Inactive)
                            x       y       z     vdW  Elec       q    Type
                         _______ _______ _______ _____ _____    ______ ____

>  <TORSDO>
F 0

$$$$
=
 OpenBabel11062413273D

 30 34  0  0  1  0  0  0  0  0999 V2000
  187.9690  177.5280  146.2260 O   0  0  0  0  0  0  0  0  0  0  0  0
  186.1800  178.7320  140.9070 C   0  0  0  0  0  0  0  0  0  0  0  0
  189.5620  175.4640  143.0180 C   0  0  0  0  0  2  0  0  0  0  0  0
  186.8490  178.9660  139.8680 O   0  0  0  0  0  0  0  0  0  0  0  0
  184.7190  178.6270  140.7890 C   0  0  0  0  0  3  0  0  0  0  0  0
  190.2360  175.7120  141.6610 C   0  0  0  0  0  2  0  0  0  0  0  0
  191.8730  177.3460  147.0680 C   0  0  0  0  0  2  0  0  0  0  0  0
  187.7350  177.8070  144.8860 C   0  0  0  0  0  0  0  0  0  0  0  0
  188.0940  177.7640  142.3770 C   0  0  2  0  0  3  0  0  0  0  0  0
  184.4720  178.5580  146.2510 C   0  0  0  0  0  1  0  0  0  0  0  0
  192.7230  175.7840  148.5730 C   0  0  0  0  0  1  0  0  0  0  0  0
  190.6820  176.5310  144.9660 C   0  0  0  0  0  0  0  0  0  0  0  0
  183.9590  178.4300  141.8620 C   0  0  0  0  0  0  0  0  0  0  0  0
  189.5450  179.1550  143.8790 C   0  0  0  0  0  1  0  0  0  0  0  0
  185.7560  177.9520  145.9440 N   0  0  0  0  0  0  0  0  0  0  0  0
  189.0650  177.9400  141.1870 C   0  0  0  0  0  2  0  0  0  0  0  0
  189.7320  176.6200  143.9840 C   0  0  0  0  0  0  0  0  0  0  0  0
  186.7500  177.6280  146.9570 C   0  0  0  0  0  2  0  0  0  0  0  0
  186.8530  178.6920  142.2700 C   0  0  2  0  0  3  0  0  0  0  0  0
  191.8270  175.9430  147.4420 N   0  0  0  0  0  0  0  0  0  0  0  0
  190.3930  177.1920  141.3060 C   0  0  0  0  0  2  0  0  0  0  0  0
  192.4260  175.2190  146.3310 C   0  0  0  0  0  2  0  0  0  0  0  0
  185.8830  178.3660  143.3920 C   0  0  0  0  0  0  0  0  0  0  0  0
  188.7880  177.8280  143.7910 C   0  0  1  0  0  0  0  0  0  0  0  0
  186.4570  178.0770  144.7110 C   0  0  0  0  0  0  0  0  0  0  0  0
  192.3340  175.1100  143.9610 O   0  0  0  0  0  1  0  0  0  0  0  0
  191.5300  175.2660  145.0910 C   0  0  2  0  0  3  0  0  0  0  0  0
  190.8220  177.6320  146.0030 C   0  0  0  0  0  2  0  0  0  0  0  0
  182.5480  178.3340  141.7170 N   0  0  0  0  0  1  0  0  0  0  0  0
  184.5630  178.2660  143.1910 C   0  0  0  0  0  3  0  0  0  0  0  0
  1 18  1  0  0  0  0
  3 17  1  0  0  0  0
  4  2  2  0  0  0  0
  5  2  1  0  0  0  0
  5 13  2  0  0  0  0
  6  3  1  0  0  0  0
  7 20  1  0  0  0  0
  8  1  1  0  0  0  0
  9 16  1  6  0  0  0
  9 24  1  0  0  0  0
 12 27  1  0  0  0  0
 12 28  1  0  0  0  0
 13 30  1  0  0  0  0
 15 10  1  0  0  0  0
 15 18  1  0  0  0  0
 16 21  1  0  0  0  0
 17 12  2  0  0  0  0
 19  2  1  6  0  0  0
 19  9  1  0  0  0  0
 19 23  1  0  0  0  0
 20 11  1  0  0  0  0
 21  6  1  0  0  0  0
 22 20  1  0  0  0  0
 23 25  1  0  0  0  0
 24 14  1  1  0  0  0
 24 17  1  0  0  0  0
 24  8  1  0  0  0  0
 25  8  2  0  0  0  0
 25 15  1  0  0  0  0
 27 26  1  6  0  0  0
 27 22  1  0  0  0  0
 28  7  1  0  0  0  0
 29 13  1  0  0  0  0
 30 23  2  0  0  0  0
M  END
>  <MODEL>
7

>  <REMARK>
 VINA RESULT:      -6.5      3.840      6.043
  Name = 
  0 active torsions:
  status: ('A' for Active; 'I' for Inactive)
                            x       y       z     vdW  Elec       q    Type
                         _______ _______ _______ _____ _____    ______ ____

>  <TORSDO>
F 0

$$$$
=
 OpenBabel11062413273D

 30 34  0  0  1  0  0  0  0  0999 V2000
  186.2520  178.2910  145.2230 O   0  0  0  0  0  0  0  0  0  0  0  0
  191.4730  175.9240  145.5290 C   0  0  0  0  0  0  0  0  0  0  0  0
  188.9010  178.7710  142.0850 C   0  0  0  0  0  2  0  0  0  0  0  0
  192.0840  175.2160  144.6880 O   0  0  0  0  0  0  0  0  0  0  0  0
  192.1850  176.3380  146.7450 C   0  0  0  0  0  3  0  0  0  0  0  0
  189.7910  177.9470  141.1440 C   0  0  0  0  0  2  0  0  0  0  0  0
  183.9730  177.7780  141.9790 C   0  0  0  0  0  2  0  0  0  0  0  0
  187.4850  177.6640  145.1000 C   0  0  0  0  0  0  0  0  0  0  0  0
  189.5900  176.8160  143.9710 C   0  0  2  0  0  3  0  0  0  0  0  0
  187.4220  178.2050  148.6740 C   0  0  0  0  0  1  0  0  0  0  0  0
  182.6080  179.4830  141.1670 C   0  0  0  0  0  1  0  0  0  0  0  0
  186.4930  178.1430  142.0820 C   0  0  0  0  0  0  0  0  0  0  0  0
  191.5720  177.0460  147.6890 C   0  0  0  0  0  0  0  0  0  0  0  0
  187.3830  175.6690  143.6460 C   0  0  0  0  0  1  0  0  0  0  0  0
  187.3050  178.3500  147.2340 N   0  0  0  0  0  0  0  0  0  0  0  0
  190.2280  176.0390  142.7960 C   0  0  0  0  0  2  0  0  0  0  0  0
  187.7330  177.9790  142.6400 C   0  0  0  0  0  0  0  0  0  0  0  0
  186.0680  178.7290  146.5660 C   0  0  0  0  0  2  0  0  0  0  0  0
  189.9930  176.2330  145.3530 C   0  0  2  0  0  3  0  0  0  0  0  0
  183.9440  179.1950  141.6550 N   0  0  0  0  0  0  0  0  0  0  0  0
  189.7420  176.4400  141.4020 C   0  0  0  0  0  2  0  0  0  0  0  0
  184.8440  179.3570  140.5230 C   0  0  0  0  0  2  0  0  0  0  0  0
  189.4480  177.1250  146.4540 C   0  0  0  0  0  0  0  0  0  0  0  0
  188.0360  177.0400  143.8290 C   0  0  1  0  0  0  0  0  0  0  0  0
  188.0990  177.6720  146.2660 C   0  0  0  0  0  0  0  0  0  0  0  0
  187.0190  178.7230  139.8140 O   0  0  0  0  0  1  0  0  0  0  0  0
  186.3010  179.1360  140.9360 C   0  0  2  0  0  3  0  0  0  0  0  0
  185.2860  177.4310  142.6670 C   0  0  0  0  0  2  0  0  0  0  0  0
  192.2870  177.4300  148.8560 N   0  0  0  0  0  1  0  0  0  0  0  0
  190.1770  177.4730  147.5210 C   0  0  0  0  0  3  0  0  0  0  0  0
  1 18  1  0  0  0  0
  2  5  1  0  0  0  0
  3 17  1  0  0  0  0
  4  2  2  0  0  0  0
  5 13  2  0  0  0  0
  6 21  1  0  0  0  0
  6  3  1  0  0  0  0
  7 28  1  0  0  0  0
  8  1  1  0  0  0  0
  8 25  2  0  0  0  0
  9 16  1  6  0  0  0
  9 19  1  0  0  0  0
 11 20  1  0  0  0  0
 12 17  2  0  0  0  0
 12 28  1  0  0  0  0
 13 29  1  0  0  0  0
 15 10  1  0  0  0  0
 17 24  1  0  0  0  0
 18 15  1  0  0  0  0
 19  2  1  6  0  0  0
 19 23  1  0  0  0  0
 20  7  1  0  0  0  0
 21 16  1  0  0  0  0
 22 27  1  0  0  0  0
 22 20  1  0  0  0  0
 23 30  2  0  0  0  0
 24 14  1  6  0  0  0
 24  9  1  0  0  0  0
 24  8  1  0  0  0  0
 25 23  1  0  0  0  0
 25 15  1  0  0  0  0
 27 26  1  6  0  0  0
 27 12  1  0  0  0  0
 30 13  1  0  0  0  0
M  END
>  <MODEL>
8

>  <REMARK>
 VINA RESULT:      -6.1      3.960      7.384
  Name = 
  0 active torsions:
  status: ('A' for Active; 'I' for Inactive)
                            x       y       z     vdW  Elec       q    Type
                         _______ _______ _______ _____ _____    ______ ____

>  <TORSDO>
F 0

$$$$
=
 OpenBabel11062413273D

 30 34  0  0  1  0  0  0  0  0999 V2000
  188.1040  177.8110  139.7500 O   0  0  0  0  0  0  0  0  0  0  0  0
  182.7790  178.3420  137.6740 C   0  0  0  0  0  0  0  0  0  0  0  0
  186.5980  174.9100  137.2180 C   0  0  0  0  0  2  0  0  0  0  0  0
  182.3640  178.2400  136.4900 O   0  0  0  0  0  0  0  0  0  0  0  0
  181.7930  178.5130  138.7490 C   0  0  0  0  0  3  0  0  0  0  0  0
  185.9350  174.7610  135.8410 C   0  0  0  0  0  2  0  0  0  0  0  0
  191.1680  177.0060  137.3110 C   0  0  0  0  0  2  0  0  0  0  0  0
  186.8960  177.8780  139.0670 C   0  0  0  0  0  0  0  0  0  0  0  0
  185.1370  177.2980  137.3370 C   0  0  2  0  0  3  0  0  0  0  0  0
  185.9540  179.5100  142.1530 C   0  0  0  0  0  1  0  0  0  0  0  0
  192.9140  175.6110  137.9680 C   0  0  0  0  0  1  0  0  0  0  0  0
  188.7980  176.0720  137.2120 C   0  0  0  0  0  0  0  0  0  0  0  0
  182.1780  178.6760  140.0110 C   0  0  0  0  0  0  0  0  0  0  0  0
  187.1800  178.6230  136.7290 C   0  0  0  0  0  1  0  0  0  0  0  0
  186.5130  178.6110  141.1580 N   0  0  0  0  0  0  0  0  0  0  0  0
  184.7890  177.0510  135.8510 C   0  0  0  0  0  2  0  0  0  0  0  0
  187.4380  176.1670  137.3380 C   0  0  0  0  0  0  0  0  0  0  0  0
  187.9310  178.2880  141.0810 C   0  0  0  0  0  2  0  0  0  0  0  0
  184.2690  178.4210  137.9690 C   0  0  2  0  0  3  0  0  0  0  0  0
  191.4690  175.7350  137.9480 N   0  0  0  0  0  0  0  0  0  0  0  0
  185.7160  176.0870  135.1100 C   0  0  0  0  0  2  0  0  0  0  0  0
  190.9770  174.7120  137.0370 C   0  0  0  0  0  2  0  0  0  0  0  0
  184.5670  178.5110  139.4550 C   0  0  0  0  0  0  0  0  0  0  0  0
  186.6780  177.4830  137.6170 C   0  0  1  0  0  0  0  0  0  0  0  0
  185.9680  178.3620  139.8680 C   0  0  0  0  0  0  0  0  0  0  0  0
  189.0520  174.1860  135.7500 O   0  0  0  0  0  1  0  0  0  0  0  0
  189.4470  174.7070  136.9830 C   0  0  2  0  0  3  0  0  0  0  0  0
  189.6760  177.2950  137.4110 C   0  0  0  0  0  2  0  0  0  0  0  0
  181.2000  178.8410  141.0300 N   0  0  0  0  0  1  0  0  0  0  0  0
  183.6020  178.6430  140.3720 C   0  0  0  0  0  3  0  0  0  0  0  0
  1 18  1  0  0  0  0
  2  5  1  0  0  0  0
  3 17  1  0  0  0  0
  4  2  2  0  0  0  0
  5 13  2  0  0  0  0
  6  3  1  0  0  0  0
  7 28  1  0  0  0  0
  7 20  1  0  0  0  0
  8  1  1  0  0  0  0
  8 25  2  0  0  0  0
  9 16  1  6  0  0  0
  9 24  1  0  0  0  0
  9 19  1  0  0  0  0
 12 17  2  0  0  0  0
 12 28  1  0  0  0  0
 13 30  1  0  0  0  0
 13 29  1  0  0  0  0
 15 10  1  0  0  0  0
 17 24  1  0  0  0  0
 18 15  1  0  0  0  0
 19  2  1  1  0  0  0
 19 23  1  0  0  0  0
 20 11  1  0  0  0  0
 21  6  1  0  0  0  0
 21 16  1  0  0  0  0
 22 20  1  0  0  0  0
 23 25  1  0  0  0  0
 23 30  2  0  0  0  0
 24 14  1  6  0  0  0
 24  8  1  0  0  0  0
 25 15  1  0  0  0  0
 27 26  1  6  0  0  0
 27 22  1  0  0  0  0
 27 12  1  0  0  0  0
M  END
>  <MODEL>
9

>  <REMARK>
 VINA RESULT:      -6.0      2.089      2.827
  Name = 
  0 active torsions:
  status: ('A' for Active; 'I' for Inactive)
                            x       y       z     vdW  Elec       q    Type
                         _______ _______ _______ _____ _____    ______ ____

>  <TORSDO>
F 0

$$$$
