=
 OpenBabel11062411033D

 49 54  0  0  1  0  0  0  0  0999 V2000
  190.9740  175.3470  137.5050 C   0  0  0  0  0  0  0  0  0  0  0  0
  184.3960  174.0550  137.3170 C   0  0  0  0  0  2  0  0  0  0  0  0
  191.9630  175.3830  136.3820 C   0  0  0  0  0  2  0  0  0  0  0  0
  184.3630  171.2540  136.5520 F   0  0  0  0  0  0  0  0  0  0  0  0
  189.2020  173.9260  136.3310 C   0  0  0  0  0  0  0  0  0  0  0  0
  185.8890  174.4220  137.2230 C   0  0  1  0  0  3  0  0  0  0  0  0
  191.3630  175.5290  138.6480 O   0  0  0  0  0  0  0  0  0  0  0  0
  186.0250  172.4960  135.5610 O   0  0  0  0  0  0  0  0  0  0  0  0
  188.7390  176.3490  136.9030 C   0  0  0  0  0  2  0  0  0  0  0  0
  187.4180  176.4100  137.6750 C   0  0  1  0  0  3  0  0  0  0  0  0
  186.6630  173.4390  136.3760 C   0  0  0  0  0  0  0  0  0  0  0  0
  187.2530  177.8140  138.2390 C   0  0  0  0  0  1  0  0  0  0  0  0
  192.2980  173.9850  135.9600 C   0  0  0  0  0  0  0  0  0  0  0  0
  184.6200  172.2480  135.6240 C   0  0  2  0  0  3  0  0  0  0  0  0
  186.2180  175.8930  136.8340 C   0  0  2  0  0  3  0  0  0  0  0  0
  183.8600  173.5160  135.9940 C   0  0  0  0  0  2  0  0  0  0  0  0
  189.5160  175.0780  137.2590 C   0  0  2  0  0  3  0  0  0  0  0  0
  191.3790  173.1990  135.3840 C   0  0  0  0  0  3  0  0  0  0  0  0
  189.9890  173.6750  135.0790 C   0  0  0  0  0  2  0  0  0  0  0  0
  187.9530  173.5740  136.3240 C   0  0  0  0  0  0  0  0  0  0  0  0
  184.1370  176.7640  137.8270 C   0  0  0  0  0  3  0  0  0  0  0  0
  185.0300  176.8160  136.8450 C   0  0  0  0  0  3  0  0  0  0  0  0
  180.0630  178.8400  135.0210 C   0  0  0  0  0  2  0  0  0  0  0  0
  180.9440  178.6900  137.3200 C   0  0  0  0  0  0  0  0  0  0  0  0
  181.9810  177.2870  135.6030 C   0  0  0  0  0  2  0  0  0  0  0  0
  181.2320  179.0220  138.5840 C   0  0  2  0  0  3  0  0  0  0  0  0
  179.7110  178.9480  136.5130 C   0  0  0  0  0  2  0  0  0  0  0  0
  182.4790  178.3260  138.9440 C   0  0  0  0  0  0  0  0  0  0  0  0
  178.9870  179.2390  139.6370 C   0  0  0  0  0  1  0  0  0  0  0  0
  180.4010  179.8220  139.5870 C   0  0  1  0  0  0  0  0  0  0  0  0
  182.9550  177.6430  137.8970 C   0  0  0  0  0  0  0  0  0  0  0  0
  180.7880  177.5160  134.7040 C   0  0  0  0  0  2  0  0  0  0  0  0
  181.0590  179.7390  141.0070 C   0  0  2  0  0  3  0  0  0  0  0  0
  183.0020  178.3140  140.3420 C   0  0  0  0  0  2  0  0  0  0  0  0
  181.9940  177.8240  136.8230 C   0  0  0  0  0  0  0  0  0  0  0  0
  181.8210  178.4390  141.2960 C   0  0  0  0  0  2  0  0  0  0  0  0
  180.3650  181.3320  139.2160 C   0  0  2  0  0  3  0  0  0  0  0  0
  179.1170  181.7080  138.7080 O   0  0  0  0  0  1  0  0  0  0  0  0
  182.6390  181.8850  138.6900 O   0  0  0  0  0  1  0  0  0  0  0  0
  181.4440  181.8130  138.2950 C   0  0  0  0  0  0  0  0  0  0  0  0
  181.1180  182.1960  137.0000 O   0  0  0  0  0  0  0  0  0  0  0  0
  180.1430  179.9980  142.0350 O   0  0  0  0  0  0  0  0  0  0  0  0
  179.3620  178.8850  143.9880 C   0  0  0  0  0  1  0  0  0  0  0  0
  180.5530  179.1960  143.1030 C   0  0  0  0  0  2  0  0  0  0  0  0
  193.6340  173.4230  136.3250 C   0  0  0  0  0  2  0  0  0  0  0  0
  196.4220  173.7790  135.7090 O   0  0  0  0  0  1  0  0  0  0  0  0
  195.1290  175.5340  137.1530 O   0  0  0  0  0  1  0  0  0  0  0  0
  194.9690  174.6060  135.9690 P   0  0  0  0  0  0  0  0  0  0  0  0
  194.5780  175.5100  134.5940 O   0  0  0  0  0  0  0  0  0  0  0  0
  1  7  2  0  0  0  0
  3  1  1  0  0  0  0
  5 17  1  0  0  0  0
  6  2  1  6  0  0  0
  8 14  1  0  0  0  0
  8 11  1  0  0  0  0
  9 10  1  0  0  0  0
 10 12  1  6  0  0  0
 11  6  1  0  0  0  0
 13 45  1  0  0  0  0
 13  3  1  0  0  0  0
 14 16  1  0  0  0  0
 14  4  1  1  0  0  0
 15 22  1  1  0  0  0
 15  6  1  0  0  0  0
 15 10  1  0  0  0  0
 16  2  1  0  0  0  0
 17  9  1  6  0  0  0
 17  1  1  0  0  0  0
 18 13  2  0  0  0  0
 19 18  1  0  0  0  0
 19  5  1  0  0  0  0
 20  5  2  0  0  0  0
 20 11  2  0  0  0  0
 21 31  1  0  0  0  0
 22 21  2  0  0  0  0
 23 27  1  0  0  0  0
 25 35  1  0  0  0  0
 26 24  1  1  0  0  0
 26 28  1  0  0  0  0
 26 30  1  0  0  0  0
 27 24  1  0  0  0  0
 28 34  1  0  0  0  0
 30 29  1  1  0  0  0
 30 33  1  0  0  0  0
 31 28  2  0  0  0  0
 32 23  1  0  0  0  0
 32 25  1  0  0  0  0
 33 36  1  0  0  0  0
 33 42  1  1  0  0  0
 34 36  1  0  0  0  0
 35 24  2  0  0  0  0
 35 31  1  0  0  0  0
 37 38  1  6  0  0  0
 37 30  1  0  0  0  0
 40 39  1  0  0  0  0
 40 37  1  0  0  0  0
 41 40  2  0  0  0  0
 42 44  1  0  0  0  0
 44 43  1  0  0  0  0
 46 48  1  0  0  0  0
 48 45  1  0  0  0  0
 48 47  1  0  0  0  0
 49 48  2  0  0  0  0
M  END
>  <MODEL>
1

>  <REMARK>
 VINA RESULT:      -6.5      0.000      0.000
  Name = 
  8 active torsions:
  status: ('A' for Active; 'I' for Inactive)
    1  A    between atoms: C_2  and  C_35
    2  A    between atoms: C_2  and  P_41
    3  A    between atoms: C_10  and  C_24
    4  A    between atoms: C_10  and  C_30
    5  A    between atoms: O_13  and  C_16
    6  A    between atoms: O_13  and  C_40
    7  A    between atoms: C_21  and  C_31
    8  A    between atoms: C_37  and  C_49
                            x       y       z     vdW  Elec       q    Type
                         _______ _______ _______ _____ _____    ______ ____

>  <TORSDO>
F 8

$$$$
=
 OpenBabel11062411033D

 49 54  0  0  1  0  0  0  0  0999 V2000
  191.3850  176.3120  138.8660 C   0  0  0  0  0  0  0  0  0  0  0  0
  185.1810  174.7290  136.8730 C   0  0  0  0  0  2  0  0  0  0  0  0
  192.5760  176.6890  138.0420 C   0  0  0  0  0  2  0  0  0  0  0  0
  185.6260  172.2160  135.4890 F   0  0  0  0  0  0  0  0  0  0  0  0
  190.0700  175.1340  137.0180 C   0  0  0  0  0  0  0  0  0  0  0  0
  186.6090  175.1930  137.2140 C   0  0  1  0  0  3  0  0  0  0  0  0
  191.5040  176.2220  140.0780 O   0  0  0  0  0  0  0  0  0  0  0  0
  187.3060  173.7630  135.2260 O   0  0  0  0  0  0  0  0  0  0  0  0
  189.2260  177.3020  138.0170 C   0  0  0  0  0  2  0  0  0  0  0  0
  187.7750  177.0880  138.4570 C   0  0  1  0  0  3  0  0  0  0  0  0
  187.6490  174.5040  136.3620 C   0  0  0  0  0  0  0  0  0  0  0  0
  187.3380  178.2930  139.2800 C   0  0  0  0  0  1  0  0  0  0  0  0
  193.1480  175.4660  137.3940 C   0  0  0  0  0  0  0  0  0  0  0  0
  185.9570  173.4250  134.9040 C   0  0  2  0  0  3  0  0  0  0  0  0
  186.8430  176.7320  137.2650 C   0  0  2  0  0  3  0  0  0  0  0  0
  184.9970  174.5110  135.3740 C   0  0  0  0  0  2  0  0  0  0  0  0
  190.0500  176.0300  138.2360 C   0  0  2  0  0  3  0  0  0  0  0  0
  192.4650  174.7990  136.4540 C   0  0  0  0  0  3  0  0  0  0  0  0
  191.1250  175.2540  135.9580 C   0  0  0  0  0  2  0  0  0  0  0  0
  188.8980  174.7230  136.6420 C   0  0  0  0  0  0  0  0  0  0  0  0
  184.4820  177.1450  137.8440 C   0  0  0  0  0  3  0  0  0  0  0  0
  185.5820  177.5520  137.2190 C   0  0  0  0  0  3  0  0  0  0  0  0
  180.3180  178.6750  134.8280 C   0  0  0  0  0  2  0  0  0  0  0  0
  181.1340  178.7180  137.1550 C   0  0  0  0  0  0  0  0  0  0  0  0
  182.3590  177.3490  135.5380 C   0  0  0  0  0  2  0  0  0  0  0  0
  181.3470  179.1340  138.4090 C   0  0  2  0  0  3  0  0  0  0  0  0
  179.9080  178.8140  136.3030 C   0  0  0  0  0  2  0  0  0  0  0  0
  182.6440  178.5820  138.8370 C   0  0  0  0  0  0  0  0  0  0  0  0
  179.0590  179.1720  139.3880 C   0  0  0  0  0  1  0  0  0  0  0  0
  180.4090  179.8910  139.3490 C   0  0  1  0  0  0  0  0  0  0  0  0
  183.2190  177.9040  137.8380 C   0  0  0  0  0  0  0  0  0  0  0  0
  181.1790  177.4180  134.5960 C   0  0  0  0  0  2  0  0  0  0  0  0
  181.0260  179.9380  140.7900 C   0  0  2  0  0  3  0  0  0  0  0  0
  183.1200  178.6860  140.2480 C   0  0  0  0  0  2  0  0  0  0  0  0
  182.2800  177.9390  136.7300 C   0  0  0  0  0  0  0  0  0  0  0  0
  181.9020  178.7350  141.1620 C   0  0  0  0  0  2  0  0  0  0  0  0
  180.2370  181.3710  138.9060 C   0  0  2  0  0  3  0  0  0  0  0  0
  179.0260  181.5700  138.2320 O   0  0  0  0  0  1  0  0  0  0  0  0
  182.4670  182.2140  138.6390 O   0  0  0  0  0  1  0  0  0  0  0  0
  181.3570  181.9550  138.1010 C   0  0  0  0  0  0  0  0  0  0  0  0
  181.1620  182.2280  136.7520 O   0  0  0  0  0  0  0  0  0  0  0  0
  180.0560  180.1510  141.7780 O   0  0  0  0  0  0  0  0  0  0  0  0
  179.7310  178.4690  143.4300 C   0  0  0  0  0  1  0  0  0  0  0  0
  180.6000  179.6140  142.9470 C   0  0  0  0  0  2  0  0  0  0  0  0
  194.4340  174.9080  137.9150 C   0  0  0  0  0  2  0  0  0  0  0  0
  195.5040  173.3500  135.7470 O   0  0  0  0  0  1  0  0  0  0  0  0
  197.0620  174.8350  137.2320 O   0  0  0  0  0  1  0  0  0  0  0  0
  195.6870  174.7980  136.6010 P   0  0  0  0  0  0  0  0  0  0  0  0
  195.5190  176.1060  135.5410 O   0  0  0  0  0  0  0  0  0  0  0  0
  1  7  2  0  0  0  0
  3  1  1  0  0  0  0
  5 17  1  0  0  0  0
  6  2  1  6  0  0  0
  6 15  1  0  0  0  0
  8 11  1  0  0  0  0
  9 10  1  0  0  0  0
 10 12  1  6  0  0  0
 11 20  2  0  0  0  0
 11  6  1  0  0  0  0
 13 45  1  0  0  0  0
 13  3  1  0  0  0  0
 14  8  1  0  0  0  0
 14 16  1  0  0  0  0
 14  4  1  1  0  0  0
 15 22  1  1  0  0  0
 15 10  1  0  0  0  0
 16  2  1  0  0  0  0
 17  9  1  6  0  0  0
 17  1  1  0  0  0  0
 18 13  2  0  0  0  0
 19 18  1  0  0  0  0
 19  5  1  0  0  0  0
 20  5  2  0  0  0  0
 22 21  2  0  0  0  0
 23 27  1  0  0  0  0
 25 35  1  0  0  0  0
 26 24  1  1  0  0  0
 26 28  1  0  0  0  0
 26 30  1  0  0  0  0
 27 24  1  0  0  0  0
 28 34  1  0  0  0  0
 30 29  1  1  0  0  0
 30 33  1  0  0  0  0
 31 21  1  0  0  0  0
 31 28  2  0  0  0  0
 32 23  1  0  0  0  0
 32 25  1  0  0  0  0
 33 36  1  0  0  0  0
 33 42  1  1  0  0  0
 34 36  1  0  0  0  0
 35 24  2  0  0  0  0
 35 31  1  0  0  0  0
 37 38  1  6  0  0  0
 37 30  1  0  0  0  0
 40 39  1  0  0  0  0
 40 37  1  0  0  0  0
 41 40  2  0  0  0  0
 42 44  1  0  0  0  0
 44 43  1  0  0  0  0
 46 48  1  0  0  0  0
 48 47  1  0  0  0  0
 48 45  1  0  0  0  0
 49 48  2  0  0  0  0
M  END
>  <MODEL>
2

>  <REMARK>
 VINA RESULT:      -6.4      1.057      1.229
  Name = 
  8 active torsions:
  status: ('A' for Active; 'I' for Inactive)
    1  A    between atoms: C_2  and  C_35
    2  A    between atoms: C_2  and  P_41
    3  A    between atoms: C_10  and  C_24
    4  A    between atoms: C_10  and  C_30
    5  A    between atoms: O_13  and  C_16
    6  A    between atoms: O_13  and  C_40
    7  A    between atoms: C_21  and  C_31
    8  A    between atoms: C_37  and  C_49
                            x       y       z     vdW  Elec       q    Type
                         _______ _______ _______ _____ _____    ______ ____

>  <TORSDO>
F 8

$$$$
=
 OpenBabel11062411033D

 49 54  0  0  1  0  0  0  0  0999 V2000
  193.1660  175.9850  137.1620 C   0  0  0  0  0  0  0  0  0  0  0  0
  187.6140  172.2690  136.5820 C   0  0  0  0  0  2  0  0  0  0  0  0
  194.0910  176.4760  136.0920 C   0  0  0  0  0  2  0  0  0  0  0  0
  188.6910  169.7310  135.6730 F   0  0  0  0  0  0  0  0  0  0  0  0
  192.1160  174.0730  135.8300 C   0  0  0  0  0  0  0  0  0  0  0  0
  188.8490  173.1890  136.5810 C   0  0  1  0  0  3  0  0  0  0  0  0
  193.4240  176.2270  138.3300 O   0  0  0  0  0  0  0  0  0  0  0  0
  189.7640  171.5820  134.8310 O   0  0  0  0  0  0  0  0  0  0  0  0
  190.7330  176.0840  136.5030 C   0  0  0  0  0  2  0  0  0  0  0  0
  189.4740  175.5790  137.2110 C   0  0  1  0  0  3  0  0  0  0  0  0
  189.9650  172.6410  135.7240 C   0  0  0  0  0  0  0  0  0  0  0  0
  188.7610  176.7690  137.8380 C   0  0  0  0  0  1  0  0  0  0  0  0
  194.9540  175.3480  135.6160 C   0  0  0  0  0  0  0  0  0  0  0  0
  188.5660  170.8070  134.8110 C   0  0  2  0  0  3  0  0  0  0  0  0
  188.5900  174.6960  136.2860 C   0  0  2  0  0  3  0  0  0  0  0  0
  187.3630  171.6550  135.2090 C   0  0  0  0  0  2  0  0  0  0  0  0
  191.9330  175.1920  136.8300 C   0  0  2  0  0  3  0  0  0  0  0  0
  194.4270  174.3090  134.9540 C   0  0  0  0  0  3  0  0  0  0  0  0
  192.9700  174.2300  134.6070 C   0  0  0  0  0  2  0  0  0  0  0  0
  191.1020  173.2670  135.7430 C   0  0  0  0  0  0  0  0  0  0  0  0
  186.3080  174.6250  137.2170 C   0  0  0  0  0  3  0  0  0  0  0  0
  187.1370  175.0860  136.2860 C   0  0  0  0  0  3  0  0  0  0  0  0
  181.3240  172.7190  136.6670 C   0  0  0  0  0  2  0  0  0  0  0  0
  182.5500  174.7430  137.3610 C   0  0  0  0  0  0  0  0  0  0  0  0
  183.8390  172.6960  136.9870 C   0  0  0  0  0  2  0  0  0  0  0  0
  182.8440  176.0340  137.5580 C   0  0  2  0  0  3  0  0  0  0  0  0
  181.2430  174.0240  137.4740 C   0  0  0  0  0  2  0  0  0  0  0  0
  184.3120  176.1550  137.5380 C   0  0  0  0  0  0  0  0  0  0  0  0
  181.0520  176.7900  139.1110 C   0  0  0  0  0  1  0  0  0  0  0  0
  181.9140  177.1940  137.9130 C   0  0  1  0  0  0  0  0  0  0  0  0
  184.8770  174.9720  137.2730 C   0  0  0  0  0  0  0  0  0  0  0  0
  182.5640  171.8890  137.0550 C   0  0  0  0  0  2  0  0  0  0  0  0
  182.7610  178.4620  138.2740 C   0  0  2  0  0  3  0  0  0  0  0  0
  185.0050  177.4230  137.9120 C   0  0  0  0  0  2  0  0  0  0  0  0
  183.7890  174.0160  137.1690 C   0  0  0  0  0  0  0  0  0  0  0  0
  184.1290  178.1730  138.9060 C   0  0  0  0  0  2  0  0  0  0  0  0
  181.0260  177.5980  136.7020 C   0  0  2  0  0  3  0  0  0  0  0  0
  179.7400  177.0550  136.8020 O   0  0  0  0  0  1  0  0  0  0  0  0
  182.5230  178.0090  134.8740 O   0  0  0  0  0  1  0  0  0  0  0  0
  181.5870  177.3080  135.3440 C   0  0  0  0  0  0  0  0  0  0  0  0
  181.0570  176.2660  134.5940 O   0  0  0  0  0  0  0  0  0  0  0  0
  182.0480  179.3720  139.0650 O   0  0  0  0  0  0  0  0  0  0  0  0
  180.9170  181.4310  138.6860 C   0  0  0  0  0  1  0  0  0  0  0  0
  182.1480  180.5950  138.3990 C   0  0  0  0  0  2  0  0  0  0  0  0
  196.3940  175.3220  136.0170 C   0  0  0  0  0  2  0  0  0  0  0  0
  197.3510  174.9760  138.7080 O   0  0  0  0  0  1  0  0  0  0  0  0
  197.6330  173.0820  136.9260 O   0  0  0  0  0  0  0  0  0  0  0  0
  196.6770  174.1600  137.3880 P   0  0  0  0  0  0  0  0  0  0  0  0
  195.2100  173.4530  137.8480 O   0  0  0  0  0  1  0  0  0  0  0  0
  1  7  2  0  0  0  0
  3  1  1  0  0  0  0
  5 17  1  0  0  0  0
  6  2  1  6  0  0  0
  8 11  1  0  0  0  0
  9 10  1  0  0  0  0
 10 12  1  6  0  0  0
 11 20  2  0  0  0  0
 11  6  1  0  0  0  0
 13 45  1  0  0  0  0
 13  3  1  0  0  0  0
 14  8  1  0  0  0  0
 14 16  1  0  0  0  0
 14  4  1  1  0  0  0
 15 22  1  1  0  0  0
 15  6  1  0  0  0  0
 15 10  1  0  0  0  0
 16  2  1  0  0  0  0
 17  9  1  6  0  0  0
 17  1  1  0  0  0  0
 18 13  2  0  0  0  0
 19 18  1  0  0  0  0
 19  5  1  0  0  0  0
 20  5  2  0  0  0  0
 21 31  1  0  0  0  0
 22 21  2  0  0  0  0
 23 32  1  0  0  0  0
 23 27  1  0  0  0  0
 24 27  1  0  0  0  0
 25 32  1  0  0  0  0
 25 35  1  0  0  0  0
 26 24  1  1  0  0  0
 26 30  1  0  0  0  0
 28 26  1  0  0  0  0
 28 34  1  0  0  0  0
 30 33  1  0  0  0  0
 30 29  1  1  0  0  0
 31 28  2  0  0  0  0
 33 36  1  0  0  0  0
 33 42  1  1  0  0  0
 34 36  1  0  0  0  0
 35 31  1  0  0  0  0
 35 24  2  0  0  0  0
 37 38  1  1  0  0  0
 37 30  1  0  0  0  0
 39 40  1  0  0  0  0
 40 37  1  0  0  0  0
 41 40  2  0  0  0  0
 44 43  1  0  0  0  0
 44 42  1  0  0  0  0
 45 48  1  0  0  0  0
 47 48  2  0  0  0  0
 48 49  1  0  0  0  0
 48 46  1  0  0  0  0
M  END
>  <MODEL>
3

>  <REMARK>
 VINA RESULT:      -6.4      2.314      3.929
  Name = 
  8 active torsions:
  status: ('A' for Active; 'I' for Inactive)
    1  A    between atoms: C_2  and  C_35
    2  A    between atoms: C_2  and  P_41
    3  A    between atoms: C_10  and  C_24
    4  A    between atoms: C_10  and  C_30
    5  A    between atoms: O_13  and  C_16
    6  A    between atoms: O_13  and  C_40
    7  A    between atoms: C_21  and  C_31
    8  A    between atoms: C_37  and  C_49
                            x       y       z     vdW  Elec       q    Type
                         _______ _______ _______ _____ _____    ______ ____

>  <TORSDO>
F 8

$$$$
=
 OpenBabel11062411033D

 49 54  0  0  1  0  0  0  0  0999 V2000
  189.7200  178.0980  143.6950 C   0  0  0  0  0  0  0  0  0  0  0  0
  183.2430  179.5470  142.7370 C   0  0  0  0  0  2  0  0  0  0  0  0
  190.3360  176.8870  144.3230 C   0  0  0  0  0  2  0  0  0  0  0  0
  182.3010  179.8830  145.4630 F   0  0  0  0  0  0  0  0  0  0  0  0
  187.3960  177.8560  144.7320 C   0  0  0  0  0  0  0  0  0  0  0  0
  184.6930  179.0660  142.9300 C   0  0  1  0  0  3  0  0  0  0  0  0
  190.4430  179.0080  143.3200 O   0  0  0  0  0  0  0  0  0  0  0  0
  183.8780  178.2320  145.1930 O   0  0  0  0  0  0  0  0  0  0  0  0
  187.7300  177.5690  142.2390 C   0  0  0  0  0  2  0  0  0  0  0  0
  186.7340  178.4830  141.5190 C   0  0  1  0  0  3  0  0  0  0  0  0
  184.9310  178.5190  144.3170 C   0  0  0  0  0  0  0  0  0  0  0  0
  187.0880  178.5100  140.0380 C   0  0  0  0  0  1  0  0  0  0  0  0
  190.1810  176.9560  145.8120 C   0  0  0  0  0  0  0  0  0  0  0  0
  182.5300  178.6250  144.9330 C   0  0  2  0  0  3  0  0  0  0  0  0
  185.2580  178.1130  141.8360 C   0  0  2  0  0  3  0  0  0  0  0  0
  182.2440  178.6300  143.4370 C   0  0  0  0  0  2  0  0  0  0  0  0
  188.2320  178.2260  143.5280 C   0  0  2  0  0  3  0  0  0  0  0  0
  188.9720  176.8780  146.3830 C   0  0  0  0  0  3  0  0  0  0  0  0
  187.7170  176.6680  145.5890 C   0  0  0  0  0  2  0  0  0  0  0  0
  186.1470  178.1970  144.6370 C   0  0  0  0  0  0  0  0  0  0  0  0
  183.1370  177.5590  140.7080 C   0  0  0  0  0  3  0  0  0  0  0  0
  184.3900  177.9910  140.6130 C   0  0  0  0  0  3  0  0  0  0  0  0
  179.6120  174.3310  138.2720 C   0  0  0  0  0  2  0  0  0  0  0  0
  180.5470  176.6100  138.1480 C   0  0  0  0  0  0  0  0  0  0  0  0
  181.0780  175.2600  140.1200 C   0  0  0  0  0  3  0  0  0  0  0  0
  180.9820  177.7680  137.6390 C   0  0  0  0  0  0  0  0  0  0  0  0
  179.3840  175.7580  137.7490 C   0  0  0  0  0  2  0  0  0  0  0  0
  182.0170  178.2840  138.5510 C   0  0  0  0  0  0  0  0  0  0  0  0
  178.9370  178.7310  136.5970 C   0  0  0  0  0  1  0  0  0  0  0  0
  180.4500  178.5600  136.4440 C   0  0  1  0  0  0  0  0  0  0  0  0
  182.2370  177.4210  139.5490 C   0  0  0  0  0  0  0  0  0  0  0  0
  179.9420  174.3250  139.7780 C   0  0  0  0  0  2  0  0  0  0  0  0
  181.1390  179.9670  136.3900 C   0  0  2  0  0  3  0  0  0  0  0  0
  182.5950  179.6520  138.3980 C   0  0  0  0  0  2  0  0  0  0  0  0
  181.3010  176.3270  139.3530 C   0  0  0  0  0  0  0  0  0  0  0  0
  181.5440  180.5460  137.7520 C   0  0  0  0  0  2  0  0  0  0  0  0
  180.7950  177.8580  135.1000 C   0  0  2  0  0  3  0  0  0  0  0  0
  179.7100  177.1250  134.6080 O   0  0  0  0  0  1  0  0  0  0  0  0
  181.9400  175.7670  134.8300 O   0  0  0  0  0  0  0  0  0  0  0  0
  182.0200  176.9970  135.1000 C   0  0  0  0  0  0  0  0  0  0  0  0
  183.2520  177.5570  135.4140 O   0  0  0  0  0  1  0  0  0  0  0  0
  180.3820  180.9040  135.6740 O   0  0  0  0  0  0  0  0  0  0  0  0
  180.5480  183.2580  135.3730 C   0  0  0  0  0  1  0  0  0  0  0  0
  180.5460  182.1090  136.3610 C   0  0  0  0  0  2  0  0  0  0  0  0
  191.3810  177.2640  146.6480 C   0  0  0  0  0  2  0  0  0  0  0  0
  192.8600  174.8520  146.1310 O   0  0  0  0  0  0  0  0  0  0  0  0
  190.9990  174.9200  147.9660 O   0  0  0  0  0  1  0  0  0  0  0  0
  192.1040  175.7490  147.3490 P   0  0  0  0  0  0  0  0  0  0  0  0
  193.2360  176.1550  148.5390 O   0  0  0  0  0  1  0  0  0  0  0  0
  1  3  1  0  0  0  0
  2 16  1  0  0  0  0
  3 13  1  0  0  0  0
  5 19  1  0  0  0  0
  6  2  1  6  0  0  0
  6 11  1  0  0  0  0
  7  1  2  0  0  0  0
 10 12  1  6  0  0  0
 10 15  1  0  0  0  0
 10  9  1  0  0  0  0
 11 20  2  0  0  0  0
 11  8  1  0  0  0  0
 13 18  2  0  0  0  0
 13 45  1  0  0  0  0
 14  8  1  0  0  0  0
 14  4  1  6  0  0  0
 15 22  1  6  0  0  0
 15  6  1  0  0  0  0
 16 14  1  0  0  0  0
 17  9  1  6  0  0  0
 17  1  1  0  0  0  0
 17  5  1  0  0  0  0
 19 18  1  0  0  0  0
 20  5  2  0  0  0  0
 22 21  2  0  0  0  0
 23 32  1  0  0  0  0
 24 35  1  0  0  0  0
 26 24  2  0  0  0  0
 26 28  1  0  0  0  0
 27 24  1  0  0  0  0
 27 23  1  0  0  0  0
 28 31  2  0  0  0  0
 30 29  1  1  0  0  0
 30 26  1  0  0  0  0
 31 21  1  0  0  0  0
 32 25  1  0  0  0  0
 33 42  1  1  0  0  0
 33 30  1  0  0  0  0
 33 36  1  0  0  0  0
 34 28  1  0  0  0  0
 35 31  1  0  0  0  0
 35 25  2  0  0  0  0
 36 34  1  0  0  0  0
 37 38  1  1  0  0  0
 37 30  1  0  0  0  0
 39 40  2  0  0  0  0
 40 37  1  0  0  0  0
 40 41  1  0  0  0  0
 42 44  1  0  0  0  0
 43 44  1  0  0  0  0
 45 48  1  0  0  0  0
 46 48  2  0  0  0  0
 48 47  1  0  0  0  0
 48 49  1  0  0  0  0
M  END
>  <MODEL>
4

>  <REMARK>
 VINA RESULT:      -5.9      5.377      7.646
  Name = 
  8 active torsions:
  status: ('A' for Active; 'I' for Inactive)
    1  A    between atoms: C_2  and  C_35
    2  A    between atoms: C_2  and  P_41
    3  A    between atoms: C_10  and  C_24
    4  A    between atoms: C_10  and  C_30
    5  A    between atoms: O_13  and  C_16
    6  A    between atoms: O_13  and  C_40
    7  A    between atoms: C_21  and  C_31
    8  A    between atoms: C_37  and  C_49
                            x       y       z     vdW  Elec       q    Type
                         _______ _______ _______ _____ _____    ______ ____

>  <TORSDO>
F 8

$$$$
=
 OpenBabel11062411033D

 49 54  0  0  1  0  0  0  0  0999 V2000
  185.2930  179.0730  142.4000 C   0  0  0  0  0  0  0  0  0  0  0  0
  187.5900  177.8940  136.2100 C   0  0  0  0  0  2  0  0  0  0  0  0
  184.2710  178.3160  143.1890 C   0  0  0  0  0  2  0  0  0  0  0  0
  185.2380  178.4270  134.5940 F   0  0  0  0  0  0  0  0  0  0  0  0
  184.5980  178.2400  140.0850 C   0  0  0  0  0  0  0  0  0  0  0  0
  187.0540  178.0110  137.6490 C   0  0  1  0  0  3  0  0  0  0  0  0
  185.7880  180.0810  142.8770 O   0  0  0  0  0  0  0  0  0  0  0  0
  184.8000  177.4260  136.6170 O   0  0  0  0  0  0  0  0  0  0  0  0
  186.8350  177.5830  141.0710 C   0  0  0  0  0  2  0  0  0  0  0  0
  187.9210  177.9140  140.0440 C   0  0  1  0  0  3  0  0  0  0  0  0
  185.5500  177.8820  137.7080 C   0  0  0  0  0  0  0  0  0  0  0  0
  189.2810  177.7600  140.7120 C   0  0  0  0  0  1  0  0  0  0  0  0
  182.9010  178.6310  142.6730 C   0  0  0  0  0  0  0  0  0  0  0  0
  185.3600  177.2530  135.3150 C   0  0  2  0  0  3  0  0  0  0  0  0
  187.7450  177.1170  138.7210 C   0  0  2  0  0  3  0  0  0  0  0  0
  186.8270  176.8470  135.4040 C   0  0  0  0  0  2  0  0  0  0  0  0
  185.7150  178.6260  141.0280 C   0  0  2  0  0  3  0  0  0  0  0  0
  182.5210  178.2480  141.4470 C   0  0  0  0  0  3  0  0  0  0  0  0
  183.4090  177.4460  140.5420 C   0  0  0  0  0  2  0  0  0  0  0  0
  184.9720  178.0870  138.8520 C   0  0  0  0  0  0  0  0  0  0  0  0
  188.9530  175.3950  137.4360 C   0  0  0  0  0  3  0  0  0  0  0  0
  189.0050  176.4460  138.2470 C   0  0  0  0  0  3  0  0  0  0  0  0
  190.7240  170.9610  134.9910 C   0  0  0  0  0  2  0  0  0  0  0  0
  191.4970  173.1620  135.7920 C   0  0  0  0  0  0  0  0  0  0  0  0
  189.0880  172.7290  135.7790 C   0  0  0  0  0  2  0  0  0  0  0  0
  192.2940  174.1110  136.2960 C   0  0  2  0  0  3  0  0  0  0  0  0
  191.8090  172.0400  134.8520 C   0  0  0  0  0  2  0  0  0  0  0  0
  191.4290  175.0890  136.9790 C   0  0  0  0  0  0  0  0  0  0  0  0
  194.1170  174.2720  134.6090 C   0  0  0  0  0  1  0  0  0  0  0  0
  193.7970  174.3140  136.1050 C   0  0  1  0  0  0  0  0  0  0  0  0
  190.1500  174.6970  136.9350 C   0  0  0  0  0  0  0  0  0  0  0  0
  189.3100  171.5580  134.8510 C   0  0  0  0  0  2  0  0  0  0  0  0
  194.2250  175.6990  136.7000 C   0  0  2  0  0  3  0  0  0  0  0  0
  191.9580  176.3840  137.4990 C   0  0  0  0  0  2  0  0  0  0  0  0
  190.1300  173.4670  136.1630 C   0  0  0  0  0  0  0  0  0  0  0  0
  193.1510  176.7930  136.6440 C   0  0  0  0  0  2  0  0  0  0  0  0
  194.6160  173.2410  136.8770 C   0  0  2  0  0  3  0  0  0  0  0  0
  195.2810  173.7930  137.9780 O   0  0  0  0  0  1  0  0  0  0  0  0
  196.7180  172.8960  135.7750 O   0  0  0  0  0  1  0  0  0  0  0  0
  195.5810  172.4340  136.0650 C   0  0  0  0  0  0  0  0  0  0  0  0
  195.2110  171.1730  135.6150 O   0  0  0  0  0  0  0  0  0  0  0  0
  195.4220  176.1710  136.1440 O   0  0  0  0  0  0  0  0  0  0  0  0
  196.0890  178.2150  135.1250 C   0  0  0  0  0  1  0  0  0  0  0  0
  195.0360  177.1280  135.2020 C   0  0  0  0  0  2  0  0  0  0  0  0
  182.0080  179.5100  143.4880 C   0  0  0  0  0  2  0  0  0  0  0  0
  180.0970  180.3680  141.5150 O   0  0  0  0  0  0  0  0  0  0  0  0
  179.3750  179.9500  143.9940 O   0  0  0  0  0  1  0  0  0  0  0  0
  180.2860  179.4240  142.9060 P   0  0  0  0  0  0  0  0  0  0  0  0
  179.8800  177.8180  142.5610 O   0  0  0  0  0  1  0  0  0  0  0  0
  1  7  2  0  0  0  0
  1  3  1  0  0  0  0
  5 19  1  0  0  0  0
  5 17  1  0  0  0  0
  6  2  1  6  0  0  0
  6 11  1  0  0  0  0
  6 15  1  0  0  0  0
  8 11  1  0  0  0  0
 10 12  1  1  0  0  0
 10  9  1  0  0  0  0
 11 20  2  0  0  0  0
 13  3  1  0  0  0  0
 13 45  1  0  0  0  0
 14  4  1  6  0  0  0
 14 16  1  0  0  0  0
 14  8  1  0  0  0  0
 15 22  1  6  0  0  0
 15 10  1  0  0  0  0
 16  2  1  0  0  0  0
 17  9  1  1  0  0  0
 17  1  1  0  0  0  0
 18 13  2  0  0  0  0
 19 18  1  0  0  0  0
 20  5  2  0  0  0  0
 21 22  2  0  0  0  0
 24 35  2  0  0  0  0
 25 35  1  0  0  0  0
 26 24  1  6  0  0  0
 26 28  1  0  0  0  0
 27 23  1  0  0  0  0
 27 24  1  0  0  0  0
 28 34  1  0  0  0  0
 30 29  1  6  0  0  0
 30 26  1  0  0  0  0
 30 33  1  0  0  0  0
 30 37  1  0  0  0  0
 31 28  2  0  0  0  0
 31 21  1  0  0  0  0
 32 23  1  0  0  0  0
 32 25  1  0  0  0  0
 33 42  1  6  0  0  0
 35 31  1  0  0  0  0
 36 33  1  0  0  0  0
 36 34  1  0  0  0  0
 37 38  1  1  0  0  0
 39 40  1  0  0  0  0
 40 37  1  0  0  0  0
 41 40  2  0  0  0  0
 43 44  1  0  0  0  0
 44 42  1  0  0  0  0
 46 48  2  0  0  0  0
 48 45  1  0  0  0  0
 48 47  1  0  0  0  0
 49 48  1  0  0  0  0
M  END
>  <MODEL>
5

>  <REMARK>
 VINA RESULT:      -5.1      3.960     11.924
  Name = 
  8 active torsions:
  status: ('A' for Active; 'I' for Inactive)
    1  A    between atoms: C_2  and  C_35
    2  A    between atoms: C_2  and  P_41
    3  A    between atoms: C_10  and  C_24
    4  A    between atoms: C_10  and  C_30
    5  A    between atoms: O_13  and  C_16
    6  A    between atoms: O_13  and  C_40
    7  A    between atoms: C_21  and  C_31
    8  A    between atoms: C_37  and  C_49
                            x       y       z     vdW  Elec       q    Type
                         _______ _______ _______ _____ _____    ______ ____

>  <TORSDO>
F 8

$$$$
=
 OpenBabel11062411033D

 49 54  0  0  1  0  0  0  0  0999 V2000
  188.6970  177.1800  144.4940 C   0  0  0  0  0  0  0  0  0  0  0  0
  186.5000  177.8690  138.1950 C   0  0  0  0  0  2  0  0  0  0  0  0
  189.5610  178.0990  145.3000 C   0  0  0  0  0  2  0  0  0  0  0  0
  188.9690  177.6640  136.6800 F   0  0  0  0  0  0  0  0  0  0  0  0
  189.3520  178.0600  142.1850 C   0  0  0  0  0  0  0  0  0  0  0  0
  186.9890  177.8640  139.6550 C   0  0  1  0  0  3  0  0  0  0  0  0
  188.3400  176.1180  144.9800 O   0  0  0  0  0  0  0  0  0  0  0  0
  189.1700  178.7610  138.6910 O   0  0  0  0  0  0  0  0  0  0  0  0
  187.0040  178.3920  143.0700 C   0  0  0  0  0  2  0  0  0  0  0  0
  186.0220  177.8800  142.0130 C   0  0  1  0  0  3  0  0  0  0  0  0
  188.4530  178.2200  139.7650 C   0  0  0  0  0  0  0  0  0  0  0  0
  184.6290  177.8410  142.6270 C   0  0  0  0  0  1  0  0  0  0  0  0
  190.9830  177.9840  144.8420 C   0  0  0  0  0  0  0  0  0  0  0  0
  188.6420  178.8210  137.3660 C   0  0  2  0  0  3  0  0  0  0  0  0
  186.1300  178.6660  140.6770 C   0  0  2  0  0  3  0  0  0  0  0  0
  187.1290  179.0020  137.3900 C   0  0  0  0  0  2  0  0  0  0  0  0
  188.2680  177.5290  143.0960 C   0  0  2  0  0  3  0  0  0  0  0  0
  191.3500  178.3940  143.6210 C   0  0  0  0  0  3  0  0  0  0  0  0
  190.3890  179.0330  142.6630 C   0  0  0  0  0  2  0  0  0  0  0  0
  189.0090  178.1290  140.9350 C   0  0  0  0  0  0  0  0  0  0  0  0
  183.9540  178.2690  139.5860 C   0  0  0  0  0  3  0  0  0  0  0  0
  184.8030  179.1290  140.1390 C   0  0  0  0  0  3  0  0  0  0  0  0
  178.9310  176.6170  138.6860 C   0  0  0  0  0  2  0  0  0  0  0  0
  180.3500  178.6310  138.5670 C   0  0  0  0  0  0  0  0  0  0  0  0
  181.2640  176.6500  139.6760 C   0  0  0  0  0  3  0  0  0  0  0  0
  180.8410  179.8050  138.1520 C   0  0  0  0  0  0  0  0  0  0  0  0
  178.9350  178.1540  138.6510 C   0  0  0  0  0  2  0  0  0  0  0  0
  182.2740  179.8240  138.4940 C   0  0  0  0  0  0  0  0  0  0  0  0
  178.9400  181.3700  138.5130 C   0  0  0  0  0  1  0  0  0  0  0  0
  180.1010  181.0150  137.5820 C   0  0  1  0  0  0  0  0  0  0  0  0
  182.6410  178.6610  139.0450 C   0  0  0  0  0  0  0  0  0  0  0  0
  179.8720  176.0730  139.7790 C   0  0  0  0  0  2  0  0  0  0  0  0
  181.0830  182.2320  137.4700 C   0  0  2  0  0  3  0  0  0  0  0  0
  183.1050  181.0550  138.3480 C   0  0  0  0  0  2  0  0  0  0  0  0
  181.4340  177.8560  139.1360 C   0  0  0  0  0  0  0  0  0  0  0  0
  182.1990  182.2670  138.5210 C   0  0  0  0  0  2  0  0  0  0  0  0
  179.5910  180.7380  136.1390 C   0  0  2  0  0  3  0  0  0  0  0  0
  180.0400  179.5020  135.6610 O   0  0  0  0  0  1  0  0  0  0  0  0
  178.9600  182.5690  134.7230 O   0  0  0  0  0  1  0  0  0  0  0  0
  179.8760  181.8000  135.1220 C   0  0  0  0  0  0  0  0  0  0  0  0
  181.1590  181.9250  134.6040 O   0  0  0  0  0  0  0  0  0  0  0  0
  180.4080  183.4600  137.4430 O   0  0  0  0  0  0  0  0  0  0  0  0
  180.6240  185.5340  136.2980 C   0  0  0  0  0  1  0  0  0  0  0  0
  181.3440  184.3830  136.9710 C   0  0  0  0  0  2  0  0  0  0  0  0
  191.9650  177.2660  145.7120 C   0  0  0  0  0  2  0  0  0  0  0  0
  192.4270  176.7660  148.5070 O   0  0  0  0  0  1  0  0  0  0  0  0
  190.5730  175.4680  147.1980 O   0  0  0  0  0  0  0  0  0  0  0  0
  191.2270  176.8270  147.3170 P   0  0  0  0  0  0  0  0  0  0  0  0
  190.0630  177.9780  147.7440 O   0  0  0  0  0  1  0  0  0  0  0  0
  1  7  2  0  0  0  0
  1  3  1  0  0  0  0
  5 19  1  0  0  0  0
  5 17  1  0  0  0  0
  6  2  1  6  0  0  0
  6 11  1  0  0  0  0
  6 15  1  0  0  0  0
  8 11  1  0  0  0  0
 10 12  1  1  0  0  0
 10  9  1  0  0  0  0
 11 20  2  0  0  0  0
 13  3  1  0  0  0  0
 13 45  1  0  0  0  0
 14  4  1  1  0  0  0
 14 16  1  0  0  0  0
 14  8  1  0  0  0  0
 15 22  1  6  0  0  0
 15 10  1  0  0  0  0
 16  2  1  0  0  0  0
 17  9  1  1  0  0  0
 17  1  1  0  0  0  0
 18 13  2  0  0  0  0
 19 18  1  0  0  0  0
 20  5  2  0  0  0  0
 21 22  2  0  0  0  0
 23 32  1  0  0  0  0
 24 27  1  0  0  0  0
 24 35  1  0  0  0  0
 25 32  1  0  0  0  0
 26 28  1  0  0  0  0
 26 24  2  0  0  0  0
 27 23  1  0  0  0  0
 28 31  2  0  0  0  0
 30 26  1  0  0  0  0
 30 29  1  1  0  0  0
 31 35  1  0  0  0  0
 31 21  1  0  0  0  0
 33 42  1  1  0  0  0
 33 30  1  0  0  0  0
 33 36  1  0  0  0  0
 34 28  1  0  0  0  0
 34 36  1  0  0  0  0
 35 25  2  0  0  0  0
 37 38  1  6  0  0  0
 37 30  1  0  0  0  0
 39 40  1  0  0  0  0
 40 37  1  0  0  0  0
 41 40  2  0  0  0  0
 43 44  1  0  0  0  0
 44 42  1  0  0  0  0
 45 48  1  0  0  0  0
 47 48  2  0  0  0  0
 48 49  1  0  0  0  0
 48 46  1  0  0  0  0
M  END
>  <MODEL>
6

>  <REMARK>
 VINA RESULT:      -4.7      4.685      6.767
  Name = 
  8 active torsions:
  status: ('A' for Active; 'I' for Inactive)
    1  A    between atoms: C_2  and  C_35
    2  A    between atoms: C_2  and  P_41
    3  A    between atoms: C_10  and  C_24
    4  A    between atoms: C_10  and  C_30
    5  A    between atoms: O_13  and  C_16
    6  A    between atoms: O_13  and  C_40
    7  A    between atoms: C_21  and  C_31
    8  A    between atoms: C_37  and  C_49
                            x       y       z     vdW  Elec       q    Type
                         _______ _______ _______ _____ _____    ______ ____

>  <TORSDO>
F 8

$$$$
=
 OpenBabel11062411033D

 49 54  0  0  1  0  0  0  0  0999 V2000
  188.3070  178.1350  144.2310 C   0  0  0  0  0  0  0  0  0  0  0  0
  189.9380  178.2630  137.7280 C   0  0  0  0  0  2  0  0  0  0  0  0
  187.1620  177.4460  144.9060 C   0  0  0  0  0  2  0  0  0  0  0  0
  187.7310  179.7690  136.5920 F   0  0  0  0  0  0  0  0  0  0  0  0
  187.3160  178.1820  141.8750 C   0  0  0  0  0  0  0  0  0  0  0  0
  189.5170  178.0870  139.1980 C   0  0  1  0  0  3  0  0  0  0  0  0
  189.0660  178.8210  144.8970 O   0  0  0  0  0  0  0  0  0  0  0  0
  187.1440  178.3660  138.3160 O   0  0  0  0  0  0  0  0  0  0  0  0
  189.3520  176.7670  142.3870 C   0  0  0  0  0  2  0  0  0  0  0  0
  190.4380  177.1120  141.3650 C   0  0  1  0  0  3  0  0  0  0  0  0
  188.0350  178.3030  139.3940 C   0  0  0  0  0  0  0  0  0  0  0  0
  191.7420  176.4610  141.8070 C   0  0  0  0  0  1  0  0  0  0  0  0
  185.8970  178.2070  144.6520 C   0  0  0  0  0  0  0  0  0  0  0  0
  187.5810  178.4430  136.9590 C   0  0  2  0  0  3  0  0  0  0  0  0
  190.0030  176.7900  139.9080 C   0  0  2  0  0  3  0  0  0  0  0  0
  188.8960  177.6970  136.7680 C   0  0  0  0  0  2  0  0  0  0  0  0
  188.5370  178.0110  142.7510 C   0  0  2  0  0  3  0  0  0  0  0  0
  185.3760  178.2890  143.4210 C   0  0  0  0  0  3  0  0  0  0  0  0
  185.9850  177.5930  142.2410 C   0  0  0  0  0  2  0  0  0  0  0  0
  187.5820  178.3030  140.6110 C   0  0  0  0  0  0  0  0  0  0  0  0
  190.6500  175.0980  138.2360 C   0  0  0  0  0  3  0  0  0  0  0  0
  191.0250  176.0050  139.1320 C   0  0  0  0  0  3  0  0  0  0  0  0
  191.1070  171.1370  134.6470 C   0  0  0  0  0  2  0  0  0  0  0  0
  192.4480  172.8420  135.8210 C   0  0  0  0  0  0  0  0  0  0  0  0
  190.0120  172.9690  136.0160 C   0  0  0  0  0  3  0  0  0  0  0  0
  193.4870  173.4350  136.4210 C   0  0  0  0  0  0  0  0  0  0  0  0
  192.4100  171.9500  134.6190 C   0  0  0  0  0  2  0  0  0  0  0  0
  192.9380  174.3770  137.4110 C   0  0  0  0  0  0  0  0  0  0  0  0
  195.1710  173.6060  134.5960 C   0  0  0  0  0  1  0  0  0  0  0  0
  194.9770  173.3430  136.0910 C   0  0  1  0  0  0  0  0  0  0  0  0
  191.6020  174.3010  137.4420 C   0  0  0  0  0  0  0  0  0  0  0  0
  189.8750  172.0470  134.8270 C   0  0  0  0  0  2  0  0  0  0  0  0
  195.7720  174.4060  136.9240 C   0  0  2  0  0  3  0  0  0  0  0  0
  193.8030  175.3520  138.1390 C   0  0  0  0  0  2  0  0  0  0  0  0
  191.2270  173.3380  136.4210 C   0  0  0  0  0  0  0  0  0  0  0  0
  194.9960  175.6880  137.2530 C   0  0  0  0  0  2  0  0  0  0  0  0
  195.5600  171.9580  136.4900 C   0  0  2  0  0  3  0  0  0  0  0  0
  195.4200  171.0230  135.4580 O   0  0  0  0  0  1  0  0  0  0  0  0
  195.1700  171.9950  138.8570 O   0  0  0  0  0  1  0  0  0  0  0  0
  195.0500  171.3680  137.7680 C   0  0  0  0  0  0  0  0  0  0  0  0
  194.4530  170.1140  137.7550 O   0  0  0  0  0  0  0  0  0  0  0  0
  197.0050  174.7260  136.3410 O   0  0  0  0  0  0  0  0  0  0  0  0
  199.1660  173.9210  136.9290 C   0  0  0  0  0  1  0  0  0  0  0  0
  197.9300  174.6700  137.3860 C   0  0  0  0  0  2  0  0  0  0  0  0
  185.2980  179.0020  145.7680 C   0  0  0  0  0  2  0  0  0  0  0  0
  184.8650  177.8340  148.3620 O   0  0  0  0  0  1  0  0  0  0  0  0
  186.5560  179.8030  148.0380 O   0  0  0  0  0  1  0  0  0  0  0  0
  186.0330  178.5500  147.3700 P   0  0  0  0  0  0  0  0  0  0  0  0
  187.3110  177.4680  147.1260 O   0  0  0  0  0  0  0  0  0  0  0  0
  1  7  2  0  0  0  0
  1  3  1  0  0  0  0
  5 19  1  0  0  0  0
  5 17  1  0  0  0  0
  6  2  1  6  0  0  0
  6 11  1  0  0  0  0
  6 15  1  0  0  0  0
  8 11  1  0  0  0  0
 10 12  1  1  0  0  0
 10  9  1  0  0  0  0
 11 20  2  0  0  0  0
 13  3  1  0  0  0  0
 13 45  1  0  0  0  0
 14  4  1  1  0  0  0
 14  8  1  0  0  0  0
 15 22  1  6  0  0  0
 15 10  1  0  0  0  0
 16 14  1  0  0  0  0
 16  2  1  0  0  0  0
 17  9  1  1  0  0  0
 17  1  1  0  0  0  0
 18 13  2  0  0  0  0
 19 18  1  0  0  0  0
 20  5  2  0  0  0  0
 21 22  2  0  0  0  0
 23 32  1  0  0  0  0
 24 26  2  0  0  0  0
 24 35  1  0  0  0  0
 25 35  2  0  0  0  0
 26 28  1  0  0  0  0
 27 23  1  0  0  0  0
 27 24  1  0  0  0  0
 28 31  2  0  0  0  0
 28 34  1  0  0  0  0
 30 29  1  6  0  0  0
 30 26  1  0  0  0  0
 30 37  1  0  0  0  0
 30 33  1  0  0  0  0
 31 21  1  0  0  0  0
 32 25  1  0  0  0  0
 33 42  1  6  0  0  0
 33 36  1  0  0  0  0
 35 31  1  0  0  0  0
 36 34  1  0  0  0  0
 37 38  1  6  0  0  0
 37 40  1  0  0  0  0
 40 39  1  0  0  0  0
 41 40  2  0  0  0  0
 42 44  1  0  0  0  0
 43 44  1  0  0  0  0
 45 48  1  0  0  0  0
 48 47  1  0  0  0  0
 48 46  1  0  0  0  0
 49 48  2  0  0  0  0
M  END
>  <MODEL>
7

>  <REMARK>
 VINA RESULT:      -4.7      5.521     12.431
  Name = 
  8 active torsions:
  status: ('A' for Active; 'I' for Inactive)
    1  A    between atoms: C_2  and  C_35
    2  A    between atoms: C_2  and  P_41
    3  A    between atoms: C_10  and  C_24
    4  A    between atoms: C_10  and  C_30
    5  A    between atoms: O_13  and  C_16
    6  A    between atoms: O_13  and  C_40
    7  A    between atoms: C_21  and  C_31
    8  A    between atoms: C_37  and  C_49
                            x       y       z     vdW  Elec       q    Type
                         _______ _______ _______ _____ _____    ______ ____

>  <TORSDO>
F 8

$$$$
=
 OpenBabel11062411033D

 49 54  0  0  1  0  0  0  0  0999 V2000
  193.6110  175.5580  137.1710 C   0  0  0  0  0  0  0  0  0  0  0  0
  187.4810  172.8960  136.6200 C   0  0  0  0  0  2  0  0  0  0  0  0
  194.5960  175.8950  136.0960 C   0  0  0  0  0  2  0  0  0  0  0  0
  188.0800  170.2230  135.6580 F   0  0  0  0  0  0  0  0  0  0  0  0
  192.2220  173.8850  135.8270 C   0  0  0  0  0  0  0  0  0  0  0  0
  188.8600  173.5820  136.6140 C   0  0  1  0  0  3  0  0  0  0  0  0
  193.9220  175.7300  138.3390 O   0  0  0  0  0  0  0  0  0  0  0  0
  189.4540  171.8680  134.8270 O   0  0  0  0  0  0  0  0  0  0  0  0
  191.2270  176.0980  136.5500 C   0  0  0  0  0  2  0  0  0  0  0  0
  189.9060  175.8120  137.2700 C   0  0  1  0  0  3  0  0  0  0  0  0
  189.8510  172.8590  135.7330 C   0  0  0  0  0  0  0  0  0  0  0  0
  189.4240  177.0990  137.9250 C   0  0  0  0  0  1  0  0  0  0  0  0
  195.2390  174.6400  135.5900 C   0  0  0  0  0  0  0  0  0  0  0  0
  188.1370  171.3180  134.8140 C   0  0  2  0  0  3  0  0  0  0  0  0
  188.8690  175.1160  136.3450 C   0  0  2  0  0  3  0  0  0  0  0  0
  187.1090  172.3590  135.2410 C   0  0  0  0  0  2  0  0  0  0  0  0
  192.2530  175.0010  136.8470 C   0  0  2  0  0  3  0  0  0  0  0  0
  194.5290  173.7220  134.9210 C   0  0  0  0  0  3  0  0  0  0  0  0
  193.0770  173.9090  134.5940 C   0  0  0  0  0  2  0  0  0  0  0  0
  191.0810  173.2740  135.7440 C   0  0  0  0  0  0  0  0  0  0  0  0
  186.5820  175.3510  137.2350 C   0  0  0  0  0  3  0  0  0  0  0  0
  187.5080  175.7570  136.3730 C   0  0  0  0  0  3  0  0  0  0  0  0
  183.6760  179.3560  139.3080 C   0  0  0  0  0  2  0  0  0  0  0  0
  183.5110  177.4690  137.7280 C   0  0  0  0  0  0  0  0  0  0  0  0
  185.7290  178.0610  138.5760 C   0  0  0  0  0  3  0  0  0  0  0  0
  182.9960  176.4480  137.0320 C   0  0  0  0  0  0  0  0  0  0  0  0
  182.8990  178.7780  138.1150 C   0  0  0  0  0  2  0  0  0  0  0  0
  184.0980  175.5150  136.7460 C   0  0  0  0  0  0  0  0  0  0  0  0
  181.2300  177.5370  135.6570 C   0  0  0  0  0  1  0  0  0  0  0  0
  181.5890  176.2830  136.4560 C   0  0  1  0  0  0  0  0  0  0  0  0
  185.2330  175.9410  137.3130 C   0  0  0  0  0  0  0  0  0  0  0  0
  185.1920  179.3980  139.0300 C   0  0  0  0  0  2  0  0  0  0  0  0
  181.5430  175.0270  135.5200 C   0  0  2  0  0  3  0  0  0  0  0  0
  183.9310  174.3520  135.8260 C   0  0  0  0  0  2  0  0  0  0  0  0
  184.9200  177.2100  137.9450 C   0  0  0  0  0  0  0  0  0  0  0  0
  182.8590  174.7020  134.8020 C   0  0  0  0  0  2  0  0  0  0  0  0
  180.5450  176.0230  137.5790 C   0  0  2  0  0  3  0  0  0  0  0  0
  180.1110  177.2170  138.1660 O   0  0  0  0  0  1  0  0  0  0  0  0
  180.2970  173.9970  138.8400 O   0  0  0  0  0  0  0  0  0  0  0  0
  180.9510  175.0590  138.6500 C   0  0  0  0  0  0  0  0  0  0  0  0
  182.0500  175.3470  139.4500 O   0  0  0  0  0  1  0  0  0  0  0  0
  180.4930  175.0890  134.5960 O   0  0  0  0  0  0  0  0  0  0  0  0
  180.5610  172.9270  135.5870 C   0  0  0  0  0  1  0  0  0  0  0  0
  179.7290  173.9430  134.8310 C   0  0  0  0  0  2  0  0  0  0  0  0
  196.6560  174.3530  135.9690 C   0  0  0  0  0  2  0  0  0  0  0  0
  196.4810  171.4860  136.1320 O   0  0  0  0  0  0  0  0  0  0  0  0
  195.7290  172.9950  138.1310 O   0  0  0  0  0  1  0  0  0  0  0  0
  196.7690  172.8850  137.0380 P   0  0  0  0  0  0  0  0  0  0  0  0
  198.3100  172.8020  137.7330 O   0  0  0  0  0  1  0  0  0  0  0  0
  1  7  2  0  0  0  0
  3  1  1  0  0  0  0
  5 17  1  0  0  0  0
  6  2  1  6  0  0  0
  8 11  1  0  0  0  0
  9 10  1  0  0  0  0
 10 12  1  6  0  0  0
 11 20  2  0  0  0  0
 11  6  1  0  0  0  0
 13 45  1  0  0  0  0
 13  3  1  0  0  0  0
 14  8  1  0  0  0  0
 14 16  1  0  0  0  0
 14  4  1  1  0  0  0
 15 22  1  1  0  0  0
 15  6  1  0  0  0  0
 15 10  1  0  0  0  0
 16  2  1  0  0  0  0
 17  9  1  6  0  0  0
 17  1  1  0  0  0  0
 18 13  2  0  0  0  0
 19 18  1  0  0  0  0
 19  5  1  0  0  0  0
 20  5  2  0  0  0  0
 21 31  1  0  0  0  0
 22 21  2  0  0  0  0
 24 35  1  0  0  0  0
 24 27  1  0  0  0  0
 25 32  1  0  0  0  0
 26 24  2  0  0  0  0
 27 23  1  0  0  0  0
 28 26  1  0  0  0  0
 28 31  2  0  0  0  0
 30 29  1  6  0  0  0
 30 26  1  0  0  0  0
 30 37  1  0  0  0  0
 31 35  1  0  0  0  0
 32 23  1  0  0  0  0
 33 42  1  6  0  0  0
 33 30  1  0  0  0  0
 34 28  1  0  0  0  0
 35 25  2  0  0  0  0
 36 33  1  0  0  0  0
 36 34  1  0  0  0  0
 37 38  1  1  0  0  0
 37 40  1  0  0  0  0
 40 39  2  0  0  0  0
 40 41  1  0  0  0  0
 42 44  1  0  0  0  0
 44 43  1  0  0  0  0
 45 48  1  0  0  0  0
 46 48  2  0  0  0  0
 48 49  1  0  0  0  0
 48 47  1  0  0  0  0
M  END
>  <MODEL>
8

>  <REMARK>
 VINA RESULT:      -4.6      2.674      4.803
  Name = 
  8 active torsions:
  status: ('A' for Active; 'I' for Inactive)
    1  A    between atoms: C_2  and  C_35
    2  A    between atoms: C_2  and  P_41
    3  A    between atoms: C_10  and  C_24
    4  A    between atoms: C_10  and  C_30
    5  A    between atoms: O_13  and  C_16
    6  A    between atoms: O_13  and  C_40
    7  A    between atoms: C_21  and  C_31
    8  A    between atoms: C_37  and  C_49
                            x       y       z     vdW  Elec       q    Type
                         _______ _______ _______ _____ _____    ______ ____

>  <TORSDO>
F 8

$$$$
=
 OpenBabel11062411033D

 49 54  0  0  1  0  0  0  0  0999 V2000
  188.0240  177.3320  145.4710 C   0  0  0  0  0  0  0  0  0  0  0  0
  187.6480  177.2400  138.7760 C   0  0  0  0  0  2  0  0  0  0  0  0
  188.7680  178.2760  146.3640 C   0  0  0  0  0  2  0  0  0  0  0  0
  190.3720  176.5610  138.0380 F   0  0  0  0  0  0  0  0  0  0  0  0
  189.3680  177.7720  143.3410 C   0  0  0  0  0  0  0  0  0  0  0  0
  187.7370  177.4160  140.3030 C   0  0  1  0  0  3  0  0  0  0  0  0
  187.4130  176.3990  145.9670 O   0  0  0  0  0  0  0  0  0  0  0  0
  190.1930  177.9340  139.8740 O   0  0  0  0  0  0  0  0  0  0  0  0
  186.9380  178.4660  143.4970 C   0  0  0  0  0  2  0  0  0  0  0  0
  186.2030  177.8930  142.2820 C   0  0  1  0  0  3  0  0  0  0  0  0
  189.1560  177.6400  140.7680 C   0  0  0  0  0  0  0  0  0  0  0  0
  184.7070  178.0870  142.4880 C   0  0  0  0  0  1  0  0  0  0  0  0
  190.2300  177.9520  146.3340 C   0  0  0  0  0  0  0  0  0  0  0  0
  190.0400  177.8370  138.4580 C   0  0  2  0  0  3  0  0  0  0  0  0
  186.7590  178.4470  140.9410 C   0  0  2  0  0  3  0  0  0  0  0  0
  188.6120  178.1670  138.0410 C   0  0  0  0  0  2  0  0  0  0  0  0
  188.0240  177.4990  143.9770 C   0  0  2  0  0  3  0  0  0  0  0  0
  190.9530  178.1290  145.2200 C   0  0  0  0  0  3  0  0  0  0  0  0
  190.3680  178.7020  143.9630 C   0  0  0  0  0  2  0  0  0  0  0  0
  189.3730  177.6780  142.0470 C   0  0  0  0  0  0  0  0  0  0  0  0
  184.7450  178.1340  139.5540 C   0  0  0  0  0  3  0  0  0  0  0  0
  185.6930  178.9480  140.0050 C   0  0  0  0  0  3  0  0  0  0  0  0
  182.7640  177.6260  134.5940 C   0  0  0  0  0  2  0  0  0  0  0  0
  182.2510  178.6420  136.7820 C   0  0  0  0  0  0  0  0  0  0  0  0
  184.1320  177.0810  136.6580 C   0  0  0  0  0  2  0  0  0  0  0  0
  181.7830  179.5030  137.6940 C   0  0  2  0  0  3  0  0  0  0  0  0
  181.6490  178.1810  135.4930 C   0  0  0  0  0  2  0  0  0  0  0  0
  182.6650  179.4140  138.8700 C   0  0  0  0  0  0  0  0  0  0  0  0
  179.3200  179.4060  137.3490 C   0  0  0  0  0  1  0  0  0  0  0  0
  180.4970  180.3280  137.6740 C   0  0  1  0  0  0  0  0  0  0  0  0
  183.6730  178.5650  138.6390 C   0  0  0  0  0  0  0  0  0  0  0  0
  183.6150  176.5730  135.3330 C   0  0  0  0  0  2  0  0  0  0  0  0
  180.2740  180.9990  139.0730 C   0  0  2  0  0  3  0  0  0  0  0  0
  182.3380  180.0970  140.1560 C   0  0  0  0  0  2  0  0  0  0  0  0
  183.4470  178.0190  137.3120 C   0  0  0  0  0  0  0  0  0  0  0  0
  180.8230  180.2090  140.2680 C   0  0  0  0  0  2  0  0  0  0  0  0
  180.5880  181.4930  136.6470 C   0  0  2  0  0  3  0  0  0  0  0  0
  181.0120  181.0420  135.3920 O   0  0  0  0  0  1  0  0  0  0  0  0
  181.4120  183.7280  136.3660 O   0  0  0  0  0  0  0  0  0  0  0  0
  181.4130  182.6730  137.0570 C   0  0  0  0  0  0  0  0  0  0  0  0
  182.1960  182.5970  138.2020 O   0  0  0  0  0  1  0  0  0  0  0  0
  178.9330  181.3370  139.2950 O   0  0  0  0  0  0  0  0  0  0  0  0
  178.9320  183.6820  138.8920 C   0  0  0  0  0  1  0  0  0  0  0  0
  178.9680  182.5790  139.9320 C   0  0  0  0  0  2  0  0  0  0  0  0
  190.8460  177.2870  147.5220 C   0  0  0  0  0  2  0  0  0  0  0  0
  192.0170  175.7520  145.3900 O   0  0  0  0  0  0  0  0  0  0  0  0
  190.8120  174.5750  147.3900 O   0  0  0  0  0  1  0  0  0  0  0  0
  191.7000  175.7520  147.0520 P   0  0  0  0  0  0  0  0  0  0  0  0
  193.1550  175.6230  147.9060 O   0  0  0  0  0  1  0  0  0  0  0  0
  1  7  2  0  0  0  0
  1  3  1  0  0  0  0
  5 19  1  0  0  0  0
  5 17  1  0  0  0  0
  6  2  1  6  0  0  0
  6 11  1  0  0  0  0
  6 15  1  0  0  0  0
  8 11  1  0  0  0  0
 10 12  1  1  0  0  0
 10  9  1  0  0  0  0
 11 20  2  0  0  0  0
 13  3  1  0  0  0  0
 13 45  1  0  0  0  0
 14  4  1  1  0  0  0
 14  8  1  0  0  0  0
 15 22  1  6  0  0  0
 15 10  1  0  0  0  0
 16 14  1  0  0  0  0
 16  2  1  0  0  0  0
 17  9  1  1  0  0  0
 17  1  1  0  0  0  0
 18 13  2  0  0  0  0
 19 18  1  0  0  0  0
 20  5  2  0  0  0  0
 21 22  2  0  0  0  0
 23 32  1  0  0  0  0
 23 27  1  0  0  0  0
 24 35  2  0  0  0  0
 25 35  1  0  0  0  0
 26 24  1  1  0  0  0
 26 28  1  0  0  0  0
 27 24  1  0  0  0  0
 28 34  1  0  0  0  0
 30 29  1  6  0  0  0
 30 26  1  0  0  0  0
 30 33  1  0  0  0  0
 31 28  2  0  0  0  0
 31 21  1  0  0  0  0
 32 25  1  0  0  0  0
 33 42  1  1  0  0  0
 33 36  1  0  0  0  0
 34 36  1  0  0  0  0
 35 31  1  0  0  0  0
 37 38  1  6  0  0  0
 37 40  1  0  0  0  0
 37 30  1  0  0  0  0
 39 40  2  0  0  0  0
 40 41  1  0  0  0  0
 42 44  1  0  0  0  0
 43 44  1  0  0  0  0
 46 48  2  0  0  0  0
 48 47  1  0  0  0  0
 48 45  1  0  0  0  0
 48 49  1  0  0  0  0
M  END
>  <MODEL>
9

>  <REMARK>
 VINA RESULT:      -4.4      4.762      6.631
  Name = 
  8 active torsions:
  status: ('A' for Active; 'I' for Inactive)
    1  A    between atoms: C_2  and  C_35
    2  A    between atoms: C_2  and  P_41
    3  A    between atoms: C_10  and  C_24
    4  A    between atoms: C_10  and  C_30
    5  A    between atoms: O_13  and  C_16
    6  A    between atoms: O_13  and  C_40
    7  A    between atoms: C_21  and  C_31
    8  A    between atoms: C_37  and  C_49
                            x       y       z     vdW  Elec       q    Type
                         _______ _______ _______ _____ _____    ______ ____

>  <TORSDO>
F 8

$$$$
