=
 OpenBabel11062412183D

 43 49  0  0  1  0  0  0  0  0999 V2000
  188.9600  177.5070  138.4420 C   0  0  0  0  0  1  0  0  0  0  0  0
  183.9720  177.2600  137.6200 C   0  0  0  0  0  3  0  0  0  0  0  0
  181.1000  177.7700  137.7370 C   0  0  2  0  0  0  0  0  0  0  0  0
  183.1970  177.0450  136.5590 C   0  0  0  0  0  0  0  0  0  0  0  0
  183.1850  179.2030  139.7700 C   0  0  0  0  0  2  0  0  0  0  0  0
  184.2400  178.2720  140.3760 C   0  0  0  0  0  2  0  0  0  0  0  0
  185.4000  177.5180  137.3790 C   0  0  2  0  0  3  0  0  0  0  0  0
  181.5180  178.6050  141.5480 C   0  0  0  0  0  1  0  0  0  0  0  0
  180.5940  179.1210  137.2670 C   0  0  0  0  0  2  0  0  0  0  0  0
  188.3110  176.6520  135.6850 O   0  0  0  0  0  0  0  0  0  0  0  0
  181.2700  177.4910  139.2450 C   0  0  2  0  0  3  0  0  0  0  0  0
  179.8610  177.1250  139.6810 C   0  0  0  0  0  2  0  0  0  0  0  0
  187.4040  176.9290  136.5160 C   0  0  0  0  0  0  0  0  0  0  0  0
  186.2350  178.9810  139.1860 C   0  0  0  0  0  2  0  0  0  0  0  0
  185.2630  176.9560  135.0400 C   0  0  0  0  0  2  0  0  0  0  0  0
  185.9730  176.5930  136.3430 C   0  0  2  0  0  3  0  0  0  0  0  0
  181.7470  178.7390  140.0440 C   0  0  2  0  0  3  0  0  0  0  0  0
  183.8040  176.8500  135.2560 N   0  0  0  0  0  2  0  0  0  0  0  0
  185.5420  178.9440  140.4930 N   0  0  2  0  0  0  0  0  0  0  0  0
  187.6560  177.4980  137.8010 N   0  0  0  0  0  0  0  0  0  0  0  0
  181.7820  176.9100  136.7440 N   0  0  0  0  0  0  0  0  0  0  0  0
  178.9450  177.9360  138.7850 C   0  0  0  0  0  2  0  0  0  0  0  0
  179.6200  177.9630  137.4300 C   0  0  2  0  0  3  0  0  0  0  0  0
  186.3900  177.6070  138.5200 C   0  0  2  0  0  3  0  0  0  0  0  0
  187.7600  178.5840  141.4050 N   0  0  0  0  0  0  0  0  0  0  0  0
  187.3840  176.7100  143.7720 C   0  0  0  0  0  3  0  0  0  0  0  0
  186.3490  178.2180  141.4930 C   0  0  1  0  0  3  0  0  0  0  0  0
  188.6990  177.9370  142.0260 C   0  0  0  0  0  3  0  0  0  0  0  0
  185.8710  178.4300  142.9150 C   0  0  0  0  0  0  0  0  0  0  0  0
  186.3250  177.6760  143.8750 N   0  0  0  0  0  0  0  0  0  0  0  0
  188.4450  176.8220  142.9610 C   0  0  0  0  0  3  0  0  0  0  0  0
  184.8090  179.4380  143.2470 C   0  0  2  0  0  3  0  0  0  0  0  0
  184.7970  179.6660  144.6380 O   0  0  0  0  0  0  0  0  0  0  0  0
  183.7760  178.8460  144.1290 C   0  0  0  0  0  2  0  0  0  0  0  0
  180.6980  175.8170  134.9050 C   0  0  0  0  0  2  0  0  0  0  0  0
  181.1220  175.7680  136.1630 C   0  0  0  0  0  0  0  0  0  0  0  0
  181.2180  174.4240  136.8150 C   0  0  0  0  0  2  0  0  0  0  0  0
  182.0470  173.5790  136.0740 O   0  0  0  0  0  0  0  0  0  0  0  0
  183.1270  173.3040  136.9170 C   0  0  0  0  0  2  0  0  0  0  0  0
  184.3840  173.2300  136.1180 C   0  0  0  0  0  0  0  0  0  0  0  0
  184.3680  173.5010  134.9260 O   0  0  0  0  0  0  0  0  0  0  0  0
  185.5400  172.9120  138.1590 O   0  0  0  0  0  1  0  0  0  0  0  0
  185.6520  172.7920  136.7700 C   0  0  0  0  0  2  0  0  0  0  0  0
  3  9  1  6  0  0  0
  3 11  1  0  0  0  0
  4 21  1  0  0  0  0
  4  2  2  0  0  0  0
  5 17  1  0  0  0  0
  5  6  1  0  0  0  0
  6 19  1  0  0  0  0
  7  2  1  1  0  0  0
  7 24  1  0  0  0  0
 10 13  2  0  0  0  0
 11 12  1  1  0  0  0
 11 17  1  0  0  0  0
 13 20  1  0  0  0  0
 15 18  1  0  0  0  0
 16 15  1  6  0  0  0
 16 13  1  0  0  0  0
 16  7  1  0  0  0  0
 17  8  1  1  0  0  0
 18  4  1  0  0  0  0
 19 14  1  6  0  0  0
 19 27  1  0  0  0  0
 20  1  1  0  0  0  0
 20 24  1  0  0  0  0
 21  3  1  0  0  0  0
 22 12  1  0  0  0  0
 23  9  1  1  0  0  0
 23  3  1  0  0  0  0
 23 22  1  0  0  0  0
 24 14  1  6  0  0  0
 25 28  2  0  0  0  0
 26 30  1  0  0  0  0
 27 25  1  1  0  0  0
 27 29  1  0  0  0  0
 28 31  1  0  0  0  0
 29 30  2  0  0  0  0
 31 26  2  0  0  0  0
 32 29  1  1  0  0  0
 32 34  1  0  0  0  0
 32 33  1  0  0  0  0
 34 33  1  0  0  0  0
 35 36  2  0  0  0  0
 36 21  1  0  0  0  0
 36 37  1  0  0  0  0
 38 37  1  0  0  0  0
 38 39  1  0  0  0  0
 40 43  1  0  0  0  0
 40 39  1  0  0  0  0
 41 40  2  0  0  0  0
 43 42  1  0  0  0  0
M  END
>  <MODEL>
1

>  <REMARK>
 VINA RESULT:      -5.9      0.000      0.000
  Name = 
  8 active torsions:
  status: ('A' for Active; 'I' for Inactive)
    1  A    between atoms: C_1  and  C_31
    2  A    between atoms: C_13  and  N_37
    3  A    between atoms: C_19  and  C_30
    4  A    between atoms: C_19  and  N_40
    5  A    between atoms: C_21  and  C_33
    6  A    between atoms: C_21  and  C_34
    7  A    between atoms: O_27  and  C_30
    8  A    between atoms: O_27  and  C_33
                            x       y       z     vdW  Elec       q    Type
                         _______ _______ _______ _____ _____    ______ ____

>  <TORSDO>
F 8

$$$$
=
 OpenBabel11062412183D

 43 49  0  0  1  0  0  0  0  0999 V2000
  191.1020  177.1200  138.5620 C   0  0  0  0  0  1  0  0  0  0  0  0
  186.0680  177.5830  138.3100 C   0  0  0  0  0  3  0  0  0  0  0  0
  183.3120  178.3780  138.8540 C   0  0  2  0  0  0  0  0  0  0  0  0
  185.1720  177.6540  137.3280 C   0  0  0  0  0  0  0  0  0  0  0  0
  185.7550  179.1730  140.8380 C   0  0  0  0  0  2  0  0  0  0  0  0
  186.7330  178.0340  141.1470 C   0  0  0  0  0  2  0  0  0  0  0  0
  187.4880  177.7210  137.9480 C   0  0  2  0  0  3  0  0  0  0  0  0
  184.2050  178.4460  142.6740 C   0  0  0  0  0  1  0  0  0  0  0  0
  182.9440  179.8400  138.6860 C   0  0  0  0  0  2  0  0  0  0  0  0
  190.0810  176.8650  135.7960 O   0  0  0  0  0  0  0  0  0  0  0  0
  183.5900  177.8100  140.2600 C   0  0  2  0  0  3  0  0  0  0  0  0
  182.1950  177.5280  140.7930 C   0  0  0  0  0  2  0  0  0  0  0  0
  189.3040  177.0820  136.7650 C   0  0  0  0  0  0  0  0  0  0  0  0
  188.6780  178.7250  139.8660 C   0  0  0  0  0  2  0  0  0  0  0  0
  187.0510  177.6180  135.5810 C   0  0  0  0  0  2  0  0  0  0  0  0
  187.8310  176.9450  136.7080 C   0  0  2  0  0  3  0  0  0  0  0  0
  184.3020  178.8290  141.1990 C   0  0  2  0  0  3  0  0  0  0  0  0
  185.6180  177.6370  135.9480 N   0  0  0  0  0  2  0  0  0  0  0  0
  188.1160  178.5250  141.2210 N   0  0  2  0  0  0  0  0  0  0  0  0
  189.7510  177.3740  138.0890 N   0  0  0  0  0  0  0  0  0  0  0  0
  183.7760  177.6460  137.6540 N   0  0  0  0  0  0  0  0  0  0  0  0
  181.3100  178.5870  140.1640 C   0  0  0  0  0  2  0  0  0  0  0  0
  181.8470  178.7870  138.7620 C   0  0  2  0  0  3  0  0  0  0  0  0
  188.5870  177.4880  138.9610 C   0  0  2  0  0  3  0  0  0  0  0  0
  190.3350  177.8870  141.9640 N   0  0  0  0  0  0  0  0  0  0  0  0
  189.9370  175.4630  143.7590 C   0  0  0  0  0  3  0  0  0  0  0  0
  188.9150  177.5430  141.9790 C   0  0  1  0  0  3  0  0  0  0  0  0
  191.2640  177.0780  142.3750 C   0  0  0  0  0  3  0  0  0  0  0  0
  188.4610  177.3810  143.4150 C   0  0  0  0  0  0  0  0  0  0  0  0
  188.9050  176.3900  144.1330 N   0  0  0  0  0  0  0  0  0  0  0  0
  190.9910  175.7610  142.9870 C   0  0  0  0  0  3  0  0  0  0  0  0
  187.4300  178.2900  144.0210 C   0  0  2  0  0  3  0  0  0  0  0  0
  187.5560  178.2720  145.4240 O   0  0  0  0  0  0  0  0  0  0  0  0
  186.4950  177.5280  144.8820 C   0  0  0  0  0  2  0  0  0  0  0  0
  182.6040  176.9130  135.6960 C   0  0  0  0  0  2  0  0  0  0  0  0
  182.9190  176.7100  136.9700 C   0  0  0  0  0  0  0  0  0  0  0  0
  182.6700  175.3500  137.5440 C   0  0  0  0  0  2  0  0  0  0  0  0
  183.8710  174.7650  137.9530 O   0  0  0  0  0  0  0  0  0  0  0  0
  184.1070  173.7450  137.0280 C   0  0  0  0  0  2  0  0  0  0  0  0
  185.3950  173.9950  136.3200 C   0  0  0  0  0  0  0  0  0  0  0  0
  185.3910  174.4050  135.1690 O   0  0  0  0  0  0  0  0  0  0  0  0
  186.5120  172.6820  137.9420 O   0  0  0  0  0  1  0  0  0  0  0  0
  186.6870  173.7100  137.0090 C   0  0  0  0  0  2  0  0  0  0  0  0
  3  9  1  6  0  0  0
  3 11  1  0  0  0  0
  4 21  1  0  0  0  0
  4  2  2  0  0  0  0
  5  6  1  0  0  0  0
  5 17  1  0  0  0  0
  6 19  1  0  0  0  0
  7  2  1  1  0  0  0
  7 24  1  0  0  0  0
 10 13  2  0  0  0  0
 11 12  1  1  0  0  0
 11 17  1  0  0  0  0
 13 20  1  0  0  0  0
 15 18  1  0  0  0  0
 16 15  1  6  0  0  0
 16 13  1  0  0  0  0
 16  7  1  0  0  0  0
 17  8  1  1  0  0  0
 18  4  1  0  0  0  0
 19 14  1  6  0  0  0
 19 27  1  0  0  0  0
 20  1  1  0  0  0  0
 20 24  1  0  0  0  0
 21  3  1  0  0  0  0
 22 12  1  0  0  0  0
 23  9  1  1  0  0  0
 23  3  1  0  0  0  0
 23 22  1  0  0  0  0
 24 14  1  1  0  0  0
 25 28  2  0  0  0  0
 26 30  1  0  0  0  0
 27 25  1  1  0  0  0
 27 29  1  0  0  0  0
 28 31  1  0  0  0  0
 29 30  2  0  0  0  0
 31 26  2  0  0  0  0
 32 29  1  6  0  0  0
 32 34  1  0  0  0  0
 32 33  1  0  0  0  0
 34 33  1  0  0  0  0
 35 36  2  0  0  0  0
 36 37  1  0  0  0  0
 36 21  1  0  0  0  0
 37 38  1  0  0  0  0
 39 38  1  0  0  0  0
 40 43  1  0  0  0  0
 40 39  1  0  0  0  0
 41 40  2  0  0  0  0
 43 42  1  0  0  0  0
M  END
>  <MODEL>
2

>  <REMARK>
 VINA RESULT:      -5.8      1.714      2.430
  Name = 
  8 active torsions:
  status: ('A' for Active; 'I' for Inactive)
    1  A    between atoms: C_1  and  C_31
    2  A    between atoms: C_13  and  N_37
    3  A    between atoms: C_19  and  C_30
    4  A    between atoms: C_19  and  N_40
    5  A    between atoms: C_21  and  C_33
    6  A    between atoms: C_21  and  C_34
    7  A    between atoms: O_27  and  C_30
    8  A    between atoms: O_27  and  C_33
                            x       y       z     vdW  Elec       q    Type
                         _______ _______ _______ _____ _____    ______ ____

>  <TORSDO>
F 8

$$$$
=
 OpenBabel11062412183D

 43 49  0  0  1  0  0  0  0  0999 V2000
  191.2650  177.1480  138.7070 C   0  0  0  0  0  1  0  0  0  0  0  0
  186.2400  177.7410  138.6060 C   0  0  0  0  0  3  0  0  0  0  0  0
  183.5220  178.6000  139.2380 C   0  0  2  0  0  0  0  0  0  0  0  0
  185.3170  177.8450  137.6520 C   0  0  0  0  0  0  0  0  0  0  0  0
  186.0410  179.3140  141.1570 C   0  0  0  0  0  2  0  0  0  0  0  0
  186.9980  178.1480  141.4260 C   0  0  0  0  0  2  0  0  0  0  0  0
  187.6510  177.8460  138.2040 C   0  0  2  0  0  3  0  0  0  0  0  0
  184.5260  178.6090  143.0310 C   0  0  0  0  0  1  0  0  0  0  0  0
  183.1860  180.0730  139.0930 C   0  0  0  0  0  2  0  0  0  0  0  0
  190.1580  176.9450  135.9700 O   0  0  0  0  0  0  0  0  0  0  0  0
  183.8260  178.0120  140.6300 C   0  0  2  0  0  3  0  0  0  0  0  0
  182.4400  177.7600  141.2010 C   0  0  0  0  0  2  0  0  0  0  0  0
  189.4150  177.1730  136.9630 C   0  0  0  0  0  0  0  0  0  0  0  0
  188.9220  178.8010  140.0960 C   0  0  0  0  0  2  0  0  0  0  0  0
  187.1440  177.7770  135.8500 C   0  0  0  0  0  2  0  0  0  0  0  0
  187.9380  177.0740  136.9480 C   0  0  2  0  0  3  0  0  0  0  0  0
  184.5910  179.0030  141.5560 C   0  0  2  0  0  3  0  0  0  0  0  0
  185.7230  177.8290  136.2590 N   0  0  0  0  0  2  0  0  0  0  0  0
  188.3950  178.6020  141.4640 N   0  0  2  0  0  0  0  0  0  0  0  0
  189.9080  177.4410  138.2760 N   0  0  0  0  0  0  0  0  0  0  0  0
  183.9320  177.8680  138.0190 N   0  0  0  0  0  0  0  0  0  0  0  0
  181.5650  178.8480  140.6070 C   0  0  0  0  0  2  0  0  0  0  0  0
  182.0660  179.0480  139.1930 C   0  0  2  0  0  3  0  0  0  0  0  0
  188.7730  177.5760  139.1830 C   0  0  2  0  0  3  0  0  0  0  0  0
  190.6120  177.9270  142.1800 N   0  0  0  0  0  0  0  0  0  0  0  0
  190.2040  175.4550  143.9040 C   0  0  0  0  0  3  0  0  0  0  0  0
  189.1900  177.5930  142.1900 C   0  0  1  0  0  3  0  0  0  0  0  0
  191.5370  177.1010  142.5630 C   0  0  0  0  0  3  0  0  0  0  0  0
  188.7400  177.3930  143.6220 C   0  0  0  0  0  0  0  0  0  0  0  0
  189.1810  176.3780  144.3100 N   0  0  0  0  0  0  0  0  0  0  0  0
  191.2570  175.7680  143.1370 C   0  0  0  0  0  3  0  0  0  0  0  0
  187.7180  178.2900  144.2590 C   0  0  2  0  0  3  0  0  0  0  0  0
  187.8680  178.2530  145.6590 O   0  0  0  0  0  0  0  0  0  0  0  0
  186.8000  177.5140  145.1250 C   0  0  0  0  0  2  0  0  0  0  0  0
  182.4370  177.3310  136.2230 C   0  0  0  0  0  2  0  0  0  0  0  0
  183.0320  176.9620  137.3510 C   0  0  0  0  0  0  0  0  0  0  0  0
  183.0270  175.5050  137.6990 C   0  0  0  0  0  2  0  0  0  0  0  0
  182.3520  175.2930  138.9040 O   0  0  0  0  0  0  0  0  0  0  0  0
  181.0820  174.8440  138.5320 C   0  0  0  0  0  2  0  0  0  0  0  0
  180.0950  175.1850  139.5960 C   0  0  0  0  0  0  0  0  0  0  0  0
  179.9990  174.4810  140.5890 O   0  0  0  0  0  0  0  0  0  0  0  0
  179.3700  176.9130  138.1480 O   0  0  0  0  0  1  0  0  0  0  0  0
  179.2020  176.3680  139.4260 C   0  0  0  0  0  2  0  0  0  0  0  0
  3  9  1  6  0  0  0
  3 11  1  0  0  0  0
  4 21  1  0  0  0  0
  4  2  2  0  0  0  0
  5  6  1  0  0  0  0
  5 17  1  0  0  0  0
  6 19  1  0  0  0  0
  7  2  1  1  0  0  0
  7 24  1  0  0  0  0
 10 13  2  0  0  0  0
 11 12  1  1  0  0  0
 11 17  1  0  0  0  0
 13 20  1  0  0  0  0
 15 18  1  0  0  0  0
 16 15  1  6  0  0  0
 16 13  1  0  0  0  0
 16  7  1  0  0  0  0
 17  8  1  1  0  0  0
 18  4  1  0  0  0  0
 19 14  1  6  0  0  0
 19 27  1  0  0  0  0
 20  1  1  0  0  0  0
 20 24  1  0  0  0  0
 21  3  1  0  0  0  0
 22 12  1  0  0  0  0
 23  9  1  1  0  0  0
 23  3  1  0  0  0  0
 23 22  1  0  0  0  0
 24 14  1  1  0  0  0
 25 28  2  0  0  0  0
 26 30  1  0  0  0  0
 27 25  1  1  0  0  0
 27 29  1  0  0  0  0
 28 31  1  0  0  0  0
 29 30  2  0  0  0  0
 31 26  2  0  0  0  0
 32 29  1  6  0  0  0
 32 34  1  0  0  0  0
 32 33  1  0  0  0  0
 34 33  1  0  0  0  0
 35 36  2  0  0  0  0
 36 37  1  0  0  0  0
 36 21  1  0  0  0  0
 37 38  1  0  0  0  0
 39 38  1  0  0  0  0
 39 40  1  0  0  0  0
 40 41  2  0  0  0  0
 42 43  1  0  0  0  0
 43 40  1  0  0  0  0
M  END
>  <MODEL>
3

>  <REMARK>
 VINA RESULT:      -5.6      2.137      3.491
  Name = 
  8 active torsions:
  status: ('A' for Active; 'I' for Inactive)
    1  A    between atoms: C_1  and  C_31
    2  A    between atoms: C_13  and  N_37
    3  A    between atoms: C_19  and  C_30
    4  A    between atoms: C_19  and  N_40
    5  A    between atoms: C_21  and  C_33
    6  A    between atoms: C_21  and  C_34
    7  A    between atoms: O_27  and  C_30
    8  A    between atoms: O_27  and  C_33
                            x       y       z     vdW  Elec       q    Type
                         _______ _______ _______ _____ _____    ______ ____

>  <TORSDO>
F 8

$$$$
=
 OpenBabel11062412183D

 43 49  0  0  1  0  0  0  0  0999 V2000
  181.3290  178.5900  141.7710 C   0  0  0  0  0  1  0  0  0  0  0  0
  186.1170  178.0020  140.2400 C   0  0  0  0  0  3  0  0  0  0  0  0
  188.5080  177.8260  138.5730 C   0  0  2  0  0  0  0  0  0  0  0  0
  187.3130  178.3260  140.7260 C   0  0  0  0  0  0  0  0  0  0  0  0
  185.5390  178.1150  137.2950 C   0  0  0  0  0  2  0  0  0  0  0  0
  184.4740  177.2100  137.9230 C   0  0  0  0  0  2  0  0  0  0  0  0
  184.9360  178.6000  140.8810 C   0  0  2  0  0  3  0  0  0  0  0  0
  186.2780  176.2960  135.7310 C   0  0  0  0  0  1  0  0  0  0  0  0
  188.9670  179.0760  137.8470 C   0  0  0  0  0  2  0  0  0  0  0  0
  183.2840  179.4390  143.8240 O   0  0  0  0  0  0  0  0  0  0  0  0
  187.7120  176.7430  137.8170 C   0  0  2  0  0  3  0  0  0  0  0  0
  188.8020  175.9470  137.1190 C   0  0  0  0  0  2  0  0  0  0  0  0
  183.6590  179.0030  142.7020 C   0  0  0  0  0  0  0  0  0  0  0  0
  183.1620  178.8260  139.1760 C   0  0  0  0  0  2  0  0  0  0  0  0
  186.2070  179.5220  142.7090 C   0  0  0  0  0  2  0  0  0  0  0  0
  185.0430  178.5890  142.3800 C   0  0  2  0  0  3  0  0  0  0  0  0
  186.7430  177.3340  136.7500 C   0  0  2  0  0  3  0  0  0  0  0  0
  187.4050  179.0530  141.9780 N   0  0  0  0  0  2  0  0  0  0  0  0
  183.1790  177.8990  138.0230 N   0  0  2  0  0  0  0  0  0  0  0  0
  182.7670  178.7330  141.6200 N   0  0  0  0  0  0  0  0  0  0  0  0
  188.4900  177.8600  140.0530 N   0  0  0  0  0  0  0  0  0  0  0  0
  189.8950  176.9550  136.8170 C   0  0  0  0  0  2  0  0  0  0  0  0
  189.9180  177.8980  138.0010 C   0  0  2  0  0  3  0  0  0  0  0  0
  183.5340  178.1680  140.5130 C   0  0  2  0  0  3  0  0  0  0  0  0
  180.8790  177.4610  138.6550 N   0  0  0  0  0  0  0  0  0  0  0  0
  180.3870  174.5310  138.0010 C   0  0  0  0  0  3  0  0  0  0  0  0
  182.1210  176.8780  138.1550 C   0  0  1  0  0  3  0  0  0  0  0  0
  179.8720  176.7460  139.0550 C   0  0  0  0  0  3  0  0  0  0  0  0
  181.8370  176.1390  136.8640 C   0  0  0  0  0  0  0  0  0  0  0  0
  181.1090  175.0590  136.8760 N   0  0  0  0  0  0  0  0  0  0  0  0
  179.8280  175.2720  138.9670 C   0  0  0  0  0  3  0  0  0  0  0  0
  182.4470  176.5680  135.5610 C   0  0  2  0  0  3  0  0  0  0  0  0
  182.1410  177.9220  135.3220 O   0  0  0  0  0  0  0  0  0  0  0  0
  181.4000  176.9750  134.5950 C   0  0  0  0  0  2  0  0  0  0  0  0
  190.7780  177.5350  140.6920 C   0  0  0  0  0  2  0  0  0  0  0  0
  189.5030  177.1910  140.8300 C   0  0  0  0  0  0  0  0  0  0  0  0
  189.1240  176.3780  142.0300 C   0  0  0  0  0  2  0  0  0  0  0  0
  190.0590  176.5520  143.0530 O   0  0  0  0  0  0  0  0  0  0  0  0
  189.3670  177.2280  144.0620 C   0  0  0  0  0  2  0  0  0  0  0  0
  190.0690  177.0460  145.3640 C   0  0  0  0  0  0  0  0  0  0  0  0
  189.4250  176.8830  146.3890 O   0  0  0  0  0  0  0  0  0  0  0  0
  192.0090  176.6590  146.6660 O   0  0  0  0  0  1  0  0  0  0  0  0
  191.5590  177.0990  145.4160 C   0  0  0  0  0  2  0  0  0  0  0  0
  2  4  2  0  0  0  0
  3  9  1  6  0  0  0
  3 21  1  0  0  0  0
  4 18  1  0  0  0  0
  5  6  1  0  0  0  0
  7  2  1  6  0  0  0
  7 16  1  0  0  0  0
  9 23  1  0  0  0  0
 11 12  1  6  0  0  0
 11  3  1  0  0  0  0
 13 10  2  0  0  0  0
 16 13  1  0  0  0  0
 16 15  1  6  0  0  0
 17  8  1  1  0  0  0
 17  5  1  0  0  0  0
 17 11  1  0  0  0  0
 18 15  1  0  0  0  0
 19  6  1  1  0  0  0
 19 27  1  0  0  0  0
 19 14  1  0  0  0  0
 20  1  1  0  0  0  0
 20 13  1  0  0  0  0
 21  4  1  0  0  0  0
 21 36  1  0  0  0  0
 22 12  1  0  0  0  0
 23 22  1  6  0  0  0
 23  3  1  0  0  0  0
 24 14  1  6  0  0  0
 24  7  1  0  0  0  0
 24 20  1  0  0  0  0
 25 28  2  0  0  0  0
 26 31  2  0  0  0  0
 27 29  1  6  0  0  0
 27 25  1  0  0  0  0
 29 30  2  0  0  0  0
 30 26  1  0  0  0  0
 31 28  1  0  0  0  0
 32 29  1  1  0  0  0
 33 32  1  0  0  0  0
 34 33  1  0  0  0  0
 34 32  1  0  0  0  0
 35 36  2  0  0  0  0
 36 37  1  0  0  0  0
 37 38  1  0  0  0  0
 38 39  1  0  0  0  0
 39 40  1  0  0  0  0
 40 43  1  0  0  0  0
 40 41  2  0  0  0  0
 43 42  1  0  0  0  0
M  END
>  <MODEL>
4

>  <REMARK>
 VINA RESULT:      -5.4      2.461      8.456
  Name = 
  8 active torsions:
  status: ('A' for Active; 'I' for Inactive)
    1  A    between atoms: C_1  and  C_31
    2  A    between atoms: C_13  and  N_37
    3  A    between atoms: C_19  and  C_30
    4  A    between atoms: C_19  and  N_40
    5  A    between atoms: C_21  and  C_33
    6  A    between atoms: C_21  and  C_34
    7  A    between atoms: O_27  and  C_30
    8  A    between atoms: O_27  and  C_33
                            x       y       z     vdW  Elec       q    Type
                         _______ _______ _______ _____ _____    ______ ____

>  <TORSDO>
F 8

$$$$
=
 OpenBabel11062412183D

 43 49  0  0  1  0  0  0  0  0999 V2000
  181.7540  178.6050  142.9430 C   0  0  0  0  0  1  0  0  0  0  0  0
  185.6530  177.9240  139.7890 C   0  0  0  0  0  3  0  0  0  0  0  0
  187.2720  177.6780  137.3720 C   0  0  2  0  0  0  0  0  0  0  0  0
  186.9450  178.2470  139.7970 C   0  0  0  0  0  0  0  0  0  0  0  0
  184.0410  177.9680  137.2550 C   0  0  0  0  0  2  0  0  0  0  0  0
  183.2780  177.0910  138.2540 C   0  0  0  0  0  2  0  0  0  0  0  0
  184.7880  178.5520  140.8000 C   0  0  2  0  0  3  0  0  0  0  0  0
  184.1570  176.1010  135.5810 C   0  0  0  0  0  1  0  0  0  0  0  0
  187.4360  178.9040  136.4930 C   0  0  0  0  0  2  0  0  0  0  0  0
  184.3240  179.4850  144.1180 O   0  0  0  0  0  0  0  0  0  0  0  0
  186.2540  176.5850  136.9880 C   0  0  2  0  0  3  0  0  0  0  0  0
  187.0140  175.7600  135.9630 C   0  0  0  0  0  2  0  0  0  0  0  0
  184.2640  179.0160  142.9490 C   0  0  0  0  0  0  0  0  0  0  0  0
  182.5150  178.7530  139.8530 C   0  0  0  0  0  2  0  0  0  0  0  0
  186.6390  179.5060  142.0120 C   0  0  0  0  0  2  0  0  0  0  0  0
  185.4340  178.5780  142.1560 C   0  0  2  0  0  3  0  0  0  0  0  0
  184.9630  177.1590  136.3310 C   0  0  2  0  0  3  0  0  0  0  0  0
  187.4880  179.0040  140.9080 N   0  0  0  0  0  2  0  0  0  0  0  0
  182.1090  177.7960  138.7990 N   0  0  2  0  0  0  0  0  0  0  0  0
  183.0380  178.7280  142.2740 N   0  0  0  0  0  0  0  0  0  0  0  0
  187.7950  177.7510  138.7540 N   0  0  0  0  0  0  0  0  0  0  0  0
  187.9230  176.7470  135.2560 C   0  0  0  0  0  2  0  0  0  0  0  0
  188.3770  177.7200  136.3230 C   0  0  2  0  0  3  0  0  0  0  0  0
  183.3480  178.1260  140.9800 C   0  0  2  0  0  3  0  0  0  0  0  0
  180.1400  177.4150  140.1620 N   0  0  0  0  0  0  0  0  0  0  0  0
  179.5310  174.4440  139.9160 C   0  0  0  0  0  3  0  0  0  0  0  0
  181.1720  176.7920  139.3370 C   0  0  1  0  0  3  0  0  0  0  0  0
  179.3290  176.7350  140.9140 C   0  0  0  0  0  3  0  0  0  0  0  0
  180.5070  175.9570  138.2620 C   0  0  0  0  0  0  0  0  0  0  0  0
  179.8460  174.8820  138.5840 N   0  0  0  0  0  0  0  0  0  0  0  0
  179.2920  175.2580  140.9530 C   0  0  0  0  0  3  0  0  0  0  0  0
  180.6620  176.2820  136.8040 C   0  0  2  0  0  3  0  0  0  0  0  0
  179.9350  177.4510  136.5050 O   0  0  0  0  0  0  0  0  0  0  0  0
  179.3530  176.2350  136.1100 C   0  0  0  0  0  2  0  0  0  0  0  0
  189.3020  175.8900  138.6350 C   0  0  0  0  0  2  0  0  0  0  0  0
  189.0210  177.0900  139.1280 C   0  0  0  0  0  0  0  0  0  0  0  0
  190.1340  177.8630  139.7640 C   0  0  0  0  0  2  0  0  0  0  0  0
  190.7780  177.0860  140.7310 O   0  0  0  0  0  0  0  0  0  0  0  0
  190.2260  177.4960  141.9470 C   0  0  0  0  0  2  0  0  0  0  0  0
  189.6970  176.3130  142.6850 C   0  0  0  0  0  0  0  0  0  0  0  0
  190.3760  175.3030  142.7870 O   0  0  0  0  0  0  0  0  0  0  0  0
  188.3350  177.0910  144.4580 O   0  0  0  0  0  1  0  0  0  0  0  0
  188.3240  176.3560  143.2680 C   0  0  0  0  0  2  0  0  0  0  0  0
  2  4  2  0  0  0  0
  3  9  1  6  0  0  0
  3 21  1  0  0  0  0
  4 18  1  0  0  0  0
  5  6  1  0  0  0  0
  7  2  1  6  0  0  0
  7 24  1  0  0  0  0
  7 16  1  0  0  0  0
 11 12  1  6  0  0  0
 11  3  1  0  0  0  0
 13 10  2  0  0  0  0
 16 15  1  6  0  0  0
 16 13  1  0  0  0  0
 17  8  1  1  0  0  0
 17 11  1  0  0  0  0
 17  5  1  0  0  0  0
 18 15  1  0  0  0  0
 19  6  1  1  0  0  0
 19 27  1  0  0  0  0
 19 14  1  0  0  0  0
 20  1  1  0  0  0  0
 20 13  1  0  0  0  0
 21 36  1  0  0  0  0
 21  4  1  0  0  0  0
 22 12  1  0  0  0  0
 23 22  1  6  0  0  0
 23  9  1  0  0  0  0
 23  3  1  0  0  0  0
 24 14  1  6  0  0  0
 24 20  1  0  0  0  0
 25 28  2  0  0  0  0
 26 31  2  0  0  0  0
 27 29  1  6  0  0  0
 27 25  1  0  0  0  0
 28 31  1  0  0  0  0
 29 30  2  0  0  0  0
 30 26  1  0  0  0  0
 32 29  1  1  0  0  0
 33 32  1  0  0  0  0
 34 33  1  0  0  0  0
 34 32  1  0  0  0  0
 35 36  2  0  0  0  0
 36 37  1  0  0  0  0
 37 38  1  0  0  0  0
 38 39  1  0  0  0  0
 39 40  1  0  0  0  0
 40 41  2  0  0  0  0
 40 43  1  0  0  0  0
 43 42  1  0  0  0  0
M  END
>  <MODEL>
5

>  <REMARK>
 VINA RESULT:      -5.3      2.489      7.642
  Name = 
  8 active torsions:
  status: ('A' for Active; 'I' for Inactive)
    1  A    between atoms: C_1  and  C_31
    2  A    between atoms: C_13  and  N_37
    3  A    between atoms: C_19  and  C_30
    4  A    between atoms: C_19  and  N_40
    5  A    between atoms: C_21  and  C_33
    6  A    between atoms: C_21  and  C_34
    7  A    between atoms: O_27  and  C_30
    8  A    between atoms: O_27  and  C_33
                            x       y       z     vdW  Elec       q    Type
                         _______ _______ _______ _____ _____    ______ ____

>  <TORSDO>
F 8

$$$$
=
 OpenBabel11062412183D

 43 49  0  0  1  0  0  0  0  0999 V2000
  191.7460  177.6430  141.8760 C   0  0  0  0  0  1  0  0  0  0  0  0
  188.8360  176.6740  137.8500 C   0  0  0  0  0  3  0  0  0  0  0  0
  186.6960  176.7840  135.8660 C   0  0  2  0  0  0  0  0  0  0  0  0
  189.0560  176.3120  136.5870 C   0  0  0  0  0  0  0  0  0  0  0  0
  186.6240  178.5720  138.5750 C   0  0  0  0  0  2  0  0  0  0  0  0
  187.0030  177.8200  139.8550 C   0  0  0  0  0  2  0  0  0  0  0  0
  189.9930  177.1180  138.6430 C   0  0  2  0  0  3  0  0  0  0  0  0
  184.2360  177.8170  138.7430 C   0  0  0  0  0  1  0  0  0  0  0  0
  186.5770  178.0330  135.0130 C   0  0  0  0  0  2  0  0  0  0  0  0
  193.3000  176.6000  139.5850 O   0  0  0  0  0  0  0  0  0  0  0  0
  185.7700  176.5910  137.0840 C   0  0  2  0  0  3  0  0  0  0  0  0
  184.4960  176.0500  136.4560 C   0  0  0  0  0  2  0  0  0  0  0  0
  192.0540  176.7800  139.5040 C   0  0  0  0  0  0  0  0  0  0  0  0
  189.1980  178.7530  140.3170 C   0  0  0  0  0  2  0  0  0  0  0  0
  191.5900  176.4520  136.9670 C   0  0  0  0  0  2  0  0  0  0  0  0
  191.1940  176.2420  138.4270 C   0  0  2  0  0  3  0  0  0  0  0  0
  185.4520  177.9230  137.8250 C   0  0  2  0  0  3  0  0  0  0  0  0
  190.4190  176.1530  136.1150 N   0  0  0  0  0  2  0  0  0  0  0  0
  187.7890  178.6700  140.7610 N   0  0  2  0  0  0  0  0  0  0  0  0
  191.2820  177.4280  140.5150 N   0  0  0  0  0  0  0  0  0  0  0  0
  187.9400  175.9900  135.7490 N   0  0  0  0  0  0  0  0  0  0  0  0
  184.4280  176.6910  135.0830 C   0  0  0  0  0  2  0  0  0  0  0  0
  185.8590  176.7580  134.5940 C   0  0  2  0  0  3  0  0  0  0  0  0
  189.8750  177.3880  140.1270 C   0  0  2  0  0  3  0  0  0  0  0  0
  188.8140  178.5470  142.9560 N   0  0  0  0  0  0  0  0  0  0  0  0
  186.9070  176.9040  144.6650 C   0  0  0  0  0  3  0  0  0  0  0  0
  187.7000  178.1030  142.1210 C   0  0  1  0  0  3  0  0  0  0  0  0
  189.0790  178.0280  144.1160 C   0  0  0  0  0  3  0  0  0  0  0  0
  186.3970  178.4270  142.8210 C   0  0  0  0  0  0  0  0  0  0  0  0
  186.0730  177.8060  143.9190 N   0  0  0  0  0  0  0  0  0  0  0  0
  188.2400  177.0000  144.7650 C   0  0  0  0  0  3  0  0  0  0  0  0
  185.4090  179.3950  142.2360 C   0  0  2  0  0  3  0  0  0  0  0  0
  184.3680  179.6180  143.1600 O   0  0  0  0  0  0  0  0  0  0  0  0
  184.0770  178.7630  142.0840 C   0  0  0  0  0  2  0  0  0  0  0  0
  189.1250  174.2530  134.5960 C   0  0  0  0  0  2  0  0  0  0  0  0
  187.9670  174.7450  135.0220 C   0  0  0  0  0  0  0  0  0  0  0  0
  186.7840  173.8280  135.0450 C   0  0  0  0  0  2  0  0  0  0  0  0
  187.0680  172.6830  135.7930 O   0  0  0  0  0  0  0  0  0  0  0  0
  185.8500  172.0030  135.8860 C   0  0  0  0  0  2  0  0  0  0  0  0
  185.0700  172.5220  137.0460 C   0  0  0  0  0  0  0  0  0  0  0  0
  185.6520  172.9890  138.0140 O   0  0  0  0  0  0  0  0  0  0  0  0
  183.1790  171.1020  137.1520 O   0  0  0  0  0  1  0  0  0  0  0  0
  183.5810  172.4370  137.0350 C   0  0  0  0  0  2  0  0  0  0  0  0
  3  9  1  1  0  0  0
  3 11  1  0  0  0  0
  4  2  2  0  0  0  0
  5  6  1  0  0  0  0
  7  2  1  1  0  0  0
  7 24  1  0  0  0  0
 11 12  1  6  0  0  0
 11 17  1  0  0  0  0
 13 10  2  0  0  0  0
 13 20  1  0  0  0  0
 14 19  1  0  0  0  0
 16 15  1  6  0  0  0
 16  7  1  0  0  0  0
 16 13  1  0  0  0  0
 17  5  1  0  0  0  0
 17  8  1  1  0  0  0
 18  4  1  0  0  0  0
 18 15  1  0  0  0  0
 19  6  1  6  0  0  0
 19 27  1  0  0  0  0
 20  1  1  0  0  0  0
 21  3  1  0  0  0  0
 21  4  1  0  0  0  0
 22 12  1  0  0  0  0
 23  9  1  1  0  0  0
 23 22  1  0  0  0  0
 23  3  1  0  0  0  0
 24 14  1  6  0  0  0
 24 20  1  0  0  0  0
 25 28  2  0  0  0  0
 26 31  2  0  0  0  0
 27 29  1  1  0  0  0
 27 25  1  0  0  0  0
 28 31  1  0  0  0  0
 29 30  2  0  0  0  0
 30 26  1  0  0  0  0
 32 29  1  1  0  0  0
 32 33  1  0  0  0  0
 34 32  1  0  0  0  0
 34 33  1  0  0  0  0
 35 36  2  0  0  0  0
 36 37  1  0  0  0  0
 36 21  1  0  0  0  0
 37 38  1  0  0  0  0
 38 39  1  0  0  0  0
 39 40  1  0  0  0  0
 40 41  2  0  0  0  0
 43 40  1  0  0  0  0
 43 42  1  0  0  0  0
M  END
>  <MODEL>
6

>  <REMARK>
 VINA RESULT:      -5.3      2.641      4.612
  Name = 
  8 active torsions:
  status: ('A' for Active; 'I' for Inactive)
    1  A    between atoms: C_1  and  C_31
    2  A    between atoms: C_13  and  N_37
    3  A    between atoms: C_19  and  C_30
    4  A    between atoms: C_19  and  N_40
    5  A    between atoms: C_21  and  C_33
    6  A    between atoms: C_21  and  C_34
    7  A    between atoms: O_27  and  C_30
    8  A    between atoms: O_27  and  C_33
                            x       y       z     vdW  Elec       q    Type
                         _______ _______ _______ _____ _____    ______ ____

>  <TORSDO>
F 8

$$$$
=
 OpenBabel11062412183D

 43 49  0  0  1  0  0  0  0  0999 V2000
  191.2120  177.0680  140.0680 C   0  0  0  0  0  1  0  0  0  0  0  0
  186.8930  176.0590  137.6290 C   0  0  0  0  0  3  0  0  0  0  0  0
  184.1630  176.2330  136.6080 C   0  0  2  0  0  0  0  0  0  0  0  0
  186.5730  175.5410  136.4450 C   0  0  0  0  0  0  0  0  0  0  0  0
  185.2950  178.2910  138.8480 C   0  0  0  0  0  2  0  0  0  0  0  0
  186.0860  177.6360  139.9860 C   0  0  0  0  0  2  0  0  0  0  0  0
  188.2990  176.4330  137.8520 C   0  0  2  0  0  3  0  0  0  0  0  0
  183.1130  177.8710  140.0150 C   0  0  0  0  0  1  0  0  0  0  0  0
  183.8160  177.3890  135.6890 C   0  0  0  0  0  2  0  0  0  0  0  0
  191.6600  175.5970  137.5390 O   0  0  0  0  0  0  0  0  0  0  0  0
  183.7750  176.2890  138.1000 C   0  0  2  0  0  3  0  0  0  0  0  0
  182.3200  175.8530  138.0870 C   0  0  0  0  0  2  0  0  0  0  0  0
  190.5000  175.9260  137.9100 C   0  0  0  0  0  0  0  0  0  0  0  0
  188.3520  178.3240  139.4420 C   0  0  0  0  0  2  0  0  0  0  0  0
  189.0560  175.3950  135.8140 C   0  0  0  0  0  2  0  0  0  0  0  0
  189.2480  175.3920  137.3290 C   0  0  2  0  0  3  0  0  0  0  0  0
  183.8770  177.7220  138.7010 C   0  0  2  0  0  3  0  0  0  0  0  0
  187.6250  175.1600  135.5220 N   0  0  0  0  0  2  0  0  0  0  0  0
  187.2260  178.4690  140.3920 N   0  0  2  0  0  0  0  0  0  0  0  0
  190.2380  176.7720  139.0300 N   0  0  0  0  0  0  0  0  0  0  0  0
  185.1960  175.2780  136.1480 N   0  0  0  0  0  0  0  0  0  0  0  0
  181.7700  176.3480  136.7630 C   0  0  0  0  0  2  0  0  0  0  0  0
  182.8950  176.1790  135.7650 C   0  0  2  0  0  3  0  0  0  0  0  0
  188.7930  176.8710  139.2130 C   0  0  2  0  0  3  0  0  0  0  0  0
  188.8970  178.6900  142.1370 N   0  0  0  0  0  0  0  0  0  0  0  0
  187.8200  177.1250  144.5120 C   0  0  0  0  0  3  0  0  0  0  0  0
  187.6340  178.0650  141.7520 C   0  0  1  0  0  3  0  0  0  0  0  0
  189.5700  178.3360  143.1890 C   0  0  0  0  0  3  0  0  0  0  0  0
  186.5900  178.3720  142.8060 C   0  0  0  0  0  0  0  0  0  0  0  0
  186.6990  177.8640  144.0000 N   0  0  0  0  0  0  0  0  0  0  0  0
  189.0970  177.3330  144.1650 C   0  0  0  0  0  3  0  0  0  0  0  0
  185.3670  179.1840  142.4900 C   0  0  2  0  0  3  0  0  0  0  0  0
  184.8710  179.7650  143.6730 O   0  0  0  0  0  0  0  0  0  0  0  0
  184.1780  178.6430  143.1900 C   0  0  0  0  0  2  0  0  0  0  0  0
  185.5050  173.4450  134.6330 C   0  0  0  0  0  2  0  0  0  0  0  0
  184.8400  173.9700  135.6560 C   0  0  0  0  0  0  0  0  0  0  0  0
  183.9930  173.0540  136.4830 C   0  0  0  0  0  2  0  0  0  0  0  0
  182.7900  172.7760  135.8270 O   0  0  0  0  0  0  0  0  0  0  0  0
  181.9070  172.3990  136.8420 C   0  0  0  0  0  2  0  0  0  0  0  0
  180.5010  172.5760  136.3770 C   0  0  0  0  0  0  0  0  0  0  0  0
  180.1850  172.2430  135.2450 O   0  0  0  0  0  0  0  0  0  0  0  0
  180.0260  173.3230  138.5730 O   0  0  0  0  0  1  0  0  0  0  0  0
  179.4920  173.1930  137.2860 C   0  0  0  0  0  2  0  0  0  0  0  0
  3  9  1  6  0  0  0
  3 11  1  0  0  0  0
  4  2  2  0  0  0  0
  5  6  1  0  0  0  0
  6 19  1  0  0  0  0
  7  2  1  1  0  0  0
  7 24  1  0  0  0  0
 10 13  2  0  0  0  0
 11 12  1  6  0  0  0
 11 17  1  0  0  0  0
 13 20  1  0  0  0  0
 16 15  1  6  0  0  0
 16  7  1  0  0  0  0
 16 13  1  0  0  0  0
 17  5  1  0  0  0  0
 17  8  1  1  0  0  0
 18 15  1  0  0  0  0
 18  4  1  0  0  0  0
 19 14  1  6  0  0  0
 19 27  1  0  0  0  0
 20 24  1  0  0  0  0
 20  1  1  0  0  0  0
 21  4  1  0  0  0  0
 21  3  1  0  0  0  0
 22 12  1  0  0  0  0
 23  9  1  6  0  0  0
 23  3  1  0  0  0  0
 23 22  1  0  0  0  0
 24 14  1  6  0  0  0
 25 28  2  0  0  0  0
 27 25  1  1  0  0  0
 27 29  1  0  0  0  0
 28 31  1  0  0  0  0
 29 30  2  0  0  0  0
 30 26  1  0  0  0  0
 31 26  2  0  0  0  0
 32 29  1  1  0  0  0
 32 34  1  0  0  0  0
 32 33  1  0  0  0  0
 34 33  1  0  0  0  0
 35 36  2  0  0  0  0
 36 21  1  0  0  0  0
 36 37  1  0  0  0  0
 38 37  1  0  0  0  0
 38 39  1  0  0  0  0
 40 39  1  0  0  0  0
 40 43  1  0  0  0  0
 41 40  2  0  0  0  0
 43 42  1  0  0  0  0
M  END
>  <MODEL>
7

>  <REMARK>
 VINA RESULT:      -4.7      1.969      3.177
  Name = 
  8 active torsions:
  status: ('A' for Active; 'I' for Inactive)
    1  A    between atoms: C_1  and  C_31
    2  A    between atoms: C_13  and  N_37
    3  A    between atoms: C_19  and  C_30
    4  A    between atoms: C_19  and  N_40
    5  A    between atoms: C_21  and  C_33
    6  A    between atoms: C_21  and  C_34
    7  A    between atoms: O_27  and  C_30
    8  A    between atoms: O_27  and  C_33
                            x       y       z     vdW  Elec       q    Type
                         _______ _______ _______ _____ _____    ______ ____

>  <TORSDO>
F 8

$$$$
=
 OpenBabel11062412183D

 43 49  0  0  1  0  0  0  0  0999 V2000
  183.9340  178.6230  143.5840 C   0  0  0  0  0  1  0  0  0  0  0  0
  187.2590  177.7230  139.8760 C   0  0  0  0  0  3  0  0  0  0  0  0
  188.5960  177.6850  137.2810 C   0  0  2  0  0  0  0  0  0  0  0  0
  188.5850  177.6420  139.7930 C   0  0  0  0  0  0  0  0  0  0  0  0
  185.6190  178.9200  137.6630 C   0  0  0  0  0  2  0  0  0  0  0  0
  184.6690  178.0660  138.5090 C   0  0  0  0  0  2  0  0  0  0  0  0
  186.6860  178.2750  141.1140 C   0  0  2  0  0  3  0  0  0  0  0  0
  185.0580  177.6290  135.5850 C   0  0  0  0  0  1  0  0  0  0  0  0
  189.0930  179.0010  136.7140 C   0  0  0  0  0  2  0  0  0  0  0  0
  186.7040  178.3640  144.5900 O   0  0  0  0  0  0  0  0  0  0  0  0
  187.2670  177.0820  136.7800 C   0  0  2  0  0  3  0  0  0  0  0  0
  187.6770  176.3830  135.4940 C   0  0  0  0  0  2  0  0  0  0  0  0
  186.4420  178.2690  143.3600 C   0  0  0  0  0  0  0  0  0  0  0  0
  184.5480  179.3780  140.5510 C   0  0  0  0  0  2  0  0  0  0  0  0
  188.8010  178.2830  142.2680 C   0  0  0  0  0  2  0  0  0  0  0  0
  187.3750  177.7430  142.3390 C   0  0  2  0  0  3  0  0  0  0  0  0
  186.1920  178.1620  136.4580 C   0  0  2  0  0  3  0  0  0  0  0  0
  189.3930  177.8770  140.9740 N   0  0  0  0  0  2  0  0  0  0  0  0
  183.8100  178.9050  139.3580 N   0  0  2  0  0  0  0  0  0  0  0  0
  185.1560  178.5440  142.8030 N   0  0  0  0  0  0  0  0  0  0  0  0
  189.1830  177.2240  138.5590 N   0  0  0  0  0  0  0  0  0  0  0  0
  188.8140  177.2170  134.9360 C   0  0  0  0  0  2  0  0  0  0  0  0
  189.6040  177.6870  136.1380 C   0  0  2  0  0  3  0  0  0  0  0  0
  185.1960  178.2540  141.3720 C   0  0  2  0  0  3  0  0  0  0  0  0
  181.8470  178.7930  140.7780 N   0  0  0  0  0  0  0  0  0  0  0  0
  180.3890  176.2480  139.9690 C   0  0  0  0  0  3  0  0  0  0  0  0
  182.6320  178.1090  139.7530 C   0  0  1  0  0  3  0  0  0  0  0  0
  180.8900  178.2160  141.4390 C   0  0  0  0  0  3  0  0  0  0  0  0
  181.7270  177.7590  138.5900 C   0  0  0  0  0  0  0  0  0  0  0  0
  180.7870  176.8700  138.7370 N   0  0  0  0  0  0  0  0  0  0  0  0
  180.4230  176.8400  141.1710 C   0  0  0  0  0  3  0  0  0  0  0  0
  181.9370  178.3500  137.2250 C   0  0  2  0  0  3  0  0  0  0  0  0
  181.5560  179.7060  137.2370 O   0  0  0  0  0  0  0  0  0  0  0  0
  180.6530  178.8080  136.6440 C   0  0  0  0  0  2  0  0  0  0  0  0
  189.9090  175.0160  137.9680 C   0  0  0  0  0  2  0  0  0  0  0  0
  190.1550  176.1600  138.5960 C   0  0  0  0  0  0  0  0  0  0  0  0
  191.5650  176.4370  139.0160 C   0  0  0  0  0  2  0  0  0  0  0  0
  192.3620  176.7140  137.9030 O   0  0  0  0  0  0  0  0  0  0  0  0
  193.4800  175.8890  138.0460 C   0  0  0  0  0  2  0  0  0  0  0  0
  194.1790  175.7540  136.7350 C   0  0  0  0  0  0  0  0  0  0  0  0
  194.5520  176.7510  136.1360 O   0  0  0  0  0  0  0  0  0  0  0  0
  193.5080  173.4840  136.7280 O   0  0  0  0  0  1  0  0  0  0  0  0
  194.3870  174.4010  136.1430 C   0  0  0  0  0  2  0  0  0  0  0  0
  3  9  1  1  0  0  0
  3 21  1  0  0  0  0
  4  2  2  0  0  0  0
  4 18  1  0  0  0  0
  5  6  1  0  0  0  0
  7  2  1  6  0  0  0
  7 24  1  0  0  0  0
  7 16  1  0  0  0  0
 11 12  1  6  0  0  0
 11  3  1  0  0  0  0
 13 10  2  0  0  0  0
 16 15  1  1  0  0  0
 16 13  1  0  0  0  0
 17  8  1  1  0  0  0
 17 11  1  0  0  0  0
 17  5  1  0  0  0  0
 18 15  1  0  0  0  0
 19  6  1  6  0  0  0
 19 27  1  0  0  0  0
 19 14  1  0  0  0  0
 20 13  1  0  0  0  0
 20  1  1  0  0  0  0
 21 36  1  0  0  0  0
 21  4  1  0  0  0  0
 22 12  1  0  0  0  0
 23 22  1  6  0  0  0
 23  9  1  0  0  0  0
 23  3  1  0  0  0  0
 24 14  1  6  0  0  0
 24 20  1  0  0  0  0
 25 28  2  0  0  0  0
 26 31  2  0  0  0  0
 27 29  1  6  0  0  0
 27 25  1  0  0  0  0
 29 30  2  0  0  0  0
 30 26  1  0  0  0  0
 31 28  1  0  0  0  0
 32 33  1  0  0  0  0
 32 29  1  1  0  0  0
 34 32  1  0  0  0  0
 34 33  1  0  0  0  0
 35 36  2  0  0  0  0
 36 37  1  0  0  0  0
 38 39  1  0  0  0  0
 38 37  1  0  0  0  0
 40 39  1  0  0  0  0
 41 40  2  0  0  0  0
 43 42  1  0  0  0  0
 43 40  1  0  0  0  0
M  END
>  <MODEL>
8

>  <REMARK>
 VINA RESULT:      -4.5      2.887      7.645
  Name = 
  8 active torsions:
  status: ('A' for Active; 'I' for Inactive)
    1  A    between atoms: C_1  and  C_31
    2  A    between atoms: C_13  and  N_37
    3  A    between atoms: C_19  and  C_30
    4  A    between atoms: C_19  and  N_40
    5  A    between atoms: C_21  and  C_33
    6  A    between atoms: C_21  and  C_34
    7  A    between atoms: O_27  and  C_30
    8  A    between atoms: O_27  and  C_33
                            x       y       z     vdW  Elec       q    Type
                         _______ _______ _______ _____ _____    ______ ____

>  <TORSDO>
F 8

$$$$
=
 OpenBabel11062412183D

 43 49  0  0  1  0  0  0  0  0999 V2000
  181.2450  178.3480  142.9470 C   0  0  0  0  0  1  0  0  0  0  0  0
  185.4170  178.0320  140.0990 C   0  0  0  0  0  3  0  0  0  0  0  0
  187.2280  177.9140  137.8110 C   0  0  2  0  0  0  0  0  0  0  0  0
  186.6630  178.4930  140.1900 C   0  0  0  0  0  0  0  0  0  0  0  0
  184.0020  177.8480  137.4570 C   0  0  0  0  0  2  0  0  0  0  0  0
  183.2650  176.9140  138.4230 C   0  0  0  0  0  2  0  0  0  0  0  0
  184.4180  178.5820  141.0280 C   0  0  2  0  0  3  0  0  0  0  0  0
  184.4400  175.9710  135.8490 C   0  0  0  0  0  1  0  0  0  0  0  0
  187.3230  179.1330  136.9120 C   0  0  0  0  0  2  0  0  0  0  0  0
  183.6120  179.5260  144.2760 O   0  0  0  0  0  0  0  0  0  0  0  0
  186.3630  176.7090  137.3870 C   0  0  2  0  0  3  0  0  0  0  0  0
  187.2810  175.9500  136.4430 C   0  0  0  0  0  2  0  0  0  0  0  0
  183.6890  179.0300  143.1190 C   0  0  0  0  0  0  0  0  0  0  0  0
  182.2120  178.5150  139.9150 C   0  0  0  0  0  2  0  0  0  0  0  0
  186.0610  179.7560  142.3410 C   0  0  0  0  0  2  0  0  0  0  0  0
  184.9550  178.7060  142.4250 C   0  0  2  0  0  3  0  0  0  0  0  0
  185.0710  177.1260  136.6240 C   0  0  2  0  0  3  0  0  0  0  0  0
  187.0370  179.3280  141.3150 N   0  0  0  0  0  2  0  0  0  0  0  0
  181.9900  177.4990  138.8630 N   0  0  2  0  0  0  0  0  0  0  0  0
  182.5550  178.5970  142.3670 N   0  0  0  0  0  0  0  0  0  0  0  0
  187.6360  178.0720  139.2250 N   0  0  0  0  0  0  0  0  0  0  0  0
  188.1290  177.0160  135.7740 C   0  0  0  0  0  2  0  0  0  0  0  0
  188.3960  178.0550  136.8430 C   0  0  2  0  0  3  0  0  0  0  0  0
  183.0210  178.0060  141.1170 C   0  0  2  0  0  3  0  0  0  0  0  0
  180.0750  176.9200  140.2330 N   0  0  0  0  0  0  0  0  0  0  0  0
  179.6520  173.9330  139.8400 C   0  0  0  0  0  3  0  0  0  0  0  0
  181.1290  176.4090  139.3610 C   0  0  1  0  0  3  0  0  0  0  0  0
  179.3220  176.1510  140.9600 C   0  0  0  0  0  3  0  0  0  0  0  0
  180.4990  175.5900  138.2530 C   0  0  0  0  0  0  0  0  0  0  0  0
  179.9130  174.4590  138.5280 N   0  0  0  0  0  0  0  0  0  0  0  0
  179.3800  174.6750  140.9220 C   0  0  0  0  0  3  0  0  0  0  0  0
  180.6060  176.0000  136.8120 C   0  0  2  0  0  3  0  0  0  0  0  0
  179.7030  175.2420  136.0410 O   0  0  0  0  0  0  0  0  0  0  0  0
  181.0550  174.8650  135.9720 C   0  0  0  0  0  2  0  0  0  0  0  0
  188.9210  176.7500  140.7580 C   0  0  0  0  0  2  0  0  0  0  0  0
  188.8940  177.5560  139.7030 C   0  0  0  0  0  0  0  0  0  0  0  0
  190.1160  177.6190  138.8390 C   0  0  0  0  0  2  0  0  0  0  0  0
  191.1060  176.7630  139.3300 O   0  0  0  0  0  0  0  0  0  0  0  0
  191.7040  176.2160  138.1910 C   0  0  0  0  0  2  0  0  0  0  0  0
  193.1850  176.3660  138.2780 C   0  0  0  0  0  0  0  0  0  0  0  0
  193.6770  177.0850  139.1350 O   0  0  0  0  0  0  0  0  0  0  0  0
  194.6480  176.5950  136.4320 O   0  0  0  0  0  1  0  0  0  0  0  0
  194.0600  175.6640  137.2950 C   0  0  0  0  0  2  0  0  0  0  0  0
  2  4  2  0  0  0  0
  3  9  1  6  0  0  0
  3 21  1  0  0  0  0
  4 18  1  0  0  0  0
  5  6  1  0  0  0  0
  7  2  1  6  0  0  0
  7 24  1  0  0  0  0
  7 16  1  0  0  0  0
 11 12  1  6  0  0  0
 11  3  1  0  0  0  0
 13 10  2  0  0  0  0
 16 15  1  6  0  0  0
 16 13  1  0  0  0  0
 17  8  1  1  0  0  0
 17 11  1  0  0  0  0
 17  5  1  0  0  0  0
 18 15  1  0  0  0  0
 19  6  1  1  0  0  0
 19 27  1  0  0  0  0
 19 14  1  0  0  0  0
 20  1  1  0  0  0  0
 20 13  1  0  0  0  0
 21 36  1  0  0  0  0
 21  4  1  0  0  0  0
 22 12  1  0  0  0  0
 23 22  1  6  0  0  0
 23  9  1  0  0  0  0
 23  3  1  0  0  0  0
 24 14  1  6  0  0  0
 24 20  1  0  0  0  0
 25 28  2  0  0  0  0
 26 31  2  0  0  0  0
 27 29  1  6  0  0  0
 27 25  1  0  0  0  0
 29 30  2  0  0  0  0
 30 26  1  0  0  0  0
 31 28  1  0  0  0  0
 32 29  1  1  0  0  0
 33 32  1  0  0  0  0
 34 33  1  0  0  0  0
 34 32  1  0  0  0  0
 36 35  2  0  0  0  0
 37 38  1  0  0  0  0
 37 36  1  0  0  0  0
 39 40  1  0  0  0  0
 39 38  1  0  0  0  0
 40 41  2  0  0  0  0
 42 43  1  0  0  0  0
 43 40  1  0  0  0  0
M  END
>  <MODEL>
9

>  <REMARK>
 VINA RESULT:      -4.4      2.567      7.876
  Name = 
  8 active torsions:
  status: ('A' for Active; 'I' for Inactive)
    1  A    between atoms: C_1  and  C_31
    2  A    between atoms: C_13  and  N_37
    3  A    between atoms: C_19  and  C_30
    4  A    between atoms: C_19  and  N_40
    5  A    between atoms: C_21  and  C_33
    6  A    between atoms: C_21  and  C_34
    7  A    between atoms: O_27  and  C_30
    8  A    between atoms: O_27  and  C_33
                            x       y       z     vdW  Elec       q    Type
                         _______ _______ _______ _____ _____    ______ ____

>  <TORSDO>
F 8

$$$$
