=
 OpenBabel11062415563D

 41 46  0  0  1  0  0  0  0  0999 V2000
  190.8280  177.9430  142.7540 O   0  0  0  0  0  1  0  0  0  0  0  0
  187.0620  178.5830  143.0000 C   0  0  0  0  0  2  0  0  0  0  0  0
  191.8930  176.4020  138.1620 O   0  0  0  0  0  0  0  0  0  0  0  0
  189.3050  176.4180  136.9510 O   0  0  0  0  0  0  0  0  0  0  0  0
  189.6560  177.5430  140.7130 C   0  0  0  0  0  0  0  0  0  0  0  0
  190.7300  176.9330  140.0610 O   0  0  0  0  0  0  0  0  0  0  0  0
  187.6390  178.8910  140.6470 N   0  0  0  0  0  2  0  0  0  0  0  0
  187.5010  177.1030  138.1940 O   0  0  0  0  0  0  0  0  0  0  0  0
  188.5560  177.9560  138.5170 C   0  0  2  0  0  3  0  0  0  0  0  0
  189.6760  177.5850  142.1420 N   0  0  0  0  0  0  0  0  0  0  0  0
  188.7750  176.7360  142.8560 C   0  0  0  0  0  0  0  0  0  0  0  0
  187.6190  177.3070  143.6200 C   0  0  1  0  0  3  0  0  0  0  0  0
  188.1230  176.0030  137.5850 C   0  0  1  0  0  3  0  0  0  0  0  0
  189.7770  177.4340  137.7800 C   0  0  1  0  0  3  0  0  0  0  0  0
  188.6480  178.0990  140.0120 C   0  0  0  0  0  0  0  0  0  0  0  0
  186.6350  178.3520  141.5580 C   0  0  2  0  0  3  0  0  0  0  0  0
  188.9490  175.4890  142.8430 O   0  0  0  0  0  0  0  0  0  0  0  0
  190.8550  176.8950  138.6730 C   0  0  0  0  0  0  0  0  0  0  0  0
  185.6520  177.8800  145.6850 F   0  0  0  0  0  0  0  0  0  0  0  0
  186.9640  178.0940  146.0670 C   0  0  1  0  0  3  0  0  0  0  0  0
  189.1790  177.1570  145.4930 C   0  0  0  0  0  3  0  0  0  0  0  0
  188.4160  177.1910  147.8510 C   0  0  0  0  0  3  0  0  0  0  0  0
  189.5900  177.3830  146.9280 C   0  0  0  0  0  2  0  0  0  0  0  0
  187.1820  177.5300  147.4490 C   0  0  0  0  0  3  0  0  0  0  0  0
  187.9490  177.4950  145.0730 C   0  0  0  0  0  0  0  0  0  0  0  0
  184.8980  179.0030  139.8260 C   0  0  0  0  0  1  0  0  0  0  0  0
  185.2680  178.9920  141.3030 C   0  0  0  0  0  3  0  0  0  0  0  0
  184.1900  178.2780  142.0920 C   0  0  0  0  0  1  0  0  0  0  0  0
  187.1640  175.3190  136.6070 C   0  0  2  0  0  3  0  0  0  0  0  0
  185.9210  174.9720  137.3050 N   0  0  0  0  0  0  0  0  0  0  0  0
  185.5620  173.5930  136.9850 C   0  0  0  0  0  2  0  0  0  0  0  0
  184.7870  175.4160  136.4920 C   0  0  1  0  0  3  0  0  0  0  0  0
  184.3540  173.9990  136.1750 C   0  0  0  0  0  2  0  0  0  0  0  0
  182.2050  177.9980  137.5760 C   0  0  0  0  0  3  0  0  0  0  0  0
  183.3250  175.6280  138.5470 C   0  0  0  0  0  3  0  0  0  0  0  0
  183.1970  177.3410  136.8430 C   0  0  0  0  0  3  0  0  0  0  0  0
  183.7820  176.1630  137.3340 C   0  0  0  0  0  0  0  0  0  0  0  0
  181.7750  177.4710  138.7970 C   0  0  0  0  0  3  0  0  0  0  0  0
  182.3320  176.2840  139.2800 C   0  0  0  0  0  3  0  0  0  0  0  0
  187.7620  174.1540  136.1130 O   0  0  0  0  0  0  0  0  0  0  0  0
  187.9690  174.4020  134.8360 O   0  0  0  0  0  1  0  0  0  0  0  0
  2 12  1  0  0  0  0
  3 18  2  0  0  0  0
  4 13  1  0  0  0  0
  5 10  1  0  0  0  0
  6  5  1  0  0  0  0
  7 16  1  0  0  0  0
  9  8  1  1  0  0  0
  9 15  1  0  0  0  0
 10  1  1  0  0  0  0
 10 11  1  0  0  0  0
 11 12  1  0  0  0  0
 12 25  1  1  0  0  0
 13 29  1  6  0  0  0
 13  8  1  0  0  0  0
 14  4  1  6  0  0  0
 14  9  1  0  0  0  0
 14 18  1  0  0  0  0
 15  7  1  0  0  0  0
 15  5  2  0  0  0  0
 16 27  1  6  0  0  0
 16  2  1  0  0  0  0
 17 11  2  0  0  0  0
 18  6  1  0  0  0  0
 20 19  1  6  0  0  0
 20 24  1  0  0  0  0
 21 23  1  0  0  0  0
 23 22  1  0  0  0  0
 24 22  2  0  0  0  0
 25 21  2  0  0  0  0
 25 20  1  0  0  0  0
 26 27  1  0  0  0  0
 27 28  1  0  0  0  0
 29 40  1  1  0  0  0
 29 30  1  0  0  0  0
 31 30  1  0  0  0  0
 32 30  1  0  0  0  0
 32 37  1  1  0  0  0
 33 32  1  0  0  0  0
 33 31  1  0  0  0  0
 34 38  1  0  0  0  0
 35 39  1  0  0  0  0
 36 37  1  0  0  0  0
 36 34  2  0  0  0  0
 37 35  2  0  0  0  0
 38 39  2  0  0  0  0
 41 40  1  0  0  0  0
M  END
>  <MODEL>
1

>  <REMARK>
 VINA RESULT:      -9.7      0.000      0.000
  Name = 
  6 active torsions:
  status: ('A' for Active; 'I' for Inactive)
    1  A    between atoms: N_5  and  C_19
    2  A    between atoms: O_8  and  C_19
    3  A    between atoms: C_19  and  C_28
    4  A    between atoms: C_26  and  C_41
    5  A    between atoms: C_27  and  C_31
    6  A    between atoms: C_34  and  C_35
                            x       y       z     vdW  Elec       q    Type
                         _______ _______ _______ _____ _____    ______ ____

>  <TORSDO>
F 6

$$$$
=
 OpenBabel11062415563D

 41 46  0  0  1  0  0  0  0  0999 V2000
  189.0970  178.9980  141.8630 O   0  0  0  0  0  1  0  0  0  0  0  0
  186.4900  178.3820  144.5980 C   0  0  0  0  0  2  0  0  0  0  0  0
  186.8900  178.6430  137.4370 O   0  0  0  0  0  0  0  0  0  0  0  0
  184.2000  178.0490  138.1980 O   0  0  0  0  0  0  0  0  0  0  0  0
  186.9020  178.5940  141.0160 C   0  0  0  0  0  0  0  0  0  0  0  0
  187.2960  178.4660  139.6830 O   0  0  0  0  0  0  0  0  0  0  0  0
  185.2510  179.2370  142.6750 N   0  0  0  0  0  2  0  0  0  0  0  0
  183.6790  177.9240  140.4300 O   0  0  0  0  0  0  0  0  0  0  0  0
  184.5560  178.9980  140.2840 C   0  0  2  0  0  3  0  0  0  0  0  0
  187.8930  178.4040  142.0290 N   0  0  0  0  0  0  0  0  0  0  0  0
  187.8380  177.2120  142.8150 C   0  0  0  0  0  0  0  0  0  0  0  0
  187.4660  177.2600  144.2660 C   0  0  1  0  0  3  0  0  0  0  0  0
  183.8370  177.1880  139.2460 C   0  0  1  0  0  3  0  0  0  0  0  0
  184.9880  179.0110  138.8280 C   0  0  1  0  0  3  0  0  0  0  0  0
  185.6320  178.9150  141.3330 C   0  0  0  0  0  0  0  0  0  0  0  0
  185.2210  178.2700  143.7660 C   0  0  2  0  0  3  0  0  0  0  0  0
  188.1020  176.1020  142.2840 O   0  0  0  0  0  0  0  0  0  0  0  0
  186.4380  178.6970  138.6100 C   0  0  0  0  0  0  0  0  0  0  0  0
  187.3770  177.1380  147.1700 F   0  0  0  0  0  0  0  0  0  0  0  0
  188.5910  177.5480  146.6500 C   0  0  1  0  0  3  0  0  0  0  0  0
  189.8860  177.1540  144.5810 C   0  0  0  0  0  3  0  0  0  0  0  0
  190.9090  176.7020  146.7930 C   0  0  0  0  0  3  0  0  0  0  0  0
  191.1430  177.2490  145.4100 C   0  0  0  0  0  2  0  0  0  0  0  0
  189.7100  176.8470  147.3790 C   0  0  0  0  0  3  0  0  0  0  0  0
  188.6790  177.3000  145.1510 C   0  0  0  0  0  0  0  0  0  0  0  0
  184.3510  178.6630  146.1170 C   0  0  0  0  0  1  0  0  0  0  0  0
  183.9890  178.4840  144.6500 C   0  0  0  0  0  3  0  0  0  0  0  0
  183.1930  179.6830  144.1730 C   0  0  0  0  0  1  0  0  0  0  0  0
  182.5590  176.4090  138.9240 C   0  0  2  0  0  3  0  0  0  0  0  0
  181.6400  176.4880  140.0650 N   0  0  0  0  0  0  0  0  0  0  0  0
  180.7260  175.3490  140.0200 C   0  0  0  0  0  2  0  0  0  0  0  0
  180.5160  177.3540  139.7040 C   0  0  1  0  0  3  0  0  0  0  0  0
  179.5270  176.2070  139.6940 C   0  0  0  0  0  2  0  0  0  0  0  0
  179.6950  180.6330  141.4610 C   0  0  0  0  0  3  0  0  0  0  0  0
  180.0600  177.9430  142.1240 C   0  0  0  0  0  3  0  0  0  0  0  0
  180.0320  179.7080  140.4700 C   0  0  0  0  0  3  0  0  0  0  0  0
  180.2410  178.3590  140.7960 C   0  0  0  0  0  0  0  0  0  0  0  0
  179.5430  180.2140  142.7850 C   0  0  0  0  0  3  0  0  0  0  0  0
  179.7220  178.8680  143.1150 C   0  0  0  0  0  3  0  0  0  0  0  0
  182.8830  175.0700  138.6780 O   0  0  0  0  0  0  0  0  0  0  0  0
  183.3630  175.0640  137.4510 O   0  0  0  0  0  1  0  0  0  0  0  0
  1 10  1  0  0  0  0
  3 18  2  0  0  0  0
  4 13  1  0  0  0  0
  5 15  2  0  0  0  0
  5 10  1  0  0  0  0
  6  5  1  0  0  0  0
  7 16  1  0  0  0  0
  9  8  1  6  0  0  0
  9 15  1  0  0  0  0
 10 11  1  0  0  0  0
 11 12  1  0  0  0  0
 12  2  1  0  0  0  0
 12 25  1  1  0  0  0
 13 29  1  6  0  0  0
 13  8  1  0  0  0  0
 14  4  1  6  0  0  0
 14  9  1  0  0  0  0
 15  7  1  0  0  0  0
 16  2  1  0  0  0  0
 16 27  1  1  0  0  0
 17 11  2  0  0  0  0
 18 14  1  0  0  0  0
 18  6  1  0  0  0  0
 20 19  1  1  0  0  0
 20 24  1  0  0  0  0
 21 25  2  0  0  0  0
 21 23  1  0  0  0  0
 22 24  2  0  0  0  0
 23 22  1  0  0  0  0
 25 20  1  0  0  0  0
 27 26  1  0  0  0  0
 28 27  1  0  0  0  0
 29 40  1  1  0  0  0
 29 30  1  0  0  0  0
 31 30  1  0  0  0  0
 32 30  1  0  0  0  0
 32 37  1  1  0  0  0
 33 32  1  0  0  0  0
 33 31  1  0  0  0  0
 34 38  1  0  0  0  0
 35 39  1  0  0  0  0
 36 37  1  0  0  0  0
 36 34  2  0  0  0  0
 37 35  2  0  0  0  0
 38 39  2  0  0  0  0
 41 40  1  0  0  0  0
M  END
>  <MODEL>
2

>  <REMARK>
 VINA RESULT:      -9.5      2.747      4.207
  Name = 
  6 active torsions:
  status: ('A' for Active; 'I' for Inactive)
    1  A    between atoms: N_5  and  C_19
    2  A    between atoms: O_8  and  C_19
    3  A    between atoms: C_19  and  C_28
    4  A    between atoms: C_26  and  C_41
    5  A    between atoms: C_27  and  C_31
    6  A    between atoms: C_34  and  C_35
                            x       y       z     vdW  Elec       q    Type
                         _______ _______ _______ _____ _____    ______ ____

>  <TORSDO>
F 6

$$$$
=
 OpenBabel11062415563D

 41 46  0  0  1  0  0  0  0  0999 V2000
  190.4010  178.1980  142.6330 O   0  0  0  0  0  1  0  0  0  0  0  0
  186.5980  178.5860  142.8570 C   0  0  0  0  0  2  0  0  0  0  0  0
  191.5890  176.6670  138.0690 O   0  0  0  0  0  0  0  0  0  0  0  0
  189.0100  176.4910  136.8480 O   0  0  0  0  0  0  0  0  0  0  0  0
  189.2680  177.6910  140.5940 C   0  0  0  0  0  0  0  0  0  0  0  0
  190.3830  177.1460  139.9550 O   0  0  0  0  0  0  0  0  0  0  0  0
  187.1640  178.8990  140.5020 N   0  0  0  0  0  2  0  0  0  0  0  0
  187.1590  177.0710  138.0740 O   0  0  0  0  0  0  0  0  0  0  0  0
  188.1520  177.9980  138.3880 C   0  0  2  0  0  3  0  0  0  0  0  0
  189.2780  177.7540  142.0220 N   0  0  0  0  0  0  0  0  0  0  0  0
  188.4330  176.8570  142.7460 C   0  0  0  0  0  0  0  0  0  0  0  0
  187.2380  177.3600  143.4970 C   0  0  1  0  0  3  0  0  0  0  0  0
  187.8570  176.0060  137.4840 C   0  0  1  0  0  3  0  0  0  0  0  0
  189.4100  177.5490  137.6640 C   0  0  1  0  0  3  0  0  0  0  0  0
  188.2280  178.1680  139.8820 C   0  0  0  0  0  0  0  0  0  0  0  0
  186.1950  178.3070  141.4160 C   0  0  2  0  0  3  0  0  0  0  0  0
  188.6910  175.6250  142.7520 O   0  0  0  0  0  0  0  0  0  0  0  0
  190.5170  177.0970  138.5690 C   0  0  0  0  0  0  0  0  0  0  0  0
  185.2460  178.0160  145.5120 F   0  0  0  0  0  0  0  0  0  0  0  0
  186.5540  178.2300  145.9070 C   0  0  1  0  0  3  0  0  0  0  0  0
  188.7680  177.2540  145.3980 C   0  0  0  0  0  3  0  0  0  0  0  0
  187.9690  177.3690  147.7420 C   0  0  0  0  0  3  0  0  0  0  0  0
  189.1590  177.5210  146.8310 C   0  0  0  0  0  2  0  0  0  0  0  0
  186.7450  177.7080  147.3090 C   0  0  0  0  0  3  0  0  0  0  0  0
  187.5480  177.5900  144.9480 C   0  0  0  0  0  0  0  0  0  0  0  0
  184.1980  178.3110  139.8510 C   0  0  0  0  0  1  0  0  0  0  0  0
  184.7900  178.8490  141.1460 C   0  0  0  0  0  3  0  0  0  0  0  0
  183.8630  178.5260  142.3010 C   0  0  0  0  0  1  0  0  0  0  0  0
  186.9510  175.2460  136.5120 C   0  0  2  0  0  3  0  0  0  0  0  0
  186.8380  173.8480  136.9430 N   0  0  0  0  0  0  0  0  0  0  0  0
  188.1770  173.2780  137.0700 C   0  0  0  0  0  2  0  0  0  0  0  0
  186.6340  173.0070  135.7610 C   0  0  1  0  0  3  0  0  0  0  0  0
  187.9960  172.3580  135.8860 C   0  0  0  0  0  2  0  0  0  0  0  0
  183.4110  171.4760  137.0960 C   0  0  0  0  0  3  0  0  0  0  0  0
  185.3390  170.9200  135.1500 C   0  0  0  0  0  3  0  0  0  0  0  0
  184.5120  172.3220  136.9390 C   0  0  0  0  0  3  0  0  0  0  0  0
  185.4980  172.0390  135.9820 C   0  0  0  0  0  0  0  0  0  0  0  0
  183.2750  170.3490  136.2810 C   0  0  0  0  0  3  0  0  0  0  0  0
  184.2370  170.0740  135.3060 C   0  0  0  0  0  3  0  0  0  0  0  0
  187.5050  175.2950  135.2280 O   0  0  0  0  0  0  0  0  0  0  0  0
  186.7970  176.2070  134.5940 O   0  0  0  0  0  1  0  0  0  0  0  0
  2 12  1  0  0  0  0
  3 18  2  0  0  0  0
  4 13  1  0  0  0  0
  5 10  1  0  0  0  0
  6  5  1  0  0  0  0
  7 16  1  0  0  0  0
  9  8  1  1  0  0  0
  9 15  1  0  0  0  0
 10  1  1  0  0  0  0
 10 11  1  0  0  0  0
 11 17  2  0  0  0  0
 11 12  1  0  0  0  0
 12 25  1  1  0  0  0
 13 29  1  6  0  0  0
 13  8  1  0  0  0  0
 14  4  1  6  0  0  0
 14  9  1  0  0  0  0
 14 18  1  0  0  0  0
 15  7  1  0  0  0  0
 15  5  2  0  0  0  0
 16 27  1  6  0  0  0
 16  2  1  0  0  0  0
 18  6  1  0  0  0  0
 20 19  1  6  0  0  0
 20 24  1  0  0  0  0
 21 23  1  0  0  0  0
 23 22  1  0  0  0  0
 24 22  2  0  0  0  0
 25 21  2  0  0  0  0
 25 20  1  0  0  0  0
 26 27  1  0  0  0  0
 27 28  1  0  0  0  0
 29 40  1  6  0  0  0
 29 30  1  0  0  0  0
 30 31  1  0  0  0  0
 32 33  1  0  0  0  0
 32 37  1  1  0  0  0
 32 30  1  0  0  0  0
 33 31  1  0  0  0  0
 35 39  2  0  0  0  0
 35 37  1  0  0  0  0
 36 34  1  0  0  0  0
 37 36  2  0  0  0  0
 38 34  2  0  0  0  0
 39 38  1  0  0  0  0
 41 40  1  0  0  0  0
M  END
>  <MODEL>
3

>  <REMARK>
 VINA RESULT:      -9.1      1.455      2.687
  Name = 
  6 active torsions:
  status: ('A' for Active; 'I' for Inactive)
    1  A    between atoms: N_5  and  C_19
    2  A    between atoms: O_8  and  C_19
    3  A    between atoms: C_19  and  C_28
    4  A    between atoms: C_26  and  C_41
    5  A    between atoms: C_27  and  C_31
    6  A    between atoms: C_34  and  C_35
                            x       y       z     vdW  Elec       q    Type
                         _______ _______ _______ _____ _____    ______ ____

>  <TORSDO>
F 6

$$$$
=
 OpenBabel11062415563D

 41 46  0  0  1  0  0  0  0  0999 V2000
  190.0560  178.6280  142.5030 O   0  0  0  0  0  1  0  0  0  0  0  0
  186.3030  178.3280  143.1990 C   0  0  0  0  0  2  0  0  0  0  0  0
  190.9120  177.3900  137.7780 O   0  0  0  0  0  0  0  0  0  0  0  0
  188.2730  176.7710  136.8740 O   0  0  0  0  0  0  0  0  0  0  0  0
  188.7830  177.9510  140.6000 C   0  0  0  0  0  0  0  0  0  0  0  0
  189.8880  177.6230  139.8120 O   0  0  0  0  0  0  0  0  0  0  0  0
  186.5050  178.7650  140.8050 N   0  0  0  0  0  2  0  0  0  0  0  0
  186.5170  176.9950  138.3340 O   0  0  0  0  0  0  0  0  0  0  0  0
  187.3630  178.0810  138.5570 C   0  0  2  0  0  3  0  0  0  0  0  0
  188.9610  177.9980  142.0180 N   0  0  0  0  0  0  0  0  0  0  0  0
  188.3840  176.9560  142.8070 C   0  0  0  0  0  0  0  0  0  0  0  0
  187.2230  177.2280  143.7140 C   0  0  1  0  0  3  0  0  0  0  0  0
  187.3110  176.0800  137.6280 C   0  0  1  0  0  3  0  0  0  0  0  0
  188.5790  177.8730  137.6710 C   0  0  1  0  0  3  0  0  0  0  0  0
  187.5950  178.2430  140.0360 C   0  0  0  0  0  0  0  0  0  0  0  0
  185.7780  177.9980  141.8090 C   0  0  2  0  0  3  0  0  0  0  0  0
  188.8530  175.7900  142.7400 O   0  0  0  0  0  0  0  0  0  0  0  0
  189.8530  177.6150  138.4190 C   0  0  0  0  0  0  0  0  0  0  0  0
  185.4220  177.8800  145.9030 F   0  0  0  0  0  0  0  0  0  0  0  0
  186.7570  178.1290  146.1650 C   0  0  1  0  0  3  0  0  0  0  0  0
  188.9330  177.1910  145.4590 C   0  0  0  0  0  3  0  0  0  0  0  0
  188.3640  177.3340  147.8670 C   0  0  0  0  0  3  0  0  0  0  0  0
  189.4550  177.4940  146.8420 C   0  0  0  0  0  2  0  0  0  0  0  0
  187.0950  177.6380  147.5500 C   0  0  0  0  0  3  0  0  0  0  0  0
  187.6670  177.4920  145.1240 C   0  0  0  0  0  0  0  0  0  0  0  0
  183.7540  178.9950  142.9710 C   0  0  0  0  0  1  0  0  0  0  0  0
  184.2760  178.2840  141.7310 C   0  0  0  0  0  3  0  0  0  0  0  0
  183.9540  179.1070  140.4990 C   0  0  0  0  0  1  0  0  0  0  0  0
  186.4380  175.1810  136.7480 C   0  0  2  0  0  3  0  0  0  0  0  0
  187.2920  174.4140  135.8340 N   0  0  0  0  0  0  0  0  0  0  0  0
  186.4840  173.3970  135.1660 C   0  0  0  0  0  2  0  0  0  0  0  0
  187.9470  173.3440  136.5890 C   0  0  1  0  0  3  0  0  0  0  0  0
  187.1630  172.2560  135.8850 C   0  0  0  0  0  2  0  0  0  0  0  0
  191.7100  173.8520  136.8990 C   0  0  0  0  0  3  0  0  0  0  0  0
  189.9140  172.4950  135.2410 C   0  0  0  0  0  3  0  0  0  0  0  0
  190.3340  173.9560  137.1230 C   0  0  0  0  0  3  0  0  0  0  0  0
  189.4240  173.2980  136.2820 C   0  0  0  0  0  0  0  0  0  0  0  0
  192.1870  173.0720  135.8430 C   0  0  0  0  0  3  0  0  0  0  0  0
  191.2900  172.3900  135.0180 C   0  0  0  0  0  3  0  0  0  0  0  0
  185.5570  175.9760  136.0070 O   0  0  0  0  0  0  0  0  0  0  0  0
  184.3620  175.6700  136.4700 O   0  0  0  0  0  1  0  0  0  0  0  0
  2 12  1  0  0  0  0
  3 18  2  0  0  0  0
  4 13  1  0  0  0  0
  5 10  1  0  0  0  0
  6  5  1  0  0  0  0
  7 16  1  0  0  0  0
  9  8  1  1  0  0  0
  9 15  1  0  0  0  0
 10  1  1  0  0  0  0
 10 11  1  0  0  0  0
 11 12  1  0  0  0  0
 12 25  1  1  0  0  0
 13 29  1  6  0  0  0
 13  8  1  0  0  0  0
 14  4  1  6  0  0  0
 14 18  1  0  0  0  0
 14  9  1  0  0  0  0
 15  5  2  0  0  0  0
 15  7  1  0  0  0  0
 16 27  1  1  0  0  0
 16  2  1  0  0  0  0
 17 11  2  0  0  0  0
 18  6  1  0  0  0  0
 20 19  1  6  0  0  0
 20 24  1  0  0  0  0
 21 23  1  0  0  0  0
 23 22  1  0  0  0  0
 24 22  2  0  0  0  0
 25 21  2  0  0  0  0
 25 20  1  0  0  0  0
 27 26  1  0  0  0  0
 28 27  1  0  0  0  0
 29 40  1  6  0  0  0
 30 32  1  0  0  0  0
 30 29  1  0  0  0  0
 31 30  1  0  0  0  0
 31 33  1  0  0  0  0
 32 37  1  6  0  0  0
 33 32  1  0  0  0  0
 34 36  1  0  0  0  0
 35 37  1  0  0  0  0
 37 36  2  0  0  0  0
 38 34  2  0  0  0  0
 39 35  2  0  0  0  0
 39 38  1  0  0  0  0
 40 41  1  0  0  0  0
M  END
>  <MODEL>
4

>  <REMARK>
 VINA RESULT:      -8.7      1.987      3.890
  Name = 
  6 active torsions:
  status: ('A' for Active; 'I' for Inactive)
    1  A    between atoms: N_5  and  C_19
    2  A    between atoms: O_8  and  C_19
    3  A    between atoms: C_19  and  C_28
    4  A    between atoms: C_26  and  C_41
    5  A    between atoms: C_27  and  C_31
    6  A    between atoms: C_34  and  C_35
                            x       y       z     vdW  Elec       q    Type
                         _______ _______ _______ _____ _____    ______ ____

>  <TORSDO>
F 6

$$$$
=
 OpenBabel11062415563D

 41 46  0  0  1  0  0  0  0  0999 V2000
  181.4020  178.2320  139.7370 O   0  0  0  0  0  1  0  0  0  0  0  0
  184.0180  177.7210  136.9890 C   0  0  0  0  0  2  0  0  0  0  0  0
  183.7300  178.8100  144.0770 O   0  0  0  0  0  0  0  0  0  0  0  0
  186.4660  178.5830  143.2800 O   0  0  0  0  0  0  0  0  0  0  0  0
  183.6510  178.3090  140.5340 C   0  0  0  0  0  0  0  0  0  0  0  0
  183.3130  178.2860  141.8880 O   0  0  0  0  0  0  0  0  0  0  0  0
  185.1330  179.0050  138.7420 N   0  0  0  0  0  2  0  0  0  0  0  0
  186.9530  178.2660  141.0600 O   0  0  0  0  0  0  0  0  0  0  0  0
  185.9090  179.1880  141.1120 C   0  0  2  0  0  3  0  0  0  0  0  0
  182.6860  177.8310  139.5930 N   0  0  0  0  0  0  0  0  0  0  0  0
  182.9270  176.5750  138.9550 C   0  0  0  0  0  0  0  0  0  0  0  0
  183.2550  176.5020  137.4950 C   0  0  1  0  0  3  0  0  0  0  0  0
  186.9470  177.6690  142.3300 C   0  0  1  0  0  3  0  0  0  0  0  0
  185.5120  179.3130  142.5730 C   0  0  1  0  0  3  0  0  0  0  0  0
  184.8400  178.7960  140.1280 C   0  0  0  0  0  0  0  0  0  0  0  0
  185.3050  177.9280  137.7740 C   0  0  2  0  0  3  0  0  0  0  0  0
  182.8680  175.5130  139.6270 O   0  0  0  0  0  0  0  0  0  0  0  0
  184.1420  178.7900  142.8880 C   0  0  0  0  0  0  0  0  0  0  0  0
  182.1010  173.8610  137.1030 F   0  0  0  0  0  0  0  0  0  0  0  0
  181.6410  174.8250  136.2240 C   0  0  1  0  0  3  0  0  0  0  0  0
  181.2930  177.2720  136.2600 C   0  0  0  0  0  3  0  0  0  0  0  0
  179.4150  175.7570  135.6900 C   0  0  0  0  0  3  0  0  0  0  0  0
  180.0930  177.0640  135.3700 C   0  0  0  0  0  2  0  0  0  0  0  0
  180.1440  174.7030  136.0870 C   0  0  0  0  0  3  0  0  0  0  0  0
  182.0350  176.2280  136.6630 C   0  0  0  0  0  0  0  0  0  0  0  0
  187.8130  178.2190  137.5220 C   0  0  0  0  0  1  0  0  0  0  0  0
  186.4630  178.2320  136.8200 C   0  0  0  0  0  3  0  0  0  0  0  0
  186.4780  177.2450  135.6700 C   0  0  0  0  0  1  0  0  0  0  0  0
  188.3470  177.1610  142.6880 C   0  0  2  0  0  3  0  0  0  0  0  0
  188.8940  177.9710  143.7830 N   0  0  0  0  0  0  0  0  0  0  0  0
  190.2940  178.2760  143.4970 C   0  0  0  0  0  2  0  0  0  0  0  0
  189.3460  177.0750  144.8490 C   0  0  1  0  0  3  0  0  0  0  0  0
  190.8070  177.4010  144.6150 C   0  0  0  0  0  2  0  0  0  0  0  0
  186.9890  178.1420  147.6450 C   0  0  0  0  0  3  0  0  0  0  0  0
  189.7120  177.6170  147.2940 C   0  0  0  0  0  3  0  0  0  0  0  0
  187.4770  177.7870  146.3840 C   0  0  0  0  0  3  0  0  0  0  0  0
  188.8460  177.5450  146.1930 C   0  0  0  0  0  0  0  0  0  0  0  0
  187.8640  178.2370  148.7300 C   0  0  0  0  0  3  0  0  0  0  0  0
  189.2240  177.9700  148.5550 C   0  0  0  0  0  3  0  0  0  0  0  0
  189.1780  177.2690  141.5670 O   0  0  0  0  0  0  0  0  0  0  0  0
  189.7330  176.0800  141.4500 O   0  0  0  0  0  1  0  0  0  0  0  0
  2 12  1  0  0  0  0
  2 16  1  0  0  0  0
  5  6  1  0  0  0  0
  6 18  1  0  0  0  0
  7 15  1  0  0  0  0
  8  9  1  0  0  0  0
  8 13  1  0  0  0  0
  9 15  1  6  0  0  0
  9 14  1  0  0  0  0
 10  1  1  0  0  0  0
 10  5  1  0  0  0  0
 11 10  1  0  0  0  0
 11 17  2  0  0  0  0
 12 25  1  6  0  0  0
 12 11  1  0  0  0  0
 13 29  1  1  0  0  0
 13  4  1  0  0  0  0
 14 18  1  6  0  0  0
 14  4  1  0  0  0  0
 15  5  2  0  0  0  0
 16 27  1  6  0  0  0
 16  7  1  0  0  0  0
 18  3  2  0  0  0  0
 20 25  1  0  0  0  0
 20 19  1  1  0  0  0
 21 25  2  0  0  0  0
 22 24  2  0  0  0  0
 23 22  1  0  0  0  0
 23 21  1  0  0  0  0
 24 20  1  0  0  0  0
 27 26  1  0  0  0  0
 28 27  1  0  0  0  0
 29 40  1  6  0  0  0
 29 30  1  0  0  0  0
 30 32  1  0  0  0  0
 31 30  1  0  0  0  0
 31 33  1  0  0  0  0
 32 37  1  1  0  0  0
 33 32  1  0  0  0  0
 34 38  1  0  0  0  0
 35 39  1  0  0  0  0
 36 34  2  0  0  0  0
 37 36  1  0  0  0  0
 37 35  2  0  0  0  0
 39 38  2  0  0  0  0
 41 40  1  0  0  0  0
M  END
>  <MODEL>
5

>  <REMARK>
 VINA RESULT:      -8.5      3.172      8.923
  Name = 
  6 active torsions:
  status: ('A' for Active; 'I' for Inactive)
    1  A    between atoms: N_5  and  C_19
    2  A    between atoms: O_8  and  C_19
    3  A    between atoms: C_19  and  C_28
    4  A    between atoms: C_26  and  C_41
    5  A    between atoms: C_27  and  C_31
    6  A    between atoms: C_34  and  C_35
                            x       y       z     vdW  Elec       q    Type
                         _______ _______ _______ _____ _____    ______ ____

>  <TORSDO>
F 6

$$$$
=
 OpenBabel11062415563D

 41 46  0  0  1  0  0  0  0  0999 V2000
  191.5100  178.3690  143.8540 O   0  0  0  0  0  1  0  0  0  0  0  0
  187.7080  177.9720  143.6370 C   0  0  0  0  0  2  0  0  0  0  0  0
  193.4930  177.2210  139.4560 O   0  0  0  0  0  0  0  0  0  0  0  0
  191.1600  176.5550  137.9460 O   0  0  0  0  0  0  0  0  0  0  0  0
  190.7420  177.6910  141.6970 C   0  0  0  0  0  0  0  0  0  0  0  0
  192.0100  177.4000  141.1910 O   0  0  0  0  0  0  0  0  0  0  0  0
  188.4600  178.4490  141.3630 N   0  0  0  0  0  2  0  0  0  0  0  0
  189.1030  176.7170  138.9510 O   0  0  0  0  0  0  0  0  0  0  0  0
  189.8440  177.8180  139.3780 C   0  0  2  0  0  3  0  0  0  0  0  0
  190.5780  177.7220  143.1170 N   0  0  0  0  0  0  0  0  0  0  0  0
  189.8580  176.6540  143.7380 C   0  0  0  0  0  0  0  0  0  0  0  0
  188.5080  176.8860  144.3470 C   0  0  1  0  0  3  0  0  0  0  0  0
  190.0650  175.8310  138.4450 C   0  0  1  0  0  3  0  0  0  0  0  0
  191.2390  177.6510  138.8030 C   0  0  1  0  0  3  0  0  0  0  0  0
  189.7140  177.9640  140.8700 C   0  0  0  0  0  0  0  0  0  0  0  0
  187.5360  177.6510  142.1600 C   0  0  2  0  0  3  0  0  0  0  0  0
  190.3600  175.5010  143.7740 O   0  0  0  0  0  0  0  0  0  0  0  0
  192.3070  177.4120  139.8290 C   0  0  0  0  0  0  0  0  0  0  0  0
  190.8980  176.4340  145.9420 F   0  0  0  0  0  0  0  0  0  0  0  0
  189.7410  176.6080  146.6780 C   0  0  1  0  0  3  0  0  0  0  0  0
  187.6060  177.8270  146.4120 C   0  0  0  0  0  3  0  0  0  0  0  0
  189.0190  178.2150  148.4120 C   0  0  0  0  0  3  0  0  0  0  0  0
  187.6100  178.0570  147.9040 C   0  0  0  0  0  2  0  0  0  0  0  0
  190.0210  177.5300  147.8390 C   0  0  0  0  0  3  0  0  0  0  0  0
  188.5990  177.1390  145.8240 C   0  0  0  0  0  0  0  0  0  0  0  0
  185.1740  178.1960  142.9110 C   0  0  0  0  0  1  0  0  0  0  0  0
  186.0880  177.9030  141.7300 C   0  0  0  0  0  3  0  0  0  0  0  0
  186.0190  179.0460  140.7370 C   0  0  0  0  0  1  0  0  0  0  0  0
  189.4490  174.9250  137.3750 C   0  0  2  0  0  3  0  0  0  0  0  0
  188.0290  174.7120  137.6740 N   0  0  0  0  0  0  0  0  0  0  0  0
  187.6780  173.3280  137.3630 C   0  0  0  0  0  2  0  0  0  0  0  0
  187.2370  175.1330  136.5180 C   0  0  1  0  0  3  0  0  0  0  0  0
  186.8110  173.7170  136.1900 C   0  0  0  0  0  2  0  0  0  0  0  0
  185.2580  178.1840  137.6540 C   0  0  0  0  0  3  0  0  0  0  0  0
  184.7610  175.5570  136.8380 C   0  0  0  0  0  3  0  0  0  0  0  0
  186.3230  177.3370  137.3340 C   0  0  0  0  0  3  0  0  0  0  0  0
  186.0850  176.0090  136.9470 C   0  0  0  0  0  0  0  0  0  0  0  0
  183.9440  177.7160  137.5680 C   0  0  0  0  0  3  0  0  0  0  0  0
  183.6960  176.4040  137.1560 C   0  0  0  0  0  3  0  0  0  0  0  0
  190.1160  173.6940  137.3720 O   0  0  0  0  0  0  0  0  0  0  0  0
  190.8190  173.6990  136.2590 O   0  0  0  0  0  1  0  0  0  0  0  0
  2 12  1  0  0  0  0
  3 18  2  0  0  0  0
  4 13  1  0  0  0  0
  5 10  1  0  0  0  0
  6  5  1  0  0  0  0
  7 16  1  0  0  0  0
  9  8  1  1  0  0  0
  9 15  1  0  0  0  0
 10 11  1  0  0  0  0
 10  1  1  0  0  0  0
 11 17  2  0  0  0  0
 11 12  1  0  0  0  0
 12 25  1  1  0  0  0
 13 29  1  6  0  0  0
 13  8  1  0  0  0  0
 14  4  1  6  0  0  0
 14  9  1  0  0  0  0
 14 18  1  0  0  0  0
 15  7  1  0  0  0  0
 15  5  2  0  0  0  0
 16 27  1  6  0  0  0
 16  2  1  0  0  0  0
 18  6  1  0  0  0  0
 20 19  1  6  0  0  0
 20 24  1  0  0  0  0
 21 23  1  0  0  0  0
 23 22  1  0  0  0  0
 24 22  2  0  0  0  0
 25 21  2  0  0  0  0
 25 20  1  0  0  0  0
 27 26  1  0  0  0  0
 28 27  1  0  0  0  0
 29 40  1  1  0  0  0
 29 30  1  0  0  0  0
 31 30  1  0  0  0  0
 32 37  1  1  0  0  0
 32 30  1  0  0  0  0
 33 32  1  0  0  0  0
 33 31  1  0  0  0  0
 35 37  2  0  0  0  0
 35 39  1  0  0  0  0
 36 34  2  0  0  0  0
 37 36  1  0  0  0  0
 38 34  1  0  0  0  0
 39 38  2  0  0  0  0
 41 40  1  0  0  0  0
M  END
>  <MODEL>
6

>  <REMARK>
 VINA RESULT:      -7.5      1.717      2.285
  Name = 
  6 active torsions:
  status: ('A' for Active; 'I' for Inactive)
    1  A    between atoms: N_5  and  C_19
    2  A    between atoms: O_8  and  C_19
    3  A    between atoms: C_19  and  C_28
    4  A    between atoms: C_26  and  C_41
    5  A    between atoms: C_27  and  C_31
    6  A    between atoms: C_34  and  C_35
                            x       y       z     vdW  Elec       q    Type
                         _______ _______ _______ _____ _____    ______ ____

>  <TORSDO>
F 6

$$$$
=
 OpenBabel11062415563D

 41 46  0  0  1  0  0  0  0  0999 V2000
  182.9350  176.1880  136.3610 O   0  0  0  0  0  1  0  0  0  0  0  0
  185.6840  173.8260  135.1280 C   0  0  0  0  0  2  0  0  0  0  0  0
  184.9280  179.4580  139.5120 O   0  0  0  0  0  0  0  0  0  0  0  0
  187.6620  178.6260  139.5270 O   0  0  0  0  0  0  0  0  0  0  0  0
  185.0920  176.6850  137.2550 C   0  0  0  0  0  0  0  0  0  0  0  0
  184.6350  177.6040  138.2000 O   0  0  0  0  0  0  0  0  0  0  0  0
  186.8120  175.9070  135.7280 N   0  0  0  0  0  2  0  0  0  0  0  0
  188.2940  176.8620  138.2030 O   0  0  0  0  0  0  0  0  0  0  0  0
  187.3930  177.6190  137.4560 C   0  0  2  0  0  3  0  0  0  0  0  0
  184.1560  175.7390  136.7320 N   0  0  0  0  0  0  0  0  0  0  0  0
  184.2700  174.3750  137.1450 C   0  0  0  0  0  0  0  0  0  0  0  0
  184.7120  173.3130  136.1840 C   0  0  1  0  0  3  0  0  0  0  0  0
  188.0900  177.2890  139.5230 C   0  0  1  0  0  3  0  0  0  0  0  0
  186.8890  178.7220  138.3710 C   0  0  1  0  0  3  0  0  0  0  0  0
  186.3700  176.7100  136.8280 C   0  0  0  0  0  0  0  0  0  0  0  0
  186.9120  174.4530  135.7700 C   0  0  2  0  0  3  0  0  0  0  0  0
  184.0000  174.0570  138.3320 O   0  0  0  0  0  0  0  0  0  0  0  0
  185.4360  178.6160  138.7270 C   0  0  0  0  0  0  0  0  0  0  0  0
  184.6040  170.4450  135.7150 F   0  0  0  0  0  0  0  0  0  0  0  0
  183.6340  171.1720  135.0490 C   0  0  1  0  0  3  0  0  0  0  0  0
  182.3910  173.2760  135.4230 C   0  0  0  0  0  3  0  0  0  0  0  0
  181.1620  171.1580  135.0400 C   0  0  0  0  0  3  0  0  0  0  0  0
  181.2030  172.6350  134.7500 C   0  0  0  0  0  2  0  0  0  0  0  0
  182.3060  170.4690  135.1750 C   0  0  0  0  0  3  0  0  0  0  0  0
  183.5440  172.6020  135.5640 C   0  0  0  0  0  0  0  0  0  0  0  0
  189.4380  174.6400  135.6050 C   0  0  0  0  0  1  0  0  0  0  0  0
  188.1820  173.9740  135.0610 C   0  0  0  0  0  3  0  0  0  0  0  0
  188.3170  172.4680  135.1710 C   0  0  0  0  0  1  0  0  0  0  0  0
  189.3650  177.0980  140.3500 C   0  0  2  0  0  3  0  0  0  0  0  0
  189.2110  177.7680  141.6460 N   0  0  0  0  0  0  0  0  0  0  0  0
  190.4820  177.7150  142.3650 C   0  0  0  0  0  2  0  0  0  0  0  0
  188.6700  176.8070  142.6100 C   0  0  1  0  0  3  0  0  0  0  0  0
  189.9560  176.7600  143.4100 C   0  0  0  0  0  2  0  0  0  0  0  0
  185.2860  178.3690  143.3960 C   0  0  0  0  0  3  0  0  0  0  0  0
  187.5010  177.3760  144.7820 C   0  0  0  0  0  3  0  0  0  0  0  0
  186.3930  177.8870  142.6930 C   0  0  0  0  0  3  0  0  0  0  0  0
  187.5200  177.4080  143.3790 C   0  0  0  0  0  0  0  0  0  0  0  0
  185.2880  178.3580  144.7930 C   0  0  0  0  0  3  0  0  0  0  0  0
  186.3940  177.8570  145.4850 C   0  0  0  0  0  3  0  0  0  0  0  0
  190.4490  177.6570  139.6620 O   0  0  0  0  0  0  0  0  0  0  0  0
  191.2000  176.6260  139.3310 O   0  0  0  0  0  1  0  0  0  0  0  0
  1 10  1  0  0  0  0
  2 16  1  0  0  0  0
  2 12  1  0  0  0  0
  5  6  1  0  0  0  0
  6 18  1  0  0  0  0
  7 16  1  0  0  0  0
  7 15  1  0  0  0  0
  8 13  1  0  0  0  0
  9 15  1  1  0  0  0
  9  8  1  0  0  0  0
  9 14  1  0  0  0  0
 10 11  1  0  0  0  0
 10  5  1  0  0  0  0
 11 17  2  0  0  0  0
 12 25  1  6  0  0  0
 12 11  1  0  0  0  0
 13  4  1  0  0  0  0
 13 29  1  1  0  0  0
 14 18  1  1  0  0  0
 14  4  1  0  0  0  0
 15  5  2  0  0  0  0
 16 27  1  6  0  0  0
 18  3  2  0  0  0  0
 20 24  1  0  0  0  0
 20 25  1  0  0  0  0
 20 19  1  1  0  0  0
 21 25  2  0  0  0  0
 22 24  2  0  0  0  0
 23 22  1  0  0  0  0
 23 21  1  0  0  0  0
 27 28  1  0  0  0  0
 27 26  1  0  0  0  0
 29 40  1  6  0  0  0
 29 30  1  0  0  0  0
 30 31  1  0  0  0  0
 30 32  1  0  0  0  0
 31 33  1  0  0  0  0
 32 37  1  1  0  0  0
 32 33  1  0  0  0  0
 34 38  1  0  0  0  0
 35 39  1  0  0  0  0
 36 37  1  0  0  0  0
 36 34  2  0  0  0  0
 37 35  2  0  0  0  0
 38 39  2  0  0  0  0
 41 40  1  0  0  0  0
M  END
>  <MODEL>
7

>  <REMARK>
 VINA RESULT:      -7.3      2.980      8.511
  Name = 
  6 active torsions:
  status: ('A' for Active; 'I' for Inactive)
    1  A    between atoms: N_5  and  C_19
    2  A    between atoms: O_8  and  C_19
    3  A    between atoms: C_19  and  C_28
    4  A    between atoms: C_26  and  C_41
    5  A    between atoms: C_27  and  C_31
    6  A    between atoms: C_34  and  C_35
                            x       y       z     vdW  Elec       q    Type
                         _______ _______ _______ _____ _____    ______ ____

>  <TORSDO>
F 6

$$$$
=
 OpenBabel11062415563D

 41 46  0  0  1  0  0  0  0  0999 V2000
  190.4670  178.5550  140.8620 O   0  0  0  0  0  1  0  0  0  0  0  0
  187.1620  178.4700  142.7940 C   0  0  0  0  0  2  0  0  0  0  0  0
  189.5700  177.4720  136.1070 O   0  0  0  0  0  0  0  0  0  0  0  0
  186.7410  177.0670  136.1480 O   0  0  0  0  0  0  0  0  0  0  0  0
  188.5750  178.0470  139.4970 C   0  0  0  0  0  0  0  0  0  0  0  0
  189.3180  177.6820  138.3730 O   0  0  0  0  0  0  0  0  0  0  0  0
  186.5720  178.9980  140.4840 N   0  0  0  0  0  2  0  0  0  0  0  0
  185.6090  177.3410  138.1250 O   0  0  0  0  0  0  0  0  0  0  0  0
  186.5610  178.3580  138.0660 C   0  0  2  0  0  3  0  0  0  0  0  0
  189.2280  178.0200  140.7690 N   0  0  0  0  0  0  0  0  0  0  0  0
  188.8760  176.9840  141.6880 C   0  0  0  0  0  0  0  0  0  0  0  0
  188.1160  177.2910  142.9430 C   0  0  1  0  0  3  0  0  0  0  0  0
  186.0440  176.4070  137.1720 C   0  0  1  0  0  3  0  0  0  0  0  0
  187.3830  178.1100  136.8140 C   0  0  1  0  0  3  0  0  0  0  0  0
  187.2920  178.4400  139.3790 C   0  0  0  0  0  0  0  0  0  0  0  0
  186.1730  178.2370  141.6620 C   0  0  2  0  0  3  0  0  0  0  0  0
  189.2040  175.7940  141.4420 O   0  0  0  0  0  0  0  0  0  0  0  0
  188.8120  177.7370  137.0750 C   0  0  0  0  0  0  0  0  0  0  0  0
  187.2390  177.2630  145.7160 F   0  0  0  0  0  0  0  0  0  0  0  0
  188.5170  177.7550  145.5230 C   0  0  1  0  0  3  0  0  0  0  0  0
  190.3560  177.3990  143.9100 C   0  0  0  0  0  3  0  0  0  0  0  0
  190.7600  177.1120  146.3390 C   0  0  0  0  0  3  0  0  0  0  0  0
  191.3270  177.6290  145.0420 C   0  0  0  0  0  2  0  0  0  0  0  0
  189.4390  177.1760  146.5670 C   0  0  0  0  0  3  0  0  0  0  0  0
  189.0320  177.4630  144.1200 C   0  0  0  0  0  0  0  0  0  0  0  0
  183.6820  177.8930  141.3180 C   0  0  0  0  0  1  0  0  0  0  0  0
  184.7600  178.6230  142.1070 C   0  0  0  0  0  3  0  0  0  0  0  0
  184.5760  178.3560  143.5870 C   0  0  0  0  0  1  0  0  0  0  0  0
  184.8580  175.6070  136.6270 C   0  0  2  0  0  3  0  0  0  0  0  0
  183.7340  175.7000  137.5650 N   0  0  0  0  0  0  0  0  0  0  0  0
  183.0080  174.4320  137.5670 C   0  0  0  0  0  2  0  0  0  0  0  0
  182.5950  176.3080  136.8750 C   0  0  1  0  0  3  0  0  0  0  0  0
  181.7900  175.0250  136.8980 C   0  0  0  0  0  2  0  0  0  0  0  0
  180.4740  178.0810  139.4960 C   0  0  0  0  0  3  0  0  0  0  0  0
  182.4800  178.7130  137.6550 C   0  0  0  0  0  3  0  0  0  0  0  0
  180.9910  177.0900  138.6560 C   0  0  0  0  0  3  0  0  0  0  0  0
  181.9810  177.4030  137.7120 C   0  0  0  0  0  0  0  0  0  0  0  0
  180.9580  179.3890  139.4130 C   0  0  0  0  0  3  0  0  0  0  0  0
  181.9640  179.7030  138.4960 C   0  0  0  0  0  3  0  0  0  0  0  0
  185.2340  174.2660  136.4810 O   0  0  0  0  0  0  0  0  0  0  0  0
  186.3130  174.1400  137.2260 O   0  0  0  0  0  1  0  0  0  0  0  0
  2 12  1  0  0  0  0
  3 18  2  0  0  0  0
  4 13  1  0  0  0  0
  5 10  1  0  0  0  0
  6  5  1  0  0  0  0
  7 16  1  0  0  0  0
  9  8  1  1  0  0  0
  9 15  1  0  0  0  0
 10  1  1  0  0  0  0
 10 11  1  0  0  0  0
 11 12  1  0  0  0  0
 12 25  1  1  0  0  0
 13 29  1  6  0  0  0
 13  8  1  0  0  0  0
 14  4  1  1  0  0  0
 14 18  1  0  0  0  0
 14  9  1  0  0  0  0
 15  5  2  0  0  0  0
 15  7  1  0  0  0  0
 16 27  1  1  0  0  0
 16  2  1  0  0  0  0
 17 11  2  0  0  0  0
 18  6  1  0  0  0  0
 20 19  1  6  0  0  0
 20 24  1  0  0  0  0
 21 25  2  0  0  0  0
 21 23  1  0  0  0  0
 22 24  2  0  0  0  0
 23 22  1  0  0  0  0
 25 20  1  0  0  0  0
 26 27  1  0  0  0  0
 27 28  1  0  0  0  0
 29 40  1  1  0  0  0
 29 30  1  0  0  0  0
 30 31  1  0  0  0  0
 32 33  1  0  0  0  0
 32 30  1  0  0  0  0
 32 37  1  1  0  0  0
 33 31  1  0  0  0  0
 35 37  2  0  0  0  0
 35 39  1  0  0  0  0
 36 34  2  0  0  0  0
 37 36  1  0  0  0  0
 38 34  1  0  0  0  0
 39 38  2  0  0  0  0
 40 41  1  0  0  0  0
M  END
>  <MODEL>
8

>  <REMARK>
 VINA RESULT:      -7.2      1.589      2.232
  Name = 
  6 active torsions:
  status: ('A' for Active; 'I' for Inactive)
    1  A    between atoms: N_5  and  C_19
    2  A    between atoms: O_8  and  C_19
    3  A    between atoms: C_19  and  C_28
    4  A    between atoms: C_26  and  C_41
    5  A    between atoms: C_27  and  C_31
    6  A    between atoms: C_34  and  C_35
                            x       y       z     vdW  Elec       q    Type
                         _______ _______ _______ _____ _____    ______ ____

>  <TORSDO>
F 6

$$$$
