=
 OpenBabel11062416133D

 44 49  0  0  1  0  0  0  0  0999 V2000
  191.0510  178.2070  144.3390 C   0  0  0  0  0  2  0  0  0  0  0  0
  184.8040  178.8700  145.2270 C   0  0  0  0  0  0  0  0  0  0  0  0
  180.2050  174.7240  139.3860 C   0  0  0  0  0  2  0  0  0  0  0  0
  184.9790  179.3730  142.1350 C   0  0  0  0  0  2  0  0  0  0  0  0
  186.8880  177.9330  145.2030 C   0  0  1  0  0  3  0  0  0  0  0  0
  186.8860  177.8750  140.2670 N   0  0  0  0  0  2  0  0  0  0  0  0
  188.9950  177.2040  144.8740 C   0  0  0  0  0  2  0  0  0  0  0  0
  184.3190  177.0240  136.8190 C   0  0  0  0  0  0  0  0  0  0  0  0
  188.7100  179.2730  139.8540 O   0  0  0  0  0  0  0  0  0  0  0  0
  185.8850  178.8260  139.8020 C   0  0  2  0  0  3  0  0  0  0  0  0
  184.8980  177.8520  146.2860 C   0  0  0  0  0  2  0  0  0  0  0  0
  188.2560  178.2410  140.4160 C   0  0  0  0  0  0  0  0  0  0  0  0
  186.0870  177.1340  146.0530 O   0  0  0  0  0  0  0  0  0  0  0  0
  179.9070  177.1250  139.8770 N   0  0  0  0  0  0  0  0  0  0  0  0
  180.2090  174.7010  137.9300 N   0  0  0  0  0  0  0  0  0  0  0  0
  182.5790  177.4290  140.5130 C   0  0  0  0  0  0  0  0  0  0  0  0
  184.8640  177.1610  135.7340 O   0  0  0  0  0  0  0  0  0  0  0  0
  187.6840  177.1210  144.3830 O   0  0  0  0  0  0  0  0  0  0  0  0
  183.8590  179.6290  145.0910 O   0  0  0  0  0  0  0  0  0  0  0  0
  182.5840  174.4400  137.3630 C   0  0  0  0  0  2  0  0  0  0  0  0
  182.8520  176.7240  136.9080 C   0  0  2  0  0  3  0  0  0  0  0  0
  181.2290  173.7560  137.4960 C   0  0  0  0  0  2  0  0  0  0  0  0
  180.7230  176.0360  139.8640 C   0  0  0  0  0  0  0  0  0  0  0  0
  178.9320  174.1480  137.5200 C   0  0  0  0  0  1  0  0  0  0  0  0
  189.3060  176.3530  142.2230 C   0  0  0  0  0  2  0  0  0  0  0  0
  184.6590  178.8590  140.7280 C   0  0  1  0  0  3  0  0  0  0  0  0
  185.1120  177.1330  138.0760 C   0  0  0  0  0  2  0  0  0  0  0  0
  189.0830  177.4900  141.2930 N   0  0  0  0  0  0  0  0  0  0  0  0
  190.2880  177.3240  142.1660 C   0  0  1  0  0  3  0  0  0  0  0  0
  185.6720  178.3250  143.0000 C   0  0  0  0  0  2  0  0  0  0  0  0
  190.2760  178.5270  143.1440 C   0  0  1  0  0  3  0  0  0  0  0  0
  186.0030  178.8800  144.3880 C   0  0  1  0  0  3  0  0  0  0  0  0
  182.0740  176.1710  140.1870 C   0  0  0  0  0  3  0  0  0  0  0  0
  182.5540  175.4340  136.2990 N   0  0  0  0  0  2  0  0  0  0  0  0
  185.5150  178.5800  138.3360 C   0  0  0  0  0  2  0  0  0  0  0  0
  181.7240  178.5370  140.5150 C   0  0  0  0  0  3  0  0  0  0  0  0
  189.6100  178.4690  144.4790 N   0  0  2  0  0  0  0  0  0  0  0  0
  180.3750  178.3610  140.2010 C   0  0  0  0  0  3  0  0  0  0  0  0
  183.9770  177.5700  140.7710 N   0  0  0  0  0  2  0  0  0  0  0  0
  182.0430  177.8250  136.2410 C   0  0  0  0  0  2  0  0  0  0  0  0
  181.9550  179.0320  137.1540 C   0  0  0  0  0  2  0  0  0  0  0  0
  180.8940  179.9800  136.6440 C   0  0  0  0  0  2  0  0  0  0  0  0
  180.8810  181.2250  137.5060 C   0  0  0  0  0  2  0  0  0  0  0  0
  181.9870  181.2140  138.3540 O   0  0  0  0  0  1  0  0  0  0  0  0
  2 11  1  0  0  0  0
  3 23  1  0  0  0  0
  4 30  1  0  0  0  0
  5 18  1  6  0  0  0
  5 13  1  0  0  0  0
  6 12  1  0  0  0  0
  8 21  1  0  0  0  0
  8 27  1  0  0  0  0
  9 12  2  0  0  0  0
 10 35  1  6  0  0  0
 10  6  1  0  0  0  0
 10 26  1  0  0  0  0
 12 28  1  0  0  0  0
 13 11  1  0  0  0  0
 14 38  1  0  0  0  0
 15  3  1  0  0  0  0
 16 36  1  0  0  0  0
 16 39  1  0  0  0  0
 17  8  2  0  0  0  0
 18  7  1  0  0  0  0
 19  2  2  0  0  0  0
 20 22  1  0  0  0  0
 21 40  1  6  0  0  0
 22 15  1  0  0  0  0
 23 14  2  0  0  0  0
 23 33  1  0  0  0  0
 24 15  1  0  0  0  0
 26 39  1  0  0  0  0
 26  4  1  1  0  0  0
 27 35  1  0  0  0  0
 28 29  1  0  0  0  0
 28 25  1  0  0  0  0
 29 25  1  1  0  0  0
 29 31  1  0  0  0  0
 31  1  1  1  0  0  0
 31 37  1  0  0  0  0
 32 30  1  6  0  0  0
 32  5  1  0  0  0  0
 32  2  1  0  0  0  0
 33 16  2  0  0  0  0
 34 21  1  0  0  0  0
 34 20  1  0  0  0  0
 37  1  1  1  0  0  0
 37  7  1  0  0  0  0
 38 36  2  0  0  0  0
 40 41  1  0  0  0  0
 42 41  1  0  0  0  0
 42 43  1  0  0  0  0
 43 44  1  0  0  0  0
M  END
>  <MODEL>
1

>  <REMARK>
 VINA RESULT:      -7.9      0.000      0.000
  Name = 
  4 active torsions:
  status: ('A' for Active; 'I' for Inactive)
    1  A    between atoms: C_21  and  C_22
    2  A    between atoms: C_21  and  C_32
    3  A    between atoms: C_24  and  C_37
    4  A    between atoms: C_32  and  C_37
                            x       y       z     vdW  Elec       q    Type
                         _______ _______ _______ _____ _____    ______ ____

>  <TORSDO>
F 4

$$$$
