=
 OpenBabel11062414293D

 50 53  0  0  1  0  0  0  0  0999 V2000
  186.3890  178.7280  147.6250 C   0  0  0  0  0  2  0  0  0  0  0  0
  186.9910  177.3600  145.1740 C   0  0  1  0  0  3  0  0  0  0  0  0
  187.4350  177.0340  146.4770 O   0  0  0  0  0  0  0  0  0  0  0  0
  185.2770  178.5790  146.5810 C   0  0  0  0  0  2  0  0  0  0  0  0
  187.6660  178.2090  147.1280 N   0  0  0  0  0  0  0  0  0  0  0  0
  185.8630  178.4070  145.1820 C   0  0  2  0  0  3  0  0  0  0  0  0
  188.4160  177.9140  148.2150 O   0  0  0  0  0  1  0  0  0  0  0  0
  184.7850  178.1040  144.1380 C   0  0  0  0  0  2  0  0  0  0  0  0
  183.6780  179.1580  144.0860 C   0  0  1  0  0  3  0  0  0  0  0  0
  184.2150  180.4430  143.9700 O   0  0  0  0  0  1  0  0  0  0  0  0
  182.7130  178.8820  142.9390 C   0  0  0  0  0  2  0  0  0  0  0  0
  183.4360  178.7850  141.6040 C   0  0  0  0  0  2  0  0  0  0  0  0
  182.7590  177.8840  140.7620 O   0  0  0  0  0  0  0  0  0  0  0  0
  181.5320  179.5140  139.4700 C   0  0  0  0  0  1  0  0  0  0  0  0
  183.8270  179.0780  139.1440 O   0  0  0  0  0  1  0  0  0  0  0  0
  182.6260  178.4390  139.4640 C   0  0  1  0  0  0  0  0  0  0  0  0
  182.3420  177.3420  138.3870 C   0  0  1  0  0  3  0  0  0  0  0  0
  180.9190  176.7700  138.5000 C   0  0  0  0  0  2  0  0  0  0  0  0
  180.9500  175.3820  138.6380 O   0  0  0  0  0  1  0  0  0  0  0  0
  182.6430  177.7770  136.9290 C   0  0  2  0  0  3  0  0  0  0  0  0
  181.1990  179.1580  135.6400 O   0  0  0  0  0  0  0  0  0  0  0  0
  181.3820  178.0670  136.1580 C   0  0  0  0  0  3  0  0  0  0  0  0
  183.9130  177.2780  134.9030 O   0  0  0  0  0  1  0  0  0  0  0  0
  183.5740  176.8050  136.1740 C   0  0  1  0  0  3  0  0  0  0  0  0
  184.8210  176.3840  136.9660 C   0  0  2  0  0  3  0  0  0  0  0  0
  188.3790  176.5770  136.5080 O   0  0  0  0  0  1  0  0  0  0  0  0
  186.0380  176.7900  136.2640 N   0  0  0  0  0  0  0  0  0  0  0  0
  187.1830  177.6240  138.1800 O   0  0  0  0  0  0  0  0  0  0  0  0
  186.6030  177.9590  136.9500 C   0  0  1  0  0  3  0  0  0  0  0  0
  187.1660  176.6360  137.1900 C   0  0  1  0  0  0  0  0  0  0  0  0
  185.0230  174.1820  136.0270 O   0  0  0  0  0  1  0  0  0  0  0  0
  184.8360  174.8800  137.2220 C   0  0  0  0  0  2  0  0  0  0  0  0
  188.1070  177.8230  144.3530 N   0  0  0  0  0  2  0  0  0  0  0  0
  188.2200  177.0160  143.1350 C   0  0  0  0  0  0  0  0  0  0  0  0
  187.3470  177.5150  142.1630 O   0  0  0  0  0  1  0  0  0  0  0  0
  187.8940  175.6810  143.4070 O   0  0  0  0  0  1  0  0  0  0  0  0
  189.6640  177.1090  142.6060 C   0  0  1  0  0  3  0  0  0  0  0  0
  189.1490  178.9930  141.2920 O   0  0  0  0  0  0  0  0  0  0  0  0
  189.8030  177.9660  141.3760 C   0  0  0  0  0  0  0  0  0  0  0  0
  192.0040  177.3100  140.7320 O   0  0  0  0  0  1  0  0  0  0  0  0
  190.7160  177.5600  140.2530 C   0  0  1  0  0  3  0  0  0  0  0  0
  190.1820  176.3550  139.4850 C   0  0  0  0  0  2  0  0  0  0  0  0
  191.1920  175.7650  138.7200 O   0  0  0  0  0  1  0  0  0  0  0  0
  191.0980  178.6700  143.6960 O   0  0  0  0  0  0  0  0  0  0  0  0
  190.6670  177.4860  143.6540 C   0  0  0  0  0  0  0  0  0  0  0  0
  191.0830  176.5450  144.5990 O   0  0  0  0  0  0  0  0  0  0  0  0
  191.6750  175.7720  146.8000 C   0  0  1  0  0  3  0  0  0  0  0  0
  190.8870  176.7420  145.9940 C   0  0  1  0  0  3  0  0  0  0  0  0
  192.4250  174.9190  146.0090 F   0  0  0  0  0  0  0  0  0  0  0  0
  192.1120  177.0930  146.5930 O   0  0  0  0  0  0  0  0  0  0  0  0
  2 33  1  6  0  0  0
  2  6  1  0  0  0  0
  2  3  1  0  0  0  0
  3  5  1  0  0  0  0
  4  1  1  0  0  0  0
  5  1  1  0  0  0  0
  5  7  1  0  0  0  0
  6  8  1  6  0  0  0
  6  4  1  0  0  0  0
  9 10  1  6  0  0  0
  9  8  1  0  0  0  0
 11  9  1  0  0  0  0
 12 11  1  0  0  0  0
 13 12  1  0  0  0  0
 15 16  1  0  0  0  0
 16 14  1  6  0  0  0
 16 13  1  0  0  0  0
 17 18  1  6  0  0  0
 17 16  1  0  0  0  0
 18 19  1  0  0  0  0
 20 22  1  6  0  0  0
 20 17  1  0  0  0  0
 21 22  2  0  0  0  0
 24 23  1  6  0  0  0
 24 20  1  0  0  0  0
 24 25  1  0  0  0  0
 25 32  1  6  0  0  0
 27 29  1  0  0  0  0
 27 25  1  0  0  0  0
 27 30  1  0  0  0  0
 29 30  1  0  0  0  0
 29 28  1  1  0  0  0
 30 26  1  6  0  0  0
 30 28  1  0  0  0  0
 31 32  1  0  0  0  0
 34 36  1  0  0  0  0
 34 33  1  0  0  0  0
 35 34  1  0  0  0  0
 37 39  1  6  0  0  0
 37 34  1  0  0  0  0
 37 45  1  0  0  0  0
 38 39  2  0  0  0  0
 41 40  1  1  0  0  0
 41 39  1  0  0  0  0
 42 41  1  0  0  0  0
 43 42  1  0  0  0  0
 45 44  2  0  0  0  0
 45 46  1  0  0  0  0
 47 49  1  6  0  0  0
 48 46  1  6  0  0  0
 48 50  1  0  0  0  0
 48 47  1  0  0  0  0
 50 47  1  0  0  0  0
M  END
>  <MODEL>
1

>  <REMARK>
 VINA RESULT:      -6.0      0.000      0.000
  Name = 
  23 active torsions:
  status: ('A' for Active; 'I' for Inactive)
    1  A    between atoms: N_1  and  C_17
    2  A    between atoms: N_1  and  C_37
    3  A    between atoms: C_2  and  C_37
    4  A    between atoms: C_2  and  C_39
    5  A    between atoms: C_2  and  C_45
    6  A    between atoms: C_4  and  N_8
    7  A    between atoms: C_4  and  C_15
    8  A    between atoms: C_4  and  C_50
    9  A    between atoms: C_9  and  C_33
   10  A    between atoms: C_10  and  C_22
   11  A    between atoms: C_10  and  C_39
   12  A    between atoms: C_11  and  C_20
   13  A    between atoms: C_11  and  C_47
   14  A    between atoms: C_12  and  C_15
   15  A    between atoms: C_12  and  C_33
   16  A    between atoms: C_12  and  C_40
   17  A    between atoms: C_18  and  O_25
   18  A    between atoms: C_20  and  C_21
   19  A    between atoms: C_21  and  O_27
   20  A    between atoms: O_25  and  C_45
   21  A    between atoms: O_27  and  C_38
   22  A    between atoms: C_33  and  C_38
   23  A    between atoms: C_36  and  C_47
                            x       y       z     vdW  Elec       q    Type
                         _______ _______ _______ _____ _____    ______ ____

>  <TORSDO>
F 23

$$$$
=
 OpenBabel11062414293D

 50 53  0  0  1  0  0  0  0  0999 V2000
  186.3810  178.5350  147.4120 C   0  0  0  0  0  2  0  0  0  0  0  0
  186.7490  177.8030  144.6610 C   0  0  1  0  0  3  0  0  0  0  0  0
  186.9000  176.9800  145.8010 O   0  0  0  0  0  0  0  0  0  0  0  0
  185.4140  179.1070  146.3700 C   0  0  0  0  0  2  0  0  0  0  0  0
  187.4480  177.7510  146.7830 N   0  0  0  0  0  0  0  0  0  0  0  0
  186.0610  179.1400  144.9870 C   0  0  2  0  0  3  0  0  0  0  0  0
  187.9190  176.9060  147.7280 O   0  0  0  0  0  1  0  0  0  0  0  0
  185.0710  179.5620  143.8980 C   0  0  0  0  0  2  0  0  0  0  0  0
  184.1900  178.4150  143.4010 C   0  0  1  0  0  3  0  0  0  0  0  0
  182.9080  178.4940  143.9510 O   0  0  0  0  0  1  0  0  0  0  0  0
  184.1140  178.4030  141.8790 C   0  0  0  0  0  2  0  0  0  0  0  0
  182.8160  177.7830  141.3840 C   0  0  0  0  0  2  0  0  0  0  0  0
  182.9320  177.4690  140.0160 O   0  0  0  0  0  0  0  0  0  0  0  0
  180.6470  178.2100  140.2630 C   0  0  0  0  0  1  0  0  0  0  0  0
  181.7170  178.0170  138.1710 O   0  0  0  0  0  1  0  0  0  0  0  0
  181.6460  177.4040  139.4240 C   0  0  1  0  0  0  0  0  0  0  0  0
  181.1670  175.9280  139.2310 C   0  0  1  0  0  3  0  0  0  0  0  0
  179.7960  175.6710  139.8790 C   0  0  0  0  0  2  0  0  0  0  0  0
  179.8690  174.6220  140.7970 O   0  0  0  0  0  1  0  0  0  0  0  0
  181.1790  175.4330  137.7610 C   0  0  2  0  0  3  0  0  0  0  0  0
  179.2070  176.2870  136.7440 O   0  0  0  0  0  0  0  0  0  0  0  0
  179.7870  175.3130  137.1980 C   0  0  0  0  0  3  0  0  0  0  0  0
  181.2220  173.0920  137.0660 O   0  0  0  0  0  1  0  0  0  0  0  0
  182.0030  174.1460  137.5490 C   0  0  1  0  0  3  0  0  0  0  0  0
  183.2680  174.3400  136.6990 C   0  0  2  0  0  3  0  0  0  0  0  0
  186.8030  174.0650  137.2800 O   0  0  0  0  0  1  0  0  0  0  0  0
  184.4650  174.2940  137.5390 N   0  0  0  0  0  0  0  0  0  0  0  0
  185.4340  172.3740  136.5140 O   0  0  0  0  0  0  0  0  0  0  0  0
  184.8750  172.8920  137.6880 C   0  0  1  0  0  3  0  0  0  0  0  0
  185.5630  173.7490  136.7310 C   0  0  1  0  0  0  0  0  0  0  0  0
  183.6090  175.4470  134.5950 O   0  0  0  0  0  1  0  0  0  0  0  0
  183.2200  175.6510  135.9200 C   0  0  0  0  0  2  0  0  0  0  0  0
  188.0430  178.0400  144.0250 N   0  0  0  0  0  2  0  0  0  0  0  0
  188.1580  177.2630  142.7870 C   0  0  0  0  0  0  0  0  0  0  0  0
  187.2780  177.7790  141.8300 O   0  0  0  0  0  1  0  0  0  0  0  0
  187.8440  175.9190  143.0280 O   0  0  0  0  0  1  0  0  0  0  0  0
  189.5990  177.3810  142.2570 C   0  0  1  0  0  3  0  0  0  0  0  0
  190.4350  175.2710  142.8820 O   0  0  0  0  0  0  0  0  0  0  0  0
  190.5790  176.4800  142.9620 C   0  0  0  0  0  0  0  0  0  0  0  0
  191.7030  178.4480  143.7070 O   0  0  0  0  0  1  0  0  0  0  0  0
  191.7080  177.0530  143.7710 C   0  0  1  0  0  3  0  0  0  0  0  0
  191.6740  176.5800  145.2210 C   0  0  0  0  0  2  0  0  0  0  0  0
  190.7620  177.3310  145.9680 O   0  0  0  0  0  1  0  0  0  0  0  0
  190.3170  176.2620  140.2790 O   0  0  0  0  0  0  0  0  0  0  0  0
  189.7080  177.2510  140.7670 C   0  0  0  0  0  0  0  0  0  0  0  0
  189.1000  178.1940  139.9350 O   0  0  0  0  0  0  0  0  0  0  0  0
  188.4960  177.9170  137.6210 C   0  0  1  0  0  3  0  0  0  0  0  0
  189.5200  178.3910  138.5900 C   0  0  1  0  0  3  0  0  0  0  0  0
  187.3710  177.4140  138.2510 F   0  0  0  0  0  0  0  0  0  0  0  0
  188.6350  179.2790  137.9490 O   0  0  0  0  0  0  0  0  0  0  0  0
  2 33  1  1  0  0  0
  2  6  1  0  0  0  0
  2  3  1  0  0  0  0
  3  5  1  0  0  0  0
  4  1  1  0  0  0  0
  5  1  1  0  0  0  0
  5  7  1  0  0  0  0
  6  8  1  6  0  0  0
  6  4  1  0  0  0  0
  9  8  1  0  0  0  0
  9 10  1  1  0  0  0
 11  9  1  0  0  0  0
 12 11  1  0  0  0  0
 13 12  1  0  0  0  0
 15 16  1  0  0  0  0
 16 13  1  0  0  0  0
 16 14  1  1  0  0  0
 17 16  1  0  0  0  0
 17 18  1  6  0  0  0
 18 19  1  0  0  0  0
 20 22  1  1  0  0  0
 20 17  1  0  0  0  0
 21 22  2  0  0  0  0
 24 23  1  6  0  0  0
 24 20  1  0  0  0  0
 25 32  1  1  0  0  0
 25 27  1  0  0  0  0
 25 24  1  0  0  0  0
 27 29  1  0  0  0  0
 28 30  1  0  0  0  0
 29 28  1  6  0  0  0
 30 26  1  1  0  0  0
 30 27  1  0  0  0  0
 30 29  1  0  0  0  0
 31 32  1  0  0  0  0
 34 36  1  0  0  0  0
 34 33  1  0  0  0  0
 35 34  1  0  0  0  0
 37 45  1  6  0  0  0
 37 34  1  0  0  0  0
 37 39  1  0  0  0  0
 38 39  2  0  0  0  0
 39 41  1  0  0  0  0
 41 40  1  1  0  0  0
 41 42  1  0  0  0  0
 42 43  1  0  0  0  0
 44 45  2  0  0  0  0
 46 45  1  0  0  0  0
 47 50  1  0  0  0  0
 47 49  1  1  0  0  0
 47 48  1  0  0  0  0
 48 46  1  1  0  0  0
 50 48  1  0  0  0  0
M  END
>  <MODEL>
2

>  <REMARK>
 VINA RESULT:      -5.9      2.136      3.914
  Name = 
  23 active torsions:
  status: ('A' for Active; 'I' for Inactive)
    1  A    between atoms: N_1  and  C_17
    2  A    between atoms: N_1  and  C_37
    3  A    between atoms: C_2  and  C_37
    4  A    between atoms: C_2  and  C_39
    5  A    between atoms: C_2  and  C_45
    6  A    between atoms: C_4  and  N_8
    7  A    between atoms: C_4  and  C_15
    8  A    between atoms: C_4  and  C_50
    9  A    between atoms: C_9  and  C_33
   10  A    between atoms: C_10  and  C_22
   11  A    between atoms: C_10  and  C_39
   12  A    between atoms: C_11  and  C_20
   13  A    between atoms: C_11  and  C_47
   14  A    between atoms: C_12  and  C_15
   15  A    between atoms: C_12  and  C_33
   16  A    between atoms: C_12  and  C_40
   17  A    between atoms: C_18  and  O_25
   18  A    between atoms: C_20  and  C_21
   19  A    between atoms: C_21  and  O_27
   20  A    between atoms: O_25  and  C_45
   21  A    between atoms: O_27  and  C_38
   22  A    between atoms: C_33  and  C_38
   23  A    between atoms: C_36  and  C_47
                            x       y       z     vdW  Elec       q    Type
                         _______ _______ _______ _____ _____    ______ ____

>  <TORSDO>
F 23

$$$$
=
 OpenBabel11062414293D

 50 53  0  0  1  0  0  0  0  0999 V2000
  188.8050  176.9920  138.5710 C   0  0  0  0  0  2  0  0  0  0  0  0
  189.2590  177.6760  141.3220 C   0  0  1  0  0  3  0  0  0  0  0  0
  190.2260  177.3490  140.3420 O   0  0  0  0  0  0  0  0  0  0  0  0
  187.9480  178.0970  139.1990 C   0  0  0  0  0  2  0  0  0  0  0  0
  189.6890  176.3690  139.5610 N   0  0  0  0  0  0  0  0  0  0  0  0
  187.8680  177.9290  140.7150 C   0  0  2  0  0  3  0  0  0  0  0  0
  190.7110  175.8120  138.8730 O   0  0  0  0  0  1  0  0  0  0  0  0
  187.1470  179.1000  141.3870 C   0  0  0  0  0  2  0  0  0  0  0  0
  185.6310  179.0780  141.1800 C   0  0  1  0  0  3  0  0  0  0  0  0
  185.3080  178.6490  139.8910 O   0  0  0  0  0  1  0  0  0  0  0  0
  184.9490  178.1970  142.2200 C   0  0  0  0  0  2  0  0  0  0  0  0
  183.6070  178.7670  142.6490 C   0  0  0  0  0  2  0  0  0  0  0  0
  182.5880  178.2570  141.8230 O   0  0  0  0  0  0  0  0  0  0  0  0
  180.4810  177.9730  142.9660 C   0  0  0  0  0  1  0  0  0  0  0  0
  181.6360  180.0270  142.8910 O   0  0  0  0  0  1  0  0  0  0  0  0
  181.3590  178.8990  142.1160 C   0  0  1  0  0  0  0  0  0  0  0  0
  180.6150  179.3560  140.8180 C   0  0  1  0  0  3  0  0  0  0  0  0
  179.9040  180.7070  140.9990 C   0  0  0  0  0  2  0  0  0  0  0  0
  178.9310  180.6270  141.9960 O   0  0  0  0  0  1  0  0  0  0  0  0
  181.4950  179.3670  139.5400 C   0  0  2  0  0  3  0  0  0  0  0  0
  182.3430  181.3480  138.5370 O   0  0  0  0  0  0  0  0  0  0  0  0
  181.3630  180.6600  138.7800 C   0  0  0  0  0  3  0  0  0  0  0  0
  180.8230  178.4910  137.3620 O   0  0  0  0  0  1  0  0  0  0  0  0
  181.2840  178.1370  138.6340 C   0  0  1  0  0  3  0  0  0  0  0  0
  182.4980  177.1990  138.5480 C   0  0  2  0  0  3  0  0  0  0  0  0
  183.8380  175.0130  136.0320 O   0  0  0  0  0  1  0  0  0  0  0  0
  182.6970  176.7390  137.1740 N   0  0  0  0  0  0  0  0  0  0  0  0
  185.0610  176.4810  137.3220 O   0  0  0  0  0  0  0  0  0  0  0  0
  184.0180  177.1930  136.7190 C   0  0  1  0  0  3  0  0  0  0  0  0
  183.8400  175.8180  137.1690 C   0  0  1  0  0  0  0  0  0  0  0  0
  181.0110  175.8370  139.8530 O   0  0  0  0  0  1  0  0  0  0  0  0
  182.3480  176.0070  139.4880 C   0  0  0  0  0  2  0  0  0  0  0  0
  189.1860  176.6310  142.3400 N   0  0  0  0  0  2  0  0  0  0  0  0
  190.0340  176.9690  143.4870 C   0  0  0  0  0  0  0  0  0  0  0  0
  190.5150  178.2740  143.3410 O   0  0  0  0  0  1  0  0  0  0  0  0
  191.1160  176.0830  143.5670 O   0  0  0  0  0  1  0  0  0  0  0  0
  189.1900  176.8870  144.7720 C   0  0  1  0  0  3  0  0  0  0  0  0
  190.0610  178.8620  145.7110 O   0  0  0  0  0  0  0  0  0  0  0  0
  189.7420  177.7020  145.9120 C   0  0  0  0  0  0  0  0  0  0  0  0
  188.7750  176.3950  147.6580 O   0  0  0  0  0  1  0  0  0  0  0  0
  189.9210  177.0960  147.2760 C   0  0  1  0  0  3  0  0  0  0  0  0
  191.1520  176.1980  147.3490 C   0  0  0  0  0  2  0  0  0  0  0  0
  192.2240  176.8690  147.9460 O   0  0  0  0  0  1  0  0  0  0  0  0
  187.0570  176.3790  143.8370 O   0  0  0  0  0  0  0  0  0  0  0  0
  187.7320  177.1640  144.5560 C   0  0  0  0  0  0  0  0  0  0  0  0
  187.1240  178.2550  145.1820 O   0  0  0  0  0  0  0  0  0  0  0  0
  185.7440  178.5520  147.1310 C   0  0  1  0  0  3  0  0  0  0  0  0
  185.7970  178.1870  145.6900 C   0  0  1  0  0  3  0  0  0  0  0  0
  186.9880  178.8890  147.6340 F   0  0  0  0  0  0  0  0  0  0  0  0
  185.3950  179.4670  146.1190 O   0  0  0  0  0  0  0  0  0  0  0  0
  1  4  1  0  0  0  0
  1  5  1  0  0  0  0
  2 33  1  1  0  0  0
  3  2  1  0  0  0  0
  4  6  1  0  0  0  0
  5  3  1  0  0  0  0
  6  2  1  0  0  0  0
  6  8  1  1  0  0  0
  7  5  1  0  0  0  0
  9 10  1  6  0  0  0
  9  8  1  0  0  0  0
  9 11  1  0  0  0  0
 11 12  1  0  0  0  0
 13 16  1  0  0  0  0
 13 12  1  0  0  0  0
 16 15  1  0  0  0  0
 16 14  1  1  0  0  0
 17 18  1  1  0  0  0
 17 16  1  0  0  0  0
 18 19  1  0  0  0  0
 20 22  1  6  0  0  0
 20 17  1  0  0  0  0
 21 22  2  0  0  0  0
 24 23  1  6  0  0  0
 24 20  1  0  0  0  0
 25 24  1  0  0  0  0
 25 32  1  1  0  0  0
 27 25  1  0  0  0  0
 29 30  1  0  0  0  0
 29 27  1  0  0  0  0
 29 28  1  1  0  0  0
 30 26  1  6  0  0  0
 30 27  1  0  0  0  0
 30 28  1  0  0  0  0
 32 31  1  0  0  0  0
 33 34  1  0  0  0  0
 34 36  1  0  0  0  0
 34 37  1  0  0  0  0
 35 34  1  0  0  0  0
 37 45  1  6  0  0  0
 37 39  1  0  0  0  0
 38 39  2  0  0  0  0
 39 41  1  0  0  0  0
 41 42  1  0  0  0  0
 41 40  1  6  0  0  0
 42 43  1  0  0  0  0
 44 45  2  0  0  0  0
 45 46  1  0  0  0  0
 47 49  1  6  0  0  0
 48 46  1  6  0  0  0
 48 50  1  0  0  0  0
 48 47  1  0  0  0  0
 50 47  1  0  0  0  0
M  END
>  <MODEL>
3

>  <REMARK>
 VINA RESULT:      -5.8      2.214      5.149
  Name = 
  23 active torsions:
  status: ('A' for Active; 'I' for Inactive)
    1  A    between atoms: N_1  and  C_17
    2  A    between atoms: N_1  and  C_37
    3  A    between atoms: C_2  and  C_37
    4  A    between atoms: C_2  and  C_39
    5  A    between atoms: C_2  and  C_45
    6  A    between atoms: C_4  and  N_8
    7  A    between atoms: C_4  and  C_15
    8  A    between atoms: C_4  and  C_50
    9  A    between atoms: C_9  and  C_33
   10  A    between atoms: C_10  and  C_22
   11  A    between atoms: C_10  and  C_39
   12  A    between atoms: C_11  and  C_20
   13  A    between atoms: C_11  and  C_47
   14  A    between atoms: C_12  and  C_15
   15  A    between atoms: C_12  and  C_33
   16  A    between atoms: C_12  and  C_40
   17  A    between atoms: C_18  and  O_25
   18  A    between atoms: C_20  and  C_21
   19  A    between atoms: C_21  and  O_27
   20  A    between atoms: O_25  and  C_45
   21  A    between atoms: O_27  and  C_38
   22  A    between atoms: C_33  and  C_38
   23  A    between atoms: C_36  and  C_47
                            x       y       z     vdW  Elec       q    Type
                         _______ _______ _______ _____ _____    ______ ____

>  <TORSDO>
F 23

$$$$
=
 OpenBabel11062414293D

 50 53  0  0  1  0  0  0  0  0999 V2000
  189.1630  176.8820  138.3100 C   0  0  0  0  0  2  0  0  0  0  0  0
  189.7630  177.5590  141.0350 C   0  0  1  0  0  3  0  0  0  0  0  0
  190.6780  177.3010  139.9880 O   0  0  0  0  0  0  0  0  0  0  0  0
  188.2880  177.9270  139.0110 C   0  0  0  0  0  2  0  0  0  0  0  0
  190.1470  176.3000  139.2290 N   0  0  0  0  0  0  0  0  0  0  0  0
  188.3210  177.7370  140.5260 C   0  0  2  0  0  3  0  0  0  0  0  0
  191.1510  175.8120  138.4650 O   0  0  0  0  0  1  0  0  0  0  0  0
  187.5810  178.8550  141.2640 C   0  0  0  0  0  2  0  0  0  0  0  0
  186.1080  178.9710  140.8680 C   0  0  1  0  0  3  0  0  0  0  0  0
  185.9470  178.8240  139.4880 O   0  0  0  0  0  1  0  0  0  0  0  0
  185.2580  177.9490  141.6130 C   0  0  0  0  0  2  0  0  0  0  0  0
  183.7710  178.1890  141.4010 C   0  0  0  0  0  2  0  0  0  0  0  0
  183.2770  177.2860  140.4400 O   0  0  0  0  0  0  0  0  0  0  0  0
  180.8940  176.9040  140.4720 C   0  0  0  0  0  1  0  0  0  0  0  0
  181.8480  179.0580  140.3890 O   0  0  0  0  0  1  0  0  0  0  0  0
  182.0440  177.7560  139.9220 C   0  0  1  0  0  0  0  0  0  0  0  0
  182.0390  177.7800  138.3590 C   0  0  1  0  0  3  0  0  0  0  0  0
  182.2140  179.2000  137.7980 C   0  0  0  0  0  2  0  0  0  0  0  0
  181.0500  179.6300  137.1580 O   0  0  0  0  0  1  0  0  0  0  0  0
  183.0430  176.8010  137.6960 C   0  0  2  0  0  3  0  0  0  0  0  0
  185.2390  177.0560  136.8210 O   0  0  0  0  0  0  0  0  0  0  0  0
  184.1200  177.5310  136.9370 C   0  0  0  0  0  3  0  0  0  0  0  0
  182.5790  175.9060  135.4710 O   0  0  0  0  0  1  0  0  0  0  0  0
  182.3680  175.7100  136.8400 C   0  0  1  0  0  3  0  0  0  0  0  0
  182.7160  174.2730  137.2590 C   0  0  2  0  0  3  0  0  0  0  0  0
  184.7990  171.6290  136.0050 O   0  0  0  0  0  1  0  0  0  0  0  0
  183.6840  173.6860  136.3330 N   0  0  0  0  0  0  0  0  0  0  0  0
  185.1070  172.7470  137.9980 O   0  0  0  0  0  0  0  0  0  0  0  0
  185.0060  173.6960  136.9750 C   0  0  1  0  0  3  0  0  0  0  0  0
  184.2200  172.4690  136.9530 C   0  0  1  0  0  0  0  0  0  0  0  0
  180.3910  174.0260  136.7100 O   0  0  0  0  0  1  0  0  0  0  0  0
  181.4680  173.4000  137.3410 C   0  0  0  0  0  2  0  0  0  0  0  0
  189.8190  176.4990  142.0390 N   0  0  0  0  0  2  0  0  0  0  0  0
  190.5210  176.9640  143.2390 C   0  0  0  0  0  0  0  0  0  0  0  0
  190.8170  178.3240  143.1070 O   0  0  0  0  0  1  0  0  0  0  0  0
  191.7120  176.2460  143.4120 O   0  0  0  0  0  1  0  0  0  0  0  0
  189.6040  176.7670  144.4610 C   0  0  1  0  0  3  0  0  0  0  0  0
  190.0230  178.8870  145.3930 O   0  0  0  0  0  0  0  0  0  0  0  0
  189.9180  177.6910  145.6080 C   0  0  0  0  0  0  0  0  0  0  0  0
  188.9320  176.6090  147.4920 O   0  0  0  0  0  1  0  0  0  0  0  0
  190.1190  177.1540  146.9970 C   0  0  1  0  0  3  0  0  0  0  0  0
  191.2490  176.1310  147.0590 C   0  0  0  0  0  2  0  0  0  0  0  0
  192.2970  176.5940  147.8610 O   0  0  0  0  0  1  0  0  0  0  0  0
  187.6850  175.9210  143.3280 O   0  0  0  0  0  0  0  0  0  0  0  0
  188.1420  176.7820  144.1270 C   0  0  0  0  0  0  0  0  0  0  0  0
  187.2940  177.7120  144.7320 O   0  0  0  0  0  0  0  0  0  0  0  0
  185.5540  178.3850  146.2530 C   0  0  1  0  0  3  0  0  0  0  0  0
  186.0690  177.3260  145.3450 C   0  0  1  0  0  3  0  0  0  0  0  0
  186.3710  179.5010  146.2750 F   0  0  0  0  0  0  0  0  0  0  0  0
  185.0500  178.2120  144.9500 O   0  0  0  0  0  0  0  0  0  0  0  0
  1  4  1  0  0  0  0
  1  5  1  0  0  0  0
  2 33  1  1  0  0  0
  3  2  1  0  0  0  0
  4  6  1  0  0  0  0
  5  3  1  0  0  0  0
  6  2  1  0  0  0  0
  6  8  1  1  0  0  0
  7  5  1  0  0  0  0
  9 10  1  6  0  0  0
  9  8  1  0  0  0  0
  9 11  1  0  0  0  0
 12 11  1  0  0  0  0
 13 12  1  0  0  0  0
 16 15  1  0  0  0  0
 16 13  1  0  0  0  0
 16 14  1  1  0  0  0
 17 18  1  1  0  0  0
 17 16  1  0  0  0  0
 19 18  1  0  0  0  0
 20 22  1  6  0  0  0
 20 17  1  0  0  0  0
 21 22  2  0  0  0  0
 24 23  1  6  0  0  0
 24 25  1  0  0  0  0
 24 20  1  0  0  0  0
 25 32  1  6  0  0  0
 27 30  1  0  0  0  0
 27 29  1  0  0  0  0
 27 25  1  0  0  0  0
 29 28  1  1  0  0  0
 30 26  1  6  0  0  0
 30 29  1  0  0  0  0
 30 28  1  0  0  0  0
 31 32  1  0  0  0  0
 33 34  1  0  0  0  0
 34 36  1  0  0  0  0
 34 37  1  0  0  0  0
 35 34  1  0  0  0  0
 37 45  1  6  0  0  0
 37 39  1  0  0  0  0
 38 39  2  0  0  0  0
 39 41  1  0  0  0  0
 41 42  1  0  0  0  0
 41 40  1  6  0  0  0
 42 43  1  0  0  0  0
 44 45  2  0  0  0  0
 45 46  1  0  0  0  0
 47 49  1  6  0  0  0
 48 46  1  6  0  0  0
 48 47  1  0  0  0  0
 50 48  1  0  0  0  0
 50 47  1  0  0  0  0
M  END
>  <MODEL>
4

>  <REMARK>
 VINA RESULT:      -5.5      2.233      5.146
  Name = 
  23 active torsions:
  status: ('A' for Active; 'I' for Inactive)
    1  A    between atoms: N_1  and  C_17
    2  A    between atoms: N_1  and  C_37
    3  A    between atoms: C_2  and  C_37
    4  A    between atoms: C_2  and  C_39
    5  A    between atoms: C_2  and  C_45
    6  A    between atoms: C_4  and  N_8
    7  A    between atoms: C_4  and  C_15
    8  A    between atoms: C_4  and  C_50
    9  A    between atoms: C_9  and  C_33
   10  A    between atoms: C_10  and  C_22
   11  A    between atoms: C_10  and  C_39
   12  A    between atoms: C_11  and  C_20
   13  A    between atoms: C_11  and  C_47
   14  A    between atoms: C_12  and  C_15
   15  A    between atoms: C_12  and  C_33
   16  A    between atoms: C_12  and  C_40
   17  A    between atoms: C_18  and  O_25
   18  A    between atoms: C_20  and  C_21
   19  A    between atoms: C_21  and  O_27
   20  A    between atoms: O_25  and  C_45
   21  A    between atoms: O_27  and  C_38
   22  A    between atoms: C_33  and  C_38
   23  A    between atoms: C_36  and  C_47
                            x       y       z     vdW  Elec       q    Type
                         _______ _______ _______ _____ _____    ______ ____

>  <TORSDO>
F 23

$$$$
=
 OpenBabel11062414293D

 50 53  0  0  1  0  0  0  0  0999 V2000
  189.0630  176.9490  138.5180 C   0  0  0  0  0  2  0  0  0  0  0  0
  189.5870  177.4890  141.2880 C   0  0  1  0  0  3  0  0  0  0  0  0
  190.5120  177.0820  140.2980 O   0  0  0  0  0  0  0  0  0  0  0  0
  188.3390  178.1250  139.1810 C   0  0  0  0  0  2  0  0  0  0  0  0
  189.8660  176.1970  139.4860 N   0  0  0  0  0  0  0  0  0  0  0  0
  188.2370  177.9210  140.6910 C   0  0  2  0  0  3  0  0  0  0  0  0
  190.8190  175.5460  138.7800 O   0  0  0  0  0  1  0  0  0  0  0  0
  187.6550  179.1460  141.4000 C   0  0  0  0  0  2  0  0  0  0  0  0
  186.1270  179.2100  141.3470 C   0  0  1  0  0  3  0  0  0  0  0  0
  185.6780  179.3690  140.0330 O   0  0  0  0  0  1  0  0  0  0  0  0
  185.5050  177.9680  141.9730 C   0  0  0  0  0  2  0  0  0  0  0  0
  183.9890  178.0720  142.0460 C   0  0  0  0  0  2  0  0  0  0  0  0
  183.4140  177.4030  140.9490 O   0  0  0  0  0  0  0  0  0  0  0  0
  181.6480  178.8140  141.7940 C   0  0  0  0  0  1  0  0  0  0  0  0
  182.4250  178.9200  139.5700 O   0  0  0  0  0  1  0  0  0  0  0  0
  182.1820  178.0100  140.6020 C   0  0  1  0  0  0  0  0  0  0  0  0
  181.1340  176.9620  140.1070 C   0  0  1  0  0  3  0  0  0  0  0  0
  179.7000  177.3310  140.5200 C   0  0  0  0  0  2  0  0  0  0  0  0
  179.2980  176.5970  141.6360 O   0  0  0  0  0  1  0  0  0  0  0  0
  181.2030  176.6480  138.5890 C   0  0  2  0  0  3  0  0  0  0  0  0
  179.7760  177.9570  137.2090 O   0  0  0  0  0  0  0  0  0  0  0  0
  179.9020  176.9540  137.8930 C   0  0  0  0  0  3  0  0  0  0  0  0
  180.6800  174.3830  137.8410 O   0  0  0  0  0  1  0  0  0  0  0  0
  181.7090  175.2250  138.2740 C   0  0  1  0  0  3  0  0  0  0  0  0
  182.9090  175.1800  137.3170 C   0  0  2  0  0  3  0  0  0  0  0  0
  186.2170  173.7790  137.3560 O   0  0  0  0  0  1  0  0  0  0  0  0
  184.0220  174.4480  137.9210 N   0  0  0  0  0  0  0  0  0  0  0  0
  184.4670  173.0470  136.0460 O   0  0  0  0  0  0  0  0  0  0  0  0
  184.0320  173.0840  137.3760 C   0  0  1  0  0  3  0  0  0  0  0  0
  184.9560  174.0810  136.8490 C   0  0  1  0  0  0  0  0  0  0  0  0
  184.3900  177.0220  137.7460 O   0  0  0  0  0  1  0  0  0  0  0  0
  183.3550  176.5830  136.9170 C   0  0  0  0  0  2  0  0  0  0  0  0
  189.3910  176.4280  142.2730 N   0  0  0  0  0  2  0  0  0  0  0  0
  190.5110  176.3880  143.2180 C   0  0  0  0  0  0  0  0  0  0  0  0
  191.5150  177.2600  142.7850 O   0  0  0  0  0  1  0  0  0  0  0  0
  191.0300  175.0900  143.3000 O   0  0  0  0  0  1  0  0  0  0  0  0
  190.0120  176.8460  144.6010 C   0  0  1  0  0  3  0  0  0  0  0  0
  192.1420  177.5830  145.2790 O   0  0  0  0  0  0  0  0  0  0  0  0
  191.1130  177.0200  145.6140 C   0  0  0  0  0  0  0  0  0  0  0  0
  192.2000  176.4570  147.6610 O   0  0  0  0  0  1  0  0  0  0  0  0
  190.9630  176.4950  147.0140 C   0  0  1  0  0  3  0  0  0  0  0  0
  189.9550  177.3010  147.8260 C   0  0  0  0  0  2  0  0  0  0  0  0
  188.8040  176.5490  148.0800 O   0  0  0  0  0  1  0  0  0  0  0  0
  189.6230  179.1870  144.3860 O   0  0  0  0  0  0  0  0  0  0  0  0
  189.1150  178.0460  144.5540 C   0  0  0  0  0  0  0  0  0  0  0  0
  187.7300  177.8910  144.6490 O   0  0  0  0  0  0  0  0  0  0  0  0
  185.8810  178.7770  145.9100 C   0  0  1  0  0  3  0  0  0  0  0  0
  187.0600  177.8700  145.9040 C   0  0  1  0  0  3  0  0  0  0  0  0
  185.7000  179.4110  144.6940 F   0  0  0  0  0  0  0  0  0  0  0  0
  185.7500  177.3870  145.7270 O   0  0  0  0  0  0  0  0  0  0  0  0
  1  4  1  0  0  0  0
  1  5  1  0  0  0  0
  2 33  1  1  0  0  0
  3  2  1  0  0  0  0
  4  6  1  0  0  0  0
  5  3  1  0  0  0  0
  6  2  1  0  0  0  0
  6  8  1  1  0  0  0
  7  5  1  0  0  0  0
  9 10  1  6  0  0  0
  9  8  1  0  0  0  0
  9 11  1  0  0  0  0
 11 12  1  0  0  0  0
 13 12  1  0  0  0  0
 15 16  1  0  0  0  0
 16 13  1  0  0  0  0
 16 14  1  1  0  0  0
 17 18  1  6  0  0  0
 17 16  1  0  0  0  0
 18 19  1  0  0  0  0
 20 22  1  1  0  0  0
 20 17  1  0  0  0  0
 21 22  2  0  0  0  0
 24 23  1  6  0  0  0
 24 20  1  0  0  0  0
 25 32  1  1  0  0  0
 25 27  1  0  0  0  0
 25 24  1  0  0  0  0
 28 30  1  0  0  0  0
 29 28  1  6  0  0  0
 29 27  1  0  0  0  0
 30 26  1  1  0  0  0
 30 29  1  0  0  0  0
 30 27  1  0  0  0  0
 32 31  1  0  0  0  0
 33 34  1  0  0  0  0
 34 36  1  0  0  0  0
 34 37  1  0  0  0  0
 35 34  1  0  0  0  0
 37 45  1  6  0  0  0
 37 39  1  0  0  0  0
 38 39  2  0  0  0  0
 39 41  1  0  0  0  0
 41 40  1  1  0  0  0
 41 42  1  0  0  0  0
 42 43  1  0  0  0  0
 44 45  2  0  0  0  0
 45 46  1  0  0  0  0
 47 49  1  6  0  0  0
 48 46  1  6  0  0  0
 48 47  1  0  0  0  0
 50 48  1  0  0  0  0
 50 47  1  0  0  0  0
M  END
>  <MODEL>
5

>  <REMARK>
 VINA RESULT:      -5.5      2.338      4.968
  Name = 
  23 active torsions:
  status: ('A' for Active; 'I' for Inactive)
    1  A    between atoms: N_1  and  C_17
    2  A    between atoms: N_1  and  C_37
    3  A    between atoms: C_2  and  C_37
    4  A    between atoms: C_2  and  C_39
    5  A    between atoms: C_2  and  C_45
    6  A    between atoms: C_4  and  N_8
    7  A    between atoms: C_4  and  C_15
    8  A    between atoms: C_4  and  C_50
    9  A    between atoms: C_9  and  C_33
   10  A    between atoms: C_10  and  C_22
   11  A    between atoms: C_10  and  C_39
   12  A    between atoms: C_11  and  C_20
   13  A    between atoms: C_11  and  C_47
   14  A    between atoms: C_12  and  C_15
   15  A    between atoms: C_12  and  C_33
   16  A    between atoms: C_12  and  C_40
   17  A    between atoms: C_18  and  O_25
   18  A    between atoms: C_20  and  C_21
   19  A    between atoms: C_21  and  O_27
   20  A    between atoms: O_25  and  C_45
   21  A    between atoms: O_27  and  C_38
   22  A    between atoms: C_33  and  C_38
   23  A    between atoms: C_36  and  C_47
                            x       y       z     vdW  Elec       q    Type
                         _______ _______ _______ _____ _____    ______ ____

>  <TORSDO>
F 23

$$$$
=
 OpenBabel11062414293D

 50 53  0  0  1  0  0  0  0  0999 V2000
  191.8020  177.2390  140.0040 C   0  0  0  0  0  2  0  0  0  0  0  0
  189.4210  177.7230  141.5330 C   0  0  1  0  0  3  0  0  0  0  0  0
  190.7280  178.1940  141.7980 O   0  0  0  0  0  0  0  0  0  0  0  0
  190.4880  177.4760  139.2510 C   0  0  0  0  0  2  0  0  0  0  0  0
  191.5910  177.1960  141.4540 N   0  0  0  0  0  0  0  0  0  0  0  0
  189.2880  177.1170  140.1250 C   0  0  2  0  0  3  0  0  0  0  0  0
  192.7790  177.4900  142.0280 O   0  0  0  0  0  1  0  0  0  0  0  0
  187.9600  177.4860  139.4590 C   0  0  0  0  0  2  0  0  0  0  0  0
  187.9660  177.2880  137.9420 C   0  0  1  0  0  3  0  0  0  0  0  0
  187.6610  175.9660  137.6080 O   0  0  0  0  0  1  0  0  0  0  0  0
  186.9930  178.2440  137.2610 C   0  0  0  0  0  2  0  0  0  0  0  0
  185.9610  177.4990  136.4280 C   0  0  0  0  0  2  0  0  0  0  0  0
  184.6810  177.6830  136.9840 O   0  0  0  0  0  0  0  0  0  0  0  0
  184.1530  176.0700  135.2670 C   0  0  0  0  0  1  0  0  0  0  0  0
  184.2050  175.5330  137.5630 O   0  0  0  0  0  1  0  0  0  0  0  0
  183.8600  176.5660  136.6880 C   0  0  1  0  0  0  0  0  0  0  0  0
  182.3420  176.8930  136.8760 C   0  0  1  0  0  3  0  0  0  0  0  0
  181.6750  177.3340  135.5630 C   0  0  0  0  0  2  0  0  0  0  0  0
  180.9600  178.5190  135.7430 O   0  0  0  0  0  1  0  0  0  0  0  0
  181.5190  175.7670  137.5570 C   0  0  2  0  0  3  0  0  0  0  0  0
  179.3760  175.0470  136.8250 O   0  0  0  0  0  0  0  0  0  0  0  0
  180.5730  175.1020  136.5920 C   0  0  0  0  0  3  0  0  0  0  0  0
  180.8580  175.2400  139.8480 O   0  0  0  0  0  1  0  0  0  0  0  0
  180.8090  176.2180  138.8500 C   0  0  1  0  0  3  0  0  0  0  0  0
  181.2710  177.5830  139.3810 C   0  0  2  0  0  3  0  0  0  0  0  0
  182.8910  178.7720  142.3590 O   0  0  0  0  0  1  0  0  0  0  0  0
  182.0360  177.4230  140.6170 N   0  0  0  0  0  0  0  0  0  0  0  0
  183.5870  179.1830  140.1980 O   0  0  0  0  0  0  0  0  0  0  0  0
  183.4310  177.8010  140.3530 C   0  0  1  0  0  3  0  0  0  0  0  0
  182.5370  178.7450  141.0120 C   0  0  1  0  0  0  0  0  0  0  0  0
  178.9820  178.1010  138.8690 O   0  0  0  0  0  1  0  0  0  0  0  0
  180.0890  178.5210  139.6090 C   0  0  0  0  0  2  0  0  0  0  0  0
  189.0110  176.7510  142.5440 N   0  0  0  0  0  2  0  0  0  0  0  0
  187.8120  177.2160  143.2490 C   0  0  0  0  0  0  0  0  0  0  0  0
  187.0630  176.1120  143.6700 O   0  0  0  0  0  1  0  0  0  0  0  0
  187.0290  178.0090  142.4010 O   0  0  0  0  0  1  0  0  0  0  0  0
  188.2440  178.0300  144.4830 C   0  0  1  0  0  3  0  0  0  0  0  0
  188.0260  177.3260  146.7180 O   0  0  0  0  0  0  0  0  0  0  0  0
  187.4440  177.7200  145.7210 C   0  0  0  0  0  0  0  0  0  0  0  0
  185.4610  177.8600  147.0400 O   0  0  0  0  0  1  0  0  0  0  0  0
  185.9490  177.8730  145.7310 C   0  0  1  0  0  3  0  0  0  0  0  0
  185.4940  179.1310  144.9990 C   0  0  0  0  0  2  0  0  0  0  0  0
  184.2010  179.4920  145.3860 O   0  0  0  0  0  1  0  0  0  0  0  0
  190.3980  179.0360  144.6460 O   0  0  0  0  0  0  0  0  0  0  0  0
  189.7170  177.9810  144.7540 C   0  0  0  0  0  0  0  0  0  0  0  0
  190.3160  176.7870  145.1640 O   0  0  0  0  0  0  0  0  0  0  0  0
  191.8220  176.2720  146.9700 C   0  0  1  0  0  3  0  0  0  0  0  0
  191.6810  176.7280  145.5610 C   0  0  1  0  0  3  0  0  0  0  0  0
  190.6000  175.9940  147.5570 F   0  0  0  0  0  0  0  0  0  0  0  0
  192.0170  175.3990  145.8830 O   0  0  0  0  0  0  0  0  0  0  0  0
  1  5  1  0  0  0  0
  2  3  1  0  0  0  0
  2 33  1  1  0  0  0
  4  1  1  0  0  0  0
  4  6  1  0  0  0  0
  5  3  1  0  0  0  0
  5  7  1  0  0  0  0
  6  8  1  6  0  0  0
  6  2  1  0  0  0  0
  9 10  1  1  0  0  0
  9  8  1  0  0  0  0
 11  9  1  0  0  0  0
 12 13  1  0  0  0  0
 12 11  1  0  0  0  0
 16 14  1  6  0  0  0
 16 17  1  0  0  0  0
 16 13  1  0  0  0  0
 16 15  1  0  0  0  0
 17 18  1  6  0  0  0
 17 20  1  0  0  0  0
 18 19  1  0  0  0  0
 20 22  1  6  0  0  0
 20 24  1  0  0  0  0
 22 21  2  0  0  0  0
 24 25  1  0  0  0  0
 24 23  1  1  0  0  0
 25 32  1  1  0  0  0
 25 27  1  0  0  0  0
 27 30  1  0  0  0  0
 28 30  1  0  0  0  0
 29 28  1  6  0  0  0
 29 27  1  0  0  0  0
 29 30  1  0  0  0  0
 30 26  1  1  0  0  0
 31 32  1  0  0  0  0
 33 34  1  0  0  0  0
 34 35  1  0  0  0  0
 34 37  1  0  0  0  0
 36 34  1  0  0  0  0
 37 45  1  1  0  0  0
 37 39  1  0  0  0  0
 39 41  1  0  0  0  0
 39 38  2  0  0  0  0
 41 40  1  1  0  0  0
 42 43  1  0  0  0  0
 42 41  1  0  0  0  0
 44 45  2  0  0  0  0
 45 46  1  0  0  0  0
 47 49  1  1  0  0  0
 48 46  1  1  0  0  0
 48 50  1  0  0  0  0
 48 47  1  0  0  0  0
 50 47  1  0  0  0  0
M  END
>  <MODEL>
6

>  <REMARK>
 VINA RESULT:      -5.1      1.844      5.534
  Name = 
  23 active torsions:
  status: ('A' for Active; 'I' for Inactive)
    1  A    between atoms: N_1  and  C_17
    2  A    between atoms: N_1  and  C_37
    3  A    between atoms: C_2  and  C_37
    4  A    between atoms: C_2  and  C_39
    5  A    between atoms: C_2  and  C_45
    6  A    between atoms: C_4  and  N_8
    7  A    between atoms: C_4  and  C_15
    8  A    between atoms: C_4  and  C_50
    9  A    between atoms: C_9  and  C_33
   10  A    between atoms: C_10  and  C_22
   11  A    between atoms: C_10  and  C_39
   12  A    between atoms: C_11  and  C_20
   13  A    between atoms: C_11  and  C_47
   14  A    between atoms: C_12  and  C_15
   15  A    between atoms: C_12  and  C_33
   16  A    between atoms: C_12  and  C_40
   17  A    between atoms: C_18  and  O_25
   18  A    between atoms: C_20  and  C_21
   19  A    between atoms: C_21  and  O_27
   20  A    between atoms: O_25  and  C_45
   21  A    between atoms: O_27  and  C_38
   22  A    between atoms: C_33  and  C_38
   23  A    between atoms: C_36  and  C_47
                            x       y       z     vdW  Elec       q    Type
                         _______ _______ _______ _____ _____    ______ ____

>  <TORSDO>
F 23

$$$$
=
 OpenBabel11062414293D

 50 53  0  0  1  0  0  0  0  0999 V2000
  185.1560  178.3770  143.0400 C   0  0  0  0  0  2  0  0  0  0  0  0
  183.3300  179.0010  140.9160 C   0  0  1  0  0  3  0  0  0  0  0  0
  183.2400  179.3890  142.2730 O   0  0  0  0  0  0  0  0  0  0  0  0
  185.7300  178.6990  141.6570 C   0  0  0  0  0  2  0  0  0  0  0  0
  183.6910  178.3410  143.0200 N   0  0  0  0  0  0  0  0  0  0  0  0
  184.7060  178.4110  140.5620 C   0  0  2  0  0  3  0  0  0  0  0  0
  183.2790  178.5590  144.2890 O   0  0  0  0  0  1  0  0  0  0  0  0
  185.1930  178.8650  139.1830 C   0  0  0  0  0  2  0  0  0  0  0  0
  186.0590  177.8230  138.4720 C   0  0  1  0  0  3  0  0  0  0  0  0
  185.5410  177.5180  137.2100 O   0  0  0  0  0  1  0  0  0  0  0  0
  187.5010  178.2990  138.3520 C   0  0  0  0  0  2  0  0  0  0  0  0
  188.4820  177.2700  138.8920 C   0  0  0  0  0  2  0  0  0  0  0  0
  188.2900  177.1140  140.2780 O   0  0  0  0  0  0  0  0  0  0  0  0
  190.6460  177.6270  140.1650 C   0  0  0  0  0  1  0  0  0  0  0  0
  189.0590  179.0830  141.1250 O   0  0  0  0  0  1  0  0  0  0  0  0
  189.3550  177.7240  140.9870 C   0  0  1  0  0  0  0  0  0  0  0  0
  189.5380  177.1060  142.4110 C   0  0  1  0  0  3  0  0  0  0  0  0
  190.8250  176.2710  142.5220 C   0  0  0  0  0  2  0  0  0  0  0  0
  190.5530  175.0060  143.0440 O   0  0  0  0  0  1  0  0  0  0  0  0
  189.4460  178.1280  143.5750 C   0  0  2  0  0  3  0  0  0  0  0  0
  191.0990  179.8000  143.9250 O   0  0  0  0  0  0  0  0  0  0  0  0
  190.8060  178.6170  144.0000 C   0  0  0  0  0  3  0  0  0  0  0  0
  187.9380  176.4350  144.4830 O   0  0  0  0  0  1  0  0  0  0  0  0
  188.6090  177.6290  144.7700 C   0  0  1  0  0  3  0  0  0  0  0  0
  189.3890  177.5290  146.0890 C   0  0  2  0  0  3  0  0  0  0  0  0
  191.3260  175.0020  147.7540 O   0  0  0  0  0  1  0  0  0  0  0  0
  190.1220  176.2650  146.1600 N   0  0  0  0  0  0  0  0  0  0  0  0
  192.0470  177.1370  147.2620 O   0  0  0  0  0  0  0  0  0  0  0  0
  191.5600  176.5560  146.0850 C   0  0  1  0  0  3  0  0  0  0  0  0
  190.9420  176.2870  147.3770 C   0  0  1  0  0  0  0  0  0  0  0  0
  188.8620  178.7470  148.0910 O   0  0  0  0  0  1  0  0  0  0  0  0
  188.4650  177.6710  147.2950 C   0  0  0  0  0  2  0  0  0  0  0  0
  182.2700  178.0520  140.5830 N   0  0  0  0  0  2  0  0  0  0  0  0
  181.0400  178.7610  140.2150 C   0  0  0  0  0  0  0  0  0  0  0  0
  181.3540  180.0720  139.8380 O   0  0  0  0  0  1  0  0  0  0  0  0
  180.1550  178.7920  141.3000 O   0  0  0  0  0  1  0  0  0  0  0  0
  180.3870  178.0410  139.0210 C   0  0  1  0  0  3  0  0  0  0  0  0
  182.2340  177.9590  137.5650 O   0  0  0  0  0  0  0  0  0  0  0  0
  181.0730  178.3030  137.7070 C   0  0  0  0  0  0  0  0  0  0  0  0
  179.0520  179.3350  136.9710 O   0  0  0  0  0  1  0  0  0  0  0  0
  180.3510  178.9980  136.5860 C   0  0  1  0  0  3  0  0  0  0  0  0
  181.1040  180.2290  136.0930 C   0  0  0  0  0  2  0  0  0  0  0  0
  181.1120  181.2320  137.0680 O   0  0  0  0  0  1  0  0  0  0  0  0
  179.3590  176.1990  140.1330 O   0  0  0  0  0  0  0  0  0  0  0  0
  180.1730  176.5740  139.2450 C   0  0  0  0  0  0  0  0  0  0  0  0
  180.8350  175.6370  138.4470 O   0  0  0  0  0  0  0  0  0  0  0  0
  180.5590  174.2930  136.4700 C   0  0  1  0  0  3  0  0  0  0  0  0
  180.1600  174.5180  137.8850 C   0  0  1  0  0  3  0  0  0  0  0  0
  181.5010  175.2090  136.0380 F   0  0  0  0  0  0  0  0  0  0  0  0
  181.1040  173.5370  137.5250 O   0  0  0  0  0  0  0  0  0  0  0  0
  2 33  1  1  0  0  0
  2  3  1  0  0  0  0
  3  5  1  0  0  0  0
  4  1  1  0  0  0  0
  5  1  1  0  0  0  0
  5  7  1  0  0  0  0
  6  8  1  6  0  0  0
  6  2  1  0  0  0  0
  6  4  1  0  0  0  0
  9 10  1  6  0  0  0
  9  8  1  0  0  0  0
 11  9  1  0  0  0  0
 11 12  1  0  0  0  0
 12 13  1  0  0  0  0
 13 16  1  0  0  0  0
 16 14  1  6  0  0  0
 16 15  1  0  0  0  0
 16 17  1  0  0  0  0
 17 18  1  6  0  0  0
 17 20  1  0  0  0  0
 18 19  1  0  0  0  0
 20 22  1  1  0  0  0
 20 24  1  0  0  0  0
 21 22  2  0  0  0  0
 24 23  1  6  0  0  0
 24 25  1  0  0  0  0
 25 27  1  0  0  0  0
 25 32  1  1  0  0  0
 27 30  1  0  0  0  0
 28 30  1  0  0  0  0
 29 27  1  0  0  0  0
 29 28  1  1  0  0  0
 29 30  1  0  0  0  0
 30 26  1  1  0  0  0
 32 31  1  0  0  0  0
 34 33  1  0  0  0  0
 34 36  1  0  0  0  0
 35 34  1  0  0  0  0
 37 39  1  6  0  0  0
 37 45  1  0  0  0  0
 37 34  1  0  0  0  0
 38 39  2  0  0  0  0
 41 40  1  1  0  0  0
 41 39  1  0  0  0  0
 42 41  1  0  0  0  0
 42 43  1  0  0  0  0
 45 44  2  0  0  0  0
 46 45  1  0  0  0  0
 47 49  1  1  0  0  0
 47 50  1  0  0  0  0
 47 48  1  0  0  0  0
 48 46  1  1  0  0  0
 50 48  1  0  0  0  0
M  END
>  <MODEL>
7

>  <REMARK>
 VINA RESULT:      -5.1      3.052      9.845
  Name = 
  23 active torsions:
  status: ('A' for Active; 'I' for Inactive)
    1  A    between atoms: N_1  and  C_17
    2  A    between atoms: N_1  and  C_37
    3  A    between atoms: C_2  and  C_37
    4  A    between atoms: C_2  and  C_39
    5  A    between atoms: C_2  and  C_45
    6  A    between atoms: C_4  and  N_8
    7  A    between atoms: C_4  and  C_15
    8  A    between atoms: C_4  and  C_50
    9  A    between atoms: C_9  and  C_33
   10  A    between atoms: C_10  and  C_22
   11  A    between atoms: C_10  and  C_39
   12  A    between atoms: C_11  and  C_20
   13  A    between atoms: C_11  and  C_47
   14  A    between atoms: C_12  and  C_15
   15  A    between atoms: C_12  and  C_33
   16  A    between atoms: C_12  and  C_40
   17  A    between atoms: C_18  and  O_25
   18  A    between atoms: C_20  and  C_21
   19  A    between atoms: C_21  and  O_27
   20  A    between atoms: O_25  and  C_45
   21  A    between atoms: O_27  and  C_38
   22  A    between atoms: C_33  and  C_38
   23  A    between atoms: C_36  and  C_47
                            x       y       z     vdW  Elec       q    Type
                         _______ _______ _______ _____ _____    ______ ____

>  <TORSDO>
F 23

$$$$
=
 OpenBabel11062414293D

 50 53  0  0  1  0  0  0  0  0999 V2000
  184.7410  179.0140  142.9700 C   0  0  0  0  0  2  0  0  0  0  0  0
  183.7310  178.3900  140.3570 C   0  0  1  0  0  3  0  0  0  0  0  0
  183.0560  179.0540  141.4070 O   0  0  0  0  0  0  0  0  0  0  0  0
  185.6850  179.1540  141.7720 C   0  0  0  0  0  2  0  0  0  0  0  0
  183.4440  178.4600  142.5720 N   0  0  0  0  0  0  0  0  0  0  0  0
  185.2410  178.2540  140.6210 C   0  0  2  0  0  3  0  0  0  0  0  0
  182.5530  178.8340  143.5180 O   0  0  0  0  0  1  0  0  0  0  0  0
  186.0730  178.4830  139.3560 C   0  0  0  0  0  2  0  0  0  0  0  0
  187.4410  177.7990  139.3980 C   0  0  1  0  0  3  0  0  0  0  0  0
  187.8730  177.4650  138.1120 O   0  0  0  0  0  1  0  0  0  0  0  0
  188.4730  178.6810  140.0910 C   0  0  0  0  0  2  0  0  0  0  0  0
  189.5770  177.8560  140.7350 C   0  0  0  0  0  2  0  0  0  0  0  0
  189.5130  177.9900  142.1350 O   0  0  0  0  0  0  0  0  0  0  0  0
  187.7170  176.6230  142.9900 C   0  0  0  0  0  1  0  0  0  0  0  0
  189.5570  175.7370  141.8130 O   0  0  0  0  0  1  0  0  0  0  0  0
  189.2240  176.7370  142.7300 C   0  0  1  0  0  0  0  0  0  0  0  0
  190.0470  176.5080  144.0390 C   0  0  1  0  0  3  0  0  0  0  0  0
  191.5500  176.3460  143.7610 C   0  0  0  0  0  2  0  0  0  0  0  0
  192.0700  175.2540  144.4590 O   0  0  0  0  0  1  0  0  0  0  0  0
  189.8060  177.5690  145.1460 C   0  0  2  0  0  3  0  0  0  0  0  0
  190.8140  179.6500  144.5930 O   0  0  0  0  0  0  0  0  0  0  0  0
  190.9120  178.5900  145.1930 C   0  0  0  0  0  3  0  0  0  0  0  0
  190.6000  177.1090  147.4100 O   0  0  0  0  0  1  0  0  0  0  0  0
  189.5200  176.9590  146.5340 C   0  0  1  0  0  3  0  0  0  0  0  0
  188.2090  177.4370  147.1750 C   0  0  2  0  0  3  0  0  0  0  0  0
  185.6030  179.7210  146.2260 O   0  0  0  0  0  1  0  0  0  0  0  0
  187.4160  178.2060  146.2150 N   0  0  0  0  0  0  0  0  0  0  0  0
  185.2840  177.6080  147.0940 O   0  0  0  0  0  0  0  0  0  0  0  0
  186.1440  177.5050  145.9950 C   0  0  1  0  0  3  0  0  0  0  0  0
  186.1930  178.6510  146.8940 C   0  0  1  0  0  0  0  0  0  0  0  0
  187.7780  177.7420  149.5180 O   0  0  0  0  0  1  0  0  0  0  0  0
  188.4730  178.2680  148.4270 C   0  0  0  0  0  2  0  0  0  0  0  0
  183.1380  177.0770  140.1140 N   0  0  0  0  0  2  0  0  0  0  0  0
  182.5980  177.0000  138.7530 C   0  0  0  0  0  0  0  0  0  0  0  0
  182.3330  178.2910  138.2840 O   0  0  0  0  0  1  0  0  0  0  0  0
  181.4130  176.2530  138.7450 O   0  0  0  0  0  1  0  0  0  0  0  0
  183.6450  176.3390  137.8380 C   0  0  1  0  0  3  0  0  0  0  0  0
  183.4130  174.0520  138.3440 O   0  0  0  0  0  0  0  0  0  0  0  0
  183.3230  174.9110  137.4830 C   0  0  0  0  0  0  0  0  0  0  0  0
  183.7480  173.5360  135.5800 O   0  0  0  0  0  1  0  0  0  0  0  0
  182.9160  174.5380  136.0850 C   0  0  1  0  0  3  0  0  0  0  0  0
  181.4530  174.1120  136.0070 C   0  0  0  0  0  2  0  0  0  0  0  0
  181.3450  172.7350  135.7930 O   0  0  0  0  0  1  0  0  0  0  0  0
  183.0530  177.7480  136.0090 O   0  0  0  0  0  0  0  0  0  0  0  0
  183.9770  177.1460  136.6190 C   0  0  0  0  0  0  0  0  0  0  0  0
  185.3030  177.2640  136.1950 O   0  0  0  0  0  0  0  0  0  0  0  0
  186.8910  178.1070  134.5950 C   0  0  1  0  0  3  0  0  0  0  0  0
  185.6500  177.3180  134.8160 C   0  0  1  0  0  3  0  0  0  0  0  0
  187.4270  178.5860  135.7770 F   0  0  0  0  0  0  0  0  0  0  0  0
  186.9000  176.7000  134.6240 O   0  0  0  0  0  0  0  0  0  0  0  0
  2 33  1  1  0  0  0
  2  6  1  0  0  0  0
  2  3  1  0  0  0  0
  3  5  1  0  0  0  0
  4  1  1  0  0  0  0
  5  1  1  0  0  0  0
  5  7  1  0  0  0  0
  6  8  1  6  0  0  0
  6  4  1  0  0  0  0
  8  9  1  0  0  0  0
  9 10  1  6  0  0  0
  9 11  1  0  0  0  0
 11 12  1  0  0  0  0
 12 13  1  0  0  0  0
 13 16  1  0  0  0  0
 15 16  1  0  0  0  0
 16 14  1  1  0  0  0
 16 17  1  0  0  0  0
 17 18  1  6  0  0  0
 17 20  1  0  0  0  0
 18 19  1  0  0  0  0
 20 22  1  1  0  0  0
 20 24  1  0  0  0  0
 21 22  2  0  0  0  0
 24 25  1  0  0  0  0
 24 23  1  1  0  0  0
 25 32  1  1  0  0  0
 27 30  1  0  0  0  0
 27 25  1  0  0  0  0
 29 27  1  0  0  0  0
 29 30  1  0  0  0  0
 29 28  1  1  0  0  0
 30 26  1  6  0  0  0
 30 28  1  0  0  0  0
 32 31  1  0  0  0  0
 34 33  1  0  0  0  0
 35 34  1  0  0  0  0
 36 34  1  0  0  0  0
 37 45  1  6  0  0  0
 37 34  1  0  0  0  0
 39 37  1  0  0  0  0
 39 38  2  0  0  0  0
 41 40  1  1  0  0  0
 41 39  1  0  0  0  0
 42 41  1  0  0  0  0
 43 42  1  0  0  0  0
 44 45  2  0  0  0  0
 46 45  1  0  0  0  0
 47 50  1  0  0  0  0
 47 48  1  0  0  0  0
 47 49  1  1  0  0  0
 48 46  1  1  0  0  0
 50 48  1  0  0  0  0
M  END
>  <MODEL>
8

>  <REMARK>
 VINA RESULT:      -5.0      2.688      9.564
  Name = 
  23 active torsions:
  status: ('A' for Active; 'I' for Inactive)
    1  A    between atoms: N_1  and  C_17
    2  A    between atoms: N_1  and  C_37
    3  A    between atoms: C_2  and  C_37
    4  A    between atoms: C_2  and  C_39
    5  A    between atoms: C_2  and  C_45
    6  A    between atoms: C_4  and  N_8
    7  A    between atoms: C_4  and  C_15
    8  A    between atoms: C_4  and  C_50
    9  A    between atoms: C_9  and  C_33
   10  A    between atoms: C_10  and  C_22
   11  A    between atoms: C_10  and  C_39
   12  A    between atoms: C_11  and  C_20
   13  A    between atoms: C_11  and  C_47
   14  A    between atoms: C_12  and  C_15
   15  A    between atoms: C_12  and  C_33
   16  A    between atoms: C_12  and  C_40
   17  A    between atoms: C_18  and  O_25
   18  A    between atoms: C_20  and  C_21
   19  A    between atoms: C_21  and  O_27
   20  A    between atoms: O_25  and  C_45
   21  A    between atoms: O_27  and  C_38
   22  A    between atoms: C_33  and  C_38
   23  A    between atoms: C_36  and  C_47
                            x       y       z     vdW  Elec       q    Type
                         _______ _______ _______ _____ _____    ______ ____

>  <TORSDO>
F 23

$$$$
=
 OpenBabel11062414293D

 50 53  0  0  1  0  0  0  0  0999 V2000
  182.0360  178.7760  143.9850 C   0  0  0  0  0  2  0  0  0  0  0  0
  181.3760  178.7320  141.1910 C   0  0  1  0  0  3  0  0  0  0  0  0
  180.5460  179.1210  142.2680 O   0  0  0  0  0  0  0  0  0  0  0  0
  183.1050  179.2100  142.9760 C   0  0  0  0  0  2  0  0  0  0  0  0
  180.8280  178.2890  143.3120 N   0  0  0  0  0  0  0  0  0  0  0  0
  182.8500  178.5820  141.6080 C   0  0  2  0  0  3  0  0  0  0  0  0
  179.8130  178.4140  144.1970 O   0  0  0  0  0  1  0  0  0  0  0  0
  183.8100  179.1140  140.5410 C   0  0  0  0  0  2  0  0  0  0  0  0
  185.2660  178.7110  140.7790 C   0  0  1  0  0  3  0  0  0  0  0  0
  186.0420  178.9410  139.6410 O   0  0  0  0  0  1  0  0  0  0  0  0
  185.8500  179.4490  141.9780 C   0  0  0  0  0  2  0  0  0  0  0  0
  187.2160  178.9040  142.3650 C   0  0  0  0  0  2  0  0  0  0  0  0
  187.1550  177.5020  142.4700 O   0  0  0  0  0  0  0  0  0  0  0  0
  187.5900  177.2880  144.8350 C   0  0  0  0  0  1  0  0  0  0  0  0
  188.2420  175.6620  143.2560 O   0  0  0  0  0  1  0  0  0  0  0  0
  188.1090  177.0440  143.4130 C   0  0  1  0  0  0  0  0  0  0  0  0
  189.5080  177.7080  143.1950 C   0  0  1  0  0  3  0  0  0  0  0  0
  190.0990  178.2620  144.5020 C   0  0  0  0  0  2  0  0  0  0  0  0
  190.6280  179.5390  144.3060 O   0  0  0  0  0  1  0  0  0  0  0  0
  190.5410  176.8100  142.4640 C   0  0  2  0  0  3  0  0  0  0  0  0
  191.9610  175.3200  143.6540 O   0  0  0  0  0  0  0  0  0  0  0  0
  191.7160  176.4760  143.3450 C   0  0  0  0  0  3  0  0  0  0  0  0
  192.3720  177.4770  140.9920 O   0  0  0  0  0  1  0  0  0  0  0  0
  190.9820  177.3660  141.0950 C   0  0  1  0  0  3  0  0  0  0  0  0
  190.3910  176.6180  139.8900 C   0  0  2  0  0  3  0  0  0  0  0  0
  191.2450  176.3770  136.4090 O   0  0  0  0  0  1  0  0  0  0  0  0
  191.3110  176.6610  138.7540 N   0  0  0  0  0  0  0  0  0  0  0  0
  190.5950  174.6200  137.7550 O   0  0  0  0  0  0  0  0  0  0  0  0
  191.6560  175.2830  138.3820 C   0  0  1  0  0  3  0  0  0  0  0  0
  190.6530  176.0100  137.6150 C   0  0  1  0  0  0  0  0  0  0  0  0
  189.1370  178.5560  139.2260 O   0  0  0  0  0  1  0  0  0  0  0  0
  189.0330  177.1890  139.4920 C   0  0  0  0  0  2  0  0  0  0  0  0
  180.8900  177.4910  140.5910 N   0  0  0  0  0  2  0  0  0  0  0  0
  180.3720  177.7400  139.2420 C   0  0  0  0  0  0  0  0  0  0  0  0
  180.5210  179.0960  138.9300 O   0  0  0  0  0  1  0  0  0  0  0  0
  179.0160  177.3960  139.1730 O   0  0  0  0  0  1  0  0  0  0  0  0
  181.1810  176.9030  138.2350 C   0  0  1  0  0  3  0  0  0  0  0  0
  182.3800  178.8540  137.6920 O   0  0  0  0  0  0  0  0  0  0  0  0
  182.0760  177.7240  137.3460 C   0  0  0  0  0  0  0  0  0  0  0  0
  182.2960  178.0620  134.9940 O   0  0  0  0  0  1  0  0  0  0  0  0
  182.5760  177.1770  136.0380 C   0  0  1  0  0  3  0  0  0  0  0  0
  184.0650  176.8510  136.0830 C   0  0  0  0  0  2  0  0  0  0  0  0
  184.3720  175.8010  135.2140 O   0  0  0  0  0  1  0  0  0  0  0  0
  183.0380  175.9800  139.4100 O   0  0  0  0  0  0  0  0  0  0  0  0
  181.9260  175.7610  138.8590 C   0  0  0  0  0  0  0  0  0  0  0  0
  181.3680  174.4800  138.8670 O   0  0  0  0  0  0  0  0  0  0  0  0
  180.0340  172.9280  137.6010 C   0  0  1  0  0  3  0  0  0  0  0  0
  180.0740  174.2190  138.3380 C   0  0  1  0  0  3  0  0  0  0  0  0
  181.2540  172.2760  137.6180 F   0  0  0  0  0  0  0  0  0  0  0  0
  179.5590  173.0460  138.9210 O   0  0  0  0  0  0  0  0  0  0  0  0
  2 33  1  1  0  0  0
  2  6  1  0  0  0  0
  2  3  1  0  0  0  0
  3  5  1  0  0  0  0
  4  1  1  0  0  0  0
  5  1  1  0  0  0  0
  5  7  1  0  0  0  0
  6  8  1  6  0  0  0
  6  4  1  0  0  0  0
  8  9  1  0  0  0  0
  9 10  1  6  0  0  0
  9 11  1  0  0  0  0
 11 12  1  0  0  0  0
 12 13  1  0  0  0  0
 13 16  1  0  0  0  0
 15 16  1  0  0  0  0
 16 14  1  1  0  0  0
 17 16  1  0  0  0  0
 17 18  1  1  0  0  0
 19 18  1  0  0  0  0
 20 17  1  0  0  0  0
 20 22  1  1  0  0  0
 22 21  2  0  0  0  0
 24 23  1  1  0  0  0
 24 20  1  0  0  0  0
 25 32  1  6  0  0  0
 25 24  1  0  0  0  0
 27 25  1  0  0  0  0
 29 28  1  1  0  0  0
 29 27  1  0  0  0  0
 30 26  1  6  0  0  0
 30 28  1  0  0  0  0
 30 29  1  0  0  0  0
 30 27  1  0  0  0  0
 31 32  1  0  0  0  0
 34 33  1  0  0  0  0
 35 34  1  0  0  0  0
 36 34  1  0  0  0  0
 37 39  1  1  0  0  0
 37 45  1  0  0  0  0
 37 34  1  0  0  0  0
 39 38  2  0  0  0  0
 41 40  1  6  0  0  0
 41 42  1  0  0  0  0
 41 39  1  0  0  0  0
 43 42  1  0  0  0  0
 45 46  1  0  0  0  0
 45 44  2  0  0  0  0
 47 49  1  1  0  0  0
 47 48  1  0  0  0  0
 47 50  1  0  0  0  0
 48 46  1  1  0  0  0
 48 50  1  0  0  0  0
M  END
>  <MODEL>
9

>  <REMARK>
 VINA RESULT:      -5.0      3.298      8.753
  Name = 
  23 active torsions:
  status: ('A' for Active; 'I' for Inactive)
    1  A    between atoms: N_1  and  C_17
    2  A    between atoms: N_1  and  C_37
    3  A    between atoms: C_2  and  C_37
    4  A    between atoms: C_2  and  C_39
    5  A    between atoms: C_2  and  C_45
    6  A    between atoms: C_4  and  N_8
    7  A    between atoms: C_4  and  C_15
    8  A    between atoms: C_4  and  C_50
    9  A    between atoms: C_9  and  C_33
   10  A    between atoms: C_10  and  C_22
   11  A    between atoms: C_10  and  C_39
   12  A    between atoms: C_11  and  C_20
   13  A    between atoms: C_11  and  C_47
   14  A    between atoms: C_12  and  C_15
   15  A    between atoms: C_12  and  C_33
   16  A    between atoms: C_12  and  C_40
   17  A    between atoms: C_18  and  O_25
   18  A    between atoms: C_20  and  C_21
   19  A    between atoms: C_21  and  O_27
   20  A    between atoms: O_25  and  C_45
   21  A    between atoms: O_27  and  C_38
   22  A    between atoms: C_33  and  C_38
   23  A    between atoms: C_36  and  C_47
                            x       y       z     vdW  Elec       q    Type
                         _______ _______ _______ _____ _____    ______ ____

>  <TORSDO>
F 23

$$$$
