=
 OpenBabel11062413383D

 42 46  0  0  1  0  0  0  0  0999 V2000
  185.3590  178.1180  144.4380 C   0  0  0  0  0  0  0  0  0  0  0  0
  185.6410  179.1200  140.8840 C   0  0  0  0  0  2  0  0  0  0  0  0
  186.7810  177.7750  142.4780 N   0  0  0  0  0  0  0  0  0  0  0  0
  184.3630  178.7090  145.0440 N   0  0  0  0  0  0  0  0  0  0  0  0
  182.6530  178.9550  143.2130 C   0  0  0  0  0  3  0  0  0  0  0  0
  183.2720  179.5150  144.4680 C   0  0  0  0  0  2  0  0  0  0  0  0
  187.8010  177.1530  143.2870 C   0  0  0  0  0  0  0  0  0  0  0  0
  185.4160  177.9040  142.9490 C   0  0  2  0  0  3  0  0  0  0  0  0
  184.8260  179.0370  142.1650 C   0  0  2  0  0  3  0  0  0  0  0  0
  186.4000  177.5260  145.2200 N   0  0  0  0  0  2  0  0  0  0  0  0
  187.0030  178.5480  141.2670 C   0  0  0  0  0  2  0  0  0  0  0  0
  183.3430  178.8000  142.0760 C   0  0  0  0  0  0  0  0  0  0  0  0
  187.5950  177.0250  144.6030 C   0  0  0  0  0  3  0  0  0  0  0  0
  182.8720  176.8440  140.5640 C   0  0  0  0  0  3  0  0  0  0  0  0
  182.6740  178.1920  140.8960 C   0  0  0  0  0  0  0  0  0  0  0  0
  181.3700  177.0540  138.6730 C   0  0  0  0  0  0  0  0  0  0  0  0
  182.2260  176.2810  139.4620 C   0  0  0  0  0  3  0  0  0  0  0  0
  181.1460  178.4030  138.9980 C   0  0  0  0  0  0  0  0  0  0  0  0
  181.8000  178.9590  140.1090 C   0  0  0  0  0  3  0  0  0  0  0  0
  180.4490  180.5650  138.0100 C   0  0  0  0  0  1  0  0  0  0  0  0
  180.2770  179.1690  138.2120 O   0  0  0  0  0  0  0  0  0  0  0  0
  180.6850  176.4240  137.5070 C   0  0  0  0  0  2  0  0  0  0  0  0
  181.6850  175.6370  136.6760 C   0  0  0  0  0  2  0  0  0  0  0  0
  182.6010  176.5830  135.9190 C   0  0  0  0  0  2  0  0  0  0  0  0
  186.1270  176.1290  137.1310 O   0  0  0  0  0  1  0  0  0  0  0  0
  184.9870  176.8010  136.6890 C   0  0  0  0  0  0  0  0  0  0  0  0
  184.9400  177.0460  135.2050 C   0  0  0  0  0  2  0  0  0  0  0  0
  184.0090  176.0100  135.8410 C   0  0  2  0  0  3  0  0  0  0  0  0
  184.5150  177.8540  137.4780 O   0  0  0  0  0  1  0  0  0  0  0  0
  189.0040  176.5920  142.7360 N   0  0  0  0  0  2  0  0  0  0  0  0
  190.0860  177.2790  142.0290 C   0  0  1  0  0  3  0  0  0  0  0  0
  191.4130  177.2280  142.8010 C   0  0  1  0  0  3  0  0  0  0  0  0
  192.4970  177.4760  141.9580 O   0  0  0  0  0  1  0  0  0  0  0  0
  191.6090  177.7340  145.3180 N   0  0  0  0  0  2  0  0  0  0  0  0
  191.3200  179.4080  143.7380 O   0  0  0  0  0  0  0  0  0  0  0  0
  191.4430  178.1770  143.9650 C   0  0  0  0  0  0  0  0  0  0  0  0
  191.7170  176.3390  145.7220 C   0  0  0  0  0  2  0  0  0  0  0  0
  192.0900  176.2380  147.1620 C   0  0  0  0  0  0  0  0  0  0  0  0
  192.9550  175.2360  147.5830 O   0  0  0  0  0  0  0  0  0  0  0  0
  191.6510  177.0760  147.9920 O   0  0  0  0  0  1  0  0  0  0  0  0
  190.0700  177.8230  139.6990 O   0  0  0  0  0  1  0  0  0  0  0  0
  190.1990  176.7660  140.6000 C   0  0  0  0  0  2  0  0  0  0  0  0
  1  4  2  0  0  0  0
  1 10  1  0  0  0  0
  2 11  1  0  0  0  0
  3  8  1  0  0  0  0
  3  7  1  0  0  0  0
  5  6  1  0  0  0  0
  6  4  1  0  0  0  0
  7 13  2  0  0  0  0
  8  1  1  1  0  0  0
  9  2  1  6  0  0  0
  9  8  1  0  0  0  0
 11  3  1  0  0  0  0
 12  9  1  0  0  0  0
 12  5  2  0  0  0  0
 13 10  1  0  0  0  0
 14 15  1  0  0  0  0
 15 12  1  0  0  0  0
 16 18  2  0  0  0  0
 16 17  1  0  0  0  0
 17 14  2  0  0  0  0
 18 19  1  0  0  0  0
 19 15  2  0  0  0  0
 20 21  1  0  0  0  0
 21 18  1  0  0  0  0
 22 16  1  0  0  0  0
 23 22  1  0  0  0  0
 24 23  1  0  0  0  0
 26 25  1  0  0  0  0
 26 29  1  0  0  0  0
 27 28  1  0  0  0  0
 27 26  1  0  0  0  0
 28 24  1  1  0  0  0
 28 26  1  0  0  0  0
 30  7  1  0  0  0  0
 31 42  1  6  0  0  0
 31 30  1  0  0  0  0
 31 32  1  0  0  0  0
 32 33  1  6  0  0  0
 32 36  1  0  0  0  0
 34 37  1  0  0  0  0
 35 36  2  0  0  0  0
 36 34  1  0  0  0  0
 37 38  1  0  0  0  0
 38 39  2  0  0  0  0
 38 40  1  0  0  0  0
 41 42  1  0  0  0  0
M  END
>  <MODEL>
1

>  <REMARK>
 VINA RESULT:      -7.3      0.000      0.000
  Name = 
  13 active torsions:
  status: ('A' for Active; 'I' for Inactive)
    1  A    between atoms: N_3  and  C_7
    2  A    between atoms: C_4  and  C_19
    3  A    between atoms: C_4  and  C_33
    4  A    between atoms: C_7  and  C_11
    5  A    between atoms: CA_12  and  C_15
    6  A    between atoms: CA_12  and  C_20
    7  A    between atoms: CA_12  and  N_22
    8  A    between atoms: C_15  and  C_31
    9  A    between atoms: C_16  and  N_22
   10  A    between atoms: C_17  and  C_39
   11  A    between atoms: C_27  and  O_38
   12  A    between atoms: C_28  and  C_33
   13  A    between atoms: C_28  and  C_36
                            x       y       z     vdW  Elec       q    Type
                         _______ _______ _______ _____ _____    ______ ____

>  <TORSDO>
F 13

$$$$
=
 OpenBabel11062413383D

 42 46  0  0  1  0  0  0  0  0999 V2000
  186.7620  177.6210  144.7760 C   0  0  0  0  0  0  0  0  0  0  0  0
  185.9250  179.4170  141.6470 C   0  0  0  0  0  2  0  0  0  0  0  0
  187.3540  177.6750  142.4040 N   0  0  0  0  0  0  0  0  0  0  0  0
  186.1290  178.1050  145.8130 N   0  0  0  0  0  0  0  0  0  0  0  0
  183.9390  178.8670  144.8320 C   0  0  0  0  0  3  0  0  0  0  0  0
  185.0250  179.0810  145.8540 C   0  0  0  0  0  2  0  0  0  0  0  0
  188.4970  176.8260  142.6370 C   0  0  0  0  0  0  0  0  0  0  0  0
  186.2690  177.7620  143.3610 C   0  0  2  0  0  3  0  0  0  0  0  0
  185.6020  179.0770  143.0950 C   0  0  2  0  0  3  0  0  0  0  0  0
  187.9200  176.8070  144.9830 N   0  0  0  0  0  2  0  0  0  0  0  0
  187.2440  178.6990  141.3780 C   0  0  0  0  0  2  0  0  0  0  0  0
  184.1630  178.9470  143.5130 C   0  0  0  0  0  0  0  0  0  0  0  0
  188.7470  176.4030  143.8820 C   0  0  0  0  0  3  0  0  0  0  0  0
  183.2810  178.0370  141.3390 C   0  0  0  0  0  3  0  0  0  0  0  0
  183.0500  178.6710  142.5680 C   0  0  0  0  0  0  0  0  0  0  0  0
  180.9190  178.1300  140.8070 C   0  0  0  0  0  0  0  0  0  0  0  0
  182.2260  177.7700  140.4660 C   0  0  0  0  0  3  0  0  0  0  0  0
  180.6630  178.7530  142.0400 C   0  0  0  0  0  0  0  0  0  0  0  0
  181.7330  179.0160  142.9110 C   0  0  0  0  0  3  0  0  0  0  0  0
  178.9310  179.3010  143.7240 C   0  0  0  0  0  1  0  0  0  0  0  0
  179.3500  179.1000  142.3810 O   0  0  0  0  0  0  0  0  0  0  0  0
  179.8080  177.8240  139.8590 C   0  0  0  0  0  2  0  0  0  0  0  0
  180.3010  177.9270  138.4240 C   0  0  0  0  0  2  0  0  0  0  0  0
  179.9630  179.2910  137.8480 C   0  0  0  0  0  2  0  0  0  0  0  0
  182.7080  181.6800  138.7750 O   0  0  0  0  0  1  0  0  0  0  0  0
  181.4070  181.2240  138.5600 C   0  0  0  0  0  0  0  0  0  0  0  0
  180.8620  181.5160  137.1880 C   0  0  0  0  0  2  0  0  0  0  0  0
  181.2340  180.0830  137.5770 C   0  0  2  0  0  3  0  0  0  0  0  0
  180.4910  181.3740  139.6040 O   0  0  0  0  0  1  0  0  0  0  0  0
  189.3460  176.3480  141.5800 N   0  0  0  0  0  2  0  0  0  0  0  0
  190.7150  176.7550  141.2600 C   0  0  1  0  0  3  0  0  0  0  0  0
  190.8720  177.1720  139.7890 C   0  0  1  0  0  3  0  0  0  0  0  0
  192.2150  177.3560  139.4580 O   0  0  0  0  0  1  0  0  0  0  0  0
  189.0190  176.4760  138.1430 N   0  0  0  0  0  2  0  0  0  0  0  0
  190.8110  175.0910  138.6480 O   0  0  0  0  0  0  0  0  0  0  0  0
  190.2400  176.1960  138.8390 C   0  0  0  0  0  0  0  0  0  0  0  0
  188.2360  177.6930  138.3080 C   0  0  0  0  0  2  0  0  0  0  0  0
  188.3310  178.5470  137.0890 C   0  0  0  0  0  0  0  0  0  0  0  0
  189.3240  178.3020  136.1500 O   0  0  0  0  0  0  0  0  0  0  0  0
  187.4950  179.4670  136.8920 O   0  0  0  0  0  1  0  0  0  0  0  0
  191.9630  177.2170  143.2490 O   0  0  0  0  0  1  0  0  0  0  0  0
  191.2010  177.8120  142.2420 C   0  0  0  0  0  2  0  0  0  0  0  0
  1 10  1  0  0  0  0
  1  4  2  0  0  0  0
  3  7  1  0  0  0  0
  3  8  1  0  0  0  0
  4  6  1  0  0  0  0
  5  6  1  0  0  0  0
  7 13  2  0  0  0  0
  8  1  1  1  0  0  0
  9  2  1  6  0  0  0
  9  8  1  0  0  0  0
  9 12  1  0  0  0  0
 11  2  1  0  0  0  0
 11  3  1  0  0  0  0
 12  5  2  0  0  0  0
 13 10  1  0  0  0  0
 14 15  1  0  0  0  0
 15 19  2  0  0  0  0
 15 12  1  0  0  0  0
 16 18  2  0  0  0  0
 17 16  1  0  0  0  0
 17 14  2  0  0  0  0
 18 21  1  0  0  0  0
 18 19  1  0  0  0  0
 21 20  1  0  0  0  0
 22 16  1  0  0  0  0
 23 22  1  0  0  0  0
 24 23  1  0  0  0  0
 26 25  1  0  0  0  0
 26 29  1  0  0  0  0
 27 28  1  0  0  0  0
 27 26  1  0  0  0  0
 28 24  1  1  0  0  0
 28 26  1  0  0  0  0
 30  7  1  0  0  0  0
 31 30  1  0  0  0  0
 31 42  1  1  0  0  0
 32 33  1  6  0  0  0
 32 31  1  0  0  0  0
 34 37  1  0  0  0  0
 34 36  1  0  0  0  0
 35 36  2  0  0  0  0
 36 32  1  0  0  0  0
 38 37  1  0  0  0  0
 39 38  2  0  0  0  0
 40 38  1  0  0  0  0
 42 41  1  0  0  0  0
M  END
>  <MODEL>
2

>  <REMARK>
 VINA RESULT:      -7.2      2.461      4.877
  Name = 
  13 active torsions:
  status: ('A' for Active; 'I' for Inactive)
    1  A    between atoms: N_3  and  C_7
    2  A    between atoms: C_4  and  C_19
    3  A    between atoms: C_4  and  C_33
    4  A    between atoms: C_7  and  C_11
    5  A    between atoms: CA_12  and  C_15
    6  A    between atoms: CA_12  and  C_20
    7  A    between atoms: CA_12  and  N_22
    8  A    between atoms: C_15  and  C_31
    9  A    between atoms: C_16  and  N_22
   10  A    between atoms: C_17  and  C_39
   11  A    between atoms: C_27  and  O_38
   12  A    between atoms: C_28  and  C_33
   13  A    between atoms: C_28  and  C_36
                            x       y       z     vdW  Elec       q    Type
                         _______ _______ _______ _____ _____    ______ ____

>  <TORSDO>
F 13

$$$$
=
 OpenBabel11062413383D

 42 46  0  0  1  0  0  0  0  0999 V2000
  189.0300  175.2580  136.5710 C   0  0  0  0  0  0  0  0  0  0  0  0
  188.8370  178.6180  138.1160 C   0  0  0  0  0  2  0  0  0  0  0  0
  187.3960  176.9670  137.1940 N   0  0  1  0  0  0  0  0  0  0  0  0
  190.2620  174.8450  136.4290 N   0  0  0  0  0  0  0  0  0  0  0  0
  191.4320  175.8670  138.4110 C   0  0  0  0  0  3  0  0  0  0  0  0
  191.5040  175.4250  136.9720 C   0  0  0  0  0  2  0  0  0  0  0  0
  186.3610  176.2960  136.4460 C   0  0  1  0  0  3  0  0  0  0  0  0
  188.6080  176.2800  137.5930 C   0  0  2  0  0  3  0  0  0  0  0  0
  189.6290  177.3550  137.8110 C   0  0  2  0  0  3  0  0  0  0  0  0
  187.9920  174.6310  135.8110 N   0  0  0  0  0  0  0  0  0  0  0  0
  187.4970  178.4000  137.4180 C   0  0  0  0  0  2  0  0  0  0  0  0
  190.6140  176.8440  138.8250 C   0  0  0  0  0  0  0  0  0  0  0  0
  186.6600  175.1640  135.7990 C   0  0  0  0  0  3  0  0  0  0  0  0
  191.7370  177.3890  141.0100 C   0  0  0  0  0  3  0  0  0  0  0  0
  190.5640  177.1870  140.2700 C   0  0  0  0  0  0  0  0  0  0  0  0
  190.4420  177.8670  143.0010 C   0  0  0  0  0  0  0  0  0  0  0  0
  191.6770  177.7250  142.3640 C   0  0  0  0  0  3  0  0  0  0  0  0
  189.2530  177.6840  142.2750 C   0  0  0  0  0  0  0  0  0  0  0  0
  189.3260  177.3470  140.9140 C   0  0  0  0  0  3  0  0  0  0  0  0
  187.3300  176.7630  143.5370 C   0  0  0  0  0  1  0  0  0  0  0  0
  188.0180  177.8400  142.9170 O   0  0  0  0  0  0  0  0  0  0  0  0
  190.4060  178.2360  144.4470 C   0  0  0  0  0  2  0  0  0  0  0  0
  191.2690  177.2790  145.2530 C   0  0  0  0  0  2  0  0  0  0  0  0
  190.6510  177.0340  146.6180 C   0  0  0  0  0  2  0  0  0  0  0  0
  187.5120  178.7540  147.7560 O   0  0  0  0  0  1  0  0  0  0  0  0
  188.6760  177.9910  147.8500 C   0  0  0  0  0  0  0  0  0  0  0  0
  188.4670  176.5090  147.6890 C   0  0  0  0  0  2  0  0  0  0  0  0
  189.1550  177.3110  146.5810 C   0  0  2  0  0  3  0  0  0  0  0  0
  189.6070  178.3540  148.8260 O   0  0  0  0  0  1  0  0  0  0  0  0
  184.9960  176.7470  136.4200 N   0  0  0  0  0  2  0  0  0  0  0  0
  183.8260  176.1410  137.0560 C   0  0  1  0  0  3  0  0  0  0  0  0
  183.0110  177.1570  137.8710 C   0  0  1  0  0  3  0  0  0  0  0  0
  181.7570  177.3730  137.2970 O   0  0  0  0  0  1  0  0  0  0  0  0
  183.2050  177.6180  140.3950 N   0  0  0  0  0  2  0  0  0  0  0  0
  182.3900  175.6120  139.5640 O   0  0  0  0  0  0  0  0  0  0  0  0
  182.8530  176.7540  139.3080 C   0  0  0  0  0  0  0  0  0  0  0  0
  183.7920  178.9430  140.2400 C   0  0  0  0  0  2  0  0  0  0  0  0
  185.0180  179.0750  141.0790 C   0  0  0  0  0  0  0  0  0  0  0  0
  184.9030  179.1780  142.4590 O   0  0  0  0  0  1  0  0  0  0  0  0
  186.1580  179.0600  140.5440 O   0  0  0  0  0  0  0  0  0  0  0  0
  182.9190  174.0330  136.3750 O   0  0  0  0  0  1  0  0  0  0  0  0
  182.9950  175.3830  136.0300 C   0  0  0  0  0  2  0  0  0  0  0  0
  3 11  1  6  0  0  0
  3  8  1  0  0  0  0
  4  1  2  0  0  0  0
  4  6  1  0  0  0  0
  5 12  2  0  0  0  0
  6  5  1  0  0  0  0
  7 30  1  1  0  0  0
  7  3  1  0  0  0  0
  8  1  1  6  0  0  0
  8  9  1  0  0  0  0
  9  2  1  1  0  0  0
  9 12  1  0  0  0  0
 10  1  1  0  0  0  0
 11  2  1  0  0  0  0
 12 15  1  0  0  0  0
 13 10  2  0  0  0  0
 13  7  1  0  0  0  0
 14 17  1  0  0  0  0
 15 19  1  0  0  0  0
 15 14  2  0  0  0  0
 16 22  1  0  0  0  0
 17 16  2  0  0  0  0
 18 21  1  0  0  0  0
 18 16  1  0  0  0  0
 19 18  2  0  0  0  0
 21 20  1  0  0  0  0
 22 23  1  0  0  0  0
 23 24  1  0  0  0  0
 25 26  1  0  0  0  0
 26 29  1  0  0  0  0
 27 26  1  0  0  0  0
 28 24  1  1  0  0  0
 28 27  1  0  0  0  0
 28 26  1  0  0  0  0
 30 31  1  0  0  0  0
 31 42  1  6  0  0  0
 31 32  1  0  0  0  0
 32 33  1  6  0  0  0
 32 36  1  0  0  0  0
 36 35  2  0  0  0  0
 36 34  1  0  0  0  0
 37 34  1  0  0  0  0
 37 38  1  0  0  0  0
 38 39  1  0  0  0  0
 40 38  2  0  0  0  0
 42 41  1  0  0  0  0
M  END
>  <MODEL>
3

>  <REMARK>
 VINA RESULT:      -7.2      3.266      9.738
  Name = 
  13 active torsions:
  status: ('A' for Active; 'I' for Inactive)
    1  A    between atoms: N_3  and  C_7
    2  A    between atoms: C_4  and  C_19
    3  A    between atoms: C_4  and  C_33
    4  A    between atoms: C_7  and  C_11
    5  A    between atoms: CA_12  and  C_15
    6  A    between atoms: CA_12  and  C_20
    7  A    between atoms: CA_12  and  N_22
    8  A    between atoms: C_15  and  C_31
    9  A    between atoms: C_16  and  N_22
   10  A    between atoms: C_17  and  C_39
   11  A    between atoms: C_27  and  O_38
   12  A    between atoms: C_28  and  C_33
   13  A    between atoms: C_28  and  C_36
                            x       y       z     vdW  Elec       q    Type
                         _______ _______ _______ _____ _____    ______ ____

>  <TORSDO>
F 13

$$$$
=
 OpenBabel11062413383D

 42 46  0  0  1  0  0  0  0  0999 V2000
  185.7390  178.0190  144.6270 C   0  0  0  0  0  0  0  0  0  0  0  0
  185.5390  179.1740  141.1140 C   0  0  0  0  0  2  0  0  0  0  0  0
  186.8750  177.7580  142.4770 N   0  0  0  0  0  0  0  0  0  0  0  0
  184.8420  178.5860  145.3900 N   0  0  0  0  0  0  0  0  0  0  0  0
  182.8970  178.9170  143.8240 C   0  0  0  0  0  3  0  0  0  0  0  0
  183.6880  179.4200  145.0050 C   0  0  0  0  0  2  0  0  0  0  0  0
  187.9900  177.0980  143.1110 C   0  0  0  0  0  0  0  0  0  0  0  0
  185.5890  177.8700  143.1370 C   0  0  2  0  0  3  0  0  0  0  0  0
  184.9060  179.0380  142.4910 C   0  0  2  0  0  3  0  0  0  0  0  0
  186.8730  177.3900  145.2330 N   0  0  0  0  0  2  0  0  0  0  0  0
  186.9350  178.5820  141.2810 C   0  0  0  0  0  2  0  0  0  0  0  0
  183.4240  178.8090  142.5970 C   0  0  0  0  0  0  0  0  0  0  0  0
  187.9670  176.9140  144.4360 C   0  0  0  0  0  3  0  0  0  0  0  0
  181.2770  178.6920  141.2890 C   0  0  0  0  0  3  0  0  0  0  0  0
  182.5930  178.2550  141.4960 C   0  0  0  0  0  0  0  0  0  0  0  0
  181.0490  177.2140  139.3820 C   0  0  0  0  0  0  0  0  0  0  0  0
  180.5120  178.1750  140.2420 C   0  0  0  0  0  3  0  0  0  0  0  0
  182.3710  176.7730  139.5620 C   0  0  0  0  0  0  0  0  0  0  0  0
  183.1320  177.3000  140.6190 C   0  0  0  0  0  3  0  0  0  0  0  0
  183.8370  176.1470  137.6660 C   0  0  0  0  0  1  0  0  0  0  0  0
  182.9080  175.8190  138.6900 O   0  0  0  0  0  0  0  0  0  0  0  0
  180.2120  176.6860  138.2660 C   0  0  0  0  0  2  0  0  0  0  0  0
  179.4530  175.4500  138.7200 C   0  0  0  0  0  2  0  0  0  0  0  0
  179.3230  174.4600  137.5750 C   0  0  0  0  0  2  0  0  0  0  0  0
  182.5670  172.6470  137.0370 O   0  0  0  0  0  1  0  0  0  0  0  0
  181.3710  173.2840  136.7070 C   0  0  0  0  0  0  0  0  0  0  0  0
  180.1920  172.3610  136.5590 C   0  0  0  0  0  2  0  0  0  0  0  0
  180.2860  173.2970  137.7670 C   0  0  2  0  0  3  0  0  0  0  0  0
  181.4300  174.3220  135.7740 O   0  0  0  0  0  1  0  0  0  0  0  0
  189.1010  176.5580  142.3750 N   0  0  0  0  0  2  0  0  0  0  0  0
  190.2070  177.2770  141.7410 C   0  0  1  0  0  3  0  0  0  0  0  0
  191.5030  177.1980  142.5610 C   0  0  1  0  0  3  0  0  0  0  0  0
  192.6230  177.4140  141.7560 O   0  0  0  0  0  1  0  0  0  0  0  0
  191.6690  177.7170  145.0760 N   0  0  0  0  0  2  0  0  0  0  0  0
  191.3880  179.3820  143.4850 O   0  0  0  0  0  0  0  0  0  0  0  0
  191.5150  178.1520  143.7200 C   0  0  0  0  0  0  0  0  0  0  0  0
  191.7800  176.3240  145.4890 C   0  0  0  0  0  2  0  0  0  0  0  0
  191.6970  176.2090  146.9730 C   0  0  0  0  0  0  0  0  0  0  0  0
  190.6050  176.7390  147.6470 O   0  0  0  0  0  1  0  0  0  0  0  0
  192.5960  175.6040  147.6140 O   0  0  0  0  0  0  0  0  0  0  0  0
  189.9150  177.8140  139.4260 O   0  0  0  0  0  1  0  0  0  0  0  0
  190.3770  176.8250  140.2970 C   0  0  0  0  0  2  0  0  0  0  0  0
  1 10  1  0  0  0  0
  1  4  2  0  0  0  0
  2 11  1  0  0  0  0
  3  7  1  0  0  0  0
  3  8  1  0  0  0  0
  5  6  1  0  0  0  0
  6  4  1  0  0  0  0
  7 13  2  0  0  0  0
  8  1  1  1  0  0  0
  9  2  1  6  0  0  0
  9 12  1  0  0  0  0
  9  8  1  0  0  0  0
 11  3  1  0  0  0  0
 12  5  2  0  0  0  0
 13 10  1  0  0  0  0
 14 15  1  0  0  0  0
 15 12  1  0  0  0  0
 16 18  2  0  0  0  0
 16 17  1  0  0  0  0
 17 14  2  0  0  0  0
 18 19  1  0  0  0  0
 19 15  2  0  0  0  0
 20 21  1  0  0  0  0
 21 18  1  0  0  0  0
 22 23  1  0  0  0  0
 22 16  1  0  0  0  0
 24 23  1  0  0  0  0
 26 25  1  0  0  0  0
 26 28  1  0  0  0  0
 27 26  1  0  0  0  0
 27 28  1  0  0  0  0
 28 24  1  6  0  0  0
 29 26  1  0  0  0  0
 30  7  1  0  0  0  0
 31 42  1  6  0  0  0
 31 30  1  0  0  0  0
 31 32  1  0  0  0  0
 32 33  1  6  0  0  0
 32 36  1  0  0  0  0
 34 37  1  0  0  0  0
 35 36  2  0  0  0  0
 36 34  1  0  0  0  0
 37 38  1  0  0  0  0
 38 40  2  0  0  0  0
 38 39  1  0  0  0  0
 41 42  1  0  0  0  0
M  END
>  <MODEL>
4

>  <REMARK>
 VINA RESULT:      -7.2      1.609      2.499
  Name = 
  13 active torsions:
  status: ('A' for Active; 'I' for Inactive)
    1  A    between atoms: N_3  and  C_7
    2  A    between atoms: C_4  and  C_19
    3  A    between atoms: C_4  and  C_33
    4  A    between atoms: C_7  and  C_11
    5  A    between atoms: CA_12  and  C_15
    6  A    between atoms: CA_12  and  C_20
    7  A    between atoms: CA_12  and  N_22
    8  A    between atoms: C_15  and  C_31
    9  A    between atoms: C_16  and  N_22
   10  A    between atoms: C_17  and  C_39
   11  A    between atoms: C_27  and  O_38
   12  A    between atoms: C_28  and  C_33
   13  A    between atoms: C_28  and  C_36
                            x       y       z     vdW  Elec       q    Type
                         _______ _______ _______ _____ _____    ______ ____

>  <TORSDO>
F 13

$$$$
=
 OpenBabel11062413383D

 42 46  0  0  1  0  0  0  0  0999 V2000
  186.7290  177.6140  144.9490 C   0  0  0  0  0  0  0  0  0  0  0  0
  185.5670  179.6160  142.0590 C   0  0  0  0  0  2  0  0  0  0  0  0
  187.0950  177.8610  142.5440 N   0  0  0  0  0  0  0  0  0  0  0  0
  186.1870  178.0010  146.0730 N   0  0  0  0  0  0  0  0  0  0  0  0
  183.8990  178.7750  145.3600 C   0  0  0  0  0  3  0  0  0  0  0  0
  185.0720  178.9410  146.2920 C   0  0  0  0  0  2  0  0  0  0  0  0
  188.2720  177.0290  142.6050 C   0  0  0  0  0  0  0  0  0  0  0  0
  186.1030  177.8470  143.6000 C   0  0  2  0  0  3  0  0  0  0  0  0
  185.3880  179.1600  143.4990 C   0  0  2  0  0  3  0  0  0  0  0  0
  187.9180  176.8170  144.9850 N   0  0  0  0  0  2  0  0  0  0  0  0
  186.8690  178.9560  141.6140 C   0  0  0  0  0  2  0  0  0  0  0  0
  183.9970  178.9600  144.0360 C   0  0  0  0  0  0  0  0  0  0  0  0
  188.6450  176.5200  143.7850 C   0  0  0  0  0  3  0  0  0  0  0  0
  181.5190  178.6560  143.7290 C   0  0  0  0  0  3  0  0  0  0  0  0
  182.8070  178.7260  143.1790 C   0  0  0  0  0  0  0  0  0  0  0  0
  180.5610  178.3130  141.5300 C   0  0  0  0  0  0  0  0  0  0  0  0
  180.4060  178.4500  142.9120 C   0  0  0  0  0  3  0  0  0  0  0  0
  181.8400  178.3960  140.9560 C   0  0  0  0  0  0  0  0  0  0  0  0
  182.9530  178.6030  141.7880 C   0  0  0  0  0  3  0  0  0  0  0  0
  182.5950  179.2720  138.7650 C   0  0  0  0  0  1  0  0  0  0  0  0
  181.9880  178.2700  139.5690 O   0  0  0  0  0  0  0  0  0  0  0  0
  179.3530  178.1040  140.6790 C   0  0  0  0  0  2  0  0  0  0  0  0
  178.9790  176.6310  140.6530 C   0  0  0  0  0  2  0  0  0  0  0  0
  179.2590  176.0400  139.2820 C   0  0  0  0  0  2  0  0  0  0  0  0
  182.6860  174.9710  138.1780 O   0  0  0  0  0  1  0  0  0  0  0  0
  181.3300  175.2830  138.0710 C   0  0  0  0  0  0  0  0  0  0  0  0
  180.4050  174.1050  138.2150 C   0  0  0  0  0  2  0  0  0  0  0  0
  180.4940  175.1520  139.3290 C   0  0  2  0  0  3  0  0  0  0  0  0
  180.9590  176.2110  137.0950 O   0  0  0  0  0  1  0  0  0  0  0  0
  189.0270  176.6550  141.4400 N   0  0  0  0  0  2  0  0  0  0  0  0
  190.4710  176.7570  141.2220 C   0  0  1  0  0  3  0  0  0  0  0  0
  190.8150  177.2050  139.7930 C   0  0  1  0  0  3  0  0  0  0  0  0
  192.1960  177.3060  139.6160 O   0  0  0  0  0  1  0  0  0  0  0  0
  189.1340  176.6950  137.9120 N   0  0  0  0  0  2  0  0  0  0  0  0
  190.7280  175.1550  138.5970 O   0  0  0  0  0  0  0  0  0  0  0  0
  190.2310  176.3010  138.7460 C   0  0  0  0  0  0  0  0  0  0  0  0
  188.4380  177.9710  138.0100 C   0  0  0  0  0  2  0  0  0  0  0  0
  186.9710  177.7840  137.8240 C   0  0  0  0  0  0  0  0  0  0  0  0
  186.0860  178.7390  138.3070 O   0  0  0  0  0  1  0  0  0  0  0  0
  186.5330  176.7810  137.2020 O   0  0  0  0  0  0  0  0  0  0  0  0
  191.9880  176.8610  143.0700 O   0  0  0  0  0  1  0  0  0  0  0  0
  191.1120  177.6240  142.2970 C   0  0  0  0  0  2  0  0  0  0  0  0
  1 10  1  0  0  0  0
  1  4  2  0  0  0  0
  3  7  1  0  0  0  0
  3  8  1  0  0  0  0
  4  6  1  0  0  0  0
  5  6  1  0  0  0  0
  7 13  2  0  0  0  0
  8  1  1  1  0  0  0
  9  2  1  6  0  0  0
  9  8  1  0  0  0  0
  9 12  1  0  0  0  0
 11  2  1  0  0  0  0
 11  3  1  0  0  0  0
 12  5  2  0  0  0  0
 13 10  1  0  0  0  0
 15 14  1  0  0  0  0
 15 12  1  0  0  0  0
 16 17  1  0  0  0  0
 17 14  2  0  0  0  0
 18 16  2  0  0  0  0
 18 19  1  0  0  0  0
 19 15  2  0  0  0  0
 20 21  1  0  0  0  0
 21 18  1  0  0  0  0
 22 16  1  0  0  0  0
 23 22  1  0  0  0  0
 24 23  1  0  0  0  0
 26 25  1  0  0  0  0
 26 27  1  0  0  0  0
 26 28  1  0  0  0  0
 27 28  1  0  0  0  0
 28 24  1  6  0  0  0
 29 26  1  0  0  0  0
 30  7  1  0  0  0  0
 31 30  1  0  0  0  0
 31 42  1  1  0  0  0
 32 33  1  1  0  0  0
 32 31  1  0  0  0  0
 34 37  1  0  0  0  0
 34 36  1  0  0  0  0
 35 36  2  0  0  0  0
 36 32  1  0  0  0  0
 38 37  1  0  0  0  0
 38 39  1  0  0  0  0
 40 38  2  0  0  0  0
 42 41  1  0  0  0  0
M  END
>  <MODEL>
5

>  <REMARK>
 VINA RESULT:      -7.1      2.235      4.716
  Name = 
  13 active torsions:
  status: ('A' for Active; 'I' for Inactive)
    1  A    between atoms: N_3  and  C_7
    2  A    between atoms: C_4  and  C_19
    3  A    between atoms: C_4  and  C_33
    4  A    between atoms: C_7  and  C_11
    5  A    between atoms: CA_12  and  C_15
    6  A    between atoms: CA_12  and  C_20
    7  A    between atoms: CA_12  and  N_22
    8  A    between atoms: C_15  and  C_31
    9  A    between atoms: C_16  and  N_22
   10  A    between atoms: C_17  and  C_39
   11  A    between atoms: C_27  and  O_38
   12  A    between atoms: C_28  and  C_33
   13  A    between atoms: C_28  and  C_36
                            x       y       z     vdW  Elec       q    Type
                         _______ _______ _______ _____ _____    ______ ____

>  <TORSDO>
F 13

$$$$
=
 OpenBabel11062413383D

 42 46  0  0  1  0  0  0  0  0999 V2000
  190.7100  176.0860  138.2560 C   0  0  0  0  0  0  0  0  0  0  0  0
  188.4080  178.5850  139.7300 C   0  0  0  0  0  2  0  0  0  0  0  0
  188.3590  176.7570  138.2110 N   0  0  0  0  0  0  0  0  0  0  0  0
  191.9500  176.2710  138.6270 N   0  0  0  0  0  0  0  0  0  0  0  0
  191.7100  177.1810  140.9620 C   0  0  0  0  0  3  0  0  0  0  0  0
  192.4840  177.1670  139.6690 C   0  0  0  0  0  2  0  0  0  0  0  0
  188.1080  175.9160  137.0660 C   0  0  0  0  0  0  0  0  0  0  0  0
  189.5240  176.5630  139.0510 C   0  0  2  0  0  3  0  0  0  0  0  0
  189.7560  177.8800  139.7280 C   0  0  2  0  0  3  0  0  0  0  0  0
  190.4400  175.2850  137.1010 N   0  0  0  0  0  2  0  0  0  0  0  0
  187.6780  178.0030  138.5230 C   0  0  0  0  0  2  0  0  0  0  0  0
  190.4390  177.6000  141.0380 C   0  0  0  0  0  0  0  0  0  0  0  0
  189.1160  175.2010  136.5530 C   0  0  0  0  0  3  0  0  0  0  0  0
  188.3280  177.5270  142.4050 C   0  0  0  0  0  3  0  0  0  0  0  0
  189.7280  177.5340  142.3420 C   0  0  0  0  0  0  0  0  0  0  0  0
  188.4030  177.3780  144.8230 C   0  0  0  0  0  0  0  0  0  0  0  0
  187.6710  177.4510  143.6350 C   0  0  0  0  0  3  0  0  0  0  0  0
  189.8080  177.3670  144.7810 C   0  0  0  0  0  0  0  0  0  0  0  0
  190.4580  177.4440  143.5380 C   0  0  0  0  0  3  0  0  0  0  0  0
  191.6800  176.4500  146.1200 C   0  0  0  0  0  1  0  0  0  0  0  0
  190.5360  177.2810  145.9740 O   0  0  0  0  0  0  0  0  0  0  0  0
  187.6760  177.2870  146.1230 C   0  0  0  0  0  2  0  0  0  0  0  0
  186.6020  178.3600  146.1980 C   0  0  0  0  0  2  0  0  0  0  0  0
  185.3000  177.8440  145.6100 C   0  0  0  0  0  2  0  0  0  0  0  0
  182.5440  179.5800  143.7420 O   0  0  0  0  0  1  0  0  0  0  0  0
  183.7720  178.9510  143.9460 C   0  0  0  0  0  0  0  0  0  0  0  0
  184.9110  179.8880  144.2450 C   0  0  0  0  0  2  0  0  0  0  0  0
  184.3410  178.9960  145.3510 C   0  0  2  0  0  3  0  0  0  0  0  0
  184.0930  177.8780  143.1110 O   0  0  0  0  0  1  0  0  0  0  0  0
  186.8020  175.7500  136.4880 N   0  0  0  0  0  2  0  0  0  0  0  0
  185.6410  175.0580  137.0500 C   0  0  1  0  0  3  0  0  0  0  0  0
  184.3120  175.6590  136.5660 C   0  0  1  0  0  3  0  0  0  0  0  0
  183.7830  174.9240  135.5050 O   0  0  0  0  0  1  0  0  0  0  0  0
  182.9440  177.0310  138.2610 N   0  0  0  0  0  2  0  0  0  0  0  0
  182.7300  174.7290  138.0720 O   0  0  0  0  0  0  0  0  0  0  0  0
  183.2950  175.7760  137.6640 C   0  0  0  0  0  0  0  0  0  0  0  0
  183.5540  178.3080  137.9160 C   0  0  0  0  0  2  0  0  0  0  0  0
  183.8040  179.1180  139.1430 C   0  0  0  0  0  0  0  0  0  0  0  0
  183.2350  178.7370  140.3510 O   0  0  0  0  0  1  0  0  0  0  0  0
  184.5550  180.1270  139.0950 O   0  0  0  0  0  0  0  0  0  0  0  0
  186.1950  172.9190  137.9680 O   0  0  0  0  0  1  0  0  0  0  0  0
  185.7470  173.5580  136.8110 C   0  0  0  0  0  2  0  0  0  0  0  0
  1  4  2  0  0  0  0
  3 11  1  0  0  0  0
  3  8  1  0  0  0  0
  4  6  1  0  0  0  0
  5 12  2  0  0  0  0
  6  5  1  0  0  0  0
  7  3  1  0  0  0  0
  8  1  1  6  0  0  0
  8  9  1  0  0  0  0
  9  2  1  1  0  0  0
  9 12  1  0  0  0  0
 10  1  1  0  0  0  0
 11  2  1  0  0  0  0
 12 15  1  0  0  0  0
 13  7  2  0  0  0  0
 13 10  1  0  0  0  0
 14 17  1  0  0  0  0
 15 14  2  0  0  0  0
 15 19  1  0  0  0  0
 16 22  1  0  0  0  0
 17 16  2  0  0  0  0
 18 16  1  0  0  0  0
 18 21  1  0  0  0  0
 19 18  2  0  0  0  0
 21 20  1  0  0  0  0
 22 23  1  0  0  0  0
 24 23  1  0  0  0  0
 25 26  1  0  0  0  0
 26 27  1  0  0  0  0
 26 28  1  0  0  0  0
 27 28  1  0  0  0  0
 28 24  1  6  0  0  0
 29 26  1  0  0  0  0
 30 31  1  0  0  0  0
 30  7  1  0  0  0  0
 31 42  1  6  0  0  0
 32 33  1  6  0  0  0
 32 31  1  0  0  0  0
 32 36  1  0  0  0  0
 36 35  2  0  0  0  0
 36 34  1  0  0  0  0
 37 34  1  0  0  0  0
 37 38  1  0  0  0  0
 38 39  1  0  0  0  0
 40 38  2  0  0  0  0
 42 41  1  0  0  0  0
M  END
>  <MODEL>
6

>  <REMARK>
 VINA RESULT:      -6.9      3.147      9.210
  Name = 
  13 active torsions:
  status: ('A' for Active; 'I' for Inactive)
    1  A    between atoms: N_3  and  C_7
    2  A    between atoms: C_4  and  C_19
    3  A    between atoms: C_4  and  C_33
    4  A    between atoms: C_7  and  C_11
    5  A    between atoms: CA_12  and  C_15
    6  A    between atoms: CA_12  and  C_20
    7  A    between atoms: CA_12  and  N_22
    8  A    between atoms: C_15  and  C_31
    9  A    between atoms: C_16  and  N_22
   10  A    between atoms: C_17  and  C_39
   11  A    between atoms: C_27  and  O_38
   12  A    between atoms: C_28  and  C_33
   13  A    between atoms: C_28  and  C_36
                            x       y       z     vdW  Elec       q    Type
                         _______ _______ _______ _____ _____    ______ ____

>  <TORSDO>
F 13

$$$$
=
 OpenBabel11062413383D

 42 46  0  0  1  0  0  0  0  0999 V2000
  185.5000  178.0070  144.6740 C   0  0  0  0  0  0  0  0  0  0  0  0
  185.3700  179.3730  141.2340 C   0  0  0  0  0  2  0  0  0  0  0  0
  186.6850  177.8830  142.5390 N   0  0  0  0  0  0  0  0  0  0  0  0
  184.5810  178.5220  145.4490 N   0  0  0  0  0  0  0  0  0  0  0  0
  182.6700  178.9350  143.8630 C   0  0  0  0  0  3  0  0  0  0  0  0
  183.4310  179.3700  145.0890 C   0  0  0  0  0  2  0  0  0  0  0  0
  187.7910  177.1930  143.1560 C   0  0  0  0  0  0  0  0  0  0  0  0
  185.3840  177.9480  143.1740 C   0  0  2  0  0  3  0  0  0  0  0  0
  184.7080  179.1490  142.5850 C   0  0  2  0  0  3  0  0  0  0  0  0
  186.6240  177.3490  145.2660 N   0  0  0  0  0  2  0  0  0  0  0  0
  186.7670  178.7790  141.3970 C   0  0  0  0  0  2  0  0  0  0  0  0
  183.2250  178.9050  142.6430 C   0  0  0  0  0  0  0  0  0  0  0  0
  187.7400  176.9280  144.4670 C   0  0  0  0  0  3  0  0  0  0  0  0
  181.0640  178.7340  141.3650 C   0  0  0  0  0  3  0  0  0  0  0  0
  182.4230  178.4150  141.4920 C   0  0  0  0  0  0  0  0  0  0  0  0
  180.9320  177.4990  139.2840 C   0  0  0  0  0  0  0  0  0  0  0  0
  180.3250  178.2790  140.2720 C   0  0  0  0  0  3  0  0  0  0  0  0
  182.2970  177.1800  139.3840 C   0  0  0  0  0  0  0  0  0  0  0  0
  183.0310  177.6430  140.4880 C   0  0  0  0  0  3  0  0  0  0  0  0
  183.8760  176.9320  137.4910 C   0  0  0  0  0  1  0  0  0  0  0  0
  182.9020  176.4090  138.3850 O   0  0  0  0  0  0  0  0  0  0  0  0
  180.1210  177.0350  138.1210 C   0  0  0  0  0  2  0  0  0  0  0  0
  179.6780  178.2240  137.2840 C   0  0  0  0  0  2  0  0  0  0  0  0
  180.8590  179.1330  136.9940 C   0  0  0  0  0  2  0  0  0  0  0  0
  181.2010  182.8320  137.5480 O   0  0  0  0  0  1  0  0  0  0  0  0
  181.1130  181.4780  137.8720 C   0  0  0  0  0  0  0  0  0  0  0  0
  179.7210  180.9990  138.1850 C   0  0  0  0  0  2  0  0  0  0  0  0
  180.4000  180.5800  136.8790 C   0  0  2  0  0  3  0  0  0  0  0  0
  182.1190  180.9420  138.6800 O   0  0  0  0  0  1  0  0  0  0  0  0
  188.9220  176.7060  142.4150 N   0  0  0  0  0  2  0  0  0  0  0  0
  190.3130  177.1580  142.4760 C   0  0  1  0  0  3  0  0  0  0  0  0
  191.0190  176.7050  143.7630 C   0  0  1  0  0  3  0  0  0  0  0  0
  192.0590  175.8180  143.4820 O   0  0  0  0  0  1  0  0  0  0  0  0
  191.5480  177.8440  146.0100 N   0  0  0  0  0  2  0  0  0  0  0  0
  191.9740  178.8680  143.9730 O   0  0  0  0  0  0  0  0  0  0  0  0
  191.5350  177.8560  144.5770 C   0  0  0  0  0  0  0  0  0  0  0  0
  191.0280  176.7580  146.8310 C   0  0  0  0  0  2  0  0  0  0  0  0
  192.1320  175.8550  147.2670 C   0  0  0  0  0  0  0  0  0  0  0  0
  192.8030  176.1070  148.4560 O   0  0  0  0  0  1  0  0  0  0  0  0
  192.4370  174.8470  146.5770 O   0  0  0  0  0  0  0  0  0  0  0  0
  191.9810  177.7530  140.8670 O   0  0  0  0  0  1  0  0  0  0  0  0
  191.0580  176.7640  141.2080 C   0  0  0  0  0  2  0  0  0  0  0  0
  1 10  1  0  0  0  0
  1  4  2  0  0  0  0
  2 11  1  0  0  0  0
  3  7  1  0  0  0  0
  3  8  1  0  0  0  0
  5  6  1  0  0  0  0
  6  4  1  0  0  0  0
  7 13  2  0  0  0  0
  8  1  1  1  0  0  0
  9  2  1  6  0  0  0
  9 12  1  0  0  0  0
  9  8  1  0  0  0  0
 11  3  1  0  0  0  0
 12  5  2  0  0  0  0
 13 10  1  0  0  0  0
 14 15  1  0  0  0  0
 15 12  1  0  0  0  0
 16 18  2  0  0  0  0
 16 17  1  0  0  0  0
 17 14  2  0  0  0  0
 18 19  1  0  0  0  0
 19 15  2  0  0  0  0
 20 21  1  0  0  0  0
 21 18  1  0  0  0  0
 22 16  1  0  0  0  0
 23 22  1  0  0  0  0
 24 23  1  0  0  0  0
 25 26  1  0  0  0  0
 26 27  1  0  0  0  0
 26 29  1  0  0  0  0
 28 24  1  1  0  0  0
 28 26  1  0  0  0  0
 28 27  1  0  0  0  0
 30 31  1  0  0  0  0
 30  7  1  0  0  0  0
 31 42  1  6  0  0  0
 31 32  1  0  0  0  0
 32 33  1  6  0  0  0
 32 36  1  0  0  0  0
 34 37  1  0  0  0  0
 35 36  2  0  0  0  0
 36 34  1  0  0  0  0
 37 38  1  0  0  0  0
 38 39  1  0  0  0  0
 40 38  2  0  0  0  0
 41 42  1  0  0  0  0
M  END
>  <MODEL>
7

>  <REMARK>
 VINA RESULT:      -6.7      1.327      2.784
  Name = 
  13 active torsions:
  status: ('A' for Active; 'I' for Inactive)
    1  A    between atoms: N_3  and  C_7
    2  A    between atoms: C_4  and  C_19
    3  A    between atoms: C_4  and  C_33
    4  A    between atoms: C_7  and  C_11
    5  A    between atoms: CA_12  and  C_15
    6  A    between atoms: CA_12  and  C_20
    7  A    between atoms: CA_12  and  N_22
    8  A    between atoms: C_15  and  C_31
    9  A    between atoms: C_16  and  N_22
   10  A    between atoms: C_17  and  C_39
   11  A    between atoms: C_27  and  O_38
   12  A    between atoms: C_28  and  C_33
   13  A    between atoms: C_28  and  C_36
                            x       y       z     vdW  Elec       q    Type
                         _______ _______ _______ _____ _____    ______ ____

>  <TORSDO>
F 13

$$$$
=
 OpenBabel11062413383D

 42 46  0  0  1  0  0  0  0  0999 V2000
  191.2690  177.9150  142.1510 C   0  0  0  0  0  0  0  0  0  0  0  0
  187.9340  176.4210  142.7480 C   0  0  0  0  0  2  0  0  0  0  0  0
  189.5660  177.7130  143.8950 N   0  0  1  0  0  0  0  0  0  0  0  0
  191.7450  177.6150  140.9720 N   0  0  0  0  0  0  0  0  0  0  0  0
  189.6740  177.4720  139.5460 C   0  0  0  0  0  3  0  0  0  0  0  0
  191.0670  176.9700  139.8330 C   0  0  0  0  0  2  0  0  0  0  0  0
  190.4780  178.2240  144.8890 C   0  0  1  0  0  3  0  0  0  0  0  0
  189.8000  177.9170  142.4790 C   0  0  2  0  0  3  0  0  0  0  0  0
  189.0370  176.8290  141.7840 C   0  0  2  0  0  3  0  0  0  0  0  0
  192.1620  178.3890  143.1640 N   0  0  0  0  0  0  0  0  0  0  0  0
  188.4930  176.7600  144.1270 C   0  0  0  0  0  2  0  0  0  0  0  0
  188.6660  177.3390  140.4190 C   0  0  0  0  0  0  0  0  0  0  0  0
  191.7190  178.5600  144.5190 C   0  0  0  0  0  3  0  0  0  0  0  0
  186.5900  178.6210  141.0320 C   0  0  0  0  0  3  0  0  0  0  0  0
  187.3340  177.9060  140.0830 C   0  0  0  0  0  0  0  0  0  0  0  0
  184.8260  179.0000  139.4150 C   0  0  0  0  0  0  0  0  0  0  0  0
  185.3460  179.1620  140.7010 C   0  0  0  0  0  3  0  0  0  0  0  0
  185.5620  178.3000  138.4440 C   0  0  0  0  0  0  0  0  0  0  0  0
  186.8120  177.7600  138.7880 C   0  0  0  0  0  3  0  0  0  0  0  0
  185.1220  176.9330  136.4250 C   0  0  0  0  0  1  0  0  0  0  0  0
  185.0410  178.1510  137.1530 O   0  0  0  0  0  0  0  0  0  0  0  0
  183.4990  179.5970  139.0850 C   0  0  0  0  0  2  0  0  0  0  0  0
  182.3810  178.7110  139.6110 C   0  0  0  0  0  2  0  0  0  0  0  0
  181.5350  179.4710  140.6170 C   0  0  0  0  0  2  0  0  0  0  0  0
  179.4400  178.5530  143.5950 O   0  0  0  0  0  1  0  0  0  0  0  0
  180.3270  179.2980  142.8170 C   0  0  0  0  0  0  0  0  0  0  0  0
  181.7790  178.9750  143.0430 C   0  0  0  0  0  2  0  0  0  0  0  0
  181.0920  178.5490  141.7430 C   0  0  2  0  0  3  0  0  0  0  0  0
  180.0440  180.6540  142.6370 O   0  0  0  0  0  1  0  0  0  0  0  0
  190.0950  178.4600  146.2540 N   0  0  0  0  0  2  0  0  0  0  0  0
  189.9160  177.4850  147.3310 C   0  0  1  0  0  3  0  0  0  0  0  0
  188.4620  177.0060  147.4510 C   0  0  1  0  0  3  0  0  0  0  0  0
  188.3740  175.8480  148.2240 O   0  0  0  0  0  1  0  0  0  0  0  0
  186.3240  178.4380  147.3620 N   0  0  0  0  0  2  0  0  0  0  0  0
  187.8730  178.6320  149.0780 O   0  0  0  0  0  0  0  0  0  0  0  0
  187.5480  178.0610  148.0050 C   0  0  0  0  0  0  0  0  0  0  0  0
  185.8540  177.8910  146.0960 C   0  0  0  0  0  2  0  0  0  0  0  0
  184.8620  178.8080  145.4650 C   0  0  0  0  0  0  0  0  0  0  0  0
  185.1580  179.4160  144.2520 O   0  0  0  0  0  0  0  0  0  0  0  0
  183.7450  179.0070  146.0100 O   0  0  0  0  0  1  0  0  0  0  0  0
  192.1400  176.7080  147.7560 O   0  0  0  0  0  1  0  0  0  0  0  0
  190.9170  176.3460  147.1890 C   0  0  0  0  0  2  0  0  0  0  0  0
  1 10  1  0  0  0  0
  2 11  1  0  0  0  0
  3 11  1  6  0  0  0
  3  7  1  0  0  0  0
  4  1  2  0  0  0  0
  5  6  1  0  0  0  0
  5 12  2  0  0  0  0
  6  4  1  0  0  0  0
  7 30  1  6  0  0  0
  8  1  1  1  0  0  0
  8  3  1  0  0  0  0
  9  8  1  0  0  0  0
  9  2  1  1  0  0  0
 10 13  2  0  0  0  0
 12  9  1  0  0  0  0
 13  7  1  0  0  0  0
 15 12  1  0  0  0  0
 15 14  2  0  0  0  0
 16 17  2  0  0  0  0
 17 14  1  0  0  0  0
 18 19  2  0  0  0  0
 18 16  1  0  0  0  0
 19 15  1  0  0  0  0
 20 21  1  0  0  0  0
 21 18  1  0  0  0  0
 22 16  1  0  0  0  0
 22 23  1  0  0  0  0
 23 24  1  0  0  0  0
 26 27  1  0  0  0  0
 26 25  1  0  0  0  0
 28 24  1  6  0  0  0
 28 26  1  0  0  0  0
 28 27  1  0  0  0  0
 29 26  1  0  0  0  0
 30 31  1  0  0  0  0
 31 42  1  6  0  0  0
 31 32  1  0  0  0  0
 32 36  1  0  0  0  0
 32 33  1  1  0  0  0
 34 36  1  0  0  0  0
 36 35  2  0  0  0  0
 37 34  1  0  0  0  0
 38 40  1  0  0  0  0
 38 37  1  0  0  0  0
 39 38  2  0  0  0  0
 42 41  1  0  0  0  0
M  END
>  <MODEL>
8

>  <REMARK>
 VINA RESULT:      -6.6      2.643      6.278
  Name = 
  13 active torsions:
  status: ('A' for Active; 'I' for Inactive)
    1  A    between atoms: N_3  and  C_7
    2  A    between atoms: C_4  and  C_19
    3  A    between atoms: C_4  and  C_33
    4  A    between atoms: C_7  and  C_11
    5  A    between atoms: CA_12  and  C_15
    6  A    between atoms: CA_12  and  C_20
    7  A    between atoms: CA_12  and  N_22
    8  A    between atoms: C_15  and  C_31
    9  A    between atoms: C_16  and  N_22
   10  A    between atoms: C_17  and  C_39
   11  A    between atoms: C_27  and  O_38
   12  A    between atoms: C_28  and  C_33
   13  A    between atoms: C_28  and  C_36
                            x       y       z     vdW  Elec       q    Type
                         _______ _______ _______ _____ _____    ______ ____

>  <TORSDO>
F 13

$$$$
=
 OpenBabel11062413383D

 42 46  0  0  1  0  0  0  0  0999 V2000
  187.0560  177.3160  144.2340 C   0  0  0  0  0  0  0  0  0  0  0  0
  185.7250  179.8080  141.8400 C   0  0  0  0  0  2  0  0  0  0  0  0
  187.3260  178.0530  141.9180 N   0  0  0  0  0  0  0  0  0  0  0  0
  186.5430  177.4500  145.4280 N   0  0  0  0  0  0  0  0  0  0  0  0
  184.2070  178.2600  144.9520 C   0  0  0  0  0  3  0  0  0  0  0  0
  185.4080  178.2830  145.8640 C   0  0  0  0  0  2  0  0  0  0  0  0
  188.5310  177.2720  141.7760 C   0  0  0  0  0  0  0  0  0  0  0  0
  186.3740  177.7890  142.9780 C   0  0  2  0  0  3  0  0  0  0  0  0
  185.6140  179.0670  143.1630 C   0  0  2  0  0  3  0  0  0  0  0  0
  188.2710  176.5760  144.0750 N   0  0  0  0  0  2  0  0  0  0  0  0
  187.0310  179.3020  141.2340 C   0  0  0  0  0  2  0  0  0  0  0  0
  184.2510  178.7100  143.6900 C   0  0  0  0  0  0  0  0  0  0  0  0
  188.9630  176.5530  142.8180 C   0  0  0  0  0  3  0  0  0  0  0  0
  183.1090  178.1000  141.5330 C   0  0  0  0  0  3  0  0  0  0  0  0
  183.0380  178.6050  142.8390 C   0  0  0  0  0  0  0  0  0  0  0  0
  180.7190  178.3870  141.2540 C   0  0  0  0  0  0  0  0  0  0  0  0
  181.9600  177.9930  140.7470 C   0  0  0  0  0  3  0  0  0  0  0  0
  180.6230  178.8820  142.5650 C   0  0  0  0  0  0  0  0  0  0  0  0
  181.7850  178.9850  143.3470 C   0  0  0  0  0  3  0  0  0  0  0  0
  179.0440  179.1770  144.4510 C   0  0  0  0  0  1  0  0  0  0  0  0
  179.3750  179.2640  143.0720 O   0  0  0  0  0  0  0  0  0  0  0  0
  179.5060  178.2530  140.3960 C   0  0  0  0  0  2  0  0  0  0  0  0
  179.9090  177.9510  138.9620 C   0  0  0  0  0  2  0  0  0  0  0  0
  179.7540  179.1910  138.0990 C   0  0  0  0  0  2  0  0  0  0  0  0
  182.7320  181.3890  138.7350 O   0  0  0  0  0  1  0  0  0  0  0  0
  181.3940  181.0490  138.5360 C   0  0  0  0  0  0  0  0  0  0  0  0
  180.9290  181.1490  137.1090 C   0  0  0  0  0  2  0  0  0  0  0  0
  181.1170  179.7760  137.7590 C   0  0  2  0  0  3  0  0  0  0  0  0
  180.4710  181.4830  139.4910 O   0  0  0  0  0  1  0  0  0  0  0  0
  189.2550  177.1670  140.5390 N   0  0  0  0  0  2  0  0  0  0  0  0
  188.7270  176.9550  139.1910 C   0  0  1  0  0  3  0  0  0  0  0  0
  188.1980  178.2520  138.5590 C   0  0  1  0  0  3  0  0  0  0  0  0
  189.1990  179.2210  138.4850 O   0  0  0  0  0  1  0  0  0  0  0  0
  186.2030  177.7690  137.0050 N   0  0  0  0  0  2  0  0  0  0  0  0
  188.3540  178.0820  136.1950 O   0  0  0  0  0  0  0  0  0  0  0  0
  187.5980  178.0310  137.2000 C   0  0  0  0  0  0  0  0  0  0  0  0
  185.2290  177.6390  138.0810 C   0  0  0  0  0  2  0  0  0  0  0  0
  183.9700  177.0190  137.5770 C   0  0  0  0  0  0  0  0  0  0  0  0
  183.4120  177.4600  136.3850 O   0  0  0  0  0  0  0  0  0  0  0  0
  183.4310  176.0740  138.2100 O   0  0  0  0  0  1  0  0  0  0  0  0
  190.7790  175.7260  139.1180 O   0  0  0  0  0  1  0  0  0  0  0  0
  189.7510  176.2350  138.3240 C   0  0  0  0  0  2  0  0  0  0  0  0
  1  4  2  0  0  0  0
  3  8  1  0  0  0  0
  4  6  1  0  0  0  0
  5  6  1  0  0  0  0
  7  3  1  0  0  0  0
  7 13  2  0  0  0  0
  8  9  1  0  0  0  0
  8  1  1  1  0  0  0
  9  2  1  6  0  0  0
  9 12  1  0  0  0  0
 10  1  1  0  0  0  0
 11  2  1  0  0  0  0
 11  3  1  0  0  0  0
 12  5  2  0  0  0  0
 13 10  1  0  0  0  0
 14 15  1  0  0  0  0
 15 19  2  0  0  0  0
 15 12  1  0  0  0  0
 16 18  2  0  0  0  0
 17 16  1  0  0  0  0
 17 14  2  0  0  0  0
 18 21  1  0  0  0  0
 18 19  1  0  0  0  0
 21 20  1  0  0  0  0
 22 16  1  0  0  0  0
 23 22  1  0  0  0  0
 24 23  1  0  0  0  0
 26 25  1  0  0  0  0
 26 29  1  0  0  0  0
 27 28  1  0  0  0  0
 27 26  1  0  0  0  0
 28 24  1  1  0  0  0
 28 26  1  0  0  0  0
 30  7  1  0  0  0  0
 31 42  1  6  0  0  0
 31 30  1  0  0  0  0
 32 33  1  6  0  0  0
 32 31  1  0  0  0  0
 34 36  1  0  0  0  0
 34 37  1  0  0  0  0
 35 36  2  0  0  0  0
 36 32  1  0  0  0  0
 38 37  1  0  0  0  0
 38 40  1  0  0  0  0
 39 38  2  0  0  0  0
 42 41  1  0  0  0  0
M  END
>  <MODEL>
9

>  <REMARK>
 VINA RESULT:      -6.3      2.985      5.634
  Name = 
  13 active torsions:
  status: ('A' for Active; 'I' for Inactive)
    1  A    between atoms: N_3  and  C_7
    2  A    between atoms: C_4  and  C_19
    3  A    between atoms: C_4  and  C_33
    4  A    between atoms: C_7  and  C_11
    5  A    between atoms: CA_12  and  C_15
    6  A    between atoms: CA_12  and  C_20
    7  A    between atoms: CA_12  and  N_22
    8  A    between atoms: C_15  and  C_31
    9  A    between atoms: C_16  and  N_22
   10  A    between atoms: C_17  and  C_39
   11  A    between atoms: C_27  and  O_38
   12  A    between atoms: C_28  and  C_33
   13  A    between atoms: C_28  and  C_36
                            x       y       z     vdW  Elec       q    Type
                         _______ _______ _______ _____ _____    ______ ____

>  <TORSDO>
F 13

$$$$
