=
 OpenBabel11062415333D

 35 40  0  0  1  0  0  0  0  0999 V2000
  184.9540  178.2630  147.0030 C   0  0  0  0  0  2  0  0  0  0  0  0
  185.6400  179.0970  145.9090 C   0  0  2  0  0  0  0  0  0  0  0  0
  186.6310  178.5370  144.8630 C   0  0  1  0  0  3  0  0  0  0  0  0
  187.3880  177.3470  145.4260 C   0  0  2  0  0  3  0  0  0  0  0  0
  186.3630  178.6470  147.2040 C   0  0  2  0  0  3  0  0  0  0  0  0
  185.2000  178.2010  144.7380 C   0  0  2  0  0  3  0  0  0  0  0  0
  187.2730  177.4670  146.9260 C   0  0  0  0  0  2  0  0  0  0  0  0
  188.8550  177.3220  144.9540 C   0  0  2  0  0  0  0  0  0  0  0  0
  189.3480  178.6220  144.9410 F   0  0  0  0  0  0  0  0  0  0  0  0
  189.6440  177.5510  142.5290 C   0  0  1  0  0  3  0  0  0  0  0  0
  190.3690  176.3770  143.1410 C   0  0  2  0  0  3  0  0  0  0  0  0
  190.5160  176.6670  141.6580 C   0  0  2  0  0  3  0  0  0  0  0  0
  188.9370  176.6750  143.5520 C   0  0  1  0  0  3  0  0  0  0  0  0
  191.8210  177.3860  140.0340 C   0  0  0  0  0  1  0  0  0  0  0  0
  191.7380  177.2960  141.4250 O   0  0  0  0  0  0  0  0  0  0  0  0
  189.7160  176.5080  145.9310 C   0  0  0  0  0  2  0  0  0  0  0  0
  191.0280  177.2020  146.2860 C   0  0  0  0  0  2  0  0  0  0  0  0
  191.9430  176.2500  146.9720 C   0  0  0  0  0  0  0  0  0  0  0  0
  192.3420  176.4900  148.1420 O   0  0  0  0  0  1  0  0  0  0  0  0
  192.3670  175.1000  146.3150 O   0  0  0  0  0  0  0  0  0  0  0  0
  184.5840  179.0550  143.6380 C   0  0  2  0  0  3  0  0  0  0  0  0
  183.1490  179.4830  143.9680 C   0  0  0  0  0  2  0  0  0  0  0  0
  182.1010  178.9260  143.0000 C   0  0  0  0  0  2  0  0  0  0  0  0
  180.8900  178.6920  143.6620 O   0  0  0  0  0  0  0  0  0  0  0  0
  179.8980  178.9680  142.7170 C   0  0  1  0  0  3  0  0  0  0  0  0
  179.2940  176.7060  141.6890 O   0  0  0  0  0  0  0  0  0  0  0  0
  180.4640  179.0960  141.4770 O   0  0  0  0  0  0  0  0  0  0  0  0
  179.7250  177.8670  141.9080 C   0  0  0  0  0  0  0  0  0  0  0  0
  184.6810  178.3420  142.2920 C   0  0  0  0  0  2  0  0  0  0  0  0
  185.4930  179.1680  141.2910 C   0  0  2  0  0  3  0  0  0  0  0  0
  183.8030  178.5840  139.8480 C   0  0  0  0  0  1  0  0  0  0  0  0
  184.7470  179.5790  140.1630 O   0  0  0  0  0  0  0  0  0  0  0  0
  186.8120  178.4880  140.9180 C   0  0  0  0  0  2  0  0  0  0  0  0
  188.3910  178.7320  139.4850 O   0  0  0  0  0  1  0  0  0  0  0  0
  187.0780  178.6810  139.5620 O   0  0  0  0  0  0  0  0  0  0  0  0
  1  5  1  0  0  0  0
  2  1  1  1  0  0  0
  2  5  1  0  0  0  0
  3  4  1  0  0  0  0
  3  2  1  0  0  0  0
  4  7  1  0  0  0  0
  6  3  1  0  0  0  0
  6  2  1  0  0  0  0
  7  5  1  0  0  0  0
  8  4  1  0  0  0  0
  8 16  1  0  0  0  0
  9  8  1  0  0  0  0
 10 11  1  0  0  0  0
 10 13  1  0  0  0  0
 11 13  1  0  0  0  0
 12 10  1  0  0  0  0
 12 11  1  0  0  0  0
 13  8  1  0  0  0  0
 14 15  1  0  0  0  0
 15 12  1  0  0  0  0
 16 17  1  0  0  0  0
 17 18  1  0  0  0  0
 18 19  1  0  0  0  0
 20 18  2  0  0  0  0
 21 22  1  0  0  0  0
 21  6  1  0  0  0  0
 23 24  1  0  0  0  0
 23 22  1  0  0  0  0
 25 24  1  0  0  0  0
 26 28  2  0  0  0  0
 27 28  1  0  0  0  0
 27 25  1  0  0  0  0
 28 25  1  0  0  0  0
 29 21  1  0  0  0  0
 30 29  1  0  0  0  0
 31 32  1  0  0  0  0
 32 30  1  0  0  0  0
 33 30  1  0  0  0  0
 34 35  1  0  0  0  0
 35 33  1  0  0  0  0
M  END
>  <MODEL>
1

>  <REMARK>
 VINA RESULT:      -8.1      0.000      0.000
  Name = 
  16 active torsions:
  status: ('A' for Active; 'I' for Inactive)
    1  A    between atoms: C_1  and  O_25
    2  A    between atoms: C_1  and  C_35
    3  A    between atoms: C_2  and  C_15
    4  A    between atoms: C_2  and  C_19
    5  A    between atoms: C_3  and  C_34
    6  A    between atoms: C_4  and  O_25
    7  A    between atoms: C_8  and  C_16
    8  A    between atoms: C_8  and  C_21
    9  A    between atoms: C_8  and  C_24
   10  A    between atoms: C_10  and  C_19
   11  A    between atoms: C_10  and  O_30
   12  A    between atoms: C_14  and  O_27
   13  A    between atoms: C_15  and  C_29
   14  A    between atoms: C_15  and  C_35
   15  A    between atoms: C_16  and  C_34
   16  A    between atoms: C_19  and  O_20
                            x       y       z     vdW  Elec       q    Type
                         _______ _______ _______ _____ _____    ______ ____

>  <TORSDO>
F 16

$$$$
=
 OpenBabel11062415333D

 35 40  0  0  1  0  0  0  0  0999 V2000
  184.5860  178.4660  146.5450 C   0  0  0  0  0  2  0  0  0  0  0  0
  185.2760  179.0940  145.3230 C   0  0  2  0  0  0  0  0  0  0  0  0
  186.3140  178.3770  144.4300 C   0  0  1  0  0  3  0  0  0  0  0  0
  187.0920  177.3510  145.2320 C   0  0  2  0  0  3  0  0  0  0  0  0
  185.9750  178.9340  146.6970 C   0  0  2  0  0  3  0  0  0  0  0  0
  184.8990  177.9700  144.3420 C   0  0  2  0  0  3  0  0  0  0  0  0
  186.9310  177.7580  146.6770 C   0  0  0  0  0  2  0  0  0  0  0  0
  188.5730  177.2890  144.8070 C   0  0  2  0  0  0  0  0  0  0  0  0
  189.0460  178.5840  144.6290 F   0  0  0  0  0  0  0  0  0  0  0  0
  189.0710  177.3000  142.2950 C   0  0  1  0  0  3  0  0  0  0  0  0
  190.1250  176.4560  142.9710 C   0  0  2  0  0  3  0  0  0  0  0  0
  190.0680  176.5230  141.4560 C   0  0  2  0  0  3  0  0  0  0  0  0
  188.7040  176.4590  143.5090 C   0  0  1  0  0  3  0  0  0  0  0  0
  191.2020  177.0530  139.6410 C   0  0  0  0  0  1  0  0  0  0  0  0
  191.0610  177.3840  140.9900 O   0  0  0  0  0  0  0  0  0  0  0  0
  189.4180  176.6320  145.9080 C   0  0  0  0  0  2  0  0  0  0  0  0
  190.6380  177.4630  146.2960 C   0  0  0  0  0  2  0  0  0  0  0  0
  191.6860  176.5910  146.8900 C   0  0  0  0  0  0  0  0  0  0  0  0
  192.1310  176.8330  148.0420 O   0  0  0  0  0  1  0  0  0  0  0  0
  192.1830  175.5130  146.1650 O   0  0  0  0  0  0  0  0  0  0  0  0
  184.2860  178.5680  143.0830 C   0  0  2  0  0  3  0  0  0  0  0  0
  185.3010  179.3810  142.2710 C   0  0  0  0  0  2  0  0  0  0  0  0
  185.4130  178.9430  140.8080 C   0  0  0  0  0  2  0  0  0  0  0  0
  184.6350  179.7650  139.9840 O   0  0  0  0  0  0  0  0  0  0  0  0
  184.8580  179.2970  138.6860 C   0  0  1  0  0  3  0  0  0  0  0  0
  183.7540  176.9920  138.5980 O   0  0  0  0  0  0  0  0  0  0  0  0
  185.9630  178.4890  138.6690 O   0  0  0  0  0  0  0  0  0  0  0  0
  184.5670  177.9520  138.6340 C   0  0  0  0  0  0  0  0  0  0  0  0
  183.0390  179.3760  143.4290 C   0  0  0  0  0  2  0  0  0  0  0  0
  181.8100  178.8290  142.6990 C   0  0  2  0  0  3  0  0  0  0  0  0
  181.1690  177.8400  140.7270 C   0  0  0  0  0  1  0  0  0  0  0  0
  181.9190  178.8880  141.2900 O   0  0  0  0  0  0  0  0  0  0  0  0
  180.5090  179.4390  143.2220 C   0  0  0  0  0  2  0  0  0  0  0  0
  179.7030  177.6460  144.0830 O   0  0  0  0  0  1  0  0  0  0  0  0
  180.1520  178.8350  144.4270 O   0  0  0  0  0  0  0  0  0  0  0  0
  1  5  1  0  0  0  0
  2  1  1  1  0  0  0
  2  5  1  0  0  0  0
  3  4  1  0  0  0  0
  3  2  1  0  0  0  0
  4  7  1  0  0  0  0
  6  3  1  0  0  0  0
  6  2  1  0  0  0  0
  7  5  1  0  0  0  0
  8  4  1  0  0  0  0
  8 16  1  0  0  0  0
  9  8  1  0  0  0  0
 10 11  1  0  0  0  0
 10 13  1  0  0  0  0
 11 13  1  0  0  0  0
 12 10  1  0  0  0  0
 12 11  1  0  0  0  0
 13  8  1  0  0  0  0
 14 15  1  0  0  0  0
 15 12  1  0  0  0  0
 16 17  1  0  0  0  0
 17 18  1  0  0  0  0
 18 19  1  0  0  0  0
 20 18  2  0  0  0  0
 21 29  1  0  0  0  0
 21  6  1  0  0  0  0
 22 21  1  0  0  0  0
 23 22  1  0  0  0  0
 24 23  1  0  0  0  0
 25 24  1  0  0  0  0
 26 28  2  0  0  0  0
 27 25  1  0  0  0  0
 28 27  1  0  0  0  0
 28 25  1  0  0  0  0
 30 33  1  0  0  0  0
 30 29  1  0  0  0  0
 31 32  1  0  0  0  0
 32 30  1  0  0  0  0
 33 35  1  0  0  0  0
 34 35  1  0  0  0  0
M  END
>  <MODEL>
2

>  <REMARK>
 VINA RESULT:      -8.0      1.018      3.608
  Name = 
  16 active torsions:
  status: ('A' for Active; 'I' for Inactive)
    1  A    between atoms: C_1  and  O_25
    2  A    between atoms: C_1  and  C_35
    3  A    between atoms: C_2  and  C_15
    4  A    between atoms: C_2  and  C_19
    5  A    between atoms: C_3  and  C_34
    6  A    between atoms: C_4  and  O_25
    7  A    between atoms: C_8  and  C_16
    8  A    between atoms: C_8  and  C_21
    9  A    between atoms: C_8  and  C_24
   10  A    between atoms: C_10  and  C_19
   11  A    between atoms: C_10  and  O_30
   12  A    between atoms: C_14  and  O_27
   13  A    between atoms: C_15  and  C_29
   14  A    between atoms: C_15  and  C_35
   15  A    between atoms: C_16  and  C_34
   16  A    between atoms: C_19  and  O_20
                            x       y       z     vdW  Elec       q    Type
                         _______ _______ _______ _____ _____    ______ ____

>  <TORSDO>
F 16

$$$$
=
 OpenBabel11062415333D

 35 40  0  0  1  0  0  0  0  0999 V2000
  183.7830  179.0130  144.8610 C   0  0  0  0  0  2  0  0  0  0  0  0
  184.6600  179.2710  143.6250 C   0  0  2  0  0  0  0  0  0  0  0  0
  185.7560  178.3110  143.1050 C   0  0  1  0  0  3  0  0  0  0  0  0
  186.3590  177.5170  144.2490 C   0  0  2  0  0  3  0  0  0  0  0  0
  185.1680  179.4670  145.0770 C   0  0  2  0  0  3  0  0  0  0  0  0
  184.3390  177.9350  142.9320 C   0  0  2  0  0  3  0  0  0  0  0  0
  186.0420  178.3020  145.4990 C   0  0  0  0  0  2  0  0  0  0  0  0
  187.8740  177.3020  144.0650 C   0  0  2  0  0  0  0  0  0  0  0  0
  188.1180  175.9460  143.8770 F   0  0  0  0  0  0  0  0  0  0  0  0
  189.5440  176.8120  145.9440 C   0  0  1  0  0  3  0  0  0  0  0  0
  190.1300  177.9010  145.0780 C   0  0  2  0  0  3  0  0  0  0  0  0
  190.8250  177.5030  146.3670 C   0  0  2  0  0  3  0  0  0  0  0  0
  188.6280  177.8430  145.3020 C   0  0  1  0  0  3  0  0  0  0  0  0
  192.0940  175.9180  147.2270 C   0  0  0  0  0  1  0  0  0  0  0  0
  191.9170  176.6880  146.0760 O   0  0  0  0  0  0  0  0  0  0  0  0
  188.3710  178.0420  142.8140 C   0  0  0  0  0  2  0  0  0  0  0  0
  188.6290  177.1080  141.6350 C   0  0  0  0  0  2  0  0  0  0  0  0
  190.0800  176.7940  141.5380 C   0  0  0  0  0  0  0  0  0  0  0  0
  190.5560  175.8110  142.1650 O   0  0  0  0  0  1  0  0  0  0  0  0
  190.9120  177.5950  140.7640 O   0  0  0  0  0  0  0  0  0  0  0  0
  183.9310  178.1880  141.4870 C   0  0  2  0  0  3  0  0  0  0  0  0
  184.8620  179.1830  140.7840 C   0  0  0  0  0  2  0  0  0  0  0  0
  185.2440  178.7690  139.3600 C   0  0  0  0  0  2  0  0  0  0  0  0
  186.6240  178.5590  139.2580 O   0  0  0  0  0  0  0  0  0  0  0  0
  186.8240  178.0720  137.9630 C   0  0  1  0  0  3  0  0  0  0  0  0
  189.1510  177.0110  137.9910 O   0  0  0  0  0  0  0  0  0  0  0  0
  187.5270  178.9880  137.2290 O   0  0  0  0  0  0  0  0  0  0  0  0
  188.1550  177.7550  137.7990 C   0  0  0  0  0  0  0  0  0  0  0  0
  182.4670  178.6140  141.4140 C   0  0  0  0  0  2  0  0  0  0  0  0
  181.7300  177.8580  140.3070 C   0  0  2  0  0  3  0  0  0  0  0  0
  181.5010  175.6920  139.5730 C   0  0  0  0  0  1  0  0  0  0  0  0
  182.4250  176.7170  139.8430 O   0  0  0  0  0  0  0  0  0  0  0  0
  181.2820  178.7830  139.1750 C   0  0  0  0  0  2  0  0  0  0  0  0
  182.3260  180.5100  138.4430 O   0  0  0  0  0  1  0  0  0  0  0  0
  181.6210  180.1020  139.4780 O   0  0  0  0  0  0  0  0  0  0  0  0
  1  5  1  0  0  0  0
  2  1  1  1  0  0  0
  2  5  1  0  0  0  0
  3  2  1  0  0  0  0
  3  4  1  0  0  0  0
  4  7  1  0  0  0  0
  5  7  1  0  0  0  0
  6  3  1  0  0  0  0
  6  2  1  0  0  0  0
  8  4  1  0  0  0  0
  8 13  1  0  0  0  0
  9  8  1  0  0  0  0
 10 12  1  0  0  0  0
 11 13  1  0  0  0  0
 11 10  1  0  0  0  0
 11 12  1  0  0  0  0
 13 10  1  0  0  0  0
 15 12  1  0  0  0  0
 15 14  1  0  0  0  0
 16  8  1  0  0  0  0
 17 16  1  0  0  0  0
 18 17  1  0  0  0  0
 18 19  1  0  0  0  0
 20 18  2  0  0  0  0
 21  6  1  0  0  0  0
 22 21  1  0  0  0  0
 23 22  1  0  0  0  0
 24 23  1  0  0  0  0
 25 24  1  0  0  0  0
 27 28  1  0  0  0  0
 27 25  1  0  0  0  0
 28 25  1  0  0  0  0
 28 26  2  0  0  0  0
 29 21  1  0  0  0  0
 30 29  1  0  0  0  0
 31 32  1  0  0  0  0
 32 30  1  0  0  0  0
 33 35  1  0  0  0  0
 33 30  1  0  0  0  0
 34 35  1  0  0  0  0
M  END
>  <MODEL>
3

>  <REMARK>
 VINA RESULT:      -7.7      1.907      5.098
  Name = 
  16 active torsions:
  status: ('A' for Active; 'I' for Inactive)
    1  A    between atoms: C_1  and  O_25
    2  A    between atoms: C_1  and  C_35
    3  A    between atoms: C_2  and  C_15
    4  A    between atoms: C_2  and  C_19
    5  A    between atoms: C_3  and  C_34
    6  A    between atoms: C_4  and  O_25
    7  A    between atoms: C_8  and  C_16
    8  A    between atoms: C_8  and  C_21
    9  A    between atoms: C_8  and  C_24
   10  A    between atoms: C_10  and  C_19
   11  A    between atoms: C_10  and  O_30
   12  A    between atoms: C_14  and  O_27
   13  A    between atoms: C_15  and  C_29
   14  A    between atoms: C_15  and  C_35
   15  A    between atoms: C_16  and  C_34
   16  A    between atoms: C_19  and  O_20
                            x       y       z     vdW  Elec       q    Type
                         _______ _______ _______ _____ _____    ______ ____

>  <TORSDO>
F 16

$$$$
=
 OpenBabel11062415333D

 35 40  0  0  1  0  0  0  0  0999 V2000
  184.4960  178.5470  146.4470 C   0  0  0  0  0  2  0  0  0  0  0  0
  185.2450  179.1200  145.2320 C   0  0  2  0  0  0  0  0  0  0  0  0
  186.3340  178.3680  144.4320 C   0  0  1  0  0  3  0  0  0  0  0  0
  187.0750  177.3910  145.3260 C   0  0  2  0  0  3  0  0  0  0  0  0
  185.8720  179.0360  146.6480 C   0  0  2  0  0  3  0  0  0  0  0  0
  184.9270  177.9440  144.2920 C   0  0  2  0  0  3  0  0  0  0  0  0
  186.8350  177.8690  146.7370 C   0  0  0  0  0  2  0  0  0  0  0  0
  188.5760  177.3210  144.9820 C   0  0  2  0  0  0  0  0  0  0  0  0
  189.0910  178.6120  144.9420 F   0  0  0  0  0  0  0  0  0  0  0  0
  189.3610  177.4900  142.5500 C   0  0  1  0  0  3  0  0  0  0  0  0
  190.2290  176.4690  143.2460 C   0  0  2  0  0  3  0  0  0  0  0  0
  190.3560  176.6750  141.7470 C   0  0  2  0  0  3  0  0  0  0  0  0
  188.7640  176.5980  143.6290 C   0  0  1  0  0  3  0  0  0  0  0  0
  191.6640  177.3270  140.0970 C   0  0  0  0  0  1  0  0  0  0  0  0
  191.4850  177.4460  141.4770 O   0  0  0  0  0  0  0  0  0  0  0  0
  189.3390  176.5510  146.0700 C   0  0  0  0  0  2  0  0  0  0  0  0
  190.2930  177.4360  146.8660 C   0  0  0  0  0  2  0  0  0  0  0  0
  191.5590  176.7050  147.1450 C   0  0  0  0  0  0  0  0  0  0  0  0
  192.1780  176.9030  148.2230 O   0  0  0  0  0  1  0  0  0  0  0  0
  192.0650  175.8120  146.2060 O   0  0  0  0  0  0  0  0  0  0  0  0
  184.3780  178.4710  142.9730 C   0  0  2  0  0  3  0  0  0  0  0  0
  185.4160  179.2880  142.1950 C   0  0  0  0  0  2  0  0  0  0  0  0
  186.0020  178.5500  140.9870 C   0  0  0  0  0  2  0  0  0  0  0  0
  185.6050  179.1610  139.7930 O   0  0  0  0  0  0  0  0  0  0  0  0
  185.8660  178.2180  138.7950 C   0  0  1  0  0  3  0  0  0  0  0  0
  188.3780  177.7640  138.9320 O   0  0  0  0  0  0  0  0  0  0  0  0
  186.2980  178.8510  137.6610 O   0  0  0  0  0  0  0  0  0  0  0  0
  187.2250  178.1370  138.5940 C   0  0  0  0  0  0  0  0  0  0  0  0
  183.0860  179.2480  143.2070 C   0  0  0  0  0  2  0  0  0  0  0  0
  181.9760  178.7630  142.2710 C   0  0  2  0  0  3  0  0  0  0  0  0
  182.1300  177.6330  140.2760 C   0  0  0  0  0  1  0  0  0  0  0  0
  182.3040  178.8820  140.9000 O   0  0  0  0  0  0  0  0  0  0  0  0
  180.6200  179.3800  142.6140 C   0  0  0  0  0  2  0  0  0  0  0  0
  179.3690  177.6370  142.6640 O   0  0  0  0  0  1  0  0  0  0  0  0
  179.9130  178.5290  143.4640 O   0  0  0  0  0  0  0  0  0  0  0  0
  1  5  1  0  0  0  0
  2  1  1  1  0  0  0
  2  5  1  0  0  0  0
  3  2  1  0  0  0  0
  3  4  1  0  0  0  0
  4  7  1  0  0  0  0
  5  7  1  0  0  0  0
  6  3  1  0  0  0  0
  6  2  1  0  0  0  0
  8  4  1  0  0  0  0
  8 16  1  0  0  0  0
  9  8  1  0  0  0  0
 10 11  1  0  0  0  0
 10 13  1  0  0  0  0
 11 13  1  0  0  0  0
 12 10  1  0  0  0  0
 12 11  1  0  0  0  0
 13  8  1  0  0  0  0
 14 15  1  0  0  0  0
 15 12  1  0  0  0  0
 16 17  1  0  0  0  0
 17 18  1  0  0  0  0
 18 19  1  0  0  0  0
 20 18  2  0  0  0  0
 21 29  1  0  0  0  0
 21  6  1  0  0  0  0
 22 21  1  0  0  0  0
 23 22  1  0  0  0  0
 24 23  1  0  0  0  0
 25 24  1  0  0  0  0
 27 28  1  0  0  0  0
 27 25  1  0  0  0  0
 28 25  1  0  0  0  0
 28 26  2  0  0  0  0
 30 33  1  0  0  0  0
 30 29  1  0  0  0  0
 31 32  1  0  0  0  0
 32 30  1  0  0  0  0
 33 35  1  0  0  0  0
 34 35  1  0  0  0  0
M  END
>  <MODEL>
4

>  <REMARK>
 VINA RESULT:      -7.7      1.041      4.002
  Name = 
  16 active torsions:
  status: ('A' for Active; 'I' for Inactive)
    1  A    between atoms: C_1  and  O_25
    2  A    between atoms: C_1  and  C_35
    3  A    between atoms: C_2  and  C_15
    4  A    between atoms: C_2  and  C_19
    5  A    between atoms: C_3  and  C_34
    6  A    between atoms: C_4  and  O_25
    7  A    between atoms: C_8  and  C_16
    8  A    between atoms: C_8  and  C_21
    9  A    between atoms: C_8  and  C_24
   10  A    between atoms: C_10  and  C_19
   11  A    between atoms: C_10  and  O_30
   12  A    between atoms: C_14  and  O_27
   13  A    between atoms: C_15  and  C_29
   14  A    between atoms: C_15  and  C_35
   15  A    between atoms: C_16  and  C_34
   16  A    between atoms: C_19  and  O_20
                            x       y       z     vdW  Elec       q    Type
                         _______ _______ _______ _____ _____    ______ ____

>  <TORSDO>
F 16

$$$$
=
 OpenBabel11062415333D

 35 40  0  0  1  0  0  0  0  0999 V2000
  184.2110  178.6760  145.8080 C   0  0  0  0  0  2  0  0  0  0  0  0
  184.9200  179.2990  144.5950 C   0  0  2  0  0  0  0  0  0  0  0  0
  185.9200  178.5550  143.6790 C   0  0  1  0  0  3  0  0  0  0  0  0
  186.6560  177.4770  144.4540 C   0  0  2  0  0  3  0  0  0  0  0  0
  185.6210  179.0780  145.9600 C   0  0  2  0  0  3  0  0  0  0  0  0
  184.4860  178.2140  143.5940 C   0  0  2  0  0  3  0  0  0  0  0  0
  186.5220  177.8600  145.9080 C   0  0  0  0  0  2  0  0  0  0  0  0
  188.1290  177.3580  144.0170 C   0  0  2  0  0  0  0  0  0  0  0  0
  188.4070  176.0260  143.7240 F   0  0  0  0  0  0  0  0  0  0  0  0
  189.7240  176.7850  145.9360 C   0  0  1  0  0  3  0  0  0  0  0  0
  190.5080  177.5490  144.8970 C   0  0  2  0  0  3  0  0  0  0  0  0
  191.1520  177.2060  146.2270 C   0  0  2  0  0  3  0  0  0  0  0  0
  189.0480  177.8910  145.1400 C   0  0  1  0  0  3  0  0  0  0  0  0
  192.2700  175.6850  147.3660 C   0  0  0  0  0  1  0  0  0  0  0  0
  192.0060  176.1160  146.0650 O   0  0  0  0  0  0  0  0  0  0  0  0
  188.3750  178.1750  142.7390 C   0  0  0  0  0  2  0  0  0  0  0  0
  188.3900  177.3150  141.4780 C   0  0  0  0  0  2  0  0  0  0  0  0
  189.6690  177.5050  140.7440 C   0  0  0  0  0  0  0  0  0  0  0  0
  190.7670  177.3970  141.3500 O   0  0  0  0  0  1  0  0  0  0  0  0
  189.6510  177.8170  139.3880 O   0  0  0  0  0  0  0  0  0  0  0  0
  183.8940  178.8650  142.3520 C   0  0  2  0  0  3  0  0  0  0  0  0
  182.3790  178.6520  142.2490 C   0  0  0  0  0  2  0  0  0  0  0  0
  181.5810  179.3550  143.3510 C   0  0  0  0  0  2  0  0  0  0  0  0
  180.5980  180.1850  142.7980 O   0  0  0  0  0  0  0  0  0  0  0  0
  180.3280  179.6440  141.5390 C   0  0  1  0  0  3  0  0  0  0  0  0
  179.6890  181.6350  140.0680 O   0  0  0  0  0  0  0  0  0  0  0  0
  178.9820  179.4350  141.4040 O   0  0  0  0  0  0  0  0  0  0  0  0
  179.6910  180.5890  140.7670 C   0  0  0  0  0  0  0  0  0  0  0  0
  184.6310  178.3960  141.1010 C   0  0  0  0  0  2  0  0  0  0  0  0
  183.6560  178.1480  139.9480 C   0  0  2  0  0  3  0  0  0  0  0  0
  182.1390  176.4630  139.5740 C   0  0  0  0  0  1  0  0  0  0  0  0
  183.5080  176.7810  139.6180 O   0  0  0  0  0  0  0  0  0  0  0  0
  183.9640  179.0250  138.7330 C   0  0  0  0  0  2  0  0  0  0  0  0
  183.2030  181.0300  138.8250 O   0  0  0  0  0  1  0  0  0  0  0  0
  184.2650  180.3220  139.1470 O   0  0  0  0  0  0  0  0  0  0  0  0
  1  5  1  0  0  0  0
  2  1  1  1  0  0  0
  2  5  1  0  0  0  0
  3  4  1  0  0  0  0
  3  2  1  0  0  0  0
  4  7  1  0  0  0  0
  6  3  1  0  0  0  0
  6  2  1  0  0  0  0
  7  5  1  0  0  0  0
  8  4  1  0  0  0  0
  8 13  1  0  0  0  0
  9  8  1  0  0  0  0
 10 12  1  0  0  0  0
 11 13  1  0  0  0  0
 11 10  1  0  0  0  0
 11 12  1  0  0  0  0
 13 10  1  0  0  0  0
 15 12  1  0  0  0  0
 15 14  1  0  0  0  0
 16  8  1  0  0  0  0
 17 16  1  0  0  0  0
 18 19  1  0  0  0  0
 18 17  1  0  0  0  0
 20 18  2  0  0  0  0
 21  6  1  0  0  0  0
 22 21  1  0  0  0  0
 22 23  1  0  0  0  0
 24 23  1  0  0  0  0
 25 24  1  0  0  0  0
 26 28  2  0  0  0  0
 27 25  1  0  0  0  0
 28 27  1  0  0  0  0
 28 25  1  0  0  0  0
 29 21  1  0  0  0  0
 30 29  1  0  0  0  0
 31 32  1  0  0  0  0
 32 30  1  0  0  0  0
 33 35  1  0  0  0  0
 33 30  1  0  0  0  0
 34 35  1  0  0  0  0
M  END
>  <MODEL>
5

>  <REMARK>
 VINA RESULT:      -7.7      1.576      3.704
  Name = 
  16 active torsions:
  status: ('A' for Active; 'I' for Inactive)
    1  A    between atoms: C_1  and  O_25
    2  A    between atoms: C_1  and  C_35
    3  A    between atoms: C_2  and  C_15
    4  A    between atoms: C_2  and  C_19
    5  A    between atoms: C_3  and  C_34
    6  A    between atoms: C_4  and  O_25
    7  A    between atoms: C_8  and  C_16
    8  A    between atoms: C_8  and  C_21
    9  A    between atoms: C_8  and  C_24
   10  A    between atoms: C_10  and  C_19
   11  A    between atoms: C_10  and  O_30
   12  A    between atoms: C_14  and  O_27
   13  A    between atoms: C_15  and  C_29
   14  A    between atoms: C_15  and  C_35
   15  A    between atoms: C_16  and  C_34
   16  A    between atoms: C_19  and  O_20
                            x       y       z     vdW  Elec       q    Type
                         _______ _______ _______ _____ _____    ______ ____

>  <TORSDO>
F 16

$$$$
=
 OpenBabel11062415333D

 35 40  0  0  1  0  0  0  0  0999 V2000
  183.7120  179.0660  144.6290 C   0  0  0  0  0  2  0  0  0  0  0  0
  184.5910  179.3050  143.3910 C   0  0  2  0  0  0  0  0  0  0  0  0
  185.6790  178.3320  142.8790 C   0  0  1  0  0  3  0  0  0  0  0  0
  186.2760  177.5440  144.0310 C   0  0  2  0  0  3  0  0  0  0  0  0
  185.1020  179.5100  144.8400 C   0  0  2  0  0  3  0  0  0  0  0  0
  184.2590  177.9660  142.7100 C   0  0  2  0  0  3  0  0  0  0  0  0
  185.9660  178.3420  145.2730 C   0  0  0  0  0  2  0  0  0  0  0  0
  187.7900  177.3150  143.8480 C   0  0  2  0  0  0  0  0  0  0  0  0
  188.0250  175.9530  143.6930 F   0  0  0  0  0  0  0  0  0  0  0  0
  189.3430  176.8260  145.8240 C   0  0  1  0  0  3  0  0  0  0  0  0
  190.0570  177.7840  144.9010 C   0  0  2  0  0  3  0  0  0  0  0  0
  190.6700  177.4290  146.2440 C   0  0  2  0  0  3  0  0  0  0  0  0
  188.5500  177.8820  145.0680 C   0  0  1  0  0  3  0  0  0  0  0  0
  191.9510  176.0090  147.3410 C   0  0  0  0  0  1  0  0  0  0  0  0
  191.6890  176.4960  146.0590 O   0  0  0  0  0  0  0  0  0  0  0  0
  188.2870  178.0200  142.5770 C   0  0  0  0  0  2  0  0  0  0  0  0
  189.0270  177.0820  141.6280 C   0  0  0  0  0  2  0  0  0  0  0  0
  189.0680  177.6640  140.2600 C   0  0  0  0  0  0  0  0  0  0  0  0
  188.6230  178.8240  140.0540 O   0  0  0  0  0  1  0  0  0  0  0  0
  189.5870  176.9210  139.2050 O   0  0  0  0  0  0  0  0  0  0  0  0
  183.8520  178.2090  141.2630 C   0  0  2  0  0  3  0  0  0  0  0  0
  185.0180  178.7190  140.4070 C   0  0  0  0  0  2  0  0  0  0  0  0
  184.9080  178.3410  138.9280 C   0  0  0  0  0  2  0  0  0  0  0  0
  185.9390  178.9320  138.1870 O   0  0  0  0  0  0  0  0  0  0  0  0
  186.5350  177.8800  137.4870 C   0  0  1  0  0  3  0  0  0  0  0  0
  188.7570  178.8110  136.6290 O   0  0  0  0  0  0  0  0  0  0  0  0
  186.2590  177.9990  136.1520 O   0  0  0  0  0  0  0  0  0  0  0  0
  187.5840  178.3700  136.7410 C   0  0  0  0  0  0  0  0  0  0  0  0
  182.6390  179.1330  141.2000 C   0  0  0  0  0  2  0  0  0  0  0  0
  181.3360  178.3320  141.2400 C   0  0  2  0  0  3  0  0  0  0  0  0
  180.4690  176.8950  139.6700 C   0  0  0  0  0  1  0  0  0  0  0  0
  180.6870  178.2480  139.9860 O   0  0  0  0  0  0  0  0  0  0  0  0
  180.4070  178.7970  142.3620 C   0  0  0  0  0  2  0  0  0  0  0  0
  179.8480  180.8550  142.6080 O   0  0  0  0  0  1  0  0  0  0  0  0
  180.8400  180.0260  142.8580 O   0  0  0  0  0  0  0  0  0  0  0  0
  1  5  1  0  0  0  0
  2  1  1  1  0  0  0
  2  5  1  0  0  0  0
  3  2  1  0  0  0  0
  3  4  1  0  0  0  0
  4  7  1  0  0  0  0
  5  7  1  0  0  0  0
  6  3  1  0  0  0  0
  6  2  1  0  0  0  0
  8  4  1  0  0  0  0
  8 13  1  0  0  0  0
  9  8  1  0  0  0  0
 10 12  1  0  0  0  0
 11 13  1  0  0  0  0
 11 10  1  0  0  0  0
 11 12  1  0  0  0  0
 13 10  1  0  0  0  0
 15 12  1  0  0  0  0
 15 14  1  0  0  0  0
 16  8  1  0  0  0  0
 17 16  1  0  0  0  0
 18 17  1  0  0  0  0
 19 18  1  0  0  0  0
 20 18  2  0  0  0  0
 21  6  1  0  0  0  0
 22 21  1  0  0  0  0
 23 22  1  0  0  0  0
 24 23  1  0  0  0  0
 25 24  1  0  0  0  0
 26 28  2  0  0  0  0
 27 28  1  0  0  0  0
 27 25  1  0  0  0  0
 28 25  1  0  0  0  0
 29 30  1  0  0  0  0
 29 21  1  0  0  0  0
 30 33  1  0  0  0  0
 31 32  1  0  0  0  0
 32 30  1  0  0  0  0
 33 35  1  0  0  0  0
 34 35  1  0  0  0  0
M  END
>  <MODEL>
6

>  <REMARK>
 VINA RESULT:      -7.6      1.864      5.614
  Name = 
  16 active torsions:
  status: ('A' for Active; 'I' for Inactive)
    1  A    between atoms: C_1  and  O_25
    2  A    between atoms: C_1  and  C_35
    3  A    between atoms: C_2  and  C_15
    4  A    between atoms: C_2  and  C_19
    5  A    between atoms: C_3  and  C_34
    6  A    between atoms: C_4  and  O_25
    7  A    between atoms: C_8  and  C_16
    8  A    between atoms: C_8  and  C_21
    9  A    between atoms: C_8  and  C_24
   10  A    between atoms: C_10  and  C_19
   11  A    between atoms: C_10  and  O_30
   12  A    between atoms: C_14  and  O_27
   13  A    between atoms: C_15  and  C_29
   14  A    between atoms: C_15  and  C_35
   15  A    between atoms: C_16  and  C_34
   16  A    between atoms: C_19  and  O_20
                            x       y       z     vdW  Elec       q    Type
                         _______ _______ _______ _____ _____    ______ ____

>  <TORSDO>
F 16

$$$$
=
 OpenBabel11062415333D

 35 40  0  0  1  0  0  0  0  0999 V2000
  187.2880  177.8240  147.3500 C   0  0  0  0  0  2  0  0  0  0  0  0
  187.1440  177.1300  145.9850 C   0  0  2  0  0  0  0  0  0  0  0  0
  186.7430  177.8410  144.6720 C   0  0  1  0  0  3  0  0  0  0  0  0
  185.8470  179.0320  144.9600 C   0  0  2  0  0  3  0  0  0  0  0  0
  185.9290  177.5250  146.8640 C   0  0  2  0  0  3  0  0  0  0  0  0
  188.0860  178.0840  145.2310 C   0  0  2  0  0  3  0  0  0  0  0  0
  185.2730  178.7850  146.3340 C   0  0  0  0  0  2  0  0  0  0  0  0
  184.7480  179.1980  143.8910 C   0  0  2  0  0  0  0  0  0  0  0  0
  184.7590  180.5110  143.4320 F   0  0  0  0  0  0  0  0  0  0  0  0
  182.2310  179.6640  143.9490 C   0  0  1  0  0  3  0  0  0  0  0  0
  182.4270  178.2500  143.4590 C   0  0  2  0  0  3  0  0  0  0  0  0
  181.0280  178.7630  143.7460 C   0  0  2  0  0  3  0  0  0  0  0  0
  183.3760  178.8250  144.4970 C   0  0  1  0  0  3  0  0  0  0  0  0
  179.7170  180.2760  142.8230 C   0  0  0  0  0  1  0  0  0  0  0  0
  180.3950  179.0880  142.5470 O   0  0  0  0  0  0  0  0  0  0  0  0
  185.0290  178.2830  142.6900 C   0  0  0  0  0  2  0  0  0  0  0  0
  185.5470  179.0440  141.4720 C   0  0  0  0  0  2  0  0  0  0  0  0
  184.5360  179.0170  140.3820 C   0  0  0  0  0  0  0  0  0  0  0  0
  183.7130  178.0670  140.3080 O   0  0  0  0  0  1  0  0  0  0  0  0
  184.5090  180.0360  139.4360 O   0  0  0  0  0  0  0  0  0  0  0  0
  189.1070  177.2800  144.4380 C   0  0  2  0  0  3  0  0  0  0  0  0
  190.4530  178.0060  144.3140 C   0  0  0  0  0  2  0  0  0  0  0  0
  191.6300  177.2290  144.9090 C   0  0  0  0  0  2  0  0  0  0  0  0
  191.7780  177.5190  146.2710 O   0  0  0  0  0  0  0  0  0  0  0  0
  191.4060  176.3480  146.9370 C   0  0  1  0  0  3  0  0  0  0  0  0
  193.1120  176.0690  148.8210 O   0  0  0  0  0  0  0  0  0  0  0  0
  192.1360  175.2930  146.4600 O   0  0  0  0  0  0  0  0  0  0  0  0
  192.4300  175.9560  147.7700 C   0  0  0  0  0  0  0  0  0  0  0  0
  188.5350  176.8850  143.0790 C   0  0  0  0  0  2  0  0  0  0  0  0
  189.2230  177.6540  141.9490 C   0  0  2  0  0  3  0  0  0  0  0  0
  188.7240  178.2460  139.7850 C   0  0  0  0  0  1  0  0  0  0  0  0
  188.3240  178.3730  141.1280 O   0  0  0  0  0  0  0  0  0  0  0  0
  190.1830  176.7700  141.1500 C   0  0  0  0  0  2  0  0  0  0  0  0
  191.9600  177.0240  139.9740 O   0  0  0  0  0  1  0  0  0  0  0  0
  191.4590  177.3340  141.1510 O   0  0  0  0  0  0  0  0  0  0  0  0
  2  5  1  0  0  0  0
  2  1  1  1  0  0  0
  3  4  1  0  0  0  0
  3  6  1  0  0  0  0
  3  2  1  0  0  0  0
  4  7  1  0  0  0  0
  5  1  1  0  0  0  0
  6  2  1  0  0  0  0
  7  5  1  0  0  0  0
  8 13  1  0  0  0  0
  8  4  1  0  0  0  0
  9  8  1  0  0  0  0
 10 13  1  0  0  0  0
 11 12  1  0  0  0  0
 11 10  1  0  0  0  0
 11 13  1  0  0  0  0
 12 10  1  0  0  0  0
 15 14  1  0  0  0  0
 15 12  1  0  0  0  0
 16  8  1  0  0  0  0
 17 16  1  0  0  0  0
 18 17  1  0  0  0  0
 19 18  1  0  0  0  0
 20 18  2  0  0  0  0
 21  6  1  0  0  0  0
 22 21  1  0  0  0  0
 22 23  1  0  0  0  0
 23 24  1  0  0  0  0
 24 25  1  0  0  0  0
 25 28  1  0  0  0  0
 27 25  1  0  0  0  0
 27 28  1  0  0  0  0
 28 26  2  0  0  0  0
 29 21  1  0  0  0  0
 30 29  1  0  0  0  0
 31 32  1  0  0  0  0
 32 30  1  0  0  0  0
 33 35  1  0  0  0  0
 33 30  1  0  0  0  0
 34 35  1  0  0  0  0
M  END
>  <MODEL>
7

>  <REMARK>
 VINA RESULT:      -7.6      1.502      8.137
  Name = 
  16 active torsions:
  status: ('A' for Active; 'I' for Inactive)
    1  A    between atoms: C_1  and  O_25
    2  A    between atoms: C_1  and  C_35
    3  A    between atoms: C_2  and  C_15
    4  A    between atoms: C_2  and  C_19
    5  A    between atoms: C_3  and  C_34
    6  A    between atoms: C_4  and  O_25
    7  A    between atoms: C_8  and  C_16
    8  A    between atoms: C_8  and  C_21
    9  A    between atoms: C_8  and  C_24
   10  A    between atoms: C_10  and  C_19
   11  A    between atoms: C_10  and  O_30
   12  A    between atoms: C_14  and  O_27
   13  A    between atoms: C_15  and  C_29
   14  A    between atoms: C_15  and  C_35
   15  A    between atoms: C_16  and  C_34
   16  A    between atoms: C_19  and  O_20
                            x       y       z     vdW  Elec       q    Type
                         _______ _______ _______ _____ _____    ______ ____

>  <TORSDO>
F 16

$$$$
=
 OpenBabel11062415333D

 35 40  0  0  1  0  0  0  0  0999 V2000
  185.4940  179.1680  146.2640 C   0  0  0  0  0  2  0  0  0  0  0  0
  185.5280  177.8800  145.4260 C   0  0  2  0  0  0  0  0  0  0  0  0
  185.6040  177.8330  143.8830 C   0  0  1  0  0  3  0  0  0  0  0  0
  184.9390  179.0550  143.2770 C   0  0  2  0  0  3  0  0  0  0  0  0
  184.2540  178.7480  145.5870 C   0  0  2  0  0  3  0  0  0  0  0  0
  186.8010  178.2440  144.6420 C   0  0  2  0  0  3  0  0  0  0  0  0
  184.0220  179.5910  144.3490 C   0  0  0  0  0  2  0  0  0  0  0  0
  184.1810  178.7140  141.9780 C   0  0  2  0  0  0  0  0  0  0  0  0
  184.0710  177.3320  141.8690 F   0  0  0  0  0  0  0  0  0  0  0  0
  185.4610  178.2630  139.8070 C   0  0  1  0  0  3  0  0  0  0  0  0
  184.2160  179.0410  139.4560 C   0  0  2  0  0  3  0  0  0  0  0  0
  185.2570  178.7600  138.3890 C   0  0  2  0  0  3  0  0  0  0  0  0
  184.9300  179.3170  140.7680 C   0  0  1  0  0  3  0  0  0  0  0  0
  185.9770  177.2890  136.9120 C   0  0  0  0  0  1  0  0  0  0  0  0
  184.8250  177.7090  137.5810 O   0  0  0  0  0  0  0  0  0  0  0  0
  182.7580  179.2910  142.0230 C   0  0  0  0  0  2  0  0  0  0  0  0
  181.6870  178.2580  141.6850 C   0  0  0  0  0  2  0  0  0  0  0  0
  180.5230  178.4070  142.5980 C   0  0  0  0  0  0  0  0  0  0  0  0
  179.3510  178.3480  142.1430 O   0  0  0  0  0  0  0  0  0  0  0  0
  180.7310  178.6260  143.9560 O   0  0  0  0  0  1  0  0  0  0  0  0
  187.7840  177.0830  144.6860 C   0  0  2  0  0  3  0  0  0  0  0  0
  189.0560  177.4260  145.4710 C   0  0  0  0  0  2  0  0  0  0  0  0
  188.9460  177.1540  146.9740 C   0  0  0  0  0  2  0  0  0  0  0  0
  190.2050  177.2200  147.5830 O   0  0  0  0  0  0  0  0  0  0  0  0
  190.9690  176.2350  146.9520 C   0  0  1  0  0  3  0  0  0  0  0  0
  192.8060  175.6280  148.6230 O   0  0  0  0  0  0  0  0  0  0  0  0
  192.0560  176.8080  146.3490 O   0  0  0  0  0  0  0  0  0  0  0  0
  192.1470  176.0620  147.6440 C   0  0  0  0  0  0  0  0  0  0  0  0
  188.0890  176.5890  143.2750 C   0  0  0  0  0  2  0  0  0  0  0  0
  189.2570  177.3650  142.6620 C   0  0  2  0  0  3  0  0  0  0  0  0
  189.0240  177.8600  140.4300 C   0  0  0  0  0  1  0  0  0  0  0  0
  188.8520  178.3540  141.7360 O   0  0  0  0  0  0  0  0  0  0  0  0
  190.3390  176.4370  142.1070 C   0  0  0  0  0  2  0  0  0  0  0  0
  191.4560  175.3530  143.5850 O   0  0  0  0  0  1  0  0  0  0  0  0
  190.3720  175.2530  142.8440 O   0  0  0  0  0  0  0  0  0  0  0  0
  2  5  1  0  0  0  0
  2  1  1  6  0  0  0
  3  6  1  0  0  0  0
  3  2  1  0  0  0  0
  4  3  1  0  0  0  0
  4  7  1  0  0  0  0
  5  1  1  0  0  0  0
  6 21  1  0  0  0  0
  6  2  1  0  0  0  0
  7  5  1  0  0  0  0
  8 16  1  0  0  0  0
  8  4  1  0  0  0  0
  9  8  1  0  0  0  0
 10 13  1  0  0  0  0
 11 10  1  0  0  0  0
 11 13  1  0  0  0  0
 12 11  1  0  0  0  0
 12 10  1  0  0  0  0
 13  8  1  0  0  0  0
 14 15  1  0  0  0  0
 15 12  1  0  0  0  0
 17 16  1  0  0  0  0
 17 18  1  0  0  0  0
 18 20  1  0  0  0  0
 19 18  2  0  0  0  0
 21 22  1  0  0  0  0
 22 23  1  0  0  0  0
 23 24  1  0  0  0  0
 25 24  1  0  0  0  0
 25 28  1  0  0  0  0
 27 25  1  0  0  0  0
 27 28  1  0  0  0  0
 28 26  2  0  0  0  0
 29 21  1  0  0  0  0
 30 29  1  0  0  0  0
 31 32  1  0  0  0  0
 32 30  1  0  0  0  0
 33 30  1  0  0  0  0
 33 35  1  0  0  0  0
 35 34  1  0  0  0  0
M  END
>  <MODEL>
8

>  <REMARK>
 VINA RESULT:      -7.4      1.905      7.958
  Name = 
  16 active torsions:
  status: ('A' for Active; 'I' for Inactive)
    1  A    between atoms: C_1  and  O_25
    2  A    between atoms: C_1  and  C_35
    3  A    between atoms: C_2  and  C_15
    4  A    between atoms: C_2  and  C_19
    5  A    between atoms: C_3  and  C_34
    6  A    between atoms: C_4  and  O_25
    7  A    between atoms: C_8  and  C_16
    8  A    between atoms: C_8  and  C_21
    9  A    between atoms: C_8  and  C_24
   10  A    between atoms: C_10  and  C_19
   11  A    between atoms: C_10  and  O_30
   12  A    between atoms: C_14  and  O_27
   13  A    between atoms: C_15  and  C_29
   14  A    between atoms: C_15  and  C_35
   15  A    between atoms: C_16  and  C_34
   16  A    between atoms: C_19  and  O_20
                            x       y       z     vdW  Elec       q    Type
                         _______ _______ _______ _____ _____    ______ ____

>  <TORSDO>
F 16

$$$$
=
 OpenBabel11062415333D

 35 40  0  0  1  0  0  0  0  0999 V2000
  184.9280  178.2610  146.7340 C   0  0  0  0  0  2  0  0  0  0  0  0
  185.6220  179.0910  145.6420 C   0  0  2  0  0  0  0  0  0  0  0  0
  186.6160  178.5250  144.6010 C   0  0  1  0  0  3  0  0  0  0  0  0
  187.3640  177.3330  145.1680 C   0  0  2  0  0  3  0  0  0  0  0  0
  186.3380  178.6390  146.9410 C   0  0  2  0  0  3  0  0  0  0  0  0
  185.1830  178.1950  144.4700 C   0  0  2  0  0  3  0  0  0  0  0  0
  187.2440  177.4540  146.6680 C   0  0  0  0  0  2  0  0  0  0  0  0
  188.8340  177.3000  144.7020 C   0  0  2  0  0  0  0  0  0  0  0  0
  189.1550  176.0050  144.3110 F   0  0  0  0  0  0  0  0  0  0  0  0
  189.9660  176.7370  146.9290 C   0  0  1  0  0  3  0  0  0  0  0  0
  191.0510  177.0030  145.9130 C   0  0  2  0  0  3  0  0  0  0  0  0
  191.4150  176.7930  147.3720 C   0  0  2  0  0  3  0  0  0  0  0  0
  189.7510  177.7860  145.8480 C   0  0  1  0  0  3  0  0  0  0  0  0
  192.9020  175.6330  148.5140 C   0  0  0  0  0  1  0  0  0  0  0  0
  191.9020  175.4990  147.5490 O   0  0  0  0  0  0  0  0  0  0  0  0
  189.0280  178.2150  143.4840 C   0  0  0  0  0  2  0  0  0  0  0  0
  190.4950  178.5360  143.2100 C   0  0  0  0  0  2  0  0  0  0  0  0
  191.0650  177.5500  142.2530 C   0  0  0  0  0  0  0  0  0  0  0  0
  190.6370  177.4980  141.0700 O   0  0  0  0  0  0  0  0  0  0  0  0
  192.0620  176.6750  142.6710 O   0  0  0  0  0  1  0  0  0  0  0  0
  184.5750  179.0500  143.3670 C   0  0  2  0  0  3  0  0  0  0  0  0
  183.2890  179.7540  143.8170 C   0  0  0  0  0  2  0  0  0  0  0  0
  182.0130  179.1360  143.2390 C   0  0  0  0  0  2  0  0  0  0  0  0
  181.0410  180.1190  143.0190 O   0  0  0  0  0  0  0  0  0  0  0  0
  179.8970  179.4200  142.6260 C   0  0  1  0  0  3  0  0  0  0  0  0
  179.2630  177.9720  144.6360 O   0  0  0  0  0  0  0  0  0  0  0  0
  180.2480  178.1800  142.1640 O   0  0  0  0  0  0  0  0  0  0  0  0
  179.6580  178.4010  143.5220 C   0  0  0  0  0  0  0  0  0  0  0  0
  184.3710  178.2220  142.1020 C   0  0  0  0  0  2  0  0  0  0  0  0
  184.9270  178.9470  140.8740 C   0  0  2  0  0  3  0  0  0  0  0  0
  183.7120  179.7600  139.1020 C   0  0  0  0  0  1  0  0  0  0  0  0
  184.2710  178.6010  139.6710 O   0  0  0  0  0  0  0  0  0  0  0  0
  186.4490  178.8350  140.7770 C   0  0  0  0  0  2  0  0  0  0  0  0
  188.1070  178.6470  139.4270 O   0  0  0  0  0  1  0  0  0  0  0  0
  186.8130  178.4130  139.4990 O   0  0  0  0  0  0  0  0  0  0  0  0
  1  5  1  0  0  0  0
  2  1  1  1  0  0  0
  2  5  1  0  0  0  0
  3  4  1  0  0  0  0
  3  2  1  0  0  0  0
  4  7  1  0  0  0  0
  6  3  1  0  0  0  0
  6  2  1  0  0  0  0
  7  5  1  0  0  0  0
  8  4  1  0  0  0  0
  8 13  1  0  0  0  0
  9  8  1  0  0  0  0
 10 12  1  0  0  0  0
 11 10  1  0  0  0  0
 11 12  1  0  0  0  0
 12 15  1  0  0  0  0
 13 11  1  0  0  0  0
 13 10  1  0  0  0  0
 15 14  1  0  0  0  0
 16  8  1  0  0  0  0
 17 16  1  0  0  0  0
 18 20  1  0  0  0  0
 18 17  1  0  0  0  0
 19 18  2  0  0  0  0
 21 22  1  0  0  0  0
 21  6  1  0  0  0  0
 23 22  1  0  0  0  0
 24 23  1  0  0  0  0
 25 24  1  0  0  0  0
 25 28  1  0  0  0  0
 27 25  1  0  0  0  0
 27 28  1  0  0  0  0
 28 26  2  0  0  0  0
 29 21  1  0  0  0  0
 30 29  1  0  0  0  0
 31 32  1  0  0  0  0
 32 30  1  0  0  0  0
 33 30  1  0  0  0  0
 34 35  1  0  0  0  0
 35 33  1  0  0  0  0
M  END
>  <MODEL>
9

>  <REMARK>
 VINA RESULT:      -7.3      1.106      3.078
  Name = 
  16 active torsions:
  status: ('A' for Active; 'I' for Inactive)
    1  A    between atoms: C_1  and  O_25
    2  A    between atoms: C_1  and  C_35
    3  A    between atoms: C_2  and  C_15
    4  A    between atoms: C_2  and  C_19
    5  A    between atoms: C_3  and  C_34
    6  A    between atoms: C_4  and  O_25
    7  A    between atoms: C_8  and  C_16
    8  A    between atoms: C_8  and  C_21
    9  A    between atoms: C_8  and  C_24
   10  A    between atoms: C_10  and  C_19
   11  A    between atoms: C_10  and  O_30
   12  A    between atoms: C_14  and  O_27
   13  A    between atoms: C_15  and  C_29
   14  A    between atoms: C_15  and  C_35
   15  A    between atoms: C_16  and  C_34
   16  A    between atoms: C_19  and  O_20
                            x       y       z     vdW  Elec       q    Type
                         _______ _______ _______ _____ _____    ______ ____

>  <TORSDO>
F 16

$$$$
