=
 OpenBabel11062417573D

 40 43  0  0  1  0  0  0  0  0999 V2000
  184.3740  177.6850  143.2000 C   0  0  0  0  0  3  0  0  0  0  0  0
  184.0410  178.6760  140.9040 C   0  0  0  0  0  0  0  0  0  0  0  0
  183.9470  178.8350  144.0900 C   0  0  2  0  0  3  0  0  0  0  0  0
  184.4740  177.6340  141.8640 C   0  0  0  0  0  3  0  0  0  0  0  0
  181.7390  178.4640  141.7800 C   0  0  2  0  0  3  0  0  0  0  0  0
  181.6380  179.2900  143.0630 C   0  0  0  0  0  2  0  0  0  0  0  0
  182.9850  179.8640  143.4980 C   0  0  0  0  0  2  0  0  0  0  0  0
  182.7460  179.0220  140.8010 C   0  0  0  0  0  0  0  0  0  0  0  0
  182.3630  180.0570  139.8890 N   0  0  0  0  0  2  0  0  0  0  0  0
  181.3590  180.7290  137.8360 N   0  0  0  0  0  0  0  0  0  0  0  0
  181.7170  179.7890  138.6420 C   0  0  0  0  0  0  0  0  0  0  0  0
  180.7000  178.8810  136.8450 C   0  0  0  0  0  0  0  0  0  0  0  0
  181.3470  178.4330  138.1220 C   0  0  1  0  0  3  0  0  0  0  0  0
  180.7290  180.1660  136.7230 N   0  0  0  0  0  0  0  0  0  0  0  0
  182.6790  176.2860  138.3930 C   0  0  0  0  0  3  0  0  0  0  0  0
  182.5600  177.5830  137.8670 C   0  0  0  0  0  0  0  0  0  0  0  0
  184.7170  177.3280  136.7880 C   0  0  0  0  0  3  0  0  0  0  0  0
  183.8130  175.5170  138.1170 C   0  0  0  0  0  3  0  0  0  0  0  0
  183.5840  178.0970  137.0650 C   0  0  0  0  0  3  0  0  0  0  0  0
  184.8310  176.0370  137.3130 C   0  0  0  0  0  3  0  0  0  0  0  0
  179.9720  178.3760  134.6540 O   0  0  0  0  0  0  0  0  0  0  0  0
  179.5900  176.7120  136.2460 N   0  0  0  0  0  2  0  0  0  0  0  0
  180.0750  177.9980  135.8520 C   0  0  0  0  0  0  0  0  0  0  0  0
  178.9310  175.8020  135.3210 C   0  0  0  0  0  2  0  0  0  0  0  0
  179.5500  174.4200  135.4200 C   0  0  0  0  0  1  0  0  0  0  0  0
  180.0410  176.9140  140.7020 N   0  0  0  0  0  1  0  0  0  0  0  0
  180.3960  178.2120  141.1720 C   0  0  0  0  0  0  0  0  0  0  0  0
  179.5600  179.1500  141.1050 O   0  0  0  0  0  0  0  0  0  0  0  0
  185.1750  179.5700  144.6070 C   0  0  0  0  0  2  0  0  0  0  0  0
  185.5340  179.1390  146.0240 C   0  0  0  0  0  2  0  0  0  0  0  0
  186.4440  177.9180  146.0210 C   0  0  0  0  0  2  0  0  0  0  0  0
  188.7690  177.8330  145.5400 O   0  0  0  0  0  0  0  0  0  0  0  0
  187.6600  176.8880  144.2500 O   0  0  0  0  0  0  0  0  0  0  0  0
  187.5360  178.0570  144.9680 C   0  0  0  0  0  3  0  0  0  0  0  0
  188.8490  176.7180  144.8200 O   0  0  0  0  0  0  0  0  0  0  0  0
  184.9710  179.2600  140.0340 O   0  0  0  0  0  0  0  0  0  0  0  0
  186.2160  178.6540  139.7090 C   0  0  0  0  0  2  0  0  0  0  0  0
  187.1560  178.7270  140.8980 C   0  0  0  0  0  2  0  0  0  0  0  0
  188.2780  177.9370  140.6550 O   0  0  0  0  0  0  0  0  0  0  0  0
  188.7240  178.3440  139.3990 C   0  0  0  0  0  1  0  0  0  0  0  0
  1  3  1  0  0  0  0
  2  4  1  0  0  0  0
  3 29  1  6  0  0  0
  4  1  2  0  0  0  0
  5 27  1  6  0  0  0
  5  6  1  0  0  0  0
  6  7  1  0  0  0  0
  7  3  1  0  0  0  0
  8  2  2  0  0  0  0
  8  5  1  0  0  0  0
  9  8  1  0  0  0  0
 10 11  2  0  0  0  0
 11  9  1  0  0  0  0
 12 13  1  0  0  0  0
 13 16  1  6  0  0  0
 13 11  1  0  0  0  0
 14 12  2  0  0  0  0
 14 10  1  0  0  0  0
 16 15  2  0  0  0  0
 17 19  2  0  0  0  0
 17 20  1  0  0  0  0
 18 15  1  0  0  0  0
 19 16  1  0  0  0  0
 20 18  2  0  0  0  0
 21 23  2  0  0  0  0
 23 22  1  0  0  0  0
 23 12  1  0  0  0  0
 24 25  1  0  0  0  0
 24 22  1  0  0  0  0
 26 27  1  0  0  0  0
 28 27  2  0  0  0  0
 29 30  1  0  0  0  0
 31 30  1  0  0  0  0
 33 35  1  0  0  0  0
 33 34  1  0  0  0  0
 34 32  1  0  0  0  0
 34 31  1  0  0  0  0
 35 32  1  0  0  0  0
 36  2  1  0  0  0  0
 37 36  1  0  0  0  0
 37 38  1  0  0  0  0
 39 38  1  0  0  0  0
 40 39  1  0  0  0  0
M  END
>  <MODEL>
1

>  <REMARK>
 VINA RESULT:      -4.4      0.000      0.000
  Name = 
  13 active torsions:
  status: ('A' for Active; 'I' for Inactive)
    1  A    between atoms: N_1  and  C_39
    2  A    between atoms: N_5  and  C_20
    3  A    between atoms: C_6  and  C_14
    4  A    between atoms: C_6  and  C_23
    5  A    between atoms: C_8  and  C_19
    6  A    between atoms: C_9  and  O_29
    7  A    between atoms: O_10  and  C_18
    8  A    between atoms: C_12  and  C_24
    9  A    between atoms: C_14  and  C_15
   10  A    between atoms: C_16  and  C_28
   11  A    between atoms: C_18  and  C_34
   12  A    between atoms: C_23  and  C_36
   13  A    between atoms: O_29  and  C_34
                            x       y       z     vdW  Elec       q    Type
                         _______ _______ _______ _____ _____    ______ ____

>  <TORSDO>
F 13

$$$$
=
 OpenBabel11062417573D

 40 43  0  0  1  0  0  0  0  0999 V2000
  188.1950  176.0020  137.9940 C   0  0  0  0  0  3  0  0  0  0  0  0
  186.1170  177.3670  137.5630 C   0  0  0  0  0  0  0  0  0  0  0  0
  189.2590  177.0800  138.0500 C   0  0  2  0  0  3  0  0  0  0  0  0
  186.8850  176.1110  137.7290 C   0  0  0  0  0  3  0  0  0  0  0  0
  186.7680  178.0150  139.8590 C   0  0  2  0  0  3  0  0  0  0  0  0
  188.1770  178.6090  139.8070 C   0  0  0  0  0  2  0  0  0  0  0  0
  188.8100  178.4930  138.4210 C   0  0  0  0  0  2  0  0  0  0  0  0
  185.9910  178.2360  138.5820 C   0  0  0  0  0  0  0  0  0  0  0  0
  185.2720  179.4580  138.3800 N   0  0  0  0  0  2  0  0  0  0  0  0
  183.3030  180.7650  138.6770 N   0  0  0  0  0  0  0  0  0  0  0  0
  183.9360  179.6540  138.8470 C   0  0  0  0  0  0  0  0  0  0  0  0
  181.8950  179.5000  139.7950 C   0  0  0  0  0  0  0  0  0  0  0  0
  183.1150  178.6520  139.6010 C   0  0  1  0  0  3  0  0  0  0  0  0
  182.0400  180.6690  139.2640 N   0  0  0  0  0  0  0  0  0  0  0  0
  183.0150  176.1340  139.2700 C   0  0  0  0  0  3  0  0  0  0  0  0
  182.8230  177.4340  138.7710 C   0  0  0  0  0  0  0  0  0  0  0  0
  182.0230  176.4960  136.6810 C   0  0  0  0  0  3  0  0  0  0  0  0
  182.7130  175.0240  138.4750 C   0  0  0  0  0  3  0  0  0  0  0  0
  182.3270  177.6060  137.4740 C   0  0  0  0  0  3  0  0  0  0  0  0
  182.2150  175.2060  137.1820 C   0  0  0  0  0  3  0  0  0  0  0  0
  179.8310  178.3580  139.9530 O   0  0  0  0  0  0  0  0  0  0  0  0
  180.4740  179.5380  141.8620 N   0  0  0  0  0  2  0  0  0  0  0  0
  180.6820  179.0960  140.5180 C   0  0  0  0  0  0  0  0  0  0  0  0
  179.2800  179.2030  142.6250 C   0  0  0  0  0  2  0  0  0  0  0  0
  179.6660  178.5320  143.9290 C   0  0  0  0  0  1  0  0  0  0  0  0
  186.1850  179.7600  141.6080 N   0  0  0  0  0  1  0  0  0  0  0  0
  186.0280  178.4440  141.0860 C   0  0  0  0  0  0  0  0  0  0  0  0
  185.2330  177.6420  141.6420 O   0  0  0  0  0  0  0  0  0  0  0  0
  189.9950  177.1460  136.7200 C   0  0  0  0  0  2  0  0  0  0  0  0
  190.7370  175.8480  136.4230 C   0  0  0  0  0  2  0  0  0  0  0  0
  192.0430  176.1100  135.6860 C   0  0  0  0  0  2  0  0  0  0  0  0
  193.9270  176.8350  136.9400 O   0  0  0  0  0  0  0  0  0  0  0  0
  192.8460  175.4930  137.8430 O   0  0  0  0  0  0  0  0  0  0  0  0
  193.2390  175.7090  136.5400 C   0  0  0  0  0  3  0  0  0  0  0  0
  193.5310  176.5800  138.1830 O   0  0  0  0  0  0  0  0  0  0  0  0
  185.4470  177.6260  136.3620 O   0  0  0  0  0  0  0  0  0  0  0  0
  185.8790  177.1170  135.1060 C   0  0  0  0  0  2  0  0  0  0  0  0
  185.0360  175.9180  134.7130 C   0  0  0  0  0  2  0  0  0  0  0  0
  185.8510  174.7930  134.5940 O   0  0  0  0  0  0  0  0  0  0  0  0
  185.2110  173.8170  135.3560 C   0  0  0  0  0  1  0  0  0  0  0  0
  1  3  1  0  0  0  0
  2  4  1  0  0  0  0
  2  8  2  0  0  0  0
  3 29  1  6  0  0  0
  3  7  1  0  0  0  0
  4  1  2  0  0  0  0
  5 27  1  1  0  0  0
  6  5  1  0  0  0  0
  7  6  1  0  0  0  0
  8  5  1  0  0  0  0
  9  8  1  0  0  0  0
  9 11  1  0  0  0  0
 10 11  2  0  0  0  0
 10 14  1  0  0  0  0
 11 13  1  0  0  0  0
 12 23  1  0  0  0  0
 13 16  1  6  0  0  0
 13 12  1  0  0  0  0
 14 12  2  0  0  0  0
 16 15  1  0  0  0  0
 17 20  2  0  0  0  0
 17 19  1  0  0  0  0
 18 15  2  0  0  0  0
 19 16  2  0  0  0  0
 20 18  1  0  0  0  0
 21 23  2  0  0  0  0
 22 24  1  0  0  0  0
 23 22  1  0  0  0  0
 24 25  1  0  0  0  0
 27 26  1  0  0  0  0
 27 28  2  0  0  0  0
 30 29  1  0  0  0  0
 31 30  1  0  0  0  0
 31 34  1  0  0  0  0
 32 35  1  0  0  0  0
 33 35  1  0  0  0  0
 34 32  1  0  0  0  0
 34 33  1  0  0  0  0
 36  2  1  0  0  0  0
 37 36  1  0  0  0  0
 38 37  1  0  0  0  0
 39 38  1  0  0  0  0
 39 40  1  0  0  0  0
M  END
>  <MODEL>
2

>  <REMARK>
 VINA RESULT:      -4.3      3.141      6.407
  Name = 
  13 active torsions:
  status: ('A' for Active; 'I' for Inactive)
    1  A    between atoms: N_1  and  C_39
    2  A    between atoms: N_5  and  C_20
    3  A    between atoms: C_6  and  C_14
    4  A    between atoms: C_6  and  C_23
    5  A    between atoms: C_8  and  C_19
    6  A    between atoms: C_9  and  O_29
    7  A    between atoms: O_10  and  C_18
    8  A    between atoms: C_12  and  C_24
    9  A    between atoms: C_14  and  C_15
   10  A    between atoms: C_16  and  C_28
   11  A    between atoms: C_18  and  C_34
   12  A    between atoms: C_23  and  C_36
   13  A    between atoms: O_29  and  C_34
                            x       y       z     vdW  Elec       q    Type
                         _______ _______ _______ _____ _____    ______ ____

>  <TORSDO>
F 13

$$$$
=
 OpenBabel11062417573D

 40 43  0  0  1  0  0  0  0  0999 V2000
  184.9130  174.8440  137.1730 C   0  0  0  0  0  3  0  0  0  0  0  0
  182.9420  176.4140  137.0530 C   0  0  0  0  0  0  0  0  0  0  0  0
  185.9350  175.5750  136.3250 C   0  0  2  0  0  3  0  0  0  0  0  0
  183.6370  175.1610  137.4310 C   0  0  0  0  0  3  0  0  0  0  0  0
  184.6110  177.6820  138.3640 C   0  0  2  0  0  3  0  0  0  0  0  0
  185.8640  177.8550  137.5040 C   0  0  0  0  0  2  0  0  0  0  0  0
  185.7790  177.0880  136.1850 C   0  0  0  0  0  2  0  0  0  0  0  0
  183.3440  177.5990  137.5450 C   0  0  0  0  0  0  0  0  0  0  0  0
  182.6750  178.7960  137.1330 N   0  0  0  0  0  2  0  0  0  0  0  0
  181.1550  180.5710  137.5930 N   0  0  0  0  0  0  0  0  0  0  0  0
  181.7380  179.4830  137.9660 C   0  0  0  0  0  0  0  0  0  0  0  0
  180.3980  180.2140  139.6260 C   0  0  0  0  0  0  0  0  0  0  0  0
  181.3340  179.0770  139.3500 C   0  0  1  0  0  3  0  0  0  0  0  0
  180.3250  181.0240  138.6220 N   0  0  0  0  0  0  0  0  0  0  0  0
  179.5540  177.4810  138.4850 C   0  0  0  0  0  3  0  0  0  0  0  0
  180.6220  177.7530  139.3570 C   0  0  0  0  0  0  0  0  0  0  0  0
  180.4330  175.5100  140.2630 C   0  0  0  0  0  3  0  0  0  0  0  0
  178.9310  176.2300  138.5060 C   0  0  0  0  0  3  0  0  0  0  0  0
  181.0560  176.7610  140.2440 C   0  0  0  0  0  3  0  0  0  0  0  0
  179.3720  175.2450  139.3930 C   0  0  0  0  0  3  0  0  0  0  0  0
  178.9310  181.4460  141.0110 O   0  0  0  0  0  0  0  0  0  0  0  0
  179.7830  179.4840  141.9460 N   0  0  0  0  0  2  0  0  0  0  0  0
  179.6650  180.4300  140.8800 C   0  0  0  0  0  0  0  0  0  0  0  0
  179.1110  179.6520  143.2260 C   0  0  0  0  0  2  0  0  0  0  0  0
  179.5830  178.5940  144.2050 C   0  0  0  0  0  1  0  0  0  0  0  0
  184.7700  180.0780  139.1900 N   0  0  0  0  0  1  0  0  0  0  0  0
  184.5440  178.6970  139.4610 C   0  0  0  0  0  0  0  0  0  0  0  0
  184.2520  178.3300  140.6280 O   0  0  0  0  0  0  0  0  0  0  0  0
  185.9760  174.9670  134.9300 C   0  0  0  0  0  2  0  0  0  0  0  0
  186.4760  173.5280  134.9590 C   0  0  0  0  0  2  0  0  0  0  0  0
  187.9960  173.4660  134.9070 C   0  0  0  0  0  2  0  0  0  0  0  0
  189.9270  172.6940  136.0570 O   0  0  0  0  0  0  0  0  0  0  0  0
  188.5770  173.4800  137.2170 O   0  0  0  0  0  0  0  0  0  0  0  0
  188.5490  172.6860  136.0920 C   0  0  0  0  0  3  0  0  0  0  0  0
  189.9040  173.4520  137.1490 O   0  0  0  0  0  0  0  0  0  0  0  0
  181.8060  176.3680  136.2350 O   0  0  0  0  0  0  0  0  0  0  0  0
  181.7500  175.6210  135.0260 C   0  0  0  0  0  2  0  0  0  0  0  0
  180.5440  174.7000  135.0390 C   0  0  0  0  0  2  0  0  0  0  0  0
  180.8470  173.5460  135.7590 O   0  0  0  0  0  0  0  0  0  0  0  0
  181.9500  173.0030  135.1010 C   0  0  0  0  0  1  0  0  0  0  0  0
  1  4  2  0  0  0  0
  2  4  1  0  0  0  0
  2  8  2  0  0  0  0
  3 29  1  6  0  0  0
  3  1  1  0  0  0  0
  5 27  1  1  0  0  0
  6  5  1  0  0  0  0
  7  3  1  0  0  0  0
  7  6  1  0  0  0  0
  8  5  1  0  0  0  0
  9  8  1  0  0  0  0
  9 11  1  0  0  0  0
 10 11  2  0  0  0  0
 10 14  1  0  0  0  0
 11 13  1  0  0  0  0
 12 23  1  0  0  0  0
 13 16  1  6  0  0  0
 13 12  1  0  0  0  0
 14 12  2  0  0  0  0
 15 18  2  0  0  0  0
 15 16  1  0  0  0  0
 16 19  2  0  0  0  0
 18 20  1  0  0  0  0
 19 17  1  0  0  0  0
 20 17  2  0  0  0  0
 22 24  1  0  0  0  0
 23 21  2  0  0  0  0
 23 22  1  0  0  0  0
 24 25  1  0  0  0  0
 26 27  1  0  0  0  0
 27 28  2  0  0  0  0
 29 30  1  0  0  0  0
 31 30  1  0  0  0  0
 31 34  1  0  0  0  0
 32 34  1  0  0  0  0
 32 35  1  0  0  0  0
 34 33  1  0  0  0  0
 35 33  1  0  0  0  0
 36  2  1  0  0  0  0
 37 38  1  0  0  0  0
 37 36  1  0  0  0  0
 38 39  1  0  0  0  0
 40 39  1  0  0  0  0
M  END
>  <MODEL>
3

>  <REMARK>
 VINA RESULT:      -4.2      3.371      7.057
  Name = 
  13 active torsions:
  status: ('A' for Active; 'I' for Inactive)
    1  A    between atoms: N_1  and  C_39
    2  A    between atoms: N_5  and  C_20
    3  A    between atoms: C_6  and  C_14
    4  A    between atoms: C_6  and  C_23
    5  A    between atoms: C_8  and  C_19
    6  A    between atoms: C_9  and  O_29
    7  A    between atoms: O_10  and  C_18
    8  A    between atoms: C_12  and  C_24
    9  A    between atoms: C_14  and  C_15
   10  A    between atoms: C_16  and  C_28
   11  A    between atoms: C_18  and  C_34
   12  A    between atoms: C_23  and  C_36
   13  A    between atoms: O_29  and  C_34
                            x       y       z     vdW  Elec       q    Type
                         _______ _______ _______ _____ _____    ______ ____

>  <TORSDO>
F 13

$$$$
=
 OpenBabel11062417573D

 40 43  0  0  1  0  0  0  0  0999 V2000
  184.9420  176.3530  135.5140 C   0  0  0  0  0  3  0  0  0  0  0  0
  186.8290  175.5350  136.9750 C   0  0  0  0  0  0  0  0  0  0  0  0
  184.1650  177.2230  136.4820 C   0  0  2  0  0  3  0  0  0  0  0  0
  186.0250  175.5940  135.7320 C   0  0  0  0  0  3  0  0  0  0  0  0
  187.2880  177.9530  136.7400 C   0  0  2  0  0  3  0  0  0  0  0  0
  186.0860  178.7230  137.2890 C   0  0  0  0  0  2  0  0  0  0  0  0
  184.9260  177.8050  137.6720 C   0  0  0  0  0  2  0  0  0  0  0  0
  187.4900  176.6180  137.4200 C   0  0  0  0  0  0  0  0  0  0  0  0
  188.2290  176.5400  138.6430 N   0  0  0  0  0  2  0  0  0  0  0  0
  190.3060  176.3050  139.7860 N   0  0  0  0  0  0  0  0  0  0  0  0
  189.6460  176.3560  138.6790 C   0  0  0  0  0  0  0  0  0  0  0  0
  191.8410  176.1060  138.2250 C   0  0  0  0  0  0  0  0  0  0  0  0
  190.5440  176.2300  137.4860 C   0  0  1  0  0  3  0  0  0  0  0  0
  191.6650  176.1510  139.5040 N   0  0  0  0  0  0  0  0  0  0  0  0
  190.3550  173.7080  137.2320 C   0  0  0  0  0  3  0  0  0  0  0  0
  190.2360  174.9970  136.6840 C   0  0  0  0  0  0  0  0  0  0  0  0
  189.4810  174.0220  134.5950 C   0  0  0  0  0  3  0  0  0  0  0  0
  190.0400  172.5850  136.4620 C   0  0  0  0  0  3  0  0  0  0  0  0
  189.7980  175.1450  135.3640 C   0  0  0  0  0  3  0  0  0  0  0  0
  189.6010  172.7420  135.1450 C   0  0  0  0  0  3  0  0  0  0  0  0
  193.8490  177.0120  137.3690 O   0  0  0  0  0  0  0  0  0  0  0  0
  193.6780  174.6850  137.2760 N   0  0  0  0  0  2  0  0  0  0  0  0
  193.1670  175.9790  137.6050 C   0  0  0  0  0  0  0  0  0  0  0  0
  194.9680  174.4900  136.6300 C   0  0  0  0  0  2  0  0  0  0  0  0
  194.9720  173.1830  135.8590 C   0  0  0  0  0  1  0  0  0  0  0  0
  189.4850  178.6370  135.6690 N   0  0  0  0  0  1  0  0  0  0  0  0
  188.5230  178.7960  136.7080 C   0  0  0  0  0  0  0  0  0  0  0  0
  188.6960  179.6760  137.5900 O   0  0  0  0  0  0  0  0  0  0  0  0
  182.9620  176.4560  137.0120 C   0  0  0  0  0  2  0  0  0  0  0  0
  183.0580  176.2280  138.5160 C   0  0  0  0  0  2  0  0  0  0  0  0
  181.7430  176.5480  139.2120 C   0  0  0  0  0  2  0  0  0  0  0  0
  182.3090  178.7350  139.9480 O   0  0  0  0  0  0  0  0  0  0  0  0
  180.7640  177.9710  140.8520 O   0  0  0  0  0  0  0  0  0  0  0  0
  181.9670  177.4780  140.3970 C   0  0  0  0  0  3  0  0  0  0  0  0
  181.1410  179.1680  140.4120 O   0  0  0  0  0  0  0  0  0  0  0  0
  186.9720  174.3230  137.6620 O   0  0  0  0  0  0  0  0  0  0  0  0
  186.4420  173.0920  137.1840 C   0  0  0  0  0  2  0  0  0  0  0  0
  184.9850  172.9620  137.5880 C   0  0  0  0  0  2  0  0  0  0  0  0
  184.4220  171.8560  136.9540 O   0  0  0  0  0  0  0  0  0  0  0  0
  183.0480  172.0210  137.1210 C   0  0  0  0  0  1  0  0  0  0  0  0
  1  4  2  0  0  0  0
  1  3  1  0  0  0  0
  2  8  2  0  0  0  0
  2 36  1  0  0  0  0
  3 29  1  1  0  0  0
  3  7  1  0  0  0  0
  4  2  1  0  0  0  0
  5 27  1  1  0  0  0
  5  6  1  0  0  0  0
  5  8  1  0  0  0  0
  6  7  1  0  0  0  0
  8  9  1  0  0  0  0
  9 11  1  0  0  0  0
 11 10  2  0  0  0  0
 12 14  2  0  0  0  0
 13 16  1  1  0  0  0
 13 12  1  0  0  0  0
 13 11  1  0  0  0  0
 14 10  1  0  0  0  0
 16 15  1  0  0  0  0
 17 20  2  0  0  0  0
 17 19  1  0  0  0  0
 18 15  2  0  0  0  0
 19 16  2  0  0  0  0
 20 18  1  0  0  0  0
 21 23  2  0  0  0  0
 22 23  1  0  0  0  0
 23 12  1  0  0  0  0
 24 22  1  0  0  0  0
 25 24  1  0  0  0  0
 26 27  1  0  0  0  0
 27 28  2  0  0  0  0
 29 30  1  0  0  0  0
 30 31  1  0  0  0  0
 31 34  1  0  0  0  0
 32 34  1  0  0  0  0
 32 35  1  0  0  0  0
 34 33  1  0  0  0  0
 35 33  1  0  0  0  0
 37 38  1  0  0  0  0
 37 36  1  0  0  0  0
 39 40  1  0  0  0  0
 39 38  1  0  0  0  0
M  END
>  <MODEL>
4

>  <REMARK>
 VINA RESULT:      -4.2      5.212      9.256
  Name = 
  13 active torsions:
  status: ('A' for Active; 'I' for Inactive)
    1  A    between atoms: N_1  and  C_39
    2  A    between atoms: N_5  and  C_20
    3  A    between atoms: C_6  and  C_14
    4  A    between atoms: C_6  and  C_23
    5  A    between atoms: C_8  and  C_19
    6  A    between atoms: C_9  and  O_29
    7  A    between atoms: O_10  and  C_18
    8  A    between atoms: C_12  and  C_24
    9  A    between atoms: C_14  and  C_15
   10  A    between atoms: C_16  and  C_28
   11  A    between atoms: C_18  and  C_34
   12  A    between atoms: C_23  and  C_36
   13  A    between atoms: O_29  and  C_34
                            x       y       z     vdW  Elec       q    Type
                         _______ _______ _______ _____ _____    ______ ____

>  <TORSDO>
F 13

$$$$
=
 OpenBabel11062417573D

 40 43  0  0  1  0  0  0  0  0999 V2000
  187.4500  178.5940  136.4430 C   0  0  0  0  0  3  0  0  0  0  0  0
  185.8350  176.8800  137.3480 C   0  0  0  0  0  0  0  0  0  0  0  0
  188.7470  178.1640  137.1000 C   0  0  2  0  0  3  0  0  0  0  0  0
  186.2140  178.0960  136.5910 C   0  0  0  0  0  3  0  0  0  0  0  0
  187.3150  175.5560  135.8740 C   0  0  2  0  0  3  0  0  0  0  0  0
  188.7500  175.6980  136.3860 C   0  0  0  0  0  2  0  0  0  0  0  0
  188.8670  176.7030  137.5310 C   0  0  0  0  0  2  0  0  0  0  0  0
  186.2850  175.6690  136.9740 C   0  0  0  0  0  0  0  0  0  0  0  0
  185.9300  174.5170  137.7460 N   0  0  0  0  0  2  0  0  0  0  0  0
  184.5420  172.6110  138.0860 N   0  0  0  0  0  0  0  0  0  0  0  0
  184.8430  173.6580  137.3950 C   0  0  0  0  0  0  0  0  0  0  0  0
  183.1000  172.6030  136.4270 C   0  0  0  0  0  0  0  0  0  0  0  0
  183.9470  173.8200  136.2050 C   0  0  1  0  0  3  0  0  0  0  0  0
  183.4630  171.9580  137.4860 N   0  0  0  0  0  0  0  0  0  0  0  0
  182.2510  175.3330  137.3430 C   0  0  0  0  0  3  0  0  0  0  0  0
  183.1400  175.0850  136.2830 C   0  0  0  0  0  0  0  0  0  0  0  0
  182.5850  177.2460  135.3320 C   0  0  0  0  0  3  0  0  0  0  0  0
  181.5330  176.5320  137.3920 C   0  0  0  0  0  3  0  0  0  0  0  0
  183.3010  176.0480  135.2810 C   0  0  0  0  0  3  0  0  0  0  0  0
  181.7020  177.4890  136.3880 C   0  0  0  0  0  3  0  0  0  0  0  0
  181.3170  173.0030  134.9270 O   0  0  0  0  0  0  0  0  0  0  0  0
  181.7340  170.7580  135.4150 N   0  0  0  0  0  2  0  0  0  0  0  0
  182.0070  172.1550  135.5540 C   0  0  0  0  0  0  0  0  0  0  0  0
  180.6460  170.2470  134.5940 C   0  0  0  0  0  2  0  0  0  0  0  0
  179.3330  170.3450  135.3470 C   0  0  0  0  0  1  0  0  0  0  0  0
  188.2550  173.4980  134.7240 N   0  0  0  0  0  1  0  0  0  0  0  0
  187.1440  174.3390  135.0230 C   0  0  0  0  0  0  0  0  0  0  0  0
  186.0010  174.0380  134.5940 O   0  0  0  0  0  0  0  0  0  0  0  0
  189.0280  179.0440  138.3090 C   0  0  0  0  0  2  0  0  0  0  0  0
  189.2890  178.2140  139.5610 C   0  0  0  0  0  2  0  0  0  0  0  0
  188.3070  178.5570  140.6720 C   0  0  0  0  0  2  0  0  0  0  0  0
  187.9070  177.2930  142.6430 O   0  0  0  0  0  0  0  0  0  0  0  0
  189.6730  177.0190  141.8730 O   0  0  0  0  0  0  0  0  0  0  0  0
  188.8360  178.1030  142.0250 C   0  0  0  0  0  3  0  0  0  0  0  0
  188.7520  176.2790  142.4830 O   0  0  0  0  0  0  0  0  0  0  0  0
  184.9360  176.9700  138.4180 O   0  0  0  0  0  0  0  0  0  0  0  0
  184.6390  178.1930  139.0810 C   0  0  0  0  0  2  0  0  0  0  0  0
  183.5120  177.9850  140.0760 C   0  0  0  0  0  2  0  0  0  0  0  0
  182.3820  178.6820  139.6530 O   0  0  0  0  0  0  0  0  0  0  0  0
  182.8900  179.7970  138.9870 C   0  0  0  0  0  1  0  0  0  0  0  0
  1  4  2  0  0  0  0
  1  3  1  0  0  0  0
  2 36  1  0  0  0  0
  3  7  1  0  0  0  0
  3 29  1  1  0  0  0
  4  2  1  0  0  0  0
  5 27  1  1  0  0  0
  5  6  1  0  0  0  0
  5  8  1  0  0  0  0
  6  7  1  0  0  0  0
  8  2  2  0  0  0  0
  8  9  1  0  0  0  0
 11  9  1  0  0  0  0
 11 10  2  0  0  0  0
 12 14  2  0  0  0  0
 13 16  1  1  0  0  0
 13 12  1  0  0  0  0
 13 11  1  0  0  0  0
 14 10  1  0  0  0  0
 15 18  1  0  0  0  0
 16 15  2  0  0  0  0
 17 20  1  0  0  0  0
 19 17  2  0  0  0  0
 19 16  1  0  0  0  0
 20 18  2  0  0  0  0
 21 23  2  0  0  0  0
 22 23  1  0  0  0  0
 23 12  1  0  0  0  0
 24 25  1  0  0  0  0
 24 22  1  0  0  0  0
 26 27  1  0  0  0  0
 28 27  2  0  0  0  0
 29 30  1  0  0  0  0
 30 31  1  0  0  0  0
 31 34  1  0  0  0  0
 33 34  1  0  0  0  0
 33 35  1  0  0  0  0
 34 32  1  0  0  0  0
 35 32  1  0  0  0  0
 36 37  1  0  0  0  0
 37 38  1  0  0  0  0
 39 38  1  0  0  0  0
 40 39  1  0  0  0  0
M  END
>  <MODEL>
5

>  <REMARK>
 VINA RESULT:      -3.7      3.690      6.346
  Name = 
  13 active torsions:
  status: ('A' for Active; 'I' for Inactive)
    1  A    between atoms: N_1  and  C_39
    2  A    between atoms: N_5  and  C_20
    3  A    between atoms: C_6  and  C_14
    4  A    between atoms: C_6  and  C_23
    5  A    between atoms: C_8  and  C_19
    6  A    between atoms: C_9  and  O_29
    7  A    between atoms: O_10  and  C_18
    8  A    between atoms: C_12  and  C_24
    9  A    between atoms: C_14  and  C_15
   10  A    between atoms: C_16  and  C_28
   11  A    between atoms: C_18  and  C_34
   12  A    between atoms: C_23  and  C_36
   13  A    between atoms: O_29  and  C_34
                            x       y       z     vdW  Elec       q    Type
                         _______ _______ _______ _____ _____    ______ ____

>  <TORSDO>
F 13

$$$$
=
 OpenBabel11062417573D

 40 43  0  0  1  0  0  0  0  0999 V2000
  188.3970  176.8560  142.0130 C   0  0  0  0  0  3  0  0  0  0  0  0
  187.1740  178.1530  140.2280 C   0  0  0  0  0  0  0  0  0  0  0  0
  188.5510  177.9040  143.0970 C   0  0  2  0  0  3  0  0  0  0  0  0
  187.8750  176.9720  140.7830 C   0  0  0  0  0  3  0  0  0  0  0  0
  185.5100  177.9640  142.0480 C   0  0  2  0  0  3  0  0  0  0  0  0
  186.0940  178.6220  143.2990 C   0  0  0  0  0  2  0  0  0  0  0  0
  187.5470  179.0550  143.1090 C   0  0  0  0  0  2  0  0  0  0  0  0
  186.0200  178.5850  140.7670 C   0  0  0  0  0  0  0  0  0  0  0  0
  185.3840  179.7500  140.2300 N   0  0  0  0  0  2  0  0  0  0  0  0
  183.6370  180.7400  138.9490 N   0  0  0  0  0  0  0  0  0  0  0  0
  184.2130  179.6830  139.4120 C   0  0  0  0  0  0  0  0  0  0  0  0
  182.3910  179.0780  138.2300 C   0  0  0  0  0  0  0  0  0  0  0  0
  183.4930  178.4320  139.0130 C   0  0  1  0  0  3  0  0  0  0  0  0
  182.5080  180.3640  138.2170 N   0  0  0  0  0  0  0  0  0  0  0  0
  184.3150  176.1460  138.2610 C   0  0  0  0  0  3  0  0  0  0  0  0
  184.3490  177.5470  138.1510 C   0  0  0  0  0  0  0  0  0  0  0  0
  185.9780  177.3500  136.3640 C   0  0  0  0  0  3  0  0  0  0  0  0
  185.1100  175.3560  137.4260 C   0  0  0  0  0  3  0  0  0  0  0  0
  185.1850  178.1420  137.1990 C   0  0  0  0  0  3  0  0  0  0  0  0
  185.9400  175.9580  136.4770 C   0  0  0  0  0  3  0  0  0  0  0  0
  180.8440  178.7840  136.4670 O   0  0  0  0  0  0  0  0  0  0  0  0
  180.7150  177.2120  138.1880 N   0  0  0  0  0  2  0  0  0  0  0  0
  181.2840  178.3700  137.5730 C   0  0  0  0  0  0  0  0  0  0  0  0
  179.5950  176.4830  137.6090 C   0  0  0  0  0  2  0  0  0  0  0  0
  179.6510  175.0250  138.0250 C   0  0  0  0  0  1  0  0  0  0  0  0
  183.2730  178.7260  142.9740 N   0  0  0  0  0  1  0  0  0  0  0  0
  184.0190  177.8730  142.1100 C   0  0  0  0  0  0  0  0  0  0  0  0
  183.4160  177.0550  141.3680 O   0  0  0  0  0  0  0  0  0  0  0  0
  189.9530  178.4920  143.0490 C   0  0  0  0  0  2  0  0  0  0  0  0
  190.5530  178.6330  144.4440 C   0  0  0  0  0  2  0  0  0  0  0  0
  189.8090  177.7740  145.4580 C   0  0  0  0  0  2  0  0  0  0  0  0
  191.9370  177.1410  146.3060 O   0  0  0  0  0  0  0  0  0  0  0  0
  190.4370  176.3990  147.2990 O   0  0  0  0  0  0  0  0  0  0  0  0
  190.6960  176.6460  145.9680 C   0  0  0  0  0  3  0  0  0  0  0  0
  191.6460  176.8760  147.5760 O   0  0  0  0  0  0  0  0  0  0  0  0
  187.6670  178.7890  139.0820 O   0  0  0  0  0  0  0  0  0  0  0  0
  189.0230  178.6860  138.6610 C   0  0  0  0  0  2  0  0  0  0  0  0
  189.0850  178.1890  137.2280 C   0  0  0  0  0  2  0  0  0  0  0  0
  189.4530  176.8450  137.2170 O   0  0  0  0  0  0  0  0  0  0  0  0
  190.1110  176.6740  136.0000 C   0  0  0  0  0  1  0  0  0  0  0  0
  1  3  1  0  0  0  0
  2  8  2  0  0  0  0
  2  4  1  0  0  0  0
  3 29  1  6  0  0  0
  3  7  1  0  0  0  0
  4  1  2  0  0  0  0
  5 27  1  1  0  0  0
  5  6  1  0  0  0  0
  7  6  1  0  0  0  0
  8  5  1  0  0  0  0
  9  8  1  0  0  0  0
 10 11  2  0  0  0  0
 11  9  1  0  0  0  0
 12 13  1  0  0  0  0
 13 16  1  6  0  0  0
 13 11  1  0  0  0  0
 14 12  2  0  0  0  0
 14 10  1  0  0  0  0
 16 15  1  0  0  0  0
 17 20  2  0  0  0  0
 17 19  1  0  0  0  0
 18 15  2  0  0  0  0
 19 16  2  0  0  0  0
 20 18  1  0  0  0  0
 21 23  2  0  0  0  0
 23 22  1  0  0  0  0
 23 12  1  0  0  0  0
 24 25  1  0  0  0  0
 24 22  1  0  0  0  0
 27 26  1  0  0  0  0
 28 27  2  0  0  0  0
 29 30  1  0  0  0  0
 30 31  1  0  0  0  0
 31 34  1  0  0  0  0
 32 35  1  0  0  0  0
 33 35  1  0  0  0  0
 34 32  1  0  0  0  0
 34 33  1  0  0  0  0
 36  2  1  0  0  0  0
 37 36  1  0  0  0  0
 38 37  1  0  0  0  0
 39 38  1  0  0  0  0
 40 39  1  0  0  0  0
M  END
>  <MODEL>
6

>  <REMARK>
 VINA RESULT:      -3.5      2.285      3.366
  Name = 
  13 active torsions:
  status: ('A' for Active; 'I' for Inactive)
    1  A    between atoms: N_1  and  C_39
    2  A    between atoms: N_5  and  C_20
    3  A    between atoms: C_6  and  C_14
    4  A    between atoms: C_6  and  C_23
    5  A    between atoms: C_8  and  C_19
    6  A    between atoms: C_9  and  O_29
    7  A    between atoms: O_10  and  C_18
    8  A    between atoms: C_12  and  C_24
    9  A    between atoms: C_14  and  C_15
   10  A    between atoms: C_16  and  C_28
   11  A    between atoms: C_18  and  C_34
   12  A    between atoms: C_23  and  C_36
   13  A    between atoms: O_29  and  C_34
                            x       y       z     vdW  Elec       q    Type
                         _______ _______ _______ _____ _____    ______ ____

>  <TORSDO>
F 13

$$$$
=
 OpenBabel11062417573D

 40 43  0  0  1  0  0  0  0  0999 V2000
  184.7020  174.9810  137.2160 C   0  0  0  0  0  3  0  0  0  0  0  0
  186.8070  176.2080  136.5640 C   0  0  0  0  0  0  0  0  0  0  0  0
  184.2430  174.4350  135.8780 C   0  0  2  0  0  3  0  0  0  0  0  0
  185.7430  175.7760  137.5000 C   0  0  0  0  0  3  0  0  0  0  0  0
  187.3880  173.8320  136.1990 C   0  0  2  0  0  3  0  0  0  0  0  0
  186.4110  173.2540  135.1720 C   0  0  0  0  0  2  0  0  0  0  0  0
  185.3050  174.2390  134.7970 C   0  0  0  0  0  2  0  0  0  0  0  0
  187.6370  175.3100  136.0040 C   0  0  0  0  0  0  0  0  0  0  0  0
  188.6330  175.7540  135.0770 N   0  0  0  0  0  2  0  0  0  0  0  0
  190.8970  176.3160  134.5950 N   0  0  0  0  0  0  0  0  0  0  0  0
  190.0030  175.9340  135.4420 C   0  0  0  0  0  0  0  0  0  0  0  0
  192.0100  176.0250  136.4690 C   0  0  0  0  0  0  0  0  0  0  0  0
  190.5880  175.6870  136.8000 C   0  0  1  0  0  3  0  0  0  0  0  0
  192.1400  176.3720  135.2310 N   0  0  0  0  0  0  0  0  0  0  0  0
  189.8230  177.9860  137.5680 C   0  0  0  0  0  3  0  0  0  0  0  0
  190.0160  176.6190  137.8310 C   0  0  0  0  0  0  0  0  0  0  0  0
  189.0930  176.9310  140.0530 C   0  0  0  0  0  3  0  0  0  0  0  0
  189.2690  178.8180  138.5450 C   0  0  0  0  0  3  0  0  0  0  0  0
  189.6490  176.0990  139.0770 C   0  0  0  0  0  3  0  0  0  0  0  0
  188.9030  178.2900  139.7860 C   0  0  0  0  0  3  0  0  0  0  0  0
  193.4470  176.9560  138.0980 O   0  0  0  0  0  0  0  0  0  0  0  0
  193.8920  174.7390  137.5170 N   0  0  0  0  0  2  0  0  0  0  0  0
  193.1420  175.9510  137.4010 C   0  0  0  0  0  0  0  0  0  0  0  0
  195.0450  174.6080  138.3950 C   0  0  0  0  0  2  0  0  0  0  0  0
  195.4440  173.1500  138.5170 C   0  0  0  0  0  1  0  0  0  0  0  0
  189.4040  172.9960  137.4950 N   0  0  0  0  0  1  0  0  0  0  0  0
  188.6430  173.0250  136.2900 C   0  0  0  0  0  0  0  0  0  0  0  0
  189.0130  172.3390  135.3020 O   0  0  0  0  0  0  0  0  0  0  0  0
  183.1410  175.3180  135.3120 C   0  0  0  0  0  2  0  0  0  0  0  0
  181.8300  174.5550  135.1610 C   0  0  0  0  0  2  0  0  0  0  0  0
  181.9340  173.1510  135.7380 C   0  0  0  0  0  2  0  0  0  0  0  0
  179.7970  172.5770  136.6030 O   0  0  0  0  0  0  0  0  0  0  0  0
  181.2830  171.7900  137.5820 O   0  0  0  0  0  0  0  0  0  0  0  0
  181.0540  173.0040  136.9720 C   0  0  0  0  0  3  0  0  0  0  0  0
  180.0590  171.4250  137.2120 O   0  0  0  0  0  0  0  0  0  0  0  0
  187.0120  177.5700  136.3130 O   0  0  0  0  0  0  0  0  0  0  0  0
  186.1260  178.5850  136.7700 C   0  0  0  0  0  2  0  0  0  0  0  0
  185.8590  178.4120  138.2540 C   0  0  0  0  0  2  0  0  0  0  0  0
  184.9890  179.4100  138.6910 O   0  0  0  0  0  0  0  0  0  0  0  0
  183.7420  178.7890  138.7380 C   0  0  0  0  0  1  0  0  0  0  0  0
  1  4  2  0  0  0  0
  2  4  1  0  0  0  0
  3 29  1  6  0  0  0
  3  1  1  0  0  0  0
  5 27  1  6  0  0  0
  6  5  1  0  0  0  0
  7  6  1  0  0  0  0
  7  3  1  0  0  0  0
  8  5  1  0  0  0  0
  8  2  2  0  0  0  0
  9 11  1  0  0  0  0
  9  8  1  0  0  0  0
 10 14  1  0  0  0  0
 10 11  2  0  0  0  0
 11 13  1  0  0  0  0
 12 13  1  0  0  0  0
 12 23  1  0  0  0  0
 13 16  1  1  0  0  0
 14 12  2  0  0  0  0
 15 16  2  0  0  0  0
 15 18  1  0  0  0  0
 16 19  1  0  0  0  0
 18 20  2  0  0  0  0
 19 17  2  0  0  0  0
 20 17  1  0  0  0  0
 22 24  1  0  0  0  0
 23 22  1  0  0  0  0
 23 21  2  0  0  0  0
 24 25  1  0  0  0  0
 27 26  1  0  0  0  0
 28 27  2  0  0  0  0
 30 29  1  0  0  0  0
 30 31  1  0  0  0  0
 31 34  1  0  0  0  0
 32 34  1  0  0  0  0
 32 35  1  0  0  0  0
 34 33  1  0  0  0  0
 35 33  1  0  0  0  0
 36  2  1  0  0  0  0
 36 37  1  0  0  0  0
 37 38  1  0  0  0  0
 38 39  1  0  0  0  0
 39 40  1  0  0  0  0
M  END
>  <MODEL>
7

>  <REMARK>
 VINA RESULT:      -3.4      5.535     10.121
  Name = 
  13 active torsions:
  status: ('A' for Active; 'I' for Inactive)
    1  A    between atoms: N_1  and  C_39
    2  A    between atoms: N_5  and  C_20
    3  A    between atoms: C_6  and  C_14
    4  A    between atoms: C_6  and  C_23
    5  A    between atoms: C_8  and  C_19
    6  A    between atoms: C_9  and  O_29
    7  A    between atoms: O_10  and  C_18
    8  A    between atoms: C_12  and  C_24
    9  A    between atoms: C_14  and  C_15
   10  A    between atoms: C_16  and  C_28
   11  A    between atoms: C_18  and  C_34
   12  A    between atoms: C_23  and  C_36
   13  A    between atoms: O_29  and  C_34
                            x       y       z     vdW  Elec       q    Type
                         _______ _______ _______ _____ _____    ______ ____

>  <TORSDO>
F 13

$$$$
=
 OpenBabel11062417573D

 40 43  0  0  1  0  0  0  0  0999 V2000
  187.2160  178.9910  141.3960 C   0  0  0  0  0  3  0  0  0  0  0  0
  188.1460  177.4210  139.6540 C   0  0  0  0  0  0  0  0  0  0  0  0
  187.0240  178.0560  142.5740 C   0  0  2  0  0  3  0  0  0  0  0  0
  187.6290  178.7170  140.1500 C   0  0  0  0  0  3  0  0  0  0  0  0
  189.9510  177.5470  141.3400 C   0  0  2  0  0  3  0  0  0  0  0  0
  189.3900  177.0640  142.6780 C   0  0  0  0  0  2  0  0  0  0  0  0
  187.8860  176.7960  142.6200 C   0  0  0  0  0  2  0  0  0  0  0  0
  189.2800  176.8960  140.1520 C   0  0  0  0  0  0  0  0  0  0  0  0
  189.7360  175.6240  139.6770 N   0  0  0  0  0  2  0  0  0  0  0  0
  191.0490  174.3400  138.1620 N   0  0  0  0  0  0  0  0  0  0  0  0
  190.6290  175.4880  138.5700 C   0  0  0  0  0  0  0  0  0  0  0  0
  192.0480  175.7870  136.8430 C   0  0  0  0  0  0  0  0  0  0  0  0
  191.2120  176.6140  137.7720 C   0  0  1  0  0  3  0  0  0  0  0  0
  191.9280  174.5250  137.0920 N   0  0  0  0  0  0  0  0  0  0  0  0
  189.5080  176.8580  135.9020 C   0  0  0  0  0  3  0  0  0  0  0  0
  190.1520  177.3830  137.0350 C   0  0  0  0  0  0  0  0  0  0  0  0
  188.7870  179.3820  136.8650 C   0  0  0  0  0  3  0  0  0  0  0  0
  188.5100  177.5940  135.2560 C   0  0  0  0  0  3  0  0  0  0  0  0
  189.7850  178.6470  137.5110 C   0  0  0  0  0  3  0  0  0  0  0  0
  188.1490  178.8550  135.7390 C   0  0  0  0  0  3  0  0  0  0  0  0
  192.5330  176.3310  134.5940 O   0  0  0  0  0  0  0  0  0  0  0  0
  194.2260  176.8070  136.1290 N   0  0  0  0  0  2  0  0  0  0  0  0
  192.9280  176.3130  135.7910 C   0  0  0  0  0  0  0  0  0  0  0  0
  195.1610  177.3110  135.1330 C   0  0  0  0  0  2  0  0  0  0  0  0
  196.4130  176.4540  135.1130 C   0  0  0  0  0  1  0  0  0  0  0  0
  192.1670  176.8420  142.3570 N   0  0  0  0  0  1  0  0  0  0  0  0
  191.4440  177.4620  141.2980 C   0  0  0  0  0  0  0  0  0  0  0  0
  192.0630  177.9160  140.3010 O   0  0  0  0  0  0  0  0  0  0  0  0
  185.5630  177.6400  142.6670 C   0  0  0  0  0  2  0  0  0  0  0  0
  184.7770  178.5500  143.6030 C   0  0  0  0  0  2  0  0  0  0  0  0
  185.6680  179.1300  144.6930 C   0  0  0  0  0  2  0  0  0  0  0  0
  186.9200  178.1480  146.4570 O   0  0  0  0  0  0  0  0  0  0  0  0
  185.2630  178.9860  147.0360 O   0  0  0  0  0  0  0  0  0  0  0  0
  185.6490  178.2510  145.9360 C   0  0  0  0  0  3  0  0  0  0  0  0
  186.5000  178.8520  147.5030 O   0  0  0  0  0  0  0  0  0  0  0  0
  187.4990  176.7630  138.6010 O   0  0  0  0  0  0  0  0  0  0  0  0
  186.1790  177.0850  138.1790 C   0  0  0  0  0  2  0  0  0  0  0  0
  185.8140  176.2740  136.9490 C   0  0  0  0  0  2  0  0  0  0  0  0
  186.5070  175.0650  136.9650 O   0  0  0  0  0  0  0  0  0  0  0  0
  185.5540  174.1230  137.3480 C   0  0  0  0  0  1  0  0  0  0  0  0
  1  3  1  0  0  0  0
  2  4  1  0  0  0  0
  2  8  2  0  0  0  0
  3  7  1  0  0  0  0
  3 29  1  6  0  0  0
  4  1  2  0  0  0  0
  5 27  1  1  0  0  0
  5  6  1  0  0  0  0
  7  6  1  0  0  0  0
  8  5  1  0  0  0  0
  9  8  1  0  0  0  0
 10 11  2  0  0  0  0
 11  9  1  0  0  0  0
 12 14  2  0  0  0  0
 12 13  1  0  0  0  0
 13 16  1  6  0  0  0
 13 11  1  0  0  0  0
 14 10  1  0  0  0  0
 15 16  1  0  0  0  0
 16 19  2  0  0  0  0
 17 19  1  0  0  0  0
 18 20  1  0  0  0  0
 18 15  2  0  0  0  0
 20 17  2  0  0  0  0
 21 23  2  0  0  0  0
 23 22  1  0  0  0  0
 23 12  1  0  0  0  0
 24 22  1  0  0  0  0
 25 24  1  0  0  0  0
 27 26  1  0  0  0  0
 28 27  2  0  0  0  0
 29 30  1  0  0  0  0
 30 31  1  0  0  0  0
 31 34  1  0  0  0  0
 32 35  1  0  0  0  0
 33 35  1  0  0  0  0
 34 32  1  0  0  0  0
 34 33  1  0  0  0  0
 36  2  1  0  0  0  0
 37 36  1  0  0  0  0
 38 39  1  0  0  0  0
 38 37  1  0  0  0  0
 39 40  1  0  0  0  0
M  END
>  <MODEL>
8

>  <REMARK>
 VINA RESULT:      -3.4      5.182      8.511
  Name = 
  13 active torsions:
  status: ('A' for Active; 'I' for Inactive)
    1  A    between atoms: N_1  and  C_39
    2  A    between atoms: N_5  and  C_20
    3  A    between atoms: C_6  and  C_14
    4  A    between atoms: C_6  and  C_23
    5  A    between atoms: C_8  and  C_19
    6  A    between atoms: C_9  and  O_29
    7  A    between atoms: O_10  and  C_18
    8  A    between atoms: C_12  and  C_24
    9  A    between atoms: C_14  and  C_15
   10  A    between atoms: C_16  and  C_28
   11  A    between atoms: C_18  and  C_34
   12  A    between atoms: C_23  and  C_36
   13  A    between atoms: O_29  and  C_34
                            x       y       z     vdW  Elec       q    Type
                         _______ _______ _______ _____ _____    ______ ____

>  <TORSDO>
F 13

$$$$
=
 OpenBabel11062417573D

 40 43  0  0  1  0  0  0  0  0999 V2000
  185.8790  177.1100  143.3990 C   0  0  0  0  0  3  0  0  0  0  0  0
  185.5220  178.4020  141.2610 C   0  0  0  0  0  0  0  0  0  0  0  0
  185.6800  178.1900  144.4420 C   0  0  2  0  0  3  0  0  0  0  0  0
  185.8750  177.2060  142.0610 C   0  0  0  0  0  3  0  0  0  0  0  0
  183.2810  178.3850  142.3080 C   0  0  2  0  0  3  0  0  0  0  0  0
  183.3880  179.0580  143.6770 C   0  0  0  0  0  2  0  0  0  0  0  0
  184.8300  179.3980  144.0520 C   0  0  0  0  0  2  0  0  0  0  0  0
  184.2820  178.9210  141.3100 C   0  0  0  0  0  0  0  0  0  0  0  0
  183.9810  180.0980  140.5530 N   0  0  0  0  0  2  0  0  0  0  0  0
  182.8770  181.1450  138.7200 N   0  0  0  0  0  0  0  0  0  0  0  0
  183.1580  180.0760  139.3850 C   0  0  0  0  0  0  0  0  0  0  0  0
  181.7970  179.5460  137.6660 C   0  0  0  0  0  0  0  0  0  0  0  0
  182.5000  178.8630  138.8000 C   0  0  1  0  0  3  0  0  0  0  0  0
  182.0340  180.8160  137.6560 N   0  0  0  0  0  0  0  0  0  0  0  0
  184.7240  178.2600  137.7260 C   0  0  0  0  0  3  0  0  0  0  0  0
  183.5090  177.8620  138.3110 C   0  0  0  0  0  0  0  0  0  0  0  0
  184.1600  175.5410  138.0460 C   0  0  0  0  0  3  0  0  0  0  0  0
  185.6480  177.3000  137.3030 C   0  0  0  0  0  3  0  0  0  0  0  0
  183.2350  176.5000  138.4680 C   0  0  0  0  0  3  0  0  0  0  0  0
  185.3660  175.9410  137.4650 C   0  0  0  0  0  3  0  0  0  0  0  0
  180.8130  179.3600  135.5250 O   0  0  0  0  0  0  0  0  0  0  0  0
  180.1870  177.7190  137.0640 N   0  0  0  0  0  2  0  0  0  0  0  0
  180.9170  178.8900  136.6900 C   0  0  0  0  0  0  0  0  0  0  0  0
  179.2720  177.0390  136.1580 C   0  0  0  0  0  2  0  0  0  0  0  0
  178.9320  175.6630  136.6970 C   0  0  0  0  0  1  0  0  0  0  0  0
  181.3500  177.2440  141.1190 N   0  0  0  0  0  1  0  0  0  0  0  0
  181.8760  178.3830  141.7960 C   0  0  0  0  0  0  0  0  0  0  0  0
  181.1420  179.3850  141.9940 O   0  0  0  0  0  0  0  0  0  0  0  0
  187.0320  178.6940  144.9260 C   0  0  0  0  0  2  0  0  0  0  0  0
  188.0290  177.5530  145.0980 C   0  0  0  0  0  2  0  0  0  0  0  0
  189.4580  178.0710  145.1830 C   0  0  0  0  0  2  0  0  0  0  0  0
  191.2190  178.9550  143.8540 O   0  0  0  0  0  0  0  0  0  0  0  0
  190.8560  177.0700  143.5350 O   0  0  0  0  0  0  0  0  0  0  0  0
  190.0810  178.1780  143.7980 C   0  0  0  0  0  3  0  0  0  0  0  0
  191.9240  177.8600  143.5890 O   0  0  0  0  0  0  0  0  0  0  0  0
  186.4570  178.9600  140.3820 O   0  0  0  0  0  0  0  0  0  0  0  0
  187.8620  178.7880  140.5320 C   0  0  0  0  0  2  0  0  0  0  0  0
  188.4610  178.2560  139.2440 C   0  0  0  0  0  2  0  0  0  0  0  0
  188.9240  179.3190  138.4700 O   0  0  0  0  0  0  0  0  0  0  0  0
  189.0620  178.7840  137.1910 C   0  0  0  0  0  1  0  0  0  0  0  0
  1  3  1  0  0  0  0
  2  8  2  0  0  0  0
  2  4  1  0  0  0  0
  3 29  1  6  0  0  0
  4  1  2  0  0  0  0
  5 27  1  6  0  0  0
  5  6  1  0  0  0  0
  6  7  1  0  0  0  0
  7  3  1  0  0  0  0
  8  5  1  0  0  0  0
  9  8  1  0  0  0  0
 10 11  2  0  0  0  0
 11  9  1  0  0  0  0
 12 13  1  0  0  0  0
 13 16  1  6  0  0  0
 13 11  1  0  0  0  0
 14 12  2  0  0  0  0
 14 10  1  0  0  0  0
 15 16  1  0  0  0  0
 16 19  2  0  0  0  0
 17 19  1  0  0  0  0
 18 20  1  0  0  0  0
 18 15  2  0  0  0  0
 20 17  2  0  0  0  0
 21 23  2  0  0  0  0
 23 22  1  0  0  0  0
 23 12  1  0  0  0  0
 24 25  1  0  0  0  0
 24 22  1  0  0  0  0
 26 27  1  0  0  0  0
 27 28  2  0  0  0  0
 29 30  1  0  0  0  0
 30 31  1  0  0  0  0
 33 35  1  0  0  0  0
 33 34  1  0  0  0  0
 34 32  1  0  0  0  0
 34 31  1  0  0  0  0
 35 32  1  0  0  0  0
 36 37  1  0  0  0  0
 36  2  1  0  0  0  0
 38 37  1  0  0  0  0
 39 38  1  0  0  0  0
 40 39  1  0  0  0  0
M  END
>  <MODEL>
9

>  <REMARK>
 VINA RESULT:      -3.2      1.572      2.090
  Name = 
  13 active torsions:
  status: ('A' for Active; 'I' for Inactive)
    1  A    between atoms: N_1  and  C_39
    2  A    between atoms: N_5  and  C_20
    3  A    between atoms: C_6  and  C_14
    4  A    between atoms: C_6  and  C_23
    5  A    between atoms: C_8  and  C_19
    6  A    between atoms: C_9  and  O_29
    7  A    between atoms: O_10  and  C_18
    8  A    between atoms: C_12  and  C_24
    9  A    between atoms: C_14  and  C_15
   10  A    between atoms: C_16  and  C_28
   11  A    between atoms: C_18  and  C_34
   12  A    between atoms: C_23  and  C_36
   13  A    between atoms: O_29  and  C_34
                            x       y       z     vdW  Elec       q    Type
                         _______ _______ _______ _____ _____    ______ ____

>  <TORSDO>
F 13

$$$$
