=
 OpenBabel11062417313D

 47 52  0  0  1  0  0  0  0  0999 V2000
  184.2990  176.4270  137.0930 C   0  0  0  0  0  3  0  0  0  0  0  0
  184.0580  178.7140  140.1060 C   0  0  2  0  0  3  0  0  0  0  0  0
  181.6390  179.9530  138.2600 C   0  0  0  0  0  2  0  0  0  0  0  0
  185.2250  178.1440  139.2600 C   0  0  2  0  0  3  0  0  0  0  0  0
  183.0190  176.5460  137.3130 N   0  0  0  0  0  0  0  0  0  0  0  0
  186.5790  178.2970  141.3740 C   0  0  2  0  0  3  0  0  0  0  0  0
  186.5900  178.5080  139.8540 C   0  0  1  0  0  3  0  0  0  0  0  0
  185.2210  177.5790  136.7790 C   0  0  0  0  0  2  0  0  0  0  0  0
  181.7940  178.2410  136.0130 N   0  0  0  0  0  1  0  0  0  0  0  0
  182.2060  178.5620  138.3630 C   0  0  0  0  0  0  0  0  0  0  0  0
  189.0710  177.9570  139.8390 C   0  0  1  0  0  3  0  0  0  0  0  0
  190.0830  177.0000  139.2310 C   0  0  0  0  0  1  0  0  0  0  0  0
  182.3040  177.7870  137.2670 C   0  0  0  0  0  0  0  0  0  0  0  0
  180.8690  180.3560  139.4930 C   0  0  0  0  0  0  0  0  0  0  0  0
  181.4280  177.6910  141.7230 O   0  0  0  0  0  0  0  0  0  0  0  0
  187.6980  177.6560  139.2200 C   0  0  0  0  0  2  0  0  0  0  0  0
  185.1420  178.6800  137.8320 C   0  0  0  0  0  2  0  0  0  0  0  0
  185.5670  179.0690  141.9600 O   0  0  0  0  0  0  0  0  0  0  0  0
  184.3630  178.4560  141.5900 C   0  0  0  0  0  2  0  0  0  0  0  0
  180.8630  179.6350  140.5760 N   0  0  0  0  0  0  0  0  0  0  0  0
  182.6950  178.0860  139.7140 C   0  0  2  0  0  3  0  0  0  0  0  0
  187.9200  178.7200  141.9350 C   0  0  0  0  0  2  0  0  0  0  0  0
  189.0260  177.8210  141.3730 C   0  0  2  0  0  3  0  0  0  0  0  0
  181.6260  178.4330  140.7220 C   0  0  0  0  0  0  0  0  0  0  0  0
  191.3420  177.1900  141.5870 O   0  0  0  0  0  1  0  0  0  0  0  0
  190.3870  178.0970  142.0520 C   0  0  2  0  0  3  0  0  0  0  0  0
  189.6790  176.8330  144.1620 C   0  0  0  0  0  2  0  0  0  0  0  0
  190.3120  178.0590  143.5860 C   0  0  1  0  0  3  0  0  0  0  0  0
  191.4810  177.6090  145.5140 N   0  0  0  0  0  2  0  0  0  0  0  0
  190.1730  176.9350  145.5850 C   0  0  1  0  0  3  0  0  0  0  0  0
  191.6140  178.1640  144.2170 N   0  0  0  0  0  2  0  0  0  0  0  0
  189.2980  177.8280  147.7940 C   0  0  0  0  0  3  0  0  0  0  0  0
  185.9040  178.1570  147.3510 O   0  0  0  0  0  0  0  0  0  0  0  0
  188.1020  178.0580  148.3300 C   0  0  0  0  0  3  0  0  0  0  0  0
  189.2400  177.7560  146.3640 N   0  0  0  0  0  0  0  0  0  0  0  0
  187.8700  178.0240  145.9330 C   0  0  0  0  0  2  0  0  0  0  0  0
  187.1600  178.1350  147.2300 C   0  0  0  0  0  0  0  0  0  0  0  0
  180.0830  181.6190  139.4660 C   0  0  0  0  0  2  0  0  0  0  0  0
  179.6990  183.5900  137.9480 C   0  0  0  0  0  0  0  0  0  0  0  0
  180.3530  182.3450  138.2290 N   0  0  0  0  0  2  0  0  0  0  0  0
  178.9330  184.0950  138.8160 O   0  0  0  0  0  0  0  0  0  0  0  0
  179.3940  185.7500  136.7690 C   0  0  0  0  0  1  0  0  0  0  0  0
  179.9350  184.3220  136.6490 C   0  0  2  0  0  0  0  0  0  0  0  0
  179.2740  183.6180  135.4570 C   0  0  0  0  0  2  0  0  0  0  0  0
  180.2070  182.6440  134.7460 C   0  0  0  0  0  1  0  0  0  0  0  0
  181.4470  184.3690  136.4090 C   0  0  0  0  0  2  0  0  0  0  0  0
  182.1420  184.8100  137.5420 O   0  0  0  0  0  1  0  0  0  0  0  0
  1  5  2  0  0  0  0
  2 19  1  1  0  0  0
  3 10  1  0  0  0  0
  3 14  1  0  0  0  0
  4 17  1  6  0  0  0
  4  7  1  0  0  0  0
  4  2  1  0  0  0  0
  6 22  1  1  0  0  0
  6 18  1  0  0  0  0
  7 16  1  6  0  0  0
  7  6  1  0  0  0  0
  8  1  1  0  0  0  0
  8 17  1  0  0  0  0
  9 13  1  0  0  0  0
 11 12  1  6  0  0  0
 11 23  1  0  0  0  0
 13  5  1  0  0  0  0
 13 10  2  0  0  0  0
 14 20  2  0  0  0  0
 16 11  1  0  0  0  0
 19 18  1  0  0  0  0
 20 24  1  0  0  0  0
 21 10  1  6  0  0  0
 21  2  1  0  0  0  0
 21 24  1  0  0  0  0
 23 22  1  0  0  0  0
 23 26  1  1  0  0  0
 24 15  2  0  0  0  0
 26 25  1  6  0  0  0
 28 26  1  6  0  0  0
 28 27  1  0  0  0  0
 28 31  1  0  0  0  0
 29 30  1  0  0  0  0
 30 27  1  6  0  0  0
 30 35  1  0  0  0  0
 31 29  1  0  0  0  0
 32 34  2  0  0  0  0
 35 32  1  0  0  0  0
 36 35  1  0  0  0  0
 36 37  1  0  0  0  0
 37 33  2  0  0  0  0
 37 34  1  0  0  0  0
 38 14  1  0  0  0  0
 39 40  1  0  0  0  0
 39 41  2  0  0  0  0
 40 38  1  0  0  0  0
 43 42  1  1  0  0  0
 43 39  1  0  0  0  0
 44 43  1  0  0  0  0
 45 44  1  0  0  0  0
 46 43  1  0  0  0  0
 46 47  1  0  0  0  0
M  END
>  <MODEL>
1

>  <REMARK>
 VINA RESULT:      -8.9      0.000      0.000
  Name = 
  8 active torsions:
  status: ('A' for Active; 'I' for Inactive)
    1  A    between atoms: C_8  and  C_33
    2  A    between atoms: C_10  and  C_33
    3  A    between atoms: C_16  and  C_24
    4  A    between atoms: C_16  and  C_39
    5  A    between atoms: C_20  and  C_40
    6  A    between atoms: N_30  and  C_44
    7  A    between atoms: C_33  and  C_43
    8  A    between atoms: C_40  and  N_41
                            x       y       z     vdW  Elec       q    Type
                         _______ _______ _______ _____ _____    ______ ____

>  <TORSDO>
F 8

$$$$
=
 OpenBabel11062417313D

 47 52  0  0  1  0  0  0  0  0999 V2000
  188.5230  172.5740  134.5980 C   0  0  0  0  0  3  0  0  0  0  0  0
  187.3310  175.2560  136.9970 C   0  0  2  0  0  3  0  0  0  0  0  0
  190.4800  175.0420  137.9060 C   0  0  0  0  0  2  0  0  0  0  0  0
  186.7580  173.9030  136.5000 C   0  0  2  0  0  3  0  0  0  0  0  0
  189.4810  173.4570  134.6050 N   0  0  0  0  0  0  0  0  0  0  0  0
  184.4980  174.9380  136.8850 C   0  0  2  0  0  3  0  0  0  0  0  0
  185.3370  173.6610  137.0220 C   0  0  1  0  0  3  0  0  0  0  0  0
  188.0490  171.8200  135.8160 C   0  0  0  0  0  2  0  0  0  0  0  0
  191.3900  173.0550  136.1100 N   0  0  0  0  0  1  0  0  0  0  0  0
  189.8040  174.8030  136.5830 C   0  0  0  0  0  0  0  0  0  0  0  0
  183.2210  172.2890  136.7110 C   0  0  1  0  0  3  0  0  0  0  0  0
  182.6070  171.2170  135.8260 C   0  0  0  0  0  1  0  0  0  0  0  0
  190.2350  173.8230  135.7680 C   0  0  0  0  0  0  0  0  0  0  0  0
  190.4950  176.5000  138.2930 C   0  0  0  0  0  0  0  0  0  0  0  0
  188.5320  178.0340  135.8070 O   0  0  0  0  0  0  0  0  0  0  0  0
  184.6690  172.5150  136.2500 C   0  0  0  0  0  2  0  0  0  0  0  0
  187.6600  172.7580  136.9550 C   0  0  0  0  0  2  0  0  0  0  0  0
  185.1050  175.9900  137.5840 O   0  0  0  0  0  0  0  0  0  0  0  0
  186.2430  176.3300  136.8420 C   0  0  0  0  0  2  0  0  0  0  0  0
  189.8340  177.4020  137.6300 N   0  0  0  0  0  0  0  0  0  0  0  0
  188.6110  175.6640  136.2220 C   0  0  2  0  0  3  0  0  0  0  0  0
  183.1220  174.6820  137.4620 C   0  0  0  0  0  2  0  0  0  0  0  0
  182.4100  173.5970  136.6470 C   0  0  2  0  0  3  0  0  0  0  0  0
  188.9910  177.0950  136.5150 C   0  0  0  0  0  0  0  0  0  0  0  0
  180.1040  173.4470  135.9630 O   0  0  0  0  0  1  0  0  0  0  0  0
  180.9380  173.4270  137.0840 C   0  0  2  0  0  3  0  0  0  0  0  0
  179.3800  175.3770  137.6540 C   0  0  0  0  0  2  0  0  0  0  0  0
  180.4890  174.4810  138.1070 C   0  0  1  0  0  3  0  0  0  0  0  0
  179.1980  174.8590  139.9720 N   0  0  0  0  0  2  0  0  0  0  0  0
  178.9310  175.9220  138.9870 C   0  0  1  0  0  3  0  0  0  0  0  0
  180.0370  173.8980  139.3570 N   0  0  0  0  0  2  0  0  0  0  0  0
  180.5480  177.7710  138.3500 C   0  0  0  0  0  3  0  0  0  0  0  0
  182.4400  178.3230  141.1680 O   0  0  0  0  0  0  0  0  0  0  0  0
  181.6010  178.3610  138.9110 C   0  0  0  0  0  3  0  0  0  0  0  0
  179.7250  177.1090  139.3180 N   0  0  0  0  0  0  0  0  0  0  0  0
  180.2790  177.3460  140.6490 C   0  0  0  0  0  2  0  0  0  0  0  0
  181.5230  178.0880  140.3330 C   0  0  0  0  0  0  0  0  0  0  0  0
  191.2990  176.9200  139.4730 C   0  0  0  0  0  2  0  0  0  0  0  0
  190.1010  177.0500  141.6830 C   0  0  0  0  0  0  0  0  0  0  0  0
  190.4520  177.6360  140.4220 N   0  0  0  0  0  2  0  0  0  0  0  0
  190.5910  175.9310  142.0020 O   0  0  0  0  0  0  0  0  0  0  0  0
  190.0180  178.6850  143.5460 C   0  0  0  0  0  1  0  0  0  0  0  0
  189.1850  177.7640  142.6490 C   0  0  2  0  0  0  0  0  0  0  0  0
  188.3820  176.7860  143.5160 C   0  0  0  0  0  2  0  0  0  0  0  0
  188.4020  177.1460  144.9970 C   0  0  0  0  0  1  0  0  0  0  0  0
  188.2040  178.6040  141.8260 C   0  0  0  0  0  2  0  0  0  0  0  0
  186.8750  178.2240  142.0500 O   0  0  0  0  0  1  0  0  0  0  0  0
  1  5  2  0  0  0  0
  1  8  1  0  0  0  0
  2 19  1  6  0  0  0
  3 14  1  0  0  0  0
  4 17  1  1  0  0  0
  4  2  1  0  0  0  0
  4  7  1  0  0  0  0
  5 13  1  0  0  0  0
  6  7  1  0  0  0  0
  6 22  1  1  0  0  0
  6 18  1  0  0  0  0
  7 16  1  6  0  0  0
  8 17  1  0  0  0  0
 10  3  1  0  0  0  0
 11 12  1  6  0  0  0
 13  9  1  0  0  0  0
 13 10  2  0  0  0  0
 14 38  1  0  0  0  0
 15 24  2  0  0  0  0
 16 11  1  0  0  0  0
 19 18  1  0  0  0  0
 20 14  2  0  0  0  0
 21 24  1  1  0  0  0
 21 10  1  0  0  0  0
 21  2  1  0  0  0  0
 23 11  1  0  0  0  0
 23 26  1  1  0  0  0
 23 22  1  0  0  0  0
 24 20  1  0  0  0  0
 26 25  1  6  0  0  0
 27 28  1  0  0  0  0
 28 26  1  6  0  0  0
 28 31  1  0  0  0  0
 30 27  1  6  0  0  0
 30 35  1  0  0  0  0
 30 29  1  0  0  0  0
 31 29  1  0  0  0  0
 32 34  2  0  0  0  0
 32 35  1  0  0  0  0
 34 37  1  0  0  0  0
 35 36  1  0  0  0  0
 37 36  1  0  0  0  0
 37 33  2  0  0  0  0
 38 40  1  0  0  0  0
 39 41  2  0  0  0  0
 39 43  1  0  0  0  0
 40 39  1  0  0  0  0
 43 44  1  0  0  0  0
 43 42  1  1  0  0  0
 44 45  1  0  0  0  0
 46 47  1  0  0  0  0
 46 43  1  0  0  0  0
M  END
>  <MODEL>
2

>  <REMARK>
 VINA RESULT:      -8.1      4.007     10.245
  Name = 
  8 active torsions:
  status: ('A' for Active; 'I' for Inactive)
    1  A    between atoms: C_8  and  C_33
    2  A    between atoms: C_10  and  C_33
    3  A    between atoms: C_16  and  C_24
    4  A    between atoms: C_16  and  C_39
    5  A    between atoms: C_20  and  C_40
    6  A    between atoms: N_30  and  C_44
    7  A    between atoms: C_33  and  C_43
    8  A    between atoms: C_40  and  N_41
                            x       y       z     vdW  Elec       q    Type
                         _______ _______ _______ _____ _____    ______ ____

>  <TORSDO>
F 8

$$$$
=
 OpenBabel11062417313D

 47 52  0  0  1  0  0  0  0  0999 V2000
  188.3410  179.0090  137.5400 C   0  0  0  0  0  3  0  0  0  0  0  0
  190.3630  176.7300  139.7940 C   0  0  2  0  0  3  0  0  0  0  0  0
  190.9200  175.2950  136.8910 C   0  0  0  0  0  2  0  0  0  0  0  0
  188.9600  177.3830  139.8790 C   0  0  2  0  0  3  0  0  0  0  0  0
  189.4450  178.7930  136.8820 N   0  0  0  0  0  0  0  0  0  0  0  0
  189.3060  177.3490  142.3700 C   0  0  2  0  0  3  0  0  0  0  0  0
  188.2950  177.1290  141.2370 C   0  0  1  0  0  3  0  0  0  0  0  0
  187.3760  177.9300  137.9650 C   0  0  0  0  0  2  0  0  0  0  0  0
  189.4310  176.9990  135.1930 N   0  0  0  0  0  1  0  0  0  0  0  0
  190.6350  176.7260  137.2610 C   0  0  0  0  0  0  0  0  0  0  0  0
  186.4400  177.8710  142.8080 C   0  0  1  0  0  3  0  0  0  0  0  0
  185.3310  178.9000  142.9510 C   0  0  0  0  0  1  0  0  0  0  0  0
  189.8890  177.4990  136.4510 C   0  0  0  0  0  0  0  0  0  0  0  0
  192.2850  174.8420  137.3480 C   0  0  0  0  0  0  0  0  0  0  0  0
  193.4620  177.5560  139.2540 O   0  0  0  0  0  0  0  0  0  0  0  0
  187.0910  178.0610  141.4290 C   0  0  0  0  0  2  0  0  0  0  0  0
  188.0620  176.8330  138.7730 C   0  0  0  0  0  2  0  0  0  0  0  0
  190.4120  176.5050  142.1990 O   0  0  0  0  0  0  0  0  0  0  0  0
  191.1140  177.0200  141.1020 C   0  0  0  0  0  2  0  0  0  0  0  0
  193.0350  175.5670  138.1250 N   0  0  0  0  0  0  0  0  0  0  0  0
  191.1720  177.2480  138.5770 C   0  0  2  0  0  3  0  0  0  0  0  0
  188.6360  177.0350  143.6910 C   0  0  0  0  0  2  0  0  0  0  0  0
  187.4820  178.0130  143.9330 C   0  0  2  0  0  3  0  0  0  0  0  0
  192.6190  176.8250  138.6650 C   0  0  0  0  0  0  0  0  0  0  0  0
  186.1740  179.0000  145.7010 O   0  0  0  0  0  1  0  0  0  0  0  0
  186.8810  177.8480  145.3480 C   0  0  2  0  0  3  0  0  0  0  0  0
  189.1830  178.3390  146.3530 C   0  0  0  0  0  2  0  0  0  0  0  0
  187.9350  177.5160  146.4140 C   0  0  1  0  0  3  0  0  0  0  0  0
  188.5650  177.8460  148.6010 N   0  0  0  0  0  2  0  0  0  0  0  0
  189.7340  178.0690  147.7320 C   0  0  1  0  0  3  0  0  0  0  0  0
  187.4340  177.6620  147.7680 N   0  0  0  0  0  2  0  0  0  0  0  0
  191.8050  176.7610  148.3960 C   0  0  0  0  0  3  0  0  0  0  0  0
  192.5300  174.7830  145.6790 O   0  0  0  0  0  0  0  0  0  0  0  0
  192.6540  175.9350  147.7900 C   0  0  0  0  0  3  0  0  0  0  0  0
  190.5580  176.8570  147.6970 N   0  0  0  0  0  0  0  0  0  0  0  0
  190.5900  175.9530  146.5500 C   0  0  0  0  0  2  0  0  0  0  0  0
  191.9800  175.4410  146.6040 C   0  0  0  0  0  0  0  0  0  0  0  0
  192.7920  173.5210  136.8860 C   0  0  0  0  0  2  0  0  0  0  0  0
  195.2740  173.2210  137.1820 C   0  0  0  0  0  0  0  0  0  0  0  0
  194.1590  173.6600  136.3930 N   0  0  0  0  0  2  0  0  0  0  0  0
  195.0630  172.6470  138.2860 O   0  0  0  0  0  0  0  0  0  0  0  0
  196.6730  173.8740  135.2410 C   0  0  0  0  0  1  0  0  0  0  0  0
  196.6940  173.4060  136.6990 C   0  0  2  0  0  0  0  0  0  0  0  0
  197.5190  172.1190  136.8170 C   0  0  0  0  0  2  0  0  0  0  0  0
  198.9900  172.3780  137.1210 C   0  0  0  0  0  1  0  0  0  0  0  0
  197.3450  174.4840  137.5710 C   0  0  0  0  0  2  0  0  0  0  0  0
  197.6620  175.6310  136.8320 O   0  0  0  0  0  1  0  0  0  0  0  0
  1  8  1  0  0  0  0
  2  4  1  0  0  0  0
  2 19  1  1  0  0  0
  3 10  1  0  0  0  0
  3 14  1  0  0  0  0
  4 17  1  6  0  0  0
  4  7  1  0  0  0  0
  5  1  2  0  0  0  0
  6 22  1  1  0  0  0
  7 16  1  1  0  0  0
  7  6  1  0  0  0  0
  8 17  1  0  0  0  0
  9 13  1  0  0  0  0
 11 12  1  1  0  0  0
 11 23  1  0  0  0  0
 13  5  1  0  0  0  0
 13 10  2  0  0  0  0
 14 20  2  0  0  0  0
 16 11  1  0  0  0  0
 18  6  1  0  0  0  0
 19 18  1  0  0  0  0
 20 24  1  0  0  0  0
 21 10  1  6  0  0  0
 21 24  1  0  0  0  0
 21  2  1  0  0  0  0
 22 23  1  0  0  0  0
 23 26  1  1  0  0  0
 24 15  2  0  0  0  0
 26 25  1  1  0  0  0
 27 28  1  0  0  0  0
 28 26  1  6  0  0  0
 28 31  1  0  0  0  0
 30 27  1  6  0  0  0
 30 29  1  0  0  0  0
 31 29  1  0  0  0  0
 33 37  2  0  0  0  0
 34 32  2  0  0  0  0
 35 30  1  0  0  0  0
 35 32  1  0  0  0  0
 36 37  1  0  0  0  0
 36 35  1  0  0  0  0
 37 34  1  0  0  0  0
 38 14  1  0  0  0  0
 39 41  2  0  0  0  0
 40 38  1  0  0  0  0
 40 39  1  0  0  0  0
 43 42  1  6  0  0  0
 43 44  1  0  0  0  0
 43 39  1  0  0  0  0
 43 46  1  0  0  0  0
 44 45  1  0  0  0  0
 47 46  1  0  0  0  0
M  END
>  <MODEL>
3

>  <REMARK>
 VINA RESULT:      -7.9      5.561     10.610
  Name = 
  8 active torsions:
  status: ('A' for Active; 'I' for Inactive)
    1  A    between atoms: C_8  and  C_33
    2  A    between atoms: C_10  and  C_33
    3  A    between atoms: C_16  and  C_24
    4  A    between atoms: C_16  and  C_39
    5  A    between atoms: C_20  and  C_40
    6  A    between atoms: N_30  and  C_44
    7  A    between atoms: C_33  and  C_43
    8  A    between atoms: C_40  and  N_41
                            x       y       z     vdW  Elec       q    Type
                         _______ _______ _______ _____ _____    ______ ____

>  <TORSDO>
F 8

$$$$
=
 OpenBabel11062417313D

 47 52  0  0  1  0  0  0  0  0999 V2000
  189.3650  177.2350  140.9400 C   0  0  0  0  0  3  0  0  0  0  0  0
  188.5100  176.2310  137.3860 C   0  0  2  0  0  3  0  0  0  0  0  0
  191.7380  176.7520  137.0660 C   0  0  0  0  0  2  0  0  0  0  0  0
  187.8570  177.1550  138.4460 C   0  0  2  0  0  3  0  0  0  0  0  0
  190.3360  176.4430  140.5800 N   0  0  0  0  0  0  0  0  0  0  0  0
  185.6780  176.5640  137.3380 C   0  0  2  0  0  3  0  0  0  0  0  0
  186.5010  177.6920  137.9750 C   0  0  1  0  0  3  0  0  0  0  0  0
  189.0190  178.5290  140.2450 C   0  0  0  0  0  2  0  0  0  0  0  0
  192.3950  177.4840  139.7190 N   0  0  0  0  0  1  0  0  0  0  0  0
  190.9100  176.3010  138.2390 C   0  0  0  0  0  0  0  0  0  0  0  0
  184.3350  178.7930  138.7200 C   0  0  1  0  0  3  0  0  0  0  0  0
  183.6020  179.2790  139.9600 C   0  0  0  0  0  1  0  0  0  0  0  0
  191.2250  176.6990  139.4850 C   0  0  0  0  0  0  0  0  0  0  0  0
  191.8270  175.7050  135.9840 C   0  0  0  0  0  0  0  0  0  0  0  0
  189.6240  173.1910  137.0860 O   0  0  0  0  0  0  0  0  0  0  0  0
  185.7250  178.3000  139.1510 C   0  0  0  0  0  2  0  0  0  0  0  0
  188.7820  178.3320  138.7510 C   0  0  0  0  0  2  0  0  0  0  0  0
  186.3820  176.0010  136.2660 O   0  0  0  0  0  0  0  0  0  0  0  0
  187.4340  175.2790  136.8430 C   0  0  0  0  0  2  0  0  0  0  0  0
  191.1130  174.6180  136.0080 N   0  0  0  0  0  0  0  0  0  0  0  0
  189.7020  175.4290  137.9700 C   0  0  2  0  0  3  0  0  0  0  0  0
  184.3710  177.1390  136.8330 C   0  0  0  0  0  2  0  0  0  0  0  0
  183.5490  177.6750  138.0090 C   0  0  2  0  0  3  0  0  0  0  0  0
  190.1420  174.3400  137.0220 C   0  0  0  0  0  0  0  0  0  0  0  0
  182.1610  179.4280  137.1100 O   0  0  0  0  0  1  0  0  0  0  0  0
  182.1330  178.1090  137.5660 C   0  0  2  0  0  3  0  0  0  0  0  0
  179.8720  178.8140  138.5370 C   0  0  0  0  0  2  0  0  0  0  0  0
  181.0810  177.9440  138.6730 C   0  0  1  0  0  3  0  0  0  0  0  0
  179.3160  176.6690  139.4130 N   0  0  0  0  0  2  0  0  0  0  0  0
  178.9310  178.0900  139.4680 C   0  0  1  0  0  3  0  0  0  0  0  0
  180.5790  176.5860  138.7760 N   0  0  0  0  0  2  0  0  0  0  0  0
  179.3230  179.9850  141.1100 C   0  0  0  0  0  3  0  0  0  0  0  0
  181.2240  178.6180  143.6270 O   0  0  0  0  0  0  0  0  0  0  0  0
  180.0560  180.1710  142.2050 C   0  0  0  0  0  3  0  0  0  0  0  0
  179.1140  178.5950  140.8320 N   0  0  0  0  0  0  0  0  0  0  0  0
  179.7310  177.8050  141.8940 C   0  0  0  0  0  2  0  0  0  0  0  0
  180.3890  178.8520  142.7110 C   0  0  0  0  0  0  0  0  0  0  0  0
  192.7690  175.9210  134.8530 C   0  0  0  0  0  2  0  0  0  0  0  0
  195.1610  175.6890  135.6030 C   0  0  0  0  0  0  0  0  0  0  0  0
  193.9700  175.1150  135.0460 N   0  0  0  0  0  2  0  0  0  0  0  0
  195.1430  176.8900  135.9940 O   0  0  0  0  0  0  0  0  0  0  0  0
  197.6000  175.6490  135.1600 C   0  0  0  0  0  1  0  0  0  0  0  0
  196.4220  174.8740  135.7590 C   0  0  2  0  0  0  0  0  0  0  0  0
  196.3120  173.5000  135.0870 C   0  0  0  0  0  2  0  0  0  0  0  0
  196.3580  172.3440  136.0790 C   0  0  0  0  0  1  0  0  0  0  0  0
  196.6600  174.6650  137.2580 C   0  0  0  0  0  2  0  0  0  0  0  0
  197.8580  175.2520  137.6830 O   0  0  0  0  0  1  0  0  0  0  0  0
  2 19  1  1  0  0  0
  2 21  1  0  0  0  0
  2  4  1  0  0  0  0
  3 10  1  0  0  0  0
  4 17  1  6  0  0  0
  5  1  2  0  0  0  0
  6 22  1  6  0  0  0
  6  7  1  0  0  0  0
  7  4  1  0  0  0  0
  7 16  1  1  0  0  0
  8  1  1  0  0  0  0
 10 13  2  0  0  0  0
 11 16  1  0  0  0  0
 11 12  1  1  0  0  0
 13  9  1  0  0  0  0
 13  5  1  0  0  0  0
 14 20  2  0  0  0  0
 14  3  1  0  0  0  0
 17  8  1  0  0  0  0
 18 19  1  0  0  0  0
 18  6  1  0  0  0  0
 20 24  1  0  0  0  0
 21 24  1  6  0  0  0
 21 10  1  0  0  0  0
 22 23  1  0  0  0  0
 23 26  1  6  0  0  0
 23 11  1  0  0  0  0
 24 15  2  0  0  0  0
 26 25  1  1  0  0  0
 27 28  1  0  0  0  0
 28 26  1  6  0  0  0
 28 31  1  0  0  0  0
 29 30  1  0  0  0  0
 30 27  1  6  0  0  0
 30 35  1  0  0  0  0
 31 29  1  0  0  0  0
 32 34  2  0  0  0  0
 34 37  1  0  0  0  0
 35 32  1  0  0  0  0
 35 36  1  0  0  0  0
 36 37  1  0  0  0  0
 37 33  2  0  0  0  0
 38 40  1  0  0  0  0
 38 14  1  0  0  0  0
 39 43  1  0  0  0  0
 39 41  2  0  0  0  0
 40 39  1  0  0  0  0
 43 42  1  6  0  0  0
 43 46  1  0  0  0  0
 44 43  1  0  0  0  0
 44 45  1  0  0  0  0
 46 47  1  0  0  0  0
M  END
>  <MODEL>
4

>  <REMARK>
 VINA RESULT:      -7.2      4.506     11.554
  Name = 
  8 active torsions:
  status: ('A' for Active; 'I' for Inactive)
    1  A    between atoms: C_8  and  C_33
    2  A    between atoms: C_10  and  C_33
    3  A    between atoms: C_16  and  C_24
    4  A    between atoms: C_16  and  C_39
    5  A    between atoms: C_20  and  C_40
    6  A    between atoms: N_30  and  C_44
    7  A    between atoms: C_33  and  C_43
    8  A    between atoms: C_40  and  N_41
                            x       y       z     vdW  Elec       q    Type
                         _______ _______ _______ _____ _____    ______ ____

>  <TORSDO>
F 8

$$$$
=
 OpenBabel11062417313D

 47 52  0  0  1  0  0  0  0  0999 V2000
  189.2850  177.1950  141.0810 C   0  0  0  0  0  3  0  0  0  0  0  0
  188.8360  176.2410  137.4410 C   0  0  2  0  0  3  0  0  0  0  0  0
  192.0730  176.8000  137.4840 C   0  0  0  0  0  2  0  0  0  0  0  0
  188.0600  177.1410  138.4370 C   0  0  2  0  0  3  0  0  0  0  0  0
  190.2990  176.4180  140.8180 N   0  0  0  0  0  0  0  0  0  0  0  0
  186.0220  176.5470  137.0880 C   0  0  2  0  0  3  0  0  0  0  0  0
  186.7570  177.6720  137.8280 C   0  0  1  0  0  3  0  0  0  0  0  0
  189.0010  178.4960  140.3730 C   0  0  0  0  0  2  0  0  0  0  0  0
  192.4270  177.4950  140.2040 N   0  0  0  0  0  1  0  0  0  0  0  0
  191.1270  176.3210  138.5520 C   0  0  0  0  0  0  0  0  0  0  0  0
  184.5100  178.7380  138.3480 C   0  0  1  0  0  3  0  0  0  0  0  0
  183.6400  179.1960  139.5080 C   0  0  0  0  0  1  0  0  0  0  0  0
  191.2990  176.7020  139.8310 C   0  0  0  0  0  0  0  0  0  0  0  0
  192.2920  175.7720  136.4020 C   0  0  0  0  0  0  0  0  0  0  0  0
  190.0120  173.2180  137.2170 O   0  0  0  0  0  0  0  0  0  0  0  0
  185.8490  178.2530  138.9220 C   0  0  0  0  0  2  0  0  0  0  0  0
  188.9320  178.3220  138.8590 C   0  0  0  0  0  2  0  0  0  0  0  0
  186.8450  176.0080  136.0900 O   0  0  0  0  0  0  0  0  0  0  0  0
  187.8370  175.2870  136.7680 C   0  0  0  0  0  2  0  0  0  0  0  0
  191.5920  174.6780  136.3310 N   0  0  0  0  0  0  0  0  0  0  0  0
  189.9650  175.4410  138.1390 C   0  0  2  0  0  3  0  0  0  0  0  0
  184.7720  177.1160  136.4510 C   0  0  0  0  0  2  0  0  0  0  0  0
  183.8200  177.6250  137.5390 C   0  0  2  0  0  3  0  0  0  0  0  0
  190.5200  174.3730  137.2280 C   0  0  0  0  0  0  0  0  0  0  0  0
  181.9830  179.1840  137.6170 O   0  0  0  0  0  1  0  0  0  0  0  0
  182.4550  178.0510  136.9500 C   0  0  2  0  0  3  0  0  0  0  0  0
  181.3320  176.1720  138.2770 C   0  0  0  0  0  2  0  0  0  0  0  0
  181.4070  176.9280  136.9890 C   0  0  1  0  0  3  0  0  0  0  0  0
  179.1790  176.4480  137.2940 N   0  0  0  0  0  2  0  0  0  0  0  0
  179.9810  175.5210  138.1120 C   0  0  1  0  0  3  0  0  0  0  0  0
  180.0610  177.4050  136.7340 N   0  0  0  0  0  2  0  0  0  0  0  0
  179.2350  173.1530  137.5840 C   0  0  0  0  0  3  0  0  0  0  0  0
  182.1370  171.3980  137.0210 O   0  0  0  0  0  0  0  0  0  0  0  0
  179.8300  171.9780  137.3960 C   0  0  0  0  0  3  0  0  0  0  0  0
  180.1390  174.2490  137.3990 N   0  0  0  0  0  0  0  0  0  0  0  0
  181.4400  173.7230  136.9940 C   0  0  0  0  0  2  0  0  0  0  0  0
  181.2180  172.2600  137.0810 C   0  0  0  0  0  0  0  0  0  0  0  0
  193.3490  176.0170  135.3840 C   0  0  0  0  0  2  0  0  0  0  0  0
  195.8040  175.5720  135.7170 C   0  0  0  0  0  0  0  0  0  0  0  0
  194.4590  175.0910  135.5890 N   0  0  0  0  0  2  0  0  0  0  0  0
  196.0180  176.8170  135.7210 O   0  0  0  0  0  0  0  0  0  0  0  0
  198.2220  175.2460  135.2720 C   0  0  0  0  0  1  0  0  0  0  0  0
  196.9640  174.6180  135.8790 C   0  0  2  0  0  0  0  0  0  0  0  0
  196.6940  173.2600  135.2190 C   0  0  0  0  0  2  0  0  0  0  0  0
  196.9510  172.0810  136.1510 C   0  0  0  0  0  1  0  0  0  0  0  0
  197.1780  174.3960  137.3790 C   0  0  0  0  0  2  0  0  0  0  0  0
  198.0560  175.3410  137.9260 O   0  0  0  0  0  1  0  0  0  0  0  0
  2 19  1  1  0  0  0
  2 21  1  0  0  0  0
  2  4  1  0  0  0  0
  3 10  1  0  0  0  0
  4 17  1  6  0  0  0
  5  1  2  0  0  0  0
  6 22  1  6  0  0  0
  6  7  1  0  0  0  0
  7  4  1  0  0  0  0
  7 16  1  1  0  0  0
  8  1  1  0  0  0  0
 10 13  2  0  0  0  0
 11 16  1  0  0  0  0
 11 12  1  1  0  0  0
 13  9  1  0  0  0  0
 13  5  1  0  0  0  0
 14  3  1  0  0  0  0
 15 24  2  0  0  0  0
 17  8  1  0  0  0  0
 18 19  1  0  0  0  0
 18  6  1  0  0  0  0
 20 14  2  0  0  0  0
 20 24  1  0  0  0  0
 21 24  1  6  0  0  0
 21 10  1  0  0  0  0
 22 23  1  0  0  0  0
 23 26  1  6  0  0  0
 23 11  1  0  0  0  0
 26 25  1  1  0  0  0
 28 26  1  1  0  0  0
 28 27  1  0  0  0  0
 29 30  1  0  0  0  0
 30 35  1  6  0  0  0
 30 27  1  0  0  0  0
 31 28  1  0  0  0  0
 31 29  1  0  0  0  0
 33 37  2  0  0  0  0
 34 32  2  0  0  0  0
 35 32  1  0  0  0  0
 36 37  1  0  0  0  0
 36 35  1  0  0  0  0
 37 34  1  0  0  0  0
 38 40  1  0  0  0  0
 38 14  1  0  0  0  0
 39 41  2  0  0  0  0
 39 43  1  0  0  0  0
 40 39  1  0  0  0  0
 43 42  1  6  0  0  0
 43 46  1  0  0  0  0
 44 43  1  0  0  0  0
 44 45  1  0  0  0  0
 46 47  1  0  0  0  0
M  END
>  <MODEL>
5

>  <REMARK>
 VINA RESULT:      -6.9      4.946     12.304
  Name = 
  8 active torsions:
  status: ('A' for Active; 'I' for Inactive)
    1  A    between atoms: C_8  and  C_33
    2  A    between atoms: C_10  and  C_33
    3  A    between atoms: C_16  and  C_24
    4  A    between atoms: C_16  and  C_39
    5  A    between atoms: C_20  and  C_40
    6  A    between atoms: N_30  and  C_44
    7  A    between atoms: C_33  and  C_43
    8  A    between atoms: C_40  and  N_41
                            x       y       z     vdW  Elec       q    Type
                         _______ _______ _______ _____ _____    ______ ____

>  <TORSDO>
F 8

$$$$
=
 OpenBabel11062417313D

 47 52  0  0  1  0  0  0  0  0999 V2000
  185.0910  176.3580  137.3050 C   0  0  0  0  0  3  0  0  0  0  0  0
  182.1800  178.0380  139.0570 C   0  0  2  0  0  3  0  0  0  0  0  0
  181.5370  178.8860  135.9490 C   0  0  0  0  0  2  0  0  0  0  0  0
  183.6990  177.9130  139.3410 C   0  0  2  0  0  3  0  0  0  0  0  0
  184.0640  176.1170  136.5400 N   0  0  0  0  0  0  0  0  0  0  0  0
  183.0640  178.0880  141.7690 C   0  0  2  0  0  3  0  0  0  0  0  0
  184.0760  178.5180  140.6980 C   0  0  1  0  0  3  0  0  0  0  0  0
  185.5920  177.7380  137.6500 C   0  0  0  0  0  2  0  0  0  0  0  0
  183.6930  177.6210  134.6250 N   0  0  0  0  0  1  0  0  0  0  0  0
  182.2280  177.6850  136.5350 C   0  0  0  0  0  0  0  0  0  0  0  0
  185.8690  178.6180  142.4960 C   0  0  1  0  0  3  0  0  0  0  0  0
  187.2280  178.0480  142.8670 C   0  0  0  0  0  1  0  0  0  0  0  0
  183.2770  177.1300  135.9000 C   0  0  0  0  0  0  0  0  0  0  0  0
  180.0550  178.8950  136.2300 C   0  0  0  0  0  0  0  0  0  0  0  0
  179.6100  176.1580  138.3970 O   0  0  0  0  0  0  0  0  0  0  0  0
  185.4870  178.0760  141.1110 C   0  0  0  0  0  2  0  0  0  0  0  0
  184.4940  178.6160  138.2420 C   0  0  0  0  0  2  0  0  0  0  0  0
  181.7730  178.4840  141.3970 O   0  0  0  0  0  0  0  0  0  0  0  0
  181.4140  177.6490  140.3310 C   0  0  0  0  0  2  0  0  0  0  0  0
  179.4960  178.0440  137.0400 N   0  0  0  0  0  0  0  0  0  0  0  0
  181.7370  177.1520  137.8640 C   0  0  2  0  0  3  0  0  0  0  0  0
  183.4320  178.7470  143.0810 C   0  0  0  0  0  2  0  0  0  0  0  0
  184.8040  178.2500  143.5460 C   0  0  2  0  0  3  0  0  0  0  0  0
  180.2320  177.0660  137.7800 C   0  0  0  0  0  0  0  0  0  0  0  0
  185.3010  180.1440  144.9520 O   0  0  0  0  0  1  0  0  0  0  0  0
  185.1440  178.7560  144.9670 C   0  0  2  0  0  3  0  0  0  0  0  0
  187.3470  179.0020  146.2460 C   0  0  0  0  0  2  0  0  0  0  0  0
  186.3880  178.0800  145.5630 C   0  0  1  0  0  3  0  0  0  0  0  0
  187.2060  176.9020  147.3610 N   0  0  0  0  0  2  0  0  0  0  0  0
  188.1380  177.9990  147.0500 C   0  0  1  0  0  3  0  0  0  0  0  0
  186.0610  177.0600  146.5420 N   0  0  0  0  0  2  0  0  0  0  0  0
  190.2450  176.6130  146.7680 C   0  0  0  0  0  3  0  0  0  0  0  0
  192.1620  178.3380  144.4950 O   0  0  0  0  0  0  0  0  0  0  0  0
  191.4150  176.7580  146.1520 C   0  0  0  0  0  3  0  0  0  0  0  0
  189.2440  177.4880  146.2340 N   0  0  0  0  0  0  0  0  0  0  0  0
  189.8180  178.2350  145.1180 C   0  0  0  0  0  2  0  0  0  0  0  0
  191.2330  177.7930  145.1510 C   0  0  0  0  0  0  0  0  0  0  0  0
  179.2030  179.9090  135.5520 C   0  0  0  0  0  2  0  0  0  0  0  0
  179.9310  182.2480  136.1310 C   0  0  0  0  0  0  0  0  0  0  0  0
  179.1000  181.1060  136.3820 N   0  0  0  0  0  2  0  0  0  0  0  0
  180.7110  182.2390  135.1380 O   0  0  0  0  0  0  0  0  0  0  0  0
  179.3490  183.0640  138.3990 C   0  0  0  0  0  1  0  0  0  0  0  0
  179.8660  183.4710  137.0160 C   0  0  2  0  0  0  0  0  0  0  0  0
  178.9650  184.5640  136.4280 C   0  0  0  0  0  2  0  0  0  0  0  0
  179.3590  185.9670  136.8750 C   0  0  0  0  0  1  0  0  0  0  0  0
  181.2860  184.0280  137.1460 C   0  0  0  0  0  2  0  0  0  0  0  0
  181.9800  183.4430  138.2130 O   0  0  0  0  0  1  0  0  0  0  0  0
  1  8  1  0  0  0  0
  2  4  1  0  0  0  0
  2 19  1  1  0  0  0
  3 14  1  0  0  0  0
  3 10  1  0  0  0  0
  4 17  1  6  0  0  0
  4  7  1  0  0  0  0
  5  1  2  0  0  0  0
  6 22  1  1  0  0  0
  7 16  1  1  0  0  0
  7  6  1  0  0  0  0
  8 17  1  0  0  0  0
  9 13  1  0  0  0  0
 11 12  1  1  0  0  0
 11 23  1  0  0  0  0
 13 10  2  0  0  0  0
 13  5  1  0  0  0  0
 14 20  2  0  0  0  0
 16 11  1  0  0  0  0
 18  6  1  0  0  0  0
 19 18  1  0  0  0  0
 20 24  1  0  0  0  0
 21 10  1  6  0  0  0
 21  2  1  0  0  0  0
 22 23  1  0  0  0  0
 23 26  1  1  0  0  0
 24 21  1  0  0  0  0
 24 15  2  0  0  0  0
 26 25  1  6  0  0  0
 27 30  1  0  0  0  0
 28 26  1  1  0  0  0
 28 27  1  0  0  0  0
 28 31  1  0  0  0  0
 30 35  1  6  0  0  0
 30 29  1  0  0  0  0
 31 29  1  0  0  0  0
 33 37  2  0  0  0  0
 34 32  2  0  0  0  0
 35 32  1  0  0  0  0
 36 37  1  0  0  0  0
 36 35  1  0  0  0  0
 37 34  1  0  0  0  0
 38 14  1  0  0  0  0
 38 40  1  0  0  0  0
 39 40  1  0  0  0  0
 39 43  1  0  0  0  0
 41 39  2  0  0  0  0
 43 46  1  0  0  0  0
 43 42  1  1  0  0  0
 44 45  1  0  0  0  0
 44 43  1  0  0  0  0
 46 47  1  0  0  0  0
M  END
>  <MODEL>
6

>  <REMARK>
 VINA RESULT:      -6.5      2.048      3.588
  Name = 
  8 active torsions:
  status: ('A' for Active; 'I' for Inactive)
    1  A    between atoms: C_8  and  C_33
    2  A    between atoms: C_10  and  C_33
    3  A    between atoms: C_16  and  C_24
    4  A    between atoms: C_16  and  C_39
    5  A    between atoms: C_20  and  C_40
    6  A    between atoms: N_30  and  C_44
    7  A    between atoms: C_33  and  C_43
    8  A    between atoms: C_40  and  N_41
                            x       y       z     vdW  Elec       q    Type
                         _______ _______ _______ _____ _____    ______ ____

>  <TORSDO>
F 8

$$$$
=
 OpenBabel11062417313D

 47 52  0  0  1  0  0  0  0  0999 V2000
  184.3400  173.3650  137.4880 C   0  0  0  0  0  3  0  0  0  0  0  0
  185.0480  177.0340  136.8520 C   0  0  2  0  0  3  0  0  0  0  0  0
  181.9100  176.8880  135.8910 C   0  0  0  0  0  2  0  0  0  0  0  0
  185.8160  175.7130  136.5900 C   0  0  2  0  0  3  0  0  0  0  0  0
  183.2760  173.9840  137.9180 N   0  0  0  0  0  0  0  0  0  0  0  0
  187.9000  177.0980  136.8470 C   0  0  2  0  0  3  0  0  0  0  0  0
  187.2270  175.9730  136.0500 C   0  0  1  0  0  3  0  0  0  0  0  0
  184.8430  173.4210  136.0680 C   0  0  0  0  0  2  0  0  0  0  0  0
  181.3600  174.1560  136.3790 N   0  0  0  0  0  1  0  0  0  0  0  0
  182.6800  176.0980  136.9140 C   0  0  0  0  0  0  0  0  0  0  0  0
  189.5170  174.9440  135.6550 C   0  0  1  0  0  3  0  0  0  0  0  0
  190.3100  173.6650  135.8710 C   0  0  0  0  0  1  0  0  0  0  0  0
  182.4220  174.7890  137.0950 C   0  0  0  0  0  0  0  0  0  0  0  0
  181.6860  178.3190  136.3140 C   0  0  0  0  0  0  0  0  0  0  0  0
  183.5600  178.6050  139.2790 O   0  0  0  0  0  0  0  0  0  0  0  0
  188.0780  174.6980  136.1340 C   0  0  0  0  0  2  0  0  0  0  0  0
  185.0480  174.8540  135.5870 C   0  0  0  0  0  2  0  0  0  0  0  0
  187.1260  178.2640  136.7800 O   0  0  0  0  0  0  0  0  0  0  0  0
  185.9940  178.0120  137.5650 C   0  0  0  0  0  2  0  0  0  0  0  0
  182.2580  178.8310  137.3630 N   0  0  0  0  0  0  0  0  0  0  0  0
  183.7670  176.8040  137.6960 C   0  0  2  0  0  3  0  0  0  0  0  0
  189.2660  177.3680  136.2540 C   0  0  0  0  0  2  0  0  0  0  0  0
  190.1530  176.1290  136.4060 C   0  0  2  0  0  3  0  0  0  0  0  0
  183.1900  178.1130  138.1770 C   0  0  0  0  0  0  0  0  0  0  0  0
  191.7380  176.2650  134.5940 O   0  0  0  0  0  1  0  0  0  0  0  0
  191.6110  176.4130  135.9780 C   0  0  2  0  0  3  0  0  0  0  0  0
  193.8420  175.1610  135.9090 C   0  0  0  0  0  2  0  0  0  0  0  0
  192.6350  175.5320  136.7090 C   0  0  1  0  0  3  0  0  0  0  0  0
  194.3870  175.5300  138.1980 N   0  0  0  0  0  2  0  0  0  0  0  0
  194.7630  174.7260  137.0220 C   0  0  1  0  0  3  0  0  0  0  0  0
  193.1420  176.1460  137.9230 N   0  0  0  0  0  2  0  0  0  0  0  0
  195.3130  172.5940  138.2840 C   0  0  0  0  0  3  0  0  0  0  0  0
  194.7720  170.0510  136.0340 O   0  0  0  0  0  0  0  0  0  0  0  0
  195.4310  171.3030  137.9820 C   0  0  0  0  0  3  0  0  0  0  0  0
  194.5420  173.3050  137.3070 N   0  0  0  0  0  0  0  0  0  0  0  0
  194.0680  172.3590  136.3010 C   0  0  0  0  0  2  0  0  0  0  0  0
  194.7260  171.1020  136.7310 C   0  0  0  0  0  0  0  0  0  0  0  0
  180.7740  179.1710  135.5030 C   0  0  0  0  0  2  0  0  0  0  0  0
  180.5990  181.6630  135.8160 C   0  0  0  0  0  0  0  0  0  0  0  0
  180.3530  180.3300  136.2850 N   0  0  0  0  0  2  0  0  0  0  0  0
  181.1240  181.8310  134.6800 O   0  0  0  0  0  0  0  0  0  0  0  0
  178.9650  182.5290  137.4680 C   0  0  0  0  0  1  0  0  0  0  0  0
  180.2100  182.8660  136.6420 C   0  0  2  0  0  0  0  0  0  0  0  0
  179.9360  184.1010  135.7740 C   0  0  0  0  0  2  0  0  0  0  0  0
  179.7650  185.3780  136.5900 C   0  0  0  0  0  1  0  0  0  0  0  0
  181.3760  183.1810  137.5830 C   0  0  0  0  0  2  0  0  0  0  0  0
  181.7190  182.0790  138.3770 O   0  0  0  0  0  1  0  0  0  0  0  0
  1  5  2  0  0  0  0
  2 19  1  1  0  0  0
  2 21  1  0  0  0  0
  3 14  1  0  0  0  0
  3 10  1  0  0  0  0
  4 17  1  6  0  0  0
  4  2  1  0  0  0  0
  6 22  1  6  0  0  0
  7 16  1  1  0  0  0
  7  4  1  0  0  0  0
  7  6  1  0  0  0  0
  8  1  1  0  0  0  0
  9 13  1  0  0  0  0
 10 13  2  0  0  0  0
 11 12  1  1  0  0  0
 11 16  1  0  0  0  0
 11 23  1  0  0  0  0
 13  5  1  0  0  0  0
 14 20  2  0  0  0  0
 17  8  1  0  0  0  0
 18  6  1  0  0  0  0
 18 19  1  0  0  0  0
 20 24  1  0  0  0  0
 21 10  1  6  0  0  0
 21 24  1  0  0  0  0
 22 23  1  0  0  0  0
 23 26  1  6  0  0  0
 24 15  2  0  0  0  0
 26 25  1  6  0  0  0
 27 28  1  0  0  0  0
 28 26  1  6  0  0  0
 28 31  1  0  0  0  0
 30 27  1  6  0  0  0
 30 35  1  0  0  0  0
 30 29  1  0  0  0  0
 31 29  1  0  0  0  0
 33 37  2  0  0  0  0
 34 32  2  0  0  0  0
 35 32  1  0  0  0  0
 36 37  1  0  0  0  0
 36 35  1  0  0  0  0
 37 34  1  0  0  0  0
 38 40  1  0  0  0  0
 38 14  1  0  0  0  0
 39 40  1  0  0  0  0
 39 43  1  0  0  0  0
 41 39  2  0  0  0  0
 43 42  1  1  0  0  0
 43 46  1  0  0  0  0
 44 45  1  0  0  0  0
 44 43  1  0  0  0  0
 46 47  1  0  0  0  0
M  END
>  <MODEL>
7

>  <REMARK>
 VINA RESULT:      -6.1      4.998      6.698
  Name = 
  8 active torsions:
  status: ('A' for Active; 'I' for Inactive)
    1  A    between atoms: C_8  and  C_33
    2  A    between atoms: C_10  and  C_33
    3  A    between atoms: C_16  and  C_24
    4  A    between atoms: C_16  and  C_39
    5  A    between atoms: C_20  and  C_40
    6  A    between atoms: N_30  and  C_44
    7  A    between atoms: C_33  and  C_43
    8  A    between atoms: C_40  and  N_41
                            x       y       z     vdW  Elec       q    Type
                         _______ _______ _______ _____ _____    ______ ____

>  <TORSDO>
F 8

$$$$
=
 OpenBabel11062417313D

 47 52  0  0  1  0  0  0  0  0999 V2000
  190.4600  174.1910  135.5590 C   0  0  0  0  0  3  0  0  0  0  0  0
  188.2750  176.2490  137.8740 C   0  0  2  0  0  3  0  0  0  0  0  0
  191.0080  176.0690  139.6870 C   0  0  0  0  0  2  0  0  0  0  0  0
  188.0530  174.9890  136.9990 C   0  0  2  0  0  3  0  0  0  0  0  0
  191.2520  175.1180  136.0200 N   0  0  0  0  0  0  0  0  0  0  0  0
  185.6690  175.7700  136.8160 C   0  0  2  0  0  3  0  0  0  0  0  0
  186.5840  174.5500  136.9930 C   0  0  1  0  0  3  0  0  0  0  0  0
  189.7430  173.1780  136.4160 C   0  0  0  0  0  2  0  0  0  0  0  0
  192.6580  174.5500  137.9620 N   0  0  0  0  0  1  0  0  0  0  0  0
  190.7940  176.0560  138.1980 C   0  0  0  0  0  0  0  0  0  0  0  0
  184.8490  173.1310  135.7970 C   0  0  1  0  0  3  0  0  0  0  0  0
  184.6690  172.2190  134.5940 C   0  0  0  0  0  1  0  0  0  0  0  0
  191.5700  175.2920  137.4080 C   0  0  0  0  0  0  0  0  0  0  0  0
  190.7210  177.4170  140.3010 C   0  0  0  0  0  0  0  0  0  0  0  0
  189.4140  179.2840  137.6200 O   0  0  0  0  0  0  0  0  0  0  0  0
  186.3270  173.5420  135.8650 C   0  0  0  0  0  2  0  0  0  0  0  0
  188.9150  173.8380  137.5150 C   0  0  0  0  0  2  0  0  0  0  0  0
  185.9010  176.6980  137.8400 O   0  0  0  0  0  0  0  0  0  0  0  0
  187.1560  177.2560  137.5670 C   0  0  0  0  0  2  0  0  0  0  0  0
  190.1800  178.3870  139.6260 N   0  0  0  0  0  0  0  0  0  0  0  0
  189.6650  176.8900  137.6290 C   0  0  2  0  0  3  0  0  0  0  0  0
  184.2280  175.3110  136.8730 C   0  0  0  0  0  2  0  0  0  0  0  0
  183.9360  174.3670  135.7020 C   0  0  2  0  0  3  0  0  0  0  0  0
  189.7560  178.2550  138.2660 C   0  0  0  0  0  0  0  0  0  0  0  0
  181.8270  174.7670  134.6050 O   0  0  0  0  0  1  0  0  0  0  0  0
  182.4340  174.0140  135.6130 C   0  0  2  0  0  3  0  0  0  0  0  0
  180.4150  174.9750  136.8590 C   0  0  0  0  0  2  0  0  0  0  0  0
  181.6920  174.2010  136.9450 C   0  0  1  0  0  3  0  0  0  0  0  0
  180.2690  173.2140  138.4580 N   0  0  0  0  0  2  0  0  0  0  0  0
  179.7870  174.5770  138.1720 C   0  0  1  0  0  3  0  0  0  0  0  0
  181.3470  172.9430  137.5800 N   0  0  0  0  0  2  0  0  0  0  0  0
  179.8670  175.3220  140.5970 C   0  0  0  0  0  3  0  0  0  0  0  0
  180.0490  178.7540  140.4800 O   0  0  0  0  0  0  0  0  0  0  0  0
  179.8210  176.4820  141.2470 C   0  0  0  0  0  3  0  0  0  0  0  0
  180.2440  175.4900  139.2250 N   0  0  0  0  0  0  0  0  0  0  0  0
  180.5240  176.9020  138.9830 C   0  0  0  0  0  2  0  0  0  0  0  0
  180.1660  177.5120  140.2860 C   0  0  0  0  0  0  0  0  0  0  0  0
  191.0760  177.6440  141.7290 C   0  0  0  0  0  2  0  0  0  0  0  0
  189.1070  177.0560  143.1830 C   0  0  0  0  0  0  0  0  0  0  0  0
  189.8860  178.0330  142.4800 N   0  0  0  0  0  2  0  0  0  0  0  0
  189.4970  175.8550  143.2070 O   0  0  0  0  0  0  0  0  0  0  0  0
  187.1450  176.1770  144.4190 C   0  0  0  0  0  1  0  0  0  0  0  0
  187.8470  177.4440  143.9200 C   0  0  2  0  0  0  0  0  0  0  0  0
  186.8870  178.2560  143.0410 C   0  0  0  0  0  2  0  0  0  0  0  0
  185.4200  177.9490  143.3190 C   0  0  0  0  0  1  0  0  0  0  0  0
  188.2560  178.3050  145.1190 C   0  0  0  0  0  2  0  0  0  0  0  0
  188.1080  177.6170  146.3300 O   0  0  0  0  0  1  0  0  0  0  0  0
  1  5  2  0  0  0  0
  1  8  1  0  0  0  0
  2 19  1  6  0  0  0
  3 14  1  0  0  0  0
  4 17  1  1  0  0  0
  4  2  1  0  0  0  0
  5 13  1  0  0  0  0
  6 22  1  1  0  0  0
  6  7  1  0  0  0  0
  6 18  1  0  0  0  0
  7 16  1  6  0  0  0
  7  4  1  0  0  0  0
  8 17  1  0  0  0  0
 10  3  1  0  0  0  0
 11 12  1  6  0  0  0
 11 16  1  0  0  0  0
 13  9  1  0  0  0  0
 13 10  2  0  0  0  0
 14 38  1  0  0  0  0
 15 24  2  0  0  0  0
 19 18  1  0  0  0  0
 20 14  2  0  0  0  0
 21  2  1  0  0  0  0
 21 10  1  1  0  0  0
 21 24  1  0  0  0  0
 23 26  1  1  0  0  0
 23 11  1  0  0  0  0
 23 22  1  0  0  0  0
 24 20  1  0  0  0  0
 26 25  1  6  0  0  0
 27 28  1  0  0  0  0
 28 26  1  6  0  0  0
 28 31  1  0  0  0  0
 30 27  1  6  0  0  0
 30 29  1  0  0  0  0
 30 35  1  0  0  0  0
 31 29  1  0  0  0  0
 32 34  2  0  0  0  0
 35 32  1  0  0  0  0
 36 35  1  0  0  0  0
 36 37  1  0  0  0  0
 37 33  2  0  0  0  0
 37 34  1  0  0  0  0
 38 40  1  0  0  0  0
 39 41  2  0  0  0  0
 39 43  1  0  0  0  0
 40 39  1  0  0  0  0
 43 42  1  1  0  0  0
 43 46  1  0  0  0  0
 44 45  1  0  0  0  0
 44 43  1  0  0  0  0
 46 47  1  0  0  0  0
M  END
>  <MODEL>
8

>  <REMARK>
 VINA RESULT:      -6.0      4.047     10.113
  Name = 
  8 active torsions:
  status: ('A' for Active; 'I' for Inactive)
    1  A    between atoms: C_8  and  C_33
    2  A    between atoms: C_10  and  C_33
    3  A    between atoms: C_16  and  C_24
    4  A    between atoms: C_16  and  C_39
    5  A    between atoms: C_20  and  C_40
    6  A    between atoms: N_30  and  C_44
    7  A    between atoms: C_33  and  C_43
    8  A    between atoms: C_40  and  N_41
                            x       y       z     vdW  Elec       q    Type
                         _______ _______ _______ _____ _____    ______ ____

>  <TORSDO>
F 8

$$$$
