=
 OpenBabel11062413413D

 42 45  0  0  1  0  0  0  0  0999 V2000
  188.5590  177.5070  143.4470 C   0  0  1  0  0  3  0  0  0  0  0  0
  190.5540  177.9400  147.7450 C   0  0  0  0  0  2  0  0  0  0  0  0
  187.1480  177.5660  144.0020 C   0  0  0  0  0  0  0  0  0  0  0  0
  189.2000  178.2570  148.4080 C   0  0  0  0  0  2  0  0  0  0  0  0
  188.1080  177.4470  146.2730 C   0  0  0  0  0  0  0  0  0  0  0  0
  187.8760  176.2590  148.3220 O   0  0  0  0  0  1  0  0  0  0  0  0
  186.9310  177.6120  145.3420 C   0  0  0  0  0  0  0  0  0  0  0  0
  189.4770  176.9700  144.3920 O   0  0  0  0  0  0  0  0  0  0  0  0
  190.4680  176.8520  146.6750 C   0  0  0  0  0  2  0  0  0  0  0  0
  187.9960  177.5400  147.7780 C   0  0  1  0  0  3  0  0  0  0  0  0
  189.3070  177.1150  145.7650 C   0  0  0  0  0  0  0  0  0  0  0  0
  185.0280  179.2610  145.8270 C   0  0  0  0  0  2  0  0  0  0  0  0
  185.3780  178.5450  147.1240 C   0  0  0  0  0  2  0  0  0  0  0  0
  185.4850  177.8170  145.7990 C   0  0  0  0  0  3  0  0  0  0  0  0
  186.0090  177.7720  143.0330 C   0  0  0  0  0  2  0  0  0  0  0  0
  186.0920  179.1320  142.3510 C   0  0  0  0  0  2  0  0  0  0  0  0
  185.1640  179.2070  141.1480 C   0  0  0  0  0  2  0  0  0  0  0  0
  184.5760  177.8380  140.8410 C   0  0  0  0  0  2  0  0  0  0  0  0
  183.1650  177.9490  140.3260 C   0  0  0  0  0  0  0  0  0  0  0  0
  182.7900  177.1870  139.4490 O   0  0  0  0  0  0  0  0  0  0  0  0
  181.0960  178.3580  141.7210 C   0  0  2  0  0  3  0  0  0  0  0  0
  181.4450  179.6180  139.7280 C   0  0  0  0  0  2  0  0  0  0  0  0
  180.0870  179.7120  140.0680 O   0  0  0  0  0  0  0  0  0  0  0  0
  182.1930  178.9630  140.8730 C   0  0  2  0  0  3  0  0  0  0  0  0
  179.8420  178.6240  140.9190 C   0  0  0  0  0  2  0  0  0  0  0  0
  182.3170  179.0230  143.8740 C   0  0  0  0  0  1  0  0  0  0  0  0
  179.9400  178.2910  143.9480 C   0  0  0  0  0  1  0  0  0  0  0  0
  180.9940  178.9930  143.1150 C   0  0  0  0  0  3  0  0  0  0  0  0
  188.6420  176.7020  142.1450 C   0  0  0  0  0  2  0  0  0  0  0  0
  189.3670  177.4460  141.0200 C   0  0  2  0  0  3  0  0  0  0  0  0
  188.4680  177.6720  139.7990 C   0  0  1  0  0  3  0  0  0  0  0  0
  188.3940  179.0390  139.5120 O   0  0  0  0  0  1  0  0  0  0  0  0
  189.0030  176.9480  138.5670 C   0  0  0  0  0  2  0  0  0  0  0  0
  187.6890  175.3250  137.4120 O   0  0  0  0  0  0  0  0  0  0  0  0
  187.8990  176.5470  137.6390 C   0  0  0  0  0  0  0  0  0  0  0  0
  187.0310  177.5610  137.0230 C   0  0  0  0  0  0  0  0  0  0  0  0
  187.5320  178.4560  136.2920 O   0  0  0  0  0  0  0  0  0  0  0  0
  185.5540  177.5470  137.2430 C   0  0  0  0  0  1  0  0  0  0  0  0
  190.5570  176.7520  140.6640 O   0  0  0  0  0  0  0  0  0  0  0  0
  191.8110  177.2140  141.0540 C   0  0  0  0  0  0  0  0  0  0  0  0
  192.0540  177.4000  142.2750 O   0  0  0  0  0  1  0  0  0  0  0  0
  192.8060  177.4540  140.1080 O   0  0  0  0  0  0  0  0  0  0  0  0
  1 29  1  6  0  0  0
  1  3  1  0  0  0  0
  1  8  1  0  0  0  0
  2  4  1  0  0  0  0
  3  7  2  0  0  0  0
  5 10  1  0  0  0  0
  7 14  1  0  0  0  0
  7  5  1  0  0  0  0
  8 11  1  0  0  0  0
  9  2  1  0  0  0  0
 10  6  1  1  0  0  0
 10  4  1  0  0  0  0
 11  5  2  0  0  0  0
 11  9  1  0  0  0  0
 12 13  1  0  0  0  0
 14 12  1  0  0  0  0
 14 13  1  0  0  0  0
 15  3  1  0  0  0  0
 16 15  1  0  0  0  0
 17 16  1  0  0  0  0
 18 17  1  0  0  0  0
 19 18  1  0  0  0  0
 20 19  2  0  0  0  0
 21 28  1  1  0  0  0
 22 23  1  0  0  0  0
 22 24  1  0  0  0  0
 23 25  1  0  0  0  0
 24 19  1  6  0  0  0
 24 21  1  0  0  0  0
 25 21  1  0  0  0  0
 28 26  1  0  0  0  0
 28 27  1  0  0  0  0
 30 29  1  1  0  0  0
 31 32  1  6  0  0  0
 31 30  1  0  0  0  0
 33 31  1  0  0  0  0
 34 35  2  0  0  0  0
 35 33  1  0  0  0  0
 36 38  1  0  0  0  0
 36 35  1  0  0  0  0
 37 36  2  0  0  0  0
 39 30  1  0  0  0  0
 39 40  1  0  0  0  0
 40 41  1  0  0  0  0
 42 40  2  0  0  0  0
M  END
>  <MODEL>
1

>  <REMARK>
 VINA RESULT:      -7.6      0.000      0.000
  Name = 
  16 active torsions:
  status: ('A' for Active; 'I' for Inactive)
    1  A    between atoms: C_1  and  O_14
    2  A    between atoms: C_2  and  C_39
    3  A    between atoms: C_2  and  C_40
    4  A    between atoms: C_3  and  C_25
    5  A    between atoms: C_7  and  C_28
    6  A    between atoms: C_8  and  C_17
    7  A    between atoms: C_9  and  C_32
    8  A    between atoms: C_9  and  C_38
    9  A    between atoms: O_14  and  C_38
   10  A    between atoms: C_19  and  C_31
   11  A    between atoms: C_23  and  C_28
   12  A    between atoms: C_23  and  C_34
   13  A    between atoms: C_24  and  C_41
   14  A    between atoms: C_25  and  C_38
   15  A    between atoms: C_32  and  C_41
   16  A    between atoms: C_34  and  C_40
                            x       y       z     vdW  Elec       q    Type
                         _______ _______ _______ _____ _____    ______ ____

>  <TORSDO>
F 16

$$$$
=
 OpenBabel11062413413D

 42 45  0  0  1  0  0  0  0  0999 V2000
  184.1860  178.2590  140.2860 C   0  0  1  0  0  3  0  0  0  0  0  0
  179.6830  177.5920  141.6730 C   0  0  0  0  0  2  0  0  0  0  0  0
  184.5920  178.8780  141.6110 C   0  0  0  0  0  0  0  0  0  0  0  0
  180.0120  177.9710  143.1290 C   0  0  0  0  0  2  0  0  0  0  0  0
  182.2120  178.8770  142.2630 C   0  0  0  0  0  0  0  0  0  0  0  0
  180.5360  180.3110  143.1600 O   0  0  0  0  0  1  0  0  0  0  0  0
  183.6700  179.1060  142.5810 C   0  0  0  0  0  0  0  0  0  0  0  0
  182.8090  178.4750  140.0010 O   0  0  0  0  0  0  0  0  0  0  0  0
  180.4010  178.4620  140.6400 C   0  0  0  0  0  2  0  0  0  0  0  0
  181.1040  179.0410  143.2810 C   0  0  1  0  0  3  0  0  0  0  0  0
  181.8500  178.5990  141.0000 C   0  0  0  0  0  0  0  0  0  0  0  0
  184.7400  178.5070  144.8330 C   0  0  0  0  0  2  0  0  0  0  0  0
  183.3690  179.1120  145.1050 C   0  0  0  0  0  2  0  0  0  0  0  0
  184.1980  179.5970  143.9310 C   0  0  0  0  0  3  0  0  0  0  0  0
  186.0640  179.0490  141.8960 C   0  0  0  0  0  2  0  0  0  0  0  0
  186.7420  177.7110  142.1640 C   0  0  0  0  0  2  0  0  0  0  0  0
  187.9090  177.8630  143.1290 C   0  0  0  0  0  2  0  0  0  0  0  0
  187.8850  176.7600  144.1750 C   0  0  0  0  0  2  0  0  0  0  0  0
  188.4120  177.2480  145.4990 C   0  0  0  0  0  0  0  0  0  0  0  0
  187.6720  177.2500  146.4700 O   0  0  0  0  0  0  0  0  0  0  0  0
  190.8270  176.9770  144.8010 C   0  0  2  0  0  3  0  0  0  0  0  0
  190.3010  177.4280  147.0810 C   0  0  0  0  0  2  0  0  0  0  0  0
  191.6040  176.9100  147.0320 O   0  0  0  0  0  0  0  0  0  0  0  0
  189.8340  177.7190  145.6680 C   0  0  2  0  0  3  0  0  0  0  0  0
  191.6900  176.2420  145.8010 C   0  0  0  0  0  2  0  0  0  0  0  0
  191.2420  179.3700  143.9830 C   0  0  0  0  0  1  0  0  0  0  0  0
  191.6990  177.4320  142.4910 C   0  0  0  0  0  1  0  0  0  0  0  0
  191.6800  177.9090  143.9300 C   0  0  0  0  0  3  0  0  0  0  0  0
  185.0330  178.7720  139.1170 C   0  0  0  0  0  2  0  0  0  0  0  0
  185.5860  177.6500  138.2330 C   0  0  2  0  0  3  0  0  0  0  0  0
  187.0580  177.8720  137.8640 C   0  0  1  0  0  3  0  0  0  0  0  0
  187.7260  178.4810  138.9290 O   0  0  0  0  0  1  0  0  0  0  0  0
  187.7600  176.5560  137.5420 C   0  0  0  0  0  2  0  0  0  0  0  0
  189.5630  177.6260  136.4020 O   0  0  0  0  0  0  0  0  0  0  0  0
  189.2140  176.7630  137.2520 C   0  0  0  0  0  0  0  0  0  0  0  0
  190.2400  175.9990  137.9760 C   0  0  0  0  0  0  0  0  0  0  0  0
  190.2890  174.7450  137.8590 O   0  0  0  0  0  0  0  0  0  0  0  0
  191.2370  176.6850  138.8500 C   0  0  0  0  0  1  0  0  0  0  0  0
  184.7790  177.5020  137.0700 O   0  0  0  0  0  0  0  0  0  0  0  0
  183.8310  176.4870  136.9690 C   0  0  0  0  0  0  0  0  0  0  0  0
  184.0450  175.3770  137.5230 O   0  0  0  0  0  1  0  0  0  0  0  0
  182.6380  176.6950  136.2800 O   0  0  0  0  0  0  0  0  0  0  0  0
  1 29  1  6  0  0  0
  1  3  1  0  0  0  0
  2  4  1  0  0  0  0
  3 15  1  0  0  0  0
  3  7  2  0  0  0  0
  4 10  1  0  0  0  0
  5  7  1  0  0  0  0
  5 10  1  0  0  0  0
  7 14  1  0  0  0  0
  8  1  1  0  0  0  0
  8 11  1  0  0  0  0
  9 11  1  0  0  0  0
  9  2  1  0  0  0  0
 10  6  1  6  0  0  0
 11  5  2  0  0  0  0
 12 13  1  0  0  0  0
 14 12  1  0  0  0  0
 14 13  1  0  0  0  0
 15 16  1  0  0  0  0
 16 17  1  0  0  0  0
 17 18  1  0  0  0  0
 18 19  1  0  0  0  0
 19 20  2  0  0  0  0
 21 28  1  1  0  0  0
 21 24  1  0  0  0  0
 21 25  1  0  0  0  0
 23 22  1  0  0  0  0
 24 19  1  1  0  0  0
 24 22  1  0  0  0  0
 25 23  1  0  0  0  0
 27 28  1  0  0  0  0
 28 26  1  0  0  0  0
 30 29  1  6  0  0  0
 31 30  1  0  0  0  0
 31 32  1  1  0  0  0
 33 31  1  0  0  0  0
 34 35  2  0  0  0  0
 35 33  1  0  0  0  0
 35 36  1  0  0  0  0
 36 38  1  0  0  0  0
 37 36  2  0  0  0  0
 39 30  1  0  0  0  0
 40 39  1  0  0  0  0
 40 41  1  0  0  0  0
 42 40  2  0  0  0  0
M  END
>  <MODEL>
2

>  <REMARK>
 VINA RESULT:      -7.6      1.875      7.760
  Name = 
  16 active torsions:
  status: ('A' for Active; 'I' for Inactive)
    1  A    between atoms: C_1  and  O_14
    2  A    between atoms: C_2  and  C_39
    3  A    between atoms: C_2  and  C_40
    4  A    between atoms: C_3  and  C_25
    5  A    between atoms: C_7  and  C_28
    6  A    between atoms: C_8  and  C_17
    7  A    between atoms: C_9  and  C_32
    8  A    between atoms: C_9  and  C_38
    9  A    between atoms: O_14  and  C_38
   10  A    between atoms: C_19  and  C_31
   11  A    between atoms: C_23  and  C_28
   12  A    between atoms: C_23  and  C_34
   13  A    between atoms: C_24  and  C_41
   14  A    between atoms: C_25  and  C_38
   15  A    between atoms: C_32  and  C_41
   16  A    between atoms: C_34  and  C_40
                            x       y       z     vdW  Elec       q    Type
                         _______ _______ _______ _____ _____    ______ ____

>  <TORSDO>
F 16

$$$$
=
 OpenBabel11062413413D

 42 45  0  0  1  0  0  0  0  0999 V2000
  188.7870  177.3900  143.4600 C   0  0  1  0  0  3  0  0  0  0  0  0
  190.5650  177.9990  147.8310 C   0  0  0  0  0  2  0  0  0  0  0  0
  187.3500  177.4340  143.9460 C   0  0  0  0  0  0  0  0  0  0  0  0
  189.1740  178.3050  148.4190 C   0  0  0  0  0  2  0  0  0  0  0  0
  188.2030  177.4060  146.2610 C   0  0  0  0  0  0  0  0  0  0  0  0
  187.8980  176.2770  148.3340 O   0  0  0  0  0  1  0  0  0  0  0  0
  187.0680  177.5160  145.2710 C   0  0  0  0  0  0  0  0  0  0  0  0
  189.6700  176.9030  144.4640 O   0  0  0  0  0  0  0  0  0  0  0  0
  190.5530  176.8770  146.7930 C   0  0  0  0  0  2  0  0  0  0  0  0
  188.0170  177.5420  147.7560 C   0  0  1  0  0  3  0  0  0  0  0  0
  189.4310  177.0860  145.8210 C   0  0  0  0  0  0  0  0  0  0  0  0
  185.1470  179.1450  145.7490 C   0  0  0  0  0  2  0  0  0  0  0  0
  185.4140  178.3420  147.0150 C   0  0  0  0  0  2  0  0  0  0  0  0
  185.5980  177.7020  145.6530 C   0  0  0  0  0  3  0  0  0  0  0  0
  186.2550  177.5850  142.9180 C   0  0  0  0  0  2  0  0  0  0  0  0
  186.2050  179.0000  142.3550 C   0  0  0  0  0  2  0  0  0  0  0  0
  184.7710  179.4810  142.1900 C   0  0  0  0  0  2  0  0  0  0  0  0
  183.7980  178.3230  142.3430 C   0  0  0  0  0  2  0  0  0  0  0  0
  182.4330  178.6790  141.8140 C   0  0  0  0  0  0  0  0  0  0  0  0
  181.6350  179.2320  142.5540 O   0  0  0  0  0  0  0  0  0  0  0  0
  182.7480  179.2370  139.3690 C   0  0  2  0  0  3  0  0  0  0  0  0
  180.5670  178.7490  140.1980 C   0  0  0  0  0  2  0  0  0  0  0  0
  180.4250  179.4230  138.9750 O   0  0  0  0  0  0  0  0  0  0  0  0
  182.0270  178.3880  140.3920 C   0  0  2  0  0  3  0  0  0  0  0  0
  181.6460  180.0840  138.7730 C   0  0  0  0  0  2  0  0  0  0  0  0
  182.9080  176.9850  138.1580 C   0  0  0  0  0  1  0  0  0  0  0  0
  184.9420  178.3740  138.5080 C   0  0  0  0  0  1  0  0  0  0  0  0
  183.4440  178.4080  138.2810 C   0  0  0  0  0  3  0  0  0  0  0  0
  188.9490  176.5480  142.1890 C   0  0  0  0  0  2  0  0  0  0  0  0
  189.5670  177.3260  141.0240 C   0  0  2  0  0  3  0  0  0  0  0  0
  188.6180  177.4300  139.8250 C   0  0  1  0  0  3  0  0  0  0  0  0
  188.2970  178.7700  139.5890 O   0  0  0  0  0  1  0  0  0  0  0  0
  189.2470  176.8540  138.5590 C   0  0  0  0  0  2  0  0  0  0  0  0
  187.3310  175.9140  137.4900 O   0  0  0  0  0  0  0  0  0  0  0  0
  188.2560  176.7690  137.4400 C   0  0  0  0  0  0  0  0  0  0  0  0
  188.3260  177.6980  136.3030 C   0  0  0  0  0  0  0  0  0  0  0  0
  187.5790  178.7120  136.2740 O   0  0  0  0  0  0  0  0  0  0  0  0
  189.2770  177.4650  135.1750 C   0  0  0  0  0  1  0  0  0  0  0  0
  190.8090  176.7390  140.6490 O   0  0  0  0  0  0  0  0  0  0  0  0
  192.0230  177.3090  141.0230 C   0  0  0  0  0  0  0  0  0  0  0  0
  192.1740  177.7390  142.1970 O   0  0  0  0  0  1  0  0  0  0  0  0
  193.0790  177.3900  140.1190 O   0  0  0  0  0  0  0  0  0  0  0  0
  1 29  1  6  0  0  0
  1  3  1  0  0  0  0
  1  8  1  0  0  0  0
  2  4  1  0  0  0  0
  3  7  2  0  0  0  0
  5 10  1  0  0  0  0
  7 14  1  0  0  0  0
  7  5  1  0  0  0  0
  8 11  1  0  0  0  0
  9  2  1  0  0  0  0
 10  6  1  1  0  0  0
 10  4  1  0  0  0  0
 11  5  2  0  0  0  0
 11  9  1  0  0  0  0
 12 13  1  0  0  0  0
 14 12  1  0  0  0  0
 14 13  1  0  0  0  0
 15  3  1  0  0  0  0
 16 15  1  0  0  0  0
 17 18  1  0  0  0  0
 17 16  1  0  0  0  0
 19 18  1  0  0  0  0
 19 20  2  0  0  0  0
 21 28  1  6  0  0  0
 21 24  1  0  0  0  0
 22 24  1  0  0  0  0
 23 22  1  0  0  0  0
 24 19  1  1  0  0  0
 25 23  1  0  0  0  0
 25 21  1  0  0  0  0
 26 28  1  0  0  0  0
 28 27  1  0  0  0  0
 30 29  1  1  0  0  0
 31 32  1  6  0  0  0
 31 30  1  0  0  0  0
 33 31  1  0  0  0  0
 35 34  2  0  0  0  0
 35 33  1  0  0  0  0
 36 35  1  0  0  0  0
 37 36  2  0  0  0  0
 38 36  1  0  0  0  0
 39 40  1  0  0  0  0
 39 30  1  0  0  0  0
 40 41  1  0  0  0  0
 42 40  2  0  0  0  0
M  END
>  <MODEL>
3

>  <REMARK>
 VINA RESULT:      -7.4      1.079      2.124
  Name = 
  16 active torsions:
  status: ('A' for Active; 'I' for Inactive)
    1  A    between atoms: C_1  and  O_14
    2  A    between atoms: C_2  and  C_39
    3  A    between atoms: C_2  and  C_40
    4  A    between atoms: C_3  and  C_25
    5  A    between atoms: C_7  and  C_28
    6  A    between atoms: C_8  and  C_17
    7  A    between atoms: C_9  and  C_32
    8  A    between atoms: C_9  and  C_38
    9  A    between atoms: O_14  and  C_38
   10  A    between atoms: C_19  and  C_31
   11  A    between atoms: C_23  and  C_28
   12  A    between atoms: C_23  and  C_34
   13  A    between atoms: C_24  and  C_41
   14  A    between atoms: C_25  and  C_38
   15  A    between atoms: C_32  and  C_41
   16  A    between atoms: C_34  and  C_40
                            x       y       z     vdW  Elec       q    Type
                         _______ _______ _______ _____ _____    ______ ____

>  <TORSDO>
F 16

$$$$
=
 OpenBabel11062413413D

 42 45  0  0  1  0  0  0  0  0999 V2000
  184.5270  178.2480  140.3010 C   0  0  1  0  0  3  0  0  0  0  0  0
  179.8970  177.6370  141.2130 C   0  0  0  0  0  2  0  0  0  0  0  0
  184.8040  178.8470  141.6680 C   0  0  0  0  0  0  0  0  0  0  0  0
  180.0810  177.9950  142.6990 C   0  0  0  0  0  2  0  0  0  0  0  0
  182.3700  178.8760  142.0740 C   0  0  0  0  0  0  0  0  0  0  0  0
  180.6320  180.3260  142.8120 O   0  0  0  0  0  1  0  0  0  0  0  0
  183.7910  179.0790  142.5420 C   0  0  0  0  0  0  0  0  0  0  0  0
  183.1890  178.4890  139.8790 O   0  0  0  0  0  0  0  0  0  0  0  0
  180.7290  178.5060  140.2700 C   0  0  0  0  0  2  0  0  0  0  0  0
  181.1670  179.0470  142.9750 C   0  0  1  0  0  3  0  0  0  0  0  0
  182.1350  178.6170  140.7770 C   0  0  0  0  0  0  0  0  0  0  0  0
  184.5680  178.4340  144.8980 C   0  0  0  0  0  2  0  0  0  0  0  0
  183.2070  179.1060  145.0150 C   0  0  0  0  0  2  0  0  0  0  0  0
  184.1860  179.5470  143.9440 C   0  0  0  0  0  3  0  0  0  0  0  0
  186.2420  178.9920  142.1030 C   0  0  0  0  0  2  0  0  0  0  0  0
  186.8610  177.6430  142.4490 C   0  0  0  0  0  2  0  0  0  0  0  0
  188.2540  177.5030  141.8520 C   0  0  0  0  0  2  0  0  0  0  0  0
  189.2010  178.5260  142.4610 C   0  0  0  0  0  2  0  0  0  0  0  0
  190.4140  177.8620  143.0590 C   0  0  0  0  0  0  0  0  0  0  0  0
  191.5220  178.1670  142.6460 O   0  0  0  0  0  0  0  0  0  0  0  0
  190.3860  177.4430  145.5520 C   0  0  2  0  0  3  0  0  0  0  0  0
  191.4920  175.9030  144.1080 C   0  0  0  0  0  2  0  0  0  0  0  0
  191.9690  175.6950  145.4110 O   0  0  0  0  0  0  0  0  0  0  0  0
  190.3050  176.8440  144.1660 C   0  0  2  0  0  3  0  0  0  0  0  0
  191.6730  176.8760  146.1070 C   0  0  0  0  0  2  0  0  0  0  0  0
  187.8490  177.5310  145.9020 C   0  0  0  0  0  1  0  0  0  0  0  0
  189.3920  177.5810  147.8530 C   0  0  0  0  0  1  0  0  0  0  0  0
  189.1950  177.0610  146.4430 C   0  0  0  0  0  3  0  0  0  0  0  0
  185.4960  178.7610  139.2300 C   0  0  0  0  0  2  0  0  0  0  0  0
  185.9600  177.6690  138.2620 C   0  0  2  0  0  3  0  0  0  0  0  0
  187.3900  177.9040  137.7600 C   0  0  1  0  0  3  0  0  0  0  0  0
  188.0030  178.8980  138.5290 O   0  0  0  0  0  1  0  0  0  0  0  0
  188.2320  176.6350  137.8490 C   0  0  0  0  0  2  0  0  0  0  0  0
  189.5280  177.0710  135.8930 O   0  0  0  0  0  0  0  0  0  0  0  0
  189.5310  176.7830  137.1210 C   0  0  0  0  0  0  0  0  0  0  0  0
  190.8110  176.6370  137.8300 C   0  0  0  0  0  0  0  0  0  0  0  0
  191.8770  176.4810  137.1760 O   0  0  0  0  0  0  0  0  0  0  0  0
  190.8740  176.6760  139.3210 C   0  0  0  0  0  1  0  0  0  0  0  0
  185.0450  177.5560  137.1790 O   0  0  0  0  0  0  0  0  0  0  0  0
  184.3950  176.3560  136.8990 C   0  0  0  0  0  0  0  0  0  0  0  0
  183.5690  175.8890  137.7250 O   0  0  0  0  0  1  0  0  0  0  0  0
  184.6360  175.6790  135.7060 O   0  0  0  0  0  0  0  0  0  0  0  0
  1 29  1  6  0  0  0
  1  3  1  0  0  0  0
  2  4  1  0  0  0  0
  3 15  1  0  0  0  0
  3  7  2  0  0  0  0
  4 10  1  0  0  0  0
  5  7  1  0  0  0  0
  5 10  1  0  0  0  0
  7 14  1  0  0  0  0
  8  1  1  0  0  0  0
  8 11  1  0  0  0  0
  9 11  1  0  0  0  0
  9  2  1  0  0  0  0
 10  6  1  6  0  0  0
 11  5  2  0  0  0  0
 12 13  1  0  0  0  0
 14 12  1  0  0  0  0
 14 13  1  0  0  0  0
 15 16  1  0  0  0  0
 17 16  1  0  0  0  0
 17 18  1  0  0  0  0
 18 19  1  0  0  0  0
 20 19  2  0  0  0  0
 21 25  1  0  0  0  0
 21 28  1  1  0  0  0
 22 24  1  0  0  0  0
 22 23  1  0  0  0  0
 23 25  1  0  0  0  0
 24 19  1  6  0  0  0
 24 21  1  0  0  0  0
 26 28  1  0  0  0  0
 28 27  1  0  0  0  0
 30 29  1  1  0  0  0
 31 33  1  0  0  0  0
 31 30  1  0  0  0  0
 31 32  1  1  0  0  0
 34 35  2  0  0  0  0
 35 36  1  0  0  0  0
 35 33  1  0  0  0  0
 36 38  1  0  0  0  0
 37 36  2  0  0  0  0
 39 30  1  0  0  0  0
 40 39  1  0  0  0  0
 40 41  1  0  0  0  0
 42 40  2  0  0  0  0
M  END
>  <MODEL>
4

>  <REMARK>
 VINA RESULT:      -7.4      1.731      7.520
  Name = 
  16 active torsions:
  status: ('A' for Active; 'I' for Inactive)
    1  A    between atoms: C_1  and  O_14
    2  A    between atoms: C_2  and  C_39
    3  A    between atoms: C_2  and  C_40
    4  A    between atoms: C_3  and  C_25
    5  A    between atoms: C_7  and  C_28
    6  A    between atoms: C_8  and  C_17
    7  A    between atoms: C_9  and  C_32
    8  A    between atoms: C_9  and  C_38
    9  A    between atoms: O_14  and  C_38
   10  A    between atoms: C_19  and  C_31
   11  A    between atoms: C_23  and  C_28
   12  A    between atoms: C_23  and  C_34
   13  A    between atoms: C_24  and  C_41
   14  A    between atoms: C_25  and  C_38
   15  A    between atoms: C_32  and  C_41
   16  A    between atoms: C_34  and  C_40
                            x       y       z     vdW  Elec       q    Type
                         _______ _______ _______ _____ _____    ______ ____

>  <TORSDO>
F 16

$$$$
=
 OpenBabel11062413413D

 42 45  0  0  1  0  0  0  0  0999 V2000
  188.7350  177.4190  143.5660 C   0  0  1  0  0  3  0  0  0  0  0  0
  190.5820  177.9740  147.9160 C   0  0  0  0  0  2  0  0  0  0  0  0
  187.3060  177.4630  144.0740 C   0  0  0  0  0  0  0  0  0  0  0  0
  189.2020  178.2780  148.5280 C   0  0  0  0  0  2  0  0  0  0  0  0
  188.1940  177.4060  146.3760 C   0  0  0  0  0  0  0  0  0  0  0  0
  187.9170  176.2550  148.4410 O   0  0  0  0  0  1  0  0  0  0  0  0
  187.0450  177.5310  145.4050 C   0  0  0  0  0  0  0  0  0  0  0  0
  189.6320  176.9170  144.5510 O   0  0  0  0  0  0  0  0  0  0  0  0
  190.5500  176.8630  146.8660 C   0  0  0  0  0  2  0  0  0  0  0  0
  188.0310  177.5270  147.8750 C   0  0  1  0  0  3  0  0  0  0  0  0
  189.4140  177.0870  145.9130 C   0  0  0  0  0  0  0  0  0  0  0  0
  185.0860  179.1490  145.7530 C   0  0  0  0  0  2  0  0  0  0  0  0
  185.4170  178.5080  147.0940 C   0  0  0  0  0  2  0  0  0  0  0  0
  185.5810  177.7180  145.8110 C   0  0  0  0  0  3  0  0  0  0  0  0
  186.1960  177.6290  143.0640 C   0  0  0  0  0  2  0  0  0  0  0  0
  186.1100  179.0620  142.5560 C   0  0  0  0  0  2  0  0  0  0  0  0
  184.7350  179.3640  141.9780 C   0  0  0  0  0  2  0  0  0  0  0  0
  184.2860  178.2420  141.0550 C   0  0  0  0  0  2  0  0  0  0  0  0
  184.0890  178.7360  139.6450 C   0  0  0  0  0  0  0  0  0  0  0  0
  184.6190  179.7810  139.3020 O   0  0  0  0  0  0  0  0  0  0  0  0
  182.7050  176.6740  139.1730 C   0  0  2  0  0  3  0  0  0  0  0  0
  184.1590  177.5310  137.4900 C   0  0  0  0  0  2  0  0  0  0  0  0
  183.8510  176.2020  137.1610 O   0  0  0  0  0  0  0  0  0  0  0  0
  183.2700  177.9700  138.6370 C   0  0  2  0  0  3  0  0  0  0  0  0
  183.4150  175.6160  138.3580 C   0  0  0  0  0  2  0  0  0  0  0  0
  180.4280  177.8300  139.3890 C   0  0  0  0  0  1  0  0  0  0  0  0
  180.6390  175.3810  139.7760 C   0  0  0  0  0  1  0  0  0  0  0  0
  181.1840  176.5630  138.9990 C   0  0  0  0  0  3  0  0  0  0  0  0
  188.8750  176.5910  142.2840 C   0  0  0  0  0  2  0  0  0  0  0  0
  189.4410  177.3890  141.1070 C   0  0  2  0  0  3  0  0  0  0  0  0
  188.4440  177.5050  139.9480 C   0  0  1  0  0  3  0  0  0  0  0  0
  187.9270  178.8030  139.8970 O   0  0  0  0  0  1  0  0  0  0  0  0
  189.1030  177.1950  138.6070 C   0  0  0  0  0  2  0  0  0  0  0  0
  187.3640  175.9370  137.5630 O   0  0  0  0  0  0  0  0  0  0  0  0
  188.0860  176.9700  137.5320 C   0  0  0  0  0  0  0  0  0  0  0  0
  187.8930  177.9600  136.4630 C   0  0  0  0  0  0  0  0  0  0  0  0
  187.4190  179.0950  136.7360 O   0  0  0  0  0  0  0  0  0  0  0  0
  188.2540  177.6470  135.0480 C   0  0  0  0  0  1  0  0  0  0  0  0
  190.6700  176.8160  140.6740 O   0  0  0  0  0  0  0  0  0  0  0  0
  191.8960  177.3270  141.0920 C   0  0  0  0  0  0  0  0  0  0  0  0
  192.8260  177.4740  140.2560 O   0  0  0  0  0  0  0  0  0  0  0  0
  192.0970  177.6970  142.4200 O   0  0  0  0  0  1  0  0  0  0  0  0
  1 29  1  6  0  0  0
  1  3  1  0  0  0  0
  1  8  1  0  0  0  0
  2  4  1  0  0  0  0
  3  7  2  0  0  0  0
  5 10  1  0  0  0  0
  7 14  1  0  0  0  0
  7  5  1  0  0  0  0
  8 11  1  0  0  0  0
  9  2  1  0  0  0  0
 10  6  1  1  0  0  0
 10  4  1  0  0  0  0
 11  5  2  0  0  0  0
 11  9  1  0  0  0  0
 12 14  1  0  0  0  0
 12 13  1  0  0  0  0
 14 13  1  0  0  0  0
 15  3  1  0  0  0  0
 16 15  1  0  0  0  0
 17 16  1  0  0  0  0
 18 17  1  0  0  0  0
 19 18  1  0  0  0  0
 20 19  2  0  0  0  0
 21 28  1  6  0  0  0
 22 24  1  0  0  0  0
 23 22  1  0  0  0  0
 23 25  1  0  0  0  0
 24 21  1  0  0  0  0
 24 19  1  1  0  0  0
 25 21  1  0  0  0  0
 28 26  1  0  0  0  0
 28 27  1  0  0  0  0
 30 29  1  1  0  0  0
 31 32  1  6  0  0  0
 31 30  1  0  0  0  0
 33 31  1  0  0  0  0
 35 34  2  0  0  0  0
 35 33  1  0  0  0  0
 36 37  2  0  0  0  0
 36 35  1  0  0  0  0
 38 36  1  0  0  0  0
 39 40  1  0  0  0  0
 39 30  1  0  0  0  0
 40 42  1  0  0  0  0
 41 40  2  0  0  0  0
M  END
>  <MODEL>
5

>  <REMARK>
 VINA RESULT:      -7.4      1.561      2.253
  Name = 
  16 active torsions:
  status: ('A' for Active; 'I' for Inactive)
    1  A    between atoms: C_1  and  O_14
    2  A    between atoms: C_2  and  C_39
    3  A    between atoms: C_2  and  C_40
    4  A    between atoms: C_3  and  C_25
    5  A    between atoms: C_7  and  C_28
    6  A    between atoms: C_8  and  C_17
    7  A    between atoms: C_9  and  C_32
    8  A    between atoms: C_9  and  C_38
    9  A    between atoms: O_14  and  C_38
   10  A    between atoms: C_19  and  C_31
   11  A    between atoms: C_23  and  C_28
   12  A    between atoms: C_23  and  C_34
   13  A    between atoms: C_24  and  C_41
   14  A    between atoms: C_25  and  C_38
   15  A    between atoms: C_32  and  C_41
   16  A    between atoms: C_34  and  C_40
                            x       y       z     vdW  Elec       q    Type
                         _______ _______ _______ _____ _____    ______ ____

>  <TORSDO>
F 16

$$$$
=
 OpenBabel11062413413D

 42 45  0  0  1  0  0  0  0  0999 V2000
  186.8080  177.5240  143.3310 C   0  0  1  0  0  3  0  0  0  0  0  0
  187.7140  177.1070  147.9830 C   0  0  0  0  0  2  0  0  0  0  0  0
  188.2480  177.2460  142.9390 C   0  0  0  0  0  0  0  0  0  0  0  0
  189.1360  176.5760  147.7200 C   0  0  0  0  0  2  0  0  0  0  0  0
  188.8490  177.3580  145.3300 C   0  0  0  0  0  0  0  0  0  0  0  0
  190.4160  178.3820  146.8000 O   0  0  0  0  0  1  0  0  0  0  0  0
  189.2080  177.0940  143.8870 C   0  0  0  0  0  0  0  0  0  0  0  0
  186.7160  178.1210  144.6190 O   0  0  0  0  0  0  0  0  0  0  0  0
  187.3010  178.2350  147.0380 C   0  0  0  0  0  2  0  0  0  0  0  0
  189.8180  177.1630  146.4750 C   0  0  1  0  0  3  0  0  0  0  0  0
  187.6450  177.8740  145.6240 C   0  0  0  0  0  0  0  0  0  0  0  0
  191.6640  176.6500  144.4750 C   0  0  0  0  0  2  0  0  0  0  0  0
  191.6150  177.7930  143.4700 C   0  0  0  0  0  2  0  0  0  0  0  0
  190.5960  176.6730  143.4000 C   0  0  0  0  0  3  0  0  0  0  0  0
  188.5470  176.9490  141.4890 C   0  0  0  0  0  2  0  0  0  0  0  0
  188.9360  178.2100  140.7280 C   0  0  0  0  0  2  0  0  0  0  0  0
  189.6050  177.8740  139.4030 C   0  0  0  0  0  2  0  0  0  0  0  0
  190.6620  176.7980  139.5970 C   0  0  0  0  0  2  0  0  0  0  0  0
  190.7930  175.9300  138.3730 C   0  0  0  0  0  0  0  0  0  0  0  0
  189.8550  175.2210  138.0440 O   0  0  0  0  0  0  0  0  0  0  0  0
  192.5440  174.5330  137.2020 C   0  0  2  0  0  3  0  0  0  0  0  0
  193.1840  176.5460  138.3070 C   0  0  0  0  0  2  0  0  0  0  0  0
  194.3370  175.7670  138.1230 O   0  0  0  0  0  0  0  0  0  0  0  0
  192.0420  175.9220  137.5290 C   0  0  2  0  0  3  0  0  0  0  0  0
  193.8710  174.4590  137.9220 C   0  0  0  0  0  2  0  0  0  0  0  0
  194.0110  173.5490  135.3450 C   0  0  0  0  0  1  0  0  0  0  0  0
  192.6800  175.6120  134.9390 C   0  0  0  0  0  1  0  0  0  0  0  0
  192.7300  174.3000  135.6960 C   0  0  0  0  0  3  0  0  0  0  0  0
  186.0840  178.4070  142.3090 C   0  0  0  0  0  2  0  0  0  0  0  0
  184.5590  178.2820  142.3750 C   0  0  2  0  0  3  0  0  0  0  0  0
  183.9140  178.2830  140.9840 C   0  0  1  0  0  3  0  0  0  0  0  0
  182.7160  179.0020  141.0190 O   0  0  0  0  0  1  0  0  0  0  0  0
  184.8290  178.9180  139.9420 C   0  0  0  0  0  2  0  0  0  0  0  0
  183.7490  177.6390  138.2410 O   0  0  0  0  0  0  0  0  0  0  0  0
  184.8250  178.1450  138.6590 C   0  0  0  0  0  0  0  0  0  0  0  0
  186.0520  178.0060  137.8620 C   0  0  0  0  0  0  0  0  0  0  0  0
  186.7900  179.0080  137.6650 O   0  0  0  0  0  0  0  0  0  0  0  0
  186.4470  176.6880  137.2810 C   0  0  0  0  0  1  0  0  0  0  0  0
  184.0190  179.3120  143.1950 O   0  0  0  0  0  0  0  0  0  0  0  0
  183.2760  179.0180  144.3350 C   0  0  0  0  0  0  0  0  0  0  0  0
  183.8090  179.1230  145.4700 O   0  0  0  0  0  1  0  0  0  0  0  0
  181.9420  178.6300  144.2330 O   0  0  0  0  0  0  0  0  0  0  0  0
  1 29  1  6  0  0  0
  1  8  1  0  0  0  0
  3  1  1  0  0  0  0
  3  7  2  0  0  0  0
  4  2  1  0  0  0  0
  5 11  2  0  0  0  0
  5 10  1  0  0  0  0
  7  5  1  0  0  0  0
  8 11  1  0  0  0  0
  9  2  1  0  0  0  0
 10  6  1  1  0  0  0
 10  4  1  0  0  0  0
 11  9  1  0  0  0  0
 13 12  1  0  0  0  0
 14 13  1  0  0  0  0
 14  7  1  0  0  0  0
 14 12  1  0  0  0  0
 15  3  1  0  0  0  0
 16 15  1  0  0  0  0
 17 18  1  0  0  0  0
 17 16  1  0  0  0  0
 19 18  1  0  0  0  0
 20 19  2  0  0  0  0
 21 28  1  6  0  0  0
 21 24  1  0  0  0  0
 21 25  1  0  0  0  0
 23 22  1  0  0  0  0
 24 22  1  0  0  0  0
 24 19  1  1  0  0  0
 25 23  1  0  0  0  0
 26 28  1  0  0  0  0
 27 28  1  0  0  0  0
 30 29  1  6  0  0  0
 30 39  1  0  0  0  0
 31 32  1  1  0  0  0
 31 30  1  0  0  0  0
 33 31  1  0  0  0  0
 34 35  2  0  0  0  0
 35 33  1  0  0  0  0
 36 35  1  0  0  0  0
 37 36  2  0  0  0  0
 38 36  1  0  0  0  0
 39 40  1  0  0  0  0
 40 41  1  0  0  0  0
 42 40  2  0  0  0  0
M  END
>  <MODEL>
6

>  <REMARK>
 VINA RESULT:      -7.1      2.814      7.738
  Name = 
  16 active torsions:
  status: ('A' for Active; 'I' for Inactive)
    1  A    between atoms: C_1  and  O_14
    2  A    between atoms: C_2  and  C_39
    3  A    between atoms: C_2  and  C_40
    4  A    between atoms: C_3  and  C_25
    5  A    between atoms: C_7  and  C_28
    6  A    between atoms: C_8  and  C_17
    7  A    between atoms: C_9  and  C_32
    8  A    between atoms: C_9  and  C_38
    9  A    between atoms: O_14  and  C_38
   10  A    between atoms: C_19  and  C_31
   11  A    between atoms: C_23  and  C_28
   12  A    between atoms: C_23  and  C_34
   13  A    between atoms: C_24  and  C_41
   14  A    between atoms: C_25  and  C_38
   15  A    between atoms: C_32  and  C_41
   16  A    between atoms: C_34  and  C_40
                            x       y       z     vdW  Elec       q    Type
                         _______ _______ _______ _____ _____    ______ ____

>  <TORSDO>
F 16

$$$$
=
 OpenBabel11062413413D

 42 45  0  0  1  0  0  0  0  0999 V2000
  186.7600  177.6340  143.5730 C   0  0  1  0  0  3  0  0  0  0  0  0
  188.0160  176.9400  148.1100 C   0  0  0  0  0  2  0  0  0  0  0  0
  188.1570  177.3500  143.0530 C   0  0  0  0  0  0  0  0  0  0  0  0
  189.3990  176.3960  147.7060 C   0  0  0  0  0  2  0  0  0  0  0  0
  188.9460  177.3160  145.3910 C   0  0  0  0  0  0  0  0  0  0  0  0
  190.6480  178.2240  146.7860 O   0  0  0  0  0  1  0  0  0  0  0  0
  189.1840  177.1250  143.9130 C   0  0  0  0  0  0  0  0  0  0  0  0
  186.7830  178.1610  144.8950 O   0  0  0  0  0  0  0  0  0  0  0  0
  187.5580  178.1270  147.2630 C   0  0  0  0  0  2  0  0  0  0  0  0
  189.9970  177.0380  146.4440 C   0  0  1  0  0  3  0  0  0  0  0  0
  187.7810  177.8390  145.8080 C   0  0  0  0  0  0  0  0  0  0  0  0
  191.6650  176.5930  144.2800 C   0  0  0  0  0  2  0  0  0  0  0  0
  191.5700  177.7950  143.3500 C   0  0  0  0  0  2  0  0  0  0  0  0
  190.5190  176.7040  143.2950 C   0  0  0  0  0  3  0  0  0  0  0  0
  188.3340  177.1280  141.5710 C   0  0  0  0  0  2  0  0  0  0  0  0
  188.6480  178.4290  140.8440 C   0  0  0  0  0  2  0  0  0  0  0  0
  189.6090  178.1990  139.6860 C   0  0  0  0  0  2  0  0  0  0  0  0
  190.0190  176.7370  139.6150 C   0  0  0  0  0  2  0  0  0  0  0  0
  190.6290  176.4020  138.2790 C   0  0  0  0  0  0  0  0  0  0  0  0
  191.8450  176.3850  138.1680 O   0  0  0  0  0  0  0  0  0  0  0  0
  188.3180  176.3970  137.2530 C   0  0  2  0  0  3  0  0  0  0  0  0
  189.7940  174.5710  136.8470 C   0  0  0  0  0  2  0  0  0  0  0  0
  188.4900  174.1480  136.5490 O   0  0  0  0  0  0  0  0  0  0  0  0
  189.7840  176.0700  137.0760 C   0  0  2  0  0  3  0  0  0  0  0  0
  187.6480  175.0430  137.2260 C   0  0  0  0  0  2  0  0  0  0  0  0
  188.7590  177.5690  135.0170 C   0  0  0  0  0  1  0  0  0  0  0  0
  187.2690  178.6140  136.7140 C   0  0  0  0  0  1  0  0  0  0  0  0
  187.7650  177.3000  136.1420 C   0  0  0  0  0  3  0  0  0  0  0  0
  185.9790  178.5880  142.6620 C   0  0  0  0  0  2  0  0  0  0  0  0
  184.4720  178.3190  142.6540 C   0  0  2  0  0  3  0  0  0  0  0  0
  183.9030  178.2290  141.2330 C   0  0  1  0  0  3  0  0  0  0  0  0
  182.7080  178.9500  141.1550 O   0  0  0  0  0  1  0  0  0  0  0  0
  184.8760  178.7940  140.2030 C   0  0  0  0  0  2  0  0  0  0  0  0
  184.1060  180.5000  138.7220 O   0  0  0  0  0  0  0  0  0  0  0  0
  184.1660  179.2650  138.9730 C   0  0  0  0  0  0  0  0  0  0  0  0
  183.5720  178.3040  138.0320 C   0  0  0  0  0  0  0  0  0  0  0  0
  184.1560  177.2120  137.8000 O   0  0  0  0  0  0  0  0  0  0  0  0
  182.2790  178.5960  137.3450 C   0  0  0  0  0  1  0  0  0  0  0  0
  183.7960  179.3110  143.4180 O   0  0  0  0  0  0  0  0  0  0  0  0
  183.0980  178.9830  144.5780 C   0  0  0  0  0  0  0  0  0  0  0  0
  181.8860  178.6510  144.5020 O   0  0  0  0  0  0  0  0  0  0  0  0
  183.7320  178.9990  145.8180 O   0  0  0  0  0  1  0  0  0  0  0  0
  1 29  1  6  0  0  0
  1  8  1  0  0  0  0
  3  1  1  0  0  0  0
  3  7  2  0  0  0  0
  4  2  1  0  0  0  0
  5 11  2  0  0  0  0
  5 10  1  0  0  0  0
  7  5  1  0  0  0  0
  8 11  1  0  0  0  0
  9  2  1  0  0  0  0
 10  6  1  1  0  0  0
 10  4  1  0  0  0  0
 11  9  1  0  0  0  0
 13 12  1  0  0  0  0
 14 13  1  0  0  0  0
 14  7  1  0  0  0  0
 14 12  1  0  0  0  0
 15  3  1  0  0  0  0
 16 15  1  0  0  0  0
 17 16  1  0  0  0  0
 18 17  1  0  0  0  0
 19 18  1  0  0  0  0
 20 19  2  0  0  0  0
 21 28  1  6  0  0  0
 22 24  1  0  0  0  0
 23 22  1  0  0  0  0
 23 25  1  0  0  0  0
 24 21  1  0  0  0  0
 24 19  1  1  0  0  0
 25 21  1  0  0  0  0
 26 28  1  0  0  0  0
 28 27  1  0  0  0  0
 30 29  1  6  0  0  0
 30 39  1  0  0  0  0
 31 32  1  1  0  0  0
 31 30  1  0  0  0  0
 33 31  1  0  0  0  0
 34 35  2  0  0  0  0
 35 33  1  0  0  0  0
 36 35  1  0  0  0  0
 37 36  2  0  0  0  0
 38 36  1  0  0  0  0
 39 40  1  0  0  0  0
 40 42  1  0  0  0  0
 41 40  2  0  0  0  0
M  END
>  <MODEL>
7

>  <REMARK>
 VINA RESULT:      -7.0      2.223      6.576
  Name = 
  16 active torsions:
  status: ('A' for Active; 'I' for Inactive)
    1  A    between atoms: C_1  and  O_14
    2  A    between atoms: C_2  and  C_39
    3  A    between atoms: C_2  and  C_40
    4  A    between atoms: C_3  and  C_25
    5  A    between atoms: C_7  and  C_28
    6  A    between atoms: C_8  and  C_17
    7  A    between atoms: C_9  and  C_32
    8  A    between atoms: C_9  and  C_38
    9  A    between atoms: O_14  and  C_38
   10  A    between atoms: C_19  and  C_31
   11  A    between atoms: C_23  and  C_28
   12  A    between atoms: C_23  and  C_34
   13  A    between atoms: C_24  and  C_41
   14  A    between atoms: C_25  and  C_38
   15  A    between atoms: C_32  and  C_41
   16  A    between atoms: C_34  and  C_40
                            x       y       z     vdW  Elec       q    Type
                         _______ _______ _______ _____ _____    ______ ____

>  <TORSDO>
F 16

$$$$
=
 OpenBabel11062413413D

 42 45  0  0  1  0  0  0  0  0999 V2000
  186.6670  178.0630  141.1280 C   0  0  1  0  0  3  0  0  0  0  0  0
  181.9530  178.3040  140.5240 C   0  0  0  0  0  2  0  0  0  0  0  0
  186.5620  178.1280  142.6410 C   0  0  0  0  0  0  0  0  0  0  0  0
  181.6910  178.1320  142.0320 C   0  0  0  0  0  2  0  0  0  0  0  0
  184.1530  178.6010  142.3860 C   0  0  0  0  0  0  0  0  0  0  0  0
  182.4740  180.1170  143.1260 O   0  0  0  0  0  1  0  0  0  0  0  0
  185.3600  178.3100  143.2450 C   0  0  0  0  0  0  0  0  0  0  0  0
  185.5810  178.7290  140.4930 O   0  0  0  0  0  0  0  0  0  0  0  0
  183.1510  179.2010  140.2130 C   0  0  0  0  0  2  0  0  0  0  0  0
  182.7560  178.7620  142.9430 C   0  0  1  0  0  3  0  0  0  0  0  0
  184.3190  178.8170  141.0700 C   0  0  0  0  0  0  0  0  0  0  0  0
  184.0460  178.6840  145.4150 C   0  0  0  0  0  2  0  0  0  0  0  0
  185.2830  179.5710  145.4510 C   0  0  0  0  0  2  0  0  0  0  0  0
  185.3360  178.2160  144.7730 C   0  0  0  0  0  3  0  0  0  0  0  0
  187.7870  177.7900  143.4550 C   0  0  0  0  0  2  0  0  0  0  0  0
  188.0850  176.2960  143.4250 C   0  0  0  0  0  2  0  0  0  0  0  0
  189.5660  176.0300  143.1980 C   0  0  0  0  0  2  0  0  0  0  0  0
  190.3540  177.3310  143.2370 C   0  0  0  0  0  2  0  0  0  0  0  0
  191.1000  177.4810  144.5370 C   0  0  0  0  0  0  0  0  0  0  0  0
  192.0190  178.2820  144.6060 O   0  0  0  0  0  0  0  0  0  0  0  0
  190.5090  177.5350  146.9950 C   0  0  2  0  0  3  0  0  0  0  0  0
  191.8970  175.7900  146.1520 C   0  0  0  0  0  2  0  0  0  0  0  0
  192.0680  175.8460  147.5440 O   0  0  0  0  0  0  0  0  0  0  0  0
  190.7360  176.6850  145.7640 C   0  0  2  0  0  3  0  0  0  0  0  0
  191.6330  177.1260  147.9190 C   0  0  0  0  0  2  0  0  0  0  0  0
  187.9650  177.4360  146.7010 C   0  0  0  0  0  1  0  0  0  0  0  0
  188.9550  178.1930  148.8540 C   0  0  0  0  0  1  0  0  0  0  0  0
  189.1450  177.2850  147.6550 C   0  0  0  0  0  3  0  0  0  0  0  0
  187.9890  178.6380  140.6080 C   0  0  0  0  0  2  0  0  0  0  0  0
  188.4640  177.9830  139.3080 C   0  0  2  0  0  3  0  0  0  0  0  0
  189.9270  177.5330  139.3840 C   0  0  1  0  0  3  0  0  0  0  0  0
  190.0090  176.2930  140.0240 O   0  0  0  0  0  1  0  0  0  0  0  0
  190.5460  177.4010  137.9950 C   0  0  0  0  0  2  0  0  0  0  0  0
  192.7300  176.7410  138.6970 O   0  0  0  0  0  0  0  0  0  0  0  0
  191.7160  176.4680  137.9990 C   0  0  0  0  0  0  0  0  0  0  0  0
  191.6810  175.2160  137.2300 C   0  0  0  0  0  0  0  0  0  0  0  0
  192.6810  174.8700  136.5460 O   0  0  0  0  0  0  0  0  0  0  0  0
  190.4740  174.3350  137.2460 C   0  0  0  0  0  1  0  0  0  0  0  0
  188.2510  178.8640  138.2110 O   0  0  0  0  0  0  0  0  0  0  0  0
  187.3720  178.5410  137.1810 C   0  0  0  0  0  0  0  0  0  0  0  0
  186.1560  178.3400  137.4390 O   0  0  0  0  0  1  0  0  0  0  0  0
  187.8190  178.4600  135.8640 O   0  0  0  0  0  0  0  0  0  0  0  0
  1 29  1  6  0  0  0
  1  3  1  0  0  0  0
  2  4  1  0  0  0  0
  3  7  2  0  0  0  0
  3 15  1  0  0  0  0
  4 10  1  0  0  0  0
  5 10  1  0  0  0  0
  5  7  1  0  0  0  0
  7 14  1  0  0  0  0
  8 11  1  0  0  0  0
  8  1  1  0  0  0  0
  9  2  1  0  0  0  0
  9 11  1  0  0  0  0
 10  6  1  6  0  0  0
 11  5  2  0  0  0  0
 12 13  1  0  0  0  0
 14 12  1  0  0  0  0
 14 13  1  0  0  0  0
 16 15  1  0  0  0  0
 17 18  1  0  0  0  0
 17 16  1  0  0  0  0
 18 19  1  0  0  0  0
 19 20  2  0  0  0  0
 21 28  1  1  0  0  0
 21 25  1  0  0  0  0
 22 23  1  0  0  0  0
 23 25  1  0  0  0  0
 24 19  1  6  0  0  0
 24 22  1  0  0  0  0
 24 21  1  0  0  0  0
 26 28  1  0  0  0  0
 28 27  1  0  0  0  0
 30 31  1  0  0  0  0
 30 29  1  1  0  0  0
 31 32  1  6  0  0  0
 33 35  1  0  0  0  0
 33 31  1  0  0  0  0
 35 34  2  0  0  0  0
 36 38  1  0  0  0  0
 36 35  1  0  0  0  0
 37 36  2  0  0  0  0
 39 30  1  0  0  0  0
 40 41  1  0  0  0  0
 40 39  1  0  0  0  0
 42 40  2  0  0  0  0
M  END
>  <MODEL>
8

>  <REMARK>
 VINA RESULT:      -7.0      1.898      7.279
  Name = 
  16 active torsions:
  status: ('A' for Active; 'I' for Inactive)
    1  A    between atoms: C_1  and  O_14
    2  A    between atoms: C_2  and  C_39
    3  A    between atoms: C_2  and  C_40
    4  A    between atoms: C_3  and  C_25
    5  A    between atoms: C_7  and  C_28
    6  A    between atoms: C_8  and  C_17
    7  A    between atoms: C_9  and  C_32
    8  A    between atoms: C_9  and  C_38
    9  A    between atoms: O_14  and  C_38
   10  A    between atoms: C_19  and  C_31
   11  A    between atoms: C_23  and  C_28
   12  A    between atoms: C_23  and  C_34
   13  A    between atoms: C_24  and  C_41
   14  A    between atoms: C_25  and  C_38
   15  A    between atoms: C_32  and  C_41
   16  A    between atoms: C_34  and  C_40
                            x       y       z     vdW  Elec       q    Type
                         _______ _______ _______ _____ _____    ______ ____

>  <TORSDO>
F 16

$$$$
=
 OpenBabel11062413413D

 42 45  0  0  1  0  0  0  0  0999 V2000
  186.9000  177.5470  143.6010 C   0  0  1  0  0  3  0  0  0  0  0  0
  187.5530  177.1640  148.2980 C   0  0  0  0  0  2  0  0  0  0  0  0
  188.3250  177.1320  143.2830 C   0  0  0  0  0  0  0  0  0  0  0  0
  188.9310  176.5010  148.1130 C   0  0  0  0  0  2  0  0  0  0  0  0
  188.8260  177.2480  145.6970 C   0  0  0  0  0  0  0  0  0  0  0  0
  190.4110  178.1630  147.2180 O   0  0  0  0  0  1  0  0  0  0  0  0
  189.2230  176.9170  144.2780 C   0  0  0  0  0  0  0  0  0  0  0  0
  186.8050  178.1820  144.8710 O   0  0  0  0  0  0  0  0  0  0  0  0
  187.2870  178.3010  147.3120 C   0  0  0  0  0  2  0  0  0  0  0  0
  189.7200  176.9940  146.8900 C   0  0  1  0  0  3  0  0  0  0  0  0
  187.6610  177.8770  145.9240 C   0  0  0  0  0  0  0  0  0  0  0  0
  191.6380  176.3870  144.9580 C   0  0  0  0  0  2  0  0  0  0  0  0
  191.6760  177.4180  143.8370 C   0  0  0  0  0  2  0  0  0  0  0  0
  190.5880  176.3620  143.8660 C   0  0  0  0  0  3  0  0  0  0  0  0
  188.6610  176.7740  141.8550 C   0  0  0  0  0  2  0  0  0  0  0  0
  189.3860  177.9120  141.1480 C   0  0  0  0  0  2  0  0  0  0  0  0
  188.6810  178.3020  139.8580 C   0  0  0  0  0  2  0  0  0  0  0  0
  189.5320  177.9350  138.6520 C   0  0  0  0  0  2  0  0  0  0  0  0
  188.9790  178.5360  137.3860 C   0  0  0  0  0  0  0  0  0  0  0  0
  189.0640  179.7410  137.2130 O   0  0  0  0  0  0  0  0  0  0  0  0
  187.9380  176.3110  136.7880 C   0  0  2  0  0  3  0  0  0  0  0  0
  189.3410  177.4200  135.2120 C   0  0  0  0  0  2  0  0  0  0  0  0
  189.2490  176.0710  134.8360 O   0  0  0  0  0  0  0  0  0  0  0  0
  188.3360  177.6910  136.3160 C   0  0  2  0  0  3  0  0  0  0  0  0
  188.8380  175.3920  135.9930 C   0  0  0  0  0  2  0  0  0  0  0  0
  185.4910  176.9420  137.2120 C   0  0  0  0  0  1  0  0  0  0  0  0
  186.1440  174.5590  136.9220 C   0  0  0  0  0  1  0  0  0  0  0  0
  186.4610  175.9870  136.5240 C   0  0  0  0  0  3  0  0  0  0  0  0
  186.3060  178.4670  142.5290 C   0  0  0  0  0  2  0  0  0  0  0  0
  184.7780  178.5560  142.5880 C   0  0  2  0  0  3  0  0  0  0  0  0
  184.1690  178.9980  141.2530 C   0  0  1  0  0  3  0  0  0  0  0  0
  185.1830  179.4010  140.3790 O   0  0  0  0  0  1  0  0  0  0  0  0
  183.3830  177.8690  140.5930 C   0  0  0  0  0  2  0  0  0  0  0  0
  181.0700  178.0840  141.1410 O   0  0  0  0  0  0  0  0  0  0  0  0
  181.9760  178.2810  140.2870 C   0  0  0  0  0  0  0  0  0  0  0  0
  181.6480  178.9490  139.0200 C   0  0  0  0  0  0  0  0  0  0  0  0
  180.9730  180.0130  139.0270 O   0  0  0  0  0  0  0  0  0  0  0  0
  182.1050  178.3900  137.7130 C   0  0  0  0  0  1  0  0  0  0  0  0
  184.3810  179.4190  143.6470 O   0  0  0  0  0  0  0  0  0  0  0  0
  183.4650  179.0080  144.6130 C   0  0  0  0  0  0  0  0  0  0  0  0
  183.8030  178.9970  145.8260 O   0  0  0  0  0  1  0  0  0  0  0  0
  182.1740  178.6290  144.2530 O   0  0  0  0  0  0  0  0  0  0  0  0
  1 29  1  6  0  0  0
  1  8  1  0  0  0  0
  3  1  1  0  0  0  0
  3  7  2  0  0  0  0
  4  2  1  0  0  0  0
  5 11  2  0  0  0  0
  5 10  1  0  0  0  0
  7  5  1  0  0  0  0
  8 11  1  0  0  0  0
  9  2  1  0  0  0  0
 10  6  1  1  0  0  0
 10  4  1  0  0  0  0
 11  9  1  0  0  0  0
 13 14  1  0  0  0  0
 13 12  1  0  0  0  0
 14  7  1  0  0  0  0
 14 12  1  0  0  0  0
 15  3  1  0  0  0  0
 16 15  1  0  0  0  0
 17 16  1  0  0  0  0
 18 17  1  0  0  0  0
 19 18  1  0  0  0  0
 20 19  2  0  0  0  0
 21 28  1  6  0  0  0
 22 24  1  0  0  0  0
 23 22  1  0  0  0  0
 23 25  1  0  0  0  0
 24 21  1  0  0  0  0
 24 19  1  1  0  0  0
 25 21  1  0  0  0  0
 28 27  1  0  0  0  0
 28 26  1  0  0  0  0
 30 29  1  6  0  0  0
 30 39  1  0  0  0  0
 31 32  1  6  0  0  0
 31 30  1  0  0  0  0
 33 31  1  0  0  0  0
 35 33  1  0  0  0  0
 35 34  2  0  0  0  0
 36 37  2  0  0  0  0
 36 35  1  0  0  0  0
 38 36  1  0  0  0  0
 39 40  1  0  0  0  0
 40 41  1  0  0  0  0
 42 40  2  0  0  0  0
M  END
>  <MODEL>
9

>  <REMARK>
 VINA RESULT:      -7.0      2.194      6.434
  Name = 
  16 active torsions:
  status: ('A' for Active; 'I' for Inactive)
    1  A    between atoms: C_1  and  O_14
    2  A    between atoms: C_2  and  C_39
    3  A    between atoms: C_2  and  C_40
    4  A    between atoms: C_3  and  C_25
    5  A    between atoms: C_7  and  C_28
    6  A    between atoms: C_8  and  C_17
    7  A    between atoms: C_9  and  C_32
    8  A    between atoms: C_9  and  C_38
    9  A    between atoms: O_14  and  C_38
   10  A    between atoms: C_19  and  C_31
   11  A    between atoms: C_23  and  C_28
   12  A    between atoms: C_23  and  C_34
   13  A    between atoms: C_24  and  C_41
   14  A    between atoms: C_25  and  C_38
   15  A    between atoms: C_32  and  C_41
   16  A    between atoms: C_34  and  C_40
                            x       y       z     vdW  Elec       q    Type
                         _______ _______ _______ _____ _____    ______ ____

>  <TORSDO>
F 16

$$$$
