=
 OpenBabel11062413123D

 42 42  0  0  1  0  0  0  0  0999 V2000
  191.4190  177.2340  142.1280 C   0  0  0  0  0  2  0  0  0  0  0  0
  191.0510  176.6640  143.4630 C   0  0  0  0  0  0  0  0  0  0  0  0
  190.6950  175.5000  143.5410 O   0  0  0  0  0  0  0  0  0  0  0  0
  192.2120  178.3460  144.7020 F   0  0  0  0  0  0  0  0  0  0  0  0
  191.1110  177.5050  144.7100 C   0  0  2  0  0  3  0  0  0  0  0  0
  191.0630  176.6910  146.0120 C   0  0  1  0  0  3  0  0  0  0  0  0
  192.2280  176.8570  146.7680 O   0  0  0  0  0  1  0  0  0  0  0  0
  189.8040  176.9320  146.8480 C   0  0  1  0  0  3  0  0  0  0  0  0
  190.1560  177.4570  148.0920 O   0  0  0  0  0  1  0  0  0  0  0  0
  188.8120  177.8610  146.1580 C   0  0  0  0  0  2  0  0  0  0  0  0
  187.4320  177.7390  146.7820 C   0  0  0  0  0  2  0  0  0  0  0  0
  186.4520  177.1460  145.7830 C   0  0  0  0  0  2  0  0  0  0  0  0
  186.0850  178.1370  144.7830 N   0  0  0  0  0  2  0  0  0  0  0  0
  184.1700  178.9210  145.9290 N   0  0  0  0  0  2  0  0  0  0  0  0
  184.9780  179.0340  144.9270 C   0  0  0  0  0  0  0  0  0  0  0  0
  184.6180  179.9560  143.8070 C   0  0  0  0  0  2  0  0  0  0  0  0
  184.1640  179.1990  142.6050 C   0  0  0  0  0  0  0  0  0  0  0  0
  185.2250  178.9990  139.0990 O   0  0  0  0  0  0  0  0  0  0  0  0
  183.5310  177.6330  140.0320 C   0  0  0  0  0  1  0  0  0  0  0  0
  184.5660  178.7010  140.1270 C   0  0  0  0  0  0  0  0  0  0  0  0
  183.2090  178.3870  142.7150 O   0  0  0  0  0  0  0  0  0  0  0  0
  184.8330  179.3960  141.3530 N   0  0  0  0  0  2  0  0  0  0  0  0
  190.5790  176.6190  141.0230 C   0  0  0  0  0  2  0  0  0  0  0  0
  188.4850  178.5090  141.1480 O   0  0  0  0  0  0  0  0  0  0  0  0
  189.9000  177.4810  137.4660 C   0  0  0  0  0  3  0  0  0  0  0  0
  188.9640  178.6490  137.5940 C   0  0  2  0  0  3  0  0  0  0  0  0
  190.5550  177.0080  138.5360 C   0  0  0  0  0  0  0  0  0  0  0  0
  188.3100  178.6440  138.8620 O   0  0  0  0  0  0  0  0  0  0  0  0
  188.9980  178.2760  140.0200 C   0  0  0  0  0  0  0  0  0  0  0  0
  190.3610  177.6380  139.9070 C   0  0  1  0  0  3  0  0  0  0  0  0
  187.9610  178.6530  136.4850 C   0  0  0  0  0  0  0  0  0  0  0  0
  187.1160  179.5330  136.4170 O   0  0  0  0  0  0  0  0  0  0  0  0
  188.0090  177.5760  135.4510 C   0  0  0  0  0  2  0  0  0  0  0  0
  186.8750  174.9920  134.9150 O   0  0  0  0  0  1  0  0  0  0  0  0
  186.5320  176.5200  135.5530 P   0  0  0  0  0  0  0  0  0  0  0  0
  186.0740  176.3600  137.1730 O   0  0  0  0  0  1  0  0  0  0  0  0
  185.4010  177.1490  134.7710 O   0  0  0  0  0  0  0  0  0  0  0  0
  191.5520  175.9100  138.3210 C   0  0  0  0  0  2  0  0  0  0  0  0
  192.9500  176.4900  138.1690 C   0  0  0  0  0  2  0  0  0  0  0  0
  193.4430  176.3180  136.7440 C   0  0  0  0  0  2  0  0  0  0  0  0
  193.4480  174.8500  136.3570 C   0  0  0  0  0  2  0  0  0  0  0  0
  194.4330  174.1820  137.0810 O   0  0  0  0  0  1  0  0  0  0  0  0
  1  2  1  0  0  0  0
  2  3  2  0  0  0  0
  2  5  1  0  0  0  0
  5  4  1  6  0  0  0
  5  6  1  0  0  0  0
  6  7  1  1  0  0  0
  6  8  1  0  0  0  0
  8  9  1  1  0  0  0
 10 11  1  0  0  0  0
 10  8  1  0  0  0  0
 12 11  1  0  0  0  0
 13 15  1  0  0  0  0
 13 12  1  0  0  0  0
 15 14  2  0  0  0  0
 16 15  1  0  0  0  0
 17 21  2  0  0  0  0
 17 16  1  0  0  0  0
 18 20  2  0  0  0  0
 19 20  1  0  0  0  0
 20 22  1  0  0  0  0
 22 17  1  0  0  0  0
 23  1  1  0  0  0  0
 25 26  1  0  0  0  0
 25 27  2  0  0  0  0
 26 31  1  6  0  0  0
 26 28  1  0  0  0  0
 27 30  1  0  0  0  0
 28 29  1  0  0  0  0
 29 24  2  0  0  0  0
 30 29  1  0  0  0  0
 30 23  1  1  0  0  0
 32 31  2  0  0  0  0
 33 35  1  0  0  0  0
 33 31  1  0  0  0  0
 34 35  1  0  0  0  0
 35 36  1  0  0  0  0
 37 35  2  0  0  0  0
 38 27  1  0  0  0  0
 39 38  1  0  0  0  0
 40 39  1  0  0  0  0
 41 40  1  0  0  0  0
 41 42  1  0  0  0  0
M  END
>  <MODEL>
1

>  <REMARK>
 VINA RESULT:      -7.0      0.000      0.000
  Name = 
  19 active torsions:
  status: ('A' for Active; 'I' for Inactive)
    1  A    between atoms: N_1  and  C_17
    2  A    between atoms: C_4  and  C_11
    3  A    between atoms: C_4  and  C_18
    4  A    between atoms: C_6  and  C_17
    5  A    between atoms: C_6  and  C_36
    6  A    between atoms: P_8  and  C_34
    7  A    between atoms: C_9  and  C_19
    8  A    between atoms: C_10  and  C_11
    9  A    between atoms: C_10  and  C_15
   10  A    between atoms: C_13  and  C_15
   11  A    between atoms: C_13  and  C_36
   12  A    between atoms: C_14  and  C_25
   13  A    between atoms: C_18  and  C_33
   14  A    between atoms: C_19  and  C_21
   15  A    between atoms: C_22  and  C_23
   16  A    between atoms: C_22  and  C_27
   17  A    between atoms: C_23  and  C_40
   18  A    between atoms: C_25  and  C_34
   19  A    between atoms: C_29  and  C_40
                            x       y       z     vdW  Elec       q    Type
                         _______ _______ _______ _____ _____    ______ ____

>  <TORSDO>
F 19

$$$$
=
 OpenBabel11062413123D

 42 42  0  0  1  0  0  0  0  0999 V2000
  188.2560  177.8950  144.9390 C   0  0  0  0  0  2  0  0  0  0  0  0
  187.0680  178.0690  145.8350 C   0  0  0  0  0  0  0  0  0  0  0  0
  186.9950  177.4200  146.8670 O   0  0  0  0  0  0  0  0  0  0  0  0
  185.9340  180.1070  146.3540 F   0  0  0  0  0  0  0  0  0  0  0  0
  185.9640  179.0280  145.4840 C   0  0  2  0  0  3  0  0  0  0  0  0
  184.5780  178.3740  145.3880 C   0  0  1  0  0  3  0  0  0  0  0  0
  183.8680  178.4880  146.5880 O   0  0  0  0  0  1  0  0  0  0  0  0
  183.7500  178.8470  144.1910 C   0  0  1  0  0  3  0  0  0  0  0  0
  184.1580  178.1750  143.0380 O   0  0  0  0  0  1  0  0  0  0  0  0
  182.2530  178.6510  144.4000 C   0  0  0  0  0  2  0  0  0  0  0  0
  181.4560  179.4310  143.3680 C   0  0  0  0  0  2  0  0  0  0  0  0
  180.4500  178.5210  142.6810 C   0  0  0  0  0  2  0  0  0  0  0  0
  180.6940  178.4860  141.2470 N   0  0  0  0  0  2  0  0  0  0  0  0
  179.5340  176.4600  140.8660 N   0  0  0  0  0  2  0  0  0  0  0  0
  180.1710  177.4730  140.3790 C   0  0  0  0  0  0  0  0  0  0  0  0
  180.5510  177.4630  138.9340 C   0  0  0  0  0  2  0  0  0  0  0  0
  182.0210  177.6450  138.7580 C   0  0  0  0  0  0  0  0  0  0  0  0
  184.3470  180.4700  139.0140 O   0  0  0  0  0  0  0  0  0  0  0  0
  185.0380  178.2390  138.6210 C   0  0  0  0  0  1  0  0  0  0  0  0
  183.9920  179.2730  138.8620 C   0  0  0  0  0  0  0  0  0  0  0  0
  182.7330  176.6460  138.4760 O   0  0  0  0  0  0  0  0  0  0  0  0
  182.5970  178.9460  138.9300 N   0  0  0  0  0  2  0  0  0  0  0  0
  187.8550  177.2490  143.6240 C   0  0  0  0  0  2  0  0  0  0  0  0
  186.8220  178.7990  141.5030 O   0  0  0  0  0  0  0  0  0  0  0  0
  190.2260  176.6650  140.8140 C   0  0  0  0  0  3  0  0  0  0  0  0
  189.7790  177.6830  139.8040 C   0  0  2  0  0  3  0  0  0  0  0  0
  189.7560  176.6940  142.0700 C   0  0  0  0  0  0  0  0  0  0  0  0
  188.4240  178.0680  140.0290 O   0  0  0  0  0  0  0  0  0  0  0  0
  187.9330  178.2300  141.3260 C   0  0  0  0  0  0  0  0  0  0  0  0
  188.7550  177.7560  142.5000 C   0  0  1  0  0  3  0  0  0  0  0  0
  189.9540  177.1660  138.4120 C   0  0  0  0  0  0  0  0  0  0  0  0
  191.0600  177.1480  137.8920 O   0  0  0  0  0  0  0  0  0  0  0  0
  188.7650  176.6560  137.6660 C   0  0  0  0  0  2  0  0  0  0  0  0
  189.4120  177.8030  135.1130 O   0  0  0  0  0  0  0  0  0  0  0  0
  188.2730  177.8260  136.3620 P   0  0  0  0  0  0  0  0  0  0  0  0
  186.7630  177.3740  135.7520 O   0  0  0  0  0  1  0  0  0  0  0  0
  188.1860  179.2210  136.9380 O   0  0  0  0  0  1  0  0  0  0  0  0
  190.3200  175.7170  143.0550 C   0  0  0  0  0  2  0  0  0  0  0  0
  191.6710  176.1980  143.5620 C   0  0  0  0  0  2  0  0  0  0  0  0
  191.5070  176.9670  144.8600 C   0  0  0  0  0  2  0  0  0  0  0  0
  191.8320  176.0790  146.0480 C   0  0  0  0  0  2  0  0  0  0  0  0
  191.9110  176.8580  147.2000 O   0  0  0  0  0  1  0  0  0  0  0  0
  1  2  1  0  0  0  0
  2  3  2  0  0  0  0
  5  2  1  0  0  0  0
  5  4  1  1  0  0  0
  6  5  1  0  0  0  0
  6  7  1  1  0  0  0
  8  9  1  6  0  0  0
  8 10  1  0  0  0  0
  8  6  1  0  0  0  0
 11 10  1  0  0  0  0
 12 11  1  0  0  0  0
 13 12  1  0  0  0  0
 15 14  2  0  0  0  0
 15 13  1  0  0  0  0
 16 15  1  0  0  0  0
 17 22  1  0  0  0  0
 17 16  1  0  0  0  0
 19 20  1  0  0  0  0
 20 22  1  0  0  0  0
 20 18  2  0  0  0  0
 21 17  2  0  0  0  0
 23  1  1  0  0  0  0
 25 27  2  0  0  0  0
 26 31  1  6  0  0  0
 26 28  1  0  0  0  0
 26 25  1  0  0  0  0
 27 30  1  0  0  0  0
 27 38  1  0  0  0  0
 28 29  1  0  0  0  0
 29 24  2  0  0  0  0
 29 30  1  0  0  0  0
 30 23  1  1  0  0  0
 32 31  2  0  0  0  0
 33 31  1  0  0  0  0
 34 35  2  0  0  0  0
 35 37  1  0  0  0  0
 35 33  1  0  0  0  0
 36 35  1  0  0  0  0
 38 39  1  0  0  0  0
 39 40  1  0  0  0  0
 40 41  1  0  0  0  0
 41 42  1  0  0  0  0
M  END
>  <MODEL>
2

>  <REMARK>
 VINA RESULT:      -7.0      2.664      5.455
  Name = 
  19 active torsions:
  status: ('A' for Active; 'I' for Inactive)
    1  A    between atoms: N_1  and  C_17
    2  A    between atoms: C_4  and  C_11
    3  A    between atoms: C_4  and  C_18
    4  A    between atoms: C_6  and  C_17
    5  A    between atoms: C_6  and  C_36
    6  A    between atoms: P_8  and  C_34
    7  A    between atoms: C_9  and  C_19
    8  A    between atoms: C_10  and  C_11
    9  A    between atoms: C_10  and  C_15
   10  A    between atoms: C_13  and  C_15
   11  A    between atoms: C_13  and  C_36
   12  A    between atoms: C_14  and  C_25
   13  A    between atoms: C_18  and  C_33
   14  A    between atoms: C_19  and  C_21
   15  A    between atoms: C_22  and  C_23
   16  A    between atoms: C_22  and  C_27
   17  A    between atoms: C_23  and  C_40
   18  A    between atoms: C_25  and  C_34
   19  A    between atoms: C_29  and  C_40
                            x       y       z     vdW  Elec       q    Type
                         _______ _______ _______ _____ _____    ______ ____

>  <TORSDO>
F 19

$$$$
=
 OpenBabel11062413123D

 42 42  0  0  1  0  0  0  0  0999 V2000
  183.8780  178.5720  142.9450 C   0  0  0  0  0  2  0  0  0  0  0  0
  182.5340  178.8430  143.5480 C   0  0  0  0  0  0  0  0  0  0  0  0
  182.3520  178.6170  144.7340 O   0  0  0  0  0  0  0  0  0  0  0  0
  180.3390  179.7880  143.5080 F   0  0  0  0  0  0  0  0  0  0  0  0
  181.4040  179.3880  142.7170 C   0  0  2  0  0  3  0  0  0  0  0  0
  180.9270  178.4340  141.6120 C   0  0  1  0  0  3  0  0  0  0  0  0
  179.7930  177.7150  142.0040 O   0  0  0  0  0  1  0  0  0  0  0  0
  180.7310  179.1070  140.2520 C   0  0  1  0  0  3  0  0  0  0  0  0
  180.3170  180.4270  140.4340 O   0  0  0  0  0  1  0  0  0  0  0  0
  181.9910  179.0740  139.3950 C   0  0  0  0  0  2  0  0  0  0  0  0
  181.6820  179.4810  137.9640 C   0  0  0  0  0  2  0  0  0  0  0  0
  182.0670  178.3670  137.0040 C   0  0  0  0  0  2  0  0  0  0  0  0
  183.2580  177.6780  137.4790 N   0  0  0  0  0  2  0  0  0  0  0  0
  184.1410  177.2370  135.3300 N   0  0  0  0  0  2  0  0  0  0  0  0
  184.2870  177.1860  136.6130 C   0  0  0  0  0  0  0  0  0  0  0  0
  185.4280  176.4070  137.1810 C   0  0  0  0  0  2  0  0  0  0  0  0
  186.5910  177.2910  137.4840 C   0  0  0  0  0  0  0  0  0  0  0  0
  190.1830  176.7780  138.0260 O   0  0  0  0  0  0  0  0  0  0  0  0
  189.1660  178.9150  137.9400 C   0  0  0  0  0  1  0  0  0  0  0  0
  189.1160  177.4270  137.8770 C   0  0  0  0  0  0  0  0  0  0  0  0
  186.4100  178.5340  137.5740 O   0  0  0  0  0  0  0  0  0  0  0  0
  187.8920  176.7140  137.6510 N   0  0  0  0  0  2  0  0  0  0  0  0
  184.9850  179.1900  143.7810 C   0  0  0  0  0  2  0  0  0  0  0  0
  184.7240  179.1400  146.5910 O   0  0  0  0  0  0  0  0  0  0  0  0
  188.0210  177.3860  144.9570 C   0  0  0  0  0  3  0  0  0  0  0  0
  187.7220  177.1730  146.4140 C   0  0  2  0  0  3  0  0  0  0  0  0
  187.0690  177.8190  144.1180 C   0  0  0  0  0  0  0  0  0  0  0  0
  186.7610  178.1190  146.8820 O   0  0  0  0  0  0  0  0  0  0  0  0
  185.6840  178.5010  146.0800 C   0  0  0  0  0  0  0  0  0  0  0  0
  185.6640  178.1120  144.6220 C   0  0  1  0  0  3  0  0  0  0  0  0
  188.9710  177.2440  147.2320 C   0  0  0  0  0  0  0  0  0  0  0  0
  189.2670  178.2710  147.8240 O   0  0  0  0  0  0  0  0  0  0  0  0
  189.8500  176.0410  147.3310 C   0  0  0  0  0  2  0  0  0  0  0  0
  191.6660  177.5270  145.6730 O   0  0  0  0  0  0  0  0  0  0  0  0
  191.5830  176.4810  146.9990 P   0  0  0  0  0  0  0  0  0  0  0  0
  192.2310  177.2480  148.3580 O   0  0  0  0  0  1  0  0  0  0  0  0
  192.3780  175.2290  146.7030 O   0  0  0  0  0  1  0  0  0  0  0  0
  187.4040  177.9090  142.6610 C   0  0  0  0  0  2  0  0  0  0  0  0
  188.8950  178.1480  142.4760 C   0  0  0  0  0  2  0  0  0  0  0  0
  189.4940  177.0870  141.5720 C   0  0  0  0  0  2  0  0  0  0  0  0
  190.7140  176.4610  142.2220 C   0  0  0  0  0  2  0  0  0  0  0  0
  190.3480  175.2730  142.8500 O   0  0  0  0  0  1  0  0  0  0  0  0
  1  2  1  0  0  0  0
  1 23  1  0  0  0  0
  2  3  2  0  0  0  0
  5  4  1  1  0  0  0
  5  2  1  0  0  0  0
  6  7  1  1  0  0  0
  6  5  1  0  0  0  0
  8  9  1  1  0  0  0
  8  6  1  0  0  0  0
 10  8  1  0  0  0  0
 11 10  1  0  0  0  0
 12 13  1  0  0  0  0
 12 11  1  0  0  0  0
 14 15  2  0  0  0  0
 15 16  1  0  0  0  0
 15 13  1  0  0  0  0
 16 17  1  0  0  0  0
 17 21  2  0  0  0  0
 17 22  1  0  0  0  0
 20 19  1  0  0  0  0
 20 18  2  0  0  0  0
 22 20  1  0  0  0  0
 25 26  1  0  0  0  0
 26 28  1  0  0  0  0
 26 31  1  1  0  0  0
 27 30  1  0  0  0  0
 27 25  2  0  0  0  0
 29 24  2  0  0  0  0
 29 28  1  0  0  0  0
 30 23  1  6  0  0  0
 30 29  1  0  0  0  0
 31 33  1  0  0  0  0
 31 32  2  0  0  0  0
 34 35  2  0  0  0  0
 35 33  1  0  0  0  0
 35 36  1  0  0  0  0
 37 35  1  0  0  0  0
 38 27  1  0  0  0  0
 39 38  1  0  0  0  0
 40 41  1  0  0  0  0
 40 39  1  0  0  0  0
 41 42  1  0  0  0  0
M  END
>  <MODEL>
3

>  <REMARK>
 VINA RESULT:      -6.9      4.021      9.234
  Name = 
  19 active torsions:
  status: ('A' for Active; 'I' for Inactive)
    1  A    between atoms: N_1  and  C_17
    2  A    between atoms: C_4  and  C_11
    3  A    between atoms: C_4  and  C_18
    4  A    between atoms: C_6  and  C_17
    5  A    between atoms: C_6  and  C_36
    6  A    between atoms: P_8  and  C_34
    7  A    between atoms: C_9  and  C_19
    8  A    between atoms: C_10  and  C_11
    9  A    between atoms: C_10  and  C_15
   10  A    between atoms: C_13  and  C_15
   11  A    between atoms: C_13  and  C_36
   12  A    between atoms: C_14  and  C_25
   13  A    between atoms: C_18  and  C_33
   14  A    between atoms: C_19  and  C_21
   15  A    between atoms: C_22  and  C_23
   16  A    between atoms: C_22  and  C_27
   17  A    between atoms: C_23  and  C_40
   18  A    between atoms: C_25  and  C_34
   19  A    between atoms: C_29  and  C_40
                            x       y       z     vdW  Elec       q    Type
                         _______ _______ _______ _____ _____    ______ ____

>  <TORSDO>
F 19

$$$$
=
 OpenBabel11062413123D

 42 42  0  0  1  0  0  0  0  0999 V2000
  183.4880  177.5710  140.9050 C   0  0  0  0  0  2  0  0  0  0  0  0
  182.6210  177.3580  139.7030 C   0  0  0  0  0  0  0  0  0  0  0  0
  181.4480  177.0560  139.8540 O   0  0  0  0  0  0  0  0  0  0  0  0
  182.9700  178.7890  137.8210 F   0  0  0  0  0  0  0  0  0  0  0  0
  183.1720  177.5090  138.3110 C   0  0  2  0  0  3  0  0  0  0  0  0
  182.6480  176.4620  137.3170 C   0  0  1  0  0  3  0  0  0  0  0  0
  181.8790  177.0470  136.3060 O   0  0  0  0  0  1  0  0  0  0  0  0
  183.7360  175.5490  136.7460 C   0  0  1  0  0  3  0  0  0  0  0  0
  183.6150  175.4800  135.3580 O   0  0  0  0  0  1  0  0  0  0  0  0
  185.1410  176.0090  137.1190 C   0  0  0  0  0  2  0  0  0  0  0  0
  186.0270  176.0960  135.8870 C   0  0  0  0  0  2  0  0  0  0  0  0
  187.1820  177.0530  136.1360 C   0  0  0  0  0  2  0  0  0  0  0  0
  188.0280  176.5570  137.2110 N   0  0  0  0  0  2  0  0  0  0  0  0
  189.2210  178.5770  137.5150 N   0  0  0  0  0  2  0  0  0  0  0  0
  188.9850  177.3670  137.9030 C   0  0  0  0  0  0  0  0  0  0  0  0
  189.8780  176.7500  138.9300 C   0  0  0  0  0  2  0  0  0  0  0  0
  190.9620  175.9460  138.2940 C   0  0  0  0  0  0  0  0  0  0  0  0
  194.2980  176.6720  136.9510 O   0  0  0  0  0  0  0  0  0  0  0  0
  193.4040  174.4850  137.1200 C   0  0  0  0  0  1  0  0  0  0  0  0
  193.3210  175.9620  137.3020 C   0  0  0  0  0  0  0  0  0  0  0  0
  190.8070  174.7040  138.1600 O   0  0  0  0  0  0  0  0  0  0  0  0
  192.1650  176.5970  137.8650 N   0  0  0  0  0  2  0  0  0  0  0  0
  183.8990  179.0280  141.0290 C   0  0  0  0  0  2  0  0  0  0  0  0
  186.1690  178.7840  139.3690 O   0  0  0  0  0  0  0  0  0  0  0  0
  186.5920  177.8550  143.3150 C   0  0  0  0  0  3  0  0  0  0  0  0
  187.8160  177.9720  142.4520 C   0  0  2  0  0  3  0  0  0  0  0  0
  185.4250  178.3900  142.9250 C   0  0  0  0  0  0  0  0  0  0  0  0
  187.4710  177.9530  141.0670 O   0  0  0  0  0  0  0  0  0  0  0  0
  186.3260  178.6060  140.6070 C   0  0  0  0  0  0  0  0  0  0  0  0
  185.3120  179.1230  141.5970 C   0  0  1  0  0  3  0  0  0  0  0  0
  188.7960  176.8880  142.7650 C   0  0  0  0  0  0  0  0  0  0  0  0
  188.4070  175.7760  143.0900 O   0  0  0  0  0  0  0  0  0  0  0  0
  190.2590  177.1710  142.6620 C   0  0  0  0  0  2  0  0  0  0  0  0
  189.6780  178.1000  145.3170 O   0  0  0  0  0  1  0  0  0  0  0  0
  190.9360  177.6550  144.2780 P   0  0  0  0  0  0  0  0  0  0  0  0
  191.7750  176.3470  144.9430 O   0  0  0  0  0  1  0  0  0  0  0  0
  191.8820  178.8220  144.1050 O   0  0  0  0  0  0  0  0  0  0  0  0
  184.2720  178.3290  143.8780 C   0  0  0  0  0  2  0  0  0  0  0  0
  184.5200  179.2440  145.0670 C   0  0  0  0  0  2  0  0  0  0  0  0
  184.7820  178.4270  146.3190 C   0  0  0  0  0  2  0  0  0  0  0  0
  186.0500  178.9000  147.0070 C   0  0  0  0  0  2  0  0  0  0  0  0
  186.9350  177.8320  147.1370 O   0  0  0  0  0  1  0  0  0  0  0  0
  1 23  1  0  0  0  0
  2  3  2  0  0  0  0
  2  1  1  0  0  0  0
  5  4  1  6  0  0  0
  5  2  1  0  0  0  0
  6  7  1  6  0  0  0
  6  5  1  0  0  0  0
  8  9  1  6  0  0  0
  8 10  1  0  0  0  0
  8  6  1  0  0  0  0
 11 12  1  0  0  0  0
 11 10  1  0  0  0  0
 12 13  1  0  0  0  0
 13 15  1  0  0  0  0
 14 15  2  0  0  0  0
 15 16  1  0  0  0  0
 17 16  1  0  0  0  0
 18 20  2  0  0  0  0
 19 20  1  0  0  0  0
 20 22  1  0  0  0  0
 21 17  2  0  0  0  0
 22 17  1  0  0  0  0
 24 29  2  0  0  0  0
 26 31  1  6  0  0  0
 26 25  1  0  0  0  0
 27 25  2  0  0  0  0
 27 38  1  0  0  0  0
 28 26  1  0  0  0  0
 29 28  1  0  0  0  0
 29 30  1  0  0  0  0
 30 23  1  6  0  0  0
 30 27  1  0  0  0  0
 31 32  2  0  0  0  0
 33 31  1  0  0  0  0
 33 35  1  0  0  0  0
 35 36  1  0  0  0  0
 35 34  1  0  0  0  0
 37 35  2  0  0  0  0
 38 39  1  0  0  0  0
 39 40  1  0  0  0  0
 40 41  1  0  0  0  0
 41 42  1  0  0  0  0
M  END
>  <MODEL>
4

>  <REMARK>
 VINA RESULT:      -6.7      3.736      9.661
  Name = 
  19 active torsions:
  status: ('A' for Active; 'I' for Inactive)
    1  A    between atoms: N_1  and  C_17
    2  A    between atoms: C_4  and  C_11
    3  A    between atoms: C_4  and  C_18
    4  A    between atoms: C_6  and  C_17
    5  A    between atoms: C_6  and  C_36
    6  A    between atoms: P_8  and  C_34
    7  A    between atoms: C_9  and  C_19
    8  A    between atoms: C_10  and  C_11
    9  A    between atoms: C_10  and  C_15
   10  A    between atoms: C_13  and  C_15
   11  A    between atoms: C_13  and  C_36
   12  A    between atoms: C_14  and  C_25
   13  A    between atoms: C_18  and  C_33
   14  A    between atoms: C_19  and  C_21
   15  A    between atoms: C_22  and  C_23
   16  A    between atoms: C_22  and  C_27
   17  A    between atoms: C_23  and  C_40
   18  A    between atoms: C_25  and  C_34
   19  A    between atoms: C_29  and  C_40
                            x       y       z     vdW  Elec       q    Type
                         _______ _______ _______ _____ _____    ______ ____

>  <TORSDO>
F 19

$$$$
=
 OpenBabel11062413123D

 42 42  0  0  1  0  0  0  0  0999 V2000
  189.2830  177.0970  139.3890 C   0  0  0  0  0  2  0  0  0  0  0  0
  190.5700  176.9840  140.1450 C   0  0  0  0  0  0  0  0  0  0  0  0
  191.6290  177.1130  139.5510 O   0  0  0  0  0  0  0  0  0  0  0  0
  189.4920  175.9440  142.0070 F   0  0  0  0  0  0  0  0  0  0  0  0
  190.5810  176.7120  141.6250 C   0  0  2  0  0  3  0  0  0  0  0  0
  190.6790  177.9770  142.4900 C   0  0  1  0  0  3  0  0  0  0  0  0
  189.4180  178.5200  142.7580 O   0  0  0  0  0  1  0  0  0  0  0  0
  191.5000  177.7930  143.7680 C   0  0  1  0  0  3  0  0  0  0  0  0
  191.9010  179.0370  144.2570 O   0  0  0  0  0  1  0  0  0  0  0  0
  190.7390  177.0340  144.8490 C   0  0  0  0  0  2  0  0  0  0  0  0
  191.6990  176.3860  145.8340 C   0  0  0  0  0  2  0  0  0  0  0  0
  191.2280  176.6220  147.2600 C   0  0  0  0  0  2  0  0  0  0  0  0
  189.7740  176.6460  147.3160 N   0  0  0  0  0  2  0  0  0  0  0  0
  189.6280  178.6230  148.6070 N   0  0  0  0  0  2  0  0  0  0  0  0
  189.0240  177.6910  147.9470 C   0  0  0  0  0  0  0  0  0  0  0  0
  187.5360  177.5860  148.0390 C   0  0  0  0  0  2  0  0  0  0  0  0
  186.8870  177.9100  146.7360 C   0  0  0  0  0  0  0  0  0  0  0  0
  183.5670  179.0730  145.6960 O   0  0  0  0  0  0  0  0  0  0  0  0
  185.3830  178.7970  144.2010 C   0  0  0  0  0  1  0  0  0  0  0  0
  184.7730  178.7450  145.5600 C   0  0  0  0  0  0  0  0  0  0  0  0
  187.5590  177.8170  145.6760 O   0  0  0  0  0  0  0  0  0  0  0  0
  185.5180  178.3350  146.7150 N   0  0  0  0  0  2  0  0  0  0  0  0
  189.2150  178.4060  138.6210 C   0  0  0  0  0  2  0  0  0  0  0  0
  186.5080  178.6170  139.3940 O   0  0  0  0  0  0  0  0  0  0  0  0
  187.3440  176.6690  135.9130 C   0  0  0  0  0  3  0  0  0  0  0  0
  185.9180  177.0140  136.2380 C   0  0  2  0  0  3  0  0  0  0  0  0
  188.3580  177.2870  136.5360 C   0  0  0  0  0  0  0  0  0  0  0  0
  185.7780  177.3640  137.6140 O   0  0  0  0  0  0  0  0  0  0  0  0
  186.7580  178.1150  138.2650 C   0  0  0  0  0  0  0  0  0  0  0  0
  188.0890  178.3480  137.5930 C   0  0  1  0  0  3  0  0  0  0  0  0
  185.0020  175.8860  135.8860 C   0  0  0  0  0  0  0  0  0  0  0  0
  183.8140  176.0910  135.6890 O   0  0  0  0  0  0  0  0  0  0  0  0
  185.5560  174.5050  135.7620 C   0  0  0  0  0  2  0  0  0  0  0  0
  184.0620  172.1640  136.4990 O   0  0  0  0  0  0  0  0  0  0  0  0
  184.9660  173.4500  137.1220 P   0  0  0  0  0  0  0  0  0  0  0  0
  186.2960  172.8410  137.9690 O   0  0  0  0  0  1  0  0  0  0  0  0
  184.1030  174.2650  138.0600 O   0  0  0  0  0  1  0  0  0  0  0  0
  189.7530  176.9720  136.0910 C   0  0  0  0  0  2  0  0  0  0  0  0
  189.7550  175.7470  135.1900 C   0  0  0  0  0  2  0  0  0  0  0  0
  190.7820  174.7370  135.6710 C   0  0  0  0  0  2  0  0  0  0  0  0
  190.3170  174.0780  136.9570 C   0  0  0  0  0  2  0  0  0  0  0  0
  191.2990  174.2230  137.9340 O   0  0  0  0  0  1  0  0  0  0  0  0
  1  2  1  0  0  0  0
  2  5  1  0  0  0  0
  3  2  2  0  0  0  0
  5  4  1  1  0  0  0
  5  6  1  0  0  0  0
  6  7  1  1  0  0  0
  6  8  1  0  0  0  0
  8  9  1  1  0  0  0
  8 10  1  0  0  0  0
 10 11  1  0  0  0  0
 11 12  1  0  0  0  0
 12 13  1  0  0  0  0
 13 15  1  0  0  0  0
 15 16  1  0  0  0  0
 15 14  2  0  0  0  0
 17 16  1  0  0  0  0
 19 20  1  0  0  0  0
 20 18  2  0  0  0  0
 20 22  1  0  0  0  0
 21 17  2  0  0  0  0
 22 17  1  0  0  0  0
 23  1  1  0  0  0  0
 25 26  1  0  0  0  0
 25 27  2  0  0  0  0
 26 31  1  1  0  0  0
 26 28  1  0  0  0  0
 27 30  1  0  0  0  0
 28 29  1  0  0  0  0
 29 24  2  0  0  0  0
 30 29  1  0  0  0  0
 30 23  1  1  0  0  0
 32 31  2  0  0  0  0
 33 31  1  0  0  0  0
 33 35  1  0  0  0  0
 34 35  2  0  0  0  0
 35 36  1  0  0  0  0
 35 37  1  0  0  0  0
 38 27  1  0  0  0  0
 39 40  1  0  0  0  0
 39 38  1  0  0  0  0
 40 41  1  0  0  0  0
 41 42  1  0  0  0  0
M  END
>  <MODEL>
5

>  <REMARK>
 VINA RESULT:      -6.7      2.561      4.264
  Name = 
  19 active torsions:
  status: ('A' for Active; 'I' for Inactive)
    1  A    between atoms: N_1  and  C_17
    2  A    between atoms: C_4  and  C_11
    3  A    between atoms: C_4  and  C_18
    4  A    between atoms: C_6  and  C_17
    5  A    between atoms: C_6  and  C_36
    6  A    between atoms: P_8  and  C_34
    7  A    between atoms: C_9  and  C_19
    8  A    between atoms: C_10  and  C_11
    9  A    between atoms: C_10  and  C_15
   10  A    between atoms: C_13  and  C_15
   11  A    between atoms: C_13  and  C_36
   12  A    between atoms: C_14  and  C_25
   13  A    between atoms: C_18  and  C_33
   14  A    between atoms: C_19  and  C_21
   15  A    between atoms: C_22  and  C_23
   16  A    between atoms: C_22  and  C_27
   17  A    between atoms: C_23  and  C_40
   18  A    between atoms: C_25  and  C_34
   19  A    between atoms: C_29  and  C_40
                            x       y       z     vdW  Elec       q    Type
                         _______ _______ _______ _____ _____    ______ ____

>  <TORSDO>
F 19

$$$$
=
 OpenBabel11062413123D

 42 42  0  0  1  0  0  0  0  0999 V2000
  191.0150  177.4590  141.0640 C   0  0  0  0  0  2  0  0  0  0  0  0
  190.6540  176.9120  142.4110 C   0  0  0  0  0  0  0  0  0  0  0  0
  189.4800  176.7210  142.6860 O   0  0  0  0  0  0  0  0  0  0  0  0
  191.6420  175.2740  143.8430 F   0  0  0  0  0  0  0  0  0  0  0  0
  191.7130  176.5950  143.4310 C   0  0  2  0  0  3  0  0  0  0  0  0
  191.7130  177.5390  144.6430 C   0  0  1  0  0  3  0  0  0  0  0  0
  191.2670  178.8200  144.3000 O   0  0  0  0  0  1  0  0  0  0  0  0
  190.9690  176.9860  145.8600 C   0  0  1  0  0  3  0  0  0  0  0  0
  191.7630  177.1170  147.0000 O   0  0  0  0  0  1  0  0  0  0  0  0
  189.6250  177.6700  146.0850 C   0  0  0  0  0  2  0  0  0  0  0  0
  189.2480  177.6490  147.5580 C   0  0  0  0  0  2  0  0  0  0  0  0
  187.7920  177.2440  147.7220 C   0  0  0  0  0  2  0  0  0  0  0  0
  186.9150  178.2970  147.2320 N   0  0  0  0  0  2  0  0  0  0  0  0
  186.3660  177.2120  145.2020 N   0  0  0  0  0  2  0  0  0  0  0  0
  186.1840  178.2110  146.0030 C   0  0  0  0  0  0  0  0  0  0  0  0
  185.3810  179.3790  145.5310 C   0  0  0  0  0  2  0  0  0  0  0  0
  184.6570  179.0650  144.2650 C   0  0  0  0  0  0  0  0  0  0  0  0
  185.3530  179.4910  140.6890 O   0  0  0  0  0  0  0  0  0  0  0  0
  183.4450  178.3640  141.5240 C   0  0  0  0  0  1  0  0  0  0  0  0
  184.7220  179.1100  141.7080 C   0  0  0  0  0  0  0  0  0  0  0  0
  183.5370  178.4920  144.3250 O   0  0  0  0  0  0  0  0  0  0  0  0
  185.2540  179.4030  143.0070 N   0  0  0  0  0  2  0  0  0  0  0  0
  190.5410  176.5350  139.9560 C   0  0  0  0  0  2  0  0  0  0  0  0
  188.1290  177.9990  139.8680 O   0  0  0  0  0  0  0  0  0  0  0  0
  189.7660  176.8210  136.3260 C   0  0  0  0  0  3  0  0  0  0  0  0
  188.6260  177.7990  136.3200 C   0  0  2  0  0  3  0  0  0  0  0  0
  190.4820  176.6100  137.4410 C   0  0  0  0  0  0  0  0  0  0  0  0
  187.9660  177.8250  137.5850 O   0  0  0  0  0  0  0  0  0  0  0  0
  188.6930  177.7330  138.7730 C   0  0  0  0  0  0  0  0  0  0  0  0
  190.1530  177.3530  138.7270 C   0  0  1  0  0  3  0  0  0  0  0  0
  187.6570  177.4820  135.2270 C   0  0  0  0  0  0  0  0  0  0  0  0
  186.8570  178.3230  134.8450 O   0  0  0  0  0  0  0  0  0  0  0  0
  187.6850  176.1300  134.5940 C   0  0  0  0  0  2  0  0  0  0  0  0
  184.8910  175.5270  134.8850 O   0  0  0  0  0  1  0  0  0  0  0  0
  186.4420  175.0390  135.3510 P   0  0  0  0  0  0  0  0  0  0  0  0
  186.7080  173.4520  134.8340 O   0  0  0  0  0  0  0  0  0  0  0  0
  186.5580  175.1030  136.8570 O   0  0  0  0  0  1  0  0  0  0  0  0
  191.6690  175.7020  137.3520 C   0  0  0  0  0  2  0  0  0  0  0  0
  192.4690  175.9990  136.0930 C   0  0  0  0  0  2  0  0  0  0  0  0
  193.9570  175.9690  136.3910 C   0  0  0  0  0  2  0  0  0  0  0  0
  194.2850  174.8320  137.3430 C   0  0  0  0  0  2  0  0  0  0  0  0
  194.8760  175.3480  138.4940 O   0  0  0  0  0  1  0  0  0  0  0  0
  1  2  1  0  0  0  0
  2  3  2  0  0  0  0
  2  5  1  0  0  0  0
  5  4  1  1  0  0  0
  5  6  1  0  0  0  0
  6  7  1  6  0  0  0
  6  8  1  0  0  0  0
  8 10  1  0  0  0  0
  8  9  1  1  0  0  0
 10 11  1  0  0  0  0
 11 12  1  0  0  0  0
 13 12  1  0  0  0  0
 14 15  2  0  0  0  0
 15 13  1  0  0  0  0
 16 15  1  0  0  0  0
 17 21  2  0  0  0  0
 17 16  1  0  0  0  0
 18 20  2  0  0  0  0
 19 20  1  0  0  0  0
 20 22  1  0  0  0  0
 22 17  1  0  0  0  0
 23  1  1  0  0  0  0
 25 27  2  0  0  0  0
 26 31  1  6  0  0  0
 26 25  1  0  0  0  0
 26 28  1  0  0  0  0
 27 30  1  0  0  0  0
 28 29  1  0  0  0  0
 29 24  2  0  0  0  0
 30 29  1  0  0  0  0
 30 23  1  1  0  0  0
 32 31  2  0  0  0  0
 33 31  1  0  0  0  0
 33 35  1  0  0  0  0
 34 35  1  0  0  0  0
 35 37  1  0  0  0  0
 36 35  2  0  0  0  0
 38 27  1  0  0  0  0
 39 40  1  0  0  0  0
 39 38  1  0  0  0  0
 40 41  1  0  0  0  0
 41 42  1  0  0  0  0
M  END
>  <MODEL>
6

>  <REMARK>
 VINA RESULT:      -6.6      1.456      1.926
  Name = 
  19 active torsions:
  status: ('A' for Active; 'I' for Inactive)
    1  A    between atoms: N_1  and  C_17
    2  A    between atoms: C_4  and  C_11
    3  A    between atoms: C_4  and  C_18
    4  A    between atoms: C_6  and  C_17
    5  A    between atoms: C_6  and  C_36
    6  A    between atoms: P_8  and  C_34
    7  A    between atoms: C_9  and  C_19
    8  A    between atoms: C_10  and  C_11
    9  A    between atoms: C_10  and  C_15
   10  A    between atoms: C_13  and  C_15
   11  A    between atoms: C_13  and  C_36
   12  A    between atoms: C_14  and  C_25
   13  A    between atoms: C_18  and  C_33
   14  A    between atoms: C_19  and  C_21
   15  A    between atoms: C_22  and  C_23
   16  A    between atoms: C_22  and  C_27
   17  A    between atoms: C_23  and  C_40
   18  A    between atoms: C_25  and  C_34
   19  A    between atoms: C_29  and  C_40
                            x       y       z     vdW  Elec       q    Type
                         _______ _______ _______ _____ _____    ______ ____

>  <TORSDO>
F 19

$$$$
=
 OpenBabel11062413123D

 42 42  0  0  1  0  0  0  0  0999 V2000
  188.9320  177.5200  139.7560 C   0  0  0  0  0  2  0  0  0  0  0  0
  189.7130  177.1590  140.9820 C   0  0  0  0  0  0  0  0  0  0  0  0
  190.6200  176.3470  140.8980 O   0  0  0  0  0  0  0  0  0  0  0  0
  188.8050  179.0240  142.1690 F   0  0  0  0  0  0  0  0  0  0  0  0
  189.3960  177.7790  142.3160 C   0  0  2  0  0  3  0  0  0  0  0  0
  190.6000  177.8630  143.2650 C   0  0  1  0  0  3  0  0  0  0  0  0
  190.9370  179.1890  143.5580 O   0  0  0  0  0  1  0  0  0  0  0  0
  190.4490  177.0220  144.5350 C   0  0  1  0  0  3  0  0  0  0  0  0
  191.4250  177.3860  145.4630 O   0  0  0  0  0  1  0  0  0  0  0  0
  189.0660  177.1540  145.1630 C   0  0  0  0  0  2  0  0  0  0  0  0
  189.1520  177.8180  146.5270 C   0  0  0  0  0  2  0  0  0  0  0  0
  187.8810  177.5580  147.3200 C   0  0  0  0  0  2  0  0  0  0  0  0
  186.7250  177.5520  146.4370 N   0  0  0  0  0  2  0  0  0  0  0  0
  185.7340  179.4990  147.3440 N   0  0  0  0  0  2  0  0  0  0  0  0
  185.7160  178.5690  146.4480 C   0  0  0  0  0  0  0  0  0  0  0  0
  184.5130  178.4330  145.5710 C   0  0  0  0  0  2  0  0  0  0  0  0
  184.8780  178.5440  144.1280 C   0  0  0  0  0  0  0  0  0  0  0  0
  183.0150  178.6630  140.9710 O   0  0  0  0  0  0  0  0  0  0  0  0
  185.3630  178.9360  141.1140 C   0  0  0  0  0  1  0  0  0  0  0  0
  184.0210  178.7080  141.7230 C   0  0  0  0  0  0  0  0  0  0  0  0
  186.0910  178.6530  143.8090 O   0  0  0  0  0  0  0  0  0  0  0  0
  183.8440  178.5420  143.1360 N   0  0  0  0  0  2  0  0  0  0  0  0
  189.8530  177.9730  138.6370 C   0  0  0  0  0  2  0  0  0  0  0  0
  187.3510  178.8280  137.6480 O   0  0  0  0  0  0  0  0  0  0  0  0
  188.7870  175.2450  136.3400 C   0  0  0  0  0  3  0  0  0  0  0  0
  187.5880  175.8470  135.6640 C   0  0  2  0  0  3  0  0  0  0  0  0
  189.5980  175.9990  137.0970 C   0  0  0  0  0  0  0  0  0  0  0  0
  187.0260  176.8940  136.4550 O   0  0  0  0  0  0  0  0  0  0  0  0
  187.8470  177.7770  137.1590 C   0  0  0  0  0  0  0  0  0  0  0  0
  189.3200  177.4810  137.2940 C   0  0  1  0  0  3  0  0  0  0  0  0
  186.5610  174.8030  135.3670 C   0  0  0  0  0  0  0  0  0  0  0  0
  186.8840  173.7460  134.8460 O   0  0  0  0  0  0  0  0  0  0  0  0
  185.1340  175.0570  135.7280 C   0  0  0  0  0  2  0  0  0  0  0  0
  183.3630  174.5640  137.9360 O   0  0  0  0  0  1  0  0  0  0  0  0
  184.5620  173.8600  136.9730 P   0  0  0  0  0  0  0  0  0  0  0  0
  183.9260  172.5040  136.1890 O   0  0  0  0  0  0  0  0  0  0  0  0
  185.7240  173.4380  137.8440 O   0  0  0  0  0  1  0  0  0  0  0  0
  190.8320  175.3600  137.6560 C   0  0  0  0  0  2  0  0  0  0  0  0
  191.7600  174.9300  136.5300 C   0  0  0  0  0  2  0  0  0  0  0  0
  193.1600  175.4690  136.7630 C   0  0  0  0  0  2  0  0  0  0  0  0
  193.1920  176.3490  138.0000 C   0  0  0  0  0  2  0  0  0  0  0  0
  194.2690  175.9820  138.8030 O   0  0  0  0  0  1  0  0  0  0  0  0
  1  2  1  0  0  0  0
  2  5  1  0  0  0  0
  3  2  2  0  0  0  0
  5  4  1  6  0  0  0
  5  6  1  0  0  0  0
  6  7  1  1  0  0  0
  6  8  1  0  0  0  0
  8 10  1  0  0  0  0
  8  9  1  1  0  0  0
 10 11  1  0  0  0  0
 11 12  1  0  0  0  0
 13 15  1  0  0  0  0
 13 12  1  0  0  0  0
 15 14  2  0  0  0  0
 16 15  1  0  0  0  0
 17 16  1  0  0  0  0
 18 20  2  0  0  0  0
 19 20  1  0  0  0  0
 20 22  1  0  0  0  0
 21 17  2  0  0  0  0
 22 17  1  0  0  0  0
 23  1  1  0  0  0  0
 25 27  2  0  0  0  0
 26 31  1  1  0  0  0
 26 25  1  0  0  0  0
 26 28  1  0  0  0  0
 27 30  1  0  0  0  0
 27 38  1  0  0  0  0
 28 29  1  0  0  0  0
 29 30  1  0  0  0  0
 29 24  2  0  0  0  0
 30 23  1  1  0  0  0
 31 33  1  0  0  0  0
 32 31  2  0  0  0  0
 33 35  1  0  0  0  0
 35 37  1  0  0  0  0
 35 34  1  0  0  0  0
 36 35  2  0  0  0  0
 39 40  1  0  0  0  0
 39 38  1  0  0  0  0
 40 41  1  0  0  0  0
 41 42  1  0  0  0  0
M  END
>  <MODEL>
7

>  <REMARK>
 VINA RESULT:      -6.5      2.136      3.082
  Name = 
  19 active torsions:
  status: ('A' for Active; 'I' for Inactive)
    1  A    between atoms: N_1  and  C_17
    2  A    between atoms: C_4  and  C_11
    3  A    between atoms: C_4  and  C_18
    4  A    between atoms: C_6  and  C_17
    5  A    between atoms: C_6  and  C_36
    6  A    between atoms: P_8  and  C_34
    7  A    between atoms: C_9  and  C_19
    8  A    between atoms: C_10  and  C_11
    9  A    between atoms: C_10  and  C_15
   10  A    between atoms: C_13  and  C_15
   11  A    between atoms: C_13  and  C_36
   12  A    between atoms: C_14  and  C_25
   13  A    between atoms: C_18  and  C_33
   14  A    between atoms: C_19  and  C_21
   15  A    between atoms: C_22  and  C_23
   16  A    between atoms: C_22  and  C_27
   17  A    between atoms: C_23  and  C_40
   18  A    between atoms: C_25  and  C_34
   19  A    between atoms: C_29  and  C_40
                            x       y       z     vdW  Elec       q    Type
                         _______ _______ _______ _____ _____    ______ ____

>  <TORSDO>
F 19

$$$$
=
 OpenBabel11062413123D

 42 42  0  0  1  0  0  0  0  0999 V2000
  188.0600  177.9900  145.9900 C   0  0  0  0  0  2  0  0  0  0  0  0
  186.5660  178.0210  145.8970 C   0  0  0  0  0  0  0  0  0  0  0  0
  185.9180  177.0850  146.3370 O   0  0  0  0  0  0  0  0  0  0  0  0
  185.6320  180.2020  146.1830 F   0  0  0  0  0  0  0  0  0  0  0  0
  185.8500  179.1850  145.2670 C   0  0  2  0  0  3  0  0  0  0  0  0
  184.5400  178.8040  144.5620 C   0  0  1  0  0  3  0  0  0  0  0  0
  183.4320  178.9890  145.3950 O   0  0  0  0  0  1  0  0  0  0  0  0
  184.3480  179.4790  143.2020 C   0  0  1  0  0  3  0  0  0  0  0  0
  185.5300  180.1120  142.8170 O   0  0  0  0  0  1  0  0  0  0  0  0
  183.9110  178.4990  142.1190 C   0  0  0  0  0  2  0  0  0  0  0  0
  184.8030  178.6140  140.8940 C   0  0  0  0  0  2  0  0  0  0  0  0
  184.0690  178.1140  139.6590 C   0  0  0  0  0  2  0  0  0  0  0  0
  182.6320  178.1100  139.8920 N   0  0  0  0  0  2  0  0  0  0  0  0
  182.3230  175.8220  139.3780 N   0  0  0  0  0  2  0  0  0  0  0  0
  181.8180  176.9360  139.7950 C   0  0  0  0  0  0  0  0  0  0  0  0
  180.3360  177.0430  139.9580 C   0  0  0  0  0  2  0  0  0  0  0  0
  179.9740  177.5780  141.3020 C   0  0  0  0  0  0  0  0  0  0  0  0
  180.0480  180.8810  142.8970 O   0  0  0  0  0  0  0  0  0  0  0  0
  179.1450  178.9510  143.9290 C   0  0  0  0  0  1  0  0  0  0  0  0
  179.8030  179.6530  142.7900 C   0  0  0  0  0  0  0  0  0  0  0  0
  179.4960  176.7970  142.1660 O   0  0  0  0  0  0  0  0  0  0  0  0
  180.1610  178.9720  141.5800 N   0  0  0  0  0  2  0  0  0  0  0  0
  188.6430  176.9470  145.0530 C   0  0  0  0  0  2  0  0  0  0  0  0
  186.8990  176.9760  142.8330 O   0  0  0  0  0  0  0  0  0  0  0  0
  190.9010  177.2520  142.1090 C   0  0  0  0  0  3  0  0  0  0  0  0
  189.9330  177.5050  140.9890 C   0  0  2  0  0  3  0  0  0  0  0  0
  190.4980  177.2980  143.3880 C   0  0  0  0  0  0  0  0  0  0  0  0
  188.6290  177.0310  141.3230 O   0  0  0  0  0  0  0  0  0  0  0  0
  188.1260  177.1740  142.6180 C   0  0  0  0  0  0  0  0  0  0  0  0
  189.0480  177.6000  143.7340 C   0  0  1  0  0  3  0  0  0  0  0  0
  190.4100  176.8790  139.7190 C   0  0  0  0  0  0  0  0  0  0  0  0
  190.5080  175.6640  139.6250 O   0  0  0  0  0  0  0  0  0  0  0  0
  190.7540  177.7510  138.5570 C   0  0  0  0  0  2  0  0  0  0  0  0
  189.4070  177.8790  136.0220 O   0  0  0  0  0  0  0  0  0  0  0  0
  189.2520  178.2560  137.6640 P   0  0  0  0  0  0  0  0  0  0  0  0
  187.9230  177.4310  138.3040 O   0  0  0  0  0  1  0  0  0  0  0  0
  189.0420  179.7450  137.8210 O   0  0  0  0  0  1  0  0  0  0  0  0
  191.5340  177.1410  144.4580 C   0  0  0  0  0  2  0  0  0  0  0  0
  191.8640  175.6700  144.6610 C   0  0  0  0  0  2  0  0  0  0  0  0
  192.0520  175.3680  146.1360 C   0  0  0  0  0  2  0  0  0  0  0  0
  191.4860  176.4920  146.9850 C   0  0  0  0  0  2  0  0  0  0  0  0
  192.3250  176.7190  148.0740 O   0  0  0  0  0  1  0  0  0  0  0  0
  2  1  1  0  0  0  0
  2  3  2  0  0  0  0
  5  2  1  0  0  0  0
  5  4  1  1  0  0  0
  6  5  1  0  0  0  0
  6  7  1  1  0  0  0
  8  9  1  6  0  0  0
  8  6  1  0  0  0  0
 10  8  1  0  0  0  0
 11 10  1  0  0  0  0
 12 13  1  0  0  0  0
 12 11  1  0  0  0  0
 14 15  2  0  0  0  0
 15 13  1  0  0  0  0
 15 16  1  0  0  0  0
 16 17  1  0  0  0  0
 17 22  1  0  0  0  0
 17 21  2  0  0  0  0
 20 18  2  0  0  0  0
 20 19  1  0  0  0  0
 22 20  1  0  0  0  0
 23  1  1  0  0  0  0
 25 27  2  0  0  0  0
 26 31  1  6  0  0  0
 26 28  1  0  0  0  0
 26 25  1  0  0  0  0
 27 30  1  0  0  0  0
 27 38  1  0  0  0  0
 28 29  1  0  0  0  0
 29 24  2  0  0  0  0
 29 30  1  0  0  0  0
 30 23  1  1  0  0  0
 32 31  2  0  0  0  0
 33 31  1  0  0  0  0
 34 35  2  0  0  0  0
 35 37  1  0  0  0  0
 35 36  1  0  0  0  0
 35 33  1  0  0  0  0
 38 39  1  0  0  0  0
 39 40  1  0  0  0  0
 40 41  1  0  0  0  0
 41 42  1  0  0  0  0
M  END
>  <MODEL>
8

>  <REMARK>
 VINA RESULT:      -6.4      2.887      6.107
  Name = 
  19 active torsions:
  status: ('A' for Active; 'I' for Inactive)
    1  A    between atoms: N_1  and  C_17
    2  A    between atoms: C_4  and  C_11
    3  A    between atoms: C_4  and  C_18
    4  A    between atoms: C_6  and  C_17
    5  A    between atoms: C_6  and  C_36
    6  A    between atoms: P_8  and  C_34
    7  A    between atoms: C_9  and  C_19
    8  A    between atoms: C_10  and  C_11
    9  A    between atoms: C_10  and  C_15
   10  A    between atoms: C_13  and  C_15
   11  A    between atoms: C_13  and  C_36
   12  A    between atoms: C_14  and  C_25
   13  A    between atoms: C_18  and  C_33
   14  A    between atoms: C_19  and  C_21
   15  A    between atoms: C_22  and  C_23
   16  A    between atoms: C_22  and  C_27
   17  A    between atoms: C_23  and  C_40
   18  A    between atoms: C_25  and  C_34
   19  A    between atoms: C_29  and  C_40
                            x       y       z     vdW  Elec       q    Type
                         _______ _______ _______ _____ _____    ______ ____

>  <TORSDO>
F 19

$$$$
=
 OpenBabel11062413123D

 42 42  0  0  1  0  0  0  0  0999 V2000
  183.6980  179.3000  142.8770 C   0  0  0  0  0  2  0  0  0  0  0  0
  182.6390  179.0210  143.8990 C   0  0  0  0  0  0  0  0  0  0  0  0
  182.9630  178.6150  145.0030 O   0  0  0  0  0  0  0  0  0  0  0  0
  180.3960  179.0960  144.7180 F   0  0  0  0  0  0  0  0  0  0  0  0
  181.1820  179.2300  143.5850 C   0  0  2  0  0  3  0  0  0  0  0  0
  180.6550  178.3370  142.4530 C   0  0  1  0  0  3  0  0  0  0  0  0
  179.6780  177.4460  142.9100 O   0  0  0  0  0  1  0  0  0  0  0  0
  180.1840  179.1110  141.2200 C   0  0  1  0  0  3  0  0  0  0  0  0
  180.4390  180.4720  141.3900 O   0  0  0  0  0  1  0  0  0  0  0  0
  180.8410  178.6200  139.9350 C   0  0  0  0  0  2  0  0  0  0  0  0
  181.9240  177.5970  140.2370 C   0  0  0  0  0  2  0  0  0  0  0  0
  181.5890  176.2660  139.5830 C   0  0  0  0  0  2  0  0  0  0  0  0
  182.7900  175.6530  139.0370 N   0  0  0  0  0  2  0  0  0  0  0  0
  182.2640  176.0940  136.7730 N   0  0  0  0  0  2  0  0  0  0  0  0
  183.1090  175.6440  137.6410 C   0  0  0  0  0  0  0  0  0  0  0  0
  184.3180  174.9080  137.1590 C   0  0  0  0  0  2  0  0  0  0  0  0
  185.2560  175.8180  136.4400 C   0  0  0  0  0  0  0  0  0  0  0  0
  186.9020  179.0050  137.2150 O   0  0  0  0  0  0  0  0  0  0  0  0
  187.3160  177.7650  135.2400 C   0  0  0  0  0  1  0  0  0  0  0  0
  186.6350  177.9710  136.5490 C   0  0  0  0  0  0  0  0  0  0  0  0
  185.6640  175.4980  135.2930 O   0  0  0  0  0  0  0  0  0  0  0  0
  185.6890  177.0290  137.0730 N   0  0  0  0  0  2  0  0  0  0  0  0
  184.6410  178.1190  142.7330 C   0  0  0  0  0  2  0  0  0  0  0  0
  185.2330  178.8370  140.0670 O   0  0  0  0  0  0  0  0  0  0  0  0
  188.3210  177.6410  142.4430 C   0  0  0  0  0  3  0  0  0  0  0  0
  188.6190  178.2570  141.1060 C   0  0  2  0  0  3  0  0  0  0  0  0
  187.1210  177.8020  143.0210 C   0  0  0  0  0  0  0  0  0  0  0  0
  187.4520  178.2880  140.2860 O   0  0  0  0  0  0  0  0  0  0  0  0
  186.2000  178.5760  140.8330 C   0  0  0  0  0  0  0  0  0  0  0  0
  186.0300  178.6080  142.3320 C   0  0  1  0  0  3  0  0  0  0  0  0
  189.7270  177.5280  140.4170 C   0  0  0  0  0  0  0  0  0  0  0  0
  190.3590  176.6620  141.0040 O   0  0  0  0  0  0  0  0  0  0  0  0
  190.0480  177.8580  138.9960 C   0  0  0  0  0  2  0  0  0  0  0  0
  190.6640  176.7260  136.4290 O   0  0  0  0  0  0  0  0  0  0  0  0
  190.1200  176.3480  137.9850 P   0  0  0  0  0  0  0  0  0  0  0  0
  191.1890  175.2520  138.7010 O   0  0  0  0  0  1  0  0  0  0  0  0
  188.7440  175.7260  137.9000 O   0  0  0  0  0  1  0  0  0  0  0  0
  186.9250  177.2510  144.3990 C   0  0  0  0  0  2  0  0  0  0  0  0
  187.4490  178.2290  145.4390 C   0  0  0  0  0  2  0  0  0  0  0  0
  187.1210  177.7420  146.8380 C   0  0  0  0  0  2  0  0  0  0  0  0
  188.3560  177.1550  147.4990 C   0  0  0  0  0  2  0  0  0  0  0  0
  189.1100  178.1790  148.0670 O   0  0  0  0  0  1  0  0  0  0  0  0
  1  2  1  0  0  0  0
  2  3  2  0  0  0  0
  5  2  1  0  0  0  0
  5  4  1  1  0  0  0
  6  7  1  1  0  0  0
  6  5  1  0  0  0  0
  8  9  1  1  0  0  0
  8  6  1  0  0  0  0
 10 11  1  0  0  0  0
 10  8  1  0  0  0  0
 12 11  1  0  0  0  0
 13 12  1  0  0  0  0
 14 15  2  0  0  0  0
 15 13  1  0  0  0  0
 16 15  1  0  0  0  0
 17 22  1  0  0  0  0
 17 16  1  0  0  0  0
 19 20  1  0  0  0  0
 20 22  1  0  0  0  0
 20 18  2  0  0  0  0
 21 17  2  0  0  0  0
 23  1  1  0  0  0  0
 24 29  2  0  0  0  0
 25 27  2  0  0  0  0
 26 31  1  6  0  0  0
 26 25  1  0  0  0  0
 27 38  1  0  0  0  0
 28 29  1  0  0  0  0
 28 26  1  0  0  0  0
 29 30  1  0  0  0  0
 30 23  1  6  0  0  0
 30 27  1  0  0  0  0
 31 32  2  0  0  0  0
 33 31  1  0  0  0  0
 34 35  2  0  0  0  0
 35 36  1  0  0  0  0
 35 33  1  0  0  0  0
 37 35  1  0  0  0  0
 38 39  1  0  0  0  0
 39 40  1  0  0  0  0
 40 41  1  0  0  0  0
 41 42  1  0  0  0  0
M  END
>  <MODEL>
9

>  <REMARK>
 VINA RESULT:      -6.4      3.410      8.014
  Name = 
  19 active torsions:
  status: ('A' for Active; 'I' for Inactive)
    1  A    between atoms: N_1  and  C_17
    2  A    between atoms: C_4  and  C_11
    3  A    between atoms: C_4  and  C_18
    4  A    between atoms: C_6  and  C_17
    5  A    between atoms: C_6  and  C_36
    6  A    between atoms: P_8  and  C_34
    7  A    between atoms: C_9  and  C_19
    8  A    between atoms: C_10  and  C_11
    9  A    between atoms: C_10  and  C_15
   10  A    between atoms: C_13  and  C_15
   11  A    between atoms: C_13  and  C_36
   12  A    between atoms: C_14  and  C_25
   13  A    between atoms: C_18  and  C_33
   14  A    between atoms: C_19  and  C_21
   15  A    between atoms: C_22  and  C_23
   16  A    between atoms: C_22  and  C_27
   17  A    between atoms: C_23  and  C_40
   18  A    between atoms: C_25  and  C_34
   19  A    between atoms: C_29  and  C_40
                            x       y       z     vdW  Elec       q    Type
                         _______ _______ _______ _____ _____    ______ ____

>  <TORSDO>
F 19

$$$$
