=
 OpenBabel11062415213D

 70 73  0  0  1  0  0  0  0  0999 V2000
  187.6280  175.1390  136.0770 C   0  0  1  0  0  3  0  0  0  0  0  0
  192.2550  175.1250  135.9390 C   0  0  2  0  0  0  0  0  0  0  0  0
  189.8490  174.4630  135.1640 C   0  0  0  0  0  3  0  0  0  0  0  0
  193.0990  175.6290  134.7720 C   0  0  0  0  0  1  0  0  0  0  0  0
  189.0760  174.7170  136.2170 C   0  0  0  0  0  0  0  0  0  0  0  0
  190.4820  176.1130  137.6570 C   0  0  1  0  0  3  0  0  0  0  0  0
  191.3010  174.0800  135.3170 C   0  0  0  0  0  2  0  0  0  0  0  0
  191.5620  176.3500  136.5700 C   0  0  0  0  0  2  0  0  0  0  0  0
  189.6970  174.8100  137.5740 C   0  0  0  0  0  2  0  0  0  0  0  0
  192.2430  176.2180  139.3190 O   0  0  0  0  0  1  0  0  0  0  0  0
  190.8770  176.4320  139.0940 C   0  0  1  0  0  3  0  0  0  0  0  0
  190.3930  177.8130  139.5900 C   0  0  0  0  0  0  0  0  0  0  0  0
  191.5550  178.5410  140.2480 C   0  0  0  0  0  1  0  0  0  0  0  0
  189.9310  178.6600  138.4080 C   0  0  0  0  0  1  0  0  0  0  0  0
  189.2660  177.7110  140.6300 C   0  0  0  0  0  2  0  0  0  0  0  0
  189.6380  176.8440  141.8240 C   0  0  0  0  0  2  0  0  0  0  0  0
  189.4270  177.5980  143.0450 N   0  0  0  0  0  2  0  0  0  0  0  0
  191.8200  178.1070  143.2170 O   0  0  0  0  0  0  0  0  0  0  0  0
  190.5200  178.2420  143.7010 C   0  0  0  0  0  0  0  0  0  0  0  0
  190.3100  178.9430  144.7260 O   0  0  0  0  0  1  0  0  0  0  0  0
  193.1370  174.4150  136.9820 C   0  0  0  0  0  2  0  0  0  0  0  0
  194.6430  174.6800  136.8560 C   0  0  0  0  0  2  0  0  0  0  0  0
  196.8330  174.2460  137.8970 C   0  0  0  0  0  1  0  0  0  0  0  0
  195.4130  173.7460  137.7700 C   0  0  0  0  0  2  0  0  0  0  0  0
  187.0530  175.6800  137.3910 C   0  0  0  0  0  2  0  0  0  0  0  0
  185.9220  174.8170  137.9510 C   0  0  1  0  0  3  0  0  0  0  0  0
  184.9670  175.6150  138.6010 O   0  0  0  0  0  1  0  0  0  0  0  0
  185.2780  174.0730  136.7960 C   0  0  0  0  0  2  0  0  0  0  0  0
  184.1870  173.3350  137.2660 O   0  0  0  0  0  0  0  0  0  0  0  0
  183.3700  173.0910  136.1500 C   0  0  2  0  0  3  0  0  0  0  0  0
  179.8250  173.6750  135.3810 C   0  0  0  0  0  2  0  0  0  0  0  0
  181.9860  173.7390  136.3170 C   0  0  2  0  0  3  0  0  0  0  0  0
  180.8330  172.7990  136.0470 C   0  0  0  0  0  2  0  0  0  0  0  0
  181.8880  174.8840  135.4940 O   0  0  0  0  0  0  0  0  0  0  0  0
  180.6830  174.7510  134.7650 C   0  0  0  0  0  2  0  0  0  0  0  0
  183.2730  171.5850  135.8350 C   0  0  2  0  0  3  0  0  0  0  0  0
  183.1860  170.8610  137.0100 F   0  0  0  0  0  0  0  0  0  0  0  0
  184.4270  171.1450  135.0700 N   0  0  0  0  0  1  0  0  0  0  0  0
  187.3160  176.0180  134.8640 C   0  0  0  0  0  2  0  0  0  0  0  0
  186.2290  177.0490  135.1470 C   0  0  0  0  0  2  0  0  0  0  0  0
  186.9300  178.3710  135.3740 C   0  0  0  0  0  2  0  0  0  0  0  0
  187.3850  178.5280  136.8380 C   0  0  0  0  0  2  0  0  0  0  0  0
  185.2100  178.8220  139.8220 N   0  0  0  0  0  0  0  0  0  0  0  0
  179.7560  179.8550  142.0230 C   0  0  0  0  0  1  0  0  0  0  0  0
  186.2570  178.8850  137.6840 N   0  0  0  0  0  0  0  0  0  0  0  0
  183.6410  178.3380  141.3910 C   0  0  0  0  0  0  0  0  0  0  0  0
  180.8020  178.8400  141.5960 C   0  0  1  0  0  3  0  0  0  0  0  0
  184.0050  179.4340  139.4480 N   0  0  0  0  0  0  0  0  0  0  0  0
  181.5740  179.2620  140.3120 C   0  0  1  0  0  3  0  0  0  0  0  0
  183.0690  179.0960  140.4630 C   0  0  0  0  0  0  0  0  0  0  0  0
  185.0700  178.1120  141.0820 C   0  0  0  0  0  3  0  0  0  0  0  0
  181.6040  178.2280  142.7790 C   0  0  1  0  0  3  0  0  0  0  0  0
  186.2570  178.4920  138.9170 C   0  0  0  0  0  3  0  0  0  0  0  0
  182.8470  177.4780  142.3050 C   0  0  0  0  0  2  0  0  0  0  0  0
  180.9610  178.9330  137.8370 C   0  0  0  0  0  0  0  0  0  0  0  0
  181.1570  178.4550  139.1690 N   0  0  0  0  0  2  0  0  0  0  0  0
  181.1790  180.1420  137.5520 O   0  0  0  0  0  0  0  0  0  0  0  0
  179.0300  177.7880  136.8430 C   0  0  0  0  0  1  0  0  0  0  0  0
  180.5390  177.9690  136.7800 C   0  0  0  0  0  3  0  0  0  0  0  0
  180.9280  178.4550  135.3920 C   0  0  0  0  0  1  0  0  0  0  0  0
  181.9280  179.2150  143.9140 C   0  0  0  0  0  2  0  0  0  0  0  0
  183.4320  179.4010  144.0860 C   0  0  0  0  0  2  0  0  0  0  0  0
  183.9620  178.4880  145.1860 C   0  0  0  0  0  2  0  0  0  0  0  0
  185.7360  180.2830  145.5600 C   0  0  0  0  0  1  0  0  0  0  0  0
  185.4210  178.7780  145.6050 C   0  0  2  0  0  0  0  0  0  0  0  0
  186.5620  176.7840  144.8270 O   0  0  0  0  0  1  0  0  0  0  0  0
  186.3680  178.0310  144.6780 C   0  0  0  0  0  0  0  0  0  0  0  0
  187.0070  178.7030  143.6340 O   0  0  0  0  0  0  0  0  0  0  0  0
  186.9740  178.4980  147.6580 C   0  0  0  0  0  1  0  0  0  0  0  0
  185.5660  178.3080  147.0640 C   0  0  0  0  0  2  0  0  0  0  0  0
  1 39  1  6  0  0  0
  1  5  1  0  0  0  0
  1 25  1  0  0  0  0
  2  4  1  6  0  0  0
  2  8  1  0  0  0  0
  2 21  1  0  0  0  0
  3  7  1  0  0  0  0
  3  5  2  0  0  0  0
  5  9  1  0  0  0  0
  6 11  1  1  0  0  0
  7  2  1  0  0  0  0
  8  6  1  0  0  0  0
  9  6  1  0  0  0  0
 11 10  1  6  0  0  0
 11 12  1  0  0  0  0
 12 13  1  0  0  0  0
 12 15  1  0  0  0  0
 14 12  1  0  0  0  0
 15 16  1  0  0  0  0
 16 17  1  0  0  0  0
 17 19  1  0  0  0  0
 18 19  2  0  0  0  0
 19 20  1  0  0  0  0
 22 21  1  0  0  0  0
 22 24  1  0  0  0  0
 24 23  1  0  0  0  0
 25 26  1  0  0  0  0
 26 27  1  6  0  0  0
 28 29  1  0  0  0  0
 28 26  1  0  0  0  0
 30 29  1  1  0  0  0
 31 33  1  0  0  0  0
 32 30  1  6  0  0  0
 33 32  1  0  0  0  0
 34 32  1  0  0  0  0
 35 31  1  0  0  0  0
 35 34  1  0  0  0  0
 36 38  1  1  0  0  0
 36 30  1  0  0  0  0
 36 37  1  0  0  0  0
 39 40  1  0  0  0  0
 40 41  1  0  0  0  0
 41 42  1  0  0  0  0
 42 45  1  0  0  0  0
 43 51  1  0  0  0  0
 45 53  2  0  0  0  0
 46 54  1  0  0  0  0
 47 44  1  1  0  0  0
 47 52  1  0  0  0  0
 48 43  1  0  0  0  0
 48 50  2  0  0  0  0
 49 56  1  6  0  0  0
 49 50  1  0  0  0  0
 49 47  1  0  0  0  0
 50 46  1  0  0  0  0
 51 46  2  0  0  0  0
 52 61  1  1  0  0  0
 53 43  1  0  0  0  0
 54 52  1  0  0  0  0
 55 56  1  0  0  0  0
 57 55  2  0  0  0  0
 59 58  1  0  0  0  0
 59 55  1  0  0  0  0
 60 59  1  0  0  0  0
 61 62  1  0  0  0  0
 62 63  1  0  0  0  0
 63 65  1  0  0  0  0
 65 64  1  6  0  0  0
 65 70  1  0  0  0  0
 67 66  1  0  0  0  0
 67 65  1  0  0  0  0
 68 67  2  0  0  0  0
 70 69  1  0  0  0  0
M  END
>  <MODEL>
1

>  <REMARK>
 VINA RESULT:      -3.1      0.000      0.000
  Name = 
  29 active torsions:
  status: ('A' for Active; 'I' for Inactive)
    1  A    between atoms: C_1  and  C_46
    2  A    between atoms: C_1  and  C_65
    3  A    between atoms: N_2  and  C_15
    4  A    between atoms: C_3  and  O_5
    5  A    between atoms: C_3  and  C_13
    6  A    between atoms: C_3  and  C_27
    7  A    between atoms: O_5  and  C_60
    8  A    between atoms: C_8  and  C_23
    9  A    between atoms: C_9  and  N_17
   10  A    between atoms: C_9  and  C_46
   11  A    between atoms: C_14  and  C_20
   12  A    between atoms: C_14  and  C_56
   13  A    between atoms: C_15  and  C_69
   14  A    between atoms: C_16  and  C_32
   15  A    between atoms: C_20  and  C_24
   16  A    between atoms: C_21  and  C_23
   17  A    between atoms: C_21  and  C_38
   18  A    between atoms: C_24  and  C_55
   19  A    between atoms: C_31  and  N_63
   20  A    between atoms: C_33  and  C_56
   21  A    between atoms: C_37  and  C_41
   22  A    between atoms: C_37  and  C_69
   23  A    between atoms: C_40  and  C_56
   24  A    between atoms: C_41  and  C_57
   25  A    between atoms: C_43  and  C_47
   26  A    between atoms: C_43  and  C_51
   27  A    between atoms: C_43  and  C_65
   28  A    between atoms: C_47  and  C_48
   29  A    between atoms: C_48  and  C_60
                            x       y       z     vdW  Elec       q    Type
                         _______ _______ _______ _____ _____    ______ ____

>  <TORSDO>
F 29

$$$$
=
 OpenBabel11062415213D

 70 73  0  0  1  0  0  0  0  0999 V2000
  190.2590  177.1110  138.9370 C   0  0  1  0  0  3  0  0  0  0  0  0
  190.2480  178.3690  143.3920 C   0  0  2  0  0  0  0  0  0  0  0  0
  191.1460  177.1390  141.2680 C   0  0  0  0  0  3  0  0  0  0  0  0
  191.3480  179.1740  144.0780 C   0  0  0  0  0  1  0  0  0  0  0  0
  190.1030  177.0890  140.4430 C   0  0  0  0  0  0  0  0  0  0  0  0
  188.5220  178.6980  141.3960 C   0  0  1  0  0  3  0  0  0  0  0  0
  190.9750  177.1560  142.7680 C   0  0  0  0  0  2  0  0  0  0  0  0
  189.5530  179.3060  142.3820 C   0  0  0  0  0  2  0  0  0  0  0  0
  188.7240  177.2420  141.0000 C   0  0  0  0  0  2  0  0  0  0  0  0
  186.3140  179.1220  140.4900 O   0  0  0  0  0  1  0  0  0  0  0  0
  187.0530  179.0000  141.6730 C   0  0  1  0  0  3  0  0  0  0  0  0
  186.3960  178.0490  142.6990 C   0  0  0  0  0  0  0  0  0  0  0  0
  185.0210  177.6410  142.1910 C   0  0  0  0  0  1  0  0  0  0  0  0
  187.2280  176.7790  142.8420 C   0  0  0  0  0  1  0  0  0  0  0  0
  186.2020  178.7030  144.0770 C   0  0  0  0  0  2  0  0  0  0  0  0
  184.7760  179.1780  144.3120 C   0  0  0  0  0  2  0  0  0  0  0  0
  184.5710  179.3910  145.7320 N   0  0  0  0  0  2  0  0  0  0  0  0
  185.6440  177.2520  146.2700 O   0  0  0  0  0  0  0  0  0  0  0  0
  185.0380  178.4370  146.6860 C   0  0  0  0  0  0  0  0  0  0  0  0
  184.9080  178.6670  147.9180 O   0  0  0  0  0  1  0  0  0  0  0  0
  189.2310  177.8470  144.4220 C   0  0  0  0  0  2  0  0  0  0  0  0
  189.7970  177.5790  145.8230 C   0  0  0  0  0  2  0  0  0  0  0  0
  188.3940  178.0530  147.7920 C   0  0  0  0  0  1  0  0  0  0  0  0
  188.7090  177.0290  146.7260 C   0  0  0  0  0  2  0  0  0  0  0  0
  191.3300  176.1270  138.4530 C   0  0  0  0  0  2  0  0  0  0  0  0
  192.6790  176.7940  138.1800 C   0  0  1  0  0  3  0  0  0  0  0  0
  193.5240  176.6760  139.2950 O   0  0  0  0  0  1  0  0  0  0  0  0
  193.3070  176.1160  136.9770 C   0  0  0  0  0  2  0  0  0  0  0  0
  194.6220  175.7480  137.2820 O   0  0  0  0  0  0  0  0  0  0  0  0
  194.8270  174.4960  136.6790 C   0  0  2  0  0  3  0  0  0  0  0  0
  196.7200  171.4630  137.5250 C   0  0  0  0  0  2  0  0  0  0  0  0
  195.7150  173.5940  137.5500 C   0  0  2  0  0  3  0  0  0  0  0  0
  196.6860  172.7440  136.7610 C   0  0  0  0  0  2  0  0  0  0  0  0
  194.9100  172.7790  138.3770 O   0  0  0  0  0  0  0  0  0  0  0  0
  195.3740  171.4530  138.2070 C   0  0  0  0  0  2  0  0  0  0  0  0
  195.3730  174.6400  135.2450 C   0  0  2  0  0  3  0  0  0  0  0  0
  196.7550  174.5850  135.2560 F   0  0  0  0  0  0  0  0  0  0  0  0
  194.9350  175.8920  134.6510 N   0  0  0  0  0  1  0  0  0  0  0  0
  188.9550  177.0360  138.1420 C   0  0  0  0  0  2  0  0  0  0  0  0
  188.5320  175.6030  137.8360 C   0  0  0  0  0  2  0  0  0  0  0  0
  189.2690  175.1900  136.5790 C   0  0  0  0  0  2  0  0  0  0  0  0
  188.4700  174.1540  135.7670 C   0  0  0  0  0  2  0  0  0  0  0  0
  185.1810  175.7730  136.3020 N   0  0  0  0  0  0  0  0  0  0  0  0
  179.4850  176.3380  134.6020 C   0  0  0  0  0  1  0  0  0  0  0  0
  187.1210  174.6370  135.5160 N   0  0  0  0  0  0  0  0  0  0  0  0
  183.0130  176.0830  136.9010 C   0  0  0  0  0  0  0  0  0  0  0  0
  180.4920  175.6960  135.5410 C   0  0  1  0  0  3  0  0  0  0  0  0
  184.3750  175.5470  135.1780 N   0  0  0  0  0  0  0  0  0  0  0  0
  181.8230  175.3060  134.8350 C   0  0  1  0  0  3  0  0  0  0  0  0
  183.0370  175.7540  135.6150 C   0  0  0  0  0  0  0  0  0  0  0  0
  184.3830  176.1510  137.4560 C   0  0  0  0  0  3  0  0  0  0  0  0
  180.5620  176.3660  136.9410 C   0  0  1  0  0  3  0  0  0  0  0  0
  186.4910  175.2430  136.4700 C   0  0  0  0  0  3  0  0  0  0  0  0
  181.7920  175.9230  137.7310 C   0  0  0  0  0  2  0  0  0  0  0  0
  182.2700  172.9230  135.6930 C   0  0  0  0  0  0  0  0  0  0  0  0
  181.9170  173.8580  134.6710 N   0  0  0  0  0  2  0  0  0  0  0  0
  182.5050  173.3180  136.8680 O   0  0  0  0  0  0  0  0  0  0  0  0
  182.9820  170.7140  136.4950 C   0  0  0  0  0  1  0  0  0  0  0  0
  182.3130  171.4710  135.3580 C   0  0  0  0  0  3  0  0  0  0  0  0
  180.9180  170.9080  135.1330 C   0  0  0  0  0  1  0  0  0  0  0  0
  180.4110  177.8980  136.9290 C   0  0  0  0  0  2  0  0  0  0  0  0
  181.5470  178.5830  137.6810 C   0  0  0  0  0  2  0  0  0  0  0  0
  181.0270  179.7960  138.4450 C   0  0  0  0  0  2  0  0  0  0  0  0
  179.8800  180.7230  140.5270 C   0  0  0  0  0  1  0  0  0  0  0  0
  180.3490  179.4560  139.7910 C   0  0  2  0  0  0  0  0  0  0  0  0
  180.9100  177.8060  141.4780 O   0  0  0  0  0  1  0  0  0  0  0  0
  181.3280  178.6900  140.6680 C   0  0  0  0  0  0  0  0  0  0  0  0
  182.7000  178.9300  140.5650 O   0  0  0  0  0  0  0  0  0  0  0  0
  178.9610  177.3310  140.3000 C   0  0  0  0  0  1  0  0  0  0  0  0
  179.1040  178.6130  139.4600 C   0  0  0  0  0  2  0  0  0  0  0  0
  1 39  1  6  0  0  0
  1  5  1  0  0  0  0
  2  4  1  1  0  0  0
  2 21  1  0  0  0  0
  3  7  1  0  0  0  0
  5  9  1  0  0  0  0
  5  3  2  0  0  0  0
  6 11  1  1  0  0  0
  6  8  1  0  0  0  0
  7  2  1  0  0  0  0
  8  2  1  0  0  0  0
  9  6  1  0  0  0  0
 11 10  1  6  0  0  0
 11 12  1  0  0  0  0
 12 14  1  0  0  0  0
 12 15  1  0  0  0  0
 13 12  1  0  0  0  0
 15 16  1  0  0  0  0
 16 17  1  0  0  0  0
 17 19  1  0  0  0  0
 18 19  2  0  0  0  0
 19 20  1  0  0  0  0
 21 22  1  0  0  0  0
 22 24  1  0  0  0  0
 24 23  1  0  0  0  0
 25  1  1  0  0  0  0
 26 25  1  0  0  0  0
 26 27  1  1  0  0  0
 28 29  1  0  0  0  0
 28 26  1  0  0  0  0
 30 29  1  1  0  0  0
 31 35  1  0  0  0  0
 32 30  1  6  0  0  0
 32 34  1  0  0  0  0
 33 31  1  0  0  0  0
 33 32  1  0  0  0  0
 35 34  1  0  0  0  0
 36 38  1  1  0  0  0
 36 37  1  0  0  0  0
 36 30  1  0  0  0  0
 40 39  1  0  0  0  0
 41 40  1  0  0  0  0
 42 41  1  0  0  0  0
 43 53  1  0  0  0  0
 43 51  1  0  0  0  0
 45 42  1  0  0  0  0
 45 53  2  0  0  0  0
 46 51  2  0  0  0  0
 46 54  1  0  0  0  0
 47 44  1  6  0  0  0
 47 52  1  0  0  0  0
 48 50  2  0  0  0  0
 48 43  1  0  0  0  0
 49 56  1  1  0  0  0
 49 47  1  0  0  0  0
 49 50  1  0  0  0  0
 50 46  1  0  0  0  0
 52 61  1  6  0  0  0
 52 54  1  0  0  0  0
 55 57  2  0  0  0  0
 56 55  1  0  0  0  0
 59 55  1  0  0  0  0
 59 58  1  0  0  0  0
 60 59  1  0  0  0  0
 61 62  1  0  0  0  0
 62 63  1  0  0  0  0
 63 65  1  0  0  0  0
 65 64  1  1  0  0  0
 65 67  1  0  0  0  0
 67 66  1  0  0  0  0
 68 67  2  0  0  0  0
 70 65  1  0  0  0  0
 70 69  1  0  0  0  0
M  END
>  <MODEL>
2

>  <REMARK>
 VINA RESULT:      -3.1      3.024      8.288
  Name = 
  29 active torsions:
  status: ('A' for Active; 'I' for Inactive)
    1  A    between atoms: C_1  and  C_46
    2  A    between atoms: C_1  and  C_65
    3  A    between atoms: N_2  and  C_15
    4  A    between atoms: C_3  and  O_5
    5  A    between atoms: C_3  and  C_13
    6  A    between atoms: C_3  and  C_27
    7  A    between atoms: O_5  and  C_60
    8  A    between atoms: C_8  and  C_23
    9  A    between atoms: C_9  and  N_17
   10  A    between atoms: C_9  and  C_46
   11  A    between atoms: C_14  and  C_20
   12  A    between atoms: C_14  and  C_56
   13  A    between atoms: C_15  and  C_69
   14  A    between atoms: C_16  and  C_32
   15  A    between atoms: C_20  and  C_24
   16  A    between atoms: C_21  and  C_23
   17  A    between atoms: C_21  and  C_38
   18  A    between atoms: C_24  and  C_55
   19  A    between atoms: C_31  and  N_63
   20  A    between atoms: C_33  and  C_56
   21  A    between atoms: C_37  and  C_41
   22  A    between atoms: C_37  and  C_69
   23  A    between atoms: C_40  and  C_56
   24  A    between atoms: C_41  and  C_57
   25  A    between atoms: C_43  and  C_47
   26  A    between atoms: C_43  and  C_51
   27  A    between atoms: C_43  and  C_65
   28  A    between atoms: C_47  and  C_48
   29  A    between atoms: C_48  and  C_60
                            x       y       z     vdW  Elec       q    Type
                         _______ _______ _______ _____ _____    ______ ____

>  <TORSDO>
F 29

$$$$
=
 OpenBabel11062415213D

 70 73  0  0  1  0  0  0  0  0999 V2000
  190.2550  177.1120  138.9380 C   0  0  1  0  0  3  0  0  0  0  0  0
  190.6360  178.3430  143.3850 C   0  0  2  0  0  0  0  0  0  0  0  0
  191.3250  177.0990  141.1920 C   0  0  0  0  0  3  0  0  0  0  0  0
  191.8120  179.1090  143.9850 C   0  0  0  0  0  1  0  0  0  0  0  0
  190.2190  177.0860  140.4520 C   0  0  0  0  0  0  0  0  0  0  0  0
  188.7680  178.7370  141.5340 C   0  0  1  0  0  3  0  0  0  0  0  0
  191.2740  177.1110  142.7000 C   0  0  0  0  0  2  0  0  0  0  0  0
  189.8930  179.3060  142.4380 C   0  0  0  0  0  2  0  0  0  0  0  0
  188.8930  177.2770  141.1170 C   0  0  0  0  0  2  0  0  0  0  0  0
  186.5940  179.5510  140.8380 O   0  0  0  0  0  1  0  0  0  0  0  0
  187.3360  179.0810  141.9280 C   0  0  1  0  0  3  0  0  0  0  0  0
  186.6120  177.9650  142.7140 C   0  0  0  0  0  0  0  0  0  0  0  0
  187.3280  176.6440  142.4760 C   0  0  0  0  0  1  0  0  0  0  0  0
  186.6710  178.2560  144.2100 C   0  0  0  0  0  1  0  0  0  0  0  0
  185.1500  177.7810  142.2760 C   0  0  0  0  0  2  0  0  0  0  0  0
  184.2000  177.5870  143.4490 C   0  0  0  0  0  2  0  0  0  0  0  0
  182.9390  178.2400  143.1540 N   0  0  0  0  0  2  0  0  0  0  0  0
  183.2070  179.7560  145.0640 O   0  0  0  0  0  1  0  0  0  0  0  0
  182.4810  179.3340  143.9510 C   0  0  0  0  0  0  0  0  0  0  0  0
  181.4150  179.9300  143.6440 O   0  0  0  0  0  0  0  0  0  0  0  0
  189.6890  177.8450  144.4910 C   0  0  0  0  0  2  0  0  0  0  0  0
  189.9170  178.4640  145.8760 C   0  0  0  0  0  2  0  0  0  0  0  0
  189.3490  178.2960  148.2680 C   0  0  0  0  0  1  0  0  0  0  0  0
  188.9370  177.8780  146.8750 C   0  0  0  0  0  2  0  0  0  0  0  0
  191.1900  176.0420  138.3640 C   0  0  0  0  0  2  0  0  0  0  0  0
  192.4450  176.6270  137.7150 C   0  0  1  0  0  3  0  0  0  0  0  0
  193.3030  177.1610  138.6890 O   0  0  0  0  0  1  0  0  0  0  0  0
  193.1470  175.5160  136.9570 C   0  0  0  0  0  2  0  0  0  0  0  0
  193.8030  174.6750  137.8610 O   0  0  0  0  0  0  0  0  0  0  0  0
  194.0310  173.4690  137.1790 C   0  0  2  0  0  3  0  0  0  0  0  0
  197.6250  173.1920  137.8890 C   0  0  0  0  0  2  0  0  0  0  0  0
  195.5190  173.2910  136.8380 C   0  0  2  0  0  3  0  0  0  0  0  0
  196.2960  172.5130  137.8750 C   0  0  0  0  0  2  0  0  0  0  0  0
  196.1170  174.5520  136.6200 O   0  0  0  0  0  0  0  0  0  0  0  0
  197.2860  174.5840  137.4180 C   0  0  0  0  0  2  0  0  0  0  0  0
  193.1300  173.3420  135.9340 C   0  0  2  0  0  3  0  0  0  0  0  0
  192.9880  172.0110  135.5860 F   0  0  0  0  0  0  0  0  0  0  0  0
  193.6870  174.0860  134.8180 N   0  0  0  0  0  1  0  0  0  0  0  0
  188.8900  177.1650  138.2510 C   0  0  0  0  0  2  0  0  0  0  0  0
  188.0970  175.8740  138.4140 C   0  0  0  0  0  2  0  0  0  0  0  0
  188.6400  174.8960  137.3940 C   0  0  0  0  0  2  0  0  0  0  0  0
  187.6490  173.7490  137.1220 C   0  0  0  0  0  2  0  0  0  0  0  0
  184.7520  176.0160  136.6790 N   0  0  0  0  0  0  0  0  0  0  0  0
  179.0810  176.6950  134.9370 C   0  0  0  0  0  1  0  0  0  0  0  0
  186.3800  174.2780  136.6450 N   0  0  0  0  0  0  0  0  0  0  0  0
  182.7420  177.0200  137.0070 C   0  0  0  0  0  0  0  0  0  0  0  0
  180.0610  176.4720  136.0760 C   0  0  1  0  0  3  0  0  0  0  0  0
  183.8030  175.3870  135.8600 N   0  0  0  0  0  0  0  0  0  0  0  0
  181.2250  175.5100  135.7000 C   0  0  1  0  0  3  0  0  0  0  0  0
  182.5730  176.0560  136.1100 C   0  0  0  0  0  0  0  0  0  0  0  0
  184.1550  177.1020  137.4370 C   0  0  0  0  0  3  0  0  0  0  0  0
  180.3910  177.7590  136.8820 C   0  0  1  0  0  3  0  0  0  0  0  0
  185.9650  175.4120  137.1120 C   0  0  0  0  0  3  0  0  0  0  0  0
  181.6070  177.5760  137.7870 C   0  0  0  0  0  2  0  0  0  0  0  0
  180.3380  173.1000  135.8290 C   0  0  0  0  0  0  0  0  0  0  0  0
  181.0590  174.2160  136.3550 N   0  0  0  0  0  2  0  0  0  0  0  0
  179.8000  173.1650  134.6900 O   0  0  0  0  0  0  0  0  0  0  0  0
  180.3160  170.6480  135.6870 C   0  0  0  0  0  1  0  0  0  0  0  0
  180.2720  171.8420  136.6280 C   0  0  0  0  0  3  0  0  0  0  0  0
  181.4250  171.7460  137.6150 C   0  0  0  0  0  1  0  0  0  0  0  0
  180.4960  179.0390  136.0340 C   0  0  0  0  0  2  0  0  0  0  0  0
  179.9000  180.2440  136.7540 C   0  0  0  0  0  2  0  0  0  0  0  0
  180.9360  181.3550  136.8850 C   0  0  0  0  0  2  0  0  0  0  0  0
  178.9350  182.6240  137.8290 C   0  0  0  0  0  1  0  0  0  0  0  0
  180.3410  182.7420  137.2190 C   0  0  2  0  0  0  0  0  0  0  0  0
  181.1450  183.4240  135.0330 O   0  0  0  0  0  0  0  0  0  0  0  0
  180.2790  183.5790  135.9500 C   0  0  0  0  0  0  0  0  0  0  0  0
  179.2480  184.5040  135.7680 O   0  0  0  0  0  1  0  0  0  0  0  0
  182.0140  184.6330  137.7910 C   0  0  0  0  0  1  0  0  0  0  0  0
  181.2630  183.3790  138.2740 C   0  0  0  0  0  2  0  0  0  0  0  0
  1 39  1  6  0  0  0
  1  5  1  0  0  0  0
  2  4  1  1  0  0  0
  2 21  1  0  0  0  0
  3  7  1  0  0  0  0
  5  9  1  0  0  0  0
  5  3  2  0  0  0  0
  6 11  1  1  0  0  0
  6  8  1  0  0  0  0
  7  2  1  0  0  0  0
  8  2  1  0  0  0  0
  9  6  1  0  0  0  0
 11 10  1  6  0  0  0
 11 12  1  0  0  0  0
 12 14  1  0  0  0  0
 13 12  1  0  0  0  0
 15 12  1  0  0  0  0
 15 16  1  0  0  0  0
 17 16  1  0  0  0  0
 17 19  1  0  0  0  0
 19 18  1  0  0  0  0
 20 19  2  0  0  0  0
 21 22  1  0  0  0  0
 22 24  1  0  0  0  0
 24 23  1  0  0  0  0
 25  1  1  0  0  0  0
 26 25  1  0  0  0  0
 26 27  1  1  0  0  0
 28 26  1  0  0  0  0
 28 29  1  0  0  0  0
 30 29  1  6  0  0  0
 32 30  1  1  0  0  0
 32 33  1  0  0  0  0
 33 31  1  0  0  0  0
 34 32  1  0  0  0  0
 34 35  1  0  0  0  0
 35 31  1  0  0  0  0
 36 38  1  6  0  0  0
 36 30  1  0  0  0  0
 37 36  1  0  0  0  0
 39 40  1  0  0  0  0
 41 40  1  0  0  0  0
 42 41  1  0  0  0  0
 43 53  1  0  0  0  0
 43 51  1  0  0  0  0
 45 53  2  0  0  0  0
 45 42  1  0  0  0  0
 46 51  2  0  0  0  0
 46 54  1  0  0  0  0
 47 44  1  6  0  0  0
 47 52  1  0  0  0  0
 48 50  2  0  0  0  0
 48 43  1  0  0  0  0
 49 47  1  0  0  0  0
 49 50  1  0  0  0  0
 49 56  1  1  0  0  0
 50 46  1  0  0  0  0
 52 61  1  6  0  0  0
 52 54  1  0  0  0  0
 55 56  1  0  0  0  0
 55 59  1  0  0  0  0
 57 55  2  0  0  0  0
 58 59  1  0  0  0  0
 59 60  1  0  0  0  0
 61 62  1  0  0  0  0
 62 63  1  0  0  0  0
 63 65  1  0  0  0  0
 65 64  1  1  0  0  0
 65 70  1  0  0  0  0
 66 67  2  0  0  0  0
 67 65  1  0  0  0  0
 68 67  1  0  0  0  0
 69 70  1  0  0  0  0
M  END
>  <MODEL>
3

>  <REMARK>
 VINA RESULT:      -2.9      3.078      8.642
  Name = 
  29 active torsions:
  status: ('A' for Active; 'I' for Inactive)
    1  A    between atoms: C_1  and  C_46
    2  A    between atoms: C_1  and  C_65
    3  A    between atoms: N_2  and  C_15
    4  A    between atoms: C_3  and  O_5
    5  A    between atoms: C_3  and  C_13
    6  A    between atoms: C_3  and  C_27
    7  A    between atoms: O_5  and  C_60
    8  A    between atoms: C_8  and  C_23
    9  A    between atoms: C_9  and  N_17
   10  A    between atoms: C_9  and  C_46
   11  A    between atoms: C_14  and  C_20
   12  A    between atoms: C_14  and  C_56
   13  A    between atoms: C_15  and  C_69
   14  A    between atoms: C_16  and  C_32
   15  A    between atoms: C_20  and  C_24
   16  A    between atoms: C_21  and  C_23
   17  A    between atoms: C_21  and  C_38
   18  A    between atoms: C_24  and  C_55
   19  A    between atoms: C_31  and  N_63
   20  A    between atoms: C_33  and  C_56
   21  A    between atoms: C_37  and  C_41
   22  A    between atoms: C_37  and  C_69
   23  A    between atoms: C_40  and  C_56
   24  A    between atoms: C_41  and  C_57
   25  A    between atoms: C_43  and  C_47
   26  A    between atoms: C_43  and  C_51
   27  A    between atoms: C_43  and  C_65
   28  A    between atoms: C_47  and  C_48
   29  A    between atoms: C_48  and  C_60
                            x       y       z     vdW  Elec       q    Type
                         _______ _______ _______ _____ _____    ______ ____

>  <TORSDO>
F 29

$$$$
=
 OpenBabel11062415213D

 70 73  0  0  1  0  0  0  0  0999 V2000
  190.2020  177.6410  139.4900 C   0  0  1  0  0  3  0  0  0  0  0  0
  190.9120  177.5310  144.0640 C   0  0  2  0  0  0  0  0  0  0  0  0
  191.3770  176.9140  141.5670 C   0  0  0  0  0  3  0  0  0  0  0  0
  192.1790  178.0110  144.7650 C   0  0  0  0  0  1  0  0  0  0  0  0
  190.2390  177.1900  140.9350 C   0  0  0  0  0  0  0  0  0  0  0  0
  188.9960  178.5650  142.5360 C   0  0  1  0  0  3  0  0  0  0  0  0
  191.4020  176.5020  143.0190 C   0  0  0  0  0  2  0  0  0  0  0  0
  190.2100  178.7740  143.4780 C   0  0  0  0  0  2  0  0  0  0  0  0
  188.9700  177.2780  141.7220 C   0  0  0  0  0  2  0  0  0  0  0  0
  186.8610  179.6750  142.2430 O   0  0  0  0  0  1  0  0  0  0  0  0
  187.6210  178.8850  143.1130 C   0  0  1  0  0  3  0  0  0  0  0  0
  186.8530  177.6490  143.6330 C   0  0  0  0  0  0  0  0  0  0  0  0
  187.6880  176.4020  143.3860 C   0  0  0  0  0  1  0  0  0  0  0  0
  186.6340  177.7640  145.1380 C   0  0  0  0  0  1  0  0  0  0  0  0
  185.5040  177.4460  142.9240 C   0  0  0  0  0  2  0  0  0  0  0  0
  184.7000  178.7320  142.8000 C   0  0  0  0  0  2  0  0  0  0  0  0
  183.7090  178.7810  143.8570 N   0  0  0  0  0  2  0  0  0  0  0  0
  181.9040  179.1320  142.2340 O   0  0  0  0  0  0  0  0  0  0  0  0
  182.3240  178.9490  143.5510 C   0  0  0  0  0  0  0  0  0  0  0  0
  181.4700  178.9270  144.4760 O   0  0  0  0  0  1  0  0  0  0  0  0
  189.9800  176.8090  145.0530 C   0  0  0  0  0  2  0  0  0  0  0  0
  189.5990  177.6160  146.3010 C   0  0  0  0  0  2  0  0  0  0  0  0
  188.2730  177.6270  148.3780 C   0  0  0  0  0  1  0  0  0  0  0  0
  188.7490  176.7690  147.2290 C   0  0  0  0  0  2  0  0  0  0  0  0
  191.0770  176.7630  138.5880 C   0  0  0  0  0  2  0  0  0  0  0  0
  192.3740  177.4490  138.1580 C   0  0  1  0  0  3  0  0  0  0  0  0
  193.2310  177.6190  139.2570 O   0  0  0  0  0  1  0  0  0  0  0  0
  193.0420  176.5830  137.1070 C   0  0  0  0  0  2  0  0  0  0  0  0
  193.4150  175.3610  137.6770 O   0  0  0  0  0  0  0  0  0  0  0  0
  193.9700  174.5980  136.6370 C   0  0  2  0  0  3  0  0  0  0  0  0
  193.9770  171.0140  135.8280 C   0  0  0  0  0  2  0  0  0  0  0  0
  193.4450  173.1540  136.6580 C   0  0  2  0  0  3  0  0  0  0  0  0
  194.5350  172.1060  136.6780 C   0  0  0  0  0  2  0  0  0  0  0  0
  192.5790  172.9400  135.5630 O   0  0  0  0  0  0  0  0  0  0  0  0
  193.0240  171.7570  134.9260 C   0  0  0  0  0  2  0  0  0  0  0  0
  195.5110  174.6580  136.6500 C   0  0  2  0  0  3  0  0  0  0  0  0
  195.9400  175.6050  137.5610 F   0  0  0  0  0  0  0  0  0  0  0  0
  196.0250  174.9780  135.3290 N   0  0  0  0  0  1  0  0  0  0  0  0
  188.8070  177.9050  138.9210 C   0  0  0  0  0  2  0  0  0  0  0  0
  188.2050  176.6780  138.2440 C   0  0  0  0  0  2  0  0  0  0  0  0
  188.7640  176.6390  136.8370 C   0  0  0  0  0  2  0  0  0  0  0  0
  187.7620  176.0190  135.8450 C   0  0  0  0  0  2  0  0  0  0  0  0
  184.8360  177.5150  137.5560 N   0  0  0  0  0  0  0  0  0  0  0  0
  178.9470  178.4990  137.5780 C   0  0  0  0  0  1  0  0  0  0  0  0
  186.4300  176.5600  136.0660 N   0  0  0  0  0  0  0  0  0  0  0  0
  182.9190  177.7080  138.7580 C   0  0  0  0  0  0  0  0  0  0  0  0
  180.1140  177.6560  138.0620 C   0  0  1  0  0  3  0  0  0  0  0  0
  183.7560  177.5500  136.6640 N   0  0  0  0  0  0  0  0  0  0  0  0
  181.1910  177.4160  136.9640 C   0  0  1  0  0  3  0  0  0  0  0  0
  182.5910  177.6700  137.4710 C   0  0  0  0  0  0  0  0  0  0  0  0
  184.3870  177.6380  138.9330 C   0  0  0  0  0  3  0  0  0  0  0  0
  180.5850  178.0010  139.5020 C   0  0  1  0  0  3  0  0  0  0  0  0
  186.1060  176.9480  137.2580 C   0  0  0  0  0  3  0  0  0  0  0  0
  181.9430  177.3830  139.8280 C   0  0  0  0  0  2  0  0  0  0  0  0
  180.4730  174.9530  137.1250 C   0  0  0  0  0  0  0  0  0  0  0  0
  181.1420  176.0390  136.4820 N   0  0  0  0  0  2  0  0  0  0  0  0
  179.8240  175.1410  138.1900 O   0  0  0  0  0  0  0  0  0  0  0  0
  179.1310  173.2510  135.9680 C   0  0  0  0  0  1  0  0  0  0  0  0
  180.5150  173.6030  136.4910 C   0  0  0  0  0  3  0  0  0  0  0  0
  181.5120  173.5560  135.3430 C   0  0  0  0  0  1  0  0  0  0  0  0
  180.5390  179.4990  139.8510 C   0  0  0  0  0  2  0  0  0  0  0  0
  180.2490  180.3550  138.6230 C   0  0  0  0  0  2  0  0  0  0  0  0
  181.4550  181.2240  138.2790 C   0  0  0  0  0  2  0  0  0  0  0  0
  179.9580  183.2680  138.5770 C   0  0  0  0  0  1  0  0  0  0  0  0
  181.0940  182.6340  137.7580 C   0  0  2  0  0  0  0  0  0  0  0  0
  181.0870  181.5760  135.5740 O   0  0  0  0  0  0  0  0  0  0  0  0
  180.6780  182.5370  136.2970 C   0  0  0  0  0  0  0  0  0  0  0  0
  179.8150  183.4870  135.7470 O   0  0  0  0  0  1  0  0  0  0  0  0
  182.1230  185.0080  137.6770 C   0  0  0  0  0  1  0  0  0  0  0  0
  182.3490  183.5070  137.9340 C   0  0  0  0  0  2  0  0  0  0  0  0
  1 25  1  6  0  0  0
  1  5  1  0  0  0  0
  2  4  1  1  0  0  0
  2 21  1  0  0  0  0
  3  7  1  0  0  0  0
  5  3  2  0  0  0  0
  5  9  1  0  0  0  0
  6 11  1  1  0  0  0
  6  8  1  0  0  0  0
  7  2  1  0  0  0  0
  8  2  1  0  0  0  0
  9  6  1  0  0  0  0
 11 10  1  6  0  0  0
 11 12  1  0  0  0  0
 12 14  1  0  0  0  0
 13 12  1  0  0  0  0
 15 12  1  0  0  0  0
 16 15  1  0  0  0  0
 16 17  1  0  0  0  0
 18 19  2  0  0  0  0
 19 17  1  0  0  0  0
 19 20  1  0  0  0  0
 21 22  1  0  0  0  0
 22 24  1  0  0  0  0
 24 23  1  0  0  0  0
 26 25  1  0  0  0  0
 26 27  1  1  0  0  0
 28 29  1  0  0  0  0
 28 26  1  0  0  0  0
 30 36  1  0  0  0  0
 30 29  1  1  0  0  0
 31 33  1  0  0  0  0
 32 30  1  6  0  0  0
 32 33  1  0  0  0  0
 34 32  1  0  0  0  0
 35 34  1  0  0  0  0
 35 31  1  0  0  0  0
 36 38  1  6  0  0  0
 36 37  1  0  0  0  0
 39  1  1  0  0  0  0
 40 39  1  0  0  0  0
 41 40  1  0  0  0  0
 42 45  1  0  0  0  0
 42 41  1  0  0  0  0
 43 51  1  0  0  0  0
 45 53  2  0  0  0  0
 46 51  2  0  0  0  0
 46 54  1  0  0  0  0
 47 44  1  6  0  0  0
 47 52  1  0  0  0  0
 48 50  2  0  0  0  0
 48 43  1  0  0  0  0
 49 56  1  1  0  0  0
 49 50  1  0  0  0  0
 49 47  1  0  0  0  0
 50 46  1  0  0  0  0
 52 54  1  0  0  0  0
 52 61  1  6  0  0  0
 53 43  1  0  0  0  0
 55 57  2  0  0  0  0
 56 55  1  0  0  0  0
 58 59  1  0  0  0  0
 59 55  1  0  0  0  0
 60 59  1  0  0  0  0
 62 61  1  0  0  0  0
 63 62  1  0  0  0  0
 65 70  1  0  0  0  0
 65 63  1  0  0  0  0
 65 64  1  1  0  0  0
 66 67  2  0  0  0  0
 67 65  1  0  0  0  0
 68 67  1  0  0  0  0
 69 70  1  0  0  0  0
M  END
>  <MODEL>
4

>  <REMARK>
 VINA RESULT:      -2.9      3.237      8.047
  Name = 
  29 active torsions:
  status: ('A' for Active; 'I' for Inactive)
    1  A    between atoms: C_1  and  C_46
    2  A    between atoms: C_1  and  C_65
    3  A    between atoms: N_2  and  C_15
    4  A    between atoms: C_3  and  O_5
    5  A    between atoms: C_3  and  C_13
    6  A    between atoms: C_3  and  C_27
    7  A    between atoms: O_5  and  C_60
    8  A    between atoms: C_8  and  C_23
    9  A    between atoms: C_9  and  N_17
   10  A    between atoms: C_9  and  C_46
   11  A    between atoms: C_14  and  C_20
   12  A    between atoms: C_14  and  C_56
   13  A    between atoms: C_15  and  C_69
   14  A    between atoms: C_16  and  C_32
   15  A    between atoms: C_20  and  C_24
   16  A    between atoms: C_21  and  C_23
   17  A    between atoms: C_21  and  C_38
   18  A    between atoms: C_24  and  C_55
   19  A    between atoms: C_31  and  N_63
   20  A    between atoms: C_33  and  C_56
   21  A    between atoms: C_37  and  C_41
   22  A    between atoms: C_37  and  C_69
   23  A    between atoms: C_40  and  C_56
   24  A    between atoms: C_41  and  C_57
   25  A    between atoms: C_43  and  C_47
   26  A    between atoms: C_43  and  C_51
   27  A    between atoms: C_43  and  C_65
   28  A    between atoms: C_47  and  C_48
   29  A    between atoms: C_48  and  C_60
                            x       y       z     vdW  Elec       q    Type
                         _______ _______ _______ _____ _____    ______ ____

>  <TORSDO>
F 29

$$$$
=
 OpenBabel11062415213D

 70 73  0  0  1  0  0  0  0  0999 V2000
  185.6700  177.3150  137.3430 C   0  0  1  0  0  3  0  0  0  0  0  0
  182.7610  173.8830  136.2530 C   0  0  2  0  0  0  0  0  0  0  0  0
  184.9600  175.2850  136.0790 C   0  0  0  0  0  3  0  0  0  0  0  0
  183.0580  172.3960  136.4190 C   0  0  0  0  0  1  0  0  0  0  0  0
  184.6500  176.4620  136.6180 C   0  0  0  0  0  0  0  0  0  0  0  0
  182.5500  176.0330  137.8030 C   0  0  1  0  0  3  0  0  0  0  0  0
  183.9250  174.4270  135.3930 C   0  0  0  0  0  2  0  0  0  0  0  0
  182.6510  174.4920  137.6660 C   0  0  0  0  0  2  0  0  0  0  0  0
  183.2140  176.8660  136.7140 C   0  0  0  0  0  2  0  0  0  0  0  0
  180.3180  176.6420  137.0790 O   0  0  0  0  0  1  0  0  0  0  0  0
  181.1840  176.5970  138.1790 C   0  0  1  0  0  3  0  0  0  0  0  0
  180.5480  175.9350  139.4210 C   0  0  0  0  0  0  0  0  0  0  0  0
  179.5360  174.8940  138.9670 C   0  0  0  0  0  1  0  0  0  0  0  0
  181.6180  175.2120  140.2330 C   0  0  0  0  0  1  0  0  0  0  0  0
  179.8050  176.9390  140.3160 C   0  0  0  0  0  2  0  0  0  0  0  0
  180.5070  178.2860  140.4060 C   0  0  0  0  0  2  0  0  0  0  0  0
  181.0230  178.4680  141.7490 N   0  0  0  0  0  2  0  0  0  0  0  0
  179.5200  180.3670  142.1360 O   0  0  0  0  0  0  0  0  0  0  0  0
  180.4970  179.4870  142.6000 C   0  0  0  0  0  0  0  0  0  0  0  0
  180.9120  179.5910  143.7840 O   0  0  0  0  0  1  0  0  0  0  0  0
  181.4470  174.0930  135.4790 C   0  0  0  0  0  2  0  0  0  0  0  0
  180.4130  172.9690  135.6270 C   0  0  0  0  0  2  0  0  0  0  0  0
  180.0260  171.6410  137.6660 C   0  0  0  0  0  1  0  0  0  0  0  0
  179.8170  172.9920  137.0210 C   0  0  0  0  0  2  0  0  0  0  0  0
  187.0810  176.7220  137.2620 C   0  0  0  0  0  2  0  0  0  0  0  0
  187.8720  177.2170  136.0510 C   0  0  1  0  0  3  0  0  0  0  0  0
  189.0670  177.8300  136.4570 O   0  0  0  0  0  1  0  0  0  0  0  0
  188.1750  176.0240  135.1640 C   0  0  0  0  0  2  0  0  0  0  0  0
  189.4950  175.6100  135.3740 O   0  0  0  0  0  0  0  0  0  0  0  0
  189.5260  174.2380  135.0740 C   0  0  2  0  0  3  0  0  0  0  0  0
  187.4270  171.8990  136.9780 C   0  0  0  0  0  2  0  0  0  0  0  0
  188.2190  173.5440  135.4890 C   0  0  2  0  0  3  0  0  0  0  0  0
  188.1430  173.2080  136.9610 C   0  0  0  0  0  2  0  0  0  0  0  0
  188.0230  172.3810  134.7100 O   0  0  0  0  0  0  0  0  0  0  0  0
  187.7500  171.3310  135.6190 C   0  0  0  0  0  2  0  0  0  0  0  0
  190.7660  173.5520  135.6810 C   0  0  2  0  0  3  0  0  0  0  0  0
  191.4840  174.4590  136.4400 F   0  0  0  0  0  0  0  0  0  0  0  0
  191.6140  173.0050  134.6360 N   0  0  0  0  0  1  0  0  0  0  0  0
  185.6150  178.8110  137.0280 C   0  0  0  0  0  2  0  0  0  0  0  0
  184.3800  179.4910  137.6080 C   0  0  0  0  0  2  0  0  0  0  0  0
  184.0720  178.7920  138.9150 C   0  0  0  0  0  2  0  0  0  0  0  0
  184.6130  179.5820  140.1220 C   0  0  0  0  0  2  0  0  0  0  0  0
  187.2710  178.6570  142.5310 N   0  0  0  0  0  0  0  0  0  0  0  0
  191.5560  174.8070  144.1040 C   0  0  0  0  0  1  0  0  0  0  0  0
  185.5840  178.7840  140.8550 N   0  0  0  0  0  0  0  0  0  0  0  0
  189.3270  178.3260  143.4370 C   0  0  0  0  0  0  0  0  0  0  0  0
  191.1840  176.1100  143.4180 C   0  0  1  0  0  3  0  0  0  0  0  0
  187.6450  177.3250  142.3070 N   0  0  0  0  0  0  0  0  0  0  0  0
  189.8550  176.0180  142.6110 C   0  0  1  0  0  3  0  0  0  0  0  0
  188.9330  177.1810  142.8930 C   0  0  0  0  0  0  0  0  0  0  0  0
  188.2920  179.3710  143.2790 C   0  0  0  0  0  3  0  0  0  0  0  0
  191.4390  177.3730  144.2870 C   0  0  1  0  0  3  0  0  0  0  0  0
  186.3190  179.3660  141.7480 C   0  0  0  0  0  3  0  0  0  0  0  0
  190.7570  178.6140  143.7140 C   0  0  0  0  0  2  0  0  0  0  0  0
  190.9830  176.9090  140.4790 C   0  0  0  0  0  0  0  0  0  0  0  0
  190.1210  176.0070  141.1760 N   0  0  0  0  0  2  0  0  0  0  0  0
  191.6220  177.7960  141.1070 O   0  0  0  0  0  0  0  0  0  0  0  0
  192.6190  176.5230  138.6890 C   0  0  0  0  0  1  0  0  0  0  0  0
  191.1490  176.7530  139.0050 C   0  0  0  0  0  3  0  0  0  0  0  0
  190.3330  175.5880  138.4700 C   0  0  0  0  0  1  0  0  0  0  0  0
  191.1370  177.1940  145.7850 C   0  0  0  0  0  2  0  0  0  0  0  0
  190.1830  178.2670  146.3000 C   0  0  0  0  0  2  0  0  0  0  0  0
  188.7370  177.8910  145.9910 C   0  0  0  0  0  2  0  0  0  0  0  0
  187.3700  179.5160  147.4040 C   0  0  0  0  0  1  0  0  0  0  0  0
  187.7710  178.0480  147.1870 C   0  0  2  0  0  0  0  0  0  0  0  0
  188.1030  176.3780  148.9150 O   0  0  0  0  0  0  0  0  0  0  0  0
  188.4370  177.5100  148.4440 C   0  0  0  0  0  0  0  0  0  0  0  0
  189.4460  178.2420  149.0740 O   0  0  0  0  0  1  0  0  0  0  0  0
  185.2230  177.7530  147.5420 C   0  0  0  0  0  1  0  0  0  0  0  0
  186.4980  177.2560  146.8360 C   0  0  0  0  0  2  0  0  0  0  0  0
  1 39  1  6  0  0  0
  2  4  1  1  0  0  0
  2  8  1  0  0  0  0
  3  5  2  0  0  0  0
  5  9  1  0  0  0  0
  5  1  1  0  0  0  0
  6 11  1  6  0  0  0
  7  3  1  0  0  0  0
  7  2  1  0  0  0  0
  8  6  1  0  0  0  0
  9  6  1  0  0  0  0
 11 10  1  6  0  0  0
 11 12  1  0  0  0  0
 12 14  1  0  0  0  0
 12 15  1  0  0  0  0
 13 12  1  0  0  0  0
 15 16  1  0  0  0  0
 16 17  1  0  0  0  0
 17 19  1  0  0  0  0
 18 19  2  0  0  0  0
 19 20  1  0  0  0  0
 21 22  1  0  0  0  0
 21  2  1  0  0  0  0
 22 24  1  0  0  0  0
 24 23  1  0  0  0  0
 25  1  1  0  0  0  0
 26 27  1  1  0  0  0
 26 25  1  0  0  0  0
 28 29  1  0  0  0  0
 28 26  1  0  0  0  0
 30 29  1  1  0  0  0
 30 36  1  0  0  0  0
 32 30  1  1  0  0  0
 32 33  1  0  0  0  0
 33 31  1  0  0  0  0
 34 32  1  0  0  0  0
 34 35  1  0  0  0  0
 35 31  1  0  0  0  0
 36 38  1  6  0  0  0
 36 37  1  0  0  0  0
 39 40  1  0  0  0  0
 40 41  1  0  0  0  0
 41 42  1  0  0  0  0
 42 45  1  0  0  0  0
 43 51  1  0  0  0  0
 45 53  2  0  0  0  0
 46 54  1  0  0  0  0
 47 44  1  1  0  0  0
 47 52  1  0  0  0  0
 48 43  1  0  0  0  0
 48 50  2  0  0  0  0
 49 56  1  6  0  0  0
 49 50  1  0  0  0  0
 49 47  1  0  0  0  0
 50 46  1  0  0  0  0
 51 46  2  0  0  0  0
 52 61  1  1  0  0  0
 53 43  1  0  0  0  0
 54 52  1  0  0  0  0
 55 57  2  0  0  0  0
 55 56  1  0  0  0  0
 58 59  1  0  0  0  0
 59 55  1  0  0  0  0
 60 59  1  0  0  0  0
 61 62  1  0  0  0  0
 63 62  1  0  0  0  0
 63 65  1  0  0  0  0
 65 64  1  1  0  0  0
 65 67  1  0  0  0  0
 67 66  2  0  0  0  0
 67 68  1  0  0  0  0
 70 65  1  0  0  0  0
 70 69  1  0  0  0  0
M  END
>  <MODEL>
5

>  <REMARK>
 VINA RESULT:      -2.1      2.808      8.404
  Name = 
  29 active torsions:
  status: ('A' for Active; 'I' for Inactive)
    1  A    between atoms: C_1  and  C_46
    2  A    between atoms: C_1  and  C_65
    3  A    between atoms: N_2  and  C_15
    4  A    between atoms: C_3  and  O_5
    5  A    between atoms: C_3  and  C_13
    6  A    between atoms: C_3  and  C_27
    7  A    between atoms: O_5  and  C_60
    8  A    between atoms: C_8  and  C_23
    9  A    between atoms: C_9  and  N_17
   10  A    between atoms: C_9  and  C_46
   11  A    between atoms: C_14  and  C_20
   12  A    between atoms: C_14  and  C_56
   13  A    between atoms: C_15  and  C_69
   14  A    between atoms: C_16  and  C_32
   15  A    between atoms: C_20  and  C_24
   16  A    between atoms: C_21  and  C_23
   17  A    between atoms: C_21  and  C_38
   18  A    between atoms: C_24  and  C_55
   19  A    between atoms: C_31  and  N_63
   20  A    between atoms: C_33  and  C_56
   21  A    between atoms: C_37  and  C_41
   22  A    between atoms: C_37  and  C_69
   23  A    between atoms: C_40  and  C_56
   24  A    between atoms: C_41  and  C_57
   25  A    between atoms: C_43  and  C_47
   26  A    between atoms: C_43  and  C_51
   27  A    between atoms: C_43  and  C_65
   28  A    between atoms: C_47  and  C_48
   29  A    between atoms: C_48  and  C_60
                            x       y       z     vdW  Elec       q    Type
                         _______ _______ _______ _____ _____    ______ ____

>  <TORSDO>
F 29

$$$$
=
 OpenBabel11062415213D

 70 73  0  0  1  0  0  0  0  0999 V2000
  185.9560  176.9240  137.5030 C   0  0  1  0  0  3  0  0  0  0  0  0
  182.8940  173.7100  136.1840 C   0  0  2  0  0  0  0  0  0  0  0  0
  185.2700  174.7660  136.4540 C   0  0  0  0  0  3  0  0  0  0  0  0
  182.8630  172.2710  136.6880 C   0  0  0  0  0  1  0  0  0  0  0  0
  185.0400  176.0610  136.6590 C   0  0  0  0  0  0  0  0  0  0  0  0
  182.6530  176.1570  137.1970 C   0  0  1  0  0  3  0  0  0  0  0  0
  184.3290  173.9100  135.6430 C   0  0  0  0  0  2  0  0  0  0  0  0
  182.5090  174.6230  137.3670 C   0  0  0  0  0  2  0  0  0  0  0  0
  183.7300  176.6460  136.2380 C   0  0  0  0  0  2  0  0  0  0  0  0
  180.5080  176.3650  136.0860 O   0  0  0  0  0  1  0  0  0  0  0  0
  181.3610  176.9490  137.0310 C   0  0  1  0  0  3  0  0  0  0  0  0
  180.6490  177.2810  138.3620 C   0  0  0  0  0  0  0  0  0  0  0  0
  179.1660  176.9700  138.2250 C   0  0  0  0  0  1  0  0  0  0  0  0
  181.2000  176.4040  139.4820 C   0  0  0  0  0  1  0  0  0  0  0  0
  180.7730  178.7630  138.7510 C   0  0  0  0  0  2  0  0  0  0  0  0
  179.5270  179.5700  138.4190 C   0  0  0  0  0  2  0  0  0  0  0  0
  179.8550  180.9820  138.4310 N   0  0  0  0  0  2  0  0  0  0  0  0
  179.3890  181.1740  136.0310 O   0  0  0  0  0  0  0  0  0  0  0  0
  179.7490  181.7650  137.2410 C   0  0  0  0  0  0  0  0  0  0  0  0
  179.9780  183.0030  137.2820 O   0  0  0  0  0  1  0  0  0  0  0  0
  181.9060  173.9020  135.0190 C   0  0  0  0  0  2  0  0  0  0  0  0
  180.5110  173.3040  135.2400 C   0  0  0  0  0  2  0  0  0  0  0  0
  179.7160  171.0100  135.6610 C   0  0  0  0  0  1  0  0  0  0  0  0
  180.4570  171.8930  134.6840 C   0  0  0  0  0  2  0  0  0  0  0  0
  187.4070  176.4320  137.4680 C   0  0  0  0  0  2  0  0  0  0  0  0
  188.2000  176.9870  136.2850 C   0  0  1  0  0  3  0  0  0  0  0  0
  189.4620  177.4370  136.7040 O   0  0  0  0  0  1  0  0  0  0  0  0
  188.3570  175.8800  135.2600 C   0  0  0  0  0  2  0  0  0  0  0  0
  189.7160  175.6660  135.0080 O   0  0  0  0  0  0  0  0  0  0  0  0
  190.0950  174.5760  135.8090 C   0  0  2  0  0  3  0  0  0  0  0  0
  193.3290  172.8520  136.0730 C   0  0  0  0  0  2  0  0  0  0  0  0
  191.6230  174.4710  135.9270 C   0  0  2  0  0  3  0  0  0  0  0  0
  192.2170  173.2960  135.1830 C   0  0  0  0  0  2  0  0  0  0  0  0
  191.9990  174.4300  137.2880 O   0  0  0  0  0  0  0  0  0  0  0  0
  192.8680  173.3220  137.4310 C   0  0  0  0  0  2  0  0  0  0  0  0
  189.4580  173.2620  135.3160 C   0  0  2  0  0  3  0  0  0  0  0  0
  188.0830  173.3960  135.2520 F   0  0  0  0  0  0  0  0  0  0  0  0
  189.8040  172.1600  136.1970 N   0  0  0  0  0  1  0  0  0  0  0  0
  185.8150  178.4320  137.2900 C   0  0  0  0  0  2  0  0  0  0  0  0
  184.5600  179.0050  137.9410 C   0  0  0  0  0  2  0  0  0  0  0  0
  184.3200  178.2050  139.2030 C   0  0  0  0  0  2  0  0  0  0  0  0
  184.7430  178.9880  140.4600 C   0  0  0  0  0  2  0  0  0  0  0  0
  187.1570  178.0760  143.1190 N   0  0  0  0  0  0  0  0  0  0  0  0
  191.8780  174.8110  144.7600 C   0  0  0  0  0  1  0  0  0  0  0  0
  185.7420  178.2430  141.2100 N   0  0  0  0  0  0  0  0  0  0  0  0
  189.0830  177.9370  144.3140 C   0  0  0  0  0  0  0  0  0  0  0  0
  191.3450  176.1390  144.2530 C   0  0  1  0  0  3  0  0  0  0  0  0
  187.8300  176.9070  142.7400 N   0  0  0  0  0  0  0  0  0  0  0  0
  190.1970  175.9790  143.2130 C   0  0  1  0  0  3  0  0  0  0  0  0
  189.0200  176.8770  143.5180 C   0  0  0  0  0  0  0  0  0  0  0  0
  187.8850  178.7920  144.1530 C   0  0  0  0  0  3  0  0  0  0  0  0
  191.2010  177.2220  145.3580 C   0  0  1  0  0  3  0  0  0  0  0  0
  186.2010  178.7500  142.3090 C   0  0  0  0  0  3  0  0  0  0  0  0
  190.3650  178.4130  144.8930 C   0  0  0  0  0  2  0  0  0  0  0  0
  191.3350  177.5150  141.4930 C   0  0  0  0  0  0  0  0  0  0  0  0
  190.6650  176.3100  141.8710 N   0  0  0  0  0  2  0  0  0  0  0  0
  191.6010  178.3960  142.3550 O   0  0  0  0  0  0  0  0  0  0  0  0
  192.9800  176.8320  139.8020 C   0  0  0  0  0  1  0  0  0  0  0  0
  191.7540  177.6910  140.0730 C   0  0  0  0  0  3  0  0  0  0  0  0
  190.6440  177.3010  139.1090 C   0  0  0  0  0  1  0  0  0  0  0  0
  190.7280  176.6890  146.7220 C   0  0  0  0  0  2  0  0  0  0  0  0
  189.8790  177.7140  147.4660 C   0  0  0  0  0  2  0  0  0  0  0  0
  188.6620  177.0460  148.0970 C   0  0  0  0  0  2  0  0  0  0  0  0
  186.8200  177.9880  149.5890 C   0  0  0  0  0  1  0  0  0  0  0  0
  187.4090  177.9470  148.1690 C   0  0  2  0  0  0  0  0  0  0  0  0
  186.6390  176.4790  146.3970 O   0  0  0  0  0  0  0  0  0  0  0  0
  186.3600  177.4260  147.1970 C   0  0  0  0  0  0  0  0  0  0  0  0
  185.0710  177.9620  147.2000 O   0  0  0  0  0  1  0  0  0  0  0  0
  187.0620  180.0230  146.6610 C   0  0  0  0  0  1  0  0  0  0  0  0
  187.8640  179.3710  147.8030 C   0  0  0  0  0  2  0  0  0  0  0  0
  1 39  1  6  0  0  0
  2  4  1  1  0  0  0
  2  8  1  0  0  0  0
  3  5  2  0  0  0  0
  5  1  1  0  0  0  0
  6 11  1  6  0  0  0
  6  8  1  0  0  0  0
  7  2  1  0  0  0  0
  7  3  1  0  0  0  0
  9  5  1  0  0  0  0
  9  6  1  0  0  0  0
 11 10  1  6  0  0  0
 11 12  1  0  0  0  0
 12 15  1  0  0  0  0
 12 14  1  0  0  0  0
 13 12  1  0  0  0  0
 16 17  1  0  0  0  0
 16 15  1  0  0  0  0
 18 19  2  0  0  0  0
 19 20  1  0  0  0  0
 19 17  1  0  0  0  0
 21 22  1  0  0  0  0
 21  2  1  0  0  0  0
 24 22  1  0  0  0  0
 24 23  1  0  0  0  0
 25  1  1  0  0  0  0
 26 27  1  1  0  0  0
 26 25  1  0  0  0  0
 28 26  1  0  0  0  0
 29 28  1  0  0  0  0
 30 29  1  6  0  0  0
 31 35  1  0  0  0  0
 32 30  1  1  0  0  0
 32 34  1  0  0  0  0
 33 32  1  0  0  0  0
 33 31  1  0  0  0  0
 34 35  1  0  0  0  0
 36 37  1  1  0  0  0
 36 30  1  0  0  0  0
 36 38  1  0  0  0  0
 39 40  1  0  0  0  0
 40 41  1  0  0  0  0
 41 42  1  0  0  0  0
 42 45  1  0  0  0  0
 43 51  1  0  0  0  0
 45 53  2  0  0  0  0
 46 54  1  0  0  0  0
 47 44  1  1  0  0  0
 47 52  1  0  0  0  0
 48 43  1  0  0  0  0
 48 50  2  0  0  0  0
 49 56  1  6  0  0  0
 49 50  1  0  0  0  0
 49 47  1  0  0  0  0
 50 46  1  0  0  0  0
 51 46  2  0  0  0  0
 52 61  1  1  0  0  0
 53 43  1  0  0  0  0
 54 52  1  0  0  0  0
 55 56  1  0  0  0  0
 55 57  2  0  0  0  0
 58 59  1  0  0  0  0
 59 55  1  0  0  0  0
 60 59  1  0  0  0  0
 61 62  1  0  0  0  0
 62 63  1  0  0  0  0
 63 65  1  0  0  0  0
 65 64  1  1  0  0  0
 66 67  2  0  0  0  0
 67 68  1  0  0  0  0
 67 65  1  0  0  0  0
 69 70  1  0  0  0  0
 70 65  1  0  0  0  0
M  END
>  <MODEL>
6

>  <REMARK>
 VINA RESULT:      -1.8      2.404      8.974
  Name = 
  29 active torsions:
  status: ('A' for Active; 'I' for Inactive)
    1  A    between atoms: C_1  and  C_46
    2  A    between atoms: C_1  and  C_65
    3  A    between atoms: N_2  and  C_15
    4  A    between atoms: C_3  and  O_5
    5  A    between atoms: C_3  and  C_13
    6  A    between atoms: C_3  and  C_27
    7  A    between atoms: O_5  and  C_60
    8  A    between atoms: C_8  and  C_23
    9  A    between atoms: C_9  and  N_17
   10  A    between atoms: C_9  and  C_46
   11  A    between atoms: C_14  and  C_20
   12  A    between atoms: C_14  and  C_56
   13  A    between atoms: C_15  and  C_69
   14  A    between atoms: C_16  and  C_32
   15  A    between atoms: C_20  and  C_24
   16  A    between atoms: C_21  and  C_23
   17  A    between atoms: C_21  and  C_38
   18  A    between atoms: C_24  and  C_55
   19  A    between atoms: C_31  and  N_63
   20  A    between atoms: C_33  and  C_56
   21  A    between atoms: C_37  and  C_41
   22  A    between atoms: C_37  and  C_69
   23  A    between atoms: C_40  and  C_56
   24  A    between atoms: C_41  and  C_57
   25  A    between atoms: C_43  and  C_47
   26  A    between atoms: C_43  and  C_51
   27  A    between atoms: C_43  and  C_65
   28  A    between atoms: C_47  and  C_48
   29  A    between atoms: C_48  and  C_60
                            x       y       z     vdW  Elec       q    Type
                         _______ _______ _______ _____ _____    ______ ____

>  <TORSDO>
F 29

$$$$
=
 OpenBabel11062415213D

 70 73  0  0  1  0  0  0  0  0999 V2000
  190.2390  177.9010  139.7750 C   0  0  1  0  0  3  0  0  0  0  0  0
  190.6250  177.3200  144.3520 C   0  0  2  0  0  0  0  0  0  0  0  0
  191.4770  177.3990  141.8830 C   0  0  0  0  0  3  0  0  0  0  0  0
  191.5010  178.1650  145.2720 C   0  0  0  0  0  1  0  0  0  0  0  0
  190.3770  177.2680  141.1440 C   0  0  0  0  0  0  0  0  0  0  0  0
  188.5530  177.6840  142.7250 C   0  0  1  0  0  3  0  0  0  0  0  0
  191.5860  176.7950  143.2610 C   0  0  0  0  0  2  0  0  0  0  0  0
  189.4860  178.2250  143.8390 C   0  0  0  0  0  2  0  0  0  0  0  0
  189.1520  176.6700  141.7590 C   0  0  0  0  0  2  0  0  0  0  0  0
  187.0770  176.9800  144.5140 O   0  0  0  0  0  1  0  0  0  0  0  0
  187.1450  177.2820  143.1480 C   0  0  1  0  0  3  0  0  0  0  0  0
  186.0450  178.2680  142.6940 C   0  0  0  0  0  0  0  0  0  0  0  0
  186.6310  179.6690  142.6190 C   0  0  0  0  0  1  0  0  0  0  0  0
  185.5570  177.8980  141.2960 C   0  0  0  0  0  1  0  0  0  0  0  0
  184.8540  178.3190  143.6640 C   0  0  0  0  0  2  0  0  0  0  0  0
  184.9780  179.4300  144.6960 C   0  0  0  0  0  2  0  0  0  0  0  0
  185.8780  179.0040  145.7510 N   0  0  0  0  0  2  0  0  0  0  0  0
  185.4250  181.0390  147.0430 O   0  0  0  0  0  0  0  0  0  0  0  0
  186.0600  179.8040  146.9200 C   0  0  0  0  0  0  0  0  0  0  0  0
  186.7960  179.3900  147.8540 O   0  0  0  0  0  1  0  0  0  0  0  0
  190.0460  176.1110  145.1090 C   0  0  0  0  0  2  0  0  0  0  0  0
  190.4970  175.9760  146.5690 C   0  0  0  0  0  2  0  0  0  0  0  0
  188.1450  176.6570  146.8490 C   0  0  0  0  0  1  0  0  0  0  0  0
  189.5170  176.6860  147.4840 C   0  0  0  0  0  2  0  0  0  0  0  0
  190.7640  176.9890  138.6610 C   0  0  0  0  0  2  0  0  0  0  0  0
  192.2760  176.7740  138.7240 C   0  0  1  0  0  3  0  0  0  0  0  0
  192.7250  176.8040  140.0540 O   0  0  0  0  0  1  0  0  0  0  0  0
  192.5890  175.4270  138.1010 C   0  0  0  0  0  2  0  0  0  0  0  0
  193.9660  175.1910  138.1640 O   0  0  0  0  0  0  0  0  0  0  0  0
  194.4000  175.0500  136.8350 C   0  0  2  0  0  3  0  0  0  0  0  0
  194.7540  171.4660  136.1070 C   0  0  0  0  0  2  0  0  0  0  0  0
  193.9870  173.6890  136.2530 C   0  0  2  0  0  3  0  0  0  0  0  0
  194.3880  172.5090  137.1090 C   0  0  0  0  0  2  0  0  0  0  0  0
  194.5070  173.5460  134.9470 O   0  0  0  0  0  0  0  0  0  0  0  0
  195.1590  172.2900  134.9100 C   0  0  0  0  0  2  0  0  0  0  0  0
  195.9140  175.3040  136.7030 C   0  0  2  0  0  3  0  0  0  0  0  0
  196.5130  175.2570  137.9480 F   0  0  0  0  0  0  0  0  0  0  0  0
  196.1670  176.5940  136.0840 N   0  0  0  0  0  1  0  0  0  0  0  0
  188.8710  178.5140  139.4720 C   0  0  0  0  0  2  0  0  0  0  0  0
  188.0710  177.7010  138.4600 C   0  0  0  0  0  2  0  0  0  0  0  0
  189.0260  177.3350  137.3440 C   0  0  0  0  0  2  0  0  0  0  0  0
  188.2850  176.7220  136.1400 C   0  0  0  0  0  2  0  0  0  0  0  0
  184.7200  175.7670  135.8220 N   0  0  0  0  0  0  0  0  0  0  0  0
  179.2730  175.6690  138.2670 C   0  0  0  0  0  1  0  0  0  0  0  0
  186.9140  176.3980  136.5010 N   0  0  0  0  0  0  0  0  0  0  0  0
  182.4730  175.9240  135.5310 C   0  0  0  0  0  0  0  0  0  0  0  0
  180.2510  176.3540  137.3300 C   0  0  1  0  0  3  0  0  0  0  0  0
  184.1130  175.8470  137.0840 N   0  0  0  0  0  0  0  0  0  0  0  0
  181.7090  176.3740  137.8770 C   0  0  1  0  0  3  0  0  0  0  0  0
  182.7160  175.9430  136.8360 C   0  0  0  0  0  0  0  0  0  0  0  0
  183.7280  175.7850  134.7600 C   0  0  0  0  0  3  0  0  0  0  0  0
  180.0250  176.0190  135.8290 C   0  0  1  0  0  3  0  0  0  0  0  0
  186.0710  176.1250  135.5570 C   0  0  0  0  0  3  0  0  0  0  0  0
  181.2060  176.4460  134.9590 C   0  0  0  0  0  2  0  0  0  0  0  0
  181.7160  178.3180  139.5590 C   0  0  0  0  0  0  0  0  0  0  0  0
  182.0790  177.7160  138.3150 N   0  0  0  0  0  2  0  0  0  0  0  0
  181.0400  177.6750  140.4080 O   0  0  0  0  0  0  0  0  0  0  0  0
  183.5280  179.9300  139.1760 C   0  0  0  0  0  1  0  0  0  0  0  0
  182.1860  179.7020  139.8550 C   0  0  0  0  0  3  0  0  0  0  0  0
  181.1930  180.7460  139.3670 C   0  0  0  0  0  1  0  0  0  0  0  0
  179.6070  174.5640  135.5520 C   0  0  0  0  0  2  0  0  0  0  0  0
  180.4680  173.5720  136.3260 C   0  0  0  0  0  2  0  0  0  0  0  0
  180.7190  172.3180  135.4950 C   0  0  0  0  0  2  0  0  0  0  0  0
  181.9750  170.0990  135.4100 C   0  0  0  0  0  1  0  0  0  0  0  0
  182.0250  171.5730  135.8470 C   0  0  2  0  0  0  0  0  0  0  0  0
  183.3950  171.9860  137.8070 O   0  0  0  0  0  0  0  0  0  0  0  0
  182.2580  171.6510  137.3490 C   0  0  0  0  0  0  0  0  0  0  0  0
  181.2130  171.3870  138.2370 O   0  0  0  0  0  1  0  0  0  0  0  0
  184.5720  171.9590  135.5840 C   0  0  0  0  0  1  0  0  0  0  0  0
  183.1560  172.2610  135.0610 C   0  0  0  0  0  2  0  0  0  0  0  0
  1 25  1  6  0  0  0
  1  5  1  0  0  0  0
  2 21  1  0  0  0  0
  2  4  1  1  0  0  0
  3  7  1  0  0  0  0
  5  9  1  0  0  0  0
  5  3  2  0  0  0  0
  6 11  1  1  0  0  0
  6  8  1  0  0  0  0
  7  2  1  0  0  0  0
  8  2  1  0  0  0  0
  9  6  1  0  0  0  0
 11 10  1  1  0  0  0
 12 11  1  0  0  0  0
 12 15  1  0  0  0  0
 13 12  1  0  0  0  0
 14 12  1  0  0  0  0
 15 16  1  0  0  0  0
 16 17  1  0  0  0  0
 17 19  1  0  0  0  0
 19 18  2  0  0  0  0
 19 20  1  0  0  0  0
 21 22  1  0  0  0  0
 22 24  1  0  0  0  0
 23 24  1  0  0  0  0
 25 26  1  0  0  0  0
 26 27  1  1  0  0  0
 28 29  1  0  0  0  0
 28 26  1  0  0  0  0
 30 29  1  1  0  0  0
 31 33  1  0  0  0  0
 32 30  1  1  0  0  0
 32 33  1  0  0  0  0
 34 32  1  0  0  0  0
 35 34  1  0  0  0  0
 35 31  1  0  0  0  0
 36 38  1  1  0  0  0
 36 30  1  0  0  0  0
 36 37  1  0  0  0  0
 39  1  1  0  0  0  0
 40 39  1  0  0  0  0
 41 40  1  0  0  0  0
 42 45  1  0  0  0  0
 42 41  1  0  0  0  0
 43 48  1  0  0  0  0
 46 50  1  0  0  0  0
 47 49  1  0  0  0  0
 47 44  1  1  0  0  0
 49 56  1  6  0  0  0
 50 48  2  0  0  0  0
 50 49  1  0  0  0  0
 51 46  2  0  0  0  0
 51 43  1  0  0  0  0
 52 61  1  1  0  0  0
 52 47  1  0  0  0  0
 53 43  1  0  0  0  0
 53 45  2  0  0  0  0
 54 46  1  0  0  0  0
 54 52  1  0  0  0  0
 55 59  1  0  0  0  0
 55 57  2  0  0  0  0
 56 55  1  0  0  0  0
 58 59  1  0  0  0  0
 60 59  1  0  0  0  0
 61 62  1  0  0  0  0
 63 65  1  0  0  0  0
 63 62  1  0  0  0  0
 65 64  1  6  0  0  0
 65 67  1  0  0  0  0
 67 66  2  0  0  0  0
 67 68  1  0  0  0  0
 70 69  1  0  0  0  0
 70 65  1  0  0  0  0
M  END
>  <MODEL>
7

>  <REMARK>
 VINA RESULT:      -1.8      3.021      8.599
  Name = 
  29 active torsions:
  status: ('A' for Active; 'I' for Inactive)
    1  A    between atoms: C_1  and  C_46
    2  A    between atoms: C_1  and  C_65
    3  A    between atoms: N_2  and  C_15
    4  A    between atoms: C_3  and  O_5
    5  A    between atoms: C_3  and  C_13
    6  A    between atoms: C_3  and  C_27
    7  A    between atoms: O_5  and  C_60
    8  A    between atoms: C_8  and  C_23
    9  A    between atoms: C_9  and  N_17
   10  A    between atoms: C_9  and  C_46
   11  A    between atoms: C_14  and  C_20
   12  A    between atoms: C_14  and  C_56
   13  A    between atoms: C_15  and  C_69
   14  A    between atoms: C_16  and  C_32
   15  A    between atoms: C_20  and  C_24
   16  A    between atoms: C_21  and  C_23
   17  A    between atoms: C_21  and  C_38
   18  A    between atoms: C_24  and  C_55
   19  A    between atoms: C_31  and  N_63
   20  A    between atoms: C_33  and  C_56
   21  A    between atoms: C_37  and  C_41
   22  A    between atoms: C_37  and  C_69
   23  A    between atoms: C_40  and  C_56
   24  A    between atoms: C_41  and  C_57
   25  A    between atoms: C_43  and  C_47
   26  A    between atoms: C_43  and  C_51
   27  A    between atoms: C_43  and  C_65
   28  A    between atoms: C_47  and  C_48
   29  A    between atoms: C_48  and  C_60
                            x       y       z     vdW  Elec       q    Type
                         _______ _______ _______ _____ _____    ______ ____

>  <TORSDO>
F 29

$$$$
=
 OpenBabel11062415213D

 70 73  0  0  1  0  0  0  0  0999 V2000
  184.4660  176.2780  136.1820 C   0  0  1  0  0  3  0  0  0  0  0  0
  180.2700  178.2220  135.9570 C   0  0  2  0  0  0  0  0  0  0  0  0
  182.3430  176.9190  135.0400 C   0  0  0  0  0  3  0  0  0  0  0  0
  178.9720  177.4730  135.6760 C   0  0  0  0  0  1  0  0  0  0  0  0
  183.3310  177.2330  135.8740 C   0  0  0  0  0  0  0  0  0  0  0  0
  182.1860  178.2190  137.8010 C   0  0  1  0  0  3  0  0  0  0  0  0
  181.1980  177.8660  134.7720 C   0  0  0  0  0  2  0  0  0  0  0  0
  180.7750  177.7690  137.3420 C   0  0  0  0  0  2  0  0  0  0  0  0
  183.2190  178.4680  136.7100 C   0  0  0  0  0  2  0  0  0  0  0  0
  182.4150  180.5760  138.3220 O   0  0  0  0  0  1  0  0  0  0  0  0
  182.2410  179.3010  138.8750 C   0  0  1  0  0  3  0  0  0  0  0  0
  181.0810  179.2380  139.8940 C   0  0  0  0  0  0  0  0  0  0  0  0
  180.3800  180.5870  139.9340 C   0  0  0  0  0  1  0  0  0  0  0  0
  180.0540  178.1990  139.4530 C   0  0  0  0  0  1  0  0  0  0  0  0
  181.5590  178.9250  141.3210 C   0  0  0  0  0  2  0  0  0  0  0  0
  182.9190  178.2430  141.3540 C   0  0  0  0  0  2  0  0  0  0  0  0
  183.5550  178.5080  142.6300 N   0  0  0  0  0  2  0  0  0  0  0  0
  181.4620  179.3850  143.5610 O   0  0  0  0  0  0  0  0  0  0  0  0
  182.8050  179.0460  143.7200 C   0  0  0  0  0  0  0  0  0  0  0  0
  183.3580  179.2130  144.8400 O   0  0  0  0  0  1  0  0  0  0  0  0
  180.0360  179.7440  135.9470 C   0  0  0  0  0  2  0  0  0  0  0  0
  181.1670  180.5760  135.3290 C   0  0  0  0  0  2  0  0  0  0  0  0
  180.7000  182.9400  135.8430 C   0  0  0  0  0  1  0  0  0  0  0  0
  180.6130  181.8750  134.7750 C   0  0  0  0  0  2  0  0  0  0  0  0
  184.8850  175.4630  134.9540 C   0  0  0  0  0  2  0  0  0  0  0  0
  185.6710  174.2010  135.3100 C   0  0  1  0  0  3  0  0  0  0  0  0
  187.0380  174.3790  135.0440 O   0  0  0  0  0  1  0  0  0  0  0  0
  185.4620  173.9140  136.7850 C   0  0  0  0  0  2  0  0  0  0  0  0
  185.4670  172.5320  136.9970 O   0  0  0  0  0  0  0  0  0  0  0  0
  184.6410  171.9810  136.0030 C   0  0  2  0  0  3  0  0  0  0  0  0
  181.0720  171.1290  135.8310 C   0  0  0  0  0  2  0  0  0  0  0  0
  183.1580  172.0670  136.3960 C   0  0  2  0  0  3  0  0  0  0  0  0
  182.4280  170.7450  136.3220 C   0  0  0  0  0  2  0  0  0  0  0  0
  182.5040  173.0330  135.5990 O   0  0  0  0  0  0  0  0  0  0  0  0
  181.3460  172.4080  135.0800 C   0  0  0  0  0  2  0  0  0  0  0  0
  185.0670  170.5440  135.6450 C   0  0  2  0  0  3  0  0  0  0  0  0
  185.4900  169.8780  136.7810 F   0  0  0  0  0  0  0  0  0  0  0  0
  186.1300  170.5530  134.6550 N   0  0  0  0  0  1  0  0  0  0  0  0
  185.6440  176.8850  136.9460 C   0  0  0  0  0  2  0  0  0  0  0  0
  185.9370  178.3230  136.5320 C   0  0  0  0  0  2  0  0  0  0  0  0
  186.6660  178.9700  137.6910 C   0  0  0  0  0  2  0  0  0  0  0  0
  185.9490  178.7090  139.0290 C   0  0  0  0  0  2  0  0  0  0  0  0
  188.1120  177.9830  141.9480 N   0  0  0  0  0  0  0  0  0  0  0  0
  192.3830  174.5740  144.3550 C   0  0  0  0  0  1  0  0  0  0  0  0
  186.8260  177.9940  139.9430 N   0  0  0  0  0  0  0  0  0  0  0  0
  189.9470  177.8450  143.2790 C   0  0  0  0  0  0  0  0  0  0  0  0
  192.0150  175.8560  143.6290 C   0  0  1  0  0  3  0  0  0  0  0  0
  188.6820  176.7130  141.7870 N   0  0  0  0  0  0  0  0  0  0  0  0
  190.9140  175.6500  142.5470 C   0  0  1  0  0  3  0  0  0  0  0  0
  189.8200  176.6880  142.6400 C   0  0  0  0  0  0  0  0  0  0  0  0
  188.8530  178.7740  142.9160 C   0  0  0  0  0  3  0  0  0  0  0  0
  191.9220  177.1000  144.5560 C   0  0  1  0  0  3  0  0  0  0  0  0
  187.2750  178.6150  140.9870 C   0  0  0  0  0  3  0  0  0  0  0  0
  191.2380  178.2800  143.8700 C   0  0  0  0  0  2  0  0  0  0  0  0
  192.1640  176.8640  140.6560 C   0  0  0  0  0  0  0  0  0  0  0  0
  191.4840  175.7340  141.2060 N   0  0  0  0  0  2  0  0  0  0  0  0
  192.3460  177.9010  141.3500 O   0  0  0  0  0  0  0  0  0  0  0  0
  194.2150  176.7520  139.3100 C   0  0  0  0  0  1  0  0  0  0  0  0
  192.6950  176.7790  139.2650 C   0  0  0  0  0  3  0  0  0  0  0  0
  192.1920  175.5350  138.5490 C   0  0  0  0  0  1  0  0  0  0  0  0
  191.3250  176.8210  145.9470 C   0  0  0  0  0  2  0  0  0  0  0  0
  190.0810  177.6630  146.2050 C   0  0  0  0  0  2  0  0  0  0  0  0
  189.0440  176.8610  146.9850 C   0  0  0  0  0  2  0  0  0  0  0  0
  187.0150  176.8850  148.5320 C   0  0  0  0  0  1  0  0  0  0  0  0
  187.9050  177.7130  147.5890 C   0  0  2  0  0  0  0  0  0  0  0  0
  187.0880  177.7680  145.3050 O   0  0  0  0  0  0  0  0  0  0  0  0
  187.0580  178.2890  146.4640 C   0  0  0  0  0  0  0  0  0  0  0  0
  186.2150  179.3760  146.7040 O   0  0  0  0  0  1  0  0  0  0  0  0
  190.0120  178.5040  148.8690 C   0  0  0  0  0  1  0  0  0  0  0  0
  188.5730  178.8220  148.4210 C   0  0  0  0  0  2  0  0  0  0  0  0
  1 25  1  6  0  0  0
  1 39  1  0  0  0  0
  2  4  1  6  0  0  0
  2  8  1  0  0  0  0
  3  5  2  0  0  0  0
  5  1  1  0  0  0  0
  5  9  1  0  0  0  0
  6 11  1  6  0  0  0
  7  3  1  0  0  0  0
  7  2  1  0  0  0  0
  8  6  1  0  0  0  0
  9  6  1  0  0  0  0
 11 10  1  6  0  0  0
 11 12  1  0  0  0  0
 12 13  1  0  0  0  0
 12 15  1  0  0  0  0
 14 12  1  0  0  0  0
 15 16  1  0  0  0  0
 16 17  1  0  0  0  0
 17 19  1  0  0  0  0
 18 19  2  0  0  0  0
 19 20  1  0  0  0  0
 21  2  1  0  0  0  0
 22 21  1  0  0  0  0
 24 22  1  0  0  0  0
 24 23  1  0  0  0  0
 25 26  1  0  0  0  0
 26 27  1  1  0  0  0
 26 28  1  0  0  0  0
 28 29  1  0  0  0  0
 30 29  1  1  0  0  0
 31 33  1  0  0  0  0
 32 30  1  6  0  0  0
 33 32  1  0  0  0  0
 34 32  1  0  0  0  0
 35 34  1  0  0  0  0
 35 31  1  0  0  0  0
 36 38  1  6  0  0  0
 36 30  1  0  0  0  0
 36 37  1  0  0  0  0
 40 39  1  0  0  0  0
 40 41  1  0  0  0  0
 41 42  1  0  0  0  0
 42 45  1  0  0  0  0
 43 51  1  0  0  0  0
 45 53  2  0  0  0  0
 46 54  1  0  0  0  0
 47 44  1  1  0  0  0
 47 52  1  0  0  0  0
 48 43  1  0  0  0  0
 48 50  2  0  0  0  0
 49 56  1  6  0  0  0
 49 50  1  0  0  0  0
 49 47  1  0  0  0  0
 50 46  1  0  0  0  0
 51 46  2  0  0  0  0
 52 61  1  1  0  0  0
 53 43  1  0  0  0  0
 54 52  1  0  0  0  0
 55 56  1  0  0  0  0
 55 57  2  0  0  0  0
 59 58  1  0  0  0  0
 59 55  1  0  0  0  0
 60 59  1  0  0  0  0
 61 62  1  0  0  0  0
 62 63  1  0  0  0  0
 63 65  1  0  0  0  0
 65 70  1  0  0  0  0
 65 64  1  1  0  0  0
 66 67  2  0  0  0  0
 67 68  1  0  0  0  0
 67 65  1  0  0  0  0
 70 69  1  0  0  0  0
M  END
>  <MODEL>
8

>  <REMARK>
 VINA RESULT:      -1.7      2.200      8.338
  Name = 
  29 active torsions:
  status: ('A' for Active; 'I' for Inactive)
    1  A    between atoms: C_1  and  C_46
    2  A    between atoms: C_1  and  C_65
    3  A    between atoms: N_2  and  C_15
    4  A    between atoms: C_3  and  O_5
    5  A    between atoms: C_3  and  C_13
    6  A    between atoms: C_3  and  C_27
    7  A    between atoms: O_5  and  C_60
    8  A    between atoms: C_8  and  C_23
    9  A    between atoms: C_9  and  N_17
   10  A    between atoms: C_9  and  C_46
   11  A    between atoms: C_14  and  C_20
   12  A    between atoms: C_14  and  C_56
   13  A    between atoms: C_15  and  C_69
   14  A    between atoms: C_16  and  C_32
   15  A    between atoms: C_20  and  C_24
   16  A    between atoms: C_21  and  C_23
   17  A    between atoms: C_21  and  C_38
   18  A    between atoms: C_24  and  C_55
   19  A    between atoms: C_31  and  N_63
   20  A    between atoms: C_33  and  C_56
   21  A    between atoms: C_37  and  C_41
   22  A    between atoms: C_37  and  C_69
   23  A    between atoms: C_40  and  C_56
   24  A    between atoms: C_41  and  C_57
   25  A    between atoms: C_43  and  C_47
   26  A    between atoms: C_43  and  C_51
   27  A    between atoms: C_43  and  C_65
   28  A    between atoms: C_47  and  C_48
   29  A    between atoms: C_48  and  C_60
                            x       y       z     vdW  Elec       q    Type
                         _______ _______ _______ _____ _____    ______ ____

>  <TORSDO>
F 29

$$$$
=
 OpenBabel11062415213D

 70 73  0  0  1  0  0  0  0  0999 V2000
  190.2380  177.9010  139.7790 C   0  0  1  0  0  3  0  0  0  0  0  0
  190.4680  177.6900  144.3980 C   0  0  2  0  0  0  0  0  0  0  0  0
  191.3740  177.4650  141.9560 C   0  0  0  0  0  3  0  0  0  0  0  0
  191.4080  178.5200  145.2670 C   0  0  0  0  0  1  0  0  0  0  0  0
  190.2820  177.3800  141.2000 C   0  0  0  0  0  0  0  0  0  0  0  0
  188.4790  178.1160  142.6860 C   0  0  1  0  0  3  0  0  0  0  0  0
  191.3930  176.9760  143.3840 C   0  0  0  0  0  2  0  0  0  0  0  0
  189.4390  178.6560  143.7760 C   0  0  0  0  0  2  0  0  0  0  0  0
  188.9890  176.9660  141.8280 C   0  0  0  0  0  2  0  0  0  0  0  0
  186.8070  178.2590  144.4350 O   0  0  0  0  0  1  0  0  0  0  0  0
  187.0280  177.8980  143.1010 C   0  0  1  0  0  3  0  0  0  0  0  0
  185.9950  178.5140  142.1300 C   0  0  0  0  0  0  0  0  0  0  0  0
  186.6310  179.6920  141.4080 C   0  0  0  0  0  1  0  0  0  0  0  0
  185.5950  177.4890  141.0740 C   0  0  0  0  0  1  0  0  0  0  0  0
  184.7420  179.0380  142.8500 C   0  0  0  0  0  2  0  0  0  0  0  0
  183.5070  178.1900  142.5840 C   0  0  0  0  0  2  0  0  0  0  0  0
  182.5490  178.9660  141.8210 N   0  0  0  0  0  2  0  0  0  0  0  0
  180.7030  178.1970  143.2410 O   0  0  0  0  0  1  0  0  0  0  0  0
  181.1680  178.9790  142.1850 C   0  0  0  0  0  0  0  0  0  0  0  0
  180.3590  179.7070  141.5510 O   0  0  0  0  0  0  0  0  0  0  0  0
  189.7530  176.6170  145.2380 C   0  0  0  0  0  2  0  0  0  0  0  0
  188.5730  177.1240  146.0790 C   0  0  0  0  0  2  0  0  0  0  0  0
  188.1700  178.5680  148.0340 C   0  0  0  0  0  1  0  0  0  0  0  0
  189.0420  177.4640  147.4800 C   0  0  0  0  0  2  0  0  0  0  0  0
  190.6890  176.8470  138.7620 C   0  0  0  0  0  2  0  0  0  0  0  0
  192.2090  176.7530  138.6300 C   0  0  1  0  0  3  0  0  0  0  0  0
  192.7850  176.3230  139.8360 O   0  0  0  0  0  1  0  0  0  0  0  0
  192.5280  175.7670  137.5220 C   0  0  0  0  0  2  0  0  0  0  0  0
  193.6670  176.1930  136.8310 O   0  0  0  0  0  0  0  0  0  0  0  0
  194.7650  175.6310  137.5040 C   0  0  2  0  0  3  0  0  0  0  0  0
  197.0910  176.0500  134.6910 C   0  0  0  0  0  2  0  0  0  0  0  0
  196.0910  176.0070  136.8240 C   0  0  2  0  0  3  0  0  0  0  0  0
  195.9240  176.5990  135.4420 C   0  0  0  0  0  2  0  0  0  0  0  0
  196.9420  174.8810  136.7750 O   0  0  0  0  0  0  0  0  0  0  0  0
  197.3880  174.7730  135.4360 C   0  0  0  0  0  2  0  0  0  0  0  0
  194.6080  174.1070  137.6720 C   0  0  2  0  0  3  0  0  0  0  0  0
  195.3740  173.6670  138.7370 F   0  0  0  0  0  0  0  0  0  0  0  0
  195.0070  173.4120  136.4600 N   0  0  0  0  0  1  0  0  0  0  0  0
  188.9460  178.6190  139.3840 C   0  0  0  0  0  2  0  0  0  0  0  0
  188.0870  177.8030  138.4250 C   0  0  0  0  0  2  0  0  0  0  0  0
  189.0210  177.2400  137.3740 C   0  0  0  0  0  2  0  0  0  0  0  0
  188.2440  176.6220  136.1970 C   0  0  0  0  0  2  0  0  0  0  0  0
  184.5830  176.2160  135.8000 N   0  0  0  0  0  0  0  0  0  0  0  0
  179.1360  176.8900  138.1520 C   0  0  0  0  0  1  0  0  0  0  0  0
  186.8330  176.4990  136.5280 N   0  0  0  0  0  0  0  0  0  0  0  0
  182.3910  176.7110  135.4750 C   0  0  0  0  0  0  0  0  0  0  0  0
  180.2240  177.4370  137.2450 C   0  0  1  0  0  3  0  0  0  0  0  0
  183.9710  176.3630  137.0530 N   0  0  0  0  0  0  0  0  0  0  0  0
  181.6570  177.2290  137.8160 C   0  0  1  0  0  3  0  0  0  0  0  0
  182.6090  176.6710  136.7840 C   0  0  0  0  0  0  0  0  0  0  0  0
  183.6260  176.4000  134.7220 C   0  0  0  0  0  3  0  0  0  0  0  0
  179.9790  177.1660  135.7340 C   0  0  1  0  0  3  0  0  0  0  0  0
  185.9770  176.3720  135.5650 C   0  0  0  0  0  3  0  0  0  0  0  0
  181.2270  177.4270  134.8930 C   0  0  0  0  0  2  0  0  0  0  0  0
  181.4640  179.6130  138.7600 C   0  0  0  0  0  0  0  0  0  0  0  0
  182.2150  178.4930  138.2880 N   0  0  0  0  0  2  0  0  0  0  0  0
  180.2060  179.5570  138.8270 O   0  0  0  0  0  0  0  0  0  0  0  0
  183.6110  180.4460  139.6140 C   0  0  0  0  0  1  0  0  0  0  0  0
  182.1940  180.8310  139.2150 C   0  0  0  0  0  3  0  0  0  0  0  0
  182.2500  181.8890  138.1240 C   0  0  0  0  0  1  0  0  0  0  0  0
  179.3540  175.7950  135.4210 C   0  0  0  0  0  2  0  0  0  0  0  0
  180.0870  174.6640  136.1350 C   0  0  0  0  0  2  0  0  0  0  0  0
  179.7740  173.3240  135.4770 C   0  0  0  0  0  2  0  0  0  0  0  0
  179.8570  172.0900  137.7090 C   0  0  0  0  0  1  0  0  0  0  0  0
  180.3210  172.0980  136.2420 C   0  0  2  0  0  0  0  0  0  0  0  0
  182.4440  172.5130  135.1450 O   0  0  0  0  0  0  0  0  0  0  0  0
  181.8410  172.1100  136.1880 C   0  0  0  0  0  0  0  0  0  0  0  0
  182.5880  171.7090  137.2980 O   0  0  0  0  0  1  0  0  0  0  0  0
  180.7730  169.7550  135.2390 C   0  0  0  0  0  1  0  0  0  0  0  0
  179.7380  170.8500  135.5550 C   0  0  0  0  0  2  0  0  0  0  0  0
  1 25  1  6  0  0  0
  1  5  1  0  0  0  0
  2 21  1  0  0  0  0
  2  4  1  1  0  0  0
  3  7  1  0  0  0  0
  5  9  1  0  0  0  0
  5  3  2  0  0  0  0
  6 11  1  1  0  0  0
  6  8  1  0  0  0  0
  7  2  1  0  0  0  0
  8  2  1  0  0  0  0
  9  6  1  0  0  0  0
 11 10  1  1  0  0  0
 12 15  1  0  0  0  0
 12 11  1  0  0  0  0
 13 12  1  0  0  0  0
 14 12  1  0  0  0  0
 16 15  1  0  0  0  0
 17 19  1  0  0  0  0
 17 16  1  0  0  0  0
 19 18  1  0  0  0  0
 20 19  2  0  0  0  0
 21 22  1  0  0  0  0
 22 24  1  0  0  0  0
 24 23  1  0  0  0  0
 26 25  1  0  0  0  0
 26 27  1  1  0  0  0
 28 26  1  0  0  0  0
 29 28  1  0  0  0  0
 30 29  1  6  0  0  0
 30 36  1  0  0  0  0
 31 35  1  0  0  0  0
 31 33  1  0  0  0  0
 32 30  1  6  0  0  0
 33 32  1  0  0  0  0
 34 32  1  0  0  0  0
 35 34  1  0  0  0  0
 36 38  1  6  0  0  0
 36 37  1  0  0  0  0
 39  1  1  0  0  0  0
 40 39  1  0  0  0  0
 41 40  1  0  0  0  0
 42 45  1  0  0  0  0
 42 41  1  0  0  0  0
 43 48  1  0  0  0  0
 46 50  1  0  0  0  0
 47 49  1  0  0  0  0
 47 44  1  1  0  0  0
 49 56  1  6  0  0  0
 50 48  2  0  0  0  0
 50 49  1  0  0  0  0
 51 46  2  0  0  0  0
 51 43  1  0  0  0  0
 52 61  1  1  0  0  0
 52 47  1  0  0  0  0
 53 43  1  0  0  0  0
 53 45  2  0  0  0  0
 54 46  1  0  0  0  0
 54 52  1  0  0  0  0
 55 57  2  0  0  0  0
 55 59  1  0  0  0  0
 56 55  1  0  0  0  0
 59 58  1  0  0  0  0
 60 59  1  0  0  0  0
 61 62  1  0  0  0  0
 63 62  1  0  0  0  0
 63 65  1  0  0  0  0
 65 64  1  1  0  0  0
 66 67  2  0  0  0  0
 67 65  1  0  0  0  0
 67 68  1  0  0  0  0
 69 70  1  0  0  0  0
 70 65  1  0  0  0  0
M  END
>  <MODEL>
9

>  <REMARK>
 VINA RESULT:      -1.6      2.869      9.065
  Name = 
  29 active torsions:
  status: ('A' for Active; 'I' for Inactive)
    1  A    between atoms: C_1  and  C_46
    2  A    between atoms: C_1  and  C_65
    3  A    between atoms: N_2  and  C_15
    4  A    between atoms: C_3  and  O_5
    5  A    between atoms: C_3  and  C_13
    6  A    between atoms: C_3  and  C_27
    7  A    between atoms: O_5  and  C_60
    8  A    between atoms: C_8  and  C_23
    9  A    between atoms: C_9  and  N_17
   10  A    between atoms: C_9  and  C_46
   11  A    between atoms: C_14  and  C_20
   12  A    between atoms: C_14  and  C_56
   13  A    between atoms: C_15  and  C_69
   14  A    between atoms: C_16  and  C_32
   15  A    between atoms: C_20  and  C_24
   16  A    between atoms: C_21  and  C_23
   17  A    between atoms: C_21  and  C_38
   18  A    between atoms: C_24  and  C_55
   19  A    between atoms: C_31  and  N_63
   20  A    between atoms: C_33  and  C_56
   21  A    between atoms: C_37  and  C_41
   22  A    between atoms: C_37  and  C_69
   23  A    between atoms: C_40  and  C_56
   24  A    between atoms: C_41  and  C_57
   25  A    between atoms: C_43  and  C_47
   26  A    between atoms: C_43  and  C_51
   27  A    between atoms: C_43  and  C_65
   28  A    between atoms: C_47  and  C_48
   29  A    between atoms: C_48  and  C_60
                            x       y       z     vdW  Elec       q    Type
                         _______ _______ _______ _____ _____    ______ ____

>  <TORSDO>
F 29

$$$$
