=
 OpenBabel11062413043D

 40 44  0  0  1  0  0  0  0  0999 V2000
  181.9880  178.4380  141.3980 C   0  0  1  0  0  3  0  0  0  0  0  0
  184.3740  179.0700  139.4340 C   0  0  2  0  0  0  0  0  0  0  0  0
  185.2300  179.6520  140.3790 O   0  0  0  0  0  0  0  0  0  0  0  0
  181.8830  178.0150  139.9860 N   0  0  0  0  0  0  0  0  0  0  0  0
  183.1740  179.9370  139.0600 C   0  0  0  0  0  2  0  0  0  0  0  0
  184.5090  178.5090  140.8030 C   0  0  1  0  0  3  0  0  0  0  0  0
  185.0790  178.4170  138.4240 O   0  0  0  0  0  1  0  0  0  0  0  0
  181.8800  179.1130  139.0060 C   0  0  0  0  0  2  0  0  0  0  0  0
  183.3940  178.9580  141.7560 C   0  0  2  0  0  3  0  0  0  0  0  0
  180.9410  179.4820  141.7810 C   0  0  0  0  0  1  0  0  0  0  0  0
  183.7600  178.5720  143.1810 C   0  0  0  0  0  2  0  0  0  0  0  0
  185.2730  178.5410  143.3850 C   0  0  0  0  0  2  0  0  0  0  0  0
  185.6920  177.8820  144.7070 C   0  0  2  0  0  3  0  0  0  0  0  0
  185.9340  178.8900  145.7880 C   0  0  0  0  0  3  0  0  0  0  0  0
  185.6470  178.6170  147.0590 C   0  0  0  0  0  2  0  0  0  0  0  0
  186.8310  177.0910  144.5290 O   0  0  0  0  0  0  0  0  0  0  0  0
  189.0350  177.6500  143.7160 C   0  0  1  0  0  0  0  0  0  0  0  0
  187.5280  177.6880  143.4740 C   0  0  1  0  0  3  0  0  0  0  0  0
  188.2960  175.3490  143.2120 F   0  0  0  0  0  0  0  0  0  0  0  0
  189.6160  177.1340  145.0060 C   0  0  0  0  0  2  0  0  0  0  0  0
  188.5970  176.8900  141.4170 F   0  0  0  0  0  0  0  0  0  0  0  0
  188.4090  176.6550  142.7680 C   0  0  0  0  0  0  0  0  0  0  0  0
  190.7920  178.9710  144.0290 C   0  0  0  0  0  2  0  0  0  0  0  0
  190.9490  177.8210  145.0120 C   0  0  0  0  0  2  0  0  0  0  0  0
  189.7760  178.6650  143.1030 O   0  0  0  0  0  0  0  0  0  0  0  0
  180.7760  177.0740  139.7770 C   0  0  0  0  0  2  0  0  0  0  0  0
  181.2300  175.6350  139.5180 C   0  0  1  0  0  3  0  0  0  0  0  0
  180.4090  174.7620  140.2340 O   0  0  0  0  0  1  0  0  0  0  0  0
  181.1450  175.3320  138.0220 C   0  0  2  0  0  3  0  0  0  0  0  0
  180.9270  173.9670  137.8050 O   0  0  0  0  0  1  0  0  0  0  0  0
  184.6430  176.7880  135.3060 C   0  0  0  0  0  3  0  0  0  0  0  0
  185.4050  175.8880  136.2300 C   0  0  0  0  0  2  0  0  0  0  0  0
  184.5760  174.7340  136.7570 C   0  0  2  0  0  3  0  0  0  0  0  0
  182.2800  176.5890  136.2440 C   0  0  0  0  0  3  0  0  0  0  0  0
  183.6880  175.2890  137.8520 C   0  0  0  0  0  2  0  0  0  0  0  0
  183.3390  177.0920  135.3390 C   0  0  0  0  0  3  0  0  0  0  0  0
  182.3870  175.7780  137.3080 C   0  0  0  0  0  0  0  0  0  0  0  0
  185.4720  173.6690  137.3000 C   0  0  0  0  0  0  0  0  0  0  0  0
  186.8680  173.7210  137.0240 N   0  0  0  0  0  1  0  0  0  0  0  0
  185.0090  172.7500  138.0310 O   0  0  0  0  0  0  0  0  0  0  0  0
  1  9  1  0  0  0  0
  1 10  1  6  0  0  0
  2  7  1  6  0  0  0
  2  3  1  0  0  0  0
  2  6  1  0  0  0  0
  4  1  1  0  0  0  0
  5  2  1  0  0  0  0
  6  3  1  1  0  0  0
  6  9  1  0  0  0  0
  8  5  1  0  0  0  0
  8  4  1  0  0  0  0
  9 11  1  1  0  0  0
 11 12  1  0  0  0  0
 13 12  1  6  0  0  0
 13 14  1  0  0  0  0
 14 15  2  0  0  0  0
 16 13  1  0  0  0  0
 17 20  1  1  0  0  0
 18 17  1  0  0  0  0
 18 16  1  1  0  0  0
 20 24  1  0  0  0  0
 21 22  1  0  0  0  0
 22 19  1  0  0  0  0
 22 18  1  0  0  0  0
 22 17  1  0  0  0  0
 23 24  1  0  0  0  0
 25 17  1  0  0  0  0
 25 23  1  0  0  0  0
 26  4  1  0  0  0  0
 27 26  1  0  0  0  0
 27 28  1  1  0  0  0
 29 30  1  1  0  0  0
 29 27  1  0  0  0  0
 31 36  2  0  0  0  0
 31 32  1  0  0  0  0
 32 33  1  0  0  0  0
 33 38  1  1  0  0  0
 33 35  1  0  0  0  0
 34 37  2  0  0  0  0
 36 34  1  0  0  0  0
 37 35  1  0  0  0  0
 37 29  1  0  0  0  0
 38 40  2  0  0  0  0
 39 38  1  0  0  0  0
M  END
>  <MODEL>
1

>  <REMARK>
 VINA RESULT:      -7.9      0.000      0.000
  Name = 
  11 active torsions:
  status: ('A' for Active; 'I' for Inactive)
    1  A    between atoms: C_4  and  C_6
    2  A    between atoms: C_4  and  C_35
    3  A    between atoms: C_5  and  C_36
    4  A    between atoms: C_6  and  C_36
    5  A    between atoms: C_8  and  C_19
    6  A    between atoms: C_8  and  C_22
    7  A    between atoms: C_9  and  O_21
    8  A    between atoms: C_10  and  C_12
    9  A    between atoms: C_19  and  N_20
   10  A    between atoms: O_21  and  C_36
   11  A    between atoms: C_22  and  C_34
                            x       y       z     vdW  Elec       q    Type
                         _______ _______ _______ _____ _____    ______ ____

>  <TORSDO>
F 11

$$$$
=
 OpenBabel11062413043D

 40 44  0  0  1  0  0  0  0  0999 V2000
  187.0430  178.2340  137.4660 C   0  0  1  0  0  3  0  0  0  0  0  0
  187.5530  175.1850  136.8390 C   0  0  2  0  0  0  0  0  0  0  0  0
  188.9520  175.2200  136.9180 O   0  0  0  0  0  0  0  0  0  0  0  0
  185.8820  177.3380  137.2810 N   0  0  0  0  0  0  0  0  0  0  0  0
  186.9800  175.8640  135.5960 C   0  0  0  0  0  2  0  0  0  0  0  0
  188.2480  175.9780  137.8850 C   0  0  1  0  0  3  0  0  0  0  0  0
  187.0390  173.9510  137.2340 O   0  0  0  0  0  1  0  0  0  0  0  0
  185.7670  176.7380  135.9420 C   0  0  0  0  0  2  0  0  0  0  0  0
  188.3780  177.4650  137.5340 C   0  0  2  0  0  3  0  0  0  0  0  0
  187.1290  179.3190  136.3940 C   0  0  0  0  0  1  0  0  0  0  0  0
  189.3310  178.1350  138.5120 C   0  0  0  0  0  2  0  0  0  0  0  0
  189.4000  177.3790  139.8370 C   0  0  0  0  0  2  0  0  0  0  0  0
  190.8120  177.3370  140.4370 C   0  0  2  0  0  3  0  0  0  0  0  0
  191.8540  177.0250  139.4070 C   0  0  0  0  0  3  0  0  0  0  0  0
  193.1420  177.2790  139.6340 C   0  0  0  0  0  2  0  0  0  0  0  0
  190.8810  176.4090  141.4810 O   0  0  0  0  0  0  0  0  0  0  0  0
  189.8860  176.9540  143.6120 C   0  0  1  0  0  0  0  0  0  0  0  0
  191.0420  177.1740  142.6390 C   0  0  1  0  0  3  0  0  0  0  0  0
  191.2640  174.9050  143.6050 F   0  0  0  0  0  0  0  0  0  0  0  0
  188.6970  176.1040  143.2470 C   0  0  0  0  0  2  0  0  0  0  0  0
  191.9970  176.7920  144.8640 F   0  0  0  0  0  0  0  0  0  0  0  0
  191.2070  176.2650  143.8590 C   0  0  0  0  0  0  0  0  0  0  0  0
  188.2020  178.0130  144.5980 C   0  0  0  0  0  2  0  0  0  0  0  0
  187.6580  176.6560  144.1770 C   0  0  0  0  0  2  0  0  0  0  0  0
  189.6040  178.0180  144.4740 O   0  0  0  0  0  0  0  0  0  0  0  0
  184.6310  177.9650  137.7250 C   0  0  0  0  0  2  0  0  0  0  0  0
  184.6700  178.4640  139.1720 C   0  0  1  0  0  3  0  0  0  0  0  0
  184.5980  179.8580  139.1760 O   0  0  0  0  0  1  0  0  0  0  0  0
  183.4960  177.8730  139.9510 C   0  0  2  0  0  3  0  0  0  0  0  0
  182.2820  178.1820  139.3280 O   0  0  0  0  0  1  0  0  0  0  0  0
  183.8590  178.9190  144.4790 C   0  0  0  0  0  3  0  0  0  0  0  0
  182.4640  179.4010  144.2250 C   0  0  0  0  0  2  0  0  0  0  0  0
  181.7550  178.6260  143.1340 C   0  0  2  0  0  3  0  0  0  0  0  0
  184.5390  178.0980  142.1620 C   0  0  0  0  0  3  0  0  0  0  0  0
  182.2890  179.1330  141.8100 C   0  0  0  0  0  2  0  0  0  0  0  0
  184.7260  178.3990  143.6010 C   0  0  0  0  0  3  0  0  0  0  0  0
  183.4880  178.3600  141.3710 C   0  0  0  0  0  0  0  0  0  0  0  0
  180.2800  178.8520  143.2240 C   0  0  0  0  0  0  0  0  0  0  0  0
  179.7540  180.1510  142.9720 N   0  0  0  0  0  1  0  0  0  0  0  0
  179.4980  177.8960  143.4830 O   0  0  0  0  0  0  0  0  0  0  0  0
  1 10  1  6  0  0  0
  1  9  1  0  0  0  0
  2  3  1  0  0  0  0
  2  7  1  1  0  0  0
  2  6  1  0  0  0  0
  4  1  1  0  0  0  0
  4 26  1  0  0  0  0
  5  8  1  0  0  0  0
  5  2  1  0  0  0  0
  6  3  1  6  0  0  0
  8  4  1  0  0  0  0
  9  6  1  0  0  0  0
  9 11  1  1  0  0  0
 11 12  1  0  0  0  0
 12 13  1  0  0  0  0
 13 14  1  6  0  0  0
 13 16  1  0  0  0  0
 14 15  2  0  0  0  0
 17 20  1  6  0  0  0
 17 22  1  0  0  0  0
 17 25  1  0  0  0  0
 18 16  1  6  0  0  0
 18 17  1  0  0  0  0
 18 22  1  0  0  0  0
 19 22  1  0  0  0  0
 20 24  1  0  0  0  0
 22 21  1  0  0  0  0
 24 23  1  0  0  0  0
 25 23  1  0  0  0  0
 26 27  1  0  0  0  0
 27 28  1  6  0  0  0
 27 29  1  0  0  0  0
 29 30  1  6  0  0  0
 29 37  1  0  0  0  0
 32 31  1  0  0  0  0
 33 38  1  6  0  0  0
 33 32  1  0  0  0  0
 34 36  1  0  0  0  0
 35 33  1  0  0  0  0
 36 31  2  0  0  0  0
 37 35  1  0  0  0  0
 37 34  2  0  0  0  0
 38 40  2  0  0  0  0
 39 38  1  0  0  0  0
M  END
>  <MODEL>
2

>  <REMARK>
 VINA RESULT:      -7.8      2.821      6.418
  Name = 
  11 active torsions:
  status: ('A' for Active; 'I' for Inactive)
    1  A    between atoms: C_4  and  C_6
    2  A    between atoms: C_4  and  C_35
    3  A    between atoms: C_5  and  C_36
    4  A    between atoms: C_6  and  C_36
    5  A    between atoms: C_8  and  C_19
    6  A    between atoms: C_8  and  C_22
    7  A    between atoms: C_9  and  O_21
    8  A    between atoms: C_10  and  C_12
    9  A    between atoms: C_19  and  N_20
   10  A    between atoms: O_21  and  C_36
   11  A    between atoms: C_22  and  C_34
                            x       y       z     vdW  Elec       q    Type
                         _______ _______ _______ _____ _____    ______ ____

>  <TORSDO>
F 11

$$$$
=
 OpenBabel11062413043D

 40 44  0  0  1  0  0  0  0  0999 V2000
  188.6370  177.4830  142.5460 C   0  0  1  0  0  3  0  0  0  0  0  0
  190.3530  177.8170  145.1710 C   0  0  2  0  0  0  0  0  0  0  0  0
  189.3160  178.2570  146.0050 O   0  0  0  0  0  0  0  0  0  0  0  0
  190.0650  177.1060  142.5190 N   0  0  0  0  0  0  0  0  0  0  0  0
  190.8060  178.8490  144.1400 C   0  0  0  0  0  2  0  0  0  0  0  0
  188.9960  177.2170  145.0990 C   0  0  1  0  0  3  0  0  0  0  0  0
  191.3150  177.0930  145.8730 O   0  0  0  0  0  1  0  0  0  0  0  0
  191.0050  178.2130  142.7580 C   0  0  0  0  0  2  0  0  0  0  0  0
  188.1350  177.7970  143.9700 C   0  0  2  0  0  3  0  0  0  0  0  0
  188.3170  178.6540  141.6180 C   0  0  0  0  0  1  0  0  0  0  0  0
  186.6960  177.3360  144.1430 C   0  0  0  0  0  2  0  0  0  0  0  0
  185.8340  177.7200  142.9420 C   0  0  0  0  0  2  0  0  0  0  0  0
  184.9920  178.9820  143.1790 C   0  0  2  0  0  3  0  0  0  0  0  0
  184.1450  178.8730  144.4090 C   0  0  0  0  0  3  0  0  0  0  0  0
  182.8160  178.8510  144.3270 C   0  0  0  0  0  2  0  0  0  0  0  0
  184.1880  179.2590  142.0690 O   0  0  0  0  0  0  0  0  0  0  0  0
  183.1740  177.9430  140.3170 C   0  0  1  0  0  0  0  0  0  0  0  0
  184.4030  178.1950  141.1890 C   0  0  1  0  0  3  0  0  0  0  0  0
  184.2140  180.0510  139.5610 F   0  0  0  0  0  0  0  0  0  0  0  0
  181.8900  178.7010  140.5230 C   0  0  0  0  0  2  0  0  0  0  0  0
  185.1630  177.9770  138.8690 F   0  0  0  0  0  0  0  0  0  0  0  0
  184.3560  178.6860  139.7400 C   0  0  0  0  0  0  0  0  0  0  0  0
  181.6250  176.4160  139.8750 C   0  0  0  0  0  2  0  0  0  0  0  0
  180.8990  177.7520  139.9160 C   0  0  0  0  0  2  0  0  0  0  0  0
  183.0150  176.6340  139.8530 O   0  0  0  0  0  0  0  0  0  0  0  0
  190.4040  176.3310  141.3190 C   0  0  0  0  0  2  0  0  0  0  0  0
  190.9560  177.1800  140.1720 C   0  0  1  0  0  3  0  0  0  0  0  0
  192.2910  177.4940  140.4370 O   0  0  0  0  0  1  0  0  0  0  0  0
  190.8490  176.4040  138.8600 C   0  0  2  0  0  3  0  0  0  0  0  0
  192.0710  176.4090  138.1780 O   0  0  0  0  0  1  0  0  0  0  0  0
  187.4620  178.6190  136.5450 C   0  0  0  0  0  3  0  0  0  0  0  0
  187.1170  177.2050  136.1940 C   0  0  0  0  0  2  0  0  0  0  0  0
  187.5080  176.2110  137.2690 C   0  0  2  0  0  3  0  0  0  0  0  0
  189.5440  178.2900  137.9800 C   0  0  0  0  0  3  0  0  0  0  0  0
  189.0020  175.9920  137.1510 C   0  0  0  0  0  2  0  0  0  0  0  0
  188.4950  179.0610  137.2740 C   0  0  0  0  0  3  0  0  0  0  0  0
  189.7660  176.9670  137.9850 C   0  0  0  0  0  0  0  0  0  0  0  0
  186.7730  174.9250  137.0650 C   0  0  0  0  0  0  0  0  0  0  0  0
  187.5010  173.7490  136.7270 N   0  0  0  0  0  1  0  0  0  0  0  0
  185.5230  174.8660  137.2290 O   0  0  0  0  0  0  0  0  0  0  0  0
  1 10  1  6  0  0  0
  1  9  1  0  0  0  0
  2  7  1  1  0  0  0
  2  3  1  0  0  0  0
  4  1  1  0  0  0  0
  4  8  1  0  0  0  0
  5  2  1  0  0  0  0
  6  2  1  0  0  0  0
  6  3  1  1  0  0  0
  8  5  1  0  0  0  0
  9 11  1  6  0  0  0
  9  6  1  0  0  0  0
 12 11  1  0  0  0  0
 13 12  1  6  0  0  0
 13 14  1  0  0  0  0
 15 14  2  0  0  0  0
 16 13  1  0  0  0  0
 17 20  1  1  0  0  0
 17 18  1  0  0  0  0
 18 16  1  1  0  0  0
 19 22  1  0  0  0  0
 21 22  1  0  0  0  0
 22 17  1  0  0  0  0
 22 18  1  0  0  0  0
 23 24  1  0  0  0  0
 24 20  1  0  0  0  0
 25 23  1  0  0  0  0
 25 17  1  0  0  0  0
 26  4  1  0  0  0  0
 27 28  1  1  0  0  0
 27 26  1  0  0  0  0
 29 30  1  6  0  0  0
 29 27  1  0  0  0  0
 31 36  2  0  0  0  0
 32 31  1  0  0  0  0
 32 33  1  0  0  0  0
 33 38  1  6  0  0  0
 34 37  2  0  0  0  0
 35 33  1  0  0  0  0
 35 37  1  0  0  0  0
 36 34  1  0  0  0  0
 37 29  1  0  0  0  0
 38 40  2  0  0  0  0
 39 38  1  0  0  0  0
M  END
>  <MODEL>
3

>  <REMARK>
 VINA RESULT:      -7.6      3.023      7.113
  Name = 
  11 active torsions:
  status: ('A' for Active; 'I' for Inactive)
    1  A    between atoms: C_4  and  C_6
    2  A    between atoms: C_4  and  C_35
    3  A    between atoms: C_5  and  C_36
    4  A    between atoms: C_6  and  C_36
    5  A    between atoms: C_8  and  C_19
    6  A    between atoms: C_8  and  C_22
    7  A    between atoms: C_9  and  O_21
    8  A    between atoms: C_10  and  C_12
    9  A    between atoms: C_19  and  N_20
   10  A    between atoms: O_21  and  C_36
   11  A    between atoms: C_22  and  C_34
                            x       y       z     vdW  Elec       q    Type
                         _______ _______ _______ _____ _____    ______ ____

>  <TORSDO>
F 11

$$$$
=
 OpenBabel11062413043D

 40 44  0  0  1  0  0  0  0  0999 V2000
  182.0650  178.7910  139.4340 C   0  0  1  0  0  3  0  0  0  0  0  0
  180.3730  176.1370  139.6430 C   0  0  2  0  0  0  0  0  0  0  0  0
  180.3590  175.8290  138.2760 O   0  0  0  0  0  0  0  0  0  0  0  0
  181.6620  178.3040  140.7690 N   0  0  0  0  0  0  0  0  0  0  0  0
  179.4920  177.3250  140.0260 C   0  0  0  0  0  2  0  0  0  0  0  0
  181.5780  176.3270  138.7960 C   0  0  1  0  0  3  0  0  0  0  0  0
  180.3460  174.9910  140.4360 O   0  0  0  0  0  1  0  0  0  0  0  0
  180.2100  178.2640  141.0050 C   0  0  0  0  0  2  0  0  0  0  0  0
  181.7620  177.7720  138.3170 C   0  0  2  0  0  3  0  0  0  0  0  0
  181.4390  180.1390  139.0830 C   0  0  0  0  0  1  0  0  0  0  0  0
  182.8410  177.8170  137.2460 C   0  0  0  0  0  2  0  0  0  0  0  0
  184.1470  177.1950  137.7370 C   0  0  0  0  0  2  0  0  0  0  0  0
  184.7830  176.2400  136.7170 C   0  0  2  0  0  3  0  0  0  0  0  0
  184.5440  174.8030  137.0650 C   0  0  0  0  0  3  0  0  0  0  0  0
  185.5550  173.9930  137.3750 C   0  0  0  0  0  2  0  0  0  0  0  0
  186.1560  176.4790  136.6010 O   0  0  0  0  0  0  0  0  0  0  0  0
  187.6950  177.8000  137.9110 C   0  0  1  0  0  0  0  0  0  0  0  0
  186.3570  177.7360  137.1770 C   0  0  1  0  0  3  0  0  0  0  0  0
  188.1660  177.7590  135.4870 F   0  0  0  0  0  0  0  0  0  0  0  0
  188.5740  176.5860  138.0580 C   0  0  0  0  0  2  0  0  0  0  0  0
  187.4840  179.8060  136.5020 F   0  0  0  0  0  0  0  0  0  0  0  0
  187.5660  178.4250  136.5420 C   0  0  0  0  0  0  0  0  0  0  0  0
  188.5730  178.0690  139.9320 C   0  0  0  0  0  2  0  0  0  0  0  0
  189.3770  176.9620  139.2680 C   0  0  0  0  0  2  0  0  0  0  0  0
  187.7660  178.7080  138.9710 O   0  0  0  0  0  0  0  0  0  0  0  0
  182.3870  178.9910  141.8450 C   0  0  0  0  0  2  0  0  0  0  0  0
  183.6390  178.2490  142.3180 C   0  0  1  0  0  3  0  0  0  0  0  0
  184.1870  177.5480  141.2430 O   0  0  0  0  0  1  0  0  0  0  0  0
  184.6540  179.2520  142.8660 C   0  0  2  0  0  3  0  0  0  0  0  0
  185.5930  179.5930  141.8870 O   0  0  0  0  0  1  0  0  0  0  0  0
  186.6810  178.1110  146.9070 C   0  0  0  0  0  3  0  0  0  0  0  0
  187.5240  177.3020  145.9700 C   0  0  0  0  0  2  0  0  0  0  0  0
  187.6510  177.9240  144.5940 C   0  0  2  0  0  3  0  0  0  0  0  0
  185.0280  179.1910  145.2930 C   0  0  0  0  0  3  0  0  0  0  0  0
  186.3600  177.6360  143.8550 C   0  0  0  0  0  2  0  0  0  0  0  0
  185.6230  178.8780  146.6120 C   0  0  0  0  0  3  0  0  0  0  0  0
  185.3480  178.7090  144.0820 C   0  0  0  0  0  0  0  0  0  0  0  0
  188.8130  177.3250  143.8690 C   0  0  0  0  0  0  0  0  0  0  0  0
  188.6180  176.1570  143.0780 N   0  0  0  0  0  1  0  0  0  0  0  0
  189.9520  177.8670  143.9210 O   0  0  0  0  0  0  0  0  0  0  0  0
  1 10  1  6  0  0  0
  1  4  1  0  0  0  0
  2  5  1  0  0  0  0
  2  7  1  1  0  0  0
  3  2  1  0  0  0  0
  4  8  1  0  0  0  0
  4 26  1  0  0  0  0
  5  8  1  0  0  0  0
  6  3  1  6  0  0  0
  6  2  1  0  0  0  0
  9 11  1  6  0  0  0
  9  6  1  0  0  0  0
  9  1  1  0  0  0  0
 11 12  1  0  0  0  0
 13 14  1  1  0  0  0
 13 12  1  0  0  0  0
 14 15  2  0  0  0  0
 16 13  1  0  0  0  0
 17 20  1  1  0  0  0
 17 25  1  0  0  0  0
 18 16  1  6  0  0  0
 18 17  1  0  0  0  0
 19 22  1  0  0  0  0
 20 24  1  0  0  0  0
 21 22  1  0  0  0  0
 22 18  1  0  0  0  0
 22 17  1  0  0  0  0
 24 23  1  0  0  0  0
 25 23  1  0  0  0  0
 26 27  1  0  0  0  0
 27 28  1  6  0  0  0
 27 29  1  0  0  0  0
 29 30  1  6  0  0  0
 29 37  1  0  0  0  0
 32 31  1  0  0  0  0
 33 38  1  6  0  0  0
 33 32  1  0  0  0  0
 34 36  1  0  0  0  0
 35 37  1  0  0  0  0
 35 33  1  0  0  0  0
 36 31  2  0  0  0  0
 37 34  2  0  0  0  0
 38 40  2  0  0  0  0
 39 38  1  0  0  0  0
M  END
>  <MODEL>
4

>  <REMARK>
 VINA RESULT:      -7.6      2.477      7.038
  Name = 
  11 active torsions:
  status: ('A' for Active; 'I' for Inactive)
    1  A    between atoms: C_4  and  C_6
    2  A    between atoms: C_4  and  C_35
    3  A    between atoms: C_5  and  C_36
    4  A    between atoms: C_6  and  C_36
    5  A    between atoms: C_8  and  C_19
    6  A    between atoms: C_8  and  C_22
    7  A    between atoms: C_9  and  O_21
    8  A    between atoms: C_10  and  C_12
    9  A    between atoms: C_19  and  N_20
   10  A    between atoms: O_21  and  C_36
   11  A    between atoms: C_22  and  C_34
                            x       y       z     vdW  Elec       q    Type
                         _______ _______ _______ _____ _____    ______ ____

>  <TORSDO>
F 11

$$$$
=
 OpenBabel11062413043D

 40 44  0  0  1  0  0  0  0  0999 V2000
  188.3660  177.3990  143.5240 C   0  0  1  0  0  3  0  0  0  0  0  0
  191.4240  178.1230  143.7930 C   0  0  2  0  0  0  0  0  0  0  0  0
  191.7810  177.8790  142.4600 O   0  0  0  0  0  0  0  0  0  0  0  0
  188.8730  177.8890  144.8220 N   0  0  0  0  0  0  0  0  0  0  0  0
  191.1340  176.8610  144.6040 C   0  0  0  0  0  2  0  0  0  0  0  0
  190.5390  178.5250  142.6710 C   0  0  1  0  0  3  0  0  0  0  0  0
  192.1990  179.1310  144.3650 O   0  0  0  0  0  1  0  0  0  0  0  0
  189.8750  177.0230  145.4660 C   0  0  0  0  0  2  0  0  0  0  0  0
  189.4110  177.5220  142.3970 C   0  0  2  0  0  3  0  0  0  0  0  0
  187.8520  175.9620  143.5940 C   0  0  0  0  0  1  0  0  0  0  0  0
  188.7370  177.8660  141.0780 C   0  0  0  0  0  2  0  0  0  0  0  0
  189.4260  177.1820  139.8990 C   0  0  0  0  0  2  0  0  0  0  0  0
  189.4460  178.0430  138.6270 C   0  0  2  0  0  3  0  0  0  0  0  0
  188.0720  178.2640  138.0730 C   0  0  0  0  0  3  0  0  0  0  0  0
  187.2070  177.2580  137.9620 C   0  0  0  0  0  2  0  0  0  0  0  0
  190.2670  177.4680  137.6520 O   0  0  0  0  0  0  0  0  0  0  0  0
  190.2850  175.1190  137.0930 C   0  0  1  0  0  0  0  0  0  0  0  0
  190.5750  176.1950  138.1380 C   0  0  1  0  0  3  0  0  0  0  0  0
  192.2730  176.3790  136.3450 F   0  0  0  0  0  0  0  0  0  0  0  0
  189.6330  175.4520  135.7770 C   0  0  0  0  0  2  0  0  0  0  0  0
  192.5230  174.7100  138.0300 F   0  0  0  0  0  0  0  0  0  0  0  0
  191.7070  175.5730  137.3190 C   0  0  0  0  0  0  0  0  0  0  0  0
  189.0050  173.3460  136.7150 C   0  0  0  0  0  2  0  0  0  0  0  0
  189.0440  174.1230  135.4080 C   0  0  0  0  0  2  0  0  0  0  0  0
  189.9830  173.8500  137.5940 O   0  0  0  0  0  0  0  0  0  0  0  0
  187.7810  178.2560  145.7330 C   0  0  0  0  0  2  0  0  0  0  0  0
  186.3970  177.8260  145.2410 C   0  0  1  0  0  3  0  0  0  0  0  0
  185.7480  177.1250  146.2600 O   0  0  0  0  0  1  0  0  0  0  0  0
  185.5840  179.0600  144.8500 C   0  0  2  0  0  3  0  0  0  0  0  0
  184.6540  179.3780  145.8470 O   0  0  0  0  0  1  0  0  0  0  0  0
  183.8260  178.8230  140.5390 C   0  0  0  0  0  3  0  0  0  0  0  0
  182.5790  178.5680  141.3290 C   0  0  0  0  0  2  0  0  0  0  0  0
  182.5830  179.2440  142.6850 C   0  0  2  0  0  3  0  0  0  0  0  0
  185.5590  179.0600  142.3950 C   0  0  0  0  0  3  0  0  0  0  0  0
  183.4620  178.4110  143.5950 C   0  0  0  0  0  2  0  0  0  0  0  0
  185.0710  179.0020  140.9970 C   0  0  0  0  0  3  0  0  0  0  0  0
  184.8860  178.8550  143.5370 C   0  0  0  0  0  0  0  0  0  0  0  0
  181.1910  179.3140  143.2230 C   0  0  0  0  0  0  0  0  0  0  0  0
  180.3350  180.3770  142.8170 N   0  0  0  0  0  1  0  0  0  0  0  0
  180.7570  178.4200  144.0020 O   0  0  0  0  0  0  0  0  0  0  0  0
  1 10  1  1  0  0  0
  1  4  1  0  0  0  0
  2  7  1  1  0  0  0
  2  5  1  0  0  0  0
  3  2  1  0  0  0  0
  4  8  1  0  0  0  0
  4 26  1  0  0  0  0
  5  8  1  0  0  0  0
  6  3  1  6  0  0  0
  6  2  1  0  0  0  0
  9 11  1  6  0  0  0
  9  6  1  0  0  0  0
  9  1  1  0  0  0  0
 12 11  1  0  0  0  0
 13 14  1  6  0  0  0
 13 12  1  0  0  0  0
 15 14  2  0  0  0  0
 16 13  1  0  0  0  0
 17 20  1  6  0  0  0
 17 22  1  0  0  0  0
 17 25  1  0  0  0  0
 17 18  1  0  0  0  0
 18 16  1  6  0  0  0
 19 22  1  0  0  0  0
 22 21  1  0  0  0  0
 22 18  1  0  0  0  0
 23 25  1  0  0  0  0
 24 20  1  0  0  0  0
 24 23  1  0  0  0  0
 27 26  1  0  0  0  0
 27 28  1  1  0  0  0
 29 27  1  0  0  0  0
 29 30  1  1  0  0  0
 31 36  2  0  0  0  0
 31 32  1  0  0  0  0
 32 33  1  0  0  0  0
 33 38  1  1  0  0  0
 33 35  1  0  0  0  0
 34 37  2  0  0  0  0
 36 34  1  0  0  0  0
 37 35  1  0  0  0  0
 37 29  1  0  0  0  0
 38 40  2  0  0  0  0
 39 38  1  0  0  0  0
M  END
>  <MODEL>
5

>  <REMARK>
 VINA RESULT:      -7.4      3.752      8.056
  Name = 
  11 active torsions:
  status: ('A' for Active; 'I' for Inactive)
    1  A    between atoms: C_4  and  C_6
    2  A    between atoms: C_4  and  C_35
    3  A    between atoms: C_5  and  C_36
    4  A    between atoms: C_6  and  C_36
    5  A    between atoms: C_8  and  C_19
    6  A    between atoms: C_8  and  C_22
    7  A    between atoms: C_9  and  O_21
    8  A    between atoms: C_10  and  C_12
    9  A    between atoms: C_19  and  N_20
   10  A    between atoms: O_21  and  C_36
   11  A    between atoms: C_22  and  C_34
                            x       y       z     vdW  Elec       q    Type
                         _______ _______ _______ _____ _____    ______ ____

>  <TORSDO>
F 11

$$$$
=
 OpenBabel11062413043D

 40 44  0  0  1  0  0  0  0  0999 V2000
  189.3120  176.0990  138.1030 C   0  0  1  0  0  3  0  0  0  0  0  0
  187.0310  178.1360  137.3310 C   0  0  2  0  0  0  0  0  0  0  0  0
  186.4060  177.3410  136.3610 O   0  0  0  0  0  0  0  0  0  0  0  0
  189.2200  177.3790  138.8350 N   0  0  0  0  0  0  0  0  0  0  0  0
  188.3810  178.7050  136.8970 C   0  0  0  0  0  2  0  0  0  0  0  0
  186.8520  176.6750  137.5290 C   0  0  1  0  0  3  0  0  0  0  0  0
  186.1260  178.9670  137.9870 O   0  0  0  0  0  1  0  0  0  0  0  0
  189.4280  178.5820  138.0120 C   0  0  0  0  0  2  0  0  0  0  0  0
  188.1010  175.8570  137.1800 C   0  0  2  0  0  3  0  0  0  0  0  0
  190.6050  175.9690  137.3000 C   0  0  0  0  0  1  0  0  0  0  0  0
  187.7440  174.3790  137.1430 C   0  0  0  0  0  2  0  0  0  0  0  0
  186.4930  174.1220  136.3060 C   0  0  0  0  0  2  0  0  0  0  0  0
  185.2560  173.7890  137.1530 C   0  0  2  0  0  3  0  0  0  0  0  0
  184.8310  172.3620  136.9950 C   0  0  0  0  0  3  0  0  0  0  0  0
  184.6580  171.8270  135.7880 C   0  0  0  0  0  2  0  0  0  0  0  0
  184.1930  174.6400  136.8360 O   0  0  0  0  0  0  0  0  0  0  0  0
  182.6370  175.9430  138.1450 C   0  0  1  0  0  0  0  0  0  0  0  0
  183.3550  174.6080  137.9530 C   0  0  1  0  0  3  0  0  0  0  0  0
  181.6570  174.8390  136.1660 F   0  0  0  0  0  0  0  0  0  0  0  0
  182.9410  177.1340  137.2760 C   0  0  0  0  0  2  0  0  0  0  0  0
  180.9810  174.1340  138.3410 F   0  0  0  0  0  0  0  0  0  0  0  0
  181.8950  174.7810  137.5290 C   0  0  0  0  0  0  0  0  0  0  0  0
  182.4530  177.6430  139.5590 C   0  0  0  0  0  2  0  0  0  0  0  0
  182.4980  178.2560  138.1680 C   0  0  0  0  0  2  0  0  0  0  0  0
  182.2670  176.2520  139.4570 O   0  0  0  0  0  0  0  0  0  0  0  0
  190.0480  177.3780  140.0470 C   0  0  0  0  0  2  0  0  0  0  0  0
  189.3120  176.8900  141.2970 C   0  0  1  0  0  3  0  0  0  0  0  0
  190.1320  175.9980  141.9900 O   0  0  0  0  0  1  0  0  0  0  0  0
  188.9610  178.0830  142.1850 C   0  0  2  0  0  3  0  0  0  0  0  0
  189.6480  178.0140  143.4020 O   0  0  0  0  0  1  0  0  0  0  0  0
  184.3690  178.7980  142.5550 C   0  0  0  0  0  3  0  0  0  0  0  0
  184.6440  178.2490  143.9200 C   0  0  0  0  0  2  0  0  0  0  0  0
  186.0420  178.5590  144.4170 C   0  0  2  0  0  3  0  0  0  0  0  0
  186.6860  178.7020  141.4950 C   0  0  0  0  0  3  0  0  0  0  0  0
  186.9840  177.5980  143.7210 C   0  0  0  0  0  2  0  0  0  0  0  0
  185.2290  178.9590  141.5400 C   0  0  0  0  0  3  0  0  0  0  0  0
  187.4810  178.1590  142.4300 C   0  0  0  0  0  0  0  0  0  0  0  0
  186.1080  178.3750  145.8990 C   0  0  0  0  0  0  0  0  0  0  0  0
  184.9510  178.6290  146.6890 N   0  0  0  0  0  1  0  0  0  0  0  0
  187.1660  177.9590  146.4480 O   0  0  0  0  0  0  0  0  0  0  0  0
  1 10  1  6  0  0  0
  1  4  1  0  0  0  0
  2  6  1  0  0  0  0
  2  7  1  1  0  0  0
  3  2  1  0  0  0  0
  4 26  1  0  0  0  0
  5  2  1  0  0  0  0
  5  8  1  0  0  0  0
  6  3  1  6  0  0  0
  8  4  1  0  0  0  0
  9 11  1  1  0  0  0
  9  6  1  0  0  0  0
  9  1  1  0  0  0  0
 12 11  1  0  0  0  0
 13 12  1  6  0  0  0
 14 13  1  0  0  0  0
 15 14  2  0  0  0  0
 16 13  1  0  0  0  0
 17 20  1  6  0  0  0
 17 25  1  0  0  0  0
 18 16  1  6  0  0  0
 18 17  1  0  0  0  0
 19 22  1  0  0  0  0
 20 24  1  0  0  0  0
 22 18  1  0  0  0  0
 22 17  1  0  0  0  0
 22 21  1  0  0  0  0
 24 23  1  0  0  0  0
 25 23  1  0  0  0  0
 26 27  1  0  0  0  0
 27 28  1  1  0  0  0
 27 29  1  0  0  0  0
 29 37  1  0  0  0  0
 29 30  1  1  0  0  0
 31 32  1  0  0  0  0
 32 33  1  0  0  0  0
 33 38  1  1  0  0  0
 34 36  1  0  0  0  0
 34 37  2  0  0  0  0
 35 33  1  0  0  0  0
 36 31  2  0  0  0  0
 37 35  1  0  0  0  0
 38 40  2  0  0  0  0
 38 39  1  0  0  0  0
M  END
>  <MODEL>
6

>  <REMARK>
 VINA RESULT:      -7.4      3.282      8.642
  Name = 
  11 active torsions:
  status: ('A' for Active; 'I' for Inactive)
    1  A    between atoms: C_4  and  C_6
    2  A    between atoms: C_4  and  C_35
    3  A    between atoms: C_5  and  C_36
    4  A    between atoms: C_6  and  C_36
    5  A    between atoms: C_8  and  C_19
    6  A    between atoms: C_8  and  C_22
    7  A    between atoms: C_9  and  O_21
    8  A    between atoms: C_10  and  C_12
    9  A    between atoms: C_19  and  N_20
   10  A    between atoms: O_21  and  C_36
   11  A    between atoms: C_22  and  C_34
                            x       y       z     vdW  Elec       q    Type
                         _______ _______ _______ _____ _____    ______ ____

>  <TORSDO>
F 11

$$$$
=
 OpenBabel11062413043D

 40 44  0  0  1  0  0  0  0  0999 V2000
  183.0320  178.8070  139.1740 C   0  0  1  0  0  3  0  0  0  0  0  0
  181.4050  176.1060  139.2500 C   0  0  2  0  0  0  0  0  0  0  0  0
  181.5070  175.8000  137.8860 O   0  0  0  0  0  0  0  0  0  0  0  0
  182.5390  178.3060  140.4730 N   0  0  0  0  0  0  0  0  0  0  0  0
  180.4630  177.2670  139.5620 C   0  0  0  0  0  2  0  0  0  0  0  0
  182.6670  176.3310  138.5000 C   0  0  1  0  0  3  0  0  0  0  0  0
  181.3490  174.9580  140.0380 O   0  0  0  0  0  1  0  0  0  0  0  0
  181.0750  178.2240  140.5940 C   0  0  0  0  0  2  0  0  0  0  0  0
  182.8470  177.7820  138.0360 C   0  0  2  0  0  3  0  0  0  0  0  0
  182.3970  180.1380  138.7750 C   0  0  0  0  0  1  0  0  0  0  0  0
  184.0050  177.8600  137.0540 C   0  0  0  0  0  2  0  0  0  0  0  0
  185.2820  177.2610  137.6400 C   0  0  0  0  0  2  0  0  0  0  0  0
  186.0760  176.4210  136.6300 C   0  0  2  0  0  3  0  0  0  0  0  0
  185.6950  174.9730  136.6760 C   0  0  0  0  0  3  0  0  0  0  0  0
  186.5070  174.0670  137.2190 C   0  0  0  0  0  2  0  0  0  0  0  0
  187.4510  176.5580  136.8410 O   0  0  0  0  0  0  0  0  0  0  0  0
  188.7120  177.8910  138.4110 C   0  0  1  0  0  0  0  0  0  0  0  0
  187.6140  177.8500  137.3500 C   0  0  1  0  0  3  0  0  0  0  0  0
  189.7980  177.5700  136.2170 F   0  0  0  0  0  0  0  0  0  0  0  0
  189.3990  176.6380  138.8860 C   0  0  0  0  0  2  0  0  0  0  0  0
  189.0740  179.7530  136.8440 F   0  0  0  0  0  0  0  0  0  0  0  0
  189.0090  178.3820  137.0140 C   0  0  0  0  0  0  0  0  0  0  0  0
  189.0480  178.3000  140.5660 C   0  0  0  0  0  2  0  0  0  0  0  0
  189.8880  177.0760  140.2350 C   0  0  0  0  0  2  0  0  0  0  0  0
  188.5880  178.8950  139.3760 O   0  0  0  0  0  0  0  0  0  0  0  0
  183.1570  179.0120  141.6020 C   0  0  0  0  0  2  0  0  0  0  0  0
  184.5460  178.4860  141.9730 C   0  0  1  0  0  3  0  0  0  0  0  0
  185.5070  179.4210  141.5820 O   0  0  0  0  0  1  0  0  0  0  0  0
  184.6210  178.2520  143.4810 C   0  0  2  0  0  3  0  0  0  0  0  0
  184.1340  179.3630  144.1800 O   0  0  0  0  0  1  0  0  0  0  0  0
  188.9080  176.7530  144.5380 C   0  0  0  0  0  3  0  0  0  0  0  0
  188.6570  177.6390  145.7190 C   0  0  0  0  0  2  0  0  0  0  0  0
  187.1930  177.7300  146.0980 C   0  0  2  0  0  3  0  0  0  0  0  0
  186.7510  177.0600  143.2110 C   0  0  0  0  0  3  0  0  0  0  0  0
  186.5360  178.6740  145.1110 C   0  0  0  0  0  2  0  0  0  0  0  0
  188.1110  176.5390  143.4830 C   0  0  0  0  0  3  0  0  0  0  0  0
  186.0260  177.9450  143.9120 C   0  0  0  0  0  0  0  0  0  0  0  0
  187.0580  178.2530  147.4910 C   0  0  0  0  0  0  0  0  0  0  0  0
  187.9300  177.7700  148.5080 N   0  0  0  0  0  1  0  0  0  0  0  0
  186.2070  179.1450  147.7630 O   0  0  0  0  0  0  0  0  0  0  0  0
  1 10  1  6  0  0  0
  1  4  1  0  0  0  0
  2  5  1  0  0  0  0
  2  7  1  1  0  0  0
  3  2  1  0  0  0  0
  4  8  1  0  0  0  0
  4 26  1  0  0  0  0
  5  8  1  0  0  0  0
  6  3  1  6  0  0  0
  6  2  1  0  0  0  0
  9 11  1  6  0  0  0
  9  6  1  0  0  0  0
  9  1  1  0  0  0  0
 11 12  1  0  0  0  0
 13 14  1  1  0  0  0
 13 16  1  0  0  0  0
 13 12  1  0  0  0  0
 14 15  2  0  0  0  0
 17 20  1  1  0  0  0
 17 25  1  0  0  0  0
 18 16  1  6  0  0  0
 18 17  1  0  0  0  0
 19 22  1  0  0  0  0
 20 24  1  0  0  0  0
 21 22  1  0  0  0  0
 22 18  1  0  0  0  0
 22 17  1  0  0  0  0
 24 23  1  0  0  0  0
 25 23  1  0  0  0  0
 26 27  1  0  0  0  0
 27 28  1  1  0  0  0
 27 29  1  0  0  0  0
 29 37  1  0  0  0  0
 29 30  1  1  0  0  0
 31 32  1  0  0  0  0
 32 33  1  0  0  0  0
 33 38  1  1  0  0  0
 34 36  1  0  0  0  0
 34 37  2  0  0  0  0
 35 33  1  0  0  0  0
 36 31  2  0  0  0  0
 37 35  1  0  0  0  0
 38 40  2  0  0  0  0
 38 39  1  0  0  0  0
M  END
>  <MODEL>
7

>  <REMARK>
 VINA RESULT:      -7.4      2.927      7.209
  Name = 
  11 active torsions:
  status: ('A' for Active; 'I' for Inactive)
    1  A    between atoms: C_4  and  C_6
    2  A    between atoms: C_4  and  C_35
    3  A    between atoms: C_5  and  C_36
    4  A    between atoms: C_6  and  C_36
    5  A    between atoms: C_8  and  C_19
    6  A    between atoms: C_8  and  C_22
    7  A    between atoms: C_9  and  O_21
    8  A    between atoms: C_10  and  C_12
    9  A    between atoms: C_19  and  N_20
   10  A    between atoms: O_21  and  C_36
   11  A    between atoms: C_22  and  C_34
                            x       y       z     vdW  Elec       q    Type
                         _______ _______ _______ _____ _____    ______ ____

>  <TORSDO>
F 11

$$$$
=
 OpenBabel11062413043D

 40 44  0  0  1  0  0  0  0  0999 V2000
  188.2870  177.6230  143.5690 C   0  0  1  0  0  3  0  0  0  0  0  0
  191.3830  177.9700  144.0600 C   0  0  2  0  0  0  0  0  0  0  0  0
  191.8030  177.6700  142.7570 O   0  0  0  0  0  0  0  0  0  0  0  0
  188.7540  178.0620  144.9000 N   0  0  0  0  0  0  0  0  0  0  0  0
  190.8820  176.7620  144.8500 C   0  0  0  0  0  2  0  0  0  0  0  0
  190.6370  178.4650  142.8750 C   0  0  1  0  0  3  0  0  0  0  0  0
  192.2320  178.8830  144.6850 O   0  0  0  0  0  1  0  0  0  0  0  0
  189.5930  177.0880  145.6170 C   0  0  0  0  0  2  0  0  0  0  0  0
  189.4180  177.6040  142.5220 C   0  0  2  0  0  3  0  0  0  0  0  0
  187.5970  176.2610  143.6040 C   0  0  0  0  0  1  0  0  0  0  0  0
  188.8890  178.0130  141.1560 C   0  0  0  0  0  2  0  0  0  0  0  0
  189.8130  177.5490  140.0320 C   0  0  0  0  0  2  0  0  0  0  0  0
  189.0750  176.8070  138.9080 C   0  0  2  0  0  3  0  0  0  0  0  0
  190.0120  176.3050  137.8530 C   0  0  0  0  0  3  0  0  0  0  0  0
  191.3320  176.3950  138.0070 C   0  0  0  0  0  2  0  0  0  0  0  0
  188.0990  177.6240  138.3300 O   0  0  0  0  0  0  0  0  0  0  0  0
  186.3130  177.2100  136.7580 C   0  0  1  0  0  0  0  0  0  0  0  0
  187.7860  177.0120  137.1130 C   0  0  1  0  0  3  0  0  0  0  0  0
  187.4530  179.3830  136.4840 F   0  0  0  0  0  0  0  0  0  0  0  0
  185.3550  177.8810  137.7070 C   0  0  0  0  0  2  0  0  0  0  0  0
  187.6690  177.7360  134.7740 F   0  0  0  0  0  0  0  0  0  0  0  0
  187.3620  178.0610  136.0830 C   0  0  0  0  0  0  0  0  0  0  0  0
  184.4260  176.0890  136.4280 C   0  0  0  0  0  2  0  0  0  0  0  0
  184.0470  177.3250  137.2300 C   0  0  0  0  0  2  0  0  0  0  0  0
  185.7440  176.2220  135.9500 O   0  0  0  0  0  0  0  0  0  0  0  0
  187.6530  178.5700  145.7270 C   0  0  0  0  0  2  0  0  0  0  0  0
  186.3020  177.9160  145.4250 C   0  0  1  0  0  3  0  0  0  0  0  0
  185.9220  177.1300  146.5150 O   0  0  0  0  0  1  0  0  0  0  0  0
  185.2550  178.9970  145.1640 C   0  0  2  0  0  3  0  0  0  0  0  0
  184.2830  179.0000  146.1710 O   0  0  0  0  0  1  0  0  0  0  0  0
  183.6730  178.8210  140.7820 C   0  0  0  0  0  3  0  0  0  0  0  0
  182.3920  178.5770  141.5180 C   0  0  0  0  0  2  0  0  0  0  0  0
  182.3490  179.2430  142.8780 C   0  0  2  0  0  3  0  0  0  0  0  0
  185.3310  179.0190  142.7100 C   0  0  0  0  0  3  0  0  0  0  0  0
  183.1780  178.3890  143.8160 C   0  0  0  0  0  2  0  0  0  0  0  0
  184.9010  178.9800  141.2930 C   0  0  0  0  0  3  0  0  0  0  0  0
  184.6090  178.8130  143.8210 C   0  0  0  0  0  0  0  0  0  0  0  0
  180.9360  179.3280  143.3590 C   0  0  0  0  0  0  0  0  0  0  0  0
  180.1760  180.5020  143.0960 N   0  0  0  0  0  1  0  0  0  0  0  0
  180.4020  178.3540  143.9610 O   0  0  0  0  0  0  0  0  0  0  0  0
  1 10  1  1  0  0  0
  1  4  1  0  0  0  0
  2  7  1  1  0  0  0
  2  5  1  0  0  0  0
  3  2  1  0  0  0  0
  4  8  1  0  0  0  0
  4 26  1  0  0  0  0
  5  8  1  0  0  0  0
  6  3  1  6  0  0  0
  6  2  1  0  0  0  0
  9 11  1  6  0  0  0
  9  6  1  0  0  0  0
  9  1  1  0  0  0  0
 12 11  1  0  0  0  0
 13 14  1  6  0  0  0
 13 12  1  0  0  0  0
 14 15  2  0  0  0  0
 16 13  1  0  0  0  0
 17 18  1  0  0  0  0
 17 20  1  1  0  0  0
 18 16  1  1  0  0  0
 21 22  1  0  0  0  0
 22 19  1  0  0  0  0
 22 17  1  0  0  0  0
 22 18  1  0  0  0  0
 23 24  1  0  0  0  0
 24 20  1  0  0  0  0
 25 23  1  0  0  0  0
 25 17  1  0  0  0  0
 27 26  1  0  0  0  0
 27 28  1  1  0  0  0
 29 27  1  0  0  0  0
 29 30  1  1  0  0  0
 31 36  2  0  0  0  0
 31 32  1  0  0  0  0
 32 33  1  0  0  0  0
 33 38  1  1  0  0  0
 33 35  1  0  0  0  0
 34 37  2  0  0  0  0
 35 37  1  0  0  0  0
 36 34  1  0  0  0  0
 37 29  1  0  0  0  0
 38 40  2  0  0  0  0
 39 38  1  0  0  0  0
M  END
>  <MODEL>
8

>  <REMARK>
 VINA RESULT:      -7.4      3.173      8.232
  Name = 
  11 active torsions:
  status: ('A' for Active; 'I' for Inactive)
    1  A    between atoms: C_4  and  C_6
    2  A    between atoms: C_4  and  C_35
    3  A    between atoms: C_5  and  C_36
    4  A    between atoms: C_6  and  C_36
    5  A    between atoms: C_8  and  C_19
    6  A    between atoms: C_8  and  C_22
    7  A    between atoms: C_9  and  O_21
    8  A    between atoms: C_10  and  C_12
    9  A    between atoms: C_19  and  N_20
   10  A    between atoms: O_21  and  C_36
   11  A    between atoms: C_22  and  C_34
                            x       y       z     vdW  Elec       q    Type
                         _______ _______ _______ _____ _____    ______ ____

>  <TORSDO>
F 11

$$$$
=
 OpenBabel11062413043D

 40 44  0  0  1  0  0  0  0  0999 V2000
  183.4900  178.9160  139.2510 C   0  0  1  0  0  3  0  0  0  0  0  0
  181.7760  176.2680  139.2070 C   0  0  2  0  0  0  0  0  0  0  0  0
  182.0240  175.9200  137.8720 O   0  0  0  0  0  0  0  0  0  0  0  0
  182.8350  178.4680  140.4970 N   0  0  0  0  0  0  0  0  0  0  0  0
  180.8440  177.4670  139.3780 C   0  0  0  0  0  2  0  0  0  0  0  0
  183.1230  176.4330  138.6030 C   0  0  1  0  0  3  0  0  0  0  0  0
  181.5910  175.1460  140.0130 O   0  0  0  0  0  1  0  0  0  0  0  0
  181.3640  178.4350  140.4490 C   0  0  0  0  0  2  0  0  0  0  0  0
  183.4030  177.8640  138.1270 C   0  0  2  0  0  3  0  0  0  0  0  0
  182.9500  180.2530  138.7460 C   0  0  0  0  0  1  0  0  0  0  0  0
  184.6690  177.8780  137.2840 C   0  0  0  0  0  2  0  0  0  0  0  0
  185.9120  178.1200  138.1380 C   0  0  0  0  0  2  0  0  0  0  0  0
  187.1750  177.4580  137.5700 C   0  0  2  0  0  3  0  0  0  0  0  0
  188.1110  178.4570  136.9610 C   0  0  0  0  0  3  0  0  0  0  0  0
  189.4300  178.2820  137.0130 C   0  0  0  0  0  2  0  0  0  0  0  0
  186.8440  176.4800  136.6270 O   0  0  0  0  0  0  0  0  0  0  0  0
  186.2090  174.1570  136.8000 C   0  0  1  0  0  0  0  0  0  0  0  0
  187.1670  175.2640  137.2350 C   0  0  1  0  0  3  0  0  0  0  0  0
  187.6600  174.6950  134.8760 F   0  0  0  0  0  0  0  0  0  0  0  0
  185.0170  174.4420  135.9250 C   0  0  0  0  0  2  0  0  0  0  0  0
  188.5110  173.3090  136.6190 F   0  0  0  0  0  0  0  0  0  0  0  0
  187.5840  174.2370  136.1800 C   0  0  0  0  0  0  0  0  0  0  0  0
  184.6740  172.7610  137.5880 C   0  0  0  0  0  2  0  0  0  0  0  0
  184.1290  173.2830  136.2670 C   0  0  0  0  0  2  0  0  0  0  0  0
  186.0310  173.1120  137.7120 O   0  0  0  0  0  0  0  0  0  0  0  0
  183.3410  179.1880  141.6720 C   0  0  0  0  0  2  0  0  0  0  0  0
  184.7160  178.7080  142.1440 C   0  0  1  0  0  3  0  0  0  0  0  0
  185.6330  179.7530  142.0160 O   0  0  0  0  0  1  0  0  0  0  0  0
  184.6300  178.2570  143.6010 C   0  0  2  0  0  3  0  0  0  0  0  0
  184.0720  179.2620  144.3990 O   0  0  0  0  0  1  0  0  0  0  0  0
  188.7460  177.4960  145.6550 C   0  0  0  0  0  3  0  0  0  0  0  0
  189.0860  177.0820  144.2560 C   0  0  0  0  0  2  0  0  0  0  0  0
  188.2880  177.8230  143.2030 C   0  0  2  0  0  3  0  0  0  0  0  0
  186.2850  178.1190  145.4110 C   0  0  0  0  0  3  0  0  0  0  0  0
  186.9080  177.1980  143.1700 C   0  0  0  0  0  2  0  0  0  0  0  0
  187.5620  177.9050  146.1290 C   0  0  0  0  0  3  0  0  0  0  0  0
  185.9800  177.8680  144.1280 C   0  0  0  0  0  0  0  0  0  0  0  0
  188.9550  177.6910  141.8720 C   0  0  0  0  0  0  0  0  0  0  0  0
  190.2580  177.1220  141.7950 N   0  0  0  0  0  1  0  0  0  0  0  0
  188.3580  178.0420  140.8170 O   0  0  0  0  0  0  0  0  0  0  0  0
  1 10  1  6  0  0  0
  1  4  1  0  0  0  0
  2  5  1  0  0  0  0
  2  7  1  1  0  0  0
  3  2  1  0  0  0  0
  4 26  1  0  0  0  0
  5  8  1  0  0  0  0
  6  3  1  6  0  0  0
  6  2  1  0  0  0  0
  8  4  1  0  0  0  0
  9 11  1  1  0  0  0
  9  6  1  0  0  0  0
  9  1  1  0  0  0  0
 11 12  1  0  0  0  0
 13 14  1  6  0  0  0
 13 12  1  0  0  0  0
 14 15  2  0  0  0  0
 16 13  1  0  0  0  0
 17 20  1  6  0  0  0
 17 18  1  0  0  0  0
 17 25  1  0  0  0  0
 18 16  1  6  0  0  0
 19 22  1  0  0  0  0
 20 24  1  0  0  0  0
 22 21  1  0  0  0  0
 22 17  1  0  0  0  0
 22 18  1  0  0  0  0
 23 25  1  0  0  0  0
 24 23  1  0  0  0  0
 26 27  1  0  0  0  0
 27 28  1  1  0  0  0
 27 29  1  0  0  0  0
 29 37  1  0  0  0  0
 29 30  1  1  0  0  0
 31 36  2  0  0  0  0
 32 31  1  0  0  0  0
 33 38  1  6  0  0  0
 33 32  1  0  0  0  0
 34 36  1  0  0  0  0
 35 33  1  0  0  0  0
 35 37  1  0  0  0  0
 37 34  2  0  0  0  0
 39 38  1  0  0  0  0
 40 38  2  0  0  0  0
M  END
>  <MODEL>
9

>  <REMARK>
 VINA RESULT:      -7.3      2.580      7.437
  Name = 
  11 active torsions:
  status: ('A' for Active; 'I' for Inactive)
    1  A    between atoms: C_4  and  C_6
    2  A    between atoms: C_4  and  C_35
    3  A    between atoms: C_5  and  C_36
    4  A    between atoms: C_6  and  C_36
    5  A    between atoms: C_8  and  C_19
    6  A    between atoms: C_8  and  C_22
    7  A    between atoms: C_9  and  O_21
    8  A    between atoms: C_10  and  C_12
    9  A    between atoms: C_19  and  N_20
   10  A    between atoms: O_21  and  C_36
   11  A    between atoms: C_22  and  C_34
                            x       y       z     vdW  Elec       q    Type
                         _______ _______ _______ _____ _____    ______ ____

>  <TORSDO>
F 11

$$$$
