=
 OpenBabel11062414103D

 32 36  0  0  1  0  0  0  0  0999 V2000
  190.5610  175.9350  140.0780 N   0  0  0  0  0  2  0  0  0  0  0  0
  190.7820  177.1130  140.8590 C   0  0  0  0  0  0  0  0  0  0  0  0
  191.0710  178.2020  140.2910 O   0  0  0  0  0  0  0  0  0  0  0  0
  188.2280  176.7630  142.4440 N   0  0  0  0  0  2  0  0  0  0  0  0
  185.4230  178.4310  144.2960 C   0  0  0  0  0  2  0  0  0  0  0  0
  187.0670  177.5590  145.9150 C   0  0  0  0  0  2  0  0  0  0  0  0
  189.3330  177.1550  142.9870 C   0  0  1  0  0  3  0  0  0  0  0  0
  191.7200  176.8910  143.1000 C   0  0  0  0  0  3  0  0  0  0  0  0
  191.6170  176.8240  144.5340 N   0  0  0  0  0  2  0  0  0  0  0  0
  189.1810  177.3300  144.4370 C   0  0  2  0  0  0  0  0  0  0  0  0
  186.3720  178.8180  145.4150 C   0  0  2  0  0  3  0  0  0  0  0  0
  190.3700  176.9450  145.3010 C   0  0  2  0  0  3  0  0  0  0  0  0
  187.8130  176.8070  144.8000 C   0  0  2  0  0  3  0  0  0  0  0  0
  189.8910  178.4010  145.2270 C   0  0  0  0  0  2  0  0  0  0  0  0
  190.6430  177.0550  142.3280 C   0  0  0  0  0  0  0  0  0  0  0  0
  187.1230  176.7580  143.4070 C   0  0  1  0  0  3  0  0  0  0  0  0
  186.2450  177.9820  143.1020 C   0  0  0  0  0  2  0  0  0  0  0  0
  185.6480  179.3930  146.4610 O   0  0  0  0  0  0  0  0  0  0  0  0
  184.8140  178.3730  146.9240 C   0  0  0  0  0  1  0  0  0  0  0  0
  192.1850  176.7230  137.9280 O   0  0  0  0  0  1  0  0  0  0  0  0
  190.8680  174.4600  137.8730 O   0  0  0  0  0  0  0  0  0  0  0  0
  190.7670  175.8960  138.3360 P   0  0  1  0  0  0  0  0  0  0  0  0
  187.4200  178.1830  138.2720 C   0  0  0  0  0  0  0  0  0  0  0  0
  188.7640  178.5800  136.3150 C   0  0  0  0  0  2  0  0  0  0  0  0
  188.2510  176.9720  138.5820 C   0  0  0  0  0  2  0  0  0  0  0  0
  189.8170  177.9350  136.9970 O   0  0  0  0  0  0  0  0  0  0  0  0
  189.3420  176.7020  137.5110 C   0  0  1  0  0  0  0  0  0  0  0  0
  187.6970  178.9330  137.2450 N   0  0  0  0  0  0  0  0  0  0  0  0
  188.8720  175.8960  136.4320 O   0  0  0  0  0  0  0  0  0  0  0  0
  187.7690  175.1190  136.8300 C   0  0  0  0  0  1  0  0  0  0  0  0
  186.3770  178.5210  139.1380 O   0  0  0  0  0  0  0  0  0  0  0  0
  185.0120  178.4230  138.7590 C   0  0  0  0  0  1  0  0  0  0  0  0
  1  2  1  0  0  0  0
  2 15  1  0  0  0  0
  3  2  2  0  0  0  0
  4  7  1  0  0  0  0
  4 16  1  0  0  0  0
  5 11  1  0  0  0  0
  7 15  1  1  0  0  0
  7 10  1  0  0  0  0
  8  9  1  0  0  0  0
  9 12  1  0  0  0  0
 10 13  1  0  0  0  0
 10 14  1  1  0  0  0
 10 12  1  0  0  0  0
 11  6  1  0  0  0  0
 11 18  1  1  0  0  0
 12 14  1  1  0  0  0
 13  6  1  1  0  0  0
 15  8  2  0  0  0  0
 16 17  1  6  0  0  0
 16 13  1  0  0  0  0
 17  5  1  0  0  0  0
 18 19  1  0  0  0  0
 20 22  1  0  0  0  0
 22 21  2  6  0  0  0
 22  1  1  0  0  0  0
 23 25  1  0  0  0  0
 23 31  1  0  0  0  0
 24 26  1  0  0  0  0
 24 28  1  0  0  0  0
 26 27  1  0  0  0  0
 27 29  1  6  0  0  0
 27 22  1  0  0  0  0
 27 25  1  0  0  0  0
 28 23  2  0  0  0  0
 29 30  1  0  0  0  0
 32 31  1  0  0  0  0
M  END
>  <MODEL>
1

>  <REMARK>
 VINA RESULT:      -8.1      0.000      0.000
  Name = 
  6 active torsions:
  status: ('A' for Active; 'I' for Inactive)
    1  A    between atoms: N_2  and  P_31
    2  A    between atoms: O_3  and  C_14
    3  A    between atoms: C_7  and  C_22
    4  A    between atoms: C_8  and  O_16
    5  A    between atoms: O_13  and  C_28
    6  A    between atoms: C_28  and  P_31
                            x       y       z     vdW  Elec       q    Type
                         _______ _______ _______ _____ _____    ______ ____

>  <TORSDO>
F 6

$$$$
=
 OpenBabel11062414103D

 32 36  0  0  1  0  0  0  0  0999 V2000
  185.3990  178.2010  139.7160 N   0  0  0  0  0  2  0  0  0  0  0  0
  186.1050  178.8590  140.7710 C   0  0  0  0  0  0  0  0  0  0  0  0
  185.6660  179.9440  141.2440 O   0  0  0  0  0  0  0  0  0  0  0  0
  186.4330  177.5230  143.4660 N   0  0  0  0  0  2  0  0  0  0  0  0
  187.4580  177.8950  147.0570 C   0  0  0  0  0  2  0  0  0  0  0  0
  189.2720  176.7960  145.7980 C   0  0  0  0  0  2  0  0  0  0  0  0
  187.4420  177.8770  142.7410 C   0  0  1  0  0  3  0  0  0  0  0  0
  188.3790  178.0080  140.5300 C   0  0  0  0  0  3  0  0  0  0  0  0
  189.5860  177.4110  141.0370 N   0  0  0  0  0  0  0  0  0  0  0  0
  188.7110  177.4870  143.3670 C   0  0  2  0  0  0  0  0  0  0  0  0
  188.9130  178.0090  146.6450 C   0  0  2  0  0  3  0  0  0  0  0  0
  189.8210  177.0270  142.4360 C   0  0  2  0  0  3  0  0  0  0  0  0
  188.3650  176.6390  144.5660 C   0  0  2  0  0  3  0  0  0  0  0  0
  189.9740  178.3060  143.2720 C   0  0  0  0  0  2  0  0  0  0  0  0
  187.3320  178.2510  141.3230 C   0  0  1  0  0  3  0  0  0  0  0  0
  186.8590  176.9780  144.7580 C   0  0  1  0  0  3  0  0  0  0  0  0
  186.5930  178.0580  145.8190 C   0  0  0  0  0  2  0  0  0  0  0  0
  189.7190  178.0320  147.7850 O   0  0  0  0  0  0  0  0  0  0  0  0
  188.8360  178.2520  148.8450 C   0  0  0  0  0  1  0  0  0  0  0  0
  184.1730  180.5530  138.7970 O   0  0  0  0  0  1  0  0  0  0  0  0
  183.7840  178.2620  137.5890 O   0  0  0  0  0  0  0  0  0  0  0  0
  183.9720  178.8810  138.9560 P   0  0  1  0  0  0  0  0  0  0  0  0
  181.9130  178.7850  142.4480 C   0  0  0  0  0  0  0  0  0  0  0  0
  180.4900  179.4810  140.6360 C   0  0  0  0  0  2  0  0  0  0  0  0
  182.9500  178.3540  141.4520 C   0  0  0  0  0  2  0  0  0  0  0  0
  181.6680  179.7010  139.8910 O   0  0  0  0  0  0  0  0  0  0  0  0
  182.4890  178.5490  139.9820 C   0  0  1  0  0  0  0  0  0  0  0  0
  180.8040  179.3380  142.0530 N   0  0  0  0  0  0  0  0  0  0  0  0
  181.7740  177.4250  139.4720 O   0  0  0  0  0  0  0  0  0  0  0  0
  182.4000  176.2210  139.8450 C   0  0  0  0  0  1  0  0  0  0  0  0
  182.1860  178.6310  143.8090 O   0  0  0  0  0  0  0  0  0  0  0  0
  183.3560  179.1600  144.4150 C   0  0  0  0  0  1  0  0  0  0  0  0
  1  2  1  0  0  0  0
  2  3  2  0  0  0  0
  4 16  1  0  0  0  0
  6 11  1  0  0  0  0
  7 10  1  0  0  0  0
  7  4  1  6  0  0  0
  8  9  2  0  0  0  0
  8 15  1  0  0  0  0
  9 12  1  0  0  0  0
 10 14  1  1  0  0  0
 10 13  1  0  0  0  0
 11  5  1  0  0  0  0
 11 18  1  1  0  0  0
 12 14  1  1  0  0  0
 12 10  1  0  0  0  0
 13 16  1  0  0  0  0
 13  6  1  1  0  0  0
 15  2  1  6  0  0  0
 15  7  1  0  0  0  0
 16 17  1  1  0  0  0
 17  5  1  0  0  0  0
 18 19  1  0  0  0  0
 20 22  1  0  0  0  0
 22 21  2  6  0  0  0
 22  1  1  0  0  0  0
 22 27  1  0  0  0  0
 23 31  1  0  0  0  0
 24 28  1  0  0  0  0
 25 23  1  0  0  0  0
 26 27  1  0  0  0  0
 26 24  1  0  0  0  0
 27 29  1  6  0  0  0
 27 25  1  0  0  0  0
 28 23  2  0  0  0  0
 29 30  1  0  0  0  0
 31 32  1  0  0  0  0
M  END
>  <MODEL>
2

>  <REMARK>
 VINA RESULT:      -7.8      3.737      5.571
  Name = 
  6 active torsions:
  status: ('A' for Active; 'I' for Inactive)
    1  A    between atoms: N_2  and  P_31
    2  A    between atoms: O_3  and  C_14
    3  A    between atoms: C_7  and  C_22
    4  A    between atoms: C_8  and  O_16
    5  A    between atoms: O_13  and  C_28
    6  A    between atoms: C_28  and  P_31
                            x       y       z     vdW  Elec       q    Type
                         _______ _______ _______ _____ _____    ______ ____

>  <TORSDO>
F 6

$$$$
=
 OpenBabel11062414103D

 32 36  0  0  1  0  0  0  0  0999 V2000
  188.4360  177.7510  138.8750 N   0  0  0  0  0  2  0  0  0  0  0  0
  188.2900  178.2180  140.2190 C   0  0  0  0  0  0  0  0  0  0  0  0
  187.2950  178.9270  140.5370 O   0  0  0  0  0  0  0  0  0  0  0  0
  187.7610  177.1320  142.9930 N   0  0  0  0  0  2  0  0  0  0  0  0
  187.3420  177.8970  146.6430 C   0  0  0  0  0  2  0  0  0  0  0  0
  189.6090  177.0080  146.2480 C   0  0  0  0  0  2  0  0  0  0  0  0
  188.9160  177.5880  142.6360 C   0  0  1  0  0  3  0  0  0  0  0  0
  190.5770  177.7130  140.9020 C   0  0  0  0  0  3  0  0  0  0  0  0
  191.5750  177.3440  141.8700 N   0  0  0  0  0  2  0  0  0  0  0  0
  189.9030  177.4410  143.7120 C   0  0  2  0  0  0  0  0  0  0  0  0
  188.8220  178.2060  146.7630 C   0  0  2  0  0  3  0  0  0  0  0  0
  191.3230  177.0960  143.2960 C   0  0  2  0  0  3  0  0  0  0  0  0
  189.2440  176.6320  144.8030 C   0  0  2  0  0  3  0  0  0  0  0  0
  191.0050  178.4360  143.9750 C   0  0  0  0  0  2  0  0  0  0  0  0
  189.2910  177.8450  141.2380 C   0  0  0  0  0  0  0  0  0  0  0  0
  187.7440  176.7470  144.4070 C   0  0  1  0  0  3  0  0  0  0  0  0
  186.9800  177.8410  145.1700 C   0  0  0  0  0  2  0  0  0  0  0  0
  189.1430  178.4280  148.1040 O   0  0  0  0  0  0  0  0  0  0  0  0
  188.0900  177.8630  148.8250 C   0  0  0  0  0  1  0  0  0  0  0  0
  185.8300  178.5940  138.2570 O   0  0  0  0  0  1  0  0  0  0  0  0
  187.8840  179.3940  136.8430 O   0  0  0  0  0  0  0  0  0  0  0  0
  187.3320  178.1990  137.5870 P   0  0  1  0  0  0  0  0  0  0  0  0
  186.5570  174.3310  136.6480 C   0  0  0  0  0  0  0  0  0  0  0  0
  185.5750  175.8170  135.0280 C   0  0  0  0  0  2  0  0  0  0  0  0
  187.3520  175.4780  137.2000 C   0  0  0  0  0  2  0  0  0  0  0  0
  185.7800  176.8540  135.9630 O   0  0  0  0  0  0  0  0  0  0  0  0
  187.1210  176.8000  136.4200 C   0  0  1  0  0  0  0  0  0  0  0  0
  185.7150  174.5160  135.6740 N   0  0  0  0  0  0  0  0  0  0  0  0
  188.0000  176.9460  135.3060 O   0  0  0  0  0  0  0  0  0  0  0  0
  189.2820  176.4520  135.6100 C   0  0  0  0  0  1  0  0  0  0  0  0
  186.6970  173.0730  137.2370 O   0  0  0  0  0  0  0  0  0  0  0  0
  187.7370  172.1750  136.8740 C   0  0  0  0  0  1  0  0  0  0  0  0
  1  2  1  0  0  0  0
  2  3  2  0  0  0  0
  2 15  1  0  0  0  0
  4 16  1  0  0  0  0
  5 11  1  0  0  0  0
  6 11  1  0  0  0  0
  7 15  1  6  0  0  0
  7  4  1  0  0  0  0
  7 10  1  0  0  0  0
  8 15  2  0  0  0  0
  8  9  1  0  0  0  0
  9 12  1  0  0  0  0
 10 14  1  1  0  0  0
 10 13  1  0  0  0  0
 11 18  1  1  0  0  0
 12 10  1  0  0  0  0
 12 14  1  1  0  0  0
 13  6  1  1  0  0  0
 16 13  1  0  0  0  0
 16 17  1  1  0  0  0
 17  5  1  0  0  0  0
 18 19  1  0  0  0  0
 22 21  2  6  0  0  0
 22 20  1  0  0  0  0
 22  1  1  0  0  0  0
 23 25  1  0  0  0  0
 23 31  1  0  0  0  0
 24 28  1  0  0  0  0
 24 26  1  0  0  0  0
 26 27  1  0  0  0  0
 27 29  1  6  0  0  0
 27 25  1  0  0  0  0
 27 22  1  0  0  0  0
 28 23  2  0  0  0  0
 29 30  1  0  0  0  0
 32 31  1  0  0  0  0
M  END
>  <MODEL>
3

>  <REMARK>
 VINA RESULT:      -7.8      2.361      3.555
  Name = 
  6 active torsions:
  status: ('A' for Active; 'I' for Inactive)
    1  A    between atoms: N_2  and  P_31
    2  A    between atoms: O_3  and  C_14
    3  A    between atoms: C_7  and  C_22
    4  A    between atoms: C_8  and  O_16
    5  A    between atoms: O_13  and  C_28
    6  A    between atoms: C_28  and  P_31
                            x       y       z     vdW  Elec       q    Type
                         _______ _______ _______ _____ _____    ______ ____

>  <TORSDO>
F 6

$$$$
=
 OpenBabel11062414103D

 32 36  0  0  1  0  0  0  0  0999 V2000
  188.6100  177.5200  139.3640 N   0  0  0  0  0  2  0  0  0  0  0  0
  188.5120  178.2790  140.5720 C   0  0  0  0  0  0  0  0  0  0  0  0
  187.8380  179.3460  140.5950 O   0  0  0  0  0  0  0  0  0  0  0  0
  187.1920  177.4160  143.1550 N   0  0  0  0  0  2  0  0  0  0  0  0
  186.0850  178.4010  146.6030 C   0  0  0  0  0  2  0  0  0  0  0  0
  188.2030  177.1440  146.7510 C   0  0  0  0  0  2  0  0  0  0  0  0
  188.4570  177.6660  143.0730 C   0  0  1  0  0  3  0  0  0  0  0  0
  190.4670  177.4460  141.7710 C   0  0  0  0  0  3  0  0  0  0  0  0
  191.1430  176.9660  142.9470 N   0  0  0  0  0  2  0  0  0  0  0  0
  189.1340  177.4110  144.3500 C   0  0  2  0  0  0  0  0  0  0  0  0
  187.5290  178.4750  147.0610 C   0  0  2  0  0  3  0  0  0  0  0  0
  190.5350  176.8250  144.2770 C   0  0  2  0  0  3  0  0  0  0  0  0
  188.1190  176.7670  145.2630 C   0  0  2  0  0  3  0  0  0  0  0  0
  190.2970  178.2280  144.8550 C   0  0  0  0  0  2  0  0  0  0  0  0
  189.1780  177.7960  141.7980 C   0  0  0  0  0  0  0  0  0  0  0  0
  186.7890  177.1030  144.5290 C   0  0  1  0  0  3  0  0  0  0  0  0
  186.0640  178.3390  145.0860 C   0  0  0  0  0  2  0  0  0  0  0  0
  187.5690  178.7030  148.4390 O   0  0  0  0  0  0  0  0  0  0  0  0
  188.8290  178.2560  148.8410 C   0  0  0  0  0  1  0  0  0  0  0  0
  186.2970  178.4990  138.1100 O   0  0  0  0  0  1  0  0  0  0  0  0
  188.6830  179.2360  137.3190 O   0  0  0  0  0  0  0  0  0  0  0  0
  187.9070  178.0500  137.8470 P   0  0  1  0  0  0  0  0  0  0  0  0
  188.8610  174.3140  136.5920 C   0  0  0  0  0  0  0  0  0  0  0  0
  186.6980  174.9680  135.7640 C   0  0  0  0  0  2  0  0  0  0  0  0
  189.1210  175.7350  136.9990 C   0  0  0  0  0  2  0  0  0  0  0  0
  186.7240  176.0040  136.7210 O   0  0  0  0  0  0  0  0  0  0  0  0
  187.9590  176.6920  136.6170 C   0  0  1  0  0  0  0  0  0  0  0  0
  187.7230  173.9740  136.0620 N   0  0  0  0  0  0  0  0  0  0  0  0
  188.0890  177.2220  135.2990 O   0  0  0  0  0  0  0  0  0  0  0  0
  189.4410  177.2920  134.9160 C   0  0  0  0  0  1  0  0  0  0  0  0
  189.8430  173.3540  136.8460 O   0  0  0  0  0  0  0  0  0  0  0  0
  191.2290  173.6320  136.7180 C   0  0  0  0  0  1  0  0  0  0  0  0
  1  2  1  0  0  0  0
  2  3  2  0  0  0  0
  2 15  1  0  0  0  0
  4 16  1  0  0  0  0
  5 11  1  0  0  0  0
  6 11  1  0  0  0  0
  7 15  1  6  0  0  0
  7  4  1  0  0  0  0
  7 10  1  0  0  0  0
  8 15  2  0  0  0  0
  8  9  1  0  0  0  0
  9 12  1  0  0  0  0
 10 14  1  1  0  0  0
 10 13  1  0  0  0  0
 11 18  1  1  0  0  0
 12 10  1  0  0  0  0
 12 14  1  1  0  0  0
 13  6  1  1  0  0  0
 16 17  1  1  0  0  0
 16 13  1  0  0  0  0
 17  5  1  0  0  0  0
 18 19  1  0  0  0  0
 22 21  2  6  0  0  0
 22 20  1  0  0  0  0
 22  1  1  0  0  0  0
 23 31  1  0  0  0  0
 23 25  1  0  0  0  0
 24 28  1  0  0  0  0
 24 26  1  0  0  0  0
 27 29  1  6  0  0  0
 27 26  1  0  0  0  0
 27 25  1  0  0  0  0
 27 22  1  0  0  0  0
 28 23  2  0  0  0  0
 30 29  1  0  0  0  0
 32 31  1  0  0  0  0
M  END
>  <MODEL>
4

>  <REMARK>
 VINA RESULT:      -7.7      2.062      3.413
  Name = 
  6 active torsions:
  status: ('A' for Active; 'I' for Inactive)
    1  A    between atoms: N_2  and  P_31
    2  A    between atoms: O_3  and  C_14
    3  A    between atoms: C_7  and  C_22
    4  A    between atoms: C_8  and  O_16
    5  A    between atoms: O_13  and  C_28
    6  A    between atoms: C_28  and  P_31
                            x       y       z     vdW  Elec       q    Type
                         _______ _______ _______ _____ _____    ______ ____

>  <TORSDO>
F 6

$$$$
=
 OpenBabel11062414103D

 32 36  0  0  1  0  0  0  0  0999 V2000
  189.4750  177.3510  139.0100 N   0  0  0  0  0  2  0  0  0  0  0  0
  189.1270  178.0820  140.1890 C   0  0  0  0  0  0  0  0  0  0  0  0
  188.2660  179.0030  140.1300 O   0  0  0  0  0  0  0  0  0  0  0  0
  187.7400  177.1300  142.7050 N   0  0  0  0  0  2  0  0  0  0  0  0
  186.2490  178.0660  146.0190 C   0  0  0  0  0  2  0  0  0  0  0  0
  188.4990  177.1180  146.3730 C   0  0  0  0  0  2  0  0  0  0  0  0
  188.9630  177.5480  142.7040 C   0  0  1  0  0  3  0  0  0  0  0  0
  191.0780  177.5650  141.5600 C   0  0  0  0  0  3  0  0  0  0  0  0
  191.7200  177.2200  142.8010 N   0  0  0  0  0  2  0  0  0  0  0  0
  189.5680  177.4310  144.0360 C   0  0  2  0  0  0  0  0  0  0  0  0
  187.6300  178.3520  146.5770 C   0  0  2  0  0  3  0  0  0  0  0  0
  191.0360  177.0410  144.0890 C   0  0  2  0  0  3  0  0  0  0  0  0
  188.5810  176.6840  144.9000 C   0  0  2  0  0  3  0  0  0  0  0  0
  190.5680  178.4160  144.5870 C   0  0  0  0  0  2  0  0  0  0  0  0
  189.7560  177.7350  141.4790 C   0  0  0  0  0  0  0  0  0  0  0  0
  187.2790  176.8100  144.0590 C   0  0  1  0  0  3  0  0  0  0  0  0
  186.3530  177.9520  144.5090 C   0  0  0  0  0  2  0  0  0  0  0  0
  187.5330  178.6280  147.9420 O   0  0  0  0  0  0  0  0  0  0  0  0
  188.7680  178.2520  148.4740 C   0  0  0  0  0  1  0  0  0  0  0  0
  188.6300  179.4120  137.3010 O   0  0  0  0  0  1  0  0  0  0  0  0
  189.7890  177.2600  136.3590 O   0  0  0  0  0  0  0  0  0  0  0  0
  188.8280  177.7360  137.4260 P   0  0  1  0  0  0  0  0  0  0  0  0
  184.7750  177.6560  137.3460 C   0  0  0  0  0  0  0  0  0  0  0  0
  185.6920  176.3270  135.5610 C   0  0  0  0  0  2  0  0  0  0  0  0
  186.1360  177.7270  137.9750 C   0  0  0  0  0  2  0  0  0  0  0  0
  186.9190  176.9790  135.8020 O   0  0  0  0  0  0  0  0  0  0  0  0
  187.2040  176.9190  137.1900 C   0  0  1  0  0  0  0  0  0  0  0  0
  184.6000  177.0410  136.2130 N   0  0  0  0  0  0  0  0  0  0  0  0
  187.2730  175.5530  137.5930 O   0  0  0  0  0  0  0  0  0  0  0  0
  188.2330  174.8540  136.8390 C   0  0  0  0  0  1  0  0  0  0  0  0
  183.7120  178.3120  137.9710 O   0  0  0  0  0  0  0  0  0  0  0  0
  183.9010  179.1830  139.0760 C   0  0  0  0  0  1  0  0  0  0  0  0
  1  2  1  0  0  0  0
  2 15  1  0  0  0  0
  3  2  2  0  0  0  0
  4 16  1  0  0  0  0
  5 11  1  0  0  0  0
  6 11  1  0  0  0  0
  7 15  1  6  0  0  0
  7  4  1  0  0  0  0
  7 10  1  0  0  0  0
  8  9  1  0  0  0  0
  9 12  1  0  0  0  0
 10 12  1  0  0  0  0
 10 14  1  1  0  0  0
 10 13  1  0  0  0  0
 11 18  1  1  0  0  0
 12 14  1  1  0  0  0
 13  6  1  1  0  0  0
 15  8  2  0  0  0  0
 16 17  1  1  0  0  0
 16 13  1  0  0  0  0
 17  5  1  0  0  0  0
 18 19  1  0  0  0  0
 20 22  1  0  0  0  0
 22 21  2  6  0  0  0
 22  1  1  0  0  0  0
 23 31  1  0  0  0  0
 23 25  1  0  0  0  0
 24 26  1  0  0  0  0
 24 28  1  0  0  0  0
 26 27  1  0  0  0  0
 27 22  1  0  0  0  0
 27 29  1  1  0  0  0
 27 25  1  0  0  0  0
 28 23  2  0  0  0  0
 30 29  1  0  0  0  0
 31 32  1  0  0  0  0
M  END
>  <MODEL>
5

>  <REMARK>
 VINA RESULT:      -7.5      1.832      2.363
  Name = 
  6 active torsions:
  status: ('A' for Active; 'I' for Inactive)
    1  A    between atoms: N_2  and  P_31
    2  A    between atoms: O_3  and  C_14
    3  A    between atoms: C_7  and  C_22
    4  A    between atoms: C_8  and  O_16
    5  A    between atoms: O_13  and  C_28
    6  A    between atoms: C_28  and  P_31
                            x       y       z     vdW  Elec       q    Type
                         _______ _______ _______ _____ _____    ______ ____

>  <TORSDO>
F 6

$$$$
=
 OpenBabel11062414103D

 32 36  0  0  1  0  0  0  0  0999 V2000
  192.3990  176.7290  137.8690 N   0  0  0  0  0  2  0  0  0  0  0  0
  191.2430  176.1600  138.4890 C   0  0  0  0  0  0  0  0  0  0  0  0
  190.9880  174.9320  138.3440 O   0  0  0  0  0  0  0  0  0  0  0  0
  191.7280  177.0570  141.3380 N   0  0  0  0  0  2  0  0  0  0  0  0
  191.1250  176.4090  144.9850 C   0  0  0  0  0  2  0  0  0  0  0  0
  189.6160  178.2000  144.2120 C   0  0  0  0  0  2  0  0  0  0  0  0
  190.5720  177.1510  140.7700 C   0  0  1  0  0  3  0  0  0  0  0  0
  189.3570  177.6840  138.7640 C   0  0  0  0  0  3  0  0  0  0  0  0
  188.4890  178.5230  139.5460 N   0  0  0  0  0  2  0  0  0  0  0  0
  189.5930  177.7930  141.6550 C   0  0  2  0  0  0  0  0  0  0  0  0
  189.6710  176.8100  144.8310 C   0  0  2  0  0  3  0  0  0  0  0  0
  188.5800  178.7170  141.0000 C   0  0  2  0  0  3  0  0  0  0  0  0
  190.3520  178.2820  142.8650 C   0  0  2  0  0  3  0  0  0  0  0  0
  188.1320  177.4220  141.6930 C   0  0  0  0  0  2  0  0  0  0  0  0
  190.3650  177.0070  139.3210 C   0  0  0  0  0  0  0  0  0  0  0  0
  191.6780  177.4770  142.7410 C   0  0  1  0  0  3  0  0  0  0  0  0
  191.7170  176.2050  143.6020 C   0  0  0  0  0  2  0  0  0  0  0  0
  189.0610  176.8390  146.0870 O   0  0  0  0  0  0  0  0  0  0  0  0
  187.9210  177.6280  145.9150 C   0  0  0  0  0  1  0  0  0  0  0  0
  192.5350  174.7280  135.9050 O   0  0  0  0  0  1  0  0  0  0  0  0
  194.1840  176.7620  135.8830 O   0  0  0  0  0  0  0  0  0  0  0  0
  193.4600  175.8150  136.8130 P   0  0  1  0  0  0  0  0  0  0  0  0
  197.2250  174.8220  137.9440 C   0  0  0  0  0  0  0  0  0  0  0  0
  195.7490  174.8780  139.8440 C   0  0  0  0  0  2  0  0  0  0  0  0
  196.0340  174.8780  137.0320 C   0  0  0  0  0  2  0  0  0  0  0  0
  194.8400  175.5810  139.0260 O   0  0  0  0  0  0  0  0  0  0  0  0
  194.6860  174.8790  137.8040 C   0  0  1  0  0  0  0  0  0  0  0  0
  197.0740  174.8630  139.2350 N   0  0  0  0  0  0  0  0  0  0  0  0
  194.2040  173.5650  138.0780 O   0  0  0  0  0  0  0  0  0  0  0  0
  194.7070  172.6410  137.1430 C   0  0  0  0  0  1  0  0  0  0  0  0
  198.5010  174.7810  137.3770 O   0  0  0  0  0  0  0  0  0  0  0  0
  199.1800  173.5600  137.1210 C   0  0  0  0  0  1  0  0  0  0  0  0
  1  2  1  0  0  0  0
  2 15  1  0  0  0  0
  3  2  2  0  0  0  0
  4 16  1  0  0  0  0
  6 11  1  0  0  0  0
  7 15  1  6  0  0  0
  7  4  1  0  0  0  0
  7 10  1  0  0  0  0
  8 15  2  0  0  0  0
  8  9  1  0  0  0  0
  9 12  1  0  0  0  0
 10 14  1  1  0  0  0
 10 13  1  0  0  0  0
 11  5  1  0  0  0  0
 11 18  1  1  0  0  0
 12 10  1  0  0  0  0
 12 14  1  1  0  0  0
 13  6  1  1  0  0  0
 16 13  1  0  0  0  0
 16 17  1  1  0  0  0
 17  5  1  0  0  0  0
 19 18  1  0  0  0  0
 20 22  1  0  0  0  0
 22 21  2  6  0  0  0
 22 27  1  0  0  0  0
 22  1  1  0  0  0  0
 23 28  2  0  0  0  0
 25 27  1  0  0  0  0
 25 23  1  0  0  0  0
 26 24  1  0  0  0  0
 27 29  1  1  0  0  0
 27 26  1  0  0  0  0
 28 24  1  0  0  0  0
 30 29  1  0  0  0  0
 31 23  1  0  0  0  0
 32 31  1  0  0  0  0
M  END
>  <MODEL>
6

>  <REMARK>
 VINA RESULT:      -7.5      3.974      6.314
  Name = 
  6 active torsions:
  status: ('A' for Active; 'I' for Inactive)
    1  A    between atoms: N_2  and  P_31
    2  A    between atoms: O_3  and  C_14
    3  A    between atoms: C_7  and  C_22
    4  A    between atoms: C_8  and  O_16
    5  A    between atoms: O_13  and  C_28
    6  A    between atoms: C_28  and  P_31
                            x       y       z     vdW  Elec       q    Type
                         _______ _______ _______ _____ _____    ______ ____

>  <TORSDO>
F 6

$$$$
=
 OpenBabel11062414103D

 32 36  0  0  1  0  0  0  0  0999 V2000
  185.4840  178.4000  139.7050 N   0  0  0  0  0  2  0  0  0  0  0  0
  186.4020  178.8050  140.7230 C   0  0  0  0  0  0  0  0  0  0  0  0
  186.0560  179.6630  141.5820 O   0  0  0  0  0  0  0  0  0  0  0  0
  187.5550  177.1300  142.9640 N   0  0  0  0  0  2  0  0  0  0  0  0
  189.6250  177.0580  146.0930 C   0  0  0  0  0  2  0  0  0  0  0  0
  190.9800  176.2470  144.1980 C   0  0  0  0  0  2  0  0  0  0  0  0
  188.2890  177.6370  142.0300 C   0  0  1  0  0  3  0  0  0  0  0  0
  188.5030  178.1250  139.6860 C   0  0  0  0  0  3  0  0  0  0  0  0
  189.8140  177.5320  139.7100 N   0  0  0  0  0  0  0  0  0  0  0  0
  189.6930  177.2360  142.1800 C   0  0  2  0  0  0  0  0  0  0  0  0
  190.8830  177.3100  145.2840 C   0  0  2  0  0  3  0  0  0  0  0  0
  190.4700  176.9730  140.9000 C   0  0  2  0  0  3  0  0  0  0  0  0
  189.7410  176.2120  143.2870 C   0  0  2  0  0  3  0  0  0  0  0  0
  190.8580  178.1300  141.8320 C   0  0  0  0  0  2  0  0  0  0  0  0
  187.7460  178.1970  140.7840 C   0  0  1  0  0  3  0  0  0  0  0  0
  188.3620  176.4360  143.9720 C   0  0  1  0  0  3  0  0  0  0  0  0
  188.4220  177.3420  145.2120 C   0  0  0  0  0  2  0  0  0  0  0  0
  191.9990  177.2200  146.1190 O   0  0  0  0  0  0  0  0  0  0  0  0
  191.6140  176.3490  147.1410 C   0  0  0  0  0  1  0  0  0  0  0  0
  183.0740  179.0370  140.9960 O   0  0  0  0  0  1  0  0  0  0  0  0
  184.0370  180.5610  139.0960 O   0  0  0  0  0  0  0  0  0  0  0  0
  183.8940  179.1150  139.5180 P   0  0  1  0  0  0  0  0  0  0  0  0
  180.7560  176.8910  138.2350 C   0  0  0  0  0  0  0  0  0  0  0  0
  181.3890  178.5140  136.5740 C   0  0  0  0  0  2  0  0  0  0  0  0
  182.0320  177.1680  138.9750 C   0  0  0  0  0  2  0  0  0  0  0  0
  182.1230  179.1610  137.5910 O   0  0  0  0  0  0  0  0  0  0  0  0
  182.9340  178.2030  138.2500 C   0  0  1  0  0  0  0  0  0  0  0  0
  180.4600  177.5490  137.1530 N   0  0  0  0  0  0  0  0  0  0  0  0
  183.8130  177.6030  137.3000 O   0  0  0  0  0  0  0  0  0  0  0  0
  184.0130  176.2410  137.5930 C   0  0  0  0  0  1  0  0  0  0  0  0
  179.8670  175.9510  138.7610 O   0  0  0  0  0  0  0  0  0  0  0  0
  180.3070  174.7570  139.3910 C   0  0  0  0  0  1  0  0  0  0  0  0
  1  2  1  0  0  0  0
  2  3  2  0  0  0  0
  4 16  1  0  0  0  0
  6 11  1  0  0  0  0
  7 10  1  0  0  0  0
  7  4  1  6  0  0  0
  8  9  2  0  0  0  0
  8 15  1  0  0  0  0
  9 12  1  0  0  0  0
 10 14  1  1  0  0  0
 10 13  1  0  0  0  0
 11  5  1  0  0  0  0
 11 18  1  1  0  0  0
 12 14  1  1  0  0  0
 12 10  1  0  0  0  0
 13 16  1  0  0  0  0
 13  6  1  1  0  0  0
 15  2  1  6  0  0  0
 15  7  1  0  0  0  0
 16 17  1  1  0  0  0
 17  5  1  0  0  0  0
 18 19  1  0  0  0  0
 22 21  2  6  0  0  0
 22  1  1  0  0  0  0
 22 20  1  0  0  0  0
 23 31  1  0  0  0  0
 23 25  1  0  0  0  0
 24 28  1  0  0  0  0
 24 26  1  0  0  0  0
 26 27  1  0  0  0  0
 27 29  1  6  0  0  0
 27 25  1  0  0  0  0
 27 22  1  0  0  0  0
 28 23  2  0  0  0  0
 29 30  1  0  0  0  0
 31 32  1  0  0  0  0
M  END
>  <MODEL>
7

>  <REMARK>
 VINA RESULT:      -7.3      3.696      5.690
  Name = 
  6 active torsions:
  status: ('A' for Active; 'I' for Inactive)
    1  A    between atoms: N_2  and  P_31
    2  A    between atoms: O_3  and  C_14
    3  A    between atoms: C_7  and  C_22
    4  A    between atoms: C_8  and  O_16
    5  A    between atoms: O_13  and  C_28
    6  A    between atoms: C_28  and  P_31
                            x       y       z     vdW  Elec       q    Type
                         _______ _______ _______ _____ _____    ______ ____

>  <TORSDO>
F 6

$$$$
=
 OpenBabel11062414103D

 32 36  0  0  1  0  0  0  0  0999 V2000
  185.5620  178.3830  139.7750 N   0  0  0  0  0  2  0  0  0  0  0  0
  186.4610  178.8400  140.7880 C   0  0  0  0  0  0  0  0  0  0  0  0
  186.0900  179.7220  141.6110 O   0  0  0  0  0  0  0  0  0  0  0  0
  187.5680  177.1480  143.0400 N   0  0  0  0  0  2  0  0  0  0  0  0
  189.5290  177.0630  146.2380 C   0  0  0  0  0  2  0  0  0  0  0  0
  190.9650  176.3120  144.3780 C   0  0  0  0  0  2  0  0  0  0  0  0
  188.3240  177.6870  142.1410 C   0  0  1  0  0  3  0  0  0  0  0  0
  188.6100  178.2190  139.8140 C   0  0  0  0  0  3  0  0  0  0  0  0
  189.9310  177.6520  139.8750 N   0  0  0  0  0  0  0  0  0  0  0  0
  189.7300  177.3110  142.3330 C   0  0  2  0  0  0  0  0  0  0  0  0
  190.8090  177.3540  145.4780 C   0  0  2  0  0  3  0  0  0  0  0  0
  190.5560  177.0850  141.0770 C   0  0  2  0  0  3  0  0  0  0  0  0
  189.7600  176.2690  143.4250 C   0  0  2  0  0  3  0  0  0  0  0  0
  190.8880  178.2330  142.0420 C   0  0  0  0  0  2  0  0  0  0  0  0
  187.8140  178.2570  140.8860 C   0  0  1  0  0  3  0  0  0  0  0  0
  188.3540  176.4540  144.0640 C   0  0  1  0  0  3  0  0  0  0  0  0
  188.3520  177.3390  145.3210 C   0  0  0  0  0  2  0  0  0  0  0  0
  191.8970  177.2710  146.3510 O   0  0  0  0  0  0  0  0  0  0  0  0
  191.4970  176.3700  147.3400 C   0  0  0  0  0  1  0  0  0  0  0  0
  183.1170  179.0030  141.0090 O   0  0  0  0  0  1  0  0  0  0  0  0
  184.0860  180.5020  139.0920 O   0  0  0  0  0  0  0  0  0  0  0  0
  183.9620  179.0640  139.5450 P   0  0  1  0  0  0  0  0  0  0  0  0
  181.4880  178.6890  136.3540 C   0  0  0  0  0  0  0  0  0  0  0  0
  183.2950  177.1040  136.2250 C   0  0  0  0  0  2  0  0  0  0  0  0
  181.8570  178.9750  137.7810 C   0  0  0  0  0  2  0  0  0  0  0  0
  183.9450  177.8750  137.2120 O   0  0  0  0  0  0  0  0  0  0  0  0
  183.0420  178.1060  138.2810 C   0  0  1  0  0  0  0  0  0  0  0  0
  182.1870  177.8540  135.6430 N   0  0  0  0  0  0  0  0  0  0  0  0
  182.6220  176.8520  138.8160 O   0  0  0  0  0  0  0  0  0  0  0  0
  181.2900  176.9190  139.2640 C   0  0  0  0  0  1  0  0  0  0  0  0
  180.4130  179.3790  135.7890 O   0  0  0  0  0  0  0  0  0  0  0  0
  179.3220  179.8540  136.5640 C   0  0  0  0  0  1  0  0  0  0  0  0
  1  2  1  0  0  0  0
  2  3  2  0  0  0  0
  4 16  1  0  0  0  0
  6 11  1  0  0  0  0
  7 10  1  0  0  0  0
  7  4  1  6  0  0  0
  8  9  2  0  0  0  0
  8 15  1  0  0  0  0
  9 12  1  0  0  0  0
 10 14  1  1  0  0  0
 10 13  1  0  0  0  0
 11  5  1  0  0  0  0
 11 18  1  1  0  0  0
 12 14  1  1  0  0  0
 12 10  1  0  0  0  0
 13 16  1  0  0  0  0
 13  6  1  1  0  0  0
 15  2  1  6  0  0  0
 15  7  1  0  0  0  0
 16 17  1  1  0  0  0
 17  5  1  0  0  0  0
 18 19  1  0  0  0  0
 22 21  2  6  0  0  0
 22  1  1  0  0  0  0
 22 20  1  0  0  0  0
 23 25  1  0  0  0  0
 24 26  1  0  0  0  0
 25 27  1  0  0  0  0
 26 27  1  0  0  0  0
 27 29  1  1  0  0  0
 27 22  1  0  0  0  0
 28 24  1  0  0  0  0
 28 23  2  0  0  0  0
 29 30  1  0  0  0  0
 31 23  1  0  0  0  0
 31 32  1  0  0  0  0
M  END
>  <MODEL>
8

>  <REMARK>
 VINA RESULT:      -7.3      3.699      5.593
  Name = 
  6 active torsions:
  status: ('A' for Active; 'I' for Inactive)
    1  A    between atoms: N_2  and  P_31
    2  A    between atoms: O_3  and  C_14
    3  A    between atoms: C_7  and  C_22
    4  A    between atoms: C_8  and  O_16
    5  A    between atoms: O_13  and  C_28
    6  A    between atoms: C_28  and  P_31
                            x       y       z     vdW  Elec       q    Type
                         _______ _______ _______ _____ _____    ______ ____

>  <TORSDO>
F 6

$$$$
=
 OpenBabel11062414103D

 32 36  0  0  1  0  0  0  0  0999 V2000
  188.9410  177.8410  139.6730 N   0  0  0  0  0  2  0  0  0  0  0  0
  190.1300  177.5330  140.4060 C   0  0  0  0  0  0  0  0  0  0  0  0
  191.2460  177.5070  139.8170 O   0  0  0  0  0  0  0  0  0  0  0  0
  187.6260  177.1780  142.0670 N   0  0  0  0  0  2  0  0  0  0  0  0
  185.0720  178.7940  144.2920 C   0  0  0  0  0  2  0  0  0  0  0  0
  186.6960  177.5570  145.6760 C   0  0  0  0  0  2  0  0  0  0  0  0
  188.7850  177.3900  142.5980 C   0  0  1  0  0  3  0  0  0  0  0  0
  191.1400  176.9080  142.5370 C   0  0  0  0  0  3  0  0  0  0  0  0
  191.0930  176.6420  143.9500 N   0  0  0  0  0  2  0  0  0  0  0  0
  188.7130  177.3650  144.0630 C   0  0  2  0  0  0  0  0  0  0  0  0
  186.1010  178.9310  145.3980 C   0  0  2  0  0  3  0  0  0  0  0  0
  189.8970  176.7560  144.7960 C   0  0  2  0  0  3  0  0  0  0  0  0
  187.3190  176.9140  144.4260 C   0  0  2  0  0  3  0  0  0  0  0  0
  189.5540  178.2440  144.9550 C   0  0  0  0  0  2  0  0  0  0  0  0
  190.0500  177.2740  141.8580 C   0  0  0  0  0  0  0  0  0  0  0  0
  186.5680  177.1280  143.0800 C   0  0  1  0  0  3  0  0  0  0  0  0
  185.7960  178.4540  143.0010 C   0  0  0  0  0  2  0  0  0  0  0  0
  185.4790  179.4070  146.5550 O   0  0  0  0  0  0  0  0  0  0  0  0
  185.2710  178.2740  147.3440 C   0  0  0  0  0  1  0  0  0  0  0  0
  189.0560  179.7540  137.6220 O   0  0  0  0  0  1  0  0  0  0  0  0
  190.1070  177.3750  137.3150 O   0  0  0  0  0  0  0  0  0  0  0  0
  188.9330  178.0970  137.9380 P   0  0  1  0  0  0  0  0  0  0  0  0
  186.1620  175.2240  137.2190 C   0  0  0  0  0  0  0  0  0  0  0  0
  185.1070  177.3560  137.5900 C   0  0  0  0  0  2  0  0  0  0  0  0
  187.4880  175.9160  137.0940 C   0  0  0  0  0  2  0  0  0  0  0  0
  186.3390  177.7920  138.1220 O   0  0  0  0  0  0  0  0  0  0  0  0
  187.3740  177.4600  137.2120 C   0  0  1  0  0  0  0  0  0  0  0  0
  185.0840  175.9010  137.4870 N   0  0  0  0  0  0  0  0  0  0  0  0
  187.1150  178.0930  135.9600 O   0  0  0  0  0  0  0  0  0  0  0  0
  187.7680  177.4190  134.9120 C   0  0  0  0  0  1  0  0  0  0  0  0
  186.1170  173.8340  137.0980 O   0  0  0  0  0  0  0  0  0  0  0  0
  184.9300  173.0880  137.3250 C   0  0  0  0  0  1  0  0  0  0  0  0
  1  2  1  0  0  0  0
  2 15  1  0  0  0  0
  3  2  2  0  0  0  0
  4  7  1  0  0  0  0
  4 16  1  0  0  0  0
  5 11  1  0  0  0  0
  7 15  1  6  0  0  0
  7 10  1  0  0  0  0
  8  9  1  0  0  0  0
  9 12  1  0  0  0  0
 10 13  1  0  0  0  0
 10 12  1  0  0  0  0
 10 14  1  1  0  0  0
 11  6  1  0  0  0  0
 11 18  1  1  0  0  0
 12 14  1  1  0  0  0
 13  6  1  1  0  0  0
 15  8  2  0  0  0  0
 16 17  1  1  0  0  0
 16 13  1  0  0  0  0
 17  5  1  0  0  0  0
 18 19  1  0  0  0  0
 20 22  1  0  0  0  0
 22 21  2  6  0  0  0
 22  1  1  0  0  0  0
 23 28  2  0  0  0  0
 24 26  1  0  0  0  0
 25 27  1  0  0  0  0
 25 23  1  0  0  0  0
 27 29  1  6  0  0  0
 27 22  1  0  0  0  0
 27 26  1  0  0  0  0
 28 24  1  0  0  0  0
 30 29  1  0  0  0  0
 31 23  1  0  0  0  0
 31 32  1  0  0  0  0
M  END
>  <MODEL>
9

>  <REMARK>
 VINA RESULT:      -7.2      1.675      2.443
  Name = 
  6 active torsions:
  status: ('A' for Active; 'I' for Inactive)
    1  A    between atoms: N_2  and  P_31
    2  A    between atoms: O_3  and  C_14
    3  A    between atoms: C_7  and  C_22
    4  A    between atoms: C_8  and  O_16
    5  A    between atoms: O_13  and  C_28
    6  A    between atoms: C_28  and  P_31
                            x       y       z     vdW  Elec       q    Type
                         _______ _______ _______ _____ _____    ______ ____

>  <TORSDO>
F 6

$$$$
