=
 OpenBabel11062412553D

 50 54  0  0  1  0  0  0  0  0999 V2000
  189.8510  173.4000  136.4780 C   0  0  0  0  0  3  0  0  0  0  0  0
  188.2040  176.7430  136.9540 C   0  0  0  0  0  3  0  0  0  0  0  0
  188.8170  174.4410  136.5190 C   0  0  0  0  0  0  0  0  0  0  0  0
  191.1070  173.7200  136.5880 N   0  0  0  0  0  0  0  0  0  0  0  0
  186.8870  176.4650  136.5740 C   0  0  0  0  0  0  0  0  0  0  0  0
  186.5220  175.1620  136.1890 C   0  0  0  0  0  0  0  0  0  0  0  0
  191.5630  175.1150  136.6520 C   0  0  0  0  0  2  0  0  0  0  0  0
  187.5010  174.1570  136.1580 C   0  0  0  0  0  3  0  0  0  0  0  0
  190.5720  176.0000  137.4200 C   0  0  1  0  0  3  0  0  0  0  0  0
  189.1720  175.7360  136.9310 C   0  0  0  0  0  0  0  0  0  0  0  0
  185.7070  177.7630  136.6000 Cl  0  0  0  0  0  0  0  0  0  0  0  0
  190.6680  175.7040  138.8430 N   0  0  0  0  0  2  0  0  0  0  0  0
  190.2980  177.9010  139.5540 O   0  0  0  0  0  0  0  0  0  0  0  0
  190.4730  176.6900  139.8570 C   0  0  0  0  0  0  0  0  0  0  0  0
  190.4530  176.2740  141.2870 C   0  0  0  0  0  2  0  0  0  0  0  0
  190.7850  177.4490  142.2020 C   0  0  2  0  0  3  0  0  0  0  0  0
  191.7380  175.8830  143.5910 O   0  0  0  0  0  1  0  0  0  0  0  0
  191.8820  177.1490  143.1260 N   0  0  0  0  0  2  0  0  0  0  0  0
  189.6400  178.8430  143.7440 O   0  0  0  0  0  0  0  0  0  0  0  0
  189.5630  177.9460  142.9180 C   0  0  0  0  0  0  0  0  0  0  0  0
  188.2390  177.3060  142.6450 C   0  0  0  0  0  2  0  0  0  0  0  0
  187.7260  176.7650  143.8290 O   0  0  0  0  0  0  0  0  0  0  0  0
  186.3680  177.1040  143.8470 C   0  0  0  0  0  2  0  0  0  0  0  0
  186.1440  178.3850  144.6530 C   0  0  1  0  0  3  0  0  0  0  0  0
  184.1580  178.8440  145.9200 O   0  0  0  0  0  1  0  0  0  0  0  0
  184.6740  178.7960  144.6220 C   0  0  0  0  0  3  0  0  0  0  0  0
  184.5450  180.0550  144.0360 O   0  0  0  0  0  1  0  0  0  0  0  0
  186.6640  178.2430  146.0820 C   0  0  0  0  0  2  0  0  0  0  0  0
  188.0380  177.9680  146.0950 O   0  0  0  0  0  0  0  0  0  0  0  0
  188.6070  176.3630  147.8040 C   0  0  0  0  0  2  0  0  0  0  0  0
  188.3950  177.8160  147.4450 C   0  0  1  0  0  0  0  0  0  0  0  0
  189.7940  177.3150  147.7930 C   0  0  2  0  0  3  0  0  0  0  0  0
  187.5830  178.5400  148.5090 C   0  0  0  0  0  1  0  0  0  0  0  0
  190.6350  177.0410  146.5580 C   0  0  0  0  0  2  0  0  0  0  0  0
  191.9740  176.9180  146.9260 O   0  0  0  0  0  1  0  0  0  0  0  0
  185.1620  174.8930  135.8080 N   0  0  0  0  0  2  0  0  0  0  0  0
  184.1250  174.2130  136.5920 C   0  0  2  0  0  3  0  0  0  0  0  0
  182.6760  176.4600  135.8750 Cl  0  0  0  0  0  0  0  0  0  0  0  0
  181.1370  174.9320  138.5200 C   0  0  0  0  0  2  0  0  0  0  0  0
  183.3500  175.7230  138.2900 O   0  0  0  0  0  0  0  0  0  0  0  0
  182.1760  175.8310  138.9640 N   0  0  0  0  0  0  0  0  0  0  0  0
  181.8690  177.0020  139.7310 C   0  0  0  0  0  0  0  0  0  0  0  0
  181.7150  174.3470  137.2660 C   0  0  0  0  0  2  0  0  0  0  0  0
  182.9950  175.1500  137.0520 C   0  0  2  0  0  0  0  0  0  0  0  0
  180.7560  177.0930  140.3190 O   0  0  0  0  0  0  0  0  0  0  0  0
  183.7830  177.8140  141.0900 C   0  0  0  0  0  2  0  0  0  0  0  0
  182.8860  178.0890  139.8940 C   0  0  0  0  0  3  0  0  0  0  0  0
  182.6560  178.8150  141.2070 C   0  0  0  0  0  2  0  0  0  0  0  0
  184.4560  171.9960  137.4320 O   0  0  0  0  0  1  0  0  0  0  0  0
  184.6960  173.3420  137.7080 C   0  0  0  0  0  2  0  0  0  0  0  0
  1  3  1  0  0  0  0
  1  4  2  0  0  0  0
  3 10  2  0  0  0  0
  4  7  1  0  0  0  0
  5 11  1  0  0  0  0
  5  2  2  0  0  0  0
  6  5  1  0  0  0  0
  7  9  1  0  0  0  0
  8  6  2  0  0  0  0
  8  3  1  0  0  0  0
  9 12  1  1  0  0  0
 10  2  1  0  0  0  0
 10  9  1  0  0  0  0
 12 14  1  0  0  0  0
 13 14  2  0  0  0  0
 14 15  1  0  0  0  0
 16 15  1  1  0  0  0
 16 20  1  0  0  0  0
 16 18  1  0  0  0  0
 18 17  1  0  0  0  0
 20 19  2  0  0  0  0
 21 20  1  0  0  0  0
 21 22  1  0  0  0  0
 22 23  1  0  0  0  0
 24 23  1  1  0  0  0
 24 28  1  0  0  0  0
 26 24  1  0  0  0  0
 26 25  1  0  0  0  0
 27 26  1  0  0  0  0
 28 29  1  0  0  0  0
 29 31  1  0  0  0  0
 31 32  1  0  0  0  0
 31 30  1  0  0  0  0
 31 33  1  1  0  0  0
 32 34  1  6  0  0  0
 32 30  1  0  0  0  0
 34 35  1  0  0  0  0
 36  6  1  0  0  0  0
 36 37  1  0  0  0  0
 37 44  1  0  0  0  0
 37 50  1  1  0  0  0
 39 41  1  0  0  0  0
 40 41  1  0  0  0  0
 41 42  1  0  0  0  0
 42 47  1  0  0  0  0
 42 45  2  0  0  0  0
 43 39  1  0  0  0  0
 44 38  1  6  0  0  0
 44 43  1  0  0  0  0
 44 40  1  0  0  0  0
 46 48  1  0  0  0  0
 47 46  1  0  0  0  0
 47 48  1  0  0  0  0
 49 50  1  0  0  0  0
M  END
>  <MODEL>
1

>  <REMARK>
 VINA RESULT:      -6.8      0.000      0.000
  Name = 
  19 active torsions:
  status: ('A' for Active; 'I' for Inactive)
    1  A    between atoms: C_7  and  C_14
    2  A    between atoms: C_7  and  C_30
    3  A    between atoms: C_7  and  C_46
    4  A    between atoms: C_9  and  C_35
    5  A    between atoms: C_12  and  C_37
    6  A    between atoms: C_12  and  O_40
    7  A    between atoms: C_14  and  O_40
    8  A    between atoms: N_16  and  C_29
    9  A    between atoms: N_16  and  CA_45
   10  A    between atoms: C_19  and  C_24
   11  A    between atoms: C_19  and  C_50
   12  A    between atoms: C_20  and  C_21
   13  A    between atoms: C_22  and  O_25
   14  A    between atoms: C_24  and  C_37
   15  A    between atoms: C_24  and  N_48
   16  A    between atoms: O_25  and  C_30
   17  A    between atoms: N_26  and  C_34
   18  A    between atoms: C_28  and  CA_45
   19  A    between atoms: C_39  and  CA_45
                            x       y       z     vdW  Elec       q    Type
                         _______ _______ _______ _____ _____    ______ ____

>  <TORSDO>
F 19

$$$$
=
 OpenBabel11062412553D

 50 54  0  0  1  0  0  0  0  0999 V2000
  188.1950  174.7380  134.9900 C   0  0  0  0  0  3  0  0  0  0  0  0
  185.9470  177.5270  136.1220 C   0  0  0  0  0  3  0  0  0  0  0  0
  186.9830  175.4680  135.3800 C   0  0  0  0  0  0  0  0  0  0  0  0
  189.3070  175.3810  134.7800 N   0  0  0  0  0  0  0  0  0  0  0  0
  184.6930  176.9070  136.0920 C   0  0  0  0  0  0  0  0  0  0  0  0
  184.5820  175.5520  135.7310 C   0  0  0  0  0  0  0  0  0  0  0  0
  189.3890  176.8470  134.8150 C   0  0  0  0  0  2  0  0  0  0  0  0
  185.7370  174.8430  135.3690 C   0  0  0  0  0  3  0  0  0  0  0  0
  188.4590  177.4410  135.8810 C   0  0  1  0  0  3  0  0  0  0  0  0
  187.0950  176.8120  135.7700 C   0  0  0  0  0  0  0  0  0  0  0  0
  183.2760  177.8460  136.5250 Cl  0  0  0  0  0  0  0  0  0  0  0  0
  189.0190  177.1880  137.2020 N   0  0  0  0  0  2  0  0  0  0  0  0
  189.0690  179.4320  137.8560 O   0  0  0  0  0  0  0  0  0  0  0  0
  189.2540  178.2220  138.1580 C   0  0  0  0  0  0  0  0  0  0  0  0
  189.7000  177.8600  139.5320 C   0  0  0  0  0  2  0  0  0  0  0  0
  188.5040  177.6660  140.4600 C   0  0  2  0  0  3  0  0  0  0  0  0
  186.4810  178.5820  139.8590 O   0  0  0  0  0  1  0  0  0  0  0  0
  187.6390  178.8480  140.5130 N   0  0  0  0  0  2  0  0  0  0  0  0
  188.2590  176.4480  142.4810 O   0  0  0  0  0  0  0  0  0  0  0  0
  188.9400  177.2220  141.8250 C   0  0  0  0  0  0  0  0  0  0  0  0
  190.2040  177.7680  142.4090 C   0  0  0  0  0  2  0  0  0  0  0  0
  189.9000  178.6410  143.4580 O   0  0  0  0  0  0  0  0  0  0  0  0
  190.9200  178.4740  144.4030 C   0  0  0  0  0  2  0  0  0  0  0  0
  190.5840  177.3280  145.3590 C   0  0  1  0  0  3  0  0  0  0  0  0
  191.7470  176.8740  147.4090 O   0  0  0  0  0  1  0  0  0  0  0  0
  191.8480  176.7810  146.0180 C   0  0  0  0  0  3  0  0  0  0  0  0
  192.0280  175.4440  145.6650 O   0  0  0  0  0  1  0  0  0  0  0  0
  189.5420  177.7500  146.3930 C   0  0  0  0  0  2  0  0  0  0  0  0
  188.3220  178.0690  145.7810 O   0  0  0  0  0  0  0  0  0  0  0  0
  186.4760  179.1450  146.9010 C   0  0  0  0  0  2  0  0  0  0  0  0
  187.3340  177.9080  146.7660 C   0  0  1  0  0  0  0  0  0  0  0  0
  185.8670  177.8640  146.3490 C   0  0  2  0  0  3  0  0  0  0  0  0
  187.7320  177.3550  148.1270 C   0  0  0  0  0  1  0  0  0  0  0  0
  185.6870  178.0100  144.8480 C   0  0  0  0  0  2  0  0  0  0  0  0
  184.9850  179.1840  144.5770 O   0  0  0  0  0  1  0  0  0  0  0  0
  183.2860  174.9300  135.7130 N   0  0  0  0  0  2  0  0  0  0  0  0
  182.6630  174.1150  136.7620 C   0  0  2  0  0  3  0  0  0  0  0  0
  180.5350  175.8100  136.2540 Cl  0  0  0  0  0  0  0  0  0  0  0  0
  180.0580  174.2900  139.2810 C   0  0  0  0  0  2  0  0  0  0  0  0
  181.8700  175.5820  138.4900 O   0  0  0  0  0  0  0  0  0  0  0  0
  180.8770  175.4730  139.4100 N   0  0  0  0  0  0  0  0  0  0  0  0
  180.4250  176.6140  140.1480 C   0  0  0  0  0  0  0  0  0  0  0  0
  180.5030  173.7170  137.9690 C   0  0  0  0  0  2  0  0  0  0  0  0
  181.4390  174.7860  137.4100 C   0  0  2  0  0  0  0  0  0  0  0  0
  179.4760  176.4940  140.9720 O   0  0  0  0  0  0  0  0  0  0  0  0
  182.4170  177.9580  140.7780 C   0  0  0  0  0  2  0  0  0  0  0  0
  181.1130  177.9360  139.9960 C   0  0  0  0  0  3  0  0  0  0  0  0
  181.1880  178.6340  141.3430 C   0  0  0  0  0  2  0  0  0  0  0  0
  184.1680  172.3420  137.3290 O   0  0  0  0  0  1  0  0  0  0  0  0
  183.6710  173.5680  137.7700 C   0  0  0  0  0  2  0  0  0  0  0  0
  1  3  1  0  0  0  0
  3 10  1  0  0  0  0
  4  7  1  0  0  0  0
  4  1  2  0  0  0  0
  5  2  1  0  0  0  0
  5 11  1  0  0  0  0
  6  5  2  0  0  0  0
  7  9  1  0  0  0  0
  8  3  2  0  0  0  0
  8  6  1  0  0  0  0
  9 12  1  1  0  0  0
 10  9  1  0  0  0  0
 10  2  2  0  0  0  0
 12 14  1  0  0  0  0
 13 14  2  0  0  0  0
 14 15  1  0  0  0  0
 16 15  1  6  0  0  0
 16 18  1  0  0  0  0
 16 20  1  0  0  0  0
 17 18  1  0  0  0  0
 20 21  1  0  0  0  0
 20 19  2  0  0  0  0
 21 22  1  0  0  0  0
 22 23  1  0  0  0  0
 24 23  1  1  0  0  0
 24 26  1  0  0  0  0
 24 28  1  0  0  0  0
 26 25  1  0  0  0  0
 27 26  1  0  0  0  0
 29 28  1  0  0  0  0
 29 31  1  0  0  0  0
 31 30  1  0  0  0  0
 31 33  1  1  0  0  0
 32 34  1  6  0  0  0
 32 31  1  0  0  0  0
 32 30  1  0  0  0  0
 35 34  1  0  0  0  0
 36  6  1  0  0  0  0
 36 37  1  0  0  0  0
 37 44  1  0  0  0  0
 37 50  1  1  0  0  0
 39 41  1  0  0  0  0
 40 41  1  0  0  0  0
 41 42  1  0  0  0  0
 42 45  2  0  0  0  0
 43 39  1  0  0  0  0
 44 38  1  6  0  0  0
 44 43  1  0  0  0  0
 44 40  1  0  0  0  0
 46 48  1  0  0  0  0
 47 42  1  0  0  0  0
 47 46  1  0  0  0  0
 47 48  1  0  0  0  0
 49 50  1  0  0  0  0
M  END
>  <MODEL>
2

>  <REMARK>
 VINA RESULT:      -6.7      1.747      3.528
  Name = 
  19 active torsions:
  status: ('A' for Active; 'I' for Inactive)
    1  A    between atoms: C_7  and  C_14
    2  A    between atoms: C_7  and  C_30
    3  A    between atoms: C_7  and  C_46
    4  A    between atoms: C_9  and  C_35
    5  A    between atoms: C_12  and  C_37
    6  A    between atoms: C_12  and  O_40
    7  A    between atoms: C_14  and  O_40
    8  A    between atoms: N_16  and  C_29
    9  A    between atoms: N_16  and  CA_45
   10  A    between atoms: C_19  and  C_24
   11  A    between atoms: C_19  and  C_50
   12  A    between atoms: C_20  and  C_21
   13  A    between atoms: C_22  and  O_25
   14  A    between atoms: C_24  and  C_37
   15  A    between atoms: C_24  and  N_48
   16  A    between atoms: O_25  and  C_30
   17  A    between atoms: N_26  and  C_34
   18  A    between atoms: C_28  and  CA_45
   19  A    between atoms: C_39  and  CA_45
                            x       y       z     vdW  Elec       q    Type
                         _______ _______ _______ _____ _____    ______ ____

>  <TORSDO>
F 19

$$$$
=
 OpenBabel11062412553D

 50 54  0  0  1  0  0  0  0  0999 V2000
  190.6830  175.9570  142.3690 C   0  0  0  0  0  3  0  0  0  0  0  0
  189.0730  178.5810  140.2150 C   0  0  0  0  0  3  0  0  0  0  0  0
  190.1790  176.6550  141.1800 C   0  0  0  0  0  0  0  0  0  0  0  0
  190.7490  176.5760  143.5120 N   0  0  0  0  0  0  0  0  0  0  0  0
  189.2410  178.0380  138.9370 C   0  0  0  0  0  0  0  0  0  0  0  0
  189.8560  176.7830  138.7760 C   0  0  0  0  0  0  0  0  0  0  0  0
  190.4330  178.0030  143.6550 C   0  0  0  0  0  2  0  0  0  0  0  0
  190.3300  176.1020  139.9080 C   0  0  0  0  0  3  0  0  0  0  0  0
  189.2880  178.4260  142.7260 C   0  0  1  0  0  3  0  0  0  0  0  0
  189.5380  177.8940  141.3400 C   0  0  0  0  0  0  0  0  0  0  0  0
  188.6580  178.9420  137.5510 Cl  0  0  0  0  0  0  0  0  0  0  0  0
  188.0310  177.9000  143.2430 N   0  0  0  0  0  2  0  0  0  0  0  0
  188.5540  178.2450  145.4960 O   0  0  0  0  0  0  0  0  0  0  0  0
  187.7090  177.8830  144.6340 C   0  0  0  0  0  0  0  0  0  0  0  0
  186.3490  177.4540  145.0640 C   0  0  0  0  0  2  0  0  0  0  0  0
  185.5120  178.6540  145.5010 C   0  0  2  0  0  3  0  0  0  0  0  0
  185.6650  179.6370  147.5750 O   0  0  0  0  0  1  0  0  0  0  0  0
  185.1260  178.5830  146.9140 N   0  0  0  0  0  2  0  0  0  0  0  0
  183.1920  178.8730  145.0520 O   0  0  0  0  0  0  0  0  0  0  0  0
  184.3280  178.8500  144.6010 C   0  0  0  0  0  0  0  0  0  0  0  0
  184.5370  178.9780  143.1260 C   0  0  0  0  0  2  0  0  0  0  0  0
  183.4280  178.4640  142.4460 O   0  0  0  0  0  0  0  0  0  0  0  0
  183.9040  178.0460  141.1970 C   0  0  0  0  0  2  0  0  0  0  0  0
  183.0810  178.6750  140.0710 C   0  0  1  0  0  3  0  0  0  0  0  0
  183.4660  180.7210  138.8770 O   0  0  0  0  0  1  0  0  0  0  0  0
  183.9800  179.4420  139.1040 C   0  0  0  0  0  3  0  0  0  0  0  0
  185.2640  179.5570  139.6380 O   0  0  0  0  0  1  0  0  0  0  0  0
  182.2330  177.6300  139.3490 C   0  0  0  0  0  2  0  0  0  0  0  0
  182.7780  176.3480  139.4940 O   0  0  0  0  0  0  0  0  0  0  0  0
  181.9750  175.8600  137.2720 C   0  0  0  0  0  2  0  0  0  0  0  0
  181.9660  175.4870  138.7370 C   0  0  1  0  0  0  0  0  0  0  0  0
  182.6160  174.5540  137.7190 C   0  0  2  0  0  3  0  0  0  0  0  0
  180.5580  175.1810  139.2260 C   0  0  0  0  0  1  0  0  0  0  0  0
  184.1270  174.7070  137.6760 C   0  0  0  0  0  2  0  0  0  0  0  0
  184.7240  173.4570  137.8390 O   0  0  0  0  0  1  0  0  0  0  0  0
  190.0130  176.2370  137.4560 N   0  0  0  0  0  2  0  0  0  0  0  0
  190.3780  174.8650  137.0860 C   0  0  2  0  0  3  0  0  0  0  0  0
  192.0210  173.4470  135.3690 Cl  0  0  0  0  0  0  0  0  0  0  0  0
  193.7090  176.1860  136.5280 C   0  0  0  0  0  2  0  0  0  0  0  0
  192.6560  174.4310  137.7050 O   0  0  0  0  0  0  0  0  0  0  0  0
  193.8230  175.0730  137.4420 N   0  0  0  0  0  0  0  0  0  0  0  0
  195.0860  174.4470  137.6980 C   0  0  0  0  0  0  0  0  0  0  0  0
  192.3050  176.0580  136.0190 C   0  0  0  0  0  2  0  0  0  0  0  0
  191.8310  174.7290  136.6020 C   0  0  2  0  0  0  0  0  0  0  0  0
  196.1560  175.0510  137.4110 O   0  0  0  0  0  0  0  0  0  0  0  0
  196.2990  172.2830  137.8170 C   0  0  0  0  0  2  0  0  0  0  0  0
  195.1450  173.1070  138.3650 C   0  0  0  0  0  3  0  0  0  0  0  0
  194.8900  172.0140  137.3430 C   0  0  0  0  0  2  0  0  0  0  0  0
  188.1820  174.9570  136.1350 O   0  0  0  0  0  1  0  0  0  0  0  0
  189.3570  174.2050  136.1620 C   0  0  0  0  0  2  0  0  0  0  0  0
  1  4  2  0  0  0  0
  2 10  1  0  0  0  0
  3 10  2  0  0  0  0
  3  1  1  0  0  0  0
  4  7  1  0  0  0  0
  5  2  2  0  0  0  0
  6  5  1  0  0  0  0
  6  8  2  0  0  0  0
  8  3  1  0  0  0  0
  9 12  1  1  0  0  0
  9  7  1  0  0  0  0
 10  9  1  0  0  0  0
 11  5  1  0  0  0  0
 12 14  1  0  0  0  0
 14 15  1  0  0  0  0
 14 13  2  0  0  0  0
 16 15  1  6  0  0  0
 16 18  1  0  0  0  0
 18 17  1  0  0  0  0
 20 19  2  0  0  0  0
 20 16  1  0  0  0  0
 21 20  1  0  0  0  0
 22 21  1  0  0  0  0
 23 22  1  0  0  0  0
 24 28  1  6  0  0  0
 24 23  1  0  0  0  0
 25 26  1  0  0  0  0
 26 27  1  0  0  0  0
 26 24  1  0  0  0  0
 28 29  1  0  0  0  0
 30 32  1  0  0  0  0
 30 31  1  0  0  0  0
 31 33  1  1  0  0  0
 31 29  1  0  0  0  0
 32 34  1  1  0  0  0
 32 31  1  0  0  0  0
 34 35  1  0  0  0  0
 36  6  1  0  0  0  0
 37 50  1  6  0  0  0
 37 36  1  0  0  0  0
 39 41  1  0  0  0  0
 41 42  1  0  0  0  0
 41 40  1  0  0  0  0
 42 47  1  0  0  0  0
 43 39  1  0  0  0  0
 43 44  1  0  0  0  0
 44 38  1  6  0  0  0
 44 37  1  0  0  0  0
 44 40  1  0  0  0  0
 45 42  2  0  0  0  0
 46 47  1  0  0  0  0
 48 46  1  0  0  0  0
 48 47  1  0  0  0  0
 49 50  1  0  0  0  0
M  END
>  <MODEL>
3

>  <REMARK>
 VINA RESULT:      -6.6      2.996      8.622
  Name = 
  19 active torsions:
  status: ('A' for Active; 'I' for Inactive)
    1  A    between atoms: C_7  and  C_14
    2  A    between atoms: C_7  and  C_30
    3  A    between atoms: C_7  and  C_46
    4  A    between atoms: C_9  and  C_35
    5  A    between atoms: C_12  and  C_37
    6  A    between atoms: C_12  and  O_40
    7  A    between atoms: C_14  and  O_40
    8  A    between atoms: N_16  and  C_29
    9  A    between atoms: N_16  and  CA_45
   10  A    between atoms: C_19  and  C_24
   11  A    between atoms: C_19  and  C_50
   12  A    between atoms: C_20  and  C_21
   13  A    between atoms: C_22  and  O_25
   14  A    between atoms: C_24  and  C_37
   15  A    between atoms: C_24  and  N_48
   16  A    between atoms: O_25  and  C_30
   17  A    between atoms: N_26  and  C_34
   18  A    between atoms: C_28  and  CA_45
   19  A    between atoms: C_39  and  CA_45
                            x       y       z     vdW  Elec       q    Type
                         _______ _______ _______ _____ _____    ______ ____

>  <TORSDO>
F 19

$$$$
=
 OpenBabel11062412553D

 50 54  0  0  1  0  0  0  0  0999 V2000
  190.1090  176.2140  142.3250 C   0  0  0  0  0  3  0  0  0  0  0  0
  188.8030  178.6900  139.8190 C   0  0  0  0  0  3  0  0  0  0  0  0
  189.8110  176.8580  141.0390 C   0  0  0  0  0  0  0  0  0  0  0  0
  189.9060  176.8540  143.4400 N   0  0  0  0  0  0  0  0  0  0  0  0
  189.2560  178.1390  138.6160 C   0  0  0  0  0  0  0  0  0  0  0  0
  189.9690  176.9260  138.6170 C   0  0  0  0  0  0  0  0  0  0  0  0
  189.4800  178.2580  143.4760 C   0  0  0  0  0  2  0  0  0  0  0  0
  190.2470  176.2960  139.8400 C   0  0  0  0  0  3  0  0  0  0  0  0
  188.5200  178.5900  142.3260 C   0  0  1  0  0  3  0  0  0  0  0  0
  189.0760  178.0540  141.0330 C   0  0  0  0  0  0  0  0  0  0  0  0
  188.9080  178.9800  137.1160 Cl  0  0  0  0  0  0  0  0  0  0  0  0
  187.2200  177.9890  142.5980 N   0  0  0  0  0  2  0  0  0  0  0  0
  185.9690  179.7630  141.7280 O   0  0  0  0  0  0  0  0  0  0  0  0
  185.9870  178.6070  142.2300 C   0  0  0  0  0  0  0  0  0  0  0  0
  184.7110  177.8630  142.4220 C   0  0  0  0  0  2  0  0  0  0  0  0
  183.5820  178.8100  142.8180 C   0  0  2  0  0  3  0  0  0  0  0  0
  183.8980  179.3140  145.0400 O   0  0  0  0  0  1  0  0  0  0  0  0
  183.1230  178.5920  144.1930 N   0  0  0  0  0  2  0  0  0  0  0  0
  181.2940  178.6520  142.2060 O   0  0  0  0  0  0  0  0  0  0  0  0
  182.4530  178.7560  141.8300 C   0  0  0  0  0  0  0  0  0  0  0  0
  182.7530  178.7880  140.3660 C   0  0  0  0  0  2  0  0  0  0  0  0
  182.0650  177.7550  139.7210 O   0  0  0  0  0  0  0  0  0  0  0  0
  183.0490  176.9250  139.1700 C   0  0  0  0  0  2  0  0  0  0  0  0
  183.7870  177.6450  138.0400 C   0  0  1  0  0  3  0  0  0  0  0  0
  186.0680  177.1680  137.4650 O   0  0  0  0  0  1  0  0  0  0  0  0
  185.2610  177.8360  138.3890 C   0  0  0  0  0  3  0  0  0  0  0  0
  185.5810  179.1940  138.3720 O   0  0  0  0  0  1  0  0  0  0  0  0
  183.6090  176.9220  136.7070 C   0  0  0  0  0  2  0  0  0  0  0  0
  182.9260  175.7100  136.8760 O   0  0  0  0  0  0  0  0  0  0  0  0
  184.3630  173.8230  137.3170 C   0  0  0  0  0  2  0  0  0  0  0  0
  183.7260  174.7200  136.2810 C   0  0  1  0  0  0  0  0  0  0  0  0
  183.3020  173.2580  136.3840 C   0  0  2  0  0  3  0  0  0  0  0  0
  184.7250  175.1270  135.2070 C   0  0  0  0  0  1  0  0  0  0  0  0
  182.0060  173.0840  137.1580 C   0  0  0  0  0  2  0  0  0  0  0  0
  181.2690  172.0420  136.5980 O   0  0  0  0  0  1  0  0  0  0  0  0
  190.4200  176.3700  137.3710 N   0  0  0  0  0  2  0  0  0  0  0  0
  190.6980  174.9640  137.0590 C   0  0  2  0  0  3  0  0  0  0  0  0
  192.2220  173.2980  135.4580 Cl  0  0  0  0  0  0  0  0  0  0  0  0
  194.0330  176.1040  136.1990 C   0  0  0  0  0  2  0  0  0  0  0  0
  192.9920  174.5380  137.6270 O   0  0  0  0  0  0  0  0  0  0  0  0
  194.1610  175.1070  137.2360 N   0  0  0  0  0  0  0  0  0  0  0  0
  195.4180  174.4780  137.5110 C   0  0  0  0  0  0  0  0  0  0  0  0
  192.6030  175.9590  135.7710 C   0  0  0  0  0  2  0  0  0  0  0  0
  192.1240  174.7260  136.5330 C   0  0  2  0  0  0  0  0  0  0  0  0
  196.4880  175.0090  137.1060 O   0  0  0  0  0  0  0  0  0  0  0  0
  196.4940  172.2530  137.7640 C   0  0  0  0  0  2  0  0  0  0  0  0
  195.4750  173.2270  138.3330 C   0  0  0  0  0  3  0  0  0  0  0  0
  195.0210  172.0430  137.4980 C   0  0  0  0  0  2  0  0  0  0  0  0
  188.3510  174.6530  136.7020 O   0  0  0  0  0  1  0  0  0  0  0  0
  189.6100  174.3160  136.2060 C   0  0  0  0  0  2  0  0  0  0  0  0
  1  4  2  0  0  0  0
  2 10  1  0  0  0  0
  3  1  1  0  0  0  0
  4  7  1  0  0  0  0
  5  6  1  0  0  0  0
  5  2  2  0  0  0  0
  6  8  2  0  0  0  0
  8  3  1  0  0  0  0
  9 12  1  1  0  0  0
  9  7  1  0  0  0  0
 10  3  2  0  0  0  0
 10  9  1  0  0  0  0
 11  5  1  0  0  0  0
 13 14  2  0  0  0  0
 14 15  1  0  0  0  0
 14 12  1  0  0  0  0
 16 15  1  6  0  0  0
 16 18  1  0  0  0  0
 18 17  1  0  0  0  0
 20 19  2  0  0  0  0
 20 16  1  0  0  0  0
 21 20  1  0  0  0  0
 22 21  1  0  0  0  0
 23 22  1  0  0  0  0
 24 28  1  6  0  0  0
 24 26  1  0  0  0  0
 24 23  1  0  0  0  0
 25 26  1  0  0  0  0
 27 26  1  0  0  0  0
 28 29  1  0  0  0  0
 31 33  1  6  0  0  0
 31 32  1  0  0  0  0
 31 29  1  0  0  0  0
 31 30  1  0  0  0  0
 32 34  1  1  0  0  0
 32 30  1  0  0  0  0
 35 34  1  0  0  0  0
 36  6  1  0  0  0  0
 37 50  1  6  0  0  0
 37 36  1  0  0  0  0
 39 41  1  0  0  0  0
 41 42  1  0  0  0  0
 41 40  1  0  0  0  0
 42 47  1  0  0  0  0
 43 39  1  0  0  0  0
 43 44  1  0  0  0  0
 44 38  1  6  0  0  0
 44 37  1  0  0  0  0
 44 40  1  0  0  0  0
 45 42  2  0  0  0  0
 46 47  1  0  0  0  0
 48 46  1  0  0  0  0
 48 47  1  0  0  0  0
 50 49  1  0  0  0  0
M  END
>  <MODEL>
4

>  <REMARK>
 VINA RESULT:      -6.3      3.250      9.308
  Name = 
  19 active torsions:
  status: ('A' for Active; 'I' for Inactive)
    1  A    between atoms: C_7  and  C_14
    2  A    between atoms: C_7  and  C_30
    3  A    between atoms: C_7  and  C_46
    4  A    between atoms: C_9  and  C_35
    5  A    between atoms: C_12  and  C_37
    6  A    between atoms: C_12  and  O_40
    7  A    between atoms: C_14  and  O_40
    8  A    between atoms: N_16  and  C_29
    9  A    between atoms: N_16  and  CA_45
   10  A    between atoms: C_19  and  C_24
   11  A    between atoms: C_19  and  C_50
   12  A    between atoms: C_20  and  C_21
   13  A    between atoms: C_22  and  O_25
   14  A    between atoms: C_24  and  C_37
   15  A    between atoms: C_24  and  N_48
   16  A    between atoms: O_25  and  C_30
   17  A    between atoms: N_26  and  C_34
   18  A    between atoms: C_28  and  CA_45
   19  A    between atoms: C_39  and  CA_45
                            x       y       z     vdW  Elec       q    Type
                         _______ _______ _______ _____ _____    ______ ____

>  <TORSDO>
F 19

$$$$
=
 OpenBabel11062412553D

 50 54  0  0  1  0  0  0  0  0999 V2000
  190.1280  176.3050  142.0420 C   0  0  0  0  0  3  0  0  0  0  0  0
  188.7160  178.6820  139.4990 C   0  0  0  0  0  3  0  0  0  0  0  0
  189.7790  176.9000  140.7460 C   0  0  0  0  0  0  0  0  0  0  0  0
  189.9630  176.9840  143.1400 N   0  0  0  0  0  0  0  0  0  0  0  0
  189.1270  178.0890  138.3000 C   0  0  0  0  0  0  0  0  0  0  0  0
  189.8460  176.8790  138.3190 C   0  0  0  0  0  0  0  0  0  0  0  0
  189.5310  178.3870  143.1410 C   0  0  0  0  0  2  0  0  0  0  0  0
  190.1730  176.2960  139.5530 C   0  0  0  0  0  3  0  0  0  0  0  0
  188.5270  178.6720  142.0160 C   0  0  1  0  0  3  0  0  0  0  0  0
  189.0370  178.0910  140.7240 C   0  0  0  0  0  0  0  0  0  0  0  0
  188.7190  178.8730  136.7850 Cl  0  0  0  0  0  0  0  0  0  0  0  0
  187.2420  178.0760  142.3580 N   0  0  0  0  0  2  0  0  0  0  0  0
  185.9480  179.7770  141.4080 O   0  0  0  0  0  0  0  0  0  0  0  0
  185.9920  178.6560  141.9820 C   0  0  0  0  0  0  0  0  0  0  0  0
  184.7300  177.9120  142.2530 C   0  0  0  0  0  2  0  0  0  0  0  0
  183.5130  178.8080  142.0440 C   0  0  2  0  0  3  0  0  0  0  0  0
  183.4540  178.7650  144.3430 O   0  0  0  0  0  1  0  0  0  0  0  0
  182.6750  178.9050  143.2420 N   0  0  0  0  0  2  0  0  0  0  0  0
  181.8260  179.0880  140.3980 O   0  0  0  0  0  0  0  0  0  0  0  0
  182.7270  178.3880  140.8370 C   0  0  0  0  0  0  0  0  0  0  0  0
  183.0230  177.0750  140.1860 C   0  0  0  0  0  2  0  0  0  0  0  0
  182.2580  176.9430  139.0220 O   0  0  0  0  0  0  0  0  0  0  0  0
  181.5690  175.7310  139.1520 C   0  0  0  0  0  2  0  0  0  0  0  0
  181.5780  174.9630  137.8280 C   0  0  1  0  0  3  0  0  0  0  0  0
  180.8050  175.0530  135.5580 O   0  0  0  0  0  1  0  0  0  0  0  0
  181.0450  175.8320  136.6920 C   0  0  0  0  0  3  0  0  0  0  0  0
  179.8550  176.4460  137.0810 O   0  0  0  0  0  1  0  0  0  0  0  0
  182.9650  174.4070  137.5140 C   0  0  0  0  0  2  0  0  0  0  0  0
  183.7080  175.3080  136.7390 O   0  0  0  0  0  0  0  0  0  0  0  0
  185.9490  175.4850  135.8630 C   0  0  0  0  0  2  0  0  0  0  0  0
  185.0600  175.0270  136.9970 C   0  0  1  0  0  0  0  0  0  0  0  0
  186.0330  176.1830  137.2120 C   0  0  2  0  0  3  0  0  0  0  0  0
  185.4450  173.6370  137.4800 C   0  0  0  0  0  1  0  0  0  0  0  0
  185.3530  177.5380  137.1100 C   0  0  0  0  0  2  0  0  0  0  0  0
  185.5420  178.2420  138.2990 O   0  0  0  0  0  1  0  0  0  0  0  0
  190.2540  176.2800  137.0780 N   0  0  0  0  0  2  0  0  0  0  0  0
  190.5530  174.8680  136.8140 C   0  0  2  0  0  3  0  0  0  0  0  0
  192.1630  173.0180  135.5310 Cl  0  0  0  0  0  0  0  0  0  0  0  0
  193.7290  176.0590  135.5270 C   0  0  0  0  0  2  0  0  0  0  0  0
  192.8970  174.7720  137.3240 O   0  0  0  0  0  0  0  0  0  0  0  0
  193.9920  175.3340  136.7480 N   0  0  0  0  0  0  0  0  0  0  0  0
  195.3120  174.8890  137.0800 C   0  0  0  0  0  0  0  0  0  0  0  0
  192.3040  175.7030  135.2270 C   0  0  0  0  0  2  0  0  0  0  0  0
  191.9730  174.6380  136.2690 C   0  0  2  0  0  0  0  0  0  0  0  0
  196.3110  175.4030  136.5050 O   0  0  0  0  0  0  0  0  0  0  0  0
  196.2420  174.4690  139.3450 C   0  0  0  0  0  2  0  0  0  0  0  0
  195.5190  173.8640  138.1530 C   0  0  0  0  0  3  0  0  0  0  0  0
  197.0050  173.6220  138.3520 C   0  0  0  0  0  2  0  0  0  0  0  0
  188.8730  173.1640  136.7750 O   0  0  0  0  0  1  0  0  0  0  0  0
  189.4620  174.1680  136.0080 C   0  0  0  0  0  2  0  0  0  0  0  0
  1  4  2  0  0  0  0
  2 10  1  0  0  0  0
  3  1  1  0  0  0  0
  4  7  1  0  0  0  0
  5  6  1  0  0  0  0
  5  2  2  0  0  0  0
  6  8  2  0  0  0  0
  8  3  1  0  0  0  0
  9 12  1  1  0  0  0
  9  7  1  0  0  0  0
 10  3  2  0  0  0  0
 10  9  1  0  0  0  0
 11  5  1  0  0  0  0
 13 14  2  0  0  0  0
 14 15  1  0  0  0  0
 14 12  1  0  0  0  0
 16 15  1  1  0  0  0
 16 18  1  0  0  0  0
 18 17  1  0  0  0  0
 19 20  2  0  0  0  0
 20 16  1  0  0  0  0
 21 20  1  0  0  0  0
 22 23  1  0  0  0  0
 22 21  1  0  0  0  0
 24 28  1  6  0  0  0
 24 23  1  0  0  0  0
 25 26  1  0  0  0  0
 26 27  1  0  0  0  0
 26 24  1  0  0  0  0
 29 31  1  0  0  0  0
 29 28  1  0  0  0  0
 30 31  1  0  0  0  0
 30 32  1  0  0  0  0
 31 32  1  0  0  0  0
 31 33  1  1  0  0  0
 32 34  1  6  0  0  0
 34 35  1  0  0  0  0
 36  6  1  0  0  0  0
 37 50  1  6  0  0  0
 37 36  1  0  0  0  0
 39 41  1  0  0  0  0
 41 42  1  0  0  0  0
 41 40  1  0  0  0  0
 42 47  1  0  0  0  0
 43 39  1  0  0  0  0
 43 44  1  0  0  0  0
 44 38  1  6  0  0  0
 44 37  1  0  0  0  0
 44 40  1  0  0  0  0
 45 42  2  0  0  0  0
 47 48  1  0  0  0  0
 47 46  1  0  0  0  0
 48 46  1  0  0  0  0
 50 49  1  0  0  0  0
M  END
>  <MODEL>
5

>  <REMARK>
 VINA RESULT:      -6.1      3.274      9.116
  Name = 
  19 active torsions:
  status: ('A' for Active; 'I' for Inactive)
    1  A    between atoms: C_7  and  C_14
    2  A    between atoms: C_7  and  C_30
    3  A    between atoms: C_7  and  C_46
    4  A    between atoms: C_9  and  C_35
    5  A    between atoms: C_12  and  C_37
    6  A    between atoms: C_12  and  O_40
    7  A    between atoms: C_14  and  O_40
    8  A    between atoms: N_16  and  C_29
    9  A    between atoms: N_16  and  CA_45
   10  A    between atoms: C_19  and  C_24
   11  A    between atoms: C_19  and  C_50
   12  A    between atoms: C_20  and  C_21
   13  A    between atoms: C_22  and  O_25
   14  A    between atoms: C_24  and  C_37
   15  A    between atoms: C_24  and  N_48
   16  A    between atoms: O_25  and  C_30
   17  A    between atoms: N_26  and  C_34
   18  A    between atoms: C_28  and  CA_45
   19  A    between atoms: C_39  and  CA_45
                            x       y       z     vdW  Elec       q    Type
                         _______ _______ _______ _____ _____    ______ ____

>  <TORSDO>
F 19

$$$$
=
 OpenBabel11062412553D

 50 54  0  0  1  0  0  0  0  0999 V2000
  184.6690  178.8030  138.5640 C   0  0  0  0  0  3  0  0  0  0  0  0
  181.7410  176.5000  139.0490 C   0  0  0  0  0  3  0  0  0  0  0  0
  183.8020  177.6230  138.4560 C   0  0  0  0  0  0  0  0  0  0  0  0
  184.2190  179.8990  139.1020 N   0  0  0  0  0  0  0  0  0  0  0  0
  182.1020  175.4130  138.2450 C   0  0  0  0  0  0  0  0  0  0  0  0
  183.3320  175.4150  137.5630 C   0  0  0  0  0  0  0  0  0  0  0  0
  182.8220  180.0530  139.5260 C   0  0  0  0  0  2  0  0  0  0  0  0
  184.1730  176.5330  137.6700 C   0  0  0  0  0  3  0  0  0  0  0  0
  182.2520  178.7440  140.0880 C   0  0  1  0  0  3  0  0  0  0  0  0
  182.5880  177.6060  139.1590 C   0  0  0  0  0  0  0  0  0  0  0  0
  181.0020  174.0520  138.1210 Cl  0  0  0  0  0  0  0  0  0  0  0  0
  182.8240  178.4980  141.4050 N   0  0  0  0  0  2  0  0  0  0  0  0
  181.2610  179.7880  142.5710 O   0  0  0  0  0  0  0  0  0  0  0  0
  182.2520  179.0100  142.6090 C   0  0  0  0  0  0  0  0  0  0  0  0
  182.8210  178.5980  143.9220 C   0  0  0  0  0  2  0  0  0  0  0  0
  184.0400  179.4450  144.2780 C   0  0  2  0  0  3  0  0  0  0  0  0
  185.5090  179.7620  142.5360 O   0  0  0  0  0  1  0  0  0  0  0  0
  184.4540  180.3220  143.1780 N   0  0  0  0  0  2  0  0  0  0  0  0
  185.4870  177.5660  144.1970 O   0  0  0  0  0  0  0  0  0  0  0  0
  185.1700  178.5940  144.7780 C   0  0  0  0  0  0  0  0  0  0  0  0
  185.8910  178.9860  146.0280 C   0  0  0  0  0  2  0  0  0  0  0  0
  186.1190  177.8530  146.8150 O   0  0  0  0  0  0  0  0  0  0  0  0
  187.3090  177.2900  146.3400 C   0  0  0  0  0  2  0  0  0  0  0  0
  188.4880  178.2310  146.5950 C   0  0  1  0  0  3  0  0  0  0  0  0
  188.2390  177.5030  148.8680 O   0  0  0  0  0  1  0  0  0  0  0  0
  189.1810  177.8900  147.9120 C   0  0  0  0  0  3  0  0  0  0  0  0
  190.0860  176.8470  147.7170 O   0  0  0  0  0  1  0  0  0  0  0  0
  189.4670  178.2310  145.4230 C   0  0  0  0  0  2  0  0  0  0  0  0
  188.9390  177.5420  144.3230 O   0  0  0  0  0  0  0  0  0  0  0  0
  189.8190  176.0650  142.6300 C   0  0  0  0  0  2  0  0  0  0  0  0
  190.0120  177.3250  143.4420 C   0  0  1  0  0  0  0  0  0  0  0  0
  189.7720  177.4200  141.9380 C   0  0  2  0  0  3  0  0  0  0  0  0
  191.4340  177.4350  143.9720 C   0  0  0  0  0  1  0  0  0  0  0  0
  188.3280  177.7520  141.6020 C   0  0  0  0  0  2  0  0  0  0  0  0
  188.2960  178.6950  140.5760 O   0  0  0  0  0  1  0  0  0  0  0  0
  183.6890  174.2860  136.7480 N   0  0  0  0  0  2  0  0  0  0  0  0
  184.8040  173.3520  136.9410 C   0  0  2  0  0  3  0  0  0  0  0  0
  187.0080  172.2980  135.6400 Cl  0  0  0  0  0  0  0  0  0  0  0  0
  186.7090  175.6090  134.8360 C   0  0  0  0  0  2  0  0  0  0  0  0
  186.8790  174.5590  136.9440 O   0  0  0  0  0  0  0  0  0  0  0  0
  187.4410  175.4320  136.0680 N   0  0  0  0  0  0  0  0  0  0  0  0
  188.8220  175.7970  136.1720 C   0  0  0  0  0  0  0  0  0  0  0  0
  185.6680  174.5320  134.9070 C   0  0  0  0  0  2  0  0  0  0  0  0
  186.0640  173.7320  136.1450 C   0  0  2  0  0  0  0  0  0  0  0  0
  189.3300  176.5820  135.3240 O   0  0  0  0  0  0  0  0  0  0  0  0
  189.8120  176.3900  138.3720 C   0  0  0  0  0  2  0  0  0  0  0  0
  189.6520  175.3060  137.3180 C   0  0  0  0  0  3  0  0  0  0  0  0
  190.9380  176.1080  137.4030 C   0  0  0  0  0  2  0  0  0  0  0  0
  183.0800  171.7140  137.2210 O   0  0  0  0  0  1  0  0  0  0  0  0
  184.3920  171.8900  136.7810 C   0  0  0  0  0  2  0  0  0  0  0  0
  1  4  2  0  0  0  0
  2 10  1  0  0  0  0
  3  1  1  0  0  0  0
  3 10  2  0  0  0  0
  4  7  1  0  0  0  0
  5  2  2  0  0  0  0
  6  8  2  0  0  0  0
  6  5  1  0  0  0  0
  7  9  1  0  0  0  0
  8  3  1  0  0  0  0
  9 12  1  1  0  0  0
 10  9  1  0  0  0  0
 11  5  1  0  0  0  0
 12 14  1  0  0  0  0
 13 14  2  0  0  0  0
 14 15  1  0  0  0  0
 16 15  1  6  0  0  0
 16 20  1  0  0  0  0
 17 18  1  0  0  0  0
 18 16  1  0  0  0  0
 19 20  2  0  0  0  0
 20 21  1  0  0  0  0
 21 22  1  0  0  0  0
 23 24  1  0  0  0  0
 23 22  1  0  0  0  0
 24 28  1  6  0  0  0
 24 26  1  0  0  0  0
 26 25  1  0  0  0  0
 27 26  1  0  0  0  0
 29 28  1  0  0  0  0
 30 31  1  0  0  0  0
 31 33  1  1  0  0  0
 31 29  1  0  0  0  0
 32 34  1  1  0  0  0
 32 30  1  0  0  0  0
 32 31  1  0  0  0  0
 35 34  1  0  0  0  0
 36 37  1  0  0  0  0
 36  6  1  0  0  0  0
 37 50  1  6  0  0  0
 39 43  1  0  0  0  0
 39 41  1  0  0  0  0
 41 42  1  0  0  0  0
 41 40  1  0  0  0  0
 42 47  1  0  0  0  0
 43 44  1  0  0  0  0
 44 38  1  6  0  0  0
 44 37  1  0  0  0  0
 44 40  1  0  0  0  0
 45 42  2  0  0  0  0
 47 48  1  0  0  0  0
 47 46  1  0  0  0  0
 48 46  1  0  0  0  0
 50 49  1  0  0  0  0
M  END
>  <MODEL>
6

>  <REMARK>
 VINA RESULT:      -5.9      2.397      6.373
  Name = 
  19 active torsions:
  status: ('A' for Active; 'I' for Inactive)
    1  A    between atoms: C_7  and  C_14
    2  A    between atoms: C_7  and  C_30
    3  A    between atoms: C_7  and  C_46
    4  A    between atoms: C_9  and  C_35
    5  A    between atoms: C_12  and  C_37
    6  A    between atoms: C_12  and  O_40
    7  A    between atoms: C_14  and  O_40
    8  A    between atoms: N_16  and  C_29
    9  A    between atoms: N_16  and  CA_45
   10  A    between atoms: C_19  and  C_24
   11  A    between atoms: C_19  and  C_50
   12  A    between atoms: C_20  and  C_21
   13  A    between atoms: C_22  and  O_25
   14  A    between atoms: C_24  and  C_37
   15  A    between atoms: C_24  and  N_48
   16  A    between atoms: O_25  and  C_30
   17  A    between atoms: N_26  and  C_34
   18  A    between atoms: C_28  and  CA_45
   19  A    between atoms: C_39  and  CA_45
                            x       y       z     vdW  Elec       q    Type
                         _______ _______ _______ _____ _____    ______ ____

>  <TORSDO>
F 19

$$$$
=
 OpenBabel11062412553D

 50 54  0  0  1  0  0  0  0  0999 V2000
  179.4710  180.9530  140.1970 C   0  0  0  0  0  3  0  0  0  0  0  0
  180.2640  177.3370  140.8370 C   0  0  0  0  0  3  0  0  0  0  0  0
  179.7810  179.5390  139.9530 C   0  0  0  0  0  0  0  0  0  0  0  0
  179.1640  181.3590  141.3940 N   0  0  0  0  0  0  0  0  0  0  0  0
  180.3330  176.8290  139.5360 C   0  0  0  0  0  0  0  0  0  0  0  0
  180.1520  177.6830  138.4320 C   0  0  0  0  0  0  0  0  0  0  0  0
  179.0070  180.4340  142.5240 C   0  0  0  0  0  2  0  0  0  0  0  0
  179.8680  179.0390  138.6550 C   0  0  0  0  0  3  0  0  0  0  0  0
  180.0000  179.2680  142.4430 C   0  0  1  0  0  3  0  0  0  0  0  0
  179.9910  178.6900  141.0520 C   0  0  0  0  0  0  0  0  0  0  0  0
  180.6610  175.1200  139.3110 Cl  0  0  0  0  0  0  0  0  0  0  0  0
  181.3340  179.7490  142.7750 N   0  0  0  0  0  2  0  0  0  0  0  0
  181.6360  178.3250  144.6060 O   0  0  0  0  0  0  0  0  0  0  0  0
  182.1160  179.2020  143.8380 C   0  0  0  0  0  0  0  0  0  0  0  0
  183.5220  179.6590  144.0210 C   0  0  0  0  0  2  0  0  0  0  0  0
  184.3700  178.5680  144.6680 C   0  0  2  0  0  3  0  0  0  0  0  0
  185.6350  179.5550  146.3170 O   0  0  0  0  0  1  0  0  0  0  0  0
  184.5460  178.7740  146.1090 N   0  0  0  0  0  2  0  0  0  0  0  0
  186.5450  177.6580  144.3970 O   0  0  0  0  0  0  0  0  0  0  0  0
  185.6810  178.4020  143.9570 C   0  0  0  0  0  0  0  0  0  0  0  0
  185.9490  179.1900  142.7140 C   0  0  0  0  0  2  0  0  0  0  0  0
  186.3550  178.3280  141.6890 O   0  0  0  0  0  0  0  0  0  0  0  0
  187.6990  178.6310  141.4440 C   0  0  0  0  0  2  0  0  0  0  0  0
  188.3690  177.5040  140.6560 C   0  0  1  0  0  3  0  0  0  0  0  0
  189.0540  179.1330  139.0330 O   0  0  0  0  0  1  0  0  0  0  0  0
  188.4830  177.8660  139.1780 C   0  0  0  0  0  3  0  0  0  0  0  0
  189.2810  176.9310  138.5190 O   0  0  0  0  0  1  0  0  0  0  0  0
  189.7240  177.1320  141.2550 C   0  0  0  0  0  2  0  0  0  0  0  0
  189.6620  177.0810  142.6540 O   0  0  0  0  0  0  0  0  0  0  0  0
  190.6960  178.9110  143.8390 C   0  0  0  0  0  2  0  0  0  0  0  0
  190.8830  177.5940  143.1220 C   0  0  1  0  0  0  0  0  0  0  0  0
  191.1270  177.6820  144.6260 C   0  0  2  0  0  3  0  0  0  0  0  0
  192.0750  177.6390  142.1750 C   0  0  0  0  0  1  0  0  0  0  0  0
  189.9460  177.1730  145.4340 C   0  0  0  0  0  2  0  0  0  0  0  0
  190.3530  176.9280  146.7450 O   0  0  0  0  0  1  0  0  0  0  0  0
  180.2330  177.1450  137.1020 N   0  0  0  0  0  2  0  0  0  0  0  0
  181.2160  177.4630  136.0590 C   0  0  2  0  0  3  0  0  0  0  0  0
  183.3800  176.5550  134.5940 Cl  0  0  0  0  0  0  0  0  0  0  0  0
  183.9510  175.9680  137.9140 C   0  0  0  0  0  2  0  0  0  0  0  0
  182.1540  175.3050  136.5340 O   0  0  0  0  0  0  0  0  0  0  0  0
  183.1870  174.8990  137.3160 N   0  0  0  0  0  0  0  0  0  0  0  0
  183.7220  173.5740  137.2050 C   0  0  0  0  0  0  0  0  0  0  0  0
  183.4170  177.1880  137.2240 C   0  0  0  0  0  2  0  0  0  0  0  0
  182.4960  176.6160  136.1480 C   0  0  2  0  0  0  0  0  0  0  0  0
  184.7060  173.2330  137.9180 O   0  0  0  0  0  0  0  0  0  0  0  0
  183.8470  171.2590  136.3130 C   0  0  0  0  0  2  0  0  0  0  0  0
  183.0800  172.5720  136.2960 C   0  0  0  0  0  3  0  0  0  0  0  0
  184.0290  172.2230  135.1630 C   0  0  0  0  0  2  0  0  0  0  0  0
  180.4710  179.5520  135.1570 O   0  0  0  0  0  1  0  0  0  0  0  0
  181.4760  178.9620  135.9230 C   0  0  0  0  0  2  0  0  0  0  0  0
  1  4  2  0  0  0  0
  2 10  1  0  0  0  0
  3  1  1  0  0  0  0
  3 10  2  0  0  0  0
  4  7  1  0  0  0  0
  5  2  2  0  0  0  0
  6  8  2  0  0  0  0
  6  5  1  0  0  0  0
  8  3  1  0  0  0  0
  9  7  1  0  0  0  0
  9 12  1  6  0  0  0
 10  9  1  0  0  0  0
 11  5  1  0  0  0  0
 12 14  1  0  0  0  0
 14 15  1  0  0  0  0
 14 13  2  0  0  0  0
 16 15  1  6  0  0  0
 16 18  1  0  0  0  0
 18 17  1  0  0  0  0
 20 19  2  0  0  0  0
 20 16  1  0  0  0  0
 21 20  1  0  0  0  0
 22 21  1  0  0  0  0
 23 22  1  0  0  0  0
 24 28  1  1  0  0  0
 24 23  1  0  0  0  0
 25 26  1  0  0  0  0
 26 24  1  0  0  0  0
 27 26  1  0  0  0  0
 28 29  1  0  0  0  0
 29 31  1  0  0  0  0
 30 32  1  0  0  0  0
 31 33  1  6  0  0  0
 31 30  1  0  0  0  0
 31 32  1  0  0  0  0
 32 34  1  1  0  0  0
 34 35  1  0  0  0  0
 36  6  1  0  0  0  0
 37 50  1  1  0  0  0
 37 44  1  0  0  0  0
 37 36  1  0  0  0  0
 40 41  1  0  0  0  0
 41 39  1  0  0  0  0
 42 41  1  0  0  0  0
 42 45  2  0  0  0  0
 43 39  1  0  0  0  0
 44 38  1  6  0  0  0
 44 40  1  0  0  0  0
 44 43  1  0  0  0  0
 47 46  1  0  0  0  0
 47 42  1  0  0  0  0
 48 47  1  0  0  0  0
 48 46  1  0  0  0  0
 49 50  1  0  0  0  0
M  END
>  <MODEL>
7

>  <REMARK>
 VINA RESULT:      -5.9      3.186      7.420
  Name = 
  19 active torsions:
  status: ('A' for Active; 'I' for Inactive)
    1  A    between atoms: C_7  and  C_14
    2  A    between atoms: C_7  and  C_30
    3  A    between atoms: C_7  and  C_46
    4  A    between atoms: C_9  and  C_35
    5  A    between atoms: C_12  and  C_37
    6  A    between atoms: C_12  and  O_40
    7  A    between atoms: C_14  and  O_40
    8  A    between atoms: N_16  and  C_29
    9  A    between atoms: N_16  and  CA_45
   10  A    between atoms: C_19  and  C_24
   11  A    between atoms: C_19  and  C_50
   12  A    between atoms: C_20  and  C_21
   13  A    between atoms: C_22  and  O_25
   14  A    between atoms: C_24  and  C_37
   15  A    between atoms: C_24  and  N_48
   16  A    between atoms: O_25  and  C_30
   17  A    between atoms: N_26  and  C_34
   18  A    between atoms: C_28  and  CA_45
   19  A    between atoms: C_39  and  CA_45
                            x       y       z     vdW  Elec       q    Type
                         _______ _______ _______ _____ _____    ______ ____

>  <TORSDO>
F 19

$$$$
=
 OpenBabel11062412553D

 50 54  0  0  1  0  0  0  0  0999 V2000
  187.1370  177.8840  135.8160 C   0  0  0  0  0  3  0  0  0  0  0  0
  186.7770  174.1860  136.3660 C   0  0  0  0  0  3  0  0  0  0  0  0
  187.4570  176.5030  136.1970 C   0  0  0  0  0  0  0  0  0  0  0  0
  186.0690  178.1400  135.1190 N   0  0  0  0  0  0  0  0  0  0  0  0
  188.0370  173.8520  136.8740 C   0  0  0  0  0  0  0  0  0  0  0  0
  189.0070  174.8520  137.0720 C   0  0  0  0  0  0  0  0  0  0  0  0
  185.1970  177.0810  134.5940 C   0  0  0  0  0  2  0  0  0  0  0  0
  188.7070  176.1770  136.7220 C   0  0  0  0  0  3  0  0  0  0  0  0
  185.1010  175.8950  135.5620 C   0  0  1  0  0  3  0  0  0  0  0  0
  186.4800  175.5090  136.0280 C   0  0  0  0  0  0  0  0  0  0  0  0
  188.3730  172.1760  137.2680 Cl  0  0  0  0  0  0  0  0  0  0  0  0
  184.2770  176.2720  136.7030 N   0  0  0  0  0  2  0  0  0  0  0  0
  183.1340  174.2360  136.8350 O   0  0  0  0  0  0  0  0  0  0  0  0
  183.3480  175.3800  137.3200 C   0  0  0  0  0  0  0  0  0  0  0  0
  182.6470  175.8010  138.5640 C   0  0  0  0  0  2  0  0  0  0  0  0
  181.1580  176.0140  138.3050 C   0  0  2  0  0  3  0  0  0  0  0  0
  179.7660  176.4110  136.5160 O   0  0  0  0  0  1  0  0  0  0  0  0
  180.9080  176.8320  137.1140 N   0  0  0  0  0  2  0  0  0  0  0  0
  179.6700  175.8740  140.1480 O   0  0  0  0  0  0  0  0  0  0  0  0
  180.4650  176.5580  139.5190 C   0  0  0  0  0  0  0  0  0  0  0  0
  180.7190  177.9690  139.9420 C   0  0  0  0  0  2  0  0  0  0  0  0
  181.6360  177.9870  140.9980 O   0  0  0  0  0  0  0  0  0  0  0  0
  182.5440  179.0100  140.7000 C   0  0  0  0  0  2  0  0  0  0  0  0
  183.9010  178.4260  140.3020 C   0  0  1  0  0  3  0  0  0  0  0  0
  184.1750  180.4780  139.0880 O   0  0  0  0  0  1  0  0  0  0  0  0
  184.4390  179.1070  139.0460 C   0  0  0  0  0  3  0  0  0  0  0  0
  185.8170  178.9130  138.9530 O   0  0  0  0  0  1  0  0  0  0  0  0
  184.8980  178.4950  141.4560 C   0  0  0  0  0  2  0  0  0  0  0  0
  184.4200  179.3100  142.4900 O   0  0  0  0  0  0  0  0  0  0  0  0
  184.8940  179.6710  144.8290 C   0  0  0  0  0  2  0  0  0  0  0  0
  184.7910  178.6810  143.6910 C   0  0  1  0  0  0  0  0  0  0  0  0
  183.7910  178.6230  144.8420 C   0  0  2  0  0  3  0  0  0  0  0  0
  185.9680  177.7160  143.6840 C   0  0  0  0  0  1  0  0  0  0  0  0
  182.4710  179.2910  144.4950 C   0  0  0  0  0  2  0  0  0  0  0  0
  181.5460  178.3200  144.1140 O   0  0  0  0  0  1  0  0  0  0  0  0
  190.2930  174.4920  137.6020 N   0  0  0  0  0  2  0  0  0  0  0  0
  191.5010  175.3220  137.6780 C   0  0  2  0  0  3  0  0  0  0  0  0
  193.0040  176.9610  139.3260 Cl  0  0  0  0  0  0  0  0  0  0  0  0
  189.7960  178.1420  139.1940 C   0  0  0  0  0  2  0  0  0  0  0  0
  190.6150  176.0120  139.8000 O   0  0  0  0  0  0  0  0  0  0  0  0
  189.9390  177.1180  140.2030 N   0  0  0  0  0  0  0  0  0  0  0  0
  189.7680  177.4160  141.5940 C   0  0  0  0  0  0  0  0  0  0  0  0
  190.6960  177.6570  138.0970 C   0  0  0  0  0  2  0  0  0  0  0  0
  191.4000  176.4530  138.7160 C   0  0  2  0  0  0  0  0  0  0  0  0
  189.1660  178.4690  141.9420 O   0  0  0  0  0  0  0  0  0  0  0  0
  189.0770  175.6670  143.2170 C   0  0  0  0  0  2  0  0  0  0  0  0
  190.2430  176.4520  142.6380 C   0  0  0  0  0  3  0  0  0  0  0  0
  189.6590  176.8290  143.9880 C   0  0  0  0  0  2  0  0  0  0  0  0
  192.7400  174.7720  135.7050 O   0  0  0  0  0  1  0  0  0  0  0  0
  191.9940  175.7840  136.3090 C   0  0  0  0  0  2  0  0  0  0  0  0
  1  3  1  0  0  0  0
  2  5  1  0  0  0  0
  3  8  2  0  0  0  0
  4  1  2  0  0  0  0
  5  6  2  0  0  0  0
  5 11  1  0  0  0  0
  6 36  1  0  0  0  0
  7  4  1  0  0  0  0
  7  9  1  0  0  0  0
  8  6  1  0  0  0  0
  9 10  1  0  0  0  0
  9 12  1  1  0  0  0
 10  3  1  0  0  0  0
 10  2  2  0  0  0  0
 12 14  1  0  0  0  0
 13 14  2  0  0  0  0
 14 15  1  0  0  0  0
 16 15  1  1  0  0  0
 16 20  1  0  0  0  0
 17 18  1  0  0  0  0
 18 16  1  0  0  0  0
 20 21  1  0  0  0  0
 20 19  2  0  0  0  0
 21 22  1  0  0  0  0
 23 22  1  0  0  0  0
 24 23  1  1  0  0  0
 24 28  1  0  0  0  0
 26 25  1  0  0  0  0
 26 24  1  0  0  0  0
 27 26  1  0  0  0  0
 28 29  1  0  0  0  0
 29 31  1  0  0  0  0
 30 32  1  0  0  0  0
 31 33  1  6  0  0  0
 31 30  1  0  0  0  0
 31 32  1  0  0  0  0
 32 34  1  6  0  0  0
 35 34  1  0  0  0  0
 36 37  1  0  0  0  0
 37 50  1  6  0  0  0
 37 44  1  0  0  0  0
 39 41  1  0  0  0  0
 40 41  1  0  0  0  0
 41 42  1  0  0  0  0
 42 45  2  0  0  0  0
 42 47  1  0  0  0  0
 43 44  1  0  0  0  0
 43 39  1  0  0  0  0
 44 38  1  1  0  0  0
 44 40  1  0  0  0  0
 46 48  1  0  0  0  0
 47 46  1  0  0  0  0
 47 48  1  0  0  0  0
 49 50  1  0  0  0  0
M  END
>  <MODEL>
8

>  <REMARK>
 VINA RESULT:      -5.8      2.657      7.534
  Name = 
  19 active torsions:
  status: ('A' for Active; 'I' for Inactive)
    1  A    between atoms: C_7  and  C_14
    2  A    between atoms: C_7  and  C_30
    3  A    between atoms: C_7  and  C_46
    4  A    between atoms: C_9  and  C_35
    5  A    between atoms: C_12  and  C_37
    6  A    between atoms: C_12  and  O_40
    7  A    between atoms: C_14  and  O_40
    8  A    between atoms: N_16  and  C_29
    9  A    between atoms: N_16  and  CA_45
   10  A    between atoms: C_19  and  C_24
   11  A    between atoms: C_19  and  C_50
   12  A    between atoms: C_20  and  C_21
   13  A    between atoms: C_22  and  O_25
   14  A    between atoms: C_24  and  C_37
   15  A    between atoms: C_24  and  N_48
   16  A    between atoms: O_25  and  C_30
   17  A    between atoms: N_26  and  C_34
   18  A    between atoms: C_28  and  CA_45
   19  A    between atoms: C_39  and  CA_45
                            x       y       z     vdW  Elec       q    Type
                         _______ _______ _______ _____ _____    ______ ____

>  <TORSDO>
F 19

$$$$
=
 OpenBabel11062412553D

 50 54  0  0  1  0  0  0  0  0999 V2000
  188.4930  176.2590  143.4840 C   0  0  0  0  0  3  0  0  0  0  0  0
  188.3290  178.6340  140.5780 C   0  0  0  0  0  3  0  0  0  0  0  0
  188.7390  176.8500  142.1630 C   0  0  0  0  0  0  0  0  0  0  0  0
  187.8790  176.9440  144.4040 N   0  0  0  0  0  0  0  0  0  0  0  0
  189.2090  178.0320  139.6730 C   0  0  0  0  0  0  0  0  0  0  0  0
  189.8400  176.8180  139.9990 C   0  0  0  0  0  0  0  0  0  0  0  0
  187.4990  178.3500  144.2180 C   0  0  0  0  0  2  0  0  0  0  0  0
  189.6020  176.2380  141.2550 C   0  0  0  0  0  3  0  0  0  0  0  0
  187.0780  178.6370  142.7710 C   0  0  1  0  0  3  0  0  0  0  0  0
  188.0880  178.0470  141.8230 C   0  0  0  0  0  0  0  0  0  0  0  0
  189.4970  178.8120  138.1270 Cl  0  0  0  0  0  0  0  0  0  0  0  0
  185.7650  178.0520  142.5290 N   0  0  0  0  0  2  0  0  0  0  0  0
  185.0540  179.7080  141.0390 O   0  0  0  0  0  0  0  0  0  0  0  0
  184.8210  178.6120  141.6150 C   0  0  0  0  0  0  0  0  0  0  0  0
  183.5590  177.8760  141.3260 C   0  0  0  0  0  2  0  0  0  0  0  0
  182.6580  178.6830  140.3950 C   0  0  2  0  0  3  0  0  0  0  0  0
  181.4470  178.7620  142.3490 O   0  0  0  0  0  1  0  0  0  0  0  0
  181.3890  179.0560  141.0270 N   0  0  0  0  0  2  0  0  0  0  0  0
  182.1370  178.5950  138.0810 O   0  0  0  0  0  0  0  0  0  0  0  0
  182.4530  177.9760  139.0870 C   0  0  0  0  0  0  0  0  0  0  0  0
  182.5950  176.4890  139.0230 C   0  0  0  0  0  2  0  0  0  0  0  0
  182.3340  176.0460  137.7220 O   0  0  0  0  0  0  0  0  0  0  0  0
  182.6650  174.6870  137.7060 C   0  0  0  0  0  2  0  0  0  0  0  0
  184.1020  174.4890  137.2180 C   0  0  1  0  0  3  0  0  0  0  0  0
  184.5910  172.4120  136.1200 O   0  0  0  0  0  1  0  0  0  0  0  0
  184.5330  173.0330  137.3700 C   0  0  0  0  0  3  0  0  0  0  0  0
  185.7920  172.9690  137.9680 O   0  0  0  0  0  1  0  0  0  0  0  0
  184.2780  174.9860  135.7850 C   0  0  0  0  0  2  0  0  0  0  0  0
  184.7460  176.3070  135.7610 O   0  0  0  0  0  0  0  0  0  0  0  0
  186.7910  177.5800  135.6200 C   0  0  0  0  0  2  0  0  0  0  0  0
  186.1470  176.2280  135.8290 C   0  0  1  0  0  0  0  0  0  0  0  0
  186.8760  176.9100  136.9840 C   0  0  2  0  0  3  0  0  0  0  0  0
  186.8650  175.1410  135.0410 C   0  0  0  0  0  1  0  0  0  0  0  0
  185.9220  177.6100  137.9380 C   0  0  0  0  0  2  0  0  0  0  0  0
  186.0140  178.9890  137.7550 O   0  0  0  0  0  1  0  0  0  0  0  0
  190.7360  176.2100  139.0540 N   0  0  0  0  0  2  0  0  0  0  0  0
  192.0850  176.6490  138.6800 C   0  0  2  0  0  3  0  0  0  0  0  0
  192.0070  174.1140  137.5730 Cl  0  0  0  0  0  0  0  0  0  0  0  0
  194.0230  176.1100  135.6610 C   0  0  0  0  0  2  0  0  0  0  0  0
  194.1220  175.5980  137.9650 O   0  0  0  0  0  0  0  0  0  0  0  0
  194.7520  175.5280  136.7640 N   0  0  0  0  0  0  0  0  0  0  0  0
  195.8180  174.5960  136.5410 C   0  0  0  0  0  0  0  0  0  0  0  0
  192.6750  176.3840  136.2600 C   0  0  0  0  0  2  0  0  0  0  0  0
  192.7580  175.7370  137.6400 C   0  0  2  0  0  0  0  0  0  0  0  0
  196.3630  174.5260  135.4060 O   0  0  0  0  0  0  0  0  0  0  0  0
  197.4850  174.4450  138.3770 C   0  0  0  0  0  2  0  0  0  0  0  0
  196.3330  173.7520  137.6670 C   0  0  0  0  0  3  0  0  0  0  0  0
  197.7670  173.3400  137.3850 C   0  0  0  0  0  2  0  0  0  0  0  0
  193.8550  177.9890  139.5770 O   0  0  0  0  0  1  0  0  0  0  0  0
  192.9660  176.9600  139.8880 C   0  0  0  0  0  2  0  0  0  0  0  0
  1  4  2  0  0  0  0
  2 10  1  0  0  0  0
  3  1  1  0  0  0  0
  5  6  1  0  0  0  0
  5  2  2  0  0  0  0
  6  8  2  0  0  0  0
  7  4  1  0  0  0  0
  8  3  1  0  0  0  0
  9 12  1  6  0  0  0
  9  7  1  0  0  0  0
 10  3  2  0  0  0  0
 10  9  1  0  0  0  0
 11  5  1  0  0  0  0
 13 14  2  0  0  0  0
 14 12  1  0  0  0  0
 15 14  1  0  0  0  0
 16 18  1  0  0  0  0
 16 15  1  1  0  0  0
 18 17  1  0  0  0  0
 19 20  2  0  0  0  0
 20 16  1  0  0  0  0
 21 20  1  0  0  0  0
 22 21  1  0  0  0  0
 23 22  1  0  0  0  0
 24 28  1  6  0  0  0
 24 26  1  0  0  0  0
 24 23  1  0  0  0  0
 25 26  1  0  0  0  0
 26 27  1  0  0  0  0
 29 28  1  0  0  0  0
 29 31  1  0  0  0  0
 30 31  1  0  0  0  0
 30 32  1  0  0  0  0
 31 33  1  6  0  0  0
 31 32  1  0  0  0  0
 32 34  1  1  0  0  0
 35 34  1  0  0  0  0
 36  6  1  0  0  0  0
 37 36  1  0  0  0  0
 37 50  1  1  0  0  0
 39 43  1  0  0  0  0
 39 41  1  0  0  0  0
 41 40  1  0  0  0  0
 42 41  1  0  0  0  0
 42 47  1  0  0  0  0
 43 44  1  0  0  0  0
 44 38  1  6  0  0  0
 44 40  1  0  0  0  0
 44 37  1  0  0  0  0
 45 42  2  0  0  0  0
 47 46  1  0  0  0  0
 48 47  1  0  0  0  0
 48 46  1  0  0  0  0
 49 50  1  0  0  0  0
M  END
>  <MODEL>
9

>  <REMARK>
 VINA RESULT:      -5.8      3.308      9.986
  Name = 
  19 active torsions:
  status: ('A' for Active; 'I' for Inactive)
    1  A    between atoms: C_7  and  C_14
    2  A    between atoms: C_7  and  C_30
    3  A    between atoms: C_7  and  C_46
    4  A    between atoms: C_9  and  C_35
    5  A    between atoms: C_12  and  C_37
    6  A    between atoms: C_12  and  O_40
    7  A    between atoms: C_14  and  O_40
    8  A    between atoms: N_16  and  C_29
    9  A    between atoms: N_16  and  CA_45
   10  A    between atoms: C_19  and  C_24
   11  A    between atoms: C_19  and  C_50
   12  A    between atoms: C_20  and  C_21
   13  A    between atoms: C_22  and  O_25
   14  A    between atoms: C_24  and  C_37
   15  A    between atoms: C_24  and  N_48
   16  A    between atoms: O_25  and  C_30
   17  A    between atoms: N_26  and  C_34
   18  A    between atoms: C_28  and  CA_45
   19  A    between atoms: C_39  and  CA_45
                            x       y       z     vdW  Elec       q    Type
                         _______ _______ _______ _____ _____    ______ ____

>  <TORSDO>
F 19

$$$$
