=
 OpenBabel11062413073D

 40 44  0  0  1  0  0  0  0  0999 V2000
  190.0300  173.1160  137.1650 F   0  0  0  0  0  0  0  0  0  0  0  0
  185.4600  174.5340  136.7150 C   0  0  2  0  0  3  0  0  0  0  0  0
  185.0610  172.1660  136.2320 C   0  0  2  0  0  3  0  0  0  0  0  0
  190.1370  173.9340  134.9290 C   0  0  1  0  0  3  0  0  0  0  0  0
  193.2630  174.4960  135.8190 C   0  0  0  0  0  0  0  0  0  0  0  0
  190.8620  176.6690  136.1930 C   0  0  1  0  0  3  0  0  0  0  0  0
  189.4720  172.5850  134.5950 C   0  0  0  0  0  2  0  0  0  0  0  0
  189.4850  176.0850  135.9060 C   0  0  1  0  0  0  0  0  0  0  0  0
  187.9440  172.4910  134.7050 C   0  0  2  0  0  3  0  0  0  0  0  0
  187.6840  177.6270  135.5330 C   0  0  0  0  0  2  0  0  0  0  0  0
  189.2480  175.1440  134.7210 C   0  0  0  0  0  2  0  0  0  0  0  0
  193.1770  175.9820  135.6950 C   0  0  0  0  0  2  0  0  0  0  0  0
  186.3470  177.0780  135.0720 C   0  0  0  0  0  2  0  0  0  0  0  0
  190.3890  175.3980  136.9240 C   0  0  1  0  0  3  0  0  0  0  0  0
  185.5120  176.8660  136.1710 O   0  0  0  0  0  0  0  0  0  0  0  0
  190.7030  174.0110  136.3470 C   0  0  1  0  0  0  0  0  0  0  0  0
  194.3630  173.9590  135.5230 O   0  0  0  0  0  0  0  0  0  0  0  0
  188.2840  176.7210  136.5020 N   0  0  0  0  0  0  0  0  0  0  0  0
  192.1740  173.6400  136.3550 C   0  0  0  0  0  0  0  0  0  0  0  0
  184.4570  172.4950  137.5830 C   0  0  0  0  0  2  0  0  0  0  0  0
  187.3620  173.1070  135.9720 C   0  0  0  0  0  2  0  0  0  0  0  0
  185.8720  173.3840  135.8040 C   0  0  2  0  0  3  0  0  0  0  0  0
  184.4030  174.0040  137.6690 C   0  0  0  0  0  2  0  0  0  0  0  0
  184.8610  175.6630  135.8890 C   0  0  0  0  0  2  0  0  0  0  0  0
  191.8690  176.4200  135.0790 C   0  0  0  0  0  2  0  0  0  0  0  0
  192.4850  172.4790  136.7410 O   0  0  0  0  0  0  0  0  0  0  0  0
  187.5580  171.0250  134.5940 C   0  0  0  0  0  1  0  0  0  0  0  0
  189.4370  178.7360  137.7790 O   0  0  0  0  0  0  0  0  0  0  0  0
  188.4860  177.5930  138.0110 S   0  0  0  0  0  0  0  0  0  0  0  0
  187.1640  178.1700  138.4270 O   0  0  0  0  0  0  0  0  0  0  0  0
  189.1120  176.5940  139.3610 C   0  0  0  0  0  2  0  0  0  0  0  0
  189.7720  177.3980  140.4380 C   0  0  0  0  0  0  0  0  0  0  0  0
  191.0940  177.4970  140.4180 C   0  0  0  0  0  2  0  0  0  0  0  0
  188.2900  178.9760  141.4270 O   0  0  0  0  0  0  0  0  0  0  0  0
  189.0060  177.9430  141.5760 C   0  0  0  0  0  0  0  0  0  0  0  0
  187.9570  176.4940  143.1150 O   0  0  0  0  0  1  0  0  0  0  0  0
  189.0680  177.3140  142.9260 C   0  0  0  0  0  2  0  0  0  0  0  0
  183.9920  171.8660  135.2300 C   0  0  0  0  0  0  0  0  0  0  0  0
  183.4170  172.8120  134.6290 O   0  0  0  0  0  0  0  0  0  0  0  0
  183.6170  170.5240  134.9430 N   0  0  0  0  0  1  0  0  0  0  0  0
  2 24  1  6  0  0  0
  2 23  1  0  0  0  0
  3 38  1  6  0  0  0
  3 20  1  0  0  0  0
  4  7  1  1  0  0  0
  4 16  1  0  0  0  0
  5 19  1  0  0  0  0
  6 25  1  6  0  0  0
  6 14  1  0  0  0  0
  7  9  1  0  0  0  0
  8 11  1  6  0  0  0
  8  6  1  0  0  0  0
  8 18  1  0  0  0  0
  8 14  1  0  0  0  0
  9 27  1  1  0  0  0
  9 21  1  0  0  0  0
 10 18  1  0  0  0  0
 11  4  1  0  0  0  0
 12  5  1  0  0  0  0
 13 10  1  0  0  0  0
 13 15  1  0  0  0  0
 16 19  1  0  0  0  0
 16 14  1  0  0  0  0
 16  1  1  0  0  0  0
 17  5  2  0  0  0  0
 18 29  1  0  0  0  0
 19 26  2  0  0  0  0
 20 23  1  0  0  0  0
 22 21  1  0  0  0  0
 22  3  1  0  0  0  0
 22  2  1  0  0  0  0
 24 15  1  0  0  0  0
 25 12  1  0  0  0  0
 28 29  2  0  0  0  0
 29 30  2  0  0  0  0
 29 31  1  0  0  0  0
 31 32  1  0  0  0  0
 32 35  1  0  0  0  0
 33 32  2  0  0  0  0
 34 35  2  0  0  0  0
 35 37  1  0  0  0  0
 37 36  1  0  0  0  0
 39 38  2  0  0  0  0
 40 38  1  0  0  0  0
M  END
>  <MODEL>
1

>  <REMARK>
 VINA RESULT:      -5.5      0.000      0.000
  Name = 
  6 active torsions:
  status: ('A' for Active; 'I' for Inactive)
    1  A    between atoms: C_1  and  C_37
    2  A    between atoms: C_1  and  C_38
    3  A    between atoms: C_4  and  C_7
    4  A    between atoms: S_8  and  N_29
    5  A    between atoms: S_8  and  C_37
    6  A    between atoms: C_24  and  C_38
                            x       y       z     vdW  Elec       q    Type
                         _______ _______ _______ _____ _____    ______ ____

>  <TORSDO>
F 6

$$$$
=
 OpenBabel11062413073D

 40 44  0  0  1  0  0  0  0  0999 V2000
  183.1700  177.1360  140.5470 F   0  0  0  0  0  0  0  0  0  0  0  0
  184.6030  175.7180  136.1840 C   0  0  2  0  0  3  0  0  0  0  0  0
  186.8440  176.0630  137.1100 C   0  0  2  0  0  3  0  0  0  0  0  0
  182.9210  179.2140  139.4050 C   0  0  1  0  0  3  0  0  0  0  0  0
  180.5740  179.6110  141.6890 C   0  0  0  0  0  0  0  0  0  0  0  0
  180.0380  178.2700  138.7670 C   0  0  1  0  0  3  0  0  0  0  0  0
  184.4480  179.2920  139.5890 C   0  0  0  0  0  2  0  0  0  0  0  0
  181.3230  178.0060  137.9920 C   0  0  1  0  0  0  0  0  0  0  0  0
  185.3330  178.5920  138.5490 C   0  0  2  0  0  3  0  0  0  0  0  0
  181.1310  177.6030  135.6340 C   0  0  0  0  0  2  0  0  0  0  0  0
  182.4670  179.0260  137.9710 C   0  0  0  0  0  2  0  0  0  0  0  0
  179.4410  179.6540  140.7170 C   0  0  0  0  0  2  0  0  0  0  0  0
  182.4020  177.5150  134.8110 C   0  0  0  0  0  2  0  0  0  0  0  0
  181.1730  177.4430  139.4010 C   0  0  1  0  0  3  0  0  0  0  0  0
  182.7960  176.1820  134.6810 O   0  0  0  0  0  0  0  0  0  0  0  0
  182.2490  178.1310  140.2510 C   0  0  1  0  0  0  0  0  0  0  0  0
  180.4730  180.3290  142.7190 O   0  0  0  0  0  0  0  0  0  0  0  0
  181.3350  176.9710  136.9290 N   0  0  0  0  0  0  0  0  0  0  0  0
  181.7490  178.7120  141.5610 C   0  0  0  0  0  0  0  0  0  0  0  0
  186.6210  174.5760  136.9190 C   0  0  0  0  0  2  0  0  0  0  0  0
  184.8820  177.1840  138.1790 C   0  0  0  0  0  2  0  0  0  0  0  0
  185.5040  176.7460  136.8570 C   0  0  2  0  0  3  0  0  0  0  0  0
  185.4060  174.4380  136.0270 C   0  0  0  0  0  2  0  0  0  0  0  0
  184.1870  176.2140  134.8060 C   0  0  0  0  0  2  0  0  0  0  0  0
  179.9270  179.6960  139.2870 C   0  0  0  0  0  2  0  0  0  0  0  0
  182.4400  178.5070  142.5960 O   0  0  0  0  0  0  0  0  0  0  0  0
  186.7570  178.5790  139.0810 C   0  0  0  0  0  1  0  0  0  0  0  0
  178.9310  176.1610  137.6950 O   0  0  0  0  0  0  0  0  0  0  0  0
  180.1980  175.6420  137.0720 S   0  0  0  0  0  0  0  0  0  0  0  0
  179.8620  175.1320  135.7010 O   0  0  0  0  0  0  0  0  0  0  0  0
  180.7940  174.2650  138.0520 C   0  0  0  0  0  2  0  0  0  0  0  0
  180.8010  172.9660  137.3070 C   0  0  0  0  0  0  0  0  0  0  0  0
  179.7480  172.1710  137.4320 C   0  0  0  0  0  2  0  0  0  0  0  0
  182.2820  172.9930  135.4440 O   0  0  0  0  0  0  0  0  0  0  0  0
  181.9960  172.5010  136.5730 C   0  0  0  0  0  0  0  0  0  0  0  0
  183.9670  171.2380  136.2760 O   0  0  0  0  0  1  0  0  0  0  0  0
  182.8800  171.4350  137.1250 C   0  0  0  0  0  2  0  0  0  0  0  0
  187.8810  176.5710  136.1590 C   0  0  0  0  0  0  0  0  0  0  0  0
  188.9900  175.9810  136.0720 O   0  0  0  0  0  0  0  0  0  0  0  0
  187.6290  177.7120  135.3470 N   0  0  0  0  0  1  0  0  0  0  0  0
  2 24  1  6  0  0  0
  2 22  1  0  0  0  0
  3 38  1  6  0  0  0
  4 11  1  6  0  0  0
  4  7  1  0  0  0  0
  4 16  1  0  0  0  0
  5 17  2  0  0  0  0
  6 25  1  1  0  0  0
  6 14  1  0  0  0  0
  8 11  1  6  0  0  0
  8  6  1  0  0  0  0
  8 14  1  0  0  0  0
  9 27  1  1  0  0  0
  9  7  1  0  0  0  0
 10 18  1  0  0  0  0
 12  5  1  0  0  0  0
 13 10  1  0  0  0  0
 14 16  1  0  0  0  0
 15 24  1  0  0  0  0
 15 13  1  0  0  0  0
 16  1  1  0  0  0  0
 16 19  1  0  0  0  0
 18 29  1  0  0  0  0
 18  8  1  0  0  0  0
 19  5  1  0  0  0  0
 19 26  2  0  0  0  0
 20  3  1  0  0  0  0
 21  9  1  0  0  0  0
 22  3  1  0  0  0  0
 22 21  1  0  0  0  0
 23  2  1  0  0  0  0
 23 20  1  0  0  0  0
 25 12  1  0  0  0  0
 29 28  2  0  0  0  0
 29 31  1  0  0  0  0
 30 29  2  0  0  0  0
 32 33  2  0  0  0  0
 32 31  1  0  0  0  0
 34 35  2  0  0  0  0
 35 37  1  0  0  0  0
 35 32  1  0  0  0  0
 36 37  1  0  0  0  0
 39 38  2  0  0  0  0
 40 38  1  0  0  0  0
M  END
>  <MODEL>
2

>  <REMARK>
 VINA RESULT:      -5.3      4.835      9.329
  Name = 
  6 active torsions:
  status: ('A' for Active; 'I' for Inactive)
    1  A    between atoms: C_1  and  C_37
    2  A    between atoms: C_1  and  C_38
    3  A    between atoms: C_4  and  C_7
    4  A    between atoms: S_8  and  N_29
    5  A    between atoms: S_8  and  C_37
    6  A    between atoms: C_24  and  C_38
                            x       y       z     vdW  Elec       q    Type
                         _______ _______ _______ _____ _____    ______ ____

>  <TORSDO>
F 6

$$$$
=
 OpenBabel11062413073D

 40 44  0  0  1  0  0  0  0  0999 V2000
  186.7980  173.1840  137.3900 F   0  0  0  0  0  0  0  0  0  0  0  0
  185.4450  177.7520  138.0290 C   0  0  2  0  0  3  0  0  0  0  0  0
  183.1870  176.8130  137.8890 C   0  0  2  0  0  3  0  0  0  0  0  0
  187.0240  173.9340  135.1390 C   0  0  1  0  0  3  0  0  0  0  0  0
  189.3350  171.5800  135.1190 C   0  0  0  0  0  0  0  0  0  0  0  0
  189.9310  174.6860  135.9080 C   0  0  1  0  0  3  0  0  0  0  0  0
  185.4930  173.7630  135.1180 C   0  0  0  0  0  2  0  0  0  0  0  0
  188.6610  175.5150  136.0500 C   0  0  1  0  0  0  0  0  0  0  0  0
  184.6340  174.9240  135.6340 C   0  0  2  0  0  3  0  0  0  0  0  0
  188.8890  177.9040  136.0220 C   0  0  0  0  0  2  0  0  0  0  0  0
  187.4990  175.3710  135.0610 C   0  0  0  0  0  2  0  0  0  0  0  0
  190.4790  172.5110  134.8850 C   0  0  0  0  0  2  0  0  0  0  0  0
  187.6300  178.7490  135.9820 C   0  0  0  0  0  2  0  0  0  0  0  0
  188.8030  174.2270  136.8530 C   0  0  1  0  0  3  0  0  0  0  0  0
  187.2610  179.1210  137.2770 O   0  0  0  0  0  0  0  0  0  0  0  0
  187.7040  173.2840  136.3440 C   0  0  1  0  0  0  0  0  0  0  0  0
  189.4100  170.4370  134.5940 O   0  0  0  0  0  0  0  0  0  0  0  0
  188.6800  176.7450  136.8780 N   0  0  0  0  0  0  0  0  0  0  0  0
  188.1780  171.8850  135.9990 C   0  0  0  0  0  0  0  0  0  0  0  0
  183.4390  177.2630  139.3150 C   0  0  0  0  0  2  0  0  0  0  0  0
  185.1150  175.5320  136.9470 C   0  0  0  0  0  2  0  0  0  0  0  0
  184.5170  176.9200  137.1520 C   0  0  2  0  0  3  0  0  0  0  0  0
  184.6670  178.1460  139.2730 C   0  0  0  0  0  2  0  0  0  0  0  0
  185.8690  179.0120  137.2890 C   0  0  0  0  0  2  0  0  0  0  0  0
  190.0100  173.9180  134.5960 C   0  0  0  0  0  2  0  0  0  0  0  0
  187.4780  170.9130  136.3960 O   0  0  0  0  0  0  0  0  0  0  0  0
  183.2040  174.4250  135.7650 C   0  0  0  0  0  1  0  0  0  0  0  0
  189.7080  175.5750  139.0230 O   0  0  0  0  0  0  0  0  0  0  0  0
  189.8390  176.8240  138.1940 S   0  0  0  0  0  0  0  0  0  0  0  0
  191.2280  176.8570  137.6260 O   0  0  0  0  0  0  0  0  0  0  0  0
  189.6390  178.2460  139.2680 C   0  0  0  0  0  2  0  0  0  0  0  0
  189.1490  177.8900  140.6370 C   0  0  0  0  0  0  0  0  0  0  0  0
  187.9080  178.2240  140.9610 C   0  0  0  0  0  2  0  0  0  0  0  0
  191.3030  177.4960  141.5710 O   0  0  0  0  0  0  0  0  0  0  0  0
  190.0530  177.3220  141.6580 C   0  0  0  0  0  0  0  0  0  0  0  0
  190.1740  175.2840  142.8420 O   0  0  0  0  0  1  0  0  0  0  0  0
  189.5280  176.5180  142.7990 C   0  0  0  0  0  2  0  0  0  0  0  0
  182.1520  177.6750  137.2360 C   0  0  0  0  0  0  0  0  0  0  0  0
  182.1610  177.8210  135.9860 O   0  0  0  0  0  0  0  0  0  0  0  0
  181.1540  178.3290  138.0110 N   0  0  0  0  0  1  0  0  0  0  0  0
  2 24  1  6  0  0  0
  2 23  1  0  0  0  0
  3 38  1  6  0  0  0
  3 20  1  0  0  0  0
  4 11  1  1  0  0  0
  4 16  1  0  0  0  0
  5 19  1  0  0  0  0
  6 25  1  6  0  0  0
  6  8  1  0  0  0  0
  6 14  1  0  0  0  0
  7  4  1  0  0  0  0
  7  9  1  0  0  0  0
  8 11  1  6  0  0  0
  8 14  1  0  0  0  0
  8 18  1  0  0  0  0
  9 27  1  1  0  0  0
  9 21  1  0  0  0  0
 10 18  1  0  0  0  0
 12  5  1  0  0  0  0
 13 10  1  0  0  0  0
 13 15  1  0  0  0  0
 15 24  1  0  0  0  0
 16 14  1  0  0  0  0
 16  1  1  0  0  0  0
 17  5  2  0  0  0  0
 18 29  1  0  0  0  0
 19 16  1  0  0  0  0
 19 26  2  0  0  0  0
 21 22  1  0  0  0  0
 22  3  1  0  0  0  0
 22  2  1  0  0  0  0
 23 20  1  0  0  0  0
 25 12  1  0  0  0  0
 29 28  2  0  0  0  0
 29 31  1  0  0  0  0
 30 29  2  0  0  0  0
 31 32  1  0  0  0  0
 32 33  2  0  0  0  0
 32 35  1  0  0  0  0
 34 35  2  0  0  0  0
 35 37  1  0  0  0  0
 37 36  1  0  0  0  0
 38 40  1  0  0  0  0
 39 38  2  0  0  0  0
M  END
>  <MODEL>
3

>  <REMARK>
 VINA RESULT:      -5.1      2.613      3.899
  Name = 
  6 active torsions:
  status: ('A' for Active; 'I' for Inactive)
    1  A    between atoms: C_1  and  C_37
    2  A    between atoms: C_1  and  C_38
    3  A    between atoms: C_4  and  C_7
    4  A    between atoms: S_8  and  N_29
    5  A    between atoms: S_8  and  C_37
    6  A    between atoms: C_24  and  C_38
                            x       y       z     vdW  Elec       q    Type
                         _______ _______ _______ _____ _____    ______ ____

>  <TORSDO>
F 6

$$$$
=
 OpenBabel11062413073D

 40 44  0  0  1  0  0  0  0  0999 V2000
  185.6880  174.0780  137.6090 F   0  0  0  0  0  0  0  0  0  0  0  0
  180.8990  174.2290  137.2330 C   0  0  2  0  0  3  0  0  0  0  0  0
  181.1500  171.8750  136.6040 C   0  0  2  0  0  3  0  0  0  0  0  0
  185.5390  175.0260  135.4270 C   0  0  1  0  0  3  0  0  0  0  0  0
  188.4090  176.3590  136.3600 C   0  0  0  0  0  0  0  0  0  0  0  0
  185.5150  177.7750  136.8590 C   0  0  1  0  0  3  0  0  0  0  0  0
  185.2590  173.5700  135.0100 C   0  0  0  0  0  2  0  0  0  0  0  0
  184.3440  176.8580  136.5330 C   0  0  1  0  0  0  0  0  0  0  0  0
  183.8160  173.0590  135.1090 C   0  0  2  0  0  3  0  0  0  0  0  0
  182.1880  177.8740  136.2490 C   0  0  0  0  0  2  0  0  0  0  0  0
  184.3540  175.9600  135.2910 C   0  0  0  0  0  2  0  0  0  0  0  0
  187.9220  177.7710  136.3270 C   0  0  0  0  0  2  0  0  0  0  0  0
  181.0430  177.0120  135.7510 C   0  0  0  0  0  2  0  0  0  0  0  0
  185.4130  176.3820  137.5090 C   0  0  1  0  0  3  0  0  0  0  0  0
  180.3110  176.5170  136.8330 O   0  0  0  0  0  0  0  0  0  0  0  0
  186.0830  175.1690  136.8500 C   0  0  1  0  0  0  0  0  0  0  0  0
  189.6090  176.1590  136.0350 O   0  0  0  0  0  0  0  0  0  0  0  0
  183.0230  177.1080  137.1620 N   0  0  0  0  0  0  0  0  0  0  0  0
  187.6000  175.2100  136.8390 C   0  0  0  0  0  0  0  0  0  0  0  0
  180.4970  171.9470  137.9710 C   0  0  0  0  0  2  0  0  0  0  0  0
  183.1060  173.4180  136.4100 C   0  0  0  0  0  2  0  0  0  0  0  0
  181.5940  173.2910  136.2540 C   0  0  2  0  0  3  0  0  0  0  0  0
  180.0380  173.3780  138.1500 C   0  0  0  0  0  2  0  0  0  0  0  0
  180.0060  175.2020  136.4750 C   0  0  0  0  0  2  0  0  0  0  0  0
  186.5370  177.8750  135.7340 C   0  0  0  0  0  2  0  0  0  0  0  0
  188.2180  174.1560  137.1540 O   0  0  0  0  0  0  0  0  0  0  0  0
  183.8400  171.5530  134.9070 C   0  0  0  0  0  1  0  0  0  0  0  0
  183.4460  176.9270  139.7720 O   0  0  0  0  0  0  0  0  0  0  0  0
  183.0030  177.9110  138.7230 S   0  0  0  0  0  0  0  0  0  0  0  0
  183.9870  179.0430  138.7070 O   0  0  0  0  0  0  0  0  0  0  0  0
  181.4010  178.5650  139.1930 C   0  0  0  0  0  2  0  0  0  0  0  0
  180.8520  177.9470  140.4420 C   0  0  0  0  0  0  0  0  0  0  0  0
  180.1210  176.8470  140.3220 C   0  0  0  0  0  2  0  0  0  0  0  0
  182.1210  178.9500  142.1870 O   0  0  0  0  0  0  0  0  0  0  0  0
  180.9820  178.6090  141.7550 C   0  0  0  0  0  0  0  0  0  0  0  0
  179.6730  177.8780  143.5770 O   0  0  0  0  0  1  0  0  0  0  0  0
  179.7920  178.8750  142.6120 C   0  0  0  0  0  2  0  0  0  0  0  0
  180.1870  171.3580  135.5830 C   0  0  0  0  0  0  0  0  0  0  0  0
  179.8530  170.1440  135.5980 O   0  0  0  0  0  0  0  0  0  0  0  0
  179.6400  172.2220  134.5940 N   0  0  0  0  0  1  0  0  0  0  0  0
  2 24  1  6  0  0  0
  2 23  1  0  0  0  0
  3 38  1  6  0  0  0
  3 20  1  0  0  0  0
  4  7  1  1  0  0  0
  4 16  1  0  0  0  0
  5 19  1  0  0  0  0
  6 25  1  6  0  0  0
  6 14  1  0  0  0  0
  7  9  1  0  0  0  0
  8 11  1  6  0  0  0
  8  6  1  0  0  0  0
  8 18  1  0  0  0  0
  8 14  1  0  0  0  0
  9 27  1  1  0  0  0
  9 21  1  0  0  0  0
 10 18  1  0  0  0  0
 11  4  1  0  0  0  0
 12  5  1  0  0  0  0
 13 10  1  0  0  0  0
 13 15  1  0  0  0  0
 16 14  1  0  0  0  0
 16  1  1  0  0  0  0
 17  5  2  0  0  0  0
 18 29  1  0  0  0  0
 19 16  1  0  0  0  0
 19 26  2  0  0  0  0
 20 23  1  0  0  0  0
 22 21  1  0  0  0  0
 22  3  1  0  0  0  0
 22  2  1  0  0  0  0
 24 15  1  0  0  0  0
 25 12  1  0  0  0  0
 29 31  1  0  0  0  0
 29 28  2  0  0  0  0
 30 29  2  0  0  0  0
 31 32  1  0  0  0  0
 32 35  1  0  0  0  0
 33 32  2  0  0  0  0
 35 34  2  0  0  0  0
 35 37  1  0  0  0  0
 37 36  1  0  0  0  0
 38 39  2  0  0  0  0
 40 38  1  0  0  0  0
M  END
>  <MODEL>
4

>  <REMARK>
 VINA RESULT:      -4.9      4.149      5.705
  Name = 
  6 active torsions:
  status: ('A' for Active; 'I' for Inactive)
    1  A    between atoms: C_1  and  C_37
    2  A    between atoms: C_1  and  C_38
    3  A    between atoms: C_4  and  C_7
    4  A    between atoms: S_8  and  N_29
    5  A    between atoms: S_8  and  C_37
    6  A    between atoms: C_24  and  C_38
                            x       y       z     vdW  Elec       q    Type
                         _______ _______ _______ _____ _____    ______ ____

>  <TORSDO>
F 6

$$$$
=
 OpenBabel11062413073D

 40 44  0  0  1  0  0  0  0  0999 V2000
  184.1500  179.2470  138.3510 F   0  0  0  0  0  0  0  0  0  0  0  0
  179.8380  178.3500  140.2750 C   0  0  2  0  0  3  0  0  0  0  0  0
  180.7870  179.4680  142.2370 C   0  0  2  0  0  3  0  0  0  0  0  0
  184.5220  176.9840  139.0030 C   0  0  1  0  0  3  0  0  0  0  0  0
  186.5640  177.1040  136.4150 C   0  0  0  0  0  0  0  0  0  0  0  0
  183.4320  176.2250  136.2020 C   0  0  1  0  0  3  0  0  0  0  0  0
  184.7180  177.6080  140.3970 C   0  0  0  0  0  2  0  0  0  0  0  0
  182.6620  176.4640  137.4940 C   0  0  1  0  0  0  0  0  0  0  0  0
  183.4700  177.8630  141.2520 C   0  0  2  0  0  3  0  0  0  0  0  0
  180.5520  175.3480  137.7470 C   0  0  0  0  0  2  0  0  0  0  0  0
  183.2730  176.1370  138.8610 C   0  0  0  0  0  2  0  0  0  0  0  0
  185.8200  176.0930  135.6050 C   0  0  0  0  0  2  0  0  0  0  0  0
  179.8500  175.4250  139.0900 C   0  0  0  0  0  2  0  0  0  0  0  0
  183.4280  177.6180  136.8600 C   0  0  1  0  0  3  0  0  0  0  0  0
  178.9310  176.4760  139.0900 O   0  0  0  0  0  0  0  0  0  0  0  0
  184.5240  178.0040  137.8630 C   0  0  1  0  0  0  0  0  0  0  0  0
  187.8180  177.1250  136.2940 O   0  0  0  0  0  0  0  0  0  0  0  0
  181.1870  176.6220  137.4470 N   0  0  0  0  0  0  0  0  0  0  0  0
  185.9130  178.1330  137.2660 C   0  0  0  0  0  0  0  0  0  0  0  0
  179.7230  180.3640  141.6340 C   0  0  0  0  0  2  0  0  0  0  0  0
  182.3130  178.5150  140.5030 C   0  0  0  0  0  2  0  0  0  0  0  0
  181.0020  178.3200  141.2570 C   0  0  2  0  0  3  0  0  0  0  0  0
  178.9310  179.5010  140.6760 C   0  0  0  0  0  2  0  0  0  0  0  0
  179.0530  177.0480  140.3580 C   0  0  0  0  0  2  0  0  0  0  0  0
  184.7180  175.4350  136.4010 C   0  0  0  0  0  2  0  0  0  0  0  0
  186.6070  179.1310  137.6040 O   0  0  0  0  0  0  0  0  0  0  0  0
  183.8860  178.7120  142.4430 C   0  0  0  0  0  1  0  0  0  0  0  0
  180.5700  176.1820  134.9070 O   0  0  0  0  0  0  0  0  0  0  0  0
  180.4810  177.2470  135.9660 S   0  0  0  0  0  0  0  0  0  0  0  0
  179.0290  177.5450  136.2000 O   0  0  0  0  0  0  0  0  0  0  0  0
  181.2660  178.7350  135.3470 C   0  0  0  0  0  2  0  0  0  0  0  0
  180.4710  179.9770  135.6060 C   0  0  0  0  0  0  0  0  0  0  0  0
  179.7920  180.5030  134.5960 C   0  0  0  0  0  2  0  0  0  0  0  0
  181.4460  180.3910  137.7370 O   0  0  0  0  0  0  0  0  0  0  0  0
  180.5490  180.6910  136.8970 C   0  0  0  0  0  0  0  0  0  0  0  0
  180.0760  182.5270  138.3010 O   0  0  0  0  0  1  0  0  0  0  0  0
  179.5720  181.7590  137.2540 C   0  0  0  0  0  2  0  0  0  0  0  0
  180.3490  178.9480  143.5700 C   0  0  0  0  0  0  0  0  0  0  0  0
  181.1280  178.2220  144.2420 O   0  0  0  0  0  0  0  0  0  0  0  0
  179.0640  179.2680  144.0910 N   0  0  0  0  0  1  0  0  0  0  0  0
  2 24  1  1  0  0  0
  2 23  1  0  0  0  0
  2 22  1  0  0  0  0
  3 38  1  1  0  0  0
  4 11  1  1  0  0  0
  4  7  1  0  0  0  0
  5 19  1  0  0  0  0
  6 25  1  1  0  0  0
  6 14  1  0  0  0  0
  6  8  1  0  0  0  0
  7  9  1  0  0  0  0
  8 11  1  1  0  0  0
  9 27  1  1  0  0  0
 10 13  1  0  0  0  0
 12 25  1  0  0  0  0
 12  5  1  0  0  0  0
 14  8  1  0  0  0  0
 14 16  1  0  0  0  0
 15 13  1  0  0  0  0
 15 24  1  0  0  0  0
 16  1  1  0  0  0  0
 16  4  1  0  0  0  0
 17  5  2  0  0  0  0
 18  8  1  0  0  0  0
 18 10  1  0  0  0  0
 19 26  2  0  0  0  0
 19 16  1  0  0  0  0
 20  3  1  0  0  0  0
 21  9  1  0  0  0  0
 21 22  1  0  0  0  0
 22  3  1  0  0  0  0
 23 20  1  0  0  0  0
 28 29  2  0  0  0  0
 29 30  2  0  0  0  0
 29 18  1  0  0  0  0
 31 32  1  0  0  0  0
 31 29  1  0  0  0  0
 32 35  1  0  0  0  0
 33 32  2  0  0  0  0
 35 37  1  0  0  0  0
 35 34  2  0  0  0  0
 37 36  1  0  0  0  0
 38 40  1  0  0  0  0
 38 39  2  0  0  0  0
M  END
>  <MODEL>
5

>  <REMARK>
 VINA RESULT:      -4.5      6.040      9.085
  Name = 
  6 active torsions:
  status: ('A' for Active; 'I' for Inactive)
    1  A    between atoms: C_1  and  C_37
    2  A    between atoms: C_1  and  C_38
    3  A    between atoms: C_4  and  C_7
    4  A    between atoms: S_8  and  N_29
    5  A    between atoms: S_8  and  C_37
    6  A    between atoms: C_24  and  C_38
                            x       y       z     vdW  Elec       q    Type
                         _______ _______ _______ _____ _____    ______ ____

>  <TORSDO>
F 6

$$$$
=
 OpenBabel11062413073D

 40 44  0  0  1  0  0  0  0  0999 V2000
  188.3840  175.5950  138.2060 F   0  0  0  0  0  0  0  0  0  0  0  0
  185.1420  178.1020  140.7170 C   0  0  2  0  0  3  0  0  0  0  0  0
  183.8540  177.9940  138.6370 C   0  0  2  0  0  3  0  0  0  0  0  0
  189.3350  177.7650  137.9370 C   0  0  1  0  0  3  0  0  0  0  0  0
  192.1020  175.9780  137.7610 C   0  0  0  0  0  0  0  0  0  0  0  0
  190.8970  177.1680  140.5460 C   0  0  1  0  0  3  0  0  0  0  0  0
  188.2330  177.9180  136.8710 C   0  0  0  0  0  2  0  0  0  0  0  0
  189.5050  177.7640  140.3810 C   0  0  1  0  0  0  0  0  0  0  0  0
  186.8400  178.3620  137.3360 C   0  0  2  0  0  3  0  0  0  0  0  0
  188.7070  179.2080  142.1240 C   0  0  0  0  0  2  0  0  0  0  0  0
  189.1450  178.6280  139.1680 C   0  0  0  0  0  2  0  0  0  0  0  0
  192.7130  176.5480  138.9990 C   0  0  0  0  0  2  0  0  0  0  0  0
  187.4040  179.9550  141.9040 C   0  0  0  0  0  2  0  0  0  0  0  0
  189.7610  176.3330  139.9260 C   0  0  1  0  0  3  0  0  0  0  0  0
  186.3420  179.2350  142.4540 O   0  0  0  0  0  0  0  0  0  0  0  0
  189.5470  176.3250  138.4060 C   0  0  1  0  0  0  0  0  0  0  0  0
  192.8860  175.6750  136.8220 O   0  0  0  0  0  0  0  0  0  0  0  0
  188.6120  177.8700  141.5610 N   0  0  0  0  0  0  0  0  0  0  0  0
  190.6580  175.6640  137.6120 C   0  0  0  0  0  0  0  0  0  0  0  0
  183.1750  177.1220  139.6750 C   0  0  0  0  0  2  0  0  0  0  0  0
  186.3270  177.6380  138.5750 C   0  0  0  0  0  2  0  0  0  0  0  0
  185.1930  178.4210  139.2280 C   0  0  2  0  0  3  0  0  0  0  0  0
  183.7780  177.5010  141.0100 C   0  0  0  0  0  2  0  0  0  0  0  0
  185.3050  179.3790  141.5290 C   0  0  0  0  0  2  0  0  0  0  0  0
  191.9080  177.7050  139.5430 C   0  0  0  0  0  2  0  0  0  0  0  0
  190.3280  174.8730  136.6860 O   0  0  0  0  0  0  0  0  0  0  0  0
  185.8800  178.1810  136.1710 C   0  0  0  0  0  1  0  0  0  0  0  0
  187.5590  175.9460  143.0490 O   0  0  0  0  0  0  0  0  0  0  0  0
  188.8390  176.7140  142.8620 S   0  0  0  0  0  0  0  0  0  0  0  0
  189.9100  175.7380  142.4720 O   0  0  0  0  0  0  0  0  0  0  0  0
  189.2960  177.4520  144.4310 C   0  0  0  0  0  2  0  0  0  0  0  0
  190.7720  177.4310  144.6890 C   0  0  0  0  0  0  0  0  0  0  0  0
  191.5400  178.2370  143.9700 C   0  0  0  0  0  2  0  0  0  0  0  0
  192.0530  175.4760  145.1380 O   0  0  0  0  0  0  0  0  0  0  0  0
  191.3830  176.4440  145.6020 C   0  0  0  0  0  0  0  0  0  0  0  0
  192.4310  176.2920  147.7110 O   0  0  0  0  0  1  0  0  0  0  0  0
  191.2150  176.5440  147.0790 C   0  0  0  0  0  2  0  0  0  0  0  0
  183.0140  179.1890  138.3160 C   0  0  0  0  0  0  0  0  0  0  0  0
  183.3700  180.3280  138.7190 O   0  0  0  0  0  0  0  0  0  0  0  0
  181.8180  179.0580  137.5570 N   0  0  0  0  0  1  0  0  0  0  0  0
  1 16  1  0  0  0  0
  2 23  1  6  0  0  0
  2 24  1  0  0  0  0
  3 38  1  1  0  0  0
  3 22  1  0  0  0  0
  3 20  1  0  0  0  0
  4  7  1  6  0  0  0
  4 16  1  0  0  0  0
  4 11  1  0  0  0  0
  5 12  1  0  0  0  0
  6 25  1  6  0  0  0
  7  9  1  0  0  0  0
  8 11  1  6  0  0  0
  8  6  1  0  0  0  0
  8 18  1  0  0  0  0
  9 27  1  6  0  0  0
  9 21  1  0  0  0  0
 12 25  1  0  0  0  0
 13 10  1  0  0  0  0
 13 15  1  0  0  0  0
 14  8  1  0  0  0  0
 14  6  1  0  0  0  0
 16 14  1  0  0  0  0
 17  5  2  0  0  0  0
 18 10  1  0  0  0  0
 18 29  1  0  0  0  0
 19  5  1  0  0  0  0
 19 16  1  0  0  0  0
 20 23  1  0  0  0  0
 21 22  1  0  0  0  0
 22  2  1  0  0  0  0
 24 15  1  0  0  0  0
 26 19  2  0  0  0  0
 29 28  2  0  0  0  0
 29 31  1  0  0  0  0
 30 29  2  0  0  0  0
 31 32  1  0  0  0  0
 32 35  1  0  0  0  0
 33 32  2  0  0  0  0
 34 35  2  0  0  0  0
 35 37  1  0  0  0  0
 37 36  1  0  0  0  0
 38 39  2  0  0  0  0
 40 38  1  0  0  0  0
M  END
>  <MODEL>
6

>  <REMARK>
 VINA RESULT:      -4.4      3.959      5.564
  Name = 
  6 active torsions:
  status: ('A' for Active; 'I' for Inactive)
    1  A    between atoms: C_1  and  C_37
    2  A    between atoms: C_1  and  C_38
    3  A    between atoms: C_4  and  C_7
    4  A    between atoms: S_8  and  N_29
    5  A    between atoms: S_8  and  C_37
    6  A    between atoms: C_24  and  C_38
                            x       y       z     vdW  Elec       q    Type
                         _______ _______ _______ _____ _____    ______ ____

>  <TORSDO>
F 6

$$$$
=
 OpenBabel11062413073D

 40 44  0  0  1  0  0  0  0  0999 V2000
  187.0410  176.4180  142.6570 F   0  0  0  0  0  0  0  0  0  0  0  0
  186.9070  176.8980  137.8760 C   0  0  2  0  0  3  0  0  0  0  0  0
  189.2550  176.2160  138.0180 C   0  0  2  0  0  3  0  0  0  0  0  0
  187.3510  178.7780  142.5340 C   0  0  1  0  0  3  0  0  0  0  0  0
  185.8480  178.6200  145.4660 C   0  0  0  0  0  0  0  0  0  0  0  0
  184.2600  178.9730  142.6420 C   0  0  1  0  0  3  0  0  0  0  0  0
  188.8000  178.3880  142.1870 C   0  0  0  0  0  2  0  0  0  0  0  0
  185.1640  178.7980  141.4290 C   0  0  1  0  0  0  0  0  0  0  0  0
  189.1260  178.0630  140.7240 C   0  0  2  0  0  3  0  0  0  0  0  0
  184.3520  179.6020  139.3180 C   0  0  0  0  0  2  0  0  0  0  0  0
  186.5740  179.3970  141.3900 C   0  0  0  0  0  2  0  0  0  0  0  0
  184.6380  179.3860  145.0420 C   0  0  0  0  0  2  0  0  0  0  0  0
  185.2990  179.6020  138.1320 C   0  0  0  0  0  2  0  0  0  0  0  0
  185.1100  177.6980  142.4830 C   0  0  1  0  0  3  0  0  0  0  0  0
  185.1340  178.4330  137.3870 O   0  0  0  0  0  0  0  0  0  0  0  0
  186.5160  177.6250  143.0940 C   0  0  1  0  0  0  0  0  0  0  0  0
  186.2370  178.7750  146.6540 O   0  0  0  0  0  0  0  0  0  0  0  0
  184.5700  178.4110  140.1250 N   0  0  0  0  0  0  0  0  0  0  0  0
  186.5500  177.6300  144.6110 C   0  0  0  0  0  0  0  0  0  0  0  0
  188.4610  175.0940  137.3790 C   0  0  0  0  0  2  0  0  0  0  0  0
  188.1180  177.1470  140.0390 C   0  0  0  0  0  2  0  0  0  0  0  0
  188.2440  177.2390  138.5220 C   0  0  2  0  0  3  0  0  0  0  0  0
  187.1260  175.6880  136.9850 C   0  0  0  0  0  2  0  0  0  0  0  0
  186.4300  178.0640  137.0210 C   0  0  0  0  0  2  0  0  0  0  0  0
  184.7980  179.9700  143.6580 C   0  0  0  0  0  2  0  0  0  0  0  0
  187.3140  176.8050  145.1840 O   0  0  0  0  0  0  0  0  0  0  0  0
  190.5200  177.4580  140.6790 C   0  0  0  0  0  1  0  0  0  0  0  0
  183.1080  176.4960  139.0210 O   0  0  0  0  0  0  0  0  0  0  0  0
  183.0770  177.4900  140.1510 S   0  0  0  0  0  0  0  0  0  0  0  0
  182.9930  176.7220  141.4380 O   0  0  0  0  0  0  0  0  0  0  0  0
  181.5940  178.4850  139.9940 C   0  0  0  0  0  2  0  0  0  0  0  0
  180.5920  178.2310  141.0780 C   0  0  0  0  0  0  0  0  0  0  0  0
  179.6970  177.2730  140.8860 C   0  0  0  0  0  2  0  0  0  0  0  0
  180.2680  180.3460  142.1210 O   0  0  0  0  0  0  0  0  0  0  0  0
  180.4940  179.1090  142.2620 C   0  0  0  0  0  0  0  0  0  0  0  0
  179.4370  178.2720  144.1980 O   0  0  0  0  0  1  0  0  0  0  0  0
  180.6770  178.5760  143.6420 C   0  0  0  0  0  2  0  0  0  0  0  0
  190.1860  176.8390  137.0270 C   0  0  0  0  0  0  0  0  0  0  0  0
  189.7710  177.7600  136.2750 O   0  0  0  0  0  0  0  0  0  0  0  0
  191.5380  176.4070  136.9240 N   0  0  0  0  0  1  0  0  0  0  0  0
  1 16  1  0  0  0  0
  2 23  1  6  0  0  0
  2 22  1  0  0  0  0
  3 38  1  6  0  0  0
  3 22  1  0  0  0  0
  4 11  1  6  0  0  0
  4 16  1  0  0  0  0
  5 17  2  0  0  0  0
  6 25  1  1  0  0  0
  7  4  1  0  0  0  0
  8 11  1  6  0  0  0
  8 14  1  0  0  0  0
  8  6  1  0  0  0  0
  9 27  1  1  0  0  0
  9  7  1  0  0  0  0
 10 18  1  0  0  0  0
 12  5  1  0  0  0  0
 13 10  1  0  0  0  0
 14  6  1  0  0  0  0
 14 16  1  0  0  0  0
 15 13  1  0  0  0  0
 16 19  1  0  0  0  0
 18 29  1  0  0  0  0
 18  8  1  0  0  0  0
 19 26  2  0  0  0  0
 19  5  1  0  0  0  0
 20  3  1  0  0  0  0
 21  9  1  0  0  0  0
 22 21  1  0  0  0  0
 23 20  1  0  0  0  0
 24 15  1  0  0  0  0
 24  2  1  0  0  0  0
 25 12  1  0  0  0  0
 28 29  2  0  0  0  0
 29 30  2  0  0  0  0
 31 29  1  0  0  0  0
 31 32  1  0  0  0  0
 32 35  1  0  0  0  0
 33 32  2  0  0  0  0
 34 35  2  0  0  0  0
 35 37  1  0  0  0  0
 37 36  1  0  0  0  0
 39 38  2  0  0  0  0
 40 38  1  0  0  0  0
M  END
>  <MODEL>
7

>  <REMARK>
 VINA RESULT:      -4.3      4.538      8.372
  Name = 
  6 active torsions:
  status: ('A' for Active; 'I' for Inactive)
    1  A    between atoms: C_1  and  C_37
    2  A    between atoms: C_1  and  C_38
    3  A    between atoms: C_4  and  C_7
    4  A    between atoms: S_8  and  N_29
    5  A    between atoms: S_8  and  C_37
    6  A    between atoms: C_24  and  C_38
                            x       y       z     vdW  Elec       q    Type
                         _______ _______ _______ _____ _____    ______ ____

>  <TORSDO>
F 6

$$$$
=
 OpenBabel11062413073D

 40 44  0  0  1  0  0  0  0  0999 V2000
  183.6800  176.7530  141.0510 F   0  0  0  0  0  0  0  0  0  0  0  0
  188.4740  177.0890  141.0760 C   0  0  2  0  0  3  0  0  0  0  0  0
  188.1690  177.3320  143.4940 C   0  0  2  0  0  3  0  0  0  0  0  0
  183.8720  179.0580  140.4720 C   0  0  1  0  0  3  0  0  0  0  0  0
  181.0290  178.3890  138.9380 C   0  0  0  0  0  0  0  0  0  0  0  0
  183.9530  178.0890  137.5290 C   0  0  1  0  0  3  0  0  0  0  0  0
  184.1180  179.2310  141.9820 C   0  0  0  0  0  2  0  0  0  0  0  0
  185.1030  178.2480  138.5140 C   0  0  1  0  0  0  0  0  0  0  0  0
  185.5470  179.0320  142.5050 C   0  0  2  0  0  3  0  0  0  0  0  0
  187.2870  178.6650  137.6090 C   0  0  0  0  0  2  0  0  0  0  0  0
  185.0820  179.3280  139.6010 C   0  0  0  0  0  2  0  0  0  0  0  0
  181.5510  178.6430  137.5620 C   0  0  0  0  0  2  0  0  0  0  0  0
  188.4140  179.0030  138.5670 C   0  0  0  0  0  2  0  0  0  0  0  0
  184.0140  177.2210  138.8000 C   0  0  1  0  0  3  0  0  0  0  0  0
  189.1230  177.8460  138.8980 O   0  0  0  0  0  0  0  0  0  0  0  0
  183.3190  177.6840  140.0880 C   0  0  1  0  0  0  0  0  0  0  0  0
  179.8260  178.6920  139.1590 O   0  0  0  0  0  0  0  0  0  0  0  0
  186.4250  177.6510  138.1970 N   0  0  0  0  0  0  0  0  0  0  0  0
  181.8040  177.7200  140.0130 C   0  0  0  0  0  0  0  0  0  0  0  0
  188.8120  175.9870  143.2180 C   0  0  0  0  0  2  0  0  0  0  0  0
  186.2540  177.7980  141.9570 C   0  0  0  0  0  2  0  0  0  0  0  0
  187.7640  177.9120  142.1440 C   0  0  2  0  0  3  0  0  0  0  0  0
  189.3050  176.0360  141.7890 C   0  0  0  0  0  2  0  0  0  0  0  0
  189.3980  177.9830  140.2610 C   0  0  0  0  0  2  0  0  0  0  0  0
  182.9440  179.2270  137.5880 C   0  0  0  0  0  2  0  0  0  0  0  0
  181.1570  177.2460  140.9880 O   0  0  0  0  0  0  0  0  0  0  0  0
  185.4870  178.9890  144.0230 C   0  0  0  0  0  1  0  0  0  0  0  0
  185.1430  175.5130  137.2970 O   0  0  0  0  0  0  0  0  0  0  0  0
  186.4520  176.2400  137.1540 S   0  0  0  0  0  0  0  0  0  0  0  0
  186.5780  176.6860  135.7260 O   0  0  0  0  0  0  0  0  0  0  0  0
  187.7850  175.0920  137.5020 C   0  0  0  0  0  2  0  0  0  0  0  0
  188.7900  174.9970  136.3950 C   0  0  0  0  0  0  0  0  0  0  0  0
  188.6500  174.0200  135.5100 C   0  0  0  0  0  2  0  0  0  0  0  0
  189.9440  176.9900  135.7930 O   0  0  0  0  0  0  0  0  0  0  0  0
  189.9870  175.8610  136.3620 C   0  0  0  0  0  0  0  0  0  0  0  0
  191.1130  175.2530  138.3450 O   0  0  0  0  0  1  0  0  0  0  0  0
  191.2760  175.4260  136.9730 C   0  0  0  0  0  2  0  0  0  0  0  0
  189.1270  178.2450  144.1930 C   0  0  0  0  0  0  0  0  0  0  0  0
  189.8560  179.0190  143.5190 O   0  0  0  0  0  0  0  0  0  0  0  0
  189.2220  178.2530  145.6130 N   0  0  0  0  0  1  0  0  0  0  0  0
  2 24  1  1  0  0  0
  2 23  1  0  0  0  0
  2 22  1  0  0  0  0
  3 38  1  6  0  0  0
  4 11  1  6  0  0  0
  4  7  1  0  0  0  0
  5 17  2  0  0  0  0
  5 19  1  0  0  0  0
  6 25  1  1  0  0  0
  6  8  1  0  0  0  0
  6 14  1  0  0  0  0
  7  9  1  0  0  0  0
  8 14  1  0  0  0  0
  8 11  1  1  0  0  0
  9 27  1  1  0  0  0
 10 18  1  0  0  0  0
 10 13  1  0  0  0  0
 12 25  1  0  0  0  0
 12  5  1  0  0  0  0
 13 15  1  0  0  0  0
 14 16  1  0  0  0  0
 15 24  1  0  0  0  0
 16  4  1  0  0  0  0
 16  1  1  0  0  0  0
 18  8  1  0  0  0  0
 19 16  1  0  0  0  0
 19 26  2  0  0  0  0
 20  3  1  0  0  0  0
 21 22  1  0  0  0  0
 21  9  1  0  0  0  0
 22  3  1  0  0  0  0
 23 20  1  0  0  0  0
 29 28  2  0  0  0  0
 29 31  1  0  0  0  0
 29 18  1  0  0  0  0
 30 29  2  0  0  0  0
 32 31  1  0  0  0  0
 33 32  2  0  0  0  0
 34 35  2  0  0  0  0
 35 32  1  0  0  0  0
 35 37  1  0  0  0  0
 37 36  1  0  0  0  0
 38 40  1  0  0  0  0
 39 38  2  0  0  0  0
M  END
>  <MODEL>
8

>  <REMARK>
 VINA RESULT:      -4.3      3.854      8.703
  Name = 
  6 active torsions:
  status: ('A' for Active; 'I' for Inactive)
    1  A    between atoms: C_1  and  C_37
    2  A    between atoms: C_1  and  C_38
    3  A    between atoms: C_4  and  C_7
    4  A    between atoms: S_8  and  N_29
    5  A    between atoms: S_8  and  C_37
    6  A    between atoms: C_24  and  C_38
                            x       y       z     vdW  Elec       q    Type
                         _______ _______ _______ _____ _____    ______ ____

>  <TORSDO>
F 6

$$$$
=
 OpenBabel11062413073D

 40 44  0  0  1  0  0  0  0  0999 V2000
  183.7030  176.8320  141.1960 F   0  0  0  0  0  0  0  0  0  0  0  0
  188.5020  177.0710  141.0790 C   0  0  2  0  0  3  0  0  0  0  0  0
  188.2720  177.3490  143.5020 C   0  0  2  0  0  3  0  0  0  0  0  0
  183.9240  179.1250  140.5830 C   0  0  1  0  0  3  0  0  0  0  0  0
  181.0250  178.4960  139.1390 C   0  0  0  0  0  0  0  0  0  0  0  0
  183.9010  178.1200  137.6510 C   0  0  1  0  0  3  0  0  0  0  0  0
  184.2170  179.3120  142.0830 C   0  0  0  0  0  2  0  0  0  0  0  0
  185.0820  178.2670  138.6010 C   0  0  1  0  0  0  0  0  0  0  0  0
  185.6570  179.0900  142.5670 C   0  0  2  0  0  3  0  0  0  0  0  0
  187.2470  178.6280  137.6280 C   0  0  0  0  0  2  0  0  0  0  0  0
  185.1140  179.3610  139.6740 C   0  0  0  0  0  2  0  0  0  0  0  0
  181.5130  178.7230  137.7460 C   0  0  0  0  0  2  0  0  0  0  0  0
  188.4070  178.9550  138.5490 C   0  0  0  0  0  2  0  0  0  0  0  0
  183.9810  177.2660  138.9310 C   0  0  1  0  0  3  0  0  0  0  0  0
  189.1030  177.7880  138.8740 O   0  0  0  0  0  0  0  0  0  0  0  0
  183.3340  177.7590  140.2320 C   0  0  1  0  0  0  0  0  0  0  0  0
  179.8360  178.8270  139.3920 O   0  0  0  0  0  0  0  0  0  0  0  0
  186.3820  177.6390  138.2530 N   0  0  0  0  0  0  0  0  0  0  0  0
  181.8180  177.8250  140.2010 C   0  0  0  0  0  0  0  0  0  0  0  0
  188.8800  175.9880  143.2250 C   0  0  0  0  0  2  0  0  0  0  0  0
  186.3230  177.8350  142.0150 C   0  0  0  0  0  2  0  0  0  0  0  0
  187.8390  177.9210  142.1560 C   0  0  2  0  0  3  0  0  0  0  0  0
  189.3320  176.0100  141.7810 C   0  0  0  0  0  2  0  0  0  0  0  0
  189.4200  177.9350  140.2260 C   0  0  0  0  0  2  0  0  0  0  0  0
  182.9170  179.2790  137.7240 C   0  0  0  0  0  2  0  0  0  0  0  0
  181.1900  177.3760  141.1990 O   0  0  0  0  0  0  0  0  0  0  0  0
  185.6400  179.0670  144.0860 C   0  0  0  0  0  1  0  0  0  0  0  0
  186.3300  176.6620  135.7900 O   0  0  0  0  0  0  0  0  0  0  0  0
  186.3510  176.2160  137.2270 S   0  0  0  0  0  0  0  0  0  0  0  0
  187.6070  175.4240  137.4450 O   0  0  0  0  0  0  0  0  0  0  0  0
  184.9500  175.1330  137.5100 C   0  0  0  0  0  2  0  0  0  0  0  0
  184.4530  174.4690  136.2640 C   0  0  0  0  0  0  0  0  0  0  0  0
  183.3080  174.8910  135.7480 C   0  0  0  0  0  2  0  0  0  0  0  0
  186.1410  173.4140  134.9590 O   0  0  0  0  0  0  0  0  0  0  0  0
  185.1250  173.2800  135.7010 C   0  0  0  0  0  0  0  0  0  0  0  0
  184.0010  171.8620  137.2150 O   0  0  0  0  0  1  0  0  0  0  0  0
  184.6210  171.9030  135.9680 C   0  0  0  0  0  2  0  0  0  0  0  0
  189.2680  178.2500  144.1610 C   0  0  0  0  0  0  0  0  0  0  0  0
  189.9730  179.0220  143.4580 O   0  0  0  0  0  0  0  0  0  0  0  0
  189.4260  178.2510  145.5750 N   0  0  0  0  0  1  0  0  0  0  0  0
  2 24  1  6  0  0  0
  2 23  1  0  0  0  0
  2 22  1  0  0  0  0
  3 38  1  6  0  0  0
  4 11  1  6  0  0  0
  4  7  1  0  0  0  0
  5 17  2  0  0  0  0
  5 19  1  0  0  0  0
  6 25  1  1  0  0  0
  6  8  1  0  0  0  0
  6 14  1  0  0  0  0
  7  9  1  0  0  0  0
  8 14  1  0  0  0  0
  8 11  1  1  0  0  0
  9 27  1  1  0  0  0
 10 18  1  0  0  0  0
 10 13  1  0  0  0  0
 12  5  1  0  0  0  0
 13 15  1  0  0  0  0
 14 16  1  0  0  0  0
 15 24  1  0  0  0  0
 16  4  1  0  0  0  0
 16  1  1  0  0  0  0
 18  8  1  0  0  0  0
 19 16  1  0  0  0  0
 19 26  2  0  0  0  0
 20  3  1  0  0  0  0
 21 22  1  0  0  0  0
 21  9  1  0  0  0  0
 22  3  1  0  0  0  0
 23 20  1  0  0  0  0
 25 12  1  0  0  0  0
 28 29  2  0  0  0  0
 29 30  2  0  0  0  0
 29 31  1  0  0  0  0
 29 18  1  0  0  0  0
 32 31  1  0  0  0  0
 33 32  2  0  0  0  0
 34 35  2  0  0  0  0
 35 37  1  0  0  0  0
 35 32  1  0  0  0  0
 37 36  1  0  0  0  0
 38 40  1  0  0  0  0
 39 38  2  0  0  0  0
M  END
>  <MODEL>
9

>  <REMARK>
 VINA RESULT:      -4.2      3.987      9.099
  Name = 
  6 active torsions:
  status: ('A' for Active; 'I' for Inactive)
    1  A    between atoms: C_1  and  C_37
    2  A    between atoms: C_1  and  C_38
    3  A    between atoms: C_4  and  C_7
    4  A    between atoms: S_8  and  N_29
    5  A    between atoms: S_8  and  C_37
    6  A    between atoms: C_24  and  C_38
                            x       y       z     vdW  Elec       q    Type
                         _______ _______ _______ _____ _____    ______ ____

>  <TORSDO>
F 6

$$$$
