=
 OpenBabel11062417153D

 26 29  0  0  0  0  0  0  0  0999 V2000
  188.7680  178.1470  142.8770 C   0  0  0  0  0  0  0  0  0  0  0  0
  185.4610  178.3400  143.8550 C   0  0  0  0  0  2  0  0  0  0  0  0
  184.2450  178.9960  143.2840 C   0  0  0  0  0  2  0  0  0  0  0  0
  186.8340  178.5080  141.8480 C   0  0  0  0  0  0  0  0  0  0  0  0
  185.9420  178.5520  140.8490 C   0  0  0  0  0  2  0  0  0  0  0  0
  183.7910  178.3930  142.0400 N   0  0  0  0  0  0  0  0  0  0  0  0
  184.4990  178.2660  140.9600 C   0  0  0  0  0  3  0  0  0  0  0  0
  186.6160  178.2190  143.1930 C   0  0  0  0  0  0  0  0  0  0  0  0
  188.2060  178.5020  141.6630 C   0  0  0  0  0  0  0  0  0  0  0  0
  187.8000  177.9500  143.8040 N   0  0  0  0  0  0  0  0  0  0  0  0
  189.3620  177.6590  147.9580 C   0  0  0  0  0  3  0  0  0  0  0  0
  189.1960  177.0980  145.5580 C   0  0  0  0  0  3  0  0  0  0  0  0
  189.5090  176.5910  146.9270 C   0  0  0  0  0  2  0  0  0  0  0  0
  188.2050  178.2720  148.2020 C   0  0  0  0  0  3  0  0  0  0  0  0
  186.9620  178.0530  147.4400 C   0  0  0  0  0  3  0  0  0  0  0  0
  188.0070  177.5910  145.1880 C   0  0  0  0  0  0  0  0  0  0  0  0
  186.8780  177.7520  146.1380 C   0  0  0  0  0  3  0  0  0  0  0  0
  190.2260  177.8880  143.0950 C   0  0  0  0  0  2  0  0  0  0  0  0
  190.9190  179.1580  143.5480 C   0  0  0  0  0  1  0  0  0  0  0  0
  188.9350  178.6610  140.3620 C   0  0  0  0  0  2  0  0  0  0  0  0
  188.5090  177.0460  138.4720 C   0  0  0  0  0  2  0  0  0  0  0  0
  190.8050  177.2240  139.5370 C   0  0  0  0  0  2  0  0  0  0  0  0
  190.0870  175.1970  138.4010 O   0  0  0  0  0  0  0  0  0  0  0  0
  189.2940  177.3100  139.7630 C   0  0  0  0  0  3  0  0  0  0  0  0
  191.1720  176.0720  138.5880 C   0  0  0  0  0  2  0  0  0  0  0  0
  189.1370  175.9100  137.6490 C   0  0  0  0  0  2  0  0  0  0  0  0
  1 18  1  0  0  0  0
  1 10  1  0  0  0  0
  3  2  1  0  0  0  0
  4  8  2  0  0  0  0
  5  7  1  0  0  0  0
  5  4  1  0  0  0  0
  6  3  1  0  0  0  0
  7  6  2  0  0  0  0
  8 10  1  0  0  0  0
  8  2  1  0  0  0  0
  9  4  1  0  0  0  0
  9  1  2  0  0  0  0
 10 16  1  0  0  0  0
 11 14  2  0  0  0  0
 12 13  1  0  0  0  0
 13 11  1  0  0  0  0
 15 14  1  0  0  0  0
 16 12  2  0  0  0  0
 16 17  1  0  0  0  0
 17 15  2  0  0  0  0
 18 19  1  0  0  0  0
 20  9  1  0  0  0  0
 21 24  1  0  0  0  0
 22 24  1  0  0  0  0
 23 25  1  0  0  0  0
 24 20  1  0  0  0  0
 25 22  1  0  0  0  0
 26 23  1  0  0  0  0
 26 21  1  0  0  0  0
M  END
>  <MODEL>
1

>  <REMARK>
 VINA RESULT:      -8.7      0.000      0.000
  Name = 
  4 active torsions:
  status: ('A' for Active; 'I' for Inactive)
    1  A    between atoms: C_4  and  C_7
    2  A    between atoms: C_11  and  C_18
    3  A    between atoms: C_15  and  N_26
    4  A    between atoms: C_18  and  C_25
                            x       y       z     vdW  Elec       q    Type
                         _______ _______ _______ _____ _____    ______ ____

>  <TORSDO>
F 4

$$$$
=
 OpenBabel11062417153D

 26 29  0  0  0  0  0  0  0  0999 V2000
  186.8470  178.2570  141.9660 C   0  0  0  0  0  0  0  0  0  0  0  0
  186.4500  178.3350  145.3970 C   0  0  0  0  0  2  0  0  0  0  0  0
  185.5570  179.0970  146.3230 C   0  0  0  0  0  2  0  0  0  0  0  0
  185.2070  178.8160  143.3560 C   0  0  0  0  0  0  0  0  0  0  0  0
  183.9570  179.0410  143.7830 C   0  0  0  0  0  2  0  0  0  0  0  0
  184.1550  178.7190  146.2190 N   0  0  0  0  0  0  0  0  0  0  0  0
  183.4390  178.7640  145.1370 C   0  0  0  0  0  3  0  0  0  0  0  0
  186.2900  178.3090  144.0700 C   0  0  0  0  0  0  0  0  0  0  0  0
  185.5830  178.8190  142.0240 C   0  0  0  0  0  0  0  0  0  0  0  0
  187.2690  177.9220  143.2100 N   0  0  0  0  0  0  0  0  0  0  0  0
  191.3830  176.2420  143.0280 C   0  0  0  0  0  3  0  0  0  0  0  0
  188.9150  176.2000  142.9340 C   0  0  0  0  0  3  0  0  0  0  0  0
  190.1530  175.4320  143.2610 C   0  0  0  0  0  2  0  0  0  0  0  0
  191.6370  177.3730  143.6840 C   0  0  0  0  0  3  0  0  0  0  0  0
  190.7150  178.0140  144.6390 C   0  0  0  0  0  3  0  0  0  0  0  0
  188.5440  177.3330  143.5450 C   0  0  0  0  0  0  0  0  0  0  0  0
  189.3780  177.9910  144.5820 C   0  0  0  0  0  3  0  0  0  0  0  0
  187.5800  177.9410  140.7010 C   0  0  0  0  0  2  0  0  0  0  0  0
  188.7500  178.8900  140.5260 C   0  0  0  0  0  1  0  0  0  0  0  0
  184.7210  179.1830  140.8510 C   0  0  0  0  0  2  0  0  0  0  0  0
  182.5330  177.9450  140.6470 C   0  0  0  0  0  2  0  0  0  0  0  0
  184.2360  177.8930  138.7660 C   0  0  0  0  0  2  0  0  0  0  0  0
  182.5970  176.1170  139.0440 O   0  0  0  0  0  0  0  0  0  0  0  0
  184.0230  177.9590  140.2800 C   0  0  0  0  0  3  0  0  0  0  0  0
  183.2460  176.9280  138.0950 C   0  0  0  0  0  2  0  0  0  0  0  0
  181.7400  176.9690  139.7640 C   0  0  0  0  0  2  0  0  0  0  0  0
  1  9  2  0  0  0  0
  1 10  1  0  0  0  0
  2  3  1  0  0  0  0
  4  5  1  0  0  0  0
  4  8  2  0  0  0  0
  5  7  1  0  0  0  0
  6  3  1  0  0  0  0
  7  6  2  0  0  0  0
  8  2  1  0  0  0  0
  9  4  1  0  0  0  0
 10 16  1  0  0  0  0
 10  8  1  0  0  0  0
 11 13  1  0  0  0  0
 11 14  2  0  0  0  0
 12 13  1  0  0  0  0
 12 16  2  0  0  0  0
 14 15  1  0  0  0  0
 16 17  1  0  0  0  0
 17 15  2  0  0  0  0
 18  1  1  0  0  0  0
 19 18  1  0  0  0  0
 20  9  1  0  0  0  0
 22 24  1  0  0  0  0
 23 26  1  0  0  0  0
 24 21  1  0  0  0  0
 24 20  1  0  0  0  0
 25 22  1  0  0  0  0
 25 23  1  0  0  0  0
 26 21  1  0  0  0  0
M  END
>  <MODEL>
2

>  <REMARK>
 VINA RESULT:      -8.6      2.593      4.567
  Name = 
  4 active torsions:
  status: ('A' for Active; 'I' for Inactive)
    1  A    between atoms: C_4  and  C_7
    2  A    between atoms: C_11  and  C_18
    3  A    between atoms: C_15  and  N_26
    4  A    between atoms: C_18  and  C_25
                            x       y       z     vdW  Elec       q    Type
                         _______ _______ _______ _____ _____    ______ ____

>  <TORSDO>
F 4

$$$$
=
 OpenBabel11062417153D

 26 29  0  0  0  0  0  0  0  0999 V2000
  186.3200  178.4950  143.7770 C   0  0  0  0  0  0  0  0  0  0  0  0
  189.2750  176.8690  143.0310 C   0  0  0  0  0  2  0  0  0  0  0  0
  189.8250  176.2260  141.7990 C   0  0  0  0  0  2  0  0  0  0  0  0
  187.4800  178.0940  141.9260 C   0  0  0  0  0  0  0  0  0  0  0  0
  187.9240  178.2570  140.6730 C   0  0  0  0  0  2  0  0  0  0  0  0
  190.1360  177.1730  140.7390 N   0  0  0  0  0  0  0  0  0  0  0  0
  189.2980  178.0030  140.1970 C   0  0  0  0  0  3  0  0  0  0  0  0
  188.1770  177.6330  143.0400 C   0  0  0  0  0  0  0  0  0  0  0  0
  186.2820  178.6030  142.3970 C   0  0  0  0  0  0  0  0  0  0  0  0
  187.4850  177.9270  144.1720 N   0  0  0  0  0  0  0  0  0  0  0  0
  189.3960  178.0180  148.1870 C   0  0  0  0  0  3  0  0  0  0  0  0
  189.1620  177.4070  145.8050 C   0  0  0  0  0  3  0  0  0  0  0  0
  189.6810  176.9920  147.1420 C   0  0  0  0  0  2  0  0  0  0  0  0
  188.1590  178.3780  148.5250 C   0  0  0  0  0  3  0  0  0  0  0  0
  186.9340  177.8960  147.8630 C   0  0  0  0  0  3  0  0  0  0  0  0
  187.8700  177.6350  145.5330 C   0  0  0  0  0  0  0  0  0  0  0  0
  186.8120  177.5680  146.5710 C   0  0  0  0  0  3  0  0  0  0  0  0
  185.2820  179.0500  144.7010 C   0  0  0  0  0  2  0  0  0  0  0  0
  183.9710  178.3120  144.5160 C   0  0  0  0  0  1  0  0  0  0  0  0
  185.2300  179.3050  141.5910 C   0  0  0  0  0  2  0  0  0  0  0  0
  182.8950  178.4400  141.1880 C   0  0  0  0  0  2  0  0  0  0  0  0
  184.6030  178.4950  139.3120 C   0  0  0  0  0  2  0  0  0  0  0  0
  182.7310  176.9420  139.2780 O   0  0  0  0  0  0  0  0  0  0  0  0
  184.3780  178.3130  140.8150 C   0  0  0  0  0  3  0  0  0  0  0  0
  183.5000  177.8140  138.4860 C   0  0  0  0  0  2  0  0  0  0  0  0
  181.9890  177.7590  140.1500 C   0  0  0  0  0  2  0  0  0  0  0  0
  1 10  1  0  0  0  0
  1 18  1  0  0  0  0
  2  8  1  0  0  0  0
  3  2  1  0  0  0  0
  4  9  1  0  0  0  0
  4  8  2  0  0  0  0
  5  4  1  0  0  0  0
  6  3  1  0  0  0  0
  7  5  1  0  0  0  0
  7  6  2  0  0  0  0
  8 10  1  0  0  0  0
  9  1  2  0  0  0  0
 10 16  1  0  0  0  0
 11 14  2  0  0  0  0
 12 13  1  0  0  0  0
 13 11  1  0  0  0  0
 15 14  1  0  0  0  0
 16 12  2  0  0  0  0
 16 17  1  0  0  0  0
 17 15  2  0  0  0  0
 19 18  1  0  0  0  0
 20  9  1  0  0  0  0
 22 24  1  0  0  0  0
 23 26  1  0  0  0  0
 24 21  1  0  0  0  0
 24 20  1  0  0  0  0
 25 23  1  0  0  0  0
 25 22  1  0  0  0  0
 26 21  1  0  0  0  0
M  END
>  <MODEL>
3

>  <REMARK>
 VINA RESULT:      -8.3      2.191      4.504
  Name = 
  4 active torsions:
  status: ('A' for Active; 'I' for Inactive)
    1  A    between atoms: C_4  and  C_7
    2  A    between atoms: C_11  and  C_18
    3  A    between atoms: C_15  and  N_26
    4  A    between atoms: C_18  and  C_25
                            x       y       z     vdW  Elec       q    Type
                         _______ _______ _______ _____ _____    ______ ____

>  <TORSDO>
F 4

$$$$
=
 OpenBabel11062417153D

 26 29  0  0  0  0  0  0  0  0999 V2000
  189.5670  177.3960  141.6500 C   0  0  0  0  0  0  0  0  0  0  0  0
  186.3270  178.5050  142.1090 C   0  0  0  0  0  2  0  0  0  0  0  0
  185.4060  179.3780  141.3190 C   0  0  0  0  0  2  0  0  0  0  0  0
  187.9380  178.1150  140.3210 C   0  0  0  0  0  0  0  0  0  0  0  0
  187.2220  178.2720  139.2000 C   0  0  0  0  0  2  0  0  0  0  0  0
  184.9710  178.7780  140.0660 N   0  0  0  0  0  0  0  0  0  0  0  0
  185.7520  178.3670  139.1150 C   0  0  0  0  0  3  0  0  0  0  0  0
  187.4860  178.0320  141.6360 C   0  0  0  0  0  0  0  0  0  0  0  0
  189.2730  177.7490  140.3430 C   0  0  0  0  0  0  0  0  0  0  0  0
  188.4720  177.5440  142.4340 N   0  0  0  0  0  0  0  0  0  0  0  0
  188.6500  177.9420  146.8600 C   0  0  0  0  0  3  0  0  0  0  0  0
  189.5070  177.4510  144.5950 C   0  0  0  0  0  3  0  0  0  0  0  0
  189.6000  177.1260  146.0490 C   0  0  0  0  0  2  0  0  0  0  0  0
  187.3300  177.8850  146.6990 C   0  0  0  0  0  3  0  0  0  0  0  0
  186.6450  177.0970  145.6580 C   0  0  0  0  0  3  0  0  0  0  0  0
  188.4020  177.2930  143.8540 C   0  0  0  0  0  0  0  0  0  0  0  0
  187.1130  176.8360  144.4300 C   0  0  0  0  0  3  0  0  0  0  0  0
  190.8670  176.8080  142.1000 C   0  0  0  0  0  2  0  0  0  0  0  0
  191.9320  177.8850  142.1630 C   0  0  0  0  0  1  0  0  0  0  0  0
  190.1770  177.5850  139.1570 C   0  0  0  0  0  2  0  0  0  0  0  0
  189.2680  175.8400  137.5800 C   0  0  0  0  0  2  0  0  0  0  0  0
  191.6890  175.7730  138.3350 C   0  0  0  0  0  2  0  0  0  0  0  0
  190.5370  173.7650  137.5910 O   0  0  0  0  0  0  0  0  0  0  0  0
  190.2520  176.1300  138.7200 C   0  0  0  0  0  3  0  0  0  0  0  0
  191.7530  174.4700  137.5240 C   0  0  0  0  0  2  0  0  0  0  0  0
  189.6060  174.5240  136.8600 C   0  0  0  0  0  2  0  0  0  0  0  0
  1 18  1  0  0  0  0
  1 10  1  0  0  0  0
  3  2  1  0  0  0  0
  4  9  1  0  0  0  0
  4  8  2  0  0  0  0
  5  4  1  0  0  0  0
  6  3  1  0  0  0  0
  7  5  1  0  0  0  0
  7  6  2  0  0  0  0
  8  2  1  0  0  0  0
  8 10  1  0  0  0  0
  9  1  2  0  0  0  0
 10 16  1  0  0  0  0
 12 13  1  0  0  0  0
 13 11  1  0  0  0  0
 14 11  2  0  0  0  0
 15 14  1  0  0  0  0
 16 17  1  0  0  0  0
 16 12  2  0  0  0  0
 17 15  2  0  0  0  0
 18 19  1  0  0  0  0
 20  9  1  0  0  0  0
 21 24  1  0  0  0  0
 22 24  1  0  0  0  0
 24 20  1  0  0  0  0
 25 23  1  0  0  0  0
 25 22  1  0  0  0  0
 26 21  1  0  0  0  0
 26 23  1  0  0  0  0
M  END
>  <MODEL>
4

>  <REMARK>
 VINA RESULT:      -8.2      1.369      1.844
  Name = 
  4 active torsions:
  status: ('A' for Active; 'I' for Inactive)
    1  A    between atoms: C_4  and  C_7
    2  A    between atoms: C_11  and  C_18
    3  A    between atoms: C_15  and  N_26
    4  A    between atoms: C_18  and  C_25
                            x       y       z     vdW  Elec       q    Type
                         _______ _______ _______ _____ _____    ______ ____

>  <TORSDO>
F 4

$$$$
=
 OpenBabel11062417153D

 26 29  0  0  0  0  0  0  0  0999 V2000
  186.9520  178.5620  141.6840 C   0  0  0  0  0  0  0  0  0  0  0  0
  189.8510  177.2010  140.3890 C   0  0  0  0  0  2  0  0  0  0  0  0
  190.1860  176.4800  139.1240 C   0  0  0  0  0  2  0  0  0  0  0  0
  187.6990  178.0750  139.6500 C   0  0  0  0  0  0  0  0  0  0  0  0
  187.8160  178.1360  138.3170 C   0  0  0  0  0  2  0  0  0  0  0  0
  190.1110  177.3230  137.9390 N   0  0  0  0  0  0  0  0  0  0  0  0
  189.0640  177.9820  137.5460 C   0  0  0  0  0  3  0  0  0  0  0  0
  188.6900  177.8310  140.5970 C   0  0  0  0  0  0  0  0  0  0  0  0
  186.5830  178.4990  140.3510 C   0  0  0  0  0  0  0  0  0  0  0  0
  188.2440  178.1800  141.8330 N   0  0  0  0  0  0  0  0  0  0  0  0
  190.6880  176.7750  145.2730 C   0  0  0  0  0  3  0  0  0  0  0  0
  188.6250  177.1560  143.9670 C   0  0  0  0  0  3  0  0  0  0  0  0
  189.2190  177.0270  145.3310 C   0  0  0  0  0  2  0  0  0  0  0  0
  191.5470  177.6370  144.7320 C   0  0  0  0  0  3  0  0  0  0  0  0
  191.1640  178.8850  144.0470 C   0  0  0  0  0  3  0  0  0  0  0  0
  188.9690  178.0980  143.0790 C   0  0  0  0  0  0  0  0  0  0  0  0
  190.0460  179.0850  143.3380 C   0  0  0  0  0  3  0  0  0  0  0  0
  186.0890  179.1040  142.7800 C   0  0  0  0  0  2  0  0  0  0  0  0
  185.2060  178.0050  143.3390 C   0  0  0  0  0  1  0  0  0  0  0  0
  185.2870  178.9770  139.7670 C   0  0  0  0  0  2  0  0  0  0  0  0
  182.9580  178.2690  140.4230 C   0  0  0  0  0  2  0  0  0  0  0  0
  184.0120  177.4340  138.2710 C   0  0  0  0  0  2  0  0  0  0  0  0
  182.2480  176.1850  139.3880 O   0  0  0  0  0  0  0  0  0  0  0  0
  184.2580  177.8590  139.7210 C   0  0  0  0  0  3  0  0  0  0  0  0
  182.7230  176.6090  138.1330 C   0  0  0  0  0  2  0  0  0  0  0  0
  181.7910  177.3430  140.0430 C   0  0  0  0  0  2  0  0  0  0  0  0
  1 10  1  0  0  0  0
  1 18  1  0  0  0  0
  2  8  1  0  0  0  0
  3  2  1  0  0  0  0
  4  9  1  0  0  0  0
  4  8  2  0  0  0  0
  5  4  1  0  0  0  0
  6  3  1  0  0  0  0
  7  6  2  0  0  0  0
  7  5  1  0  0  0  0
  8 10  1  0  0  0  0
  9  1  2  0  0  0  0
 10 16  1  0  0  0  0
 11 13  1  0  0  0  0
 12 13  1  0  0  0  0
 14 11  2  0  0  0  0
 15 14  1  0  0  0  0
 16 17  1  0  0  0  0
 16 12  2  0  0  0  0
 17 15  2  0  0  0  0
 18 19  1  0  0  0  0
 20  9  1  0  0  0  0
 22 24  1  0  0  0  0
 23 26  1  0  0  0  0
 24 20  1  0  0  0  0
 24 21  1  0  0  0  0
 25 22  1  0  0  0  0
 25 23  1  0  0  0  0
 26 21  1  0  0  0  0
M  END
>  <MODEL>
5

>  <REMARK>
 VINA RESULT:      -8.1      2.527      5.150
  Name = 
  4 active torsions:
  status: ('A' for Active; 'I' for Inactive)
    1  A    between atoms: C_4  and  C_7
    2  A    between atoms: C_11  and  C_18
    3  A    between atoms: C_15  and  N_26
    4  A    between atoms: C_18  and  C_25
                            x       y       z     vdW  Elec       q    Type
                         _______ _______ _______ _____ _____    ______ ____

>  <TORSDO>
F 4

$$$$
=
 OpenBabel11062417153D

 26 29  0  0  0  0  0  0  0  0999 V2000
  186.3350  178.6100  140.9910 C   0  0  0  0  0  0  0  0  0  0  0  0
  188.8940  177.0960  139.2330 C   0  0  0  0  0  2  0  0  0  0  0  0
  188.9920  176.4560  137.8860 C   0  0  0  0  0  2  0  0  0  0  0  0
  186.7690  178.2270  138.8470 C   0  0  0  0  0  0  0  0  0  0  0  0
  186.7260  178.3890  137.5180 C   0  0  0  0  0  2  0  0  0  0  0  0
  188.8600  177.3990  136.7840 N   0  0  0  0  0  0  0  0  0  0  0  0
  187.8470  178.1840  136.5810 C   0  0  0  0  0  3  0  0  0  0  0  0
  187.8400  177.8130  139.6360 C   0  0  0  0  0  0  0  0  0  0  0  0
  185.7990  178.6940  139.7170 C   0  0  0  0  0  0  0  0  0  0  0  0
  187.5880  178.0970  140.9410 N   0  0  0  0  0  0  0  0  0  0  0  0
  189.9420  178.4850  144.6940 C   0  0  0  0  0  3  0  0  0  0  0  0
  189.5140  178.6330  142.2660 C   0  0  0  0  0  3  0  0  0  0  0  0
  190.5400  178.4200  143.3290 C   0  0  0  0  0  2  0  0  0  0  0  0
  189.0030  177.6390  145.1120 C   0  0  0  0  0  3  0  0  0  0  0  0
  188.3700  176.6060  144.2720 C   0  0  0  0  0  3  0  0  0  0  0  0
  188.4500  177.8430  142.0720 C   0  0  0  0  0  0  0  0  0  0  0  0
  188.1380  176.6930  142.9560 C   0  0  0  0  0  3  0  0  0  0  0  0
  185.6750  179.1360  142.2270 C   0  0  0  0  0  2  0  0  0  0  0  0
  184.7590  178.0820  142.8180 C   0  0  0  0  0  1  0  0  0  0  0  0
  184.4980  179.3390  139.3440 C   0  0  0  0  0  2  0  0  0  0  0  0
  182.2140  178.7100  140.2100 C   0  0  0  0  0  2  0  0  0  0  0  0
  182.9100  178.1320  137.8390 C   0  0  0  0  0  2  0  0  0  0  0  0
  181.1930  176.8610  139.0020 O   0  0  0  0  0  0  0  0  0  0  0  0
  183.3740  178.3170  139.2850 C   0  0  0  0  0  3  0  0  0  0  0  0
  181.5440  177.4320  137.7660 C   0  0  0  0  0  2  0  0  0  0  0  0
  180.9290  177.9380  139.8680 C   0  0  0  0  0  2  0  0  0  0  0  0
  1 18  1  0  0  0  0
  2  8  1  0  0  0  0
  3  2  1  0  0  0  0
  4  8  2  0  0  0  0
  4  9  1  0  0  0  0
  5  4  1  0  0  0  0
  6  3  1  0  0  0  0
  7  6  2  0  0  0  0
  7  5  1  0  0  0  0
  8 10  1  0  0  0  0
  9  1  2  0  0  0  0
 10  1  1  0  0  0  0
 10 16  1  0  0  0  0
 11 14  2  0  0  0  0
 12 13  1  0  0  0  0
 13 11  1  0  0  0  0
 15 14  1  0  0  0  0
 16 12  2  0  0  0  0
 16 17  1  0  0  0  0
 17 15  2  0  0  0  0
 18 19  1  0  0  0  0
 20  9  1  0  0  0  0
 22 24  1  0  0  0  0
 23 26  1  0  0  0  0
 24 20  1  0  0  0  0
 24 21  1  0  0  0  0
 25 22  1  0  0  0  0
 25 23  1  0  0  0  0
 26 21  1  0  0  0  0
M  END
>  <MODEL>
6

>  <REMARK>
 VINA RESULT:      -8.1      3.004      5.601
  Name = 
  4 active torsions:
  status: ('A' for Active; 'I' for Inactive)
    1  A    between atoms: C_4  and  C_7
    2  A    between atoms: C_11  and  C_18
    3  A    between atoms: C_15  and  N_26
    4  A    between atoms: C_18  and  C_25
                            x       y       z     vdW  Elec       q    Type
                         _______ _______ _______ _____ _____    ______ ____

>  <TORSDO>
F 4

$$$$
=
 OpenBabel11062417153D

 26 29  0  0  0  0  0  0  0  0999 V2000
  187.3310  178.3970  141.3440 C   0  0  0  0  0  0  0  0  0  0  0  0
  189.2880  176.5380  143.5000 C   0  0  0  0  0  2  0  0  0  0  0  0
  190.4810  175.6560  143.3210 C   0  0  0  0  0  2  0  0  0  0  0  0
  189.4090  177.6130  141.3150 C   0  0  0  0  0  0  0  0  0  0  0  0
  190.7030  177.5240  140.9820 C   0  0  0  0  0  2  0  0  0  0  0  0
  191.6830  176.3780  142.9310 N   0  0  0  0  0  0  0  0  0  0  0  0
  191.8060  177.1280  141.8790 C   0  0  0  0  0  3  0  0  0  0  0  0
  188.8070  177.3360  142.5400 C   0  0  0  0  0  0  0  0  0  0  0  0
  188.4520  178.2510  140.5440 C   0  0  0  0  0  0  0  0  0  0  0  0
  187.5540  177.8630  142.5690 N   0  0  0  0  0  0  0  0  0  0  0  0
  185.3050  178.6750  146.3190 C   0  0  0  0  0  3  0  0  0  0  0  0
  187.0710  177.6750  144.9100 C   0  0  0  0  0  3  0  0  0  0  0  0
  186.2050  177.5030  146.1140 C   0  0  0  0  0  2  0  0  0  0  0  0
  184.3860  179.0420  145.4280 C   0  0  0  0  0  3  0  0  0  0  0  0
  184.1990  178.4160  144.1070 C   0  0  0  0  0  3  0  0  0  0  0  0
  186.6100  177.8110  143.6600 C   0  0  0  0  0  0  0  0  0  0  0  0
  185.1610  177.8780  143.3460 C   0  0  0  0  0  3  0  0  0  0  0  0
  186.1020  179.1570  140.9540 C   0  0  0  0  0  2  0  0  0  0  0  0
  185.2810  178.3480  139.9690 C   0  0  0  0  0  1  0  0  0  0  0  0
  188.6480  178.8360  139.1770 C   0  0  0  0  0  2  0  0  0  0  0  0
  187.3970  178.2260  137.0740 C   0  0  0  0  0  2  0  0  0  0  0  0
  189.7940  177.4700  137.4260 C   0  0  0  0  0  2  0  0  0  0  0  0
  188.2850  176.2590  135.9520 O   0  0  0  0  0  0  0  0  0  0  0  0
  188.4540  177.7850  138.0960 C   0  0  0  0  0  3  0  0  0  0  0  0
  189.6020  176.7330  136.0920 C   0  0  0  0  0  2  0  0  0  0  0  0
  187.4770  177.3970  135.7820 C   0  0  0  0  0  2  0  0  0  0  0  0
  1 10  1  0  0  0  0
  3  2  1  0  0  0  0
  4  8  2  0  0  0  0
  5  4  1  0  0  0  0
  5  7  1  0  0  0  0
  6  3  1  0  0  0  0
  7  6  2  0  0  0  0
  8 10  1  0  0  0  0
  8  2  1  0  0  0  0
  9  4  1  0  0  0  0
  9  1  2  0  0  0  0
 10 16  1  0  0  0  0
 12 13  1  0  0  0  0
 13 11  1  0  0  0  0
 14 11  2  0  0  0  0
 15 14  1  0  0  0  0
 16 12  2  0  0  0  0
 17 16  1  0  0  0  0
 17 15  2  0  0  0  0
 18  1  1  0  0  0  0
 19 18  1  0  0  0  0
 20  9  1  0  0  0  0
 21 24  1  0  0  0  0
 22 24  1  0  0  0  0
 23 25  1  0  0  0  0
 24 20  1  0  0  0  0
 25 22  1  0  0  0  0
 26 23  1  0  0  0  0
 26 21  1  0  0  0  0
M  END
>  <MODEL>
7

>  <REMARK>
 VINA RESULT:      -8.0      1.951      4.124
  Name = 
  4 active torsions:
  status: ('A' for Active; 'I' for Inactive)
    1  A    between atoms: C_4  and  C_7
    2  A    between atoms: C_11  and  C_18
    3  A    between atoms: C_15  and  N_26
    4  A    between atoms: C_18  and  C_25
                            x       y       z     vdW  Elec       q    Type
                         _______ _______ _______ _____ _____    ______ ____

>  <TORSDO>
F 4

$$$$
=
 OpenBabel11062417153D

 26 29  0  0  0  0  0  0  0  0999 V2000
  188.7720  176.7830  142.6720 C   0  0  0  0  0  0  0  0  0  0  0  0
  186.5710  178.6260  140.7500 C   0  0  0  0  0  2  0  0  0  0  0  0
  185.1000  178.8800  140.8110 C   0  0  0  0  0  2  0  0  0  0  0  0
  186.7910  177.7310  143.0060 C   0  0  0  0  0  0  0  0  0  0  0  0
  185.7720  178.2850  143.6750 C   0  0  0  0  0  2  0  0  0  0  0  0
  184.6970  179.6850  141.9550 N   0  0  0  0  0  0  0  0  0  0  0  0
  184.9210  179.3930  143.2000 C   0  0  0  0  0  3  0  0  0  0  0  0
  187.2620  178.0370  141.7320 C   0  0  0  0  0  0  0  0  0  0  0  0
  187.7360  176.8990  143.5830 C   0  0  0  0  0  0  0  0  0  0  0  0
  188.4970  177.4970  141.5530 N   0  0  0  0  0  0  0  0  0  0  0  0
  190.6990  176.6330  137.7880 C   0  0  0  0  0  3  0  0  0  0  0  0
  190.3450  176.7320  140.2310 C   0  0  0  0  0  3  0  0  0  0  0  0
  191.3450  176.7890  139.1230 C   0  0  0  0  0  2  0  0  0  0  0  0
  189.7940  177.4900  137.3200 C   0  0  0  0  0  3  0  0  0  0  0  0
  189.2470  178.6300  138.0770 C   0  0  0  0  0  3  0  0  0  0  0  0
  189.3320  177.5970  140.3800 C   0  0  0  0  0  0  0  0  0  0  0  0
  189.0540  178.6770  139.4020 C   0  0  0  0  0  3  0  0  0  0  0  0
  190.0670  176.0820  142.9410 C   0  0  0  0  0  2  0  0  0  0  0  0
  191.0500  177.0370  143.5910 C   0  0  0  0  0  1  0  0  0  0  0  0
  187.7310  176.3780  144.9890 C   0  0  0  0  0  2  0  0  0  0  0  0
  187.0240  177.8720  146.8940 C   0  0  0  0  0  2  0  0  0  0  0  0
  189.3870  176.9550  146.7700 C   0  0  0  0  0  2  0  0  0  0  0  0
  188.8830  179.0010  147.9840 O   0  0  0  0  0  0  0  0  0  0  0  0
  188.1760  177.4480  145.9740 C   0  0  0  0  0  3  0  0  0  0  0  0
  189.6260  177.8080  148.0260 C   0  0  0  0  0  2  0  0  0  0  0  0
  187.5350  178.6260  148.1320 C   0  0  0  0  0  2  0  0  0  0  0  0
  1 18  1  0  0  0  0
  1  9  2  0  0  0  0
  2  3  1  0  0  0  0
  2  8  1  0  0  0  0
  3  6  1  0  0  0  0
  4  9  1  0  0  0  0
  4  5  1  0  0  0  0
  6  7  2  0  0  0  0
  7  5  1  0  0  0  0
  8  4  2  0  0  0  0
  9 20  1  0  0  0  0
 10  8  1  0  0  0  0
 10  1  1  0  0  0  0
 11 13  1  0  0  0  0
 12 16  2  0  0  0  0
 13 12  1  0  0  0  0
 14 11  2  0  0  0  0
 14 15  1  0  0  0  0
 15 17  2  0  0  0  0
 16 10  1  0  0  0  0
 17 16  1  0  0  0  0
 18 19  1  0  0  0  0
 20 24  1  0  0  0  0
 21 26  1  0  0  0  0
 22 25  1  0  0  0  0
 23 25  1  0  0  0  0
 23 26  1  0  0  0  0
 24 22  1  0  0  0  0
 24 21  1  0  0  0  0
M  END
>  <MODEL>
8

>  <REMARK>
 VINA RESULT:      -7.9      2.341      6.417
  Name = 
  4 active torsions:
  status: ('A' for Active; 'I' for Inactive)
    1  A    between atoms: C_4  and  C_7
    2  A    between atoms: C_11  and  C_18
    3  A    between atoms: C_15  and  N_26
    4  A    between atoms: C_18  and  C_25
                            x       y       z     vdW  Elec       q    Type
                         _______ _______ _______ _____ _____    ______ ____

>  <TORSDO>
F 4

$$$$
=
 OpenBabel11062417153D

 26 29  0  0  0  0  0  0  0  0999 V2000
  187.4460  178.2550  140.3900 C   0  0  0  0  0  0  0  0  0  0  0  0
  190.2500  176.4690  139.4510 C   0  0  0  0  0  2  0  0  0  0  0  0
  190.6090  175.6560  138.2500 C   0  0  0  0  0  2  0  0  0  0  0  0
  188.3220  177.5850  138.4620 C   0  0  0  0  0  0  0  0  0  0  0  0
  188.5790  177.5720  137.1480 C   0  0  0  0  0  2  0  0  0  0  0  0
  190.7700  176.4480  137.0400 N   0  0  0  0  0  0  0  0  0  0  0  0
  189.8670  177.2220  136.5180 C   0  0  0  0  0  3  0  0  0  0  0  0
  189.1700  177.2560  139.5160 C   0  0  0  0  0  0  0  0  0  0  0  0
  187.2080  178.1830  139.0280 C   0  0  0  0  0  0  0  0  0  0  0  0
  188.6520  177.7140  140.6860 N   0  0  0  0  0  0  0  0  0  0  0  0
  190.0560  178.5160  144.8290 C   0  0  0  0  0  3  0  0  0  0  0  0
  190.2040  178.4380  142.3650 C   0  0  0  0  0  3  0  0  0  0  0  0
  190.9570  178.3570  143.6510 C   0  0  0  0  0  2  0  0  0  0  0  0
  189.0610  177.6720  145.0950 C   0  0  0  0  0  3  0  0  0  0  0  0
  188.6620  176.5460  144.2310 C   0  0  0  0  0  3  0  0  0  0  0  0
  189.2300  177.5920  142.0040 C   0  0  0  0  0  0  0  0  0  0  0  0
  188.7410  176.5100  142.8950 C   0  0  0  0  0  3  0  0  0  0  0  0
  186.5580  178.9540  141.3720 C   0  0  0  0  0  2  0  0  0  0  0  0
  185.4790  178.0080  141.8630 C   0  0  0  0  0  1  0  0  0  0  0  0
  186.0550  178.8020  138.2960 C   0  0  0  0  0  2  0  0  0  0  0  0
  183.5690  178.5060  138.5990 C   0  0  0  0  0  2  0  0  0  0  0  0
  184.8140  177.2510  136.7790 C   0  0  0  0  0  2  0  0  0  0  0  0
  182.7220  176.4130  137.6940 O   0  0  0  0  0  0  0  0  0  0  0  0
  184.8870  177.8340  138.1920 C   0  0  0  0  0  3  0  0  0  0  0  0
  183.4530  176.5930  136.5050 C   0  0  0  0  0  2  0  0  0  0  0  0
  182.3500  177.7000  138.1210 C   0  0  0  0  0  2  0  0  0  0  0  0
  1 10  1  0  0  0  0
  1 18  1  0  0  0  0
  2  8  1  0  0  0  0
  3  2  1  0  0  0  0
  4  9  1  0  0  0  0
  4  8  2  0  0  0  0
  5  4  1  0  0  0  0
  6  3  1  0  0  0  0
  7  6  2  0  0  0  0
  7  5  1  0  0  0  0
  8 10  1  0  0  0  0
  9  1  2  0  0  0  0
 10 16  1  0  0  0  0
 11 14  2  0  0  0  0
 12 13  1  0  0  0  0
 13 11  1  0  0  0  0
 15 14  1  0  0  0  0
 16 12  2  0  0  0  0
 16 17  1  0  0  0  0
 17 15  2  0  0  0  0
 18 19  1  0  0  0  0
 20  9  1  0  0  0  0
 22 24  1  0  0  0  0
 23 26  1  0  0  0  0
 24 20  1  0  0  0  0
 24 21  1  0  0  0  0
 25 22  1  0  0  0  0
 25 23  1  0  0  0  0
 26 21  1  0  0  0  0
M  END
>  <MODEL>
9

>  <REMARK>
 VINA RESULT:      -7.8      2.936      5.381
  Name = 
  4 active torsions:
  status: ('A' for Active; 'I' for Inactive)
    1  A    between atoms: C_4  and  C_7
    2  A    between atoms: C_11  and  C_18
    3  A    between atoms: C_15  and  N_26
    4  A    between atoms: C_18  and  C_25
                            x       y       z     vdW  Elec       q    Type
                         _______ _______ _______ _____ _____    ______ ____

>  <TORSDO>
F 4

$$$$
