=
 OpenBabel11062416453D

 28 32  0  0  1  0  0  0  0  0999 V2000
  181.6120  178.7620  143.3410 C   0  0  0  0  0  0  0  0  0  0  0  0
  187.9360  178.6540  141.3610 S   0  0  0  0  0  0  0  0  0  0  0  0
  189.6260  177.9440  141.6130 C   0  0  1  0  0  3  0  0  0  0  0  0
  184.7630  179.0790  145.0230 C   0  0  0  0  0  0  0  0  0  0  0  0
  186.2810  178.1070  143.6260 C   0  0  0  0  0  0  0  0  0  0  0  0
  185.4520  178.2760  145.7820 N   0  0  0  0  0  0  0  0  0  0  0  0
  180.5510  178.8080  144.2370 O   0  0  0  0  0  1  0  0  0  0  0  0
  183.9850  178.8600  142.8880 C   0  0  0  0  0  0  0  0  0  0  0  0
  183.3410  179.1160  145.1250 N   0  0  0  0  0  2  0  0  0  0  0  0
  182.9270  178.9310  143.7760 C   0  0  0  0  0  0  0  0  0  0  0  0
  187.9600  177.1180  145.2410 S   0  0  0  0  0  0  0  0  0  0  0  0
  189.7940  177.3420  143.0250 C   0  0  1  0  0  3  0  0  0  0  0  0
  182.4590  178.4940  141.0690 C   0  0  0  0  0  3  0  0  0  0  0  0
  181.3810  178.5420  141.9730 C   0  0  0  0  0  3  0  0  0  0  0  0
  185.2540  179.1730  143.5920 C   0  0  1  0  0  3  0  0  0  0  0  0
  187.4410  177.9120  142.8890 C   0  0  0  0  0  0  0  0  0  0  0  0
  183.7770  178.6640  141.5220 C   0  0  0  0  0  3  0  0  0  0  0  0
  186.4110  177.7030  144.9150 C   0  0  0  0  0  0  0  0  0  0  0  0
  190.7230  178.2300  143.8310 C   0  0  0  0  0  1  0  0  0  0  0  0
  188.4390  177.3380  143.6240 C   0  0  0  0  0  0  0  0  0  0  0  0
  189.9830  176.9640  140.4890 C   0  0  2  0  0  3  0  0  0  0  0  0
  192.3220  177.4880  140.8330 O   0  0  0  0  0  1  0  0  0  0  0  0
  191.3590  177.2160  139.8590 C   0  0  0  0  0  2  0  0  0  0  0  0
  188.8730  176.8840  139.4470 C   0  0  0  0  0  2  0  0  0  0  0  0
  189.4070  177.2460  138.0720 C   0  0  0  0  0  2  0  0  0  0  0  0
  188.9700  179.5630  137.7080 O   0  0  0  0  0  1  0  0  0  0  0  0
  188.5170  178.0720  135.9190 C   0  0  0  0  0  1  0  0  0  0  0  0
  188.5090  178.2790  137.4180 C   0  0  1  0  0  3  0  0  0  0  0  0
  1 10  1  0  0  0  0
  1  7  1  0  0  0  0
  2  3  1  0  0  0  0
  2 16  1  0  0  0  0
  3 21  1  6  0  0  0
  3 12  1  0  0  0  0
  4  9  1  0  0  0  0
  4  6  2  0  0  0  0
  5 18  2  0  0  0  0
  8 10  2  0  0  0  0
 10  9  1  0  0  0  0
 12 20  1  0  0  0  0
 12 19  1  1  0  0  0
 13 17  2  0  0  0  0
 13 14  1  0  0  0  0
 14  1  2  0  0  0  0
 15  8  1  6  0  0  0
 15  5  1  0  0  0  0
 15  4  1  0  0  0  0
 16 20  2  0  0  0  0
 16  5  1  0  0  0  0
 17  8  1  0  0  0  0
 18 11  1  0  0  0  0
 18  6  1  0  0  0  0
 20 11  1  0  0  0  0
 21 24  1  6  0  0  0
 23 21  1  0  0  0  0
 23 22  1  0  0  0  0
 25 24  1  0  0  0  0
 28 27  1  6  0  0  0
 28 26  1  0  0  0  0
 28 25  1  0  0  0  0
M  END
>  <MODEL>
1

>  <REMARK>
 VINA RESULT:      -8.2      0.000      0.000
  Name = 
  5 active torsions:
  status: ('A' for Active; 'I' for Inactive)
    1  A    between atoms: C_4  and  C_19
    2  A    between atoms: C_6  and  C_19
    3  A    between atoms: C_11  and  C_16
    4  A    between atoms: C_11  and  C_22
    5  A    between atoms: C_16  and  C_19
                            x       y       z     vdW  Elec       q    Type
                         _______ _______ _______ _____ _____    ______ ____

>  <TORSDO>
F 5

$$$$
=
 OpenBabel11062416453D

 28 32  0  0  1  0  0  0  0  0999 V2000
  189.0280  177.9930  137.6520 C   0  0  0  0  0  0  0  0  0  0  0  0
  187.7460  176.9740  144.0750 S   0  0  0  0  0  0  0  0  0  0  0  0
  188.2350  177.3210  145.8260 C   0  0  1  0  0  3  0  0  0  0  0  0
  191.0040  176.9600  140.4620 C   0  0  0  0  0  0  0  0  0  0  0  0
  189.8610  177.6980  142.2930 C   0  0  0  0  0  0  0  0  0  0  0  0
  191.8950  177.5640  141.1930 N   0  0  0  0  0  0  0  0  0  0  0  0
  189.8000  178.1030  136.5020 O   0  0  0  0  0  1  0  0  0  0  0  0
  188.8230  177.4580  140.0020 C   0  0  0  0  0  0  0  0  0  0  0  0
  190.9500  177.1970  139.0560 N   0  0  0  0  0  2  0  0  0  0  0  0
  189.5850  177.5430  138.8500 C   0  0  0  0  0  0  0  0  0  0  0  0
  191.7220  178.2360  143.9210 S   0  0  0  0  0  0  0  0  0  0  0  0
  189.7020  177.7910  145.9330 C   0  0  1  0  0  3  0  0  0  0  0  0
  186.8900  178.2270  138.8020 C   0  0  0  0  0  3  0  0  0  0  0  0
  187.6670  178.3370  137.6330 C   0  0  0  0  0  3  0  0  0  0  0  0
  189.6300  176.8590  141.0950 C   0  0  1  0  0  3  0  0  0  0  0  0
  189.2700  177.7040  143.5480 C   0  0  0  0  0  0  0  0  0  0  0  0
  187.4650  177.7730  140.0000 C   0  0  0  0  0  3  0  0  0  0  0  0
  191.1850  177.9880  142.3400 C   0  0  0  0  0  0  0  0  0  0  0  0
  190.5250  176.6900  146.5740 C   0  0  0  0  0  1  0  0  0  0  0  0
  190.1520  178.0250  144.5410 C   0  0  0  0  0  0  0  0  0  0  0  0
  187.2400  178.2780  146.4940 C   0  0  2  0  0  3  0  0  0  0  0  0
  187.7300  177.3730  148.6850 O   0  0  0  0  0  1  0  0  0  0  0  0
  187.5440  178.5580  147.9700 C   0  0  0  0  0  2  0  0  0  0  0  0
  185.8010  177.8280  146.2710 C   0  0  0  0  0  2  0  0  0  0  0  0
  184.9500  178.9890  145.7860 C   0  0  0  0  0  2  0  0  0  0  0  0
  182.8910  178.8880  144.5850 O   0  0  0  0  0  1  0  0  0  0  0  0
  184.8450  179.4410  143.3580 C   0  0  0  0  0  1  0  0  0  0  0  0
  184.2570  178.6230  144.4870 C   0  0  1  0  0  3  0  0  0  0  0  0
  1 10  1  0  0  0  0
  2  3  1  0  0  0  0
  3 12  1  0  0  0  0
  3 21  1  6  0  0  0
  4 15  1  0  0  0  0
  4  6  2  0  0  0  0
  5 18  2  0  0  0  0
  5 16  1  0  0  0  0
  6 18  1  0  0  0  0
  7  1  1  0  0  0  0
  9  4  1  0  0  0  0
 10  9  1  0  0  0  0
 10  8  2  0  0  0  0
 11 20  1  0  0  0  0
 12 19  1  6  0  0  0
 13 17  2  0  0  0  0
 14  1  2  0  0  0  0
 14 13  1  0  0  0  0
 15  8  1  6  0  0  0
 15  5  1  0  0  0  0
 16  2  1  0  0  0  0
 16 20  2  0  0  0  0
 17  8  1  0  0  0  0
 18 11  1  0  0  0  0
 20 12  1  0  0  0  0
 21 24  1  1  0  0  0
 21 23  1  0  0  0  0
 23 22  1  0  0  0  0
 25 24  1  0  0  0  0
 28 27  1  6  0  0  0
 28 26  1  0  0  0  0
 28 25  1  0  0  0  0
M  END
>  <MODEL>
2

>  <REMARK>
 VINA RESULT:      -8.2      3.252      7.036
  Name = 
  5 active torsions:
  status: ('A' for Active; 'I' for Inactive)
    1  A    between atoms: C_4  and  C_19
    2  A    between atoms: C_6  and  C_19
    3  A    between atoms: C_11  and  C_16
    4  A    between atoms: C_11  and  C_22
    5  A    between atoms: C_16  and  C_19
                            x       y       z     vdW  Elec       q    Type
                         _______ _______ _______ _____ _____    ______ ____

>  <TORSDO>
F 5

$$$$
=
 OpenBabel11062416453D

 28 32  0  0  1  0  0  0  0  0999 V2000
  190.1690  177.0790  146.8850 C   0  0  0  0  0  0  0  0  0  0  0  0
  187.1570  178.8860  141.2640 S   0  0  0  0  0  0  0  0  0  0  0  0
  186.9480  178.5800  139.4510 C   0  0  1  0  0  3  0  0  0  0  0  0
  191.3120  177.8530  143.5750 C   0  0  0  0  0  0  0  0  0  0  0  0
  189.4910  177.5510  142.2340 C   0  0  0  0  0  0  0  0  0  0  0  0
  191.7400  177.1210  142.5870 N   0  0  0  0  0  0  0  0  0  0  0  0
  191.2210  176.7000  147.7090 O   0  0  0  0  0  1  0  0  0  0  0  0
  189.3480  177.8370  144.7400 C   0  0  0  0  0  0  0  0  0  0  0  0
  191.6620  177.5200  144.9170 N   0  0  0  0  0  2  0  0  0  0  0  0
  190.3980  177.4840  145.5700 C   0  0  0  0  0  0  0  0  0  0  0  0
  190.5280  176.7310  140.0760 S   0  0  0  0  0  0  0  0  0  0  0  0
  188.1380  177.7940  138.8590 C   0  0  1  0  0  3  0  0  0  0  0  0
  187.7840  177.4400  146.5200 C   0  0  0  0  0  3  0  0  0  0  0  0
  188.8480  177.0580  147.3600 C   0  0  0  0  0  3  0  0  0  0  0  0
  189.8760  178.3200  143.4390 C   0  0  1  0  0  3  0  0  0  0  0  0
  188.5410  177.7830  141.2490 C   0  0  0  0  0  0  0  0  0  0  0  0
  188.0300  177.8450  145.1980 C   0  0  0  0  0  3  0  0  0  0  0  0
  190.6140  176.9670  141.7450 C   0  0  0  0  0  0  0  0  0  0  0  0
  188.9510  178.7230  137.9770 C   0  0  0  0  0  1  0  0  0  0  0  0
  188.9440  177.3500  140.0180 C   0  0  0  0  0  0  0  0  0  0  0  0
  185.5880  177.9370  139.1560 C   0  0  2  0  0  3  0  0  0  0  0  0
  184.1950  176.8750  137.4850 O   0  0  0  0  0  1  0  0  0  0  0  0
  185.3510  177.6370  137.6710 C   0  0  0  0  0  2  0  0  0  0  0  0
  184.4480  178.7370  139.7770 C   0  0  0  0  0  2  0  0  0  0  0  0
  183.7510  177.9220  140.8530 C   0  0  0  0  0  2  0  0  0  0  0  0
  181.8280  178.6180  142.0800 O   0  0  0  0  0  1  0  0  0  0  0  0
  183.8980  178.5560  143.2380 C   0  0  0  0  0  1  0  0  0  0  0  0
  183.1960  178.8390  141.9270 C   0  0  1  0  0  3  0  0  0  0  0  0
  1 14  1  0  0  0  0
  1  7  1  0  0  0  0
  3 21  1  1  0  0  0
  3  2  1  0  0  0  0
  4  9  1  0  0  0  0
  6  4  2  0  0  0  0
  8 17  2  0  0  0  0
  8 10  1  0  0  0  0
  9 10  1  0  0  0  0
 10  1  2  0  0  0  0
 11 18  1  0  0  0  0
 12 19  1  6  0  0  0
 12  3  1  0  0  0  0
 12 20  1  0  0  0  0
 13 14  2  0  0  0  0
 15  5  1  6  0  0  0
 15  4  1  0  0  0  0
 15  8  1  0  0  0  0
 16  2  1  0  0  0  0
 16  5  1  0  0  0  0
 17 13  1  0  0  0  0
 18  5  2  0  0  0  0
 18  6  1  0  0  0  0
 20 11  1  0  0  0  0
 20 16  2  0  0  0  0
 21 23  1  6  0  0  0
 21 24  1  0  0  0  0
 22 23  1  0  0  0  0
 24 25  1  0  0  0  0
 25 28  1  0  0  0  0
 28 26  1  0  0  0  0
 28 27  1  1  0  0  0
M  END
>  <MODEL>
3

>  <REMARK>
 VINA RESULT:      -8.0      3.082      6.667
  Name = 
  5 active torsions:
  status: ('A' for Active; 'I' for Inactive)
    1  A    between atoms: C_4  and  C_19
    2  A    between atoms: C_6  and  C_19
    3  A    between atoms: C_11  and  C_16
    4  A    between atoms: C_11  and  C_22
    5  A    between atoms: C_16  and  C_19
                            x       y       z     vdW  Elec       q    Type
                         _______ _______ _______ _____ _____    ______ ____

>  <TORSDO>
F 5

$$$$
=
 OpenBabel11062416453D

 28 32  0  0  1  0  0  0  0  0999 V2000
  188.4460  177.8310  136.1680 C   0  0  0  0  0  0  0  0  0  0  0  0
  188.4820  176.6580  142.6920 S   0  0  0  0  0  0  0  0  0  0  0  0
  189.3770  176.8680  144.2980 C   0  0  1  0  0  3  0  0  0  0  0  0
  190.8510  176.4590  138.4470 C   0  0  0  0  0  0  0  0  0  0  0  0
  190.2280  177.2300  140.5010 C   0  0  0  0  0  0  0  0  0  0  0  0
  191.9450  176.9280  138.9760 N   0  0  0  0  0  0  0  0  0  0  0  0
  188.9560  177.9100  134.8790 O   0  0  0  0  0  1  0  0  0  0  0  0
  188.6960  177.2120  138.4930 C   0  0  0  0  0  0  0  0  0  0  0  0
  190.5210  176.7670  137.0940 N   0  0  0  0  0  2  0  0  0  0  0  0
  189.1940  177.2680  137.2030 C   0  0  0  0  0  0  0  0  0  0  0  0
  192.4480  177.4870  141.6890 S   0  0  0  0  0  0  0  0  0  0  0  0
  190.8770  177.1700  144.0870 C   0  0  1  0  0  3  0  0  0  0  0  0
  186.6500  178.2420  137.7680 C   0  0  0  0  0  3  0  0  0  0  0  0
  187.1620  178.3210  136.4580 C   0  0  0  0  0  3  0  0  0  0  0  0
  189.6460  176.4780  139.3670 C   0  0  1  0  0  3  0  0  0  0  0  0
  189.9290  177.2420  141.8570 C   0  0  0  0  0  0  0  0  0  0  0  0
  187.4160  177.6730  138.7990 C   0  0  0  0  0  3  0  0  0  0  0  0
  191.5550  177.3730  140.2610 C   0  0  0  0  0  0  0  0  0  0  0  0
  191.6860  175.9580  144.5070 C   0  0  0  0  0  1  0  0  0  0  0  0
  191.0370  177.4190  142.6370 C   0  0  0  0  0  0  0  0  0  0  0  0
  188.6700  177.8940  145.1900 C   0  0  2  0  0  3  0  0  0  0  0  0
  189.5260  176.5260  146.9950 O   0  0  0  0  0  1  0  0  0  0  0  0
  189.0550  177.8010  146.6710 C   0  0  0  0  0  2  0  0  0  0  0  0
  187.1600  177.8680  144.9800 C   0  0  0  0  0  2  0  0  0  0  0  0
  186.4490  177.5060  146.2730 C   0  0  0  0  0  2  0  0  0  0  0  0
  185.6760  179.4850  147.3560 O   0  0  0  0  0  1  0  0  0  0  0  0
  184.8300  179.0250  145.1880 C   0  0  0  0  0  1  0  0  0  0  0  0
  185.2840  178.4470  146.5110 C   0  0  1  0  0  3  0  0  0  0  0  0
  1 14  2  0  0  0  0
  1 10  1  0  0  0  0
  2  3  1  0  0  0  0
  3 21  1  6  0  0  0
  4  6  2  0  0  0  0
  5 16  1  0  0  0  0
  6 18  1  0  0  0  0
  7  1  1  0  0  0  0
  8 17  1  0  0  0  0
  8 15  1  0  0  0  0
  9 10  1  0  0  0  0
  9  4  1  0  0  0  0
 10  8  2  0  0  0  0
 11 20  1  0  0  0  0
 12  3  1  0  0  0  0
 12 19  1  6  0  0  0
 13 17  2  0  0  0  0
 14 13  1  0  0  0  0
 15  4  1  6  0  0  0
 15  5  1  0  0  0  0
 16 20  2  0  0  0  0
 16  2  1  0  0  0  0
 18  5  2  0  0  0  0
 18 11  1  0  0  0  0
 20 12  1  0  0  0  0
 21 24  1  1  0  0  0
 21 23  1  0  0  0  0
 23 22  1  0  0  0  0
 24 25  1  0  0  0  0
 25 28  1  0  0  0  0
 28 27  1  6  0  0  0
 28 26  1  0  0  0  0
M  END
>  <MODEL>
4

>  <REMARK>
 VINA RESULT:      -7.7      3.864      7.374
  Name = 
  5 active torsions:
  status: ('A' for Active; 'I' for Inactive)
    1  A    between atoms: C_4  and  C_19
    2  A    between atoms: C_6  and  C_19
    3  A    between atoms: C_11  and  C_16
    4  A    between atoms: C_11  and  C_22
    5  A    between atoms: C_16  and  C_19
                            x       y       z     vdW  Elec       q    Type
                         _______ _______ _______ _____ _____    ______ ____

>  <TORSDO>
F 5

$$$$
=
 OpenBabel11062416453D

 28 32  0  0  1  0  0  0  0  0999 V2000
  181.9820  179.3740  142.9290 C   0  0  0  0  0  0  0  0  0  0  0  0
  187.9860  176.7480  143.9260 S   0  0  0  0  0  0  0  0  0  0  0  0
  189.7890  176.8030  143.5120 C   0  0  1  0  0  3  0  0  0  0  0  0
  184.5860  178.1950  140.7620 C   0  0  0  0  0  0  0  0  0  0  0  0
  186.4840  178.2640  142.0240 C   0  0  0  0  0  0  0  0  0  0  0  0
  185.4640  178.7990  140.0150 N   0  0  0  0  0  0  0  0  0  0  0  0
  180.9140  179.8880  142.2050 O   0  0  0  0  0  1  0  0  0  0  0  0
  184.1550  178.3140  143.0010 C   0  0  0  0  0  0  0  0  0  0  0  0
  183.2620  178.7140  140.8730 N   0  0  0  0  0  2  0  0  0  0  0  0
  183.0790  178.8030  142.2810 C   0  0  0  0  0  0  0  0  0  0  0  0
  188.2630  178.8150  140.3110 S   0  0  0  0  0  0  0  0  0  0  0  0
  190.0520  177.5340  142.1780 C   0  0  1  0  0  3  0  0  0  0  0  0
  183.0690  178.9030  145.0610 C   0  0  0  0  0  3  0  0  0  0  0  0
  181.9820  179.4230  144.3320 C   0  0  0  0  0  3  0  0  0  0  0  0
  185.1270  177.6740  142.0790 C   0  0  1  0  0  3  0  0  0  0  0  0
  187.6880  177.8760  142.5960 C   0  0  0  0  0  0  0  0  0  0  0  0
  184.1650  178.3310  144.3960 C   0  0  0  0  0  3  0  0  0  0  0  0
  186.6460  178.8080  140.7920 C   0  0  0  0  0  0  0  0  0  0  0  0
  190.4770  176.5170  141.1350 C   0  0  0  0  0  1  0  0  0  0  0  0
  188.7610  178.1510  141.7960 C   0  0  0  0  0  0  0  0  0  0  0  0
  190.6040  177.3630  144.6830 C   0  0  2  0  0  3  0  0  0  0  0  0
  192.0040  175.4360  144.2510 O   0  0  0  0  0  1  0  0  0  0  0  0
  191.6840  176.4060  145.2030 C   0  0  0  0  0  2  0  0  0  0  0  0
  189.6980  177.8770  145.7960 C   0  0  0  0  0  2  0  0  0  0  0  0
  189.7870  176.9720  147.0140 C   0  0  0  0  0  2  0  0  0  0  0  0
  189.2670  178.4050  148.8490 O   0  0  0  0  0  1  0  0  0  0  0  0
  187.5110  177.8780  147.3430 C   0  0  0  0  0  1  0  0  0  0  0  0
  188.7560  177.3840  148.0480 C   0  0  1  0  0  3  0  0  0  0  0  0
  1 14  1  0  0  0  0
  3  2  1  0  0  0  0
  3 21  1  1  0  0  0
  4  9  1  0  0  0  0
  5 15  1  0  0  0  0
  5 16  1  0  0  0  0
  6  4  2  0  0  0  0
  6 18  1  0  0  0  0
  7  1  1  0  0  0  0
  8 17  2  0  0  0  0
  9 10  1  0  0  0  0
 10  1  2  0  0  0  0
 10  8  1  0  0  0  0
 11 18  1  0  0  0  0
 11 20  1  0  0  0  0
 12 19  1  6  0  0  0
 12  3  1  0  0  0  0
 14 13  2  0  0  0  0
 15  4  1  6  0  0  0
 15  8  1  0  0  0  0
 16  2  1  0  0  0  0
 17 13  1  0  0  0  0
 18  5  2  0  0  0  0
 20 12  1  0  0  0  0
 20 16  2  0  0  0  0
 21 23  1  1  0  0  0
 21 24  1  0  0  0  0
 22 23  1  0  0  0  0
 24 25  1  0  0  0  0
 25 28  1  0  0  0  0
 28 27  1  6  0  0  0
 28 26  1  0  0  0  0
M  END
>  <MODEL>
5

>  <REMARK>
 VINA RESULT:      -7.5      2.856      5.179
  Name = 
  5 active torsions:
  status: ('A' for Active; 'I' for Inactive)
    1  A    between atoms: C_4  and  C_19
    2  A    between atoms: C_6  and  C_19
    3  A    between atoms: C_11  and  C_16
    4  A    between atoms: C_11  and  C_22
    5  A    between atoms: C_16  and  C_19
                            x       y       z     vdW  Elec       q    Type
                         _______ _______ _______ _____ _____    ______ ____

>  <TORSDO>
F 5

$$$$
=
 OpenBabel11062416453D

 28 32  0  0  1  0  0  0  0  0999 V2000
  188.5380  177.5610  147.7330 C   0  0  0  0  0  0  0  0  0  0  0  0
  189.0030  176.7940  141.1660 S   0  0  0  0  0  0  0  0  0  0  0  0
  188.5370  177.4370  139.4950 C   0  0  1  0  0  3  0  0  0  0  0  0
  186.1560  177.4620  145.0540 C   0  0  0  0  0  0  0  0  0  0  0  0
  187.3520  177.9730  143.1800 C   0  0  0  0  0  0  0  0  0  0  0  0
  185.4580  178.3800  144.4500 N   0  0  0  0  0  0  0  0  0  0  0  0
  187.9200  177.7990  148.9540 O   0  0  0  0  0  1  0  0  0  0  0  0
  188.4070  177.2090  145.3440 C   0  0  0  0  0  0  0  0  0  0  0  0
  186.3750  177.5400  146.4610 N   0  0  0  0  0  2  0  0  0  0  0  0
  187.7890  177.4210  146.5640 C   0  0  0  0  0  0  0  0  0  0  0  0
  185.6570  179.2150  141.7690 S   0  0  0  0  0  0  0  0  0  0  0  0
  187.2920  178.3500  139.5550 C   0  0  1  0  0  3  0  0  0  0  0  0
  190.5600  177.2210  146.4100 C   0  0  0  0  0  3  0  0  0  0  0  0
  189.9360  177.4600  147.6510 C   0  0  0  0  0  3  0  0  0  0  0  0
  187.3810  176.9960  144.2920 C   0  0  1  0  0  3  0  0  0  0  0  0
  187.8300  177.9110  141.8780 C   0  0  0  0  0  0  0  0  0  0  0  0
  189.7920  177.0830  145.2420 C   0  0  0  0  0  3  0  0  0  0  0  0
  186.1890  178.6660  143.2730 C   0  0  0  0  0  0  0  0  0  0  0  0
  186.1210  177.6260  138.9190 C   0  0  0  0  0  1  0  0  0  0  0  0
  187.0330  178.5820  140.9940 C   0  0  0  0  0  0  0  0  0  0  0  0
  189.7380  178.0930  138.8040 C   0  0  2  0  0  3  0  0  0  0  0  0
  189.0070  179.8040  137.2570 O   0  0  0  0  0  1  0  0  0  0  0  0
  189.4760  178.4920  137.3470 C   0  0  0  0  0  2  0  0  0  0  0  0
  190.9980  177.2470  138.9580 C   0  0  0  0  0  2  0  0  0  0  0  0
  191.0830  176.2140  137.8470 C   0  0  0  0  0  2  0  0  0  0  0  0
  193.3620  176.8220  138.1950 O   0  0  0  0  0  1  0  0  0  0  0  0
  192.9180  174.5910  137.5220 C   0  0  0  0  0  1  0  0  0  0  0  0
  192.5220  176.0460  137.3970 C   0  0  1  0  0  3  0  0  0  0  0  0
  1  7  1  0  0  0  0
  2 16  1  0  0  0  0
  3 21  1  1  0  0  0
  3 12  1  0  0  0  0
  3  2  1  0  0  0  0
  4  9  1  0  0  0  0
  5 18  2  0  0  0  0
  6  4  2  0  0  0  0
  8 10  1  0  0  0  0
  9 10  1  0  0  0  0
 10  1  2  0  0  0  0
 11 18  1  0  0  0  0
 12 19  1  1  0  0  0
 12 20  1  0  0  0  0
 13 14  2  0  0  0  0
 14  1  1  0  0  0  0
 15  5  1  6  0  0  0
 15  4  1  0  0  0  0
 15  8  1  0  0  0  0
 16  5  1  0  0  0  0
 17  8  2  0  0  0  0
 17 13  1  0  0  0  0
 18  6  1  0  0  0  0
 20 11  1  0  0  0  0
 20 16  2  0  0  0  0
 21 23  1  6  0  0  0
 21 24  1  0  0  0  0
 22 23  1  0  0  0  0
 25 24  1  0  0  0  0
 28 27  1  1  0  0  0
 28 25  1  0  0  0  0
 28 26  1  0  0  0  0
M  END
>  <MODEL>
6

>  <REMARK>
 VINA RESULT:      -7.4      2.905      5.150
  Name = 
  5 active torsions:
  status: ('A' for Active; 'I' for Inactive)
    1  A    between atoms: C_4  and  C_19
    2  A    between atoms: C_6  and  C_19
    3  A    between atoms: C_11  and  C_16
    4  A    between atoms: C_11  and  C_22
    5  A    between atoms: C_16  and  C_19
                            x       y       z     vdW  Elec       q    Type
                         _______ _______ _______ _____ _____    ______ ____

>  <TORSDO>
F 5

$$$$
=
 OpenBabel11062416453D

 28 32  0  0  1  0  0  0  0  0999 V2000
  188.9490  177.3470  145.6600 C   0  0  0  0  0  0  0  0  0  0  0  0
  186.9720  178.3340  139.4110 S   0  0  0  0  0  0  0  0  0  0  0  0
  187.2030  177.9020  137.6260 C   0  0  1  0  0  3  0  0  0  0  0  0
  190.6430  178.1230  142.5950 C   0  0  0  0  0  0  0  0  0  0  0  0
  189.2180  177.4550  140.9450 C   0  0  0  0  0  0  0  0  0  0  0  0
  191.3770  177.4210  141.7820 N   0  0  0  0  0  0  0  0  0  0  0  0
  189.8450  177.1910  146.7100 O   0  0  0  0  0  1  0  0  0  0  0  0
  188.5010  177.8450  143.3360 C   0  0  0  0  0  0  0  0  0  0  0  0
  190.7440  177.9240  144.0040 N   0  0  0  0  0  2  0  0  0  0  0  0
  189.3900  177.7140  144.3880 C   0  0  0  0  0  0  0  0  0  0  0  0
  190.8030  176.7050  139.1200 S   0  0  0  0  0  0  0  0  0  0  0  0
  188.5970  177.2930  137.3570 C   0  0  1  0  0  3  0  0  0  0  0  0
  186.6710  177.2900  144.7890 C   0  0  0  0  0  3  0  0  0  0  0  0
  187.5750  177.1330  145.8570 C   0  0  0  0  0  3  0  0  0  0  0  0
  189.2160  178.3400  142.1320 C   0  0  1  0  0  3  0  0  0  0  0  0
  188.4760  177.4750  139.7720 C   0  0  0  0  0  0  0  0  0  0  0  0
  187.1300  177.6590  143.5150 C   0  0  0  0  0  3  0  0  0  0  0  0
  190.4940  177.0390  140.7450 C   0  0  0  0  0  0  0  0  0  0  0  0
  189.4300  178.2960  136.5820 C   0  0  0  0  0  1  0  0  0  0  0  0
  189.1940  177.0500  138.6900 C   0  0  0  0  0  0  0  0  0  0  0  0
  186.0500  177.0290  137.1190 C   0  0  2  0  0  3  0  0  0  0  0  0
  183.8210  177.8940  137.4980 O   0  0  0  0  0  1  0  0  0  0  0  0
  184.8080  177.0550  138.0180 C   0  0  0  0  0  2  0  0  0  0  0  0
  186.5180  175.6100  136.8150 C   0  0  0  0  0  2  0  0  0  0  0  0
  185.3410  174.6500  136.8170 C   0  0  0  0  0  2  0  0  0  0  0  0
  184.5520  172.6110  137.7700 O   0  0  0  0  0  1  0  0  0  0  0  0
  186.7250  172.6020  136.8160 C   0  0  0  0  0  1  0  0  0  0  0  0
  185.6930  173.3930  137.5900 C   0  0  1  0  0  3  0  0  0  0  0  0
  1 14  1  0  0  0  0
  1  7  1  0  0  0  0
  2 16  1  0  0  0  0
  3 21  1  1  0  0  0
  3  2  1  0  0  0  0
  4  9  1  0  0  0  0
  6  4  2  0  0  0  0
  8 17  2  0  0  0  0
  8 10  1  0  0  0  0
  9 10  1  0  0  0  0
 10  1  2  0  0  0  0
 11 18  1  0  0  0  0
 12 19  1  6  0  0  0
 12  3  1  0  0  0  0
 12 20  1  0  0  0  0
 13 14  2  0  0  0  0
 15  5  1  6  0  0  0
 15  4  1  0  0  0  0
 15  8  1  0  0  0  0
 16  5  1  0  0  0  0
 17 13  1  0  0  0  0
 18  5  2  0  0  0  0
 18  6  1  0  0  0  0
 20 11  1  0  0  0  0
 20 16  2  0  0  0  0
 21 24  1  1  0  0  0
 21 23  1  0  0  0  0
 22 23  1  0  0  0  0
 24 25  1  0  0  0  0
 25 28  1  0  0  0  0
 28 27  1  6  0  0  0
 28 26  1  0  0  0  0
M  END
>  <MODEL>
7

>  <REMARK>
 VINA RESULT:      -6.9      3.792      6.186
  Name = 
  5 active torsions:
  status: ('A' for Active; 'I' for Inactive)
    1  A    between atoms: C_4  and  C_19
    2  A    between atoms: C_6  and  C_19
    3  A    between atoms: C_11  and  C_16
    4  A    between atoms: C_11  and  C_22
    5  A    between atoms: C_16  and  C_19
                            x       y       z     vdW  Elec       q    Type
                         _______ _______ _______ _____ _____    ______ ____

>  <TORSDO>
F 5

$$$$
=
 OpenBabel11062416453D

 28 32  0  0  1  0  0  0  0  0999 V2000
  189.9430  177.0390  146.6620 C   0  0  0  0  0  0  0  0  0  0  0  0
  187.1680  179.0030  140.9730 S   0  0  0  0  0  0  0  0  0  0  0  0
  187.0050  178.7230  139.1510 C   0  0  1  0  0  3  0  0  0  0  0  0
  191.2120  177.8100  143.3980 C   0  0  0  0  0  0  0  0  0  0  0  0
  189.4260  177.5820  141.9980 C   0  0  0  0  0  0  0  0  0  0  0  0
  191.6470  177.0750  142.4150 N   0  0  0  0  0  0  0  0  0  0  0  0
  190.9560  176.6180  147.5140 O   0  0  0  0  0  1  0  0  0  0  0  0
  189.2140  177.8460  144.5020 C   0  0  0  0  0  0  0  0  0  0  0  0
  191.5100  177.4520  144.7460 N   0  0  0  0  0  2  0  0  0  0  0  0
  190.2260  177.4500  145.3590 C   0  0  0  0  0  0  0  0  0  0  0  0
  190.5030  176.7520  139.8640 S   0  0  0  0  0  0  0  0  0  0  0  0
  188.1870  177.9040  138.5860 C   0  0  1  0  0  3  0  0  0  0  0  0
  187.5840  177.4810  146.2280 C   0  0  0  0  0  3  0  0  0  0  0  0
  188.6080  177.0560  147.0960 C   0  0  0  0  0  3  0  0  0  0  0  0
  189.7970  178.3250  143.2240 C   0  0  1  0  0  3  0  0  0  0  0  0
  188.5150  177.8560  140.9880 C   0  0  0  0  0  0  0  0  0  0  0  0
  187.8840  177.8920  144.9190 C   0  0  0  0  0  3  0  0  0  0  0  0
  190.5440  176.9660  141.5370 C   0  0  0  0  0  0  0  0  0  0  0  0
  189.0560  178.8160  137.7400 C   0  0  0  0  0  1  0  0  0  0  0  0
  188.9420  177.4220  139.7650 C   0  0  0  0  0  0  0  0  0  0  0  0
  185.6350  178.1270  138.8070 C   0  0  2  0  0  3  0  0  0  0  0  0
  183.4730  177.4310  139.6460 O   0  0  0  0  0  1  0  0  0  0  0  0
  184.7350  177.8940  140.0260 C   0  0  0  0  0  2  0  0  0  0  0  0
  185.7710  176.8820  137.9380 C   0  0  0  0  0  2  0  0  0  0  0  0
  185.0780  177.0880  136.6020 C   0  0  0  0  0  2  0  0  0  0  0  0
  186.8060  177.9940  135.2300 O   0  0  0  0  0  1  0  0  0  0  0  0
  186.9800  175.7070  135.8350 C   0  0  0  0  0  1  0  0  0  0  0  0
  186.0530  176.8440  135.4650 C   0  0  1  0  0  3  0  0  0  0  0  0
  1 14  1  0  0  0  0
  1  7  1  0  0  0  0
  2 16  1  0  0  0  0
  3 21  1  1  0  0  0
  3  2  1  0  0  0  0
  4  9  1  0  0  0  0
  6  4  2  0  0  0  0
  8 17  2  0  0  0  0
  8 10  1  0  0  0  0
  9 10  1  0  0  0  0
 10  1  2  0  0  0  0
 11 18  1  0  0  0  0
 12 19  1  6  0  0  0
 12  3  1  0  0  0  0
 12 20  1  0  0  0  0
 13 14  2  0  0  0  0
 15  5  1  6  0  0  0
 15  4  1  0  0  0  0
 15  8  1  0  0  0  0
 16  5  1  0  0  0  0
 17 13  1  0  0  0  0
 18  5  2  0  0  0  0
 18  6  1  0  0  0  0
 20 11  1  0  0  0  0
 20 16  2  0  0  0  0
 21 24  1  1  0  0  0
 21 23  1  0  0  0  0
 22 23  1  0  0  0  0
 25 24  1  0  0  0  0
 26 28  1  0  0  0  0
 28 27  1  1  0  0  0
 28 25  1  0  0  0  0
M  END
>  <MODEL>
8

>  <REMARK>
 VINA RESULT:      -6.7      3.521      6.081
  Name = 
  5 active torsions:
  status: ('A' for Active; 'I' for Inactive)
    1  A    between atoms: C_4  and  C_19
    2  A    between atoms: C_6  and  C_19
    3  A    between atoms: C_11  and  C_16
    4  A    between atoms: C_11  and  C_22
    5  A    between atoms: C_16  and  C_19
                            x       y       z     vdW  Elec       q    Type
                         _______ _______ _______ _____ _____    ______ ____

>  <TORSDO>
F 5

$$$$
=
 OpenBabel11062416453D

 28 32  0  0  1  0  0  0  0  0999 V2000
  189.7090  177.7980  144.2980 C   0  0  0  0  0  0  0  0  0  0  0  0
  184.0580  177.5040  140.8470 S   0  0  0  0  0  0  0  0  0  0  0  0
  182.3540  178.1850  140.6030 C   0  0  1  0  0  3  0  0  0  0  0  0
  186.2430  177.5630  145.1920 C   0  0  0  0  0  0  0  0  0  0  0  0
  185.1080  178.3360  143.3720 C   0  0  0  0  0  0  0  0  0  0  0  0
  185.3870  178.4190  145.6700 N   0  0  0  0  0  0  0  0  0  0  0  0
  190.5180  177.8790  145.4240 O   0  0  0  0  0  1  0  0  0  0  0  0
  187.5180  177.5810  143.2970 C   0  0  0  0  0  0  0  0  0  0  0  0
  187.5980  177.5800  145.6380 N   0  0  0  0  0  2  0  0  0  0  0  0
  188.3280  177.6360  144.4180 C   0  0  0  0  0  0  0  0  0  0  0  0
  183.0810  179.4370  144.4150 S   0  0  0  0  0  0  0  0  0  0  0  0
  181.8450  178.9260  141.8590 C   0  0  1  0  0  3  0  0  0  0  0  0
  189.4400  177.8010  141.8740 C   0  0  0  0  0  3  0  0  0  0  0  0
  190.2650  177.8810  143.0120 C   0  0  0  0  0  3  0  0  0  0  0  0
  186.1160  177.3040  143.7040 C   0  0  1  0  0  3  0  0  0  0  0  0
  184.1620  178.4170  142.3590 C   0  0  0  0  0  0  0  0  0  0  0  0
  188.0510  177.6390  142.0100 C   0  0  0  0  0  3  0  0  0  0  0  0
  184.6660  178.8680  144.5390 C   0  0  0  0  0  0  0  0  0  0  0  0
  180.7500  178.0990  142.5070 C   0  0  0  0  0  1  0  0  0  0  0  0
  183.0120  179.0340  142.7630 C   0  0  0  0  0  0  0  0  0  0  0  0
  182.2780  179.0300  139.3260 C   0  0  2  0  0  3  0  0  0  0  0  0
  184.1800  180.5080  139.0910 O   0  0  0  0  0  1  0  0  0  0  0  0
  183.6400  179.2910  138.6710 C   0  0  0  0  0  2  0  0  0  0  0  0
  181.4870  180.3130  139.5550 C   0  0  0  0  0  2  0  0  0  0  0  0
  180.3360  180.4110  138.5670 C   0  0  0  0  0  2  0  0  0  0  0  0
  181.5880  182.3950  138.1350 O   0  0  0  0  0  1  0  0  0  0  0  0
  180.4130  181.4270  136.3150 C   0  0  0  0  0  1  0  0  0  0  0  0
  180.4160  181.7180  137.8000 C   0  0  1  0  0  3  0  0  0  0  0  0
  1 10  1  0  0  0  0
  1  7  1  0  0  0  0
  2 16  1  0  0  0  0
  3 21  1  6  0  0  0
  3  2  1  0  0  0  0
  3 12  1  0  0  0  0
  4  9  1  0  0  0  0
  4  6  2  0  0  0  0
  5 15  1  0  0  0  0
  5 18  2  0  0  0  0
  8 10  2  0  0  0  0
 10  9  1  0  0  0  0
 11 18  1  0  0  0  0
 12 19  1  1  0  0  0
 12 20  1  0  0  0  0
 13 17  2  0  0  0  0
 13 14  1  0  0  0  0
 14  1  2  0  0  0  0
 15  8  1  6  0  0  0
 15  4  1  0  0  0  0
 16 20  2  0  0  0  0
 16  5  1  0  0  0  0
 17  8  1  0  0  0  0
 18  6  1  0  0  0  0
 20 11  1  0  0  0  0
 21 23  1  1  0  0  0
 21 24  1  0  0  0  0
 23 22  1  0  0  0  0
 25 24  1  0  0  0  0
 28 27  1  6  0  0  0
 28 26  1  0  0  0  0
 28 25  1  0  0  0  0
M  END
>  <MODEL>
9

>  <REMARK>
 VINA RESULT:      -6.6      3.018      6.809
  Name = 
  5 active torsions:
  status: ('A' for Active; 'I' for Inactive)
    1  A    between atoms: C_4  and  C_19
    2  A    between atoms: C_6  and  C_19
    3  A    between atoms: C_11  and  C_16
    4  A    between atoms: C_11  and  C_22
    5  A    between atoms: C_16  and  C_19
                            x       y       z     vdW  Elec       q    Type
                         _______ _______ _______ _____ _____    ______ ____

>  <TORSDO>
F 5

$$$$
