=
 OpenBabel11062417043D

 47 52  0  0  1  0  0  0  0  0999 V2000
  188.0160  177.4090  137.0360 C   0  0  1  0  0  3  0  0  0  0  0  0
  189.7490  176.7350  135.3290 C   0  0  0  0  0  3  0  0  0  0  0  0
  190.4310  175.7630  134.5940 C   0  0  0  0  0  3  0  0  0  0  0  0
  188.7620  176.3630  136.2570 C   0  0  0  0  0  0  0  0  0  0  0  0
  188.4560  175.0020  136.4390 C   0  0  0  0  0  0  0  0  0  0  0  0
  190.1310  174.4120  134.7760 C   0  0  0  0  0  3  0  0  0  0  0  0
  189.1480  174.0330  135.6930 C   0  0  0  0  0  3  0  0  0  0  0  0
  187.4680  174.6340  137.3600 O   0  0  0  0  0  0  0  0  0  0  0  0
  186.4030  173.7490  137.0350 C   0  0  0  0  0  1  0  0  0  0  0  0
  188.9530  178.3970  137.7320 C   0  0  0  0  0  2  0  0  0  0  0  0
  188.1510  178.3480  140.4690 S   0  0  0  0  0  0  0  0  0  0  0  0
  188.8700  176.8780  142.7860 N   0  0  0  0  0  0  0  0  0  0  0  0
  189.1300  177.5470  141.5710 C   0  0  0  0  0  0  0  0  0  0  0  0
  189.8270  175.8390  142.9380 N   0  0  0  0  0  2  0  0  0  0  0  0
  190.1090  176.9150  140.9450 C   0  0  0  0  0  0  0  0  0  0  0  0
  191.2130  176.4900  138.6930 C   0  0  0  0  0  1  0  0  0  0  0  0
  190.5820  175.9130  141.7670 O   0  0  0  0  0  0  0  0  0  0  0  0
  189.2100  178.0280  139.1610 C   0  0  0  0  0  0  0  0  0  0  0  0
  190.2390  177.1750  139.5890 C   0  0  0  0  0  0  0  0  0  0  0  0
  187.5810  176.7890  143.3300 N   0  0  0  0  0  2  0  0  0  0  0  0
  187.6120  177.4270  144.6370 C   0  0  0  0  0  2  0  0  0  0  0  0
  186.2290  177.3910  145.2670 C   0  0  0  0  0  2  0  0  0  0  0  0
  184.9880  179.0190  146.7440 N   0  0  0  0  0  1  0  0  0  0  0  0
  186.1700  178.2750  146.4650 C   0  0  0  0  0  0  0  0  0  0  0  0
  187.1540  178.3450  147.2470 O   0  0  0  0  0  0  0  0  0  0  0  0
  186.8940  178.0650  136.2220 C   0  0  0  0  0  2  0  0  0  0  0  0
  185.5720  177.3020  136.2640 C   0  0  0  0  0  2  0  0  0  0  0  0
  184.9240  177.3710  137.6400 C   0  0  0  0  0  2  0  0  0  0  0  0
  182.9280  176.3970  136.5150 C   0  0  0  0  0  1  0  0  0  0  0  0
  183.3950  177.3970  137.5620 C   0  0  1  0  0  3  0  0  0  0  0  0
  183.6060  176.6980  139.7990 F   0  0  0  0  0  0  0  0  0  0  0  0
  179.1800  178.6230  140.3440 O   0  0  0  0  0  1  0  0  0  0  0  0
  181.0380  179.1960  138.8900 C   0  0  1  0  0  3  0  0  0  0  0  0
  181.4870  176.2700  138.9140 C   0  0  1  0  0  3  0  0  0  0  0  0
  180.0510  176.7970  139.0820 C   0  0  1  0  0  3  0  0  0  0  0  0
  182.3180  178.6720  139.5670 C   0  0  1  0  0  0  0  0  0  0  0  0
  182.0830  178.5460  141.0760 C   0  0  0  0  0  1  0  0  0  0  0  0
  179.8030  178.3090  139.1340 C   0  0  1  0  0  3  0  0  0  0  0  0
  180.5590  176.4090  137.7130 C   0  0  0  0  0  2  0  0  0  0  0  0
  182.6780  177.2790  138.9470 C   0  0  2  0  0  0  0  0  0  0  0  0
  180.0840  181.0120  140.1950 O   0  0  0  0  0  1  0  0  0  0  0  0
  180.7780  180.7110  139.0220 C   0  0  2  0  0  3  0  0  0  0  0  0
  180.0300  181.2540  137.8140 C   0  0  0  0  0  3  0  0  0  0  0  0
  180.8830  182.3020  137.1250 C   0  0  0  0  0  2  0  0  0  0  0  0
  180.7910  180.9030  136.5500 C   0  0  0  0  0  2  0  0  0  0  0  0
  184.4580  179.5440  140.3350 O   0  0  0  0  0  1  0  0  0  0  0  0
  183.4670  179.6800  139.3590 C   0  0  0  0  0  2  0  0  0  0  0  0
  1 26  1  6  0  0  0
  1 10  1  0  0  0  0
  2  4  1  0  0  0  0
  3  6  1  0  0  0  0
  3  2  2  0  0  0  0
  4  5  2  0  0  0  0
  4  1  1  0  0  0  0
  5  8  1  0  0  0  0
  6  7  2  0  0  0  0
  7  5  1  0  0  0  0
  9  8  1  0  0  0  0
 10 18  1  0  0  0  0
 11 13  1  0  0  0  0
 12 14  1  0  0  0  0
 12 20  1  0  0  0  0
 13 12  1  0  0  0  0
 15 13  2  0  0  0  0
 15 17  1  0  0  0  0
 16 19  1  0  0  0  0
 17 14  1  0  0  0  0
 18 19  2  0  0  0  0
 18 11  1  0  0  0  0
 19 15  1  0  0  0  0
 20 21  1  0  0  0  0
 21 22  1  0  0  0  0
 22 24  1  0  0  0  0
 24 23  1  0  0  0  0
 24 25  2  0  0  0  0
 26 27  1  0  0  0  0
 27 28  1  0  0  0  0
 30 29  1  6  0  0  0
 30 28  1  0  0  0  0
 30 40  1  0  0  0  0
 33 42  1  1  0  0  0
 33 38  1  0  0  0  0
 33 36  1  0  0  0  0
 34 39  1  6  0  0  0
 34 40  1  0  0  0  0
 34 35  1  0  0  0  0
 35 39  1  6  0  0  0
 35 38  1  0  0  0  0
 36 37  1  1  0  0  0
 38 32  1  1  0  0  0
 40 36  1  0  0  0  0
 40 31  1  1  0  0  0
 42 41  1  1  0  0  0
 43 42  1  0  0  0  0
 44 43  1  0  0  0  0
 45 44  1  0  0  0  0
 45 43  1  0  0  0  0
 47 36  1  0  0  0  0
 47 46  1  0  0  0  0
M  END
>  <MODEL>
1

>  <REMARK>
 VINA RESULT:      -6.9      0.000      0.000
  Name = 
  16 active torsions:
  status: ('A' for Active; 'I' for Inactive)
    1  A    between atoms: N_2  and  N_24
    2  A    between atoms: C_7  and  C_37
    3  A    between atoms: C_10  and  C_11
    4  A    between atoms: C_10  and  C_28
    5  A    between atoms: C_11  and  N_24
    6  A    between atoms: C_12  and  C_37
    7  A    between atoms: C_17  and  C_40
    8  A    between atoms: C_20  and  C_44
    9  A    between atoms: C_25  and  C_41
   10  A    between atoms: C_25  and  C_44
   11  A    between atoms: C_26  and  O_27
   12  A    between atoms: C_35  and  C_43
   13  A    between atoms: C_41  and  C_45
   14  A    between atoms: C_43  and  C_44
   15  A    between atoms: C_45  and  C_46
   16  A    between atoms: C_46  and  C_47
                            x       y       z     vdW  Elec       q    Type
                         _______ _______ _______ _____ _____    ______ ____

>  <TORSDO>
F 16

$$$$
=
 OpenBabel11062417043D

 47 52  0  0  1  0  0  0  0  0999 V2000
  188.1500  178.1850  141.6900 C   0  0  1  0  0  3  0  0  0  0  0  0
  186.9050  177.5530  143.7930 C   0  0  0  0  0  3  0  0  0  0  0  0
  186.8630  177.3300  145.1710 C   0  0  0  0  0  3  0  0  0  0  0  0
  188.1070  177.9270  143.1700 C   0  0  0  0  0  0  0  0  0  0  0  0
  189.2730  178.0840  143.9430 C   0  0  0  0  0  0  0  0  0  0  0  0
  188.0190  177.4810  145.9390 C   0  0  0  0  0  3  0  0  0  0  0  0
  189.2170  177.8570  145.3280 C   0  0  0  0  0  3  0  0  0  0  0  0
  190.4670  178.4630  143.3210 O   0  0  0  0  0  0  0  0  0  0  0  0
  191.5000  179.1670  143.9990 C   0  0  0  0  0  1  0  0  0  0  0  0
  188.3990  176.9100  140.8830 C   0  0  0  0  0  2  0  0  0  0  0  0
  191.2220  177.0430  140.4920 S   0  0  0  0  0  0  0  0  0  0  0  0
  193.0070  176.6590  138.3210 N   0  0  0  0  0  0  0  0  0  0  0  0
  191.8060  177.0950  138.9210 C   0  0  0  0  0  0  0  0  0  0  0  0
  192.7310  176.3000  136.9750 N   0  0  0  0  0  2  0  0  0  0  0  0
  190.8200  176.9240  138.0550 C   0  0  0  0  0  0  0  0  0  0  0  0
  188.3050  176.6490  137.7860 C   0  0  0  0  0  1  0  0  0  0  0  0
  191.3540  176.4950  136.8580 O   0  0  0  0  0  0  0  0  0  0  0  0
  189.5870  177.0310  139.9790 C   0  0  0  0  0  0  0  0  0  0  0  0
  189.5360  176.9220  138.5800 C   0  0  0  0  0  0  0  0  0  0  0  0
  194.0330  176.0500  139.0580 N   0  0  0  0  0  2  0  0  0  0  0  0
  194.6420  175.0380  138.2090 C   0  0  0  0  0  2  0  0  0  0  0  0
  195.5350  174.1310  139.0390 C   0  0  0  0  0  2  0  0  0  0  0  0
  197.6700  175.2090  138.2300 N   0  0  0  0  0  1  0  0  0  0  0  0
  196.8460  174.7860  139.3120 C   0  0  0  0  0  0  0  0  0  0  0  0
  197.2150  174.9900  140.4970 O   0  0  0  0  0  0  0  0  0  0  0  0
  186.9620  179.0230  141.2010 C   0  0  0  0  0  2  0  0  0  0  0  0
  186.0630  178.2960  140.2030 C   0  0  0  0  0  2  0  0  0  0  0  0
  184.7170  178.9910  140.0470 C   0  0  0  0  0  2  0  0  0  0  0  0
  185.0980  178.0430  137.7750 C   0  0  0  0  0  1  0  0  0  0  0  0
  184.2180  178.9720  138.5990 C   0  0  1  0  0  3  0  0  0  0  0  0
  182.5480  177.8380  137.3910 F   0  0  0  0  0  0  0  0  0  0  0  0
  179.5130  179.7560  140.6620 O   0  0  0  0  0  1  0  0  0  0  0  0
  181.8340  179.0600  140.8050 C   0  0  1  0  0  3  0  0  0  0  0  0
  181.9120  180.0020  137.9990 C   0  0  1  0  0  3  0  0  0  0  0  0
  180.9270  180.6710  138.9750 C   0  0  1  0  0  3  0  0  0  0  0  0
  182.0580  178.0090  139.7020 C   0  0  1  0  0  0  0  0  0  0  0  0
  180.7200  177.3560  139.3390 C   0  0  0  0  0  1  0  0  0  0  0  0
  180.8270  180.1580  140.4170 C   0  0  1  0  0  3  0  0  0  0  0  0
  182.2920  181.2770  138.7410 C   0  0  0  0  0  2  0  0  0  0  0  0
  182.6810  178.7200  138.4520 C   0  0  2  0  0  0  0  0  0  0  0  0
  180.3240  178.2500  142.5290 O   0  0  0  0  0  1  0  0  0  0  0  0
  181.6640  178.5080  142.2350 C   0  0  2  0  0  3  0  0  0  0  0  0
  182.2570  179.4530  143.2700 C   0  0  0  0  0  3  0  0  0  0  0  0
  182.7400  178.6510  144.4630 C   0  0  0  0  0  2  0  0  0  0  0  0
  183.7340  179.1560  143.4360 C   0  0  0  0  0  2  0  0  0  0  0  0
  182.7200  175.6680  139.6170 O   0  0  0  0  0  1  0  0  0  0  0  0
  182.9910  176.8970  140.2230 C   0  0  0  0  0  2  0  0  0  0  0  0
  1 10  1  6  0  0  0
  1  4  1  0  0  0  0
  2  3  1  0  0  0  0
  3  6  2  0  0  0  0
  4  2  2  0  0  0  0
  4  5  1  0  0  0  0
  5  7  2  0  0  0  0
  7  6  1  0  0  0  0
  8  5  1  0  0  0  0
  8  9  1  0  0  0  0
 12 13  1  0  0  0  0
 12 20  1  0  0  0  0
 13 11  1  0  0  0  0
 14 12  1  0  0  0  0
 15 19  1  0  0  0  0
 15 13  2  0  0  0  0
 16 19  1  0  0  0  0
 17 14  1  0  0  0  0
 17 15  1  0  0  0  0
 18 11  1  0  0  0  0
 18 10  1  0  0  0  0
 19 18  2  0  0  0  0
 21 22  1  0  0  0  0
 21 20  1  0  0  0  0
 22 24  1  0  0  0  0
 23 24  1  0  0  0  0
 24 25  2  0  0  0  0
 26  1  1  0  0  0  0
 27 26  1  0  0  0  0
 28 27  1  0  0  0  0
 30 29  1  6  0  0  0
 30 28  1  0  0  0  0
 33 42  1  1  0  0  0
 34 40  1  0  0  0  0
 34 39  1  1  0  0  0
 34 35  1  0  0  0  0
 35 39  1  1  0  0  0
 35 38  1  0  0  0  0
 36 37  1  6  0  0  0
 36 47  1  0  0  0  0
 36 33  1  0  0  0  0
 38 32  1  6  0  0  0
 38 33  1  0  0  0  0
 40 31  1  6  0  0  0
 40 30  1  0  0  0  0
 40 36  1  0  0  0  0
 42 41  1  1  0  0  0
 42 43  1  0  0  0  0
 43 45  1  0  0  0  0
 43 44  1  0  0  0  0
 45 44  1  0  0  0  0
 46 47  1  0  0  0  0
M  END
>  <MODEL>
2

>  <REMARK>
 VINA RESULT:      -6.8      3.240      6.801
  Name = 
  16 active torsions:
  status: ('A' for Active; 'I' for Inactive)
    1  A    between atoms: N_2  and  N_24
    2  A    between atoms: C_7  and  C_37
    3  A    between atoms: C_10  and  C_11
    4  A    between atoms: C_10  and  C_28
    5  A    between atoms: C_11  and  N_24
    6  A    between atoms: C_12  and  C_37
    7  A    between atoms: C_17  and  C_40
    8  A    between atoms: C_20  and  C_44
    9  A    between atoms: C_25  and  C_41
   10  A    between atoms: C_25  and  C_44
   11  A    between atoms: C_26  and  O_27
   12  A    between atoms: C_35  and  C_43
   13  A    between atoms: C_41  and  C_45
   14  A    between atoms: C_43  and  C_44
   15  A    between atoms: C_45  and  C_46
   16  A    between atoms: C_46  and  C_47
                            x       y       z     vdW  Elec       q    Type
                         _______ _______ _______ _____ _____    ______ ____

>  <TORSDO>
F 16

$$$$
=
 OpenBabel11062417043D

 47 52  0  0  1  0  0  0  0  0999 V2000
  186.9800  178.2810  144.1080 C   0  0  1  0  0  3  0  0  0  0  0  0
  186.8200  177.7080  146.5610 C   0  0  0  0  0  3  0  0  0  0  0  0
  187.4120  177.4140  147.7910 C   0  0  0  0  0  3  0  0  0  0  0  0
  187.6160  177.9490  145.4280 C   0  0  0  0  0  0  0  0  0  0  0  0
  189.0170  177.8990  145.5400 C   0  0  0  0  0  0  0  0  0  0  0  0
  188.8020  177.3610  147.9020 C   0  0  0  0  0  3  0  0  0  0  0  0
  189.6010  177.6030  146.7830 C   0  0  0  0  0  3  0  0  0  0  0  0
  189.8080  178.1460  144.4110 O   0  0  0  0  0  0  0  0  0  0  0  0
  190.8700  179.0920  144.4060 C   0  0  0  0  0  1  0  0  0  0  0  0
  187.1010  177.1400  143.0980 C   0  0  0  0  0  2  0  0  0  0  0  0
  189.5290  176.8440  141.6300 S   0  0  0  0  0  0  0  0  0  0  0  0
  190.4080  177.4130  138.9940 N   0  0  0  0  0  0  0  0  0  0  0  0
  189.6880  177.6710  140.1790 C   0  0  0  0  0  0  0  0  0  0  0  0
  189.6950  177.9800  137.9040 N   0  0  0  0  0  2  0  0  0  0  0  0
  188.5490  178.2630  139.8570 C   0  0  0  0  0  0  0  0  0  0  0  0
  186.1720  178.7630  140.6130 C   0  0  0  0  0  1  0  0  0  0  0  0
  188.5480  178.5060  138.5000 O   0  0  0  0  0  0  0  0  0  0  0  0
  187.9750  177.4980  141.9350 C   0  0  0  0  0  0  0  0  0  0  0  0
  187.5520  178.2400  140.8210 C   0  0  0  0  0  0  0  0  0  0  0  0
  191.2200  176.2800  138.8430 N   0  0  0  0  0  2  0  0  0  0  0  0
  192.1520  176.5490  137.7590 C   0  0  0  0  0  2  0  0  0  0  0  0
  192.3710  175.2900  136.9370 C   0  0  0  0  0  2  0  0  0  0  0  0
  194.8460  175.5850  136.5370 N   0  0  0  0  0  1  0  0  0  0  0  0
  193.7760  174.8100  137.0680 C   0  0  0  0  0  0  0  0  0  0  0  0
  194.0210  173.7330  137.6720 O   0  0  0  0  0  0  0  0  0  0  0  0
  185.5620  178.8460  144.2590 C   0  0  0  0  0  2  0  0  0  0  0  0
  184.5390  178.2040  143.3260 C   0  0  0  0  0  2  0  0  0  0  0  0
  183.4280  179.1770  142.9510 C   0  0  0  0  0  2  0  0  0  0  0  0
  181.0650  178.4340  143.2160 C   0  0  0  0  0  1  0  0  0  0  0  0
  182.2520  178.4780  142.2640 C   0  0  1  0  0  3  0  0  0  0  0  0
  183.0390  179.7560  140.4520 F   0  0  0  0  0  0  0  0  0  0  0  0
  178.9320  178.3620  138.2660 O   0  0  0  0  0  1  0  0  0  0  0  0
  180.3450  177.2830  139.9200 C   0  0  1  0  0  3  0  0  0  0  0  0
  180.7580  180.0630  140.8510 C   0  0  1  0  0  3  0  0  0  0  0  0
  179.4220  179.7010  140.1770 C   0  0  1  0  0  3  0  0  0  0  0  0
  181.7540  177.8870  139.7720 C   0  0  1  0  0  0  0  0  0  0  0  0
  181.9250  178.4450  138.3540 C   0  0  0  0  0  1  0  0  0  0  0  0
  179.2110  178.2840  139.6330 C   0  0  1  0  0  3  0  0  0  0  0  0
  179.5470  179.6570  141.6830 C   0  0  0  0  0  2  0  0  0  0  0  0
  181.9250  179.0250  140.8350 C   0  0  2  0  0  0  0  0  0  0  0  0
  179.9740  175.9610  137.9140 O   0  0  0  0  0  1  0  0  0  0  0  0
  180.1440  175.8860  139.2970 C   0  0  2  0  0  3  0  0  0  0  0  0
  178.9690  175.1590  139.9330 C   0  0  0  0  0  3  0  0  0  0  0  0
  179.4700  173.9100  140.6320 C   0  0  0  0  0  2  0  0  0  0  0  0
  179.1370  175.1480  141.4400 C   0  0  0  0  0  2  0  0  0  0  0  0
  183.7680  176.7980  138.9460 O   0  0  0  0  0  1  0  0  0  0  0  0
  182.8170  176.7870  139.9680 C   0  0  0  0  0  2  0  0  0  0  0  0
  1 10  1  6  0  0  0
  1 26  1  0  0  0  0
  1  4  1  0  0  0  0
  2  3  1  0  0  0  0
  3  6  2  0  0  0  0
  4  5  1  0  0  0  0
  4  2  2  0  0  0  0
  5  7  2  0  0  0  0
  7  6  1  0  0  0  0
  8  5  1  0  0  0  0
  9  8  1  0  0  0  0
 11 18  1  0  0  0  0
 12 13  1  0  0  0  0
 13 11  1  0  0  0  0
 14 17  1  0  0  0  0
 14 12  1  0  0  0  0
 15 13  2  0  0  0  0
 15 19  1  0  0  0  0
 16 19  1  0  0  0  0
 17 15  1  0  0  0  0
 18 10  1  0  0  0  0
 19 18  2  0  0  0  0
 20 12  1  0  0  0  0
 21 20  1  0  0  0  0
 22 24  1  0  0  0  0
 22 21  1  0  0  0  0
 23 24  1  0  0  0  0
 24 25  2  0  0  0  0
 27 26  1  0  0  0  0
 28 27  1  0  0  0  0
 30 28  1  0  0  0  0
 30 29  1  1  0  0  0
 33 42  1  6  0  0  0
 34 39  1  1  0  0  0
 35 34  1  0  0  0  0
 35 39  1  1  0  0  0
 36 37  1  6  0  0  0
 36 33  1  0  0  0  0
 36 47  1  0  0  0  0
 36 40  1  0  0  0  0
 38 32  1  6  0  0  0
 38 33  1  0  0  0  0
 38 35  1  0  0  0  0
 40 31  1  6  0  0  0
 40 34  1  0  0  0  0
 40 30  1  0  0  0  0
 42 41  1  6  0  0  0
 42 43  1  0  0  0  0
 43 44  1  0  0  0  0
 43 45  1  0  0  0  0
 44 45  1  0  0  0  0
 46 47  1  0  0  0  0
M  END
>  <MODEL>
3

>  <REMARK>
 VINA RESULT:      -6.4      3.210      7.350
  Name = 
  16 active torsions:
  status: ('A' for Active; 'I' for Inactive)
    1  A    between atoms: N_2  and  N_24
    2  A    between atoms: C_7  and  C_37
    3  A    between atoms: C_10  and  C_11
    4  A    between atoms: C_10  and  C_28
    5  A    between atoms: C_11  and  N_24
    6  A    between atoms: C_12  and  C_37
    7  A    between atoms: C_17  and  C_40
    8  A    between atoms: C_20  and  C_44
    9  A    between atoms: C_25  and  C_41
   10  A    between atoms: C_25  and  C_44
   11  A    between atoms: C_26  and  O_27
   12  A    between atoms: C_35  and  C_43
   13  A    between atoms: C_41  and  C_45
   14  A    between atoms: C_43  and  C_44
   15  A    between atoms: C_45  and  C_46
   16  A    between atoms: C_46  and  C_47
                            x       y       z     vdW  Elec       q    Type
                         _______ _______ _______ _____ _____    ______ ____

>  <TORSDO>
F 16

$$$$
=
 OpenBabel11062417043D

 47 52  0  0  1  0  0  0  0  0999 V2000
  187.7540  176.9610  136.7780 C   0  0  1  0  0  3  0  0  0  0  0  0
  189.3560  175.6360  135.3470 C   0  0  0  0  0  3  0  0  0  0  0  0
  189.8250  174.4250  134.8320 C   0  0  0  0  0  3  0  0  0  0  0  0
  188.2690  175.6580  136.2360 C   0  0  0  0  0  0  0  0  0  0  0  0
  187.6450  174.4500  136.6020 C   0  0  0  0  0  0  0  0  0  0  0  0
  189.2090  173.2270  135.1970 C   0  0  0  0  0  3  0  0  0  0  0  0
  188.1250  173.2390  136.0770 C   0  0  0  0  0  3  0  0  0  0  0  0
  186.5580  174.4750  137.4830 O   0  0  0  0  0  0  0  0  0  0  0  0
  185.4760  173.5560  137.3980 C   0  0  0  0  0  1  0  0  0  0  0  0
  188.8780  177.8790  137.2570 C   0  0  0  0  0  2  0  0  0  0  0  0
  188.0640  178.3850  139.9440 S   0  0  0  0  0  0  0  0  0  0  0  0
  188.6970  177.3420  142.5040 N   0  0  0  0  0  0  0  0  0  0  0  0
  188.9960  177.7580  141.1900 C   0  0  0  0  0  0  0  0  0  0  0  0
  189.5980  176.3040  142.8620 N   0  0  0  0  0  2  0  0  0  0  0  0
  189.9440  176.9710  140.7070 C   0  0  0  0  0  0  0  0  0  0  0  0
  191.0340  176.0770  138.5890 C   0  0  0  0  0  1  0  0  0  0  0  0
  190.3610  176.1190  141.7070 O   0  0  0  0  0  0  0  0  0  0  0  0
  189.1110  177.7730  138.7330 C   0  0  0  0  0  0  0  0  0  0  0  0
  190.0920  176.9660  139.3270 C   0  0  0  0  0  0  0  0  0  0  0  0
  187.4030  177.4200  143.0380 N   0  0  0  0  0  2  0  0  0  0  0  0
  187.4270  176.7780  144.3430 C   0  0  0  0  0  2  0  0  0  0  0  0
  187.6780  177.8120  145.4280 C   0  0  0  0  0  2  0  0  0  0  0  0
  185.2950  178.5690  145.0800 N   0  0  0  0  0  1  0  0  0  0  0  0
  186.3910  178.3430  145.9600 C   0  0  0  0  0  0  0  0  0  0  0  0
  186.2620  178.5670  147.1920 O   0  0  0  0  0  0  0  0  0  0  0  0
  186.7420  177.6330  135.8400 C   0  0  0  0  0  2  0  0  0  0  0  0
  185.2900  177.4750  136.2830 C   0  0  0  0  0  2  0  0  0  0  0  0
  185.1470  177.5800  137.7960 C   0  0  0  0  0  2  0  0  0  0  0  0
  183.3520  176.2830  138.9360 C   0  0  0  0  0  1  0  0  0  0  0  0
  183.6820  177.5960  138.2410 C   0  0  1  0  0  3  0  0  0  0  0  0
  183.7550  179.9470  138.2970 F   0  0  0  0  0  0  0  0  0  0  0  0
  180.9230  179.4920  142.2170 O   0  0  0  0  0  1  0  0  0  0  0  0
  181.1570  178.1460  140.2100 C   0  0  1  0  0  3  0  0  0  0  0  0
  183.9890  178.9850  140.4120 C   0  0  1  0  0  3  0  0  0  0  0  0
  183.1630  178.8550  141.7050 C   0  0  1  0  0  3  0  0  0  0  0  0
  181.7120  179.0690  139.1090 C   0  0  1  0  0  0  0  0  0  0  0  0
  181.3620  180.5250  139.4390 C   0  0  0  0  0  1  0  0  0  0  0  0
  181.6790  178.4810  141.6190 C   0  0  1  0  0  3  0  0  0  0  0  0
  184.0110  177.6980  141.2280 C   0  0  0  0  0  2  0  0  0  0  0  0
  183.2650  178.8790  139.0330 C   0  0  2  0  0  0  0  0  0  0  0  0
  178.9310  178.5830  141.0850 O   0  0  0  0  0  1  0  0  0  0  0  0
  179.6450  177.8470  140.1380 C   0  0  2  0  0  3  0  0  0  0  0  0
  179.3640  176.3610  140.3050 C   0  0  0  0  0  3  0  0  0  0  0  0
  179.0830  175.7470  138.9480 C   0  0  0  0  0  2  0  0  0  0  0  0
  180.4390  175.5610  139.5980 C   0  0  0  0  0  2  0  0  0  0  0  0
  180.8200  179.8720  136.9910 O   0  0  0  0  0  1  0  0  0  0  0  0
  181.0480  178.7280  137.7590 C   0  0  0  0  0  2  0  0  0  0  0  0
  1 26  1  6  0  0  0
  1 10  1  0  0  0  0
  2  4  1  0  0  0  0
  3  6  1  0  0  0  0
  3  2  2  0  0  0  0
  4  5  2  0  0  0  0
  4  1  1  0  0  0  0
  5  8  1  0  0  0  0
  6  7  2  0  0  0  0
  7  5  1  0  0  0  0
  9  8  1  0  0  0  0
 10 18  1  0  0  0  0
 11 13  1  0  0  0  0
 12 14  1  0  0  0  0
 12 20  1  0  0  0  0
 13 12  1  0  0  0  0
 15 13  2  0  0  0  0
 15 17  1  0  0  0  0
 16 19  1  0  0  0  0
 17 14  1  0  0  0  0
 18 19  2  0  0  0  0
 18 11  1  0  0  0  0
 19 15  1  0  0  0  0
 20 21  1  0  0  0  0
 21 22  1  0  0  0  0
 22 24  1  0  0  0  0
 23 24  1  0  0  0  0
 24 25  2  0  0  0  0
 26 27  1  0  0  0  0
 27 28  1  0  0  0  0
 28 30  1  0  0  0  0
 30 29  1  1  0  0  0
 30 40  1  0  0  0  0
 33 42  1  1  0  0  0
 33 38  1  0  0  0  0
 34 39  1  6  0  0  0
 34 35  1  0  0  0  0
 35 39  1  1  0  0  0
 36 37  1  1  0  0  0
 36 33  1  0  0  0  0
 38 35  1  0  0  0  0
 38 32  1  6  0  0  0
 40 31  1  6  0  0  0
 40 36  1  0  0  0  0
 40 34  1  0  0  0  0
 42 43  1  0  0  0  0
 42 41  1  1  0  0  0
 44 45  1  0  0  0  0
 44 43  1  0  0  0  0
 45 43  1  0  0  0  0
 46 47  1  0  0  0  0
 47 36  1  0  0  0  0
M  END
>  <MODEL>
4

>  <REMARK>
 VINA RESULT:      -6.3      1.408      2.550
  Name = 
  16 active torsions:
  status: ('A' for Active; 'I' for Inactive)
    1  A    between atoms: N_2  and  N_24
    2  A    between atoms: C_7  and  C_37
    3  A    between atoms: C_10  and  C_11
    4  A    between atoms: C_10  and  C_28
    5  A    between atoms: C_11  and  N_24
    6  A    between atoms: C_12  and  C_37
    7  A    between atoms: C_17  and  C_40
    8  A    between atoms: C_20  and  C_44
    9  A    between atoms: C_25  and  C_41
   10  A    between atoms: C_25  and  C_44
   11  A    between atoms: C_26  and  O_27
   12  A    between atoms: C_35  and  C_43
   13  A    between atoms: C_41  and  C_45
   14  A    between atoms: C_43  and  C_44
   15  A    between atoms: C_45  and  C_46
   16  A    between atoms: C_46  and  C_47
                            x       y       z     vdW  Elec       q    Type
                         _______ _______ _______ _____ _____    ______ ____

>  <TORSDO>
F 16

$$$$
=
 OpenBabel11062417043D

 47 52  0  0  1  0  0  0  0  0999 V2000
  187.2230  177.2090  137.6540 C   0  0  1  0  0  3  0  0  0  0  0  0
  188.7600  176.8080  135.6930 C   0  0  0  0  0  3  0  0  0  0  0  0
  189.2940  175.9770  134.7050 C   0  0  0  0  0  3  0  0  0  0  0  0
  187.8110  176.3120  136.6010 C   0  0  0  0  0  0  0  0  0  0  0  0
  187.3920  174.9720  136.5090 C   0  0  0  0  0  0  0  0  0  0  0  0
  188.8830  174.6470  134.6140 C   0  0  0  0  0  3  0  0  0  0  0  0
  187.9360  174.1460  135.5100 C   0  0  0  0  0  3  0  0  0  0  0  0
  186.4410  174.4820  137.4110 O   0  0  0  0  0  0  0  0  0  0  0  0
  186.1460  173.0970  137.5440 C   0  0  0  0  0  1  0  0  0  0  0  0
  188.2270  178.2410  138.1680 C   0  0  0  0  0  2  0  0  0  0  0  0
  187.8930  178.3090  141.0000 S   0  0  0  0  0  0  0  0  0  0  0  0
  188.9750  176.9170  143.2220 N   0  0  0  0  0  0  0  0  0  0  0  0
  189.0350  177.5360  141.9550 C   0  0  0  0  0  0  0  0  0  0  0  0
  189.9350  175.8690  143.2540 N   0  0  0  0  0  2  0  0  0  0  0  0
  189.8900  176.8640  141.2010 C   0  0  0  0  0  0  0  0  0  0  0  0
  190.5990  176.3370  138.8150 C   0  0  0  0  0  1  0  0  0  0  0  0
  190.4840  175.8870  141.9710 O   0  0  0  0  0  0  0  0  0  0  0  0
  188.7160  177.9230  139.5470 C   0  0  0  0  0  0  0  0  0  0  0  0
  189.7940  177.0710  139.8320 C   0  0  0  0  0  0  0  0  0  0  0  0
  187.7940  176.8680  143.9760 N   0  0  0  0  0  2  0  0  0  0  0  0
  187.8710  177.9180  144.9800 C   0  0  0  0  0  2  0  0  0  0  0  0
  187.6680  177.3290  146.3660 C   0  0  0  0  0  2  0  0  0  0  0  0
  190.1140  176.8860  146.8080 N   0  0  0  0  0  1  0  0  0  0  0  0
  188.8910  177.5030  147.1990 C   0  0  0  0  0  0  0  0  0  0  0  0
  188.8530  178.2170  148.2350 O   0  0  0  0  0  0  0  0  0  0  0  0
  185.8660  177.7940  137.2420 C   0  0  0  0  0  2  0  0  0  0  0  0
  184.6700  177.0720  137.8570 C   0  0  0  0  0  2  0  0  0  0  0  0
  183.5820  178.0460  138.2880 C   0  0  0  0  0  2  0  0  0  0  0  0
  182.5100  176.9090  136.3480 C   0  0  0  0  0  1  0  0  0  0  0  0
  182.4250  178.1050  137.2860 C   0  0  1  0  0  3  0  0  0  0  0  0
  180.1410  177.5470  137.2040 F   0  0  0  0  0  0  0  0  0  0  0  0
  179.8060  180.2210  141.2450 O   0  0  0  0  0  1  0  0  0  0  0  0
  181.5990  178.8590  140.3360 C   0  0  1  0  0  3  0  0  0  0  0  0
  180.5050  179.7890  137.7470 C   0  0  1  0  0  3  0  0  0  0  0  0
  180.3660  180.7040  138.9780 C   0  0  1  0  0  3  0  0  0  0  0  0
  180.9470  177.8110  139.4150 C   0  0  1  0  0  0  0  0  0  0  0  0
  179.4890  177.5960  139.8380 C   0  0  0  0  0  1  0  0  0  0  0  0
  180.8710  180.2160  140.3410 C   0  0  1  0  0  3  0  0  0  0  0  0
  181.5330  180.8780  138.0330 C   0  0  0  0  0  2  0  0  0  0  0  0
  181.0210  178.3280  137.9380 C   0  0  2  0  0  0  0  0  0  0  0  0
  180.9780  178.4160  142.6440 O   0  0  0  0  0  1  0  0  0  0  0  0
  182.0300  178.3550  141.7290 C   0  0  2  0  0  3  0  0  0  0  0  0
  183.2300  179.1300  142.2530 C   0  0  0  0  0  3  0  0  0  0  0  0
  184.3850  178.1740  142.4790 C   0  0  0  0  0  2  0  0  0  0  0  0
  184.3590  179.0540  141.2450 C   0  0  0  0  0  2  0  0  0  0  0  0
  180.9000  175.3990  139.0930 O   0  0  0  0  0  1  0  0  0  0  0  0
  181.6770  176.4610  139.5620 C   0  0  0  0  0  2  0  0  0  0  0  0
  1 26  1  6  0  0  0
  1 10  1  0  0  0  0
  2  4  1  0  0  0  0
  3  2  2  0  0  0  0
  4  1  1  0  0  0  0
  5  4  2  0  0  0  0
  5  8  1  0  0  0  0
  6  3  1  0  0  0  0
  6  7  2  0  0  0  0
  7  5  1  0  0  0  0
  8  9  1  0  0  0  0
 10 18  1  0  0  0  0
 11 13  1  0  0  0  0
 12 14  1  0  0  0  0
 12 20  1  0  0  0  0
 13 12  1  0  0  0  0
 15 13  2  0  0  0  0
 15 17  1  0  0  0  0
 16 19  1  0  0  0  0
 17 14  1  0  0  0  0
 18 19  2  0  0  0  0
 18 11  1  0  0  0  0
 19 15  1  0  0  0  0
 20 21  1  0  0  0  0
 21 22  1  0  0  0  0
 22 24  1  0  0  0  0
 23 24  1  0  0  0  0
 24 25  2  0  0  0  0
 26 27  1  0  0  0  0
 27 28  1  0  0  0  0
 30 29  1  1  0  0  0
 30 40  1  0  0  0  0
 30 28  1  0  0  0  0
 33 38  1  0  0  0  0
 33 42  1  1  0  0  0
 34 40  1  0  0  0  0
 34 39  1  6  0  0  0
 34 35  1  0  0  0  0
 35 39  1  6  0  0  0
 35 38  1  0  0  0  0
 36 47  1  0  0  0  0
 36 37  1  1  0  0  0
 36 33  1  0  0  0  0
 38 32  1  1  0  0  0
 40 31  1  6  0  0  0
 40 36  1  0  0  0  0
 42 43  1  0  0  0  0
 42 41  1  1  0  0  0
 43 44  1  0  0  0  0
 45 43  1  0  0  0  0
 45 44  1  0  0  0  0
 46 47  1  0  0  0  0
M  END
>  <MODEL>
5

>  <REMARK>
 VINA RESULT:      -6.3      1.605      2.823
  Name = 
  16 active torsions:
  status: ('A' for Active; 'I' for Inactive)
    1  A    between atoms: N_2  and  N_24
    2  A    between atoms: C_7  and  C_37
    3  A    between atoms: C_10  and  C_11
    4  A    between atoms: C_10  and  C_28
    5  A    between atoms: C_11  and  N_24
    6  A    between atoms: C_12  and  C_37
    7  A    between atoms: C_17  and  C_40
    8  A    between atoms: C_20  and  C_44
    9  A    between atoms: C_25  and  C_41
   10  A    between atoms: C_25  and  C_44
   11  A    between atoms: C_26  and  O_27
   12  A    between atoms: C_35  and  C_43
   13  A    between atoms: C_41  and  C_45
   14  A    between atoms: C_43  and  C_44
   15  A    between atoms: C_45  and  C_46
   16  A    between atoms: C_46  and  C_47
                            x       y       z     vdW  Elec       q    Type
                         _______ _______ _______ _____ _____    ______ ____

>  <TORSDO>
F 16

$$$$
=
 OpenBabel11062417043D

 47 52  0  0  1  0  0  0  0  0999 V2000
  188.1980  178.2670  142.1030 C   0  0  1  0  0  3  0  0  0  0  0  0
  186.8820  177.7730  144.2000 C   0  0  0  0  0  3  0  0  0  0  0  0
  186.8150  177.4910  145.5660 C   0  0  0  0  0  3  0  0  0  0  0  0
  188.1250  177.9470  143.5700 C   0  0  0  0  0  0  0  0  0  0  0  0
  189.3090  177.8430  144.3240 C   0  0  0  0  0  0  0  0  0  0  0  0
  187.9880  177.3840  146.3150 C   0  0  0  0  0  3  0  0  0  0  0  0
  189.2290  177.5600  145.6980 C   0  0  0  0  0  3  0  0  0  0  0  0
  190.5460  178.0230  143.6950 O   0  0  0  0  0  0  0  0  0  0  0  0
  191.3980  179.1270  143.9730 C   0  0  0  0  0  1  0  0  0  0  0  0
  188.2970  177.0110  141.2360 C   0  0  0  0  0  2  0  0  0  0  0  0
  191.0180  177.0440  140.3800 S   0  0  0  0  0  0  0  0  0  0  0  0
  192.3900  176.7450  137.9160 N   0  0  0  0  0  0  0  0  0  0  0  0
  191.3340  177.1890  138.7390 C   0  0  0  0  0  0  0  0  0  0  0  0
  191.8740  176.5030  136.6150 N   0  0  0  0  0  2  0  0  0  0  0  0
  190.2090  177.1300  138.0440 C   0  0  0  0  0  0  0  0  0  0  0  0
  187.6730  176.9900  138.1900 C   0  0  0  0  0  1  0  0  0  0  0  0
  190.5100  176.7680  136.7480 O   0  0  0  0  0  0  0  0  0  0  0  0
  189.3220  177.1460  140.1530 C   0  0  0  0  0  0  0  0  0  0  0  0
  189.0330  177.1470  138.7790 C   0  0  0  0  0  0  0  0  0  0  0  0
  193.4880  176.0370  138.4240 N   0  0  0  0  0  2  0  0  0  0  0  0
  193.6290  174.8220  137.6370 C   0  0  0  0  0  2  0  0  0  0  0  0
  194.9390  174.1300  137.9760 C   0  0  0  0  0  2  0  0  0  0  0  0
  196.3070  175.6180  136.4640 N   0  0  0  0  0  1  0  0  0  0  0  0
  195.9310  174.3080  136.8790 C   0  0  0  0  0  0  0  0  0  0  0  0
  196.4590  173.3030  136.3360 O   0  0  0  0  0  0  0  0  0  0  0  0
  187.1150  179.2600  141.6600 C   0  0  0  0  0  2  0  0  0  0  0  0
  185.9920  178.6250  140.8430 C   0  0  0  0  0  2  0  0  0  0  0  0
  184.6300  178.8480  141.4860 C   0  0  0  0  0  2  0  0  0  0  0  0
  184.1760  179.3300  139.0850 C   0  0  0  0  0  1  0  0  0  0  0  0
  183.5360  179.1210  140.4500 C   0  0  1  0  0  3  0  0  0  0  0  0
  182.1320  177.8110  141.8100 F   0  0  0  0  0  0  0  0  0  0  0  0
  179.9310  176.6480  137.6390 O   0  0  0  0  0  1  0  0  0  0  0  0
  181.0870  178.6550  138.3670 C   0  0  1  0  0  3  0  0  0  0  0  0
  182.7650  176.7160  139.8460 C   0  0  1  0  0  3  0  0  0  0  0  0
  182.1120  176.2700  138.5250 C   0  0  1  0  0  3  0  0  0  0  0  0
  181.0240  178.6790  139.9060 C   0  0  1  0  0  0  0  0  0  0  0  0
  179.8250  177.8500  140.3810 C   0  0  0  0  0  1  0  0  0  0  0  0
  181.1900  177.2380  137.7750 C   0  0  1  0  0  3  0  0  0  0  0  0
  183.5250  176.8080  138.5280 C   0  0  0  0  0  2  0  0  0  0  0  0
  182.3600  178.0890  140.4710 C   0  0  2  0  0  0  0  0  0  0  0  0
  179.0930  178.8620  136.9910 O   0  0  0  0  0  1  0  0  0  0  0  0
  180.0960  179.5860  137.6390 C   0  0  2  0  0  3  0  0  0  0  0  0
  180.8110  180.4940  136.6490 C   0  0  0  0  0  3  0  0  0  0  0  0
  179.8940  181.6390  136.2650 C   0  0  0  0  0  2  0  0  0  0  0  0
  181.0050  181.8630  137.2710 C   0  0  0  0  0  2  0  0  0  0  0  0
  180.1260  180.1640  141.6130 O   0  0  0  0  0  1  0  0  0  0  0  0
  180.8100  180.1260  140.3960 C   0  0  0  0  0  2  0  0  0  0  0  0
  1 10  1  6  0  0  0
  1  4  1  0  0  0  0
  2  3  1  0  0  0  0
  3  6  2  0  0  0  0
  4  2  2  0  0  0  0
  4  5  1  0  0  0  0
  5  7  2  0  0  0  0
  7  6  1  0  0  0  0
  8  9  1  0  0  0  0
  8  5  1  0  0  0  0
 12 20  1  0  0  0  0
 12 13  1  0  0  0  0
 13 11  1  0  0  0  0
 14 17  1  0  0  0  0
 14 12  1  0  0  0  0
 15 13  2  0  0  0  0
 15 19  1  0  0  0  0
 16 19  1  0  0  0  0
 17 15  1  0  0  0  0
 18 11  1  0  0  0  0
 18 10  1  0  0  0  0
 19 18  2  0  0  0  0
 21 22  1  0  0  0  0
 21 20  1  0  0  0  0
 23 24  1  0  0  0  0
 24 22  1  0  0  0  0
 25 24  2  0  0  0  0
 26  1  1  0  0  0  0
 27 28  1  0  0  0  0
 27 26  1  0  0  0  0
 30 29  1  6  0  0  0
 30 40  1  0  0  0  0
 30 28  1  0  0  0  0
 33 42  1  6  0  0  0
 33 36  1  0  0  0  0
 34 39  1  6  0  0  0
 34 40  1  0  0  0  0
 35 39  1  6  0  0  0
 35 34  1  0  0  0  0
 36 37  1  1  0  0  0
 36 47  1  0  0  0  0
 36 40  1  0  0  0  0
 38 32  1  1  0  0  0
 38 33  1  0  0  0  0
 38 35  1  0  0  0  0
 40 31  1  1  0  0  0
 42 41  1  6  0  0  0
 43 45  1  0  0  0  0
 43 42  1  0  0  0  0
 44 43  1  0  0  0  0
 44 45  1  0  0  0  0
 47 46  1  0  0  0  0
M  END
>  <MODEL>
6

>  <REMARK>
 VINA RESULT:      -6.1      3.208      6.759
  Name = 
  16 active torsions:
  status: ('A' for Active; 'I' for Inactive)
    1  A    between atoms: N_2  and  N_24
    2  A    between atoms: C_7  and  C_37
    3  A    between atoms: C_10  and  C_11
    4  A    between atoms: C_10  and  C_28
    5  A    between atoms: C_11  and  N_24
    6  A    between atoms: C_12  and  C_37
    7  A    between atoms: C_17  and  C_40
    8  A    between atoms: C_20  and  C_44
    9  A    between atoms: C_25  and  C_41
   10  A    between atoms: C_25  and  C_44
   11  A    between atoms: C_26  and  O_27
   12  A    between atoms: C_35  and  C_43
   13  A    between atoms: C_41  and  C_45
   14  A    between atoms: C_43  and  C_44
   15  A    between atoms: C_45  and  C_46
   16  A    between atoms: C_46  and  C_47
                            x       y       z     vdW  Elec       q    Type
                         _______ _______ _______ _____ _____    ______ ____

>  <TORSDO>
F 16

$$$$
=
 OpenBabel11062417043D

 47 52  0  0  1  0  0  0  0  0999 V2000
  185.2260  178.8180  141.7930 C   0  0  1  0  0  3  0  0  0  0  0  0
  182.7080  178.6670  141.8910 C   0  0  0  0  0  3  0  0  0  0  0  0
  181.5110  178.6210  142.6080 C   0  0  0  0  0  3  0  0  0  0  0  0
  183.9380  178.7520  142.5640 C   0  0  0  0  0  0  0  0  0  0  0  0
  183.9600  178.7980  143.9710 C   0  0  0  0  0  0  0  0  0  0  0  0
  181.5310  178.6630  144.0030 C   0  0  0  0  0  3  0  0  0  0  0  0
  182.7490  178.7520  144.6810 C   0  0  0  0  0  3  0  0  0  0  0  0
  185.1860  178.8900  144.6390 O   0  0  0  0  0  0  0  0  0  0  0  0
  185.2860  179.0330  146.0500 C   0  0  0  0  0  1  0  0  0  0  0  0
  185.9990  177.4990  141.8340 C   0  0  0  0  0  2  0  0  0  0  0  0
  188.0220  177.4170  143.8430 S   0  0  0  0  0  0  0  0  0  0  0  0
  190.8570  177.3220  143.8900 N   0  0  0  0  0  0  0  0  0  0  0  0
  189.6050  177.7430  143.3930 C   0  0  0  0  0  0  0  0  0  0  0  0
  191.7800  177.2900  142.8100 N   0  0  0  0  0  2  0  0  0  0  0  0
  189.6960  177.8650  142.0780 C   0  0  0  0  0  0  0  0  0  0  0  0
  188.3930  177.9180  139.8940 C   0  0  0  0  0  1  0  0  0  0  0  0
  191.0050  177.6480  141.7050 O   0  0  0  0  0  0  0  0  0  0  0  0
  187.4220  177.6860  142.2610 C   0  0  0  0  0  0  0  0  0  0  0  0
  188.4970  177.8850  141.3800 C   0  0  0  0  0  0  0  0  0  0  0  0
  190.9740  176.4660  144.9940 N   0  0  0  0  0  2  0  0  0  0  0  0
  191.0320  177.2960  146.1880 C   0  0  0  0  0  2  0  0  0  0  0  0
  190.3120  176.6090  147.3350 C   0  0  0  0  0  2  0  0  0  0  0  0
  187.8540  177.1720  147.4470 N   0  0  0  0  0  1  0  0  0  0  0  0
  189.1930  177.4540  147.8400 C   0  0  0  0  0  0  0  0  0  0  0  0
  189.4270  178.4000  148.6360 O   0  0  0  0  0  0  0  0  0  0  0  0
  185.0440  179.4030  140.3860 C   0  0  0  0  0  2  0  0  0  0  0  0
  184.9860  178.3490  139.2830 C   0  0  0  0  0  2  0  0  0  0  0  0
  183.8250  178.5950  138.3280 C   0  0  0  0  0  2  0  0  0  0  0  0
  184.3440  176.1880  137.9530 C   0  0  0  0  0  1  0  0  0  0  0  0
  183.5030  177.3640  137.4760 C   0  0  1  0  0  3  0  0  0  0  0  0
  181.4150  178.2120  136.8010 F   0  0  0  0  0  0  0  0  0  0  0  0
  179.7820  173.7500  137.8090 O   0  0  0  0  0  1  0  0  0  0  0  0
  181.9300  174.5590  137.0150 C   0  0  1  0  0  3  0  0  0  0  0  0
  181.2750  176.8890  138.7200 C   0  0  1  0  0  3  0  0  0  0  0  0
  180.7250  175.5060  139.1170 C   0  0  1  0  0  3  0  0  0  0  0  0
  181.6740  175.9080  136.3180 C   0  0  1  0  0  0  0  0  0  0  0  0
  180.2170  175.9720  135.8470 C   0  0  0  0  0  1  0  0  0  0  0  0
  181.0010  174.2970  138.2150 C   0  0  1  0  0  3  0  0  0  0  0  0
  182.0210  176.0060  139.7130 C   0  0  0  0  0  2  0  0  0  0  0  0
  181.9750  177.0620  137.3350 C   0  0  2  0  0  0  0  0  0  0  0  0
  180.9280  172.9430  135.4990 O   0  0  0  0  0  1  0  0  0  0  0  0
  182.1310  173.3470  136.0820 C   0  0  2  0  0  3  0  0  0  0  0  0
  182.7780  172.1820  136.8150 C   0  0  0  0  0  3  0  0  0  0  0  0
  183.9620  171.6800  136.0130 C   0  0  0  0  0  2  0  0  0  0  0  0
  184.1870  172.5630  137.2230 C   0  0  0  0  0  2  0  0  0  0  0  0
  182.6230  177.3410  134.5940 O   0  0  0  0  0  1  0  0  0  0  0  0
  182.5710  176.0280  135.0690 C   0  0  0  0  0  2  0  0  0  0  0  0
  1 26  1  6  0  0  0
  1 10  1  0  0  0  0
  1  4  1  0  0  0  0
  2  4  2  0  0  0  0
  2  3  1  0  0  0  0
  3  6  2  0  0  0  0
  4  5  1  0  0  0  0
  5  8  1  0  0  0  0
  5  7  2  0  0  0  0
  6  7  1  0  0  0  0
  8  9  1  0  0  0  0
 10 18  1  0  0  0  0
 12 20  1  0  0  0  0
 13 11  1  0  0  0  0
 13 12  1  0  0  0  0
 14 12  1  0  0  0  0
 15 13  2  0  0  0  0
 16 19  1  0  0  0  0
 17 15  1  0  0  0  0
 17 14  1  0  0  0  0
 18 11  1  0  0  0  0
 19 15  1  0  0  0  0
 19 18  2  0  0  0  0
 20 21  1  0  0  0  0
 21 22  1  0  0  0  0
 22 24  1  0  0  0  0
 23 24  1  0  0  0  0
 24 25  2  0  0  0  0
 27 26  1  0  0  0  0
 28 27  1  0  0  0  0
 30 29  1  1  0  0  0
 30 28  1  0  0  0  0
 33 42  1  6  0  0  0
 33 38  1  0  0  0  0
 34 35  1  0  0  0  0
 34 39  1  1  0  0  0
 35 39  1  1  0  0  0
 36 37  1  6  0  0  0
 36 33  1  0  0  0  0
 36 40  1  0  0  0  0
 38 32  1  6  0  0  0
 38 35  1  0  0  0  0
 40 31  1  6  0  0  0
 40 30  1  0  0  0  0
 40 34  1  0  0  0  0
 42 41  1  1  0  0  0
 42 43  1  0  0  0  0
 43 45  1  0  0  0  0
 44 43  1  0  0  0  0
 44 45  1  0  0  0  0
 46 47  1  0  0  0  0
 47 36  1  0  0  0  0
M  END
>  <MODEL>
7

>  <REMARK>
 VINA RESULT:      -6.1      3.424      6.259
  Name = 
  16 active torsions:
  status: ('A' for Active; 'I' for Inactive)
    1  A    between atoms: N_2  and  N_24
    2  A    between atoms: C_7  and  C_37
    3  A    between atoms: C_10  and  C_11
    4  A    between atoms: C_10  and  C_28
    5  A    between atoms: C_11  and  N_24
    6  A    between atoms: C_12  and  C_37
    7  A    between atoms: C_17  and  C_40
    8  A    between atoms: C_20  and  C_44
    9  A    between atoms: C_25  and  C_41
   10  A    between atoms: C_25  and  C_44
   11  A    between atoms: C_26  and  O_27
   12  A    between atoms: C_35  and  C_43
   13  A    between atoms: C_41  and  C_45
   14  A    between atoms: C_43  and  C_44
   15  A    between atoms: C_45  and  C_46
   16  A    between atoms: C_46  and  C_47
                            x       y       z     vdW  Elec       q    Type
                         _______ _______ _______ _____ _____    ______ ____

>  <TORSDO>
F 16

$$$$
=
 OpenBabel11062417043D

 47 52  0  0  1  0  0  0  0  0999 V2000
  187.0070  178.3990  143.1790 C   0  0  1  0  0  3  0  0  0  0  0  0
  185.9290  178.2590  145.4570 C   0  0  0  0  0  3  0  0  0  0  0  0
  186.0030  178.0610  146.8370 C   0  0  0  0  0  3  0  0  0  0  0  0
  187.0840  178.1700  144.6620 C   0  0  0  0  0  0  0  0  0  0  0  0
  188.3230  177.8850  145.2650 C   0  0  0  0  0  0  0  0  0  0  0  0
  187.2310  177.7750  147.4360 C   0  0  0  0  0  3  0  0  0  0  0  0
  188.3850  177.6890  146.6550 C   0  0  0  0  0  3  0  0  0  0  0  0
  189.4730  177.8030  144.4720 O   0  0  0  0  0  0  0  0  0  0  0  0
  190.7380  177.4060  144.9880 C   0  0  0  0  0  1  0  0  0  0  0  0
  187.3380  177.1410  142.3760 C   0  0  0  0  0  2  0  0  0  0  0  0
  189.9560  176.8850  141.2730 S   0  0  0  0  0  0  0  0  0  0  0  0
  191.1250  177.1310  138.7000 N   0  0  0  0  0  0  0  0  0  0  0  0
  190.2340  177.4900  139.7330 C   0  0  0  0  0  0  0  0  0  0  0  0
  190.5170  177.4420  137.4550 N   0  0  0  0  0  2  0  0  0  0  0  0
  189.1010  177.8980  139.1850 C   0  0  0  0  0  0  0  0  0  0  0  0
  186.6100  178.2510  139.5640 C   0  0  0  0  0  1  0  0  0  0  0  0
  189.2590  177.9280  137.8160 O   0  0  0  0  0  0  0  0  0  0  0  0
  188.3240  177.4070  141.2800 C   0  0  0  0  0  0  0  0  0  0  0  0
  187.9900  177.9180  140.0170 C   0  0  0  0  0  0  0  0  0  0  0  0
  192.0460  176.0820  138.8370 N   0  0  0  0  0  2  0  0  0  0  0  0
  192.9520  176.1430  137.7000 C   0  0  0  0  0  2  0  0  0  0  0  0
  193.4050  174.7430  137.3200 C   0  0  0  0  0  2  0  0  0  0  0  0
  194.9200  172.9930  138.3270 N   0  0  0  0  0  1  0  0  0  0  0  0
  194.6370  174.3640  138.0690 C   0  0  0  0  0  0  0  0  0  0  0  0
  195.4420  175.2530  138.4500 O   0  0  0  0  0  0  0  0  0  0  0  0
  185.7100  179.0990  142.7550 C   0  0  0  0  0  2  0  0  0  0  0  0
  184.5660  178.1390  142.4360 C   0  0  0  0  0  2  0  0  0  0  0  0
  183.5840  178.7420  141.4410 C   0  0  0  0  0  2  0  0  0  0  0  0
  181.9390  179.0000  143.2940 C   0  0  0  0  0  1  0  0  0  0  0  0
  182.1270  178.5260  141.8600 C   0  0  1  0  0  3  0  0  0  0  0  0
  180.7980  180.3740  141.2650 F   0  0  0  0  0  0  0  0  0  0  0  0
  179.5890  177.6880  137.4030 O   0  0  0  0  0  1  0  0  0  0  0  0
  181.6170  177.8100  138.7320 C   0  0  1  0  0  3  0  0  0  0  0  0
  179.7090  178.3340  140.9350 C   0  0  1  0  0  3  0  0  0  0  0  0
  179.2490  177.4630  139.7510 C   0  0  1  0  0  3  0  0  0  0  0  0
  181.6430  179.2040  139.3880 C   0  0  1  0  0  0  0  0  0  0  0  0
  180.7950  180.1740  138.5590 C   0  0  0  0  0  1  0  0  0  0  0  0
  180.2000  177.2300  138.5720 C   0  0  1  0  0  3  0  0  0  0  0  0
  179.8100  176.8150  140.9970 C   0  0  0  0  0  2  0  0  0  0  0  0
  181.0760  179.0830  140.8430 C   0  0  2  0  0  0  0  0  0  0  0  0
  181.9900  178.2370  136.3680 O   0  0  0  0  0  1  0  0  0  0  0  0
  182.5300  177.6280  137.5020 C   0  0  2  0  0  3  0  0  0  0  0  0
  182.8070  176.1570  137.2290 C   0  0  0  0  0  3  0  0  0  0  0  0
  184.3020  175.9100  137.2800 C   0  0  0  0  0  2  0  0  0  0  0  0
  183.4290  175.5240  138.4570 C   0  0  0  0  0  2  0  0  0  0  0  0
  183.1910  180.9590  138.7190 O   0  0  0  0  0  1  0  0  0  0  0  0
  183.0870  179.7450  139.4030 C   0  0  0  0  0  2  0  0  0  0  0  0
  1 10  1  6  0  0  0
  1  4  1  0  0  0  0
  2  3  1  0  0  0  0
  3  6  2  0  0  0  0
  4  5  1  0  0  0  0
  4  2  2  0  0  0  0
  5  7  2  0  0  0  0
  7  6  1  0  0  0  0
  8  9  1  0  0  0  0
  8  5  1  0  0  0  0
 11 18  1  0  0  0  0
 12 20  1  0  0  0  0
 12 13  1  0  0  0  0
 13 11  1  0  0  0  0
 14 17  1  0  0  0  0
 14 12  1  0  0  0  0
 15 13  2  0  0  0  0
 15 19  1  0  0  0  0
 16 19  1  0  0  0  0
 17 15  1  0  0  0  0
 18 10  1  0  0  0  0
 19 18  2  0  0  0  0
 21 20  1  0  0  0  0
 22 21  1  0  0  0  0
 22 24  1  0  0  0  0
 24 23  1  0  0  0  0
 24 25  2  0  0  0  0
 26  1  1  0  0  0  0
 27 26  1  0  0  0  0
 28 30  1  0  0  0  0
 28 27  1  0  0  0  0
 30 29  1  1  0  0  0
 33 42  1  6  0  0  0
 33 36  1  0  0  0  0
 34 39  1  1  0  0  0
 35 34  1  0  0  0  0
 35 39  1  1  0  0  0
 36 37  1  6  0  0  0
 36 47  1  0  0  0  0
 36 40  1  0  0  0  0
 38 32  1  6  0  0  0
 38 33  1  0  0  0  0
 38 35  1  0  0  0  0
 40 34  1  0  0  0  0
 40 31  1  1  0  0  0
 40 30  1  0  0  0  0
 42 41  1  6  0  0  0
 43 44  1  0  0  0  0
 43 42  1  0  0  0  0
 43 45  1  0  0  0  0
 44 45  1  0  0  0  0
 46 47  1  0  0  0  0
M  END
>  <MODEL>
8

>  <REMARK>
 VINA RESULT:      -6.1      3.085      7.024
  Name = 
  16 active torsions:
  status: ('A' for Active; 'I' for Inactive)
    1  A    between atoms: N_2  and  N_24
    2  A    between atoms: C_7  and  C_37
    3  A    between atoms: C_10  and  C_11
    4  A    between atoms: C_10  and  C_28
    5  A    between atoms: C_11  and  N_24
    6  A    between atoms: C_12  and  C_37
    7  A    between atoms: C_17  and  C_40
    8  A    between atoms: C_20  and  C_44
    9  A    between atoms: C_25  and  C_41
   10  A    between atoms: C_25  and  C_44
   11  A    between atoms: C_26  and  O_27
   12  A    between atoms: C_35  and  C_43
   13  A    between atoms: C_41  and  C_45
   14  A    between atoms: C_43  and  C_44
   15  A    between atoms: C_45  and  C_46
   16  A    between atoms: C_46  and  C_47
                            x       y       z     vdW  Elec       q    Type
                         _______ _______ _______ _____ _____    ______ ____

>  <TORSDO>
F 16

$$$$
=
 OpenBabel11062417043D

 47 52  0  0  1  0  0  0  0  0999 V2000
  188.1150  176.7670  137.8410 C   0  0  1  0  0  3  0  0  0  0  0  0
  189.5440  177.4140  135.8630 C   0  0  0  0  0  3  0  0  0  0  0  0
  190.3970  177.0830  134.8080 C   0  0  0  0  0  3  0  0  0  0  0  0
  189.0470  176.4140  136.7160 C   0  0  0  0  0  0  0  0  0  0  0  0
  189.4070  175.0720  136.4980 C   0  0  0  0  0  0  0  0  0  0  0  0
  190.7580  175.7520  134.5940 C   0  0  0  0  0  3  0  0  0  0  0  0
  190.2660  174.7510  135.4340 C   0  0  0  0  0  3  0  0  0  0  0  0
  188.9050  174.0770  137.3460 O   0  0  0  0  0  0  0  0  0  0  0  0
  188.2320  172.9210  136.8630 C   0  0  0  0  0  1  0  0  0  0  0  0
  188.4890  178.0870  138.5160 C   0  0  0  0  0  2  0  0  0  0  0  0
  187.7420  178.1760  141.2680 S   0  0  0  0  0  0  0  0  0  0  0  0
  188.7300  177.0850  143.6930 N   0  0  0  0  0  0  0  0  0  0  0  0
  188.8570  177.6640  142.4130 C   0  0  0  0  0  0  0  0  0  0  0  0
  189.8510  176.2410  143.9160 N   0  0  0  0  0  2  0  0  0  0  0  0
  189.9210  177.1460  141.8220 C   0  0  0  0  0  0  0  0  0  0  0  0
  191.0530  176.6910  139.5890 C   0  0  0  0  0  1  0  0  0  0  0  0
  190.5680  176.3240  142.7210 O   0  0  0  0  0  0  0  0  0  0  0  0
  188.8240  177.9100  139.9660 C   0  0  0  0  0  0  0  0  0  0  0  0
  189.9880  177.2880  140.4440 C   0  0  0  0  0  0  0  0  0  0  0  0
  187.4820  176.8350  144.2810 N   0  0  0  0  0  2  0  0  0  0  0  0
  187.3920  177.6490  145.4830 C   0  0  0  0  0  2  0  0  0  0  0  0
  186.4030  178.7830  145.2710 C   0  0  0  0  0  2  0  0  0  0  0  0
  184.4140  178.0320  146.6330 N   0  0  0  0  0  1  0  0  0  0  0  0
  185.5050  178.9290  146.4520 C   0  0  0  0  0  0  0  0  0  0  0  0
  185.7260  179.8280  147.3050 O   0  0  0  0  0  0  0  0  0  0  0  0
  186.6380  176.6550  137.4430 C   0  0  0  0  0  2  0  0  0  0  0  0
  185.8080  177.8860  137.7990 C   0  0  0  0  0  2  0  0  0  0  0  0
  184.3410  177.7020  137.4330 C   0  0  0  0  0  2  0  0  0  0  0  0
  184.0260  178.8580  139.6160 C   0  0  0  0  0  1  0  0  0  0  0  0
  183.4160  177.8590  138.6430 C   0  0  1  0  0  3  0  0  0  0  0  0
  181.6650  177.3620  137.1520 F   0  0  0  0  0  0  0  0  0  0  0  0
  178.9680  180.1100  140.1110 O   0  0  0  0  0  1  0  0  0  0  0  0
  180.8920  178.6860  140.5140 C   0  0  1  0  0  3  0  0  0  0  0  0
  181.6810  179.6020  137.8120 C   0  0  1  0  0  3  0  0  0  0  0  0
  180.8330  180.5400  138.6910 C   0  0  1  0  0  3  0  0  0  0  0  0
  180.9240  177.6410  139.3830 C   0  0  1  0  0  0  0  0  0  0  0  0
  179.5150  177.4720  138.8040 C   0  0  0  0  0  1  0  0  0  0  0  0
  180.3630  180.0620  140.0690 C   0  0  1  0  0  3  0  0  0  0  0  0
  182.3400  180.6670  138.6810 C   0  0  0  0  0  2  0  0  0  0  0  0
  181.9190  178.1310  138.2770 C   0  0  2  0  0  0  0  0  0  0  0  0
  179.0130  177.7850  141.7670 O   0  0  0  0  0  1  0  0  0  0  0  0
  180.3440  178.1940  141.8700 C   0  0  2  0  0  3  0  0  0  0  0  0
  180.4860  179.2590  142.9460 C   0  0  0  0  0  3  0  0  0  0  0  0
  179.6360  178.8800  144.1430 C   0  0  0  0  0  2  0  0  0  0  0  0
  181.1340  178.6520  144.1750 C   0  0  0  0  0  2  0  0  0  0  0  0
  180.3620  175.3090  139.7970 O   0  0  0  0  0  1  0  0  0  0  0  0
  181.3600  176.2740  139.9490 C   0  0  0  0  0  2  0  0  0  0  0  0
  1 26  1  6  0  0  0
  1 10  1  0  0  0  0
  2  4  1  0  0  0  0
  3  2  2  0  0  0  0
  4  1  1  0  0  0  0
  5  4  2  0  0  0  0
  5  8  1  0  0  0  0
  6  3  1  0  0  0  0
  6  7  2  0  0  0  0
  7  5  1  0  0  0  0
  9  8  1  0  0  0  0
 10 18  1  0  0  0  0
 11 13  1  0  0  0  0
 12 14  1  0  0  0  0
 12 20  1  0  0  0  0
 13 12  1  0  0  0  0
 15 13  2  0  0  0  0
 15 17  1  0  0  0  0
 16 19  1  0  0  0  0
 17 14  1  0  0  0  0
 18 19  2  0  0  0  0
 18 11  1  0  0  0  0
 19 15  1  0  0  0  0
 20 21  1  0  0  0  0
 22 21  1  0  0  0  0
 22 24  1  0  0  0  0
 24 23  1  0  0  0  0
 24 25  2  0  0  0  0
 26 27  1  0  0  0  0
 28 27  1  0  0  0  0
 28 30  1  0  0  0  0
 30 29  1  1  0  0  0
 33 42  1  1  0  0  0
 34 40  1  0  0  0  0
 34 39  1  1  0  0  0
 34 35  1  0  0  0  0
 35 39  1  1  0  0  0
 35 38  1  0  0  0  0
 36 37  1  6  0  0  0
 36 47  1  0  0  0  0
 36 33  1  0  0  0  0
 38 32  1  6  0  0  0
 38 33  1  0  0  0  0
 40 31  1  6  0  0  0
 40 30  1  0  0  0  0
 40 36  1  0  0  0  0
 42 41  1  6  0  0  0
 42 43  1  0  0  0  0
 43 44  1  0  0  0  0
 43 45  1  0  0  0  0
 44 45  1  0  0  0  0
 46 47  1  0  0  0  0
M  END
>  <MODEL>
9

>  <REMARK>
 VINA RESULT:      -5.9      1.558      2.857
  Name = 
  16 active torsions:
  status: ('A' for Active; 'I' for Inactive)
    1  A    between atoms: N_2  and  N_24
    2  A    between atoms: C_7  and  C_37
    3  A    between atoms: C_10  and  C_11
    4  A    between atoms: C_10  and  C_28
    5  A    between atoms: C_11  and  N_24
    6  A    between atoms: C_12  and  C_37
    7  A    between atoms: C_17  and  C_40
    8  A    between atoms: C_20  and  C_44
    9  A    between atoms: C_25  and  C_41
   10  A    between atoms: C_25  and  C_44
   11  A    between atoms: C_26  and  O_27
   12  A    between atoms: C_35  and  C_43
   13  A    between atoms: C_41  and  C_45
   14  A    between atoms: C_43  and  C_44
   15  A    between atoms: C_45  and  C_46
   16  A    between atoms: C_46  and  C_47
                            x       y       z     vdW  Elec       q    Type
                         _______ _______ _______ _____ _____    ______ ____

>  <TORSDO>
F 16

$$$$
