=
 OpenBabel11062416483D

 28 32  0  0  1  0  0  0  0  0999 V2000
  187.5760  177.0850  143.5370 C   0  0  2  0  0  3  0  0  0  0  0  0
  190.7670  178.2030  145.0040 O   0  0  0  0  0  0  0  0  0  0  0  0
  191.5970  177.4760  143.1060 N   0  0  0  0  0  2  0  0  0  0  0  0
  185.6210  178.8280  146.9220 C   0  0  0  0  0  0  0  0  0  0  0  0
  188.2880  177.0020  147.2550 C   0  0  0  0  0  1  0  0  0  0  0  0
  185.7460  178.0090  144.8760 C   0  0  0  0  0  0  0  0  0  0  0  0
  186.3050  177.5600  143.5510 C   0  0  0  0  0  0  0  0  0  0  0  0
  184.3380  178.9470  146.3120 N   0  0  0  0  0  0  0  0  0  0  0  0
  188.4780  177.3960  144.7320 C   0  0  0  0  0  0  0  0  0  0  0  0
  187.9520  177.9280  146.0570 C   0  0  0  0  0  0  0  0  0  0  0  0
  188.1500  176.4600  142.4280 O   0  0  0  0  0  0  0  0  0  0  0  0
  190.3110  176.9320  143.2250 C   0  0  0  0  0  0  0  0  0  0  0  0
  186.0300  179.6430  147.7830 O   0  0  0  0  0  0  0  0  0  0  0  0
  191.9270  178.1710  144.2570 O   0  0  0  0  0  0  0  0  0  0  0  0
  189.5750  176.4450  142.2410 C   0  0  0  0  0  3  0  0  0  0  0  0
  184.4160  178.4890  145.1230 N   0  0  0  0  0  0  0  0  0  0  0  0
  189.7800  177.4290  144.4320 C   0  0  0  0  0  0  0  0  0  0  0  0
  186.4810  178.1720  145.9600 C   0  0  0  0  0  0  0  0  0  0  0  0
  185.7360  178.1520  142.2260 C   0  0  2  0  0  3  0  0  0  0  0  0
  186.4080  179.4260  141.6750 C   0  0  0  0  0  1  0  0  0  0  0  0
  183.8130  177.5360  140.6960 C   0  0  0  0  0  3  0  0  0  0  0  0
  181.5170  178.2320  141.1140 C   0  0  0  0  0  0  0  0  0  0  0  0
  180.2130  178.1500  140.7180 F   0  0  0  0  0  0  0  0  0  0  0  0
  184.2290  178.0700  141.9200 C   0  0  0  0  0  0  0  0  0  0  0  0
  181.1000  179.6980  143.0150 F   0  0  0  0  0  0  0  0  0  0  0  0
  183.2940  178.7890  142.6890 C   0  0  0  0  0  3  0  0  0  0  0  0
  181.9510  178.9490  142.2630 C   0  0  0  0  0  0  0  0  0  0  0  0
  182.4700  177.5870  140.3130 C   0  0  0  0  0  3  0  0  0  0  0  0
  1 11  1  6  0  0  0
  1  7  1  0  0  0  0
  1  9  1  0  0  0  0
  3 12  1  0  0  0  0
  3 14  1  0  0  0  0
  4 13  2  0  0  0  0
  6 16  1  0  0  0  0
  6 18  1  0  0  0  0
  7  6  2  0  0  0  0
  8  4  1  0  0  0  0
  9 10  1  0  0  0  0
 10  5  1  0  0  0  0
 12 17  1  0  0  0  0
 14  2  1  0  0  0  0
 15 11  1  0  0  0  0
 15 12  2  0  0  0  0
 16  8  2  0  0  0  0
 17  9  2  0  0  0  0
 17  2  1  0  0  0  0
 18 10  2  0  0  0  0
 18  4  1  0  0  0  0
 19 20  1  1  0  0  0
 19  7  1  0  0  0  0
 21 24  1  0  0  0  0
 22 27  2  0  0  0  0
 23 22  1  0  0  0  0
 24 19  1  0  0  0  0
 24 26  2  0  0  0  0
 27 26  1  0  0  0  0
 27 25  1  0  0  0  0
 28 21  2  0  0  0  0
 28 22  1  0  0  0  0
M  END
>  <MODEL>
1

>  <REMARK>
 VINA RESULT:      -9.9      0.000      0.000
  Name = 
  2 active torsions:
  status: ('A' for Active; 'I' for Inactive)
    1  A    between atoms: C_4  and  C_12
    2  A    between atoms: C_4  and  C_15
                            x       y       z     vdW  Elec       q    Type
                         _______ _______ _______ _____ _____    ______ ____

>  <TORSDO>
F 2

$$$$
=
 OpenBabel11062416483D

 28 32  0  0  1  0  0  0  0  0999 V2000
  182.6880  178.4840  143.0910 C   0  0  0  0  0  0  0  0  0  0  0  0
  180.0870  180.1080  141.0470 O   0  0  0  0  0  0  0  0  0  0  0  0
  178.9630  180.0980  142.9330 N   0  0  0  0  0  2  0  0  0  0  0  0
  185.2800  178.7810  139.6980 C   0  0  0  0  0  0  0  0  0  0  0  0
  182.2060  177.7700  139.4040 C   0  0  0  0  0  1  0  0  0  0  0  0
  184.7890  178.5170  141.8340 C   0  0  0  0  0  0  0  0  0  0  0  0
  184.0420  178.5580  143.1410 C   0  0  0  0  0  0  0  0  0  0  0  0
  186.4990  178.6620  140.4270 N   0  0  0  0  0  0  0  0  0  0  0  0
  181.9980  178.7610  141.7550 C   0  0  0  0  0  0  0  0  0  0  0  0
  182.7390  178.8070  140.4270 C   0  0  1  0  0  3  0  0  0  0  0  0
  181.8860  178.3170  144.2220 O   0  0  0  0  0  0  0  0  0  0  0  0
  180.0250  179.1960  143.0840 C   0  0  0  0  0  0  0  0  0  0  0  0
  185.1930  179.4630  138.6480 O   0  0  0  0  0  0  0  0  0  0  0  0
  178.9310  180.5790  141.6350 O   0  0  0  0  0  0  0  0  0  0  0  0
  180.5160  178.7540  144.2290 C   0  0  0  0  0  3  0  0  0  0  0  0
  186.2140  178.5270  141.6640 N   0  0  0  0  0  0  0  0  0  0  0  0
  180.7530  179.2330  141.8790 C   0  0  0  0  0  0  0  0  0  0  0  0
  184.2050  178.6340  140.6560 C   0  0  0  0  0  0  0  0  0  0  0  0
  184.6860  179.2460  144.3840 C   0  0  2  0  0  3  0  0  0  0  0  0
  184.9750  180.7570  144.2850 C   0  0  0  0  0  1  0  0  0  0  0  0
  185.7650  178.7730  146.6260 C   0  0  0  0  0  3  0  0  0  0  0  0
  187.7730  177.4150  146.8660 C   0  0  0  0  0  0  0  0  0  0  0  0
  188.6570  176.8340  147.7290 F   0  0  0  0  0  0  0  0  0  0  0  0
  185.6960  178.4820  145.2600 C   0  0  0  0  0  0  0  0  0  0  0  0
  188.8470  176.6020  144.8360 F   0  0  0  0  0  0  0  0  0  0  0  0
  186.7440  177.7420  144.6800 C   0  0  0  0  0  3  0  0  0  0  0  0
  187.8320  177.2670  145.4530 C   0  0  0  0  0  0  0  0  0  0  0  0
  186.7710  178.2210  147.4250 C   0  0  0  0  0  3  0  0  0  0  0  0
  1  7  2  0  0  0  0
  1 11  1  0  0  0  0
  2 14  1  0  0  0  0
  2 17  1  0  0  0  0
  3 12  1  0  0  0  0
  4  8  1  0  0  0  0
  4 18  1  0  0  0  0
  6  7  1  0  0  0  0
  7 19  1  0  0  0  0
  8 16  2  0  0  0  0
  9 17  2  0  0  0  0
  9  1  1  0  0  0  0
 10  5  1  6  0  0  0
 10 18  1  0  0  0  0
 10  9  1  0  0  0  0
 11 15  1  0  0  0  0
 12 15  2  0  0  0  0
 13  4  2  0  0  0  0
 14  3  1  0  0  0  0
 16  6  1  0  0  0  0
 17 12  1  0  0  0  0
 18  6  2  0  0  0  0
 19 20  1  6  0  0  0
 19 24  1  0  0  0  0
 21 28  1  0  0  0  0
 22 28  2  0  0  0  0
 22 23  1  0  0  0  0
 24 21  2  0  0  0  0
 25 27  1  0  0  0  0
 26 24  1  0  0  0  0
 26 27  2  0  0  0  0
 27 22  1  0  0  0  0
M  END
>  <MODEL>
2

>  <REMARK>
 VINA RESULT:      -9.3      4.274      7.958
  Name = 
  2 active torsions:
  status: ('A' for Active; 'I' for Inactive)
    1  A    between atoms: C_4  and  C_12
    2  A    between atoms: C_4  and  C_15
                            x       y       z     vdW  Elec       q    Type
                         _______ _______ _______ _____ _____    ______ ____

>  <TORSDO>
F 2

$$$$
=
 OpenBabel11062416483D

 28 32  0  0  1  0  0  0  0  0999 V2000
  186.6540  178.7250  141.3950 C   0  0  0  0  0  0  0  0  0  0  0  0
  186.1740  177.4650  137.9650 O   0  0  0  0  0  0  0  0  0  0  0  0
  188.3640  177.3100  137.9930 N   0  0  0  0  0  2  0  0  0  0  0  0
  182.3940  178.7010  141.8040 C   0  0  0  0  0  0  0  0  0  0  0  0
  183.8390  179.8780  139.1420 C   0  0  0  0  0  1  0  0  0  0  0  0
  184.4810  178.7410  142.5220 C   0  0  0  0  0  0  0  0  0  0  0  0
  185.9780  178.5840  142.5640 C   0  0  0  0  0  0  0  0  0  0  0  0
  182.3770  178.6810  143.2290 N   0  0  0  0  0  0  0  0  0  0  0  0
  185.8660  178.6340  140.0880 C   0  0  0  0  0  0  0  0  0  0  0  0
  184.3480  178.7070  140.0230 C   0  0  1  0  0  3  0  0  0  0  0  0
  188.0470  178.7970  141.3180 O   0  0  0  0  0  0  0  0  0  0  0  0
  187.9990  178.1400  139.0610 C   0  0  0  0  0  0  0  0  0  0  0  0
  181.5010  178.1490  141.1170 O   0  0  0  0  0  0  0  0  0  0  0  0
  187.2470  176.9820  137.2430 O   0  0  0  0  0  0  0  0  0  0  0  0
  188.7420  178.4250  140.1170 C   0  0  0  0  0  3  0  0  0  0  0  0
  183.5850  178.6860  143.6430 N   0  0  0  0  0  0  0  0  0  0  0  0
  186.5920  178.2080  139.0490 C   0  0  0  0  0  0  0  0  0  0  0  0
  183.7820  178.7860  141.4030 C   0  0  0  0  0  0  0  0  0  0  0  0
  186.6400  177.7300  143.6870 C   0  0  2  0  0  3  0  0  0  0  0  0
  186.1670  177.9740  145.1340 C   0  0  0  0  0  1  0  0  0  0  0  0
  188.4530  176.1030  142.9890 C   0  0  0  0  0  3  0  0  0  0  0  0
  190.7720  176.3250  143.6990 C   0  0  0  0  0  0  0  0  0  0  0  0
  192.0450  175.8440  143.5930 F   0  0  0  0  0  0  0  0  0  0  0  0
  188.1230  177.3250  143.5850 C   0  0  0  0  0  0  0  0  0  0  0  0
  191.3200  178.1180  145.2550 F   0  0  0  0  0  0  0  0  0  0  0  0
  189.1090  177.9900  144.3380 C   0  0  0  0  0  3  0  0  0  0  0  0
  190.4190  177.4650  144.4730 C   0  0  0  0  0  0  0  0  0  0  0  0
  189.7660  175.6260  143.0180 C   0  0  0  0  0  3  0  0  0  0  0  0
  1  7  2  0  0  0  0
  2 17  1  0  0  0  0
  3 12  1  0  0  0  0
  4  8  1  0  0  0  0
  6  7  1  0  0  0  0
  6 16  1  0  0  0  0
  7 19  1  0  0  0  0
  8 16  2  0  0  0  0
  9  1  1  0  0  0  0
 10  5  1  6  0  0  0
 10  9  1  0  0  0  0
 10 18  1  0  0  0  0
 11  1  1  0  0  0  0
 12 15  2  0  0  0  0
 13  4  2  0  0  0  0
 14  2  1  0  0  0  0
 14  3  1  0  0  0  0
 15 11  1  0  0  0  0
 17 12  1  0  0  0  0
 17  9  2  0  0  0  0
 18  4  1  0  0  0  0
 18  6  2  0  0  0  0
 19 20  1  1  0  0  0
 21 28  2  0  0  0  0
 21 24  1  0  0  0  0
 22 27  2  0  0  0  0
 23 22  1  0  0  0  0
 24 19  1  0  0  0  0
 24 26  2  0  0  0  0
 26 27  1  0  0  0  0
 27 25  1  0  0  0  0
 28 22  1  0  0  0  0
M  END
>  <MODEL>
3

>  <REMARK>
 VINA RESULT:      -9.3      4.025      6.565
  Name = 
  2 active torsions:
  status: ('A' for Active; 'I' for Inactive)
    1  A    between atoms: C_4  and  C_12
    2  A    between atoms: C_4  and  C_15
                            x       y       z     vdW  Elec       q    Type
                         _______ _______ _______ _____ _____    ______ ____

>  <TORSDO>
F 2

$$$$
=
 OpenBabel11062416483D

 28 32  0  0  1  0  0  0  0  0999 V2000
  187.5530  177.5370  143.4550 C   0  0  2  0  0  3  0  0  0  0  0  0
  191.1120  178.0700  144.2460 O   0  0  0  0  0  0  0  0  0  0  0  0
  191.3580  177.8770  142.0730 N   0  0  0  0  0  2  0  0  0  0  0  0
  186.7070  178.3270  147.5750 C   0  0  0  0  0  0  0  0  0  0  0  0
  189.1510  176.3790  146.6850 C   0  0  0  0  0  1  0  0  0  0  0  0
  186.2280  178.1150  145.4310 C   0  0  0  0  0  0  0  0  0  0  0  0
  186.3860  178.0370  143.9350 C   0  0  0  0  0  0  0  0  0  0  0  0
  185.3350  178.6630  147.3870 N   0  0  0  0  0  0  0  0  0  0  0  0
  188.7510  177.4620  144.4000 C   0  0  0  0  0  0  0  0  0  0  0  0
  188.6340  177.6190  145.9090 C   0  0  0  0  0  0  0  0  0  0  0  0
  187.7590  177.2290  142.1080 O   0  0  0  0  0  0  0  0  0  0  0  0
  190.0890  177.3720  142.3880 C   0  0  0  0  0  0  0  0  0  0  0  0
  187.4060  178.8500  148.4770 O   0  0  0  0  0  0  0  0  0  0  0  0
  192.0390  178.2050  143.2320 O   0  0  0  0  0  0  0  0  0  0  0  0
  189.0820  177.2120  141.5470 C   0  0  0  0  0  3  0  0  0  0  0  0
  185.0640  178.5580  146.1450 N   0  0  0  0  0  0  0  0  0  0  0  0
  189.9330  177.5280  143.7790 C   0  0  0  0  0  0  0  0  0  0  0  0
  187.2220  177.9370  146.2800 C   0  0  0  0  0  0  0  0  0  0  0  0
  185.5760  179.0020  143.0150 C   0  0  2  0  0  3  0  0  0  0  0  0
  184.7050  180.0710  143.7040 C   0  0  0  0  0  1  0  0  0  0  0  0
  185.5690  178.9320  140.4830 C   0  0  0  0  0  3  0  0  0  0  0  0
  183.7570  177.9380  139.1940 C   0  0  0  0  0  0  0  0  0  0  0  0
  183.2980  177.5930  137.9550 F   0  0  0  0  0  0  0  0  0  0  0  0
  184.9930  178.4980  141.6820 C   0  0  0  0  0  0  0  0  0  0  0  0
  181.8180  177.1050  140.4110 F   0  0  0  0  0  0  0  0  0  0  0  0
  183.7300  177.8780  141.6320 C   0  0  0  0  0  3  0  0  0  0  0  0
  183.0600  177.6600  140.4020 C   0  0  0  0  0  0  0  0  0  0  0  0
  184.9760  178.6280  139.2540 C   0  0  0  0  0  3  0  0  0  0  0  0
  1 11  1  6  0  0  0
  1  7  1  0  0  0  0
  1  9  1  0  0  0  0
  3 12  1  0  0  0  0
  3 14  1  0  0  0  0
  4 13  2  0  0  0  0
  6 16  1  0  0  0  0
  6 18  1  0  0  0  0
  7  6  2  0  0  0  0
  8  4  1  0  0  0  0
  9 10  1  0  0  0  0
 10 18  2  0  0  0  0
 10  5  1  0  0  0  0
 12 17  1  0  0  0  0
 14  2  1  0  0  0  0
 15 11  1  0  0  0  0
 15 12  2  0  0  0  0
 16  8  2  0  0  0  0
 17  2  1  0  0  0  0
 17  9  2  0  0  0  0
 18  4  1  0  0  0  0
 19 20  1  1  0  0  0
 19  7  1  0  0  0  0
 21 24  1  0  0  0  0
 22 28  1  0  0  0  0
 22 27  2  0  0  0  0
 23 22  1  0  0  0  0
 24 19  1  0  0  0  0
 26 24  2  0  0  0  0
 27 25  1  0  0  0  0
 27 26  1  0  0  0  0
 28 21  2  0  0  0  0
M  END
>  <MODEL>
4

>  <REMARK>
 VINA RESULT:      -9.0      1.419      1.805
  Name = 
  2 active torsions:
  status: ('A' for Active; 'I' for Inactive)
    1  A    between atoms: C_4  and  C_12
    2  A    between atoms: C_4  and  C_15
                            x       y       z     vdW  Elec       q    Type
                         _______ _______ _______ _____ _____    ______ ____

>  <TORSDO>
F 2

$$$$
=
 OpenBabel11062416483D

 28 32  0  0  1  0  0  0  0  0999 V2000
  186.8740  177.4990  142.8700 C   0  0  0  0  0  0  0  0  0  0  0  0
  184.4950  179.6030  144.7390 O   0  0  0  0  0  0  0  0  0  0  0  0
  185.5810  178.8300  146.4830 N   0  0  0  0  0  2  0  0  0  0  0  0
  185.2600  179.1830  139.2810 C   0  0  0  0  0  0  0  0  0  0  0  0
  183.3370  178.1690  141.6960 C   0  0  0  0  0  1  0  0  0  0  0  0
  186.7590  178.1200  140.5040 C   0  0  0  0  0  0  0  0  0  0  0  0
  187.5410  177.6310  141.6950 C   0  0  0  0  0  0  0  0  0  0  0  0
  186.3780  178.8770  138.4530 N   0  0  0  0  0  0  0  0  0  0  0  0
  185.5280  178.2080  143.0200 C   0  0  0  0  0  0  0  0  0  0  0  0
  184.7530  178.7850  141.8450 C   0  0  1  0  0  3  0  0  0  0  0  0
  187.4190  176.8780  143.9960 O   0  0  0  0  0  0  0  0  0  0  0  0
  185.9030  178.0010  145.4010 C   0  0  0  0  0  0  0  0  0  0  0  0
  184.5460  180.1980  139.0930 O   0  0  0  0  0  0  0  0  0  0  0  0
  184.6210  179.7530  146.1050 O   0  0  0  0  0  0  0  0  0  0  0  0
  186.9500  177.1980  145.3170 C   0  0  0  0  0  3  0  0  0  0  0  0
  187.2520  178.2780  139.1650 N   0  0  0  0  0  0  0  0  0  0  0  0
  185.2230  178.5240  144.2830 C   0  0  0  0  0  0  0  0  0  0  0  0
  185.5440  178.6280  140.5880 C   0  0  0  0  0  0  0  0  0  0  0  0
  189.0830  177.8490  141.7560 C   0  0  2  0  0  3  0  0  0  0  0  0
  189.8670  177.7350  140.4340 C   0  0  0  0  0  1  0  0  0  0  0  0
  190.2690  178.3390  143.9410 C   0  0  0  0  0  3  0  0  0  0  0  0
  191.6810  176.7090  145.0730 C   0  0  0  0  0  0  0  0  0  0  0  0
  192.4290  176.4250  146.1790 F   0  0  0  0  0  0  0  0  0  0  0  0
  189.8850  177.3890  142.9890 C   0  0  0  0  0  0  0  0  0  0  0  0
  192.0620  174.5710  143.9690 F   0  0  0  0  0  0  0  0  0  0  0  0
  190.4990  176.1230  143.0220 C   0  0  0  0  0  3  0  0  0  0  0  0
  191.4590  175.7900  144.0110 C   0  0  0  0  0  0  0  0  0  0  0  0
  191.1290  177.9950  144.9880 C   0  0  0  0  0  3  0  0  0  0  0  0
  1  9  1  0  0  0  0
  1 11  1  0  0  0  0
  2 14  1  0  0  0  0
  4 18  1  0  0  0  0
  6 18  2  0  0  0  0
  6  7  1  0  0  0  0
  7 19  1  0  0  0  0
  7  1  2  0  0  0  0
  8 16  2  0  0  0  0
  8  4  1  0  0  0  0
  9 17  2  0  0  0  0
 10  5  1  6  0  0  0
 10  9  1  0  0  0  0
 11 15  1  0  0  0  0
 12  3  1  0  0  0  0
 13  4  2  0  0  0  0
 14  3  1  0  0  0  0
 15 12  2  0  0  0  0
 16  6  1  0  0  0  0
 17  2  1  0  0  0  0
 17 12  1  0  0  0  0
 18 10  1  0  0  0  0
 19 20  1  6  0  0  0
 19 24  1  0  0  0  0
 21 28  1  0  0  0  0
 22 23  1  0  0  0  0
 24 26  1  0  0  0  0
 24 21  2  0  0  0  0
 25 27  1  0  0  0  0
 26 27  2  0  0  0  0
 27 22  1  0  0  0  0
 28 22  2  0  0  0  0
M  END
>  <MODEL>
5

>  <REMARK>
 VINA RESULT:      -9.0      4.147      7.177
  Name = 
  2 active torsions:
  status: ('A' for Active; 'I' for Inactive)
    1  A    between atoms: C_4  and  C_12
    2  A    between atoms: C_4  and  C_15
                            x       y       z     vdW  Elec       q    Type
                         _______ _______ _______ _____ _____    ______ ____

>  <TORSDO>
F 2

$$$$
=
 OpenBabel11062416483D

 28 32  0  0  1  0  0  0  0  0999 V2000
  187.5800  178.4970  141.1790 C   0  0  0  0  0  0  0  0  0  0  0  0
  186.6520  177.2580  137.8340 O   0  0  0  0  0  0  0  0  0  0  0  0
  188.8240  177.0600  137.5880 N   0  0  0  0  0  2  0  0  0  0  0  0
  183.4040  178.5560  142.1150 C   0  0  0  0  0  0  0  0  0  0  0  0
  184.5300  179.7120  139.2940 C   0  0  0  0  0  1  0  0  0  0  0  0
  185.5650  178.5520  142.5680 C   0  0  0  0  0  0  0  0  0  0  0  0
  187.0520  178.3660  142.4220 C   0  0  0  0  0  0  0  0  0  0  0  0
  183.5650  178.5310  143.5310 N   0  0  0  0  0  0  0  0  0  0  0  0
  186.6340  178.4260  139.9800 C   0  0  0  0  0  0  0  0  0  0  0  0
  185.1210  178.5290  140.1050 C   0  0  1  0  0  3  0  0  0  0  0  0
  188.9540  178.5420  140.9290 O   0  0  0  0  0  0  0  0  0  0  0  0
  188.6120  177.8930  138.6940 C   0  0  0  0  0  0  0  0  0  0  0  0
  182.4220  178.0230  141.5440 O   0  0  0  0  0  0  0  0  0  0  0  0
  187.6160  176.7570  136.9840 O   0  0  0  0  0  0  0  0  0  0  0  0
  189.4860  178.1600  139.6490 C   0  0  0  0  0  3  0  0  0  0  0  0
  184.8150  178.5110  143.7910 N   0  0  0  0  0  0  0  0  0  0  0  0
  187.2160  177.9890  138.8580 C   0  0  0  0  0  0  0  0  0  0  0  0
  184.7340  178.6150  141.5440 C   0  0  0  0  0  0  0  0  0  0  0  0
  187.8320  177.4950  143.4530 C   0  0  2  0  0  3  0  0  0  0  0  0
  187.8750  175.9740  143.2060 C   0  0  0  0  0  1  0  0  0  0  0  0
  188.9840  177.6160  145.7060 C   0  0  0  0  0  3  0  0  0  0  0  0
  187.8100  178.1840  147.7630 C   0  0  0  0  0  0  0  0  0  0  0  0
  187.9140  178.4390  149.1000 F   0  0  0  0  0  0  0  0  0  0  0  0
  187.8400  177.8760  144.9460 C   0  0  0  0  0  0  0  0  0  0  0  0
  185.3980  178.5130  147.6430 F   0  0  0  0  0  0  0  0  0  0  0  0
  186.6430  178.1840  145.6210 C   0  0  0  0  0  3  0  0  0  0  0  0
  186.5900  178.2640  147.0350 C   0  0  0  0  0  0  0  0  0  0  0  0
  188.9790  177.7990  147.0920 C   0  0  0  0  0  3  0  0  0  0  0  0
  1  7  2  0  0  0  0
  2 17  1  0  0  0  0
  3 12  1  0  0  0  0
  4  8  1  0  0  0  0
  6 16  1  0  0  0  0
  7  6  1  0  0  0  0
  7 19  1  0  0  0  0
  8 16  2  0  0  0  0
  9 10  1  0  0  0  0
  9  1  1  0  0  0  0
 10  5  1  6  0  0  0
 10 18  1  0  0  0  0
 11  1  1  0  0  0  0
 12 17  1  0  0  0  0
 12 15  2  0  0  0  0
 13  4  2  0  0  0  0
 14  3  1  0  0  0  0
 14  2  1  0  0  0  0
 15 11  1  0  0  0  0
 17  9  2  0  0  0  0
 18  4  1  0  0  0  0
 18  6  2  0  0  0  0
 19 20  1  1  0  0  0
 19 24  1  0  0  0  0
 21 28  1  0  0  0  0
 22 23  1  0  0  0  0
 24 26  1  0  0  0  0
 24 21  2  0  0  0  0
 26 27  2  0  0  0  0
 27 25  1  0  0  0  0
 27 22  1  0  0  0  0
 28 22  2  0  0  0  0
M  END
>  <MODEL>
6

>  <REMARK>
 VINA RESULT:      -8.9      3.438      6.131
  Name = 
  2 active torsions:
  status: ('A' for Active; 'I' for Inactive)
    1  A    between atoms: C_4  and  C_12
    2  A    between atoms: C_4  and  C_15
                            x       y       z     vdW  Elec       q    Type
                         _______ _______ _______ _____ _____    ______ ____

>  <TORSDO>
F 2

$$$$
=
 OpenBabel11062416483D

 28 32  0  0  1  0  0  0  0  0999 V2000
  189.2330  177.9790  145.3550 C   0  0  0  0  0  0  0  0  0  0  0  0
  192.0980  175.6660  145.5130 O   0  0  0  0  0  0  0  0  0  0  0  0
  191.7370  175.7780  147.6760 N   0  0  0  0  0  2  0  0  0  0  0  0
  189.3970  177.5990  141.0950 C   0  0  0  0  0  0  0  0  0  0  0  0
  192.0850  178.0430  142.8660 C   0  0  0  0  0  1  0  0  0  0  0  0
  188.4660  178.0980  143.0330 C   0  0  0  0  0  0  0  0  0  0  0  0
  188.1810  178.1340  144.5120 C   0  0  0  0  0  0  0  0  0  0  0  0
  188.0580  178.0230  140.8530 N   0  0  0  0  0  0  0  0  0  0  0  0
  190.5300  177.3960  144.7940 C   0  0  0  0  0  0  0  0  0  0  0  0
  190.8120  177.2720  143.3040 C   0  0  1  0  0  3  0  0  0  0  0  0
  189.1470  178.1820  146.7340 O   0  0  0  0  0  0  0  0  0  0  0  0
  191.0540  176.8520  147.0910 C   0  0  0  0  0  0  0  0  0  0  0  0
  189.9770  176.7620  140.3620 O   0  0  0  0  0  0  0  0  0  0  0  0
  192.4780  175.1080  146.7170 O   0  0  0  0  0  0  0  0  0  0  0  0
  190.0610  177.5350  147.6360 C   0  0  0  0  0  3  0  0  0  0  0  0
  187.5150  178.2940  141.9750 N   0  0  0  0  0  0  0  0  0  0  0  0
  191.2700  176.7530  145.7030 C   0  0  0  0  0  0  0  0  0  0  0  0
  189.6190  177.7120  142.5210 C   0  0  0  0  0  0  0  0  0  0  0  0
  186.7650  177.7540  145.0410 C   0  0  2  0  0  3  0  0  0  0  0  0
  186.5760  176.3280  145.5970 C   0  0  0  0  0  1  0  0  0  0  0  0
  184.5450  178.9690  145.1520 C   0  0  0  0  0  3  0  0  0  0  0  0
  182.9890  179.0530  143.2790 C   0  0  0  0  0  0  0  0  0  0  0  0
  181.8150  179.5560  142.7970 F   0  0  0  0  0  0  0  0  0  0  0  0
  185.5030  178.3230  144.3640 C   0  0  0  0  0  0  0  0  0  0  0  0
  183.5540  177.7920  141.2720 F   0  0  0  0  0  0  0  0  0  0  0  0
  185.1480  177.9410  143.0560 C   0  0  0  0  0  3  0  0  0  0  0  0
  183.8670  178.2280  142.5230 C   0  0  0  0  0  0  0  0  0  0  0  0
  183.3170  179.3580  144.6080 C   0  0  0  0  0  3  0  0  0  0  0  0
  1 11  1  0  0  0  0
  2 17  1  0  0  0  0
  2 14  1  0  0  0  0
  4 18  1  0  0  0  0
  6  7  1  0  0  0  0
  7 19  1  0  0  0  0
  7  1  2  0  0  0  0
  8  4  1  0  0  0  0
  8 16  2  0  0  0  0
  9  1  1  0  0  0  0
  9 17  2  0  0  0  0
 10  5  1  6  0  0  0
 10  9  1  0  0  0  0
 11 15  1  0  0  0  0
 12 15  2  0  0  0  0
 12  3  1  0  0  0  0
 13  4  2  0  0  0  0
 14  3  1  0  0  0  0
 16  6  1  0  0  0  0
 17 12  1  0  0  0  0
 18  6  2  0  0  0  0
 18 10  1  0  0  0  0
 19 20  1  6  0  0  0
 22 28  2  0  0  0  0
 23 22  1  0  0  0  0
 24 19  1  0  0  0  0
 24 21  2  0  0  0  0
 25 27  1  0  0  0  0
 26 24  1  0  0  0  0
 27 26  2  0  0  0  0
 27 22  1  0  0  0  0
 28 21  1  0  0  0  0
M  END
>  <MODEL>
7

>  <REMARK>
 VINA RESULT:      -8.8      2.373      4.380
  Name = 
  2 active torsions:
  status: ('A' for Active; 'I' for Inactive)
    1  A    between atoms: C_4  and  C_12
    2  A    between atoms: C_4  and  C_15
                            x       y       z     vdW  Elec       q    Type
                         _______ _______ _______ _____ _____    ______ ____

>  <TORSDO>
F 2

$$$$
=
 OpenBabel11062416483D

 28 32  0  0  1  0  0  0  0  0999 V2000
  188.4850  177.1450  144.6730 C   0  0  2  0  0  3  0  0  0  0  0  0
  187.7650  178.6390  147.9630 O   0  0  0  0  0  0  0  0  0  0  0  0
  189.7110  177.7730  148.4940 N   0  0  0  0  0  2  0  0  0  0  0  0
  184.9640  179.0970  143.2210 C   0  0  0  0  0  0  0  0  0  0  0  0
  184.9800  177.5120  146.0570 C   0  0  0  0  0  1  0  0  0  0  0  0
  186.9110  178.0740  143.0430 C   0  0  0  0  0  0  0  0  0  0  0  0
  188.2720  177.5260  143.3870 C   0  0  0  0  0  0  0  0  0  0  0  0
  185.3250  179.0580  141.8420 N   0  0  0  0  0  0  0  0  0  0  0  0
  187.5180  177.6460  145.7450 C   0  0  0  0  0  0  0  0  0  0  0  0
  186.1720  178.2780  145.4250 C   0  0  0  0  0  0  0  0  0  0  0  0
  189.6210  176.4460  145.0880 O   0  0  0  0  0  0  0  0  0  0  0  0
  189.2990  177.1550  147.3070 C   0  0  0  0  0  0  0  0  0  0  0  0
  184.2750  180.0280  143.7050 O   0  0  0  0  0  0  0  0  0  0  0  0
  188.7140  178.6100  148.9650 O   0  0  0  0  0  0  0  0  0  0  0  0
  190.0750  176.5130  146.4500 C   0  0  0  0  0  3  0  0  0  0  0  0
  186.4600  178.4820  141.7420 N   0  0  0  0  0  0  0  0  0  0  0  0
  188.0630  177.7390  146.9620 C   0  0  0  0  0  0  0  0  0  0  0  0
  186.0080  178.4040  143.9460 C   0  0  0  0  0  0  0  0  0  0  0  0
  189.5130  177.9300  142.5350 C   0  0  2  0  0  3  0  0  0  0  0  0
  190.2390  179.2350  142.9170 C   0  0  0  0  0  1  0  0  0  0  0  0
  190.3800  176.5910  140.5670 C   0  0  0  0  0  3  0  0  0  0  0  0
  189.9880  177.2390  138.2520 C   0  0  0  0  0  0  0  0  0  0  0  0
  190.1380  176.9060  136.9370 F   0  0  0  0  0  0  0  0  0  0  0  0
  189.5540  177.6220  141.0260 C   0  0  0  0  0  0  0  0  0  0  0  0
  188.8270  179.3400  137.8390 F   0  0  0  0  0  0  0  0  0  0  0  0
  189.0360  178.5330  140.0870 C   0  0  0  0  0  3  0  0  0  0  0  0
  189.3070  178.4040  138.7010 C   0  0  0  0  0  0  0  0  0  0  0  0
  190.5690  176.3820  139.1980 C   0  0  0  0  0  3  0  0  0  0  0  0
  1  7  1  1  0  0  0
  1 11  1  0  0  0  0
  1  9  1  0  0  0  0
  2 14  1  0  0  0  0
  3 14  1  0  0  0  0
  4 13  2  0  0  0  0
  4 18  1  0  0  0  0
  6  7  2  0  0  0  0
  6 18  1  0  0  0  0
  8  4  1  0  0  0  0
  9 17  2  0  0  0  0
 10  9  1  0  0  0  0
 10  5  1  0  0  0  0
 11 15  1  0  0  0  0
 12  3  1  0  0  0  0
 15 12  2  0  0  0  0
 16  8  2  0  0  0  0
 16  6  1  0  0  0  0
 17 12  1  0  0  0  0
 17  2  1  0  0  0  0
 18 10  2  0  0  0  0
 19 20  1  6  0  0  0
 19  7  1  0  0  0  0
 21 24  1  0  0  0  0
 22 27  2  0  0  0  0
 22 28  1  0  0  0  0
 23 22  1  0  0  0  0
 24 19  1  0  0  0  0
 25 27  1  0  0  0  0
 26 24  2  0  0  0  0
 27 26  1  0  0  0  0
 28 21  2  0  0  0  0
M  END
>  <MODEL>
8

>  <REMARK>
 VINA RESULT:      -8.8      3.669      5.355
  Name = 
  2 active torsions:
  status: ('A' for Active; 'I' for Inactive)
    1  A    between atoms: C_4  and  C_12
    2  A    between atoms: C_4  and  C_15
                            x       y       z     vdW  Elec       q    Type
                         _______ _______ _______ _____ _____    ______ ____

>  <TORSDO>
F 2

$$$$
=
 OpenBabel11062416483D

 28 32  0  0  1  0  0  0  0  0999 V2000
  188.2210  177.6010  142.2560 C   0  0  0  0  0  0  0  0  0  0  0  0
  186.1680  179.0430  139.5560 O   0  0  0  0  0  0  0  0  0  0  0  0
  184.7450  179.4120  141.1870 N   0  0  0  0  0  2  0  0  0  0  0  0
  191.3670  177.1730  139.3860 C   0  0  0  0  0  0  0  0  0  0  0  0
  188.3060  176.3350  138.6890 C   0  0  0  0  0  1  0  0  0  0  0  0
  190.4980  177.2900  141.4120 C   0  0  0  0  0  0  0  0  0  0  0  0
  189.5480  177.5920  142.5410 C   0  0  0  0  0  0  0  0  0  0  0  0
  192.4280  177.0920  140.3340 N   0  0  0  0  0  0  0  0  0  0  0  0
  187.7960  177.7050  140.7910 C   0  0  0  0  0  0  0  0  0  0  0  0
  188.7530  177.4860  139.6280 C   0  0  1  0  0  3  0  0  0  0  0  0
  187.2260  177.6730  143.2340 O   0  0  0  0  0  0  0  0  0  0  0  0
  185.6760  178.4780  141.6600 C   0  0  0  0  0  0  0  0  0  0  0  0
  191.5230  177.6810  138.2490 O   0  0  0  0  0  0  0  0  0  0  0  0
  184.9780  179.6790  139.8480 O   0  0  0  0  0  0  0  0  0  0  0  0
  185.9230  178.1950  142.9280 C   0  0  0  0  0  3  0  0  0  0  0  0
  191.9260  177.1780  141.5040 N   0  0  0  0  0  0  0  0  0  0  0  0
  186.5980  178.2710  140.6150 C   0  0  0  0  0  0  0  0  0  0  0  0
  190.1360  177.2550  140.1430 C   0  0  0  0  0  0  0  0  0  0  0  0
  190.0330  178.4270  143.7640 C   0  0  2  0  0  3  0  0  0  0  0  0
  190.8170  179.7220  143.4710 C   0  0  0  0  0  1  0  0  0  0  0  0
  191.6230  176.9310  145.0480 C   0  0  0  0  0  3  0  0  0  0  0  0
  191.1350  176.0900  147.2820 C   0  0  0  0  0  0  0  0  0  0  0  0
  191.5930  175.3860  148.3580 F   0  0  0  0  0  0  0  0  0  0  0  0
  190.4710  177.7230  145.0630 C   0  0  0  0  0  0  0  0  0  0  0  0
  188.9590  176.6150  148.2450 F   0  0  0  0  0  0  0  0  0  0  0  0
  189.5910  177.6050  146.1550 C   0  0  0  0  0  3  0  0  0  0  0  0
  189.8670  176.7330  147.2380 C   0  0  0  0  0  0  0  0  0  0  0  0
  191.9680  176.1500  146.1560 C   0  0  0  0  0  3  0  0  0  0  0  0
  1  7  2  0  0  0  0
  1 11  1  0  0  0  0
  2 14  1  0  0  0  0
  2 17  1  0  0  0  0
  3 12  1  0  0  0  0
  4 18  1  0  0  0  0
  4  8  1  0  0  0  0
  6 16  1  0  0  0  0
  6  7  1  0  0  0  0
  7 19  1  0  0  0  0
  8 16  2  0  0  0  0
  9  1  1  0  0  0  0
 10  5  1  1  0  0  0
 10 18  1  0  0  0  0
 10  9  1  0  0  0  0
 12 15  2  0  0  0  0
 13  4  2  0  0  0  0
 14  3  1  0  0  0  0
 15 11  1  0  0  0  0
 17  9  2  0  0  0  0
 17 12  1  0  0  0  0
 18  6  2  0  0  0  0
 19 20  1  6  0  0  0
 19 24  1  0  0  0  0
 21 24  2  0  0  0  0
 21 28  1  0  0  0  0
 22 23  1  0  0  0  0
 24 26  1  0  0  0  0
 26 27  2  0  0  0  0
 27 22  1  0  0  0  0
 27 25  1  0  0  0  0
 28 22  2  0  0  0  0
M  END
>  <MODEL>
9

>  <REMARK>
 VINA RESULT:      -8.8      4.033      7.892
  Name = 
  2 active torsions:
  status: ('A' for Active; 'I' for Inactive)
    1  A    between atoms: C_4  and  C_12
    2  A    between atoms: C_4  and  C_15
                            x       y       z     vdW  Elec       q    Type
                         _______ _______ _______ _____ _____    ______ ____

>  <TORSDO>
F 2

$$$$
