=
 OpenBabel11062415563D

 41 45  0  0  1  0  0  0  0  0999 V2000
  185.3690  178.4630  139.3810 C   0  0  2  0  0  3  0  0  0  0  0  0
  183.5110  177.1660  137.9780 C   0  0  0  0  0  0  0  0  0  0  0  0
  186.2980  178.7220  138.3350 N   0  0  0  0  0  1  0  0  0  0  0  0
  182.9070  178.6360  140.9380 C   0  0  1  0  0  3  0  0  0  0  0  0
  184.2490  178.9960  141.6420 C   0  0  2  0  0  3  0  0  0  0  0  0
  184.2860  177.7400  139.1500 C   0  0  2  0  0  3  0  0  0  0  0  0
  183.1400  177.4230  140.0230 C   0  0  2  0  0  3  0  0  0  0  0  0
  185.3930  179.3050  140.6350 C   0  0  0  0  0  2  0  0  0  0  0  0
  183.7590  176.8970  136.7740 O   0  0  0  0  0  0  0  0  0  0  0  0
  182.2930  177.1600  138.8540 C   0  0  1  0  0  3  0  0  0  0  0  0
  179.5450  180.1310  137.4880 C   0  0  1  0  0  3  0  0  0  0  0  0
  178.9350  180.9970  136.5810 O   0  0  0  0  0  1  0  0  0  0  0  0
  181.8500  179.2020  137.5560 O   0  0  0  0  0  0  0  0  0  0  0  0
  179.2530  178.6900  137.0850 C   0  0  0  0  0  2  0  0  0  0  0  0
  181.3090  178.2950  138.4950 C   0  0  1  0  0  3  0  0  0  0  0  0
  181.0630  180.3820  137.5160 C   0  0  2  0  0  3  0  0  0  0  0  0
  179.9750  177.7130  138.0120 C   0  0  1  0  0  3  0  0  0  0  0  0
  181.4440  181.3540  138.6230 C   0  0  0  0  0  2  0  0  0  0  0  0
  182.8340  181.4190  138.7320 O   0  0  0  0  0  1  0  0  0  0  0  0
  179.1620  177.4330  139.1160 O   0  0  0  0  0  0  0  0  0  0  0  0
  179.1770  175.8390  140.5560 C   0  0  0  0  0  1  0  0  0  0  0  0
  179.1300  176.1180  139.1920 O   0  0  0  0  0  0  0  0  0  0  0  0
  181.8190  178.3320  141.9660 C   0  0  1  0  0  3  0  0  0  0  0  0
  180.0820  179.6660  143.0900 C   0  0  0  0  0  2  0  0  0  0  0  0
  181.5730  179.5510  142.8360 C   0  0  2  0  0  3  0  0  0  0  0  0
  180.6000  179.2060  141.7420 C   0  0  1  0  0  3  0  0  0  0  0  0
  184.6940  177.9050  142.6180 C   0  0  0  0  0  2  0  0  0  0  0  0
  184.8890  179.6500  144.2510 O   0  0  0  0  0  1  0  0  0  0  0  0
  185.4980  178.4870  143.7710 C   0  0  1  0  0  3  0  0  0  0  0  0
  185.6700  177.4600  144.8920 C   0  0  0  0  0  2  0  0  0  0  0  0
  186.4590  178.4860  147.0390 C   0  0  0  0  0  0  0  0  0  0  0  0
  187.4630  178.8060  147.9470 O   0  0  0  0  0  1  0  0  0  0  0  0
  189.0920  177.8420  146.1110 O   0  0  0  0  0  0  0  0  0  0  0  0
  188.1050  177.4330  145.4400 C   0  0  0  0  0  0  0  0  0  0  0  0
  185.2690  178.7930  147.3180 O   0  0  0  0  0  0  0  0  0  0  0  0
  186.7630  177.8130  145.8010 N   0  0  0  0  0  0  0  0  0  0  0  0
  188.3100  176.6180  144.3220 O   0  0  0  0  0  0  0  0  0  0  0  0
  189.2030  177.1330  142.9460 P   0  0  0  0  0  0  0  0  0  0  0  0
  188.1290  177.4420  141.6770 O   0  0  0  0  0  0  0  0  0  0  0  0
  190.0540  178.5460  143.3210 O   0  0  0  0  0  1  0  0  0  0  0  0
  190.1700  176.0540  142.5230 O   0  0  0  0  0  1  0  0  0  0  0  0
  1  3  1  6  0  0  0
  1  8  1  0  0  0  0
  2 10  1  0  0  0  0
  4  5  1  0  0  0  0
  4 23  1  1  0  0  0
  5 27  1  6  0  0  0
  6  2  1  6  0  0  0
  6  1  1  0  0  0  0
  6  7  1  0  0  0  0
  7  4  1  0  0  0  0
  8  5  1  0  0  0  0
  9  2  2  0  0  0  0
 10  7  1  0  0  0  0
 11 16  1  0  0  0  0
 12 11  1  0  0  0  0
 13 15  1  0  0  0  0
 14 11  1  0  0  0  0
 14 17  1  0  0  0  0
 15 10  1  0  0  0  0
 16 13  1  0  0  0  0
 16 18  1  0  0  0  0
 17 15  1  0  0  0  0
 17 20  1  0  0  0  0
 18 19  1  0  0  0  0
 20 22  1  0  0  0  0
 22 21  1  0  0  0  0
 23 25  1  0  0  0  0
 25 24  1  0  0  0  0
 26 23  1  0  0  0  0
 26 25  1  0  0  0  0
 26 24  1  0  0  0  0
 27 29  1  0  0  0  0
 29 28  1  0  0  0  0
 29 30  1  0  0  0  0
 30 36  1  0  0  0  0
 31 35  2  0  0  0  0
 31 32  1  0  0  0  0
 34 36  1  0  0  0  0
 34 33  2  0  0  0  0
 36 31  1  0  0  0  0
 37 34  1  0  0  0  0
 38 40  1  0  0  0  0
 38 37  1  0  0  0  0
 39 38  2  0  0  0  0
 41 38  1  0  0  0  0
M  END
>  <MODEL>
1

>  <REMARK>
 VINA RESULT:      -6.4      0.000      0.000
  Name = 
  11 active torsions:
  status: ('A' for Active; 'I' for Inactive)
    1  A    between atoms: C_4  and  C_21
    2  A    between atoms: C_13  and  O_18
    3  A    between atoms: O_14  and  C_23
    4  A    between atoms: O_14  and  O_24
    5  A    between atoms: C_15  and  C_37
    6  A    between atoms: O_18  and  P_31
    7  A    between atoms: C_20  and  C_25
    8  A    between atoms: C_26  and  C_39
    9  A    between atoms: N_29  and  C_38
   10  A    between atoms: C_38  and  C_40
   11  A    between atoms: C_39  and  C_40
                            x       y       z     vdW  Elec       q    Type
                         _______ _______ _______ _____ _____    ______ ____

>  <TORSDO>
F 11

$$$$
=
 OpenBabel11062415563D

 41 45  0  0  1  0  0  0  0  0999 V2000
  192.8740  176.6780  138.8010 C   0  0  2  0  0  3  0  0  0  0  0  0
  191.2520  175.1190  137.3720 C   0  0  0  0  0  0  0  0  0  0  0  0
  193.9630  176.7620  137.8900 N   0  0  0  0  0  1  0  0  0  0  0  0
  190.1950  177.0830  139.8840 C   0  0  1  0  0  3  0  0  0  0  0  0
  191.4100  177.5870  140.7190 C   0  0  2  0  0  3  0  0  0  0  0  0
  191.8340  175.9070  138.5320 C   0  0  2  0  0  3  0  0  0  0  0  0
  190.5580  175.7310  139.2520 C   0  0  2  0  0  3  0  0  0  0  0  0
  192.7050  177.7310  139.8710 C   0  0  0  0  0  2  0  0  0  0  0  0
  191.6890  174.6440  136.2920 O   0  0  0  0  0  0  0  0  0  0  0  0
  189.9080  175.2480  138.0270 C   0  0  1  0  0  3  0  0  0  0  0  0
  187.4850  177.9000  135.7160 C   0  0  1  0  0  3  0  0  0  0  0  0
  187.0820  178.6230  134.5950 O   0  0  0  0  0  1  0  0  0  0  0  0
  189.7320  177.1010  136.4190 O   0  0  0  0  0  0  0  0  0  0  0  0
  187.3250  176.4090  135.4410 C   0  0  0  0  0  2  0  0  0  0  0  0
  189.0100  176.2840  137.3170 C   0  0  1  0  0  3  0  0  0  0  0  0
  188.9500  178.2280  136.0550 C   0  0  2  0  0  3  0  0  0  0  0  0
  187.8350  175.5840  136.6210 C   0  0  1  0  0  3  0  0  0  0  0  0
  189.0450  179.3400  137.0890 C   0  0  0  0  0  2  0  0  0  0  0  0
  187.8050  179.9660  137.2220 O   0  0  0  0  0  1  0  0  0  0  0  0
  186.7960  175.3950  137.5390 O   0  0  0  0  0  0  0  0  0  0  0  0
  186.8340  173.2920  137.1030 C   0  0  0  0  0  1  0  0  0  0  0  0
  186.0510  174.4400  137.0190 O   0  0  0  0  0  0  0  0  0  0  0  0
  188.9510  176.9490  140.7610 C   0  0  1  0  0  3  0  0  0  0  0  0
  186.9810  178.3610  141.1930 C   0  0  0  0  0  2  0  0  0  0  0  0
  188.4970  178.3200  141.2280 C   0  0  2  0  0  3  0  0  0  0  0  0
  187.7570  177.6270  140.1170 C   0  0  1  0  0  3  0  0  0  0  0  0
  191.6770  176.6960  141.9340 C   0  0  0  0  0  2  0  0  0  0  0  0
  190.9880  178.7440  142.9740 O   0  0  0  0  0  1  0  0  0  0  0  0
  191.3870  177.4300  143.2350 C   0  0  1  0  0  3  0  0  0  0  0  0
  190.3260  176.6920  144.0550 C   0  0  0  0  0  2  0  0  0  0  0  0
  191.5480  176.5290  146.2380 C   0  0  0  0  0  0  0  0  0  0  0  0
  191.6900  176.8350  147.5870 O   0  0  0  0  0  1  0  0  0  0  0  0
  189.3350  177.9920  147.3210 O   0  0  0  0  0  0  0  0  0  0  0  0
  189.3830  177.8190  146.0730 C   0  0  0  0  0  0  0  0  0  0  0  0
  192.4320  175.8260  145.6790 O   0  0  0  0  0  0  0  0  0  0  0  0
  190.4160  177.0060  145.4830 N   0  0  0  0  0  0  0  0  0  0  0  0
  188.4170  178.4060  145.2480 O   0  0  0  0  0  0  0  0  0  0  0  0
  186.8230  177.7810  145.0950 P   0  0  0  0  0  0  0  0  0  0  0  0
  186.2510  177.3490  146.6260 O   0  0  0  0  0  1  0  0  0  0  0  0
  185.8130  178.9640  144.4290 O   0  0  0  0  0  1  0  0  0  0  0  0
  186.8290  176.5610  144.2070 O   0  0  0  0  0  0  0  0  0  0  0  0
  1  3  1  6  0  0  0
  1  8  1  0  0  0  0
  2 10  1  0  0  0  0
  4  5  1  0  0  0  0
  4 23  1  1  0  0  0
  5 27  1  1  0  0  0
  6  2  1  6  0  0  0
  6  1  1  0  0  0  0
  6  7  1  0  0  0  0
  7  4  1  0  0  0  0
  8  5  1  0  0  0  0
  9  2  2  0  0  0  0
 10  7  1  0  0  0  0
 11 16  1  0  0  0  0
 12 11  1  0  0  0  0
 13 15  1  0  0  0  0
 14 11  1  0  0  0  0
 14 17  1  0  0  0  0
 15 10  1  0  0  0  0
 16 13  1  0  0  0  0
 16 18  1  0  0  0  0
 17 15  1  0  0  0  0
 17 20  1  0  0  0  0
 18 19  1  0  0  0  0
 22 21  1  0  0  0  0
 22 20  1  0  0  0  0
 23 25  1  0  0  0  0
 24 25  1  0  0  0  0
 26 23  1  0  0  0  0
 26 24  1  0  0  0  0
 26 25  1  0  0  0  0
 27 29  1  0  0  0  0
 28 29  1  0  0  0  0
 29 30  1  0  0  0  0
 30 36  1  0  0  0  0
 31 32  1  0  0  0  0
 34 33  2  0  0  0  0
 35 31  2  0  0  0  0
 36 34  1  0  0  0  0
 36 31  1  0  0  0  0
 37 34  1  0  0  0  0
 38 37  1  0  0  0  0
 38 39  1  0  0  0  0
 40 38  1  0  0  0  0
 41 38  2  0  0  0  0
M  END
>  <MODEL>
2

>  <REMARK>
 VINA RESULT:      -5.3      5.192      6.912
  Name = 
  11 active torsions:
  status: ('A' for Active; 'I' for Inactive)
    1  A    between atoms: C_4  and  C_21
    2  A    between atoms: C_13  and  O_18
    3  A    between atoms: O_14  and  C_23
    4  A    between atoms: O_14  and  O_24
    5  A    between atoms: C_15  and  C_37
    6  A    between atoms: O_18  and  P_31
    7  A    between atoms: C_20  and  C_25
    8  A    between atoms: C_26  and  C_39
    9  A    between atoms: N_29  and  C_38
   10  A    between atoms: C_38  and  C_40
   11  A    between atoms: C_39  and  C_40
                            x       y       z     vdW  Elec       q    Type
                         _______ _______ _______ _____ _____    ______ ____

>  <TORSDO>
F 11

$$$$
=
 OpenBabel11062415563D

 41 45  0  0  1  0  0  0  0  0999 V2000
  185.4170  178.4910  139.3560 C   0  0  2  0  0  3  0  0  0  0  0  0
  183.7370  177.0650  137.8550 C   0  0  0  0  0  0  0  0  0  0  0  0
  186.3880  178.8060  138.3660 N   0  0  0  0  0  1  0  0  0  0  0  0
  182.8580  178.5080  140.7590 C   0  0  1  0  0  3  0  0  0  0  0  0
  184.1280  178.9620  141.5400 C   0  0  2  0  0  3  0  0  0  0  0  0
  184.4000  177.6970  139.0670 C   0  0  2  0  0  3  0  0  0  0  0  0
  183.2260  177.3080  139.8720 C   0  0  2  0  0  3  0  0  0  0  0  0
  185.3080  179.3410  140.6010 C   0  0  0  0  0  2  0  0  0  0  0  0
  184.0760  176.8070  136.6720 O   0  0  0  0  0  0  0  0  0  0  0  0
  182.4710  176.9830  138.6570 C   0  0  1  0  0  3  0  0  0  0  0  0
  179.6660  179.7940  137.0860 C   0  0  1  0  0  3  0  0  0  0  0  0
  179.1170  180.6810  136.1600 O   0  0  0  0  0  1  0  0  0  0  0  0
  182.0190  179.0880  137.4670 O   0  0  0  0  0  0  0  0  0  0  0  0
  179.6020  178.3770  136.5270 C   0  0  0  0  0  2  0  0  0  0  0  0
  181.4390  178.0480  138.2270 C   0  0  1  0  0  3  0  0  0  0  0  0
  181.1220  180.1860  137.3890 C   0  0  2  0  0  3  0  0  0  0  0  0
  180.2710  177.3900  137.4820 C   0  0  1  0  0  3  0  0  0  0  0  0
  181.2140  181.0790  138.6170 C   0  0  0  0  0  2  0  0  0  0  0  0
  179.9900  181.7180  138.8250 O   0  0  0  0  0  1  0  0  0  0  0  0
  179.3280  176.9290  138.4080 O   0  0  0  0  0  0  0  0  0  0  0  0
  179.6430  174.8210  138.6790 C   0  0  0  0  0  1  0  0  0  0  0  0
  178.9310  175.7630  137.9390 O   0  0  0  0  0  0  0  0  0  0  0  0
  181.7320  178.1380  141.7220 C   0  0  1  0  0  3  0  0  0  0  0  0
  179.6530  179.2360  142.4540 C   0  0  0  0  0  2  0  0  0  0  0  0
  181.1580  179.3930  142.3550 C   0  0  2  0  0  3  0  0  0  0  0  0
  180.4060  178.7030  141.2510 C   0  0  1  0  0  3  0  0  0  0  0  0
  184.5840  177.9080  142.5510 C   0  0  0  0  0  2  0  0  0  0  0  0
  185.3150  179.0820  144.5110 O   0  0  0  0  0  1  0  0  0  0  0  0
  185.7640  178.4030  143.3740 C   0  0  1  0  0  3  0  0  0  0  0  0
  186.6870  177.2450  143.7610 C   0  0  0  0  0  2  0  0  0  0  0  0
  188.7970  177.7910  142.5230 C   0  0  0  0  0  0  0  0  0  0  0  0
  190.1260  178.2020  142.4900 O   0  0  0  0  0  1  0  0  0  0  0  0
  189.9630  178.1150  145.1210 O   0  0  0  0  0  0  0  0  0  0  0  0
  188.7200  177.9150  145.0450 C   0  0  0  0  0  0  0  0  0  0  0  0
  188.2100  177.5500  141.4350 O   0  0  0  0  0  0  0  0  0  0  0  0
  188.0960  177.6440  143.7740 N   0  0  0  0  0  0  0  0  0  0  0  0
  187.9360  177.9380  146.2030 O   0  0  0  0  0  0  0  0  0  0  0  0
  188.5680  177.5800  147.7600 P   0  0  0  0  0  0  0  0  0  0  0  0
  187.4970  178.1560  148.9360 O   0  0  0  0  0  1  0  0  0  0  0  0
  188.7440  175.9060  147.9290 O   0  0  0  0  0  0  0  0  0  0  0  0
  189.9080  178.2520  147.9420 O   0  0  0  0  0  1  0  0  0  0  0  0
  1  3  1  6  0  0  0
  1  8  1  0  0  0  0
  2 10  1  0  0  0  0
  4  5  1  0  0  0  0
  4 23  1  1  0  0  0
  5 27  1  1  0  0  0
  6  2  1  6  0  0  0
  6  1  1  0  0  0  0
  6  7  1  0  0  0  0
  7  4  1  0  0  0  0
  8  5  1  0  0  0  0
  9  2  2  0  0  0  0
 10  7  1  0  0  0  0
 11 16  1  0  0  0  0
 12 11  1  0  0  0  0
 13 15  1  0  0  0  0
 14 11  1  0  0  0  0
 14 17  1  0  0  0  0
 15 10  1  0  0  0  0
 16 13  1  0  0  0  0
 16 18  1  0  0  0  0
 17 15  1  0  0  0  0
 17 20  1  0  0  0  0
 18 19  1  0  0  0  0
 22 20  1  0  0  0  0
 22 21  1  0  0  0  0
 23 25  1  0  0  0  0
 25 24  1  0  0  0  0
 26 23  1  0  0  0  0
 26 25  1  0  0  0  0
 26 24  1  0  0  0  0
 27 29  1  0  0  0  0
 29 30  1  0  0  0  0
 29 28  1  0  0  0  0
 30 36  1  0  0  0  0
 31 36  1  0  0  0  0
 32 31  1  0  0  0  0
 34 33  2  0  0  0  0
 34 37  1  0  0  0  0
 35 31  2  0  0  0  0
 36 34  1  0  0  0  0
 37 38  1  0  0  0  0
 38 40  2  0  0  0  0
 38 41  1  0  0  0  0
 38 39  1  0  0  0  0
M  END
>  <MODEL>
3

>  <REMARK>
 VINA RESULT:      -5.1      1.428      2.645
  Name = 
  11 active torsions:
  status: ('A' for Active; 'I' for Inactive)
    1  A    between atoms: C_4  and  C_21
    2  A    between atoms: C_13  and  O_18
    3  A    between atoms: O_14  and  C_23
    4  A    between atoms: O_14  and  O_24
    5  A    between atoms: C_15  and  C_37
    6  A    between atoms: O_18  and  P_31
    7  A    between atoms: C_20  and  C_25
    8  A    between atoms: C_26  and  C_39
    9  A    between atoms: N_29  and  C_38
   10  A    between atoms: C_38  and  C_40
   11  A    between atoms: C_39  and  C_40
                            x       y       z     vdW  Elec       q    Type
                         _______ _______ _______ _____ _____    ______ ____

>  <TORSDO>
F 11

$$$$
=
 OpenBabel11062415563D

 41 45  0  0  1  0  0  0  0  0999 V2000
  181.9420  178.7620  141.9370 C   0  0  2  0  0  3  0  0  0  0  0  0
  180.3990  179.6350  139.9460 C   0  0  0  0  0  0  0  0  0  0  0  0
  180.9510  178.6370  142.9490 N   0  0  0  0  0  1  0  0  0  0  0  0
  183.4000  178.2010  139.4720 C   0  0  1  0  0  3  0  0  0  0  0  0
  184.1770  178.1240  140.8200 C   0  0  2  0  0  3  0  0  0  0  0  0
  181.6300  179.2630  140.7530 C   0  0  2  0  0  3  0  0  0  0  0  0
  182.4380  179.3980  139.5250 C   0  0  2  0  0  3  0  0  0  0  0  0
  183.2360  177.9900  142.0510 C   0  0  0  0  0  2  0  0  0  0  0  0
  179.1950  179.8960  140.2020 O   0  0  0  0  0  0  0  0  0  0  0  0
  181.2220  179.4520  138.7050 C   0  0  1  0  0  3  0  0  0  0  0  0
  179.8860  175.9650  136.6310 C   0  0  1  0  0  3  0  0  0  0  0  0
  179.0040  174.9530  136.2560 O   0  0  0  0  0  1  0  0  0  0  0  0
  180.0460  177.2920  138.7280 O   0  0  0  0  0  0  0  0  0  0  0  0
  179.3610  177.3050  136.1280 C   0  0  0  0  0  2  0  0  0  0  0  0
  180.8780  178.1410  137.9650 C   0  0  1  0  0  3  0  0  0  0  0  0
  180.0370  175.9900  138.1620 C   0  0  2  0  0  3  0  0  0  0  0  0
  180.2630  178.4480  136.5930 C   0  0  1  0  0  3  0  0  0  0  0  0
  181.2340  175.1680  138.6160 C   0  0  0  0  0  2  0  0  0  0  0  0
  181.6150  175.5620  139.8990 O   0  0  0  0  0  1  0  0  0  0  0  0
  181.2860  178.6420  135.6580 O   0  0  0  0  0  0  0  0  0  0  0  0
  180.7310  180.5180  134.7690 C   0  0  0  0  0  1  0  0  0  0  0  0
  180.6850  179.1370  134.5940 O   0  0  0  0  0  0  0  0  0  0  0  0
  184.3650  178.3410  138.2960 C   0  0  1  0  0  3  0  0  0  0  0  0
  185.2770  176.7900  136.6150 C   0  0  0  0  0  2  0  0  0  0  0  0
  185.1370  177.0480  138.1030 C   0  0  2  0  0  3  0  0  0  0  0  0
  184.0000  177.3840  137.1770 C   0  0  1  0  0  3  0  0  0  0  0  0
  185.1160  179.3170  141.0080 C   0  0  0  0  0  2  0  0  0  0  0  0
  184.9510  179.8610  143.3380 O   0  0  0  0  0  1  0  0  0  0  0  0
  185.7860  179.2860  142.3750 C   0  0  1  0  0  3  0  0  0  0  0  0
  186.1650  177.8570  142.7660 C   0  0  0  0  0  2  0  0  0  0  0  0
  186.6050  177.7440  145.2310 C   0  0  0  0  0  0  0  0  0  0  0  0
  187.4700  177.6740  146.3180 O   0  0  0  0  0  1  0  0  0  0  0  0
  189.3710  177.9510  144.5130 O   0  0  0  0  0  0  0  0  0  0  0  0
  188.5220  177.8290  143.5880 C   0  0  0  0  0  0  0  0  0  0  0  0
  185.3640  177.7350  145.4430 O   0  0  0  0  0  0  0  0  0  0  0  0
  187.1110  177.8230  143.8830 N   0  0  0  0  0  0  0  0  0  0  0  0
  188.9450  177.7150  142.2600 O   0  0  0  0  0  0  0  0  0  0  0  0
  190.3230  176.7950  141.8000 P   0  0  0  0  0  0  0  0  0  0  0  0
  190.3600  175.3680  142.7060 O   0  0  0  0  0  1  0  0  0  0  0  0
  190.2260  176.4160  140.1540 O   0  0  0  0  0  0  0  0  0  0  0  0
  191.5830  177.5820  142.0670 O   0  0  0  0  0  1  0  0  0  0  0  0
  1  8  1  0  0  0  0
  1  3  1  6  0  0  0
  2  9  2  0  0  0  0
  4 23  1  6  0  0  0
  4  7  1  0  0  0  0
  4  5  1  0  0  0  0
  5 27  1  1  0  0  0
  5  8  1  0  0  0  0
  6  2  1  6  0  0  0
  6  1  1  0  0  0  0
  7  6  1  0  0  0  0
 10  7  1  0  0  0  0
 10  2  1  0  0  0  0
 11 16  1  0  0  0  0
 12 11  1  0  0  0  0
 14 17  1  0  0  0  0
 14 11  1  0  0  0  0
 15 10  1  0  0  0  0
 15 13  1  0  0  0  0
 16 18  1  0  0  0  0
 16 13  1  0  0  0  0
 17 15  1  0  0  0  0
 18 19  1  0  0  0  0
 20 17  1  0  0  0  0
 22 21  1  0  0  0  0
 22 20  1  0  0  0  0
 24 26  1  0  0  0  0
 24 25  1  0  0  0  0
 25 23  1  0  0  0  0
 26 25  1  0  0  0  0
 26 23  1  0  0  0  0
 27 29  1  0  0  0  0
 29 30  1  0  0  0  0
 29 28  1  0  0  0  0
 30 36  1  0  0  0  0
 31 35  2  0  0  0  0
 31 32  1  0  0  0  0
 34 36  1  0  0  0  0
 34 33  2  0  0  0  0
 36 31  1  0  0  0  0
 37 34  1  0  0  0  0
 38 41  1  0  0  0  0
 38 37  1  0  0  0  0
 38 39  1  0  0  0  0
 40 38  2  0  0  0  0
M  END
>  <MODEL>
4

>  <REMARK>
 VINA RESULT:      -4.9      2.033      4.093
  Name = 
  11 active torsions:
  status: ('A' for Active; 'I' for Inactive)
    1  A    between atoms: C_4  and  C_21
    2  A    between atoms: C_13  and  O_18
    3  A    between atoms: O_14  and  C_23
    4  A    between atoms: O_14  and  O_24
    5  A    between atoms: C_15  and  C_37
    6  A    between atoms: O_18  and  P_31
    7  A    between atoms: C_20  and  C_25
    8  A    between atoms: C_26  and  C_39
    9  A    between atoms: N_29  and  C_38
   10  A    between atoms: C_38  and  C_40
   11  A    between atoms: C_39  and  C_40
                            x       y       z     vdW  Elec       q    Type
                         _______ _______ _______ _____ _____    ______ ____

>  <TORSDO>
F 11

$$$$
=
 OpenBabel11062415563D

 41 45  0  0  1  0  0  0  0  0999 V2000
  181.6490  178.8900  141.8340 C   0  0  2  0  0  3  0  0  0  0  0  0
  180.2000  179.6640  139.7350 C   0  0  0  0  0  0  0  0  0  0  0  0
  180.6150  178.8240  142.8080 N   0  0  0  0  0  1  0  0  0  0  0  0
  183.2070  178.1890  139.4680 C   0  0  1  0  0  3  0  0  0  0  0  0
  183.9250  178.1790  140.8510 C   0  0  2  0  0  3  0  0  0  0  0  0
  181.3930  179.3280  140.6130 C   0  0  2  0  0  3  0  0  0  0  0  0
  182.2530  179.3930  139.4160 C   0  0  2  0  0  3  0  0  0  0  0  0
  182.9310  178.1170  142.0450 C   0  0  0  0  0  2  0  0  0  0  0  0
  178.9890  179.9450  139.9240 O   0  0  0  0  0  0  0  0  0  0  0  0
  181.0750  179.4100  138.5420 C   0  0  1  0  0  3  0  0  0  0  0  0
  179.7930  175.8130  136.6290 C   0  0  1  0  0  3  0  0  0  0  0  0
  178.9320  174.7630  136.3110 O   0  0  0  0  0  1  0  0  0  0  0  0
  179.9630  177.2200  138.6720 O   0  0  0  0  0  0  0  0  0  0  0  0
  179.2180  177.1180  136.0900 C   0  0  0  0  0  2  0  0  0  0  0  0
  180.7520  178.0630  137.8580 C   0  0  1  0  0  3  0  0  0  0  0  0
  179.9790  175.8980  138.1540 C   0  0  2  0  0  3  0  0  0  0  0  0
  180.0970  178.3020  136.4920 C   0  0  1  0  0  3  0  0  0  0  0  0
  181.2090  175.1270  138.6080 C   0  0  0  0  0  2  0  0  0  0  0  0
  181.8680  174.5980  137.4970 O   0  0  0  0  0  1  0  0  0  0  0  0
  181.0920  178.4900  135.5250 O   0  0  0  0  0  0  0  0  0  0  0  0
  180.6500  180.5430  135.0700 C   0  0  0  0  0  1  0  0  0  0  0  0
  180.5280  179.2380  134.5970 O   0  0  0  0  0  0  0  0  0  0  0  0
  184.2230  178.2600  138.3290 C   0  0  1  0  0  3  0  0  0  0  0  0
  184.8790  176.7460  136.5010 C   0  0  0  0  0  2  0  0  0  0  0  0
  184.7380  176.8690  138.0070 C   0  0  2  0  0  3  0  0  0  0  0  0
  183.7210  177.5160  137.1060 C   0  0  1  0  0  3  0  0  0  0  0  0
  184.8650  179.3760  141.0150 C   0  0  0  0  0  2  0  0  0  0  0  0
  184.9290  179.6480  143.3970 O   0  0  0  0  0  1  0  0  0  0  0  0
  185.6890  179.2620  142.2900 C   0  0  1  0  0  3  0  0  0  0  0  0
  186.2270  177.8410  142.4680 C   0  0  0  0  0  2  0  0  0  0  0  0
  188.7030  178.2020  142.3060 C   0  0  0  0  0  0  0  0  0  0  0  0
  189.9740  178.2370  142.8690 O   0  0  0  0  0  1  0  0  0  0  0  0
  188.7790  177.3070  145.0270 O   0  0  0  0  0  0  0  0  0  0  0  0
  187.6520  177.4780  144.4860 C   0  0  0  0  0  0  0  0  0  0  0  0
  188.5690  178.5070  141.0910 O   0  0  0  0  0  0  0  0  0  0  0  0
  187.5530  177.8270  143.0910 N   0  0  0  0  0  0  0  0  0  0  0  0
  186.4840  177.3110  145.2360 O   0  0  0  0  0  0  0  0  0  0  0  0
  186.1000  178.2970  146.5900 P   0  0  0  0  0  0  0  0  0  0  0  0
  184.5630  177.8780  147.1590 O   0  0  0  0  0  1  0  0  0  0  0  0
  187.2410  178.0470  147.8140 O   0  0  0  0  0  1  0  0  0  0  0  0
  186.0980  179.7520  146.1880 O   0  0  0  0  0  0  0  0  0  0  0  0
  1  8  1  0  0  0  0
  1  3  1  6  0  0  0
  2  9  2  0  0  0  0
  4 23  1  6  0  0  0
  4  5  1  0  0  0  0
  5 27  1  1  0  0  0
  5  8  1  0  0  0  0
  6  2  1  6  0  0  0
  6  1  1  0  0  0  0
  7  4  1  0  0  0  0
  7  6  1  0  0  0  0
 10  7  1  0  0  0  0
 10  2  1  0  0  0  0
 11 16  1  0  0  0  0
 12 11  1  0  0  0  0
 14 17  1  0  0  0  0
 14 11  1  0  0  0  0
 15 10  1  0  0  0  0
 15 13  1  0  0  0  0
 16 18  1  0  0  0  0
 16 13  1  0  0  0  0
 17 15  1  0  0  0  0
 19 18  1  0  0  0  0
 20 17  1  0  0  0  0
 22 21  1  0  0  0  0
 22 20  1  0  0  0  0
 24 26  1  0  0  0  0
 24 25  1  0  0  0  0
 25 23  1  0  0  0  0
 26 25  1  0  0  0  0
 26 23  1  0  0  0  0
 27 29  1  0  0  0  0
 29 30  1  0  0  0  0
 29 28  1  0  0  0  0
 30 36  1  0  0  0  0
 31 32  1  0  0  0  0
 31 36  1  0  0  0  0
 34 33  2  0  0  0  0
 34 37  1  0  0  0  0
 35 31  2  0  0  0  0
 36 34  1  0  0  0  0
 37 38  1  0  0  0  0
 38 39  1  0  0  0  0
 38 40  1  0  0  0  0
 41 38  2  0  0  0  0
M  END
>  <MODEL>
5

>  <REMARK>
 VINA RESULT:      -4.7      2.213      4.707
  Name = 
  11 active torsions:
  status: ('A' for Active; 'I' for Inactive)
    1  A    between atoms: C_4  and  C_21
    2  A    between atoms: C_13  and  O_18
    3  A    between atoms: O_14  and  C_23
    4  A    between atoms: O_14  and  O_24
    5  A    between atoms: C_15  and  C_37
    6  A    between atoms: O_18  and  P_31
    7  A    between atoms: C_20  and  C_25
    8  A    between atoms: C_26  and  C_39
    9  A    between atoms: N_29  and  C_38
   10  A    between atoms: C_38  and  C_40
   11  A    between atoms: C_39  and  C_40
                            x       y       z     vdW  Elec       q    Type
                         _______ _______ _______ _____ _____    ______ ____

>  <TORSDO>
F 11

$$$$
=
 OpenBabel11062415563D

 41 45  0  0  1  0  0  0  0  0999 V2000
  191.4610  177.8460  141.5880 C   0  0  2  0  0  3  0  0  0  0  0  0
  191.4910  179.0340  143.9750 C   0  0  0  0  0  0  0  0  0  0  0  0
  192.7930  178.1320  141.1800 N   0  0  0  0  0  1  0  0  0  0  0  0
  189.2800  176.6540  143.1180 C   0  0  1  0  0  3  0  0  0  0  0  0
  189.3110  176.4220  141.5780 C   0  0  2  0  0  3  0  0  0  0  0  0
  190.9900  178.3340  142.7240 C   0  0  2  0  0  3  0  0  0  0  0  0
  189.7030  178.1030  143.4070 C   0  0  2  0  0  3  0  0  0  0  0  0
  190.7090  176.6990  140.9550 C   0  0  0  0  0  2  0  0  0  0  0  0
  192.5120  179.6980  144.2920 O   0  0  0  0  0  0  0  0  0  0  0  0
  190.2880  178.4980  144.6940 C   0  0  1  0  0  3  0  0  0  0  0  0
  191.4610  175.5290  147.5310 C   0  0  1  0  0  3  0  0  0  0  0  0
  192.2730  174.9070  148.4780 O   0  0  0  0  0  1  0  0  0  0  0  0
  192.0280  177.0360  145.6370 O   0  0  0  0  0  0  0  0  0  0  0  0
  190.9500  176.8500  148.0930 C   0  0  0  0  0  2  0  0  0  0  0  0
  190.6440  177.3250  145.6330 C   0  0  1  0  0  3  0  0  0  0  0  0
  192.2540  175.7690  146.2350 C   0  0  2  0  0  3  0  0  0  0  0  0
  190.1220  177.5970  147.0490 C   0  0  1  0  0  3  0  0  0  0  0  0
  192.0550  174.6320  145.2430 C   0  0  0  0  0  2  0  0  0  0  0  0
  192.0560  175.1390  143.9420 O   0  0  0  0  0  1  0  0  0  0  0  0
  188.7860  177.1900  147.1390 O   0  0  0  0  0  0  0  0  0  0  0  0
  187.5550  178.5710  148.2310 C   0  0  0  0  0  1  0  0  0  0  0  0
  188.4200  177.4880  148.3700 O   0  0  0  0  0  0  0  0  0  0  0  0
  187.8870  176.3790  143.6800 C   0  0  1  0  0  3  0  0  0  0  0  0
  186.0160  177.7920  144.4330 C   0  0  0  0  0  2  0  0  0  0  0  0
  187.4870  177.4860  144.6390 C   0  0  2  0  0  3  0  0  0  0  0  0
  186.9060  177.4540  143.2520 C   0  0  1  0  0  3  0  0  0  0  0  0
  188.2450  177.2470  140.8540 C   0  0  0  0  0  2  0  0  0  0  0  0
  188.3540  176.2790  138.6620 O   0  0  0  0  0  1  0  0  0  0  0  0
  188.6000  177.4480  139.3870 C   0  0  1  0  0  3  0  0  0  0  0  0
  187.8300  178.6290  138.7940 C   0  0  0  0  0  2  0  0  0  0  0  0
  187.7630  178.2280  136.3210 C   0  0  0  0  0  0  0  0  0  0  0  0
  187.1000  177.8410  135.1610 O   0  0  0  0  0  0  0  0  0  0  0  0
  184.9760  177.6920  136.7160 O   0  0  0  0  0  0  0  0  0  0  0  0
  185.6980  177.8790  137.7330 C   0  0  0  0  0  0  0  0  0  0  0  0
  188.9770  178.5560  136.2450 O   0  0  0  0  0  1  0  0  0  0  0  0
  187.0830  178.2530  137.5920 N   0  0  0  0  0  0  0  0  0  0  0  0
  185.1520  177.7410  139.0130 O   0  0  0  0  0  0  0  0  0  0  0  0
  184.2940  179.0060  139.7990 P   0  0  0  0  0  0  0  0  0  0  0  0
  182.7100  178.4950  140.0970 O   0  0  0  0  0  1  0  0  0  0  0  0
  185.0510  179.3780  141.2660 O   0  0  0  0  0  1  0  0  0  0  0  0
  184.2600  180.2330  138.9200 O   0  0  0  0  0  0  0  0  0  0  0  0
  1  3  1  1  0  0  0
  1  6  1  0  0  0  0
  2  9  2  0  0  0  0
  2 10  1  0  0  0  0
  4  7  1  0  0  0  0
  4 23  1  6  0  0  0
  5 27  1  6  0  0  0
  5  4  1  0  0  0  0
  6  7  1  0  0  0  0
  6  2  1  1  0  0  0
  7 10  1  0  0  0  0
  8  5  1  0  0  0  0
  8  1  1  0  0  0  0
 10 15  1  0  0  0  0
 11 14  1  0  0  0  0
 11 12  1  0  0  0  0
 13 16  1  0  0  0  0
 15 13  1  0  0  0  0
 15 17  1  0  0  0  0
 16 11  1  0  0  0  0
 17 20  1  0  0  0  0
 17 14  1  0  0  0  0
 18 16  1  0  0  0  0
 19 18  1  0  0  0  0
 20 22  1  0  0  0  0
 21 22  1  0  0  0  0
 23 25  1  0  0  0  0
 24 25  1  0  0  0  0
 26 23  1  0  0  0  0
 26 24  1  0  0  0  0
 26 25  1  0  0  0  0
 28 29  1  0  0  0  0
 29 27  1  0  0  0  0
 30 29  1  0  0  0  0
 31 36  1  0  0  0  0
 32 31  2  0  0  0  0
 33 34  2  0  0  0  0
 34 37  1  0  0  0  0
 35 31  1  0  0  0  0
 36 34  1  0  0  0  0
 36 30  1  0  0  0  0
 37 38  1  0  0  0  0
 38 39  1  0  0  0  0
 38 40  1  0  0  0  0
 41 38  2  0  0  0  0
M  END
>  <MODEL>
6

>  <REMARK>
 VINA RESULT:      -4.6      4.149     10.198
  Name = 
  11 active torsions:
  status: ('A' for Active; 'I' for Inactive)
    1  A    between atoms: C_4  and  C_21
    2  A    between atoms: C_13  and  O_18
    3  A    between atoms: O_14  and  C_23
    4  A    between atoms: O_14  and  O_24
    5  A    between atoms: C_15  and  C_37
    6  A    between atoms: O_18  and  P_31
    7  A    between atoms: C_20  and  C_25
    8  A    between atoms: C_26  and  C_39
    9  A    between atoms: N_29  and  C_38
   10  A    between atoms: C_38  and  C_40
   11  A    between atoms: C_39  and  C_40
                            x       y       z     vdW  Elec       q    Type
                         _______ _______ _______ _____ _____    ______ ____

>  <TORSDO>
F 11

$$$$
=
 OpenBabel11062415563D

 41 45  0  0  1  0  0  0  0  0999 V2000
  186.4120  177.9990  137.8060 C   0  0  2  0  0  3  0  0  0  0  0  0
  188.6610  178.2470  136.3960 C   0  0  0  0  0  0  0  0  0  0  0  0
  185.4990  177.7930  136.7350 N   0  0  0  0  0  1  0  0  0  0  0  0
  188.5990  177.4550  139.6600 C   0  0  1  0  0  3  0  0  0  0  0  0
  187.1830  177.7250  140.2520 C   0  0  2  0  0  3  0  0  0  0  0  0
  187.6850  178.2610  137.5590 C   0  0  2  0  0  3  0  0  0  0  0  0
  188.8300  178.4090  138.4780 C   0  0  2  0  0  3  0  0  0  0  0  0
  186.0490  177.5510  139.2030 C   0  0  0  0  0  2  0  0  0  0  0  0
  188.5720  178.2690  135.1410 O   0  0  0  0  0  0  0  0  0  0  0  0
  189.7690  178.0890  137.3950 C   0  0  1  0  0  3  0  0  0  0  0  0
  191.5590  174.2180  137.1650 C   0  0  1  0  0  3  0  0  0  0  0  0
  192.1450  173.1070  136.5580 O   0  0  0  0  0  1  0  0  0  0  0  0
  189.9620  175.9050  136.2800 O   0  0  0  0  0  0  0  0  0  0  0  0
  192.4950  175.4150  137.0360 C   0  0  0  0  0  2  0  0  0  0  0  0
  190.3270  176.6490  137.4240 C   0  0  1  0  0  3  0  0  0  0  0  0
  190.2040  174.5240  136.5050 C   0  0  2  0  0  3  0  0  0  0  0  0
  191.8480  176.6710  137.6190 C   0  0  1  0  0  3  0  0  0  0  0  0
  189.0580  173.8650  137.2580 C   0  0  0  0  0  2  0  0  0  0  0  0
  188.3540  173.0210  136.3970 O   0  0  0  0  0  1  0  0  0  0  0  0
  192.1410  176.7520  138.9860 O   0  0  0  0  0  0  0  0  0  0  0  0
  193.7320  177.5030  140.2190 C   0  0  0  0  0  1  0  0  0  0  0  0
  193.4570  176.7960  139.0500 O   0  0  0  0  0  0  0  0  0  0  0  0
  189.6780  177.6480  140.7240 C   0  0  1  0  0  3  0  0  0  0  0  0
  190.4410  176.3440  142.6680 C   0  0  0  0  0  2  0  0  0  0  0  0
  189.2380  177.0120  142.0290 C   0  0  2  0  0  3  0  0  0  0  0  0
  190.2520  176.3150  141.1640 C   0  0  1  0  0  3  0  0  0  0  0  0
  187.0890  179.1090  140.8970 C   0  0  0  0  0  2  0  0  0  0  0  0
  184.8310  179.7520  140.4030 O   0  0  0  0  0  1  0  0  0  0  0  0
  185.6910  179.3740  141.4390 C   0  0  1  0  0  3  0  0  0  0  0  0
  185.1490  178.1480  142.1760 C   0  0  0  0  0  2  0  0  0  0  0  0
  185.3030  178.6330  144.6310 C   0  0  0  0  0  0  0  0  0  0  0  0
  184.7330  179.0070  145.8430 O   0  0  0  0  0  1  0  0  0  0  0  0
  182.4550  178.9250  144.5180 O   0  0  0  0  0  0  0  0  0  0  0  0
  183.0820  178.7600  143.4360 C   0  0  0  0  0  0  0  0  0  0  0  0
  186.5420  178.4080  144.5870 O   0  0  0  0  0  0  0  0  0  0  0  0
  184.5000  178.5060  143.4400 N   0  0  0  0  0  0  0  0  0  0  0  0
  182.3970  178.8060  142.2170 O   0  0  0  0  0  0  0  0  0  0  0  0
  180.6950  179.0260  142.1150 P   0  0  0  0  0  0  0  0  0  0  0  0
  179.9270  177.7660  142.9400 O   0  0  0  0  0  1  0  0  0  0  0  0
  180.2720  180.5030  142.8220 O   0  0  0  0  0  1  0  0  0  0  0  0
  180.2570  179.0100  140.6710 O   0  0  0  0  0  0  0  0  0  0  0  0
  1  3  1  6  0  0  0
  1  8  1  0  0  0  0
  2 10  1  0  0  0  0
  4  5  1  0  0  0  0
  4 23  1  1  0  0  0
  5 27  1  6  0  0  0
  6  2  1  6  0  0  0
  6  1  1  0  0  0  0
  6  7  1  0  0  0  0
  7  4  1  0  0  0  0
  8  5  1  0  0  0  0
  9  2  2  0  0  0  0
 10 15  1  0  0  0  0
 10  7  1  0  0  0  0
 12 11  1  0  0  0  0
 13 16  1  0  0  0  0
 13 15  1  0  0  0  0
 14 11  1  0  0  0  0
 14 17  1  0  0  0  0
 15 17  1  0  0  0  0
 16 11  1  0  0  0  0
 16 18  1  0  0  0  0
 17 20  1  0  0  0  0
 19 18  1  0  0  0  0
 20 22  1  0  0  0  0
 22 21  1  0  0  0  0
 23 26  1  0  0  0  0
 23 25  1  0  0  0  0
 25 24  1  0  0  0  0
 26 25  1  0  0  0  0
 26 24  1  0  0  0  0
 27 29  1  0  0  0  0
 28 29  1  0  0  0  0
 29 30  1  0  0  0  0
 30 36  1  0  0  0  0
 31 32  1  0  0  0  0
 34 36  1  0  0  0  0
 34 33  2  0  0  0  0
 35 31  2  0  0  0  0
 36 31  1  0  0  0  0
 37 34  1  0  0  0  0
 38 37  1  0  0  0  0
 38 40  1  0  0  0  0
 38 39  1  0  0  0  0
 41 38  2  0  0  0  0
M  END
>  <MODEL>
7

>  <REMARK>
 VINA RESULT:      -4.5      4.627      8.517
  Name = 
  11 active torsions:
  status: ('A' for Active; 'I' for Inactive)
    1  A    between atoms: C_4  and  C_21
    2  A    between atoms: C_13  and  O_18
    3  A    between atoms: O_14  and  C_23
    4  A    between atoms: O_14  and  O_24
    5  A    between atoms: C_15  and  C_37
    6  A    between atoms: O_18  and  P_31
    7  A    between atoms: C_20  and  C_25
    8  A    between atoms: C_26  and  C_39
    9  A    between atoms: N_29  and  C_38
   10  A    between atoms: C_38  and  C_40
   11  A    between atoms: C_39  and  C_40
                            x       y       z     vdW  Elec       q    Type
                         _______ _______ _______ _____ _____    ______ ____

>  <TORSDO>
F 11

$$$$
=
 OpenBabel11062415563D

 41 45  0  0  1  0  0  0  0  0999 V2000
  183.9570  179.1600  138.2840 C   0  0  2  0  0  3  0  0  0  0  0  0
  181.8280  178.5540  136.7970 C   0  0  0  0  0  0  0  0  0  0  0  0
  183.3860  180.1890  139.0820 N   0  0  0  0  0  1  0  0  0  0  0  0
  184.4340  176.4790  137.2340 C   0  0  1  0  0  3  0  0  0  0  0  0
  185.6360  177.2500  137.8560 C   0  0  2  0  0  3  0  0  0  0  0  0
  183.2570  178.6020  137.3100 C   0  0  2  0  0  3  0  0  0  0  0  0
  183.5800  177.4670  136.4250 C   0  0  2  0  0  3  0  0  0  0  0  0
  185.1900  178.4300  138.7650 C   0  0  0  0  0  2  0  0  0  0  0  0
  180.8000  179.2680  136.9200 O   0  0  0  0  0  0  0  0  0  0  0  0
  182.1540  177.2300  136.1700 C   0  0  1  0  0  3  0  0  0  0  0  0
  180.0930  174.0780  138.1850 C   0  0  1  0  0  3  0  0  0  0  0  0
  179.0470  173.4550  138.8640 O   0  0  0  0  0  1  0  0  0  0  0  0
  180.7440  176.4730  138.0380 O   0  0  0  0  0  0  0  0  0  0  0  0
  179.6610  174.3740  136.7530 C   0  0  0  0  0  2  0  0  0  0  0  0
  181.5410  176.0480  136.9510 C   0  0  1  0  0  3  0  0  0  0  0  0
  180.4880  175.3790  138.9050 C   0  0  2  0  0  3  0  0  0  0  0  0
  180.7570  175.1310  136.0040 C   0  0  1  0  0  3  0  0  0  0  0  0
  181.6340  175.1490  139.8790 C   0  0  0  0  0  2  0  0  0  0  0  0
  182.3340  176.3410  140.0700 O   0  0  0  0  0  1  0  0  0  0  0  0
  181.6330  174.2140  135.4130 O   0  0  0  0  0  0  0  0  0  0  0  0
  181.7530  172.2260  134.6060 C   0  0  0  0  0  1  0  0  0  0  0  0
  180.9650  173.0780  135.3770 O   0  0  0  0  0  0  0  0  0  0  0  0
  184.9220  175.3370  136.3450 C   0  0  1  0  0  3  0  0  0  0  0  0
  185.4930  172.9720  136.7250 C   0  0  0  0  0  2  0  0  0  0  0  0
  185.8030  174.3960  137.1460 C   0  0  2  0  0  3  0  0  0  0  0  0
  184.3860  174.0030  136.8290 C   0  0  1  0  0  3  0  0  0  0  0  0
  186.6070  177.7530  136.7860 C   0  0  0  0  0  2  0  0  0  0  0  0
  188.2910  179.0880  137.8510 O   0  0  0  0  0  1  0  0  0  0  0  0
  188.0320  177.8220  137.3180 C   0  0  1  0  0  3  0  0  0  0  0  0
  188.2800  176.7310  138.3620 C   0  0  0  0  0  2  0  0  0  0  0  0
  190.7540  176.4480  138.0760 C   0  0  0  0  0  0  0  0  0  0  0  0
  192.0580  176.5300  138.5520 O   0  0  0  0  0  1  0  0  0  0  0  0
  190.9240  177.1780  140.8420 O   0  0  0  0  0  0  0  0  0  0  0  0
  189.7990  177.2460  140.2740 C   0  0  0  0  0  0  0  0  0  0  0  0
  190.5630  176.0650  136.8920 O   0  0  0  0  0  0  0  0  0  0  0  0
  189.6340  176.7950  138.9160 N   0  0  0  0  0  0  0  0  0  0  0  0
  188.6940  177.7480  140.9690 O   0  0  0  0  0  0  0  0  0  0  0  0
  188.3570  177.3320  142.6030 P   0  0  0  0  0  0  0  0  0  0  0  0
  189.4400  178.1480  143.6140 O   0  0  0  0  0  1  0  0  0  0  0  0
  186.7740  177.7890  142.9880 O   0  0  0  0  0  1  0  0  0  0  0  0
  188.5190  175.8450  142.8030 O   0  0  0  0  0  0  0  0  0  0  0  0
  1  8  1  0  0  0  0
  1  3  1  1  0  0  0
  2  9  2  0  0  0  0
  4 23  1  6  0  0  0
  4  5  1  0  0  0  0
  5 27  1  6  0  0  0
  5  8  1  0  0  0  0
  6  2  1  1  0  0  0
  6  1  1  0  0  0  0
  7  4  1  0  0  0  0
  7  6  1  0  0  0  0
 10  7  1  0  0  0  0
 10  2  1  0  0  0  0
 10 15  1  0  0  0  0
 11 12  1  0  0  0  0
 11 16  1  0  0  0  0
 13 16  1  0  0  0  0
 14 11  1  0  0  0  0
 15 13  1  0  0  0  0
 16 18  1  0  0  0  0
 17 14  1  0  0  0  0
 17 15  1  0  0  0  0
 18 19  1  0  0  0  0
 20 17  1  0  0  0  0
 21 22  1  0  0  0  0
 22 20  1  0  0  0  0
 23 26  1  0  0  0  0
 23 25  1  0  0  0  0
 24 26  1  0  0  0  0
 24 25  1  0  0  0  0
 26 25  1  0  0  0  0
 27 29  1  0  0  0  0
 29 28  1  0  0  0  0
 29 30  1  0  0  0  0
 30 36  1  0  0  0  0
 31 32  1  0  0  0  0
 31 36  1  0  0  0  0
 34 33  2  0  0  0  0
 34 37  1  0  0  0  0
 35 31  2  0  0  0  0
 36 34  1  0  0  0  0
 37 38  1  0  0  0  0
 38 41  2  0  0  0  0
 38 40  1  0  0  0  0
 38 39  1  0  0  0  0
M  END
>  <MODEL>
8

>  <REMARK>
 VINA RESULT:      -4.5      3.562      5.985
  Name = 
  11 active torsions:
  status: ('A' for Active; 'I' for Inactive)
    1  A    between atoms: C_4  and  C_21
    2  A    between atoms: C_13  and  O_18
    3  A    between atoms: O_14  and  C_23
    4  A    between atoms: O_14  and  O_24
    5  A    between atoms: C_15  and  C_37
    6  A    between atoms: O_18  and  P_31
    7  A    between atoms: C_20  and  C_25
    8  A    between atoms: C_26  and  C_39
    9  A    between atoms: N_29  and  C_38
   10  A    between atoms: C_38  and  C_40
   11  A    between atoms: C_39  and  C_40
                            x       y       z     vdW  Elec       q    Type
                         _______ _______ _______ _____ _____    ______ ____

>  <TORSDO>
F 11

$$$$
=
 OpenBabel11062415563D

 41 45  0  0  1  0  0  0  0  0999 V2000
  184.8300  179.0400  139.9030 C   0  0  2  0  0  3  0  0  0  0  0  0
  182.3750  179.5350  138.9920 C   0  0  0  0  0  0  0  0  0  0  0  0
  184.6320  179.3740  141.2710 N   0  0  0  0  0  1  0  0  0  0  0  0
  184.5790  177.5620  137.3990 C   0  0  1  0  0  3  0  0  0  0  0  0
  186.0030  177.7540  137.9990 C   0  0  2  0  0  3  0  0  0  0  0  0
  183.8600  179.2190  139.0230 C   0  0  2  0  0  3  0  0  0  0  0  0
  183.7820  178.8610  137.5930 C   0  0  2  0  0  3  0  0  0  0  0  0
  185.9750  178.1360  139.5060 C   0  0  0  0  0  2  0  0  0  0  0  0
  181.5430  180.0480  139.7830 O   0  0  0  0  0  0  0  0  0  0  0  0
  182.3150  178.8700  137.6470 C   0  0  1  0  0  3  0  0  0  0  0  0
  180.1910  175.1860  138.0400 C   0  0  1  0  0  3  0  0  0  0  0  0
  179.3690  174.2350  138.6440 O   0  0  0  0  0  1  0  0  0  0  0  0
  181.6400  176.9490  139.0270 O   0  0  0  0  0  0  0  0  0  0  0  0
  179.3650  176.4200  137.6950 C   0  0  0  0  0  2  0  0  0  0  0  0
  181.6580  177.4740  137.7150 C   0  0  1  0  0  3  0  0  0  0  0  0
  181.3440  175.5610  138.9860 C   0  0  2  0  0  3  0  0  0  0  0  0
  180.2520  177.5160  137.1050 C   0  0  1  0  0  3  0  0  0  0  0  0
  182.5860  174.7270  138.7070 C   0  0  0  0  0  2  0  0  0  0  0  0
  182.3610  173.9060  137.6010 O   0  0  0  0  0  1  0  0  0  0  0  0
  180.3400  177.3450  135.7190 O   0  0  0  0  0  0  0  0  0  0  0  0
  179.3970  179.1720  135.0970 C   0  0  0  0  0  1  0  0  0  0  0  0
  179.1980  177.8020  135.2450 O   0  0  0  0  0  0  0  0  0  0  0  0
  184.6580  177.1980  135.9180 C   0  0  1  0  0  3  0  0  0  0  0  0
  184.2890  175.1360  134.6220 C   0  0  0  0  0  2  0  0  0  0  0  0
  185.0810  175.7480  135.7620 C   0  0  2  0  0  3  0  0  0  0  0  0
  183.6400  176.1310  135.5650 C   0  0  1  0  0  3  0  0  0  0  0  0
  186.8200  178.7840  137.2150 C   0  0  0  0  0  2  0  0  0  0  0  0
  189.0470  179.5060  137.7330 O   0  0  0  0  0  1  0  0  0  0  0  0
  188.3020  178.4380  137.2230 C   0  0  1  0  0  3  0  0  0  0  0  0
  188.5620  177.1610  138.0250 C   0  0  0  0  0  2  0  0  0  0  0  0
  190.9810  176.7080  137.5440 C   0  0  0  0  0  0  0  0  0  0  0  0
  192.3150  176.6470  137.9320 O   0  0  0  0  0  1  0  0  0  0  0  0
  191.3880  177.1900  140.3390 O   0  0  0  0  0  0  0  0  0  0  0  0
  190.2390  177.3940  139.8590 C   0  0  0  0  0  0  0  0  0  0  0  0
  190.6830  176.4410  136.3500 O   0  0  0  0  0  0  0  0  0  0  0  0
  189.9500  177.0720  138.4850 N   0  0  0  0  0  0  0  0  0  0  0  0
  189.2270  177.9220  140.6680 O   0  0  0  0  0  0  0  0  0  0  0  0
  189.0600  177.5180  142.3300 P   0  0  0  0  0  0  0  0  0  0  0  0
  187.4330  177.6600  142.7700 O   0  0  0  0  0  1  0  0  0  0  0  0
  189.5750  175.9270  142.5800 O   0  0  0  0  0  0  0  0  0  0  0  0
  189.8840  178.4580  143.1770 O   0  0  0  0  0  1  0  0  0  0  0  0
  1  3  1  1  0  0  0
  2  9  2  0  0  0  0
  4 23  1  6  0  0  0
  4  7  1  0  0  0  0
  4  5  1  0  0  0  0
  5 27  1  6  0  0  0
  5  8  1  0  0  0  0
  6  2  1  1  0  0  0
  6  1  1  0  0  0  0
  7 10  1  0  0  0  0
  7  6  1  0  0  0  0
  8  1  1  0  0  0  0
 10 15  1  0  0  0  0
 10  2  1  0  0  0  0
 11 12  1  0  0  0  0
 11 16  1  0  0  0  0
 14 11  1  0  0  0  0
 15 13  1  0  0  0  0
 16 13  1  0  0  0  0
 17 14  1  0  0  0  0
 17 15  1  0  0  0  0
 18 16  1  0  0  0  0
 19 18  1  0  0  0  0
 20 17  1  0  0  0  0
 21 22  1  0  0  0  0
 22 20  1  0  0  0  0
 24 26  1  0  0  0  0
 24 25  1  0  0  0  0
 25 23  1  0  0  0  0
 26 25  1  0  0  0  0
 26 23  1  0  0  0  0
 27 29  1  0  0  0  0
 29 28  1  0  0  0  0
 29 30  1  0  0  0  0
 30 36  1  0  0  0  0
 31 32  1  0  0  0  0
 31 36  1  0  0  0  0
 34 33  2  0  0  0  0
 34 37  1  0  0  0  0
 35 31  2  0  0  0  0
 36 34  1  0  0  0  0
 37 38  1  0  0  0  0
 38 40  2  0  0  0  0
 38 39  1  0  0  0  0
 38 41  1  0  0  0  0
M  END
>  <MODEL>
9

>  <REMARK>
 VINA RESULT:      -4.4      3.176      5.941
  Name = 
  11 active torsions:
  status: ('A' for Active; 'I' for Inactive)
    1  A    between atoms: C_4  and  C_21
    2  A    between atoms: C_13  and  O_18
    3  A    between atoms: O_14  and  C_23
    4  A    between atoms: O_14  and  O_24
    5  A    between atoms: C_15  and  C_37
    6  A    between atoms: O_18  and  P_31
    7  A    between atoms: C_20  and  C_25
    8  A    between atoms: C_26  and  C_39
    9  A    between atoms: N_29  and  C_38
   10  A    between atoms: C_38  and  C_40
   11  A    between atoms: C_39  and  C_40
                            x       y       z     vdW  Elec       q    Type
                         _______ _______ _______ _____ _____    ______ ____

>  <TORSDO>
F 11

$$$$
