=
 OpenBabel11062416303D

 29 32  0  0  1  0  0  0  0  0999 V2000
  187.6040  177.7170  145.6790 C   0  0  1  0  0  3  0  0  0  0  0  0
  185.8090  178.1830  147.2580 N   0  0  0  0  0  1  0  0  0  0  0  0
  190.9650  176.9630  146.3340 C   0  0  0  0  0  0  0  0  0  0  0  0
  184.6980  178.3270  142.8860 C   0  0  0  0  0  0  0  0  0  0  0  0
  187.1900  177.8170  143.2600 N   0  0  0  0  0  0  0  0  0  0  0  0
  188.1910  178.0690  144.3130 C   0  0  2  0  0  3  0  0  0  0  0  0
  189.5610  177.3610  144.3000 C   0  0  2  0  0  0  0  0  0  0  0  0
  192.0400  176.6360  146.8520 O   0  0  0  0  0  0  0  0  0  0  0  0
  184.1880  178.9610  144.9040 N   0  0  0  0  0  0  0  0  0  0  0  0
  184.5320  177.9960  141.5120 N   0  0  0  0  0  1  0  0  0  0  0  0
  185.8550  178.2300  143.6200 C   0  0  0  0  0  0  0  0  0  0  0  0
  188.7160  177.6500  146.5410 O   0  0  0  0  0  0  0  0  0  0  0  0
  185.4940  178.6240  144.8920 C   0  0  0  0  0  0  0  0  0  0  0  0
  189.8300  177.3080  145.7860 C   0  0  0  0  0  0  0  0  0  0  0  0
  183.7020  178.7740  143.6800 N   0  0  0  0  0  2  0  0  0  0  0  0
  186.4620  178.6640  146.0530 C   0  0  2  0  0  3  0  0  0  0  0  0
  190.6060  179.5410  144.1640 O   0  0  0  0  0  1  0  0  0  0  0  0
  190.6140  178.2500  143.6350 C   0  0  0  0  0  2  0  0  0  0  0  0
  189.5610  175.9530  143.6720 C   0  0  0  0  0  2  0  0  0  0  0  0
  190.8920  175.5590  143.0440 C   0  0  0  0  0  1  0  0  0  0  0  0
  187.5550  177.5300  141.8780 C   0  0  0  0  0  2  0  0  0  0  0  0
  187.9550  178.8150  141.1570 C   0  0  0  0  0  2  0  0  0  0  0  0
  187.9810  178.1980  138.7030 C   0  0  0  0  0  2  0  0  0  0  0  0
  189.8070  177.4150  140.1490 C   0  0  0  0  0  2  0  0  0  0  0  0
  188.3070  176.5860  136.8130 C   0  0  0  0  0  1  0  0  0  0  0  0
  188.3930  176.7930  138.3160 C   0  0  1  0  0  3  0  0  0  0  0  0
  190.7660  177.0800  138.0090 O   0  0  0  0  0  1  0  0  0  0  0  0
  188.8180  178.5530  139.9240 C   0  0  2  0  0  3  0  0  0  0  0  0
  189.7910  176.5860  138.8810 C   0  0  1  0  0  3  0  0  0  0  0  0
  1 16  1  0  0  0  0
  1 12  1  1  0  0  0
  3  8  2  0  0  0  0
  4 11  2  0  0  0  0
  4 15  1  0  0  0  0
  5 11  1  0  0  0  0
  6  5  1  6  0  0  0
  6  1  1  0  0  0  0
  7 18  1  6  0  0  0
  7  6  1  0  0  0  0
  7 14  1  0  0  0  0
 10  4  1  0  0  0  0
 11 13  1  0  0  0  0
 13  9  2  0  0  0  0
 13 16  1  0  0  0  0
 14  3  2  0  0  0  0
 14 12  1  0  0  0  0
 15  9  1  0  0  0  0
 16  2  1  1  0  0  0
 18 17  1  0  0  0  0
 19  7  1  0  0  0  0
 20 19  1  0  0  0  0
 21  5  1  0  0  0  0
 22 21  1  0  0  0  0
 23 28  1  0  0  0  0
 26 25  1  6  0  0  0
 26 23  1  0  0  0  0
 26 29  1  0  0  0  0
 28 24  1  0  0  0  0
 28 22  1  1  0  0  0
 29 27  1  6  0  0  0
 29 24  1  0  0  0  0
M  END
>  <MODEL>
1

>  <REMARK>
 VINA RESULT:      -7.9      0.000      0.000
  Name = 
  5 active torsions:
  status: ('A' for Active; 'I' for Inactive)
    1  A    between atoms: C_2  and  N_12
    2  A    between atoms: C_2  and  C_23
    3  A    between atoms: C_4  and  C_14
    4  A    between atoms: C_8  and  C_14
    5  A    between atoms: C_23  and  C_25
                            x       y       z     vdW  Elec       q    Type
                         _______ _______ _______ _____ _____    ______ ____

>  <TORSDO>
F 5

$$$$
=
 OpenBabel11062416303D

 29 32  0  0  1  0  0  0  0  0999 V2000
  189.2960  178.2240  139.8230 C   0  0  1  0  0  3  0  0  0  0  0  0
  188.1600  178.7000  137.7210 N   0  0  0  0  0  1  0  0  0  0  0  0
  192.6160  177.2270  140.3490 C   0  0  0  0  0  0  0  0  0  0  0  0
  185.6750  179.1240  141.4640 C   0  0  0  0  0  0  0  0  0  0  0  0
  188.0750  178.3420  141.9510 N   0  0  0  0  0  0  0  0  0  0  0  0
  189.1400  177.6300  141.2220 C   0  0  2  0  0  3  0  0  0  0  0  0
  190.5820  177.5730  141.7670 C   0  0  2  0  0  0  0  0  0  0  0  0
  193.8250  176.9830  140.2420 O   0  0  0  0  0  0  0  0  0  0  0  0
  185.6630  178.8220  139.3100 N   0  0  0  0  0  0  0  0  0  0  0  0
  185.2170  179.4940  142.7610 N   0  0  0  0  0  1  0  0  0  0  0  0
  186.9180  178.6380  141.1420 C   0  0  2  0  0  3  0  0  0  0  0  0
  190.5330  177.7350  139.3600 O   0  0  0  0  0  0  0  0  0  0  0  0
  186.8810  178.4730  139.7720 C   0  0  0  0  0  0  0  0  0  0  0  0
  191.3400  177.4860  140.4630 C   0  0  0  0  0  0  0  0  0  0  0  0
  184.9290  179.2240  140.3440 N   0  0  0  0  0  0  0  0  0  0  0  0
  188.0540  177.9610  138.9680 C   0  0  2  0  0  3  0  0  0  0  0  0
  189.7080  175.4210  142.4550 O   0  0  0  0  0  1  0  0  0  0  0  0
  190.8020  176.2800  142.5570 C   0  0  0  0  0  2  0  0  0  0  0  0
  191.0150  178.7990  142.5950 C   0  0  0  0  0  2  0  0  0  0  0  0
  191.7890  178.4460  143.8590 C   0  0  0  0  0  1  0  0  0  0  0  0
  188.0280  178.4130  143.4070 C   0  0  0  0  0  2  0  0  0  0  0  0
  187.2410  177.2320  143.9710 C   0  0  0  0  0  2  0  0  0  0  0  0
  187.0840  177.3950  146.4910 C   0  0  0  0  0  2  0  0  0  0  0  0
  189.2810  177.0310  145.4550 C   0  0  0  0  0  2  0  0  0  0  0  0
  187.8740  178.2050  148.7260 C   0  0  0  0  0  1  0  0  0  0  0  0
  188.1500  178.1740  147.2320 C   0  0  1  0  0  3  0  0  0  0  0  0
  189.7480  176.4300  147.6980 O   0  0  0  0  0  1  0  0  0  0  0  0
  187.7920  176.7450  145.3100 C   0  0  2  0  0  3  0  0  0  0  0  0
  189.4800  177.5260  146.8720 C   0  0  1  0  0  3  0  0  0  0  0  0
  1 12  1  6  0  0  0
  1  6  1  0  0  0  0
  3 14  2  0  0  0  0
  4 10  1  0  0  0  0
  5 21  1  0  0  0  0
  6  7  1  0  0  0  0
  6  5  1  1  0  0  0
  7 18  1  1  0  0  0
  7 19  1  0  0  0  0
  8  3  2  0  0  0  0
  9 13  2  0  0  0  0
  9 15  1  0  0  0  0
 11 13  1  6  0  0  0
 11  4  1  0  0  0  0
 11  5  1  0  0  0  0
 12 14  1  0  0  0  0
 14  7  1  0  0  0  0
 15  4  2  0  0  0  0
 16  2  1  6  0  0  0
 16 13  1  0  0  0  0
 16  1  1  0  0  0  0
 17 18  1  0  0  0  0
 19 20  1  0  0  0  0
 21 22  1  0  0  0  0
 23 26  1  0  0  0  0
 24 29  1  0  0  0  0
 26 25  1  1  0  0  0
 28 22  1  6  0  0  0
 28 24  1  0  0  0  0
 28 23  1  0  0  0  0
 29 26  1  0  0  0  0
 29 27  1  1  0  0  0
M  END
>  <MODEL>
2

>  <REMARK>
 VINA RESULT:      -7.7      2.127      5.991
  Name = 
  5 active torsions:
  status: ('A' for Active; 'I' for Inactive)
    1  A    between atoms: C_2  and  N_12
    2  A    between atoms: C_2  and  C_23
    3  A    between atoms: C_4  and  C_14
    4  A    between atoms: C_8  and  C_14
    5  A    between atoms: C_23  and  C_25
                            x       y       z     vdW  Elec       q    Type
                         _______ _______ _______ _____ _____    ______ ____

>  <TORSDO>
F 5

$$$$
=
 OpenBabel11062416303D

 29 32  0  0  1  0  0  0  0  0999 V2000
  185.2870  177.4110  138.0630 C   0  0  1  0  0  3  0  0  0  0  0  0
  186.9220  176.2960  136.6430 N   0  0  0  0  0  1  0  0  0  0  0  0
  181.8210  177.6930  137.6170 C   0  0  0  0  0  0  0  0  0  0  0  0
  188.5450  178.3050  140.3450 C   0  0  0  0  0  0  0  0  0  0  0  0
  186.0060  178.6110  140.0820 N   0  0  0  0  0  0  0  0  0  0  0  0
  185.0330  178.6110  138.9740 C   0  0  2  0  0  3  0  0  0  0  0  0
  183.5150  178.5650  139.2410 C   0  0  2  0  0  0  0  0  0  0  0  0
  180.6440  177.5550  137.2610 O   0  0  0  0  0  0  0  0  0  0  0  0
  188.9910  177.5500  138.3530 N   0  0  0  0  0  0  0  0  0  0  0  0
  188.7530  178.7130  141.6920 N   0  0  0  0  0  1  0  0  0  0  0  0
  187.3450  178.2610  139.6770 C   0  0  2  0  0  3  0  0  0  0  0  0
  184.1240  177.3060  137.2750 O   0  0  0  0  0  0  0  0  0  0  0  0
  187.6610  177.7660  138.4280 C   0  0  0  0  0  0  0  0  0  0  0  0
  183.0630  177.8390  137.9950 C   0  0  0  0  0  0  0  0  0  0  0  0
  189.5280  177.8750  139.5270 N   0  0  0  0  0  0  0  0  0  0  0  0
  186.6330  177.5350  137.3450 C   0  0  2  0  0  3  0  0  0  0  0  0
  183.8770  180.9270  138.8490 O   0  0  0  0  0  1  0  0  0  0  0  0
  182.9290  179.9780  139.2340 C   0  0  0  0  0  2  0  0  0  0  0  0
  183.1020  177.8090  140.5190 C   0  0  0  0  0  2  0  0  0  0  0  0
  182.0610  178.5410  141.3580 C   0  0  0  0  0  1  0  0  0  0  0  0
  185.7370  179.2480  141.3660 C   0  0  0  0  0  2  0  0  0  0  0  0
  185.6190  178.1960  142.4670 C   0  0  0  0  0  2  0  0  0  0  0  0
  187.0060  178.1010  144.5810 C   0  0  0  0  0  2  0  0  0  0  0  0
  184.6150  178.6410  144.7470 C   0  0  0  0  0  2  0  0  0  0  0  0
  187.3900  177.4440  146.9680 C   0  0  0  0  0  1  0  0  0  0  0  0
  186.4050  177.4530  145.8110 C   0  0  1  0  0  3  0  0  0  0  0  0
  185.3770  179.3570  146.8730 O   0  0  0  0  0  1  0  0  0  0  0  0
  185.8480  178.7770  143.8610 C   0  0  2  0  0  3  0  0  0  0  0  0
  185.1210  178.2140  146.1100 C   0  0  1  0  0  3  0  0  0  0  0  0
  1 12  1  6  0  0  0
  1  6  1  0  0  0  0
  3 14  2  0  0  0  0
  4 10  1  0  0  0  0
  5 21  1  0  0  0  0
  6  7  1  0  0  0  0
  6  5  1  1  0  0  0
  7 18  1  1  0  0  0
  7 19  1  0  0  0  0
  8  3  2  0  0  0  0
  9 13  2  0  0  0  0
  9 15  1  0  0  0  0
 11 13  1  1  0  0  0
 11  5  1  0  0  0  0
 11  4  1  0  0  0  0
 12 14  1  0  0  0  0
 14  7  1  0  0  0  0
 15  4  2  0  0  0  0
 16  2  1  1  0  0  0
 16  1  1  0  0  0  0
 16 13  1  0  0  0  0
 17 18  1  0  0  0  0
 19 20  1  0  0  0  0
 21 22  1  0  0  0  0
 23 26  1  0  0  0  0
 24 29  1  0  0  0  0
 26 29  1  0  0  0  0
 26 25  1  1  0  0  0
 28 22  1  6  0  0  0
 28 23  1  0  0  0  0
 28 24  1  0  0  0  0
 29 27  1  1  0  0  0
M  END
>  <MODEL>
3

>  <REMARK>
 VINA RESULT:      -7.1      3.999      8.250
  Name = 
  5 active torsions:
  status: ('A' for Active; 'I' for Inactive)
    1  A    between atoms: C_2  and  N_12
    2  A    between atoms: C_2  and  C_23
    3  A    between atoms: C_4  and  C_14
    4  A    between atoms: C_8  and  C_14
    5  A    between atoms: C_23  and  C_25
                            x       y       z     vdW  Elec       q    Type
                         _______ _______ _______ _____ _____    ______ ____

>  <TORSDO>
F 5

$$$$
=
 OpenBabel11062416303D

 29 32  0  0  1  0  0  0  0  0999 V2000
  187.6880  177.6790  142.7910 C   0  0  1  0  0  3  0  0  0  0  0  0
  185.2930  178.0020  142.4830 N   0  0  0  0  0  1  0  0  0  0  0  0
  189.4560  177.0480  145.7520 C   0  0  0  0  0  0  0  0  0  0  0  0
  187.8290  178.2720  138.7600 C   0  0  0  0  0  0  0  0  0  0  0  0
  189.2220  177.8580  140.8820 N   0  0  0  0  0  0  0  0  0  0  0  0
  189.0770  178.1110  142.3270 C   0  0  2  0  0  3  0  0  0  0  0  0
  190.0330  177.4650  143.3510 C   0  0  2  0  0  0  0  0  0  0  0  0
  189.7960  176.7480  146.9030 O   0  0  0  0  0  0  0  0  0  0  0  0
  185.9430  178.8010  139.7060 N   0  0  0  0  0  0  0  0  0  0  0  0
  188.7710  177.9900  137.7300 N   0  0  0  0  0  1  0  0  0  0  0  0
  188.0480  178.1970  140.1140 C   0  0  2  0  0  3  0  0  0  0  0  0
  187.7780  177.6260  144.1960 O   0  0  0  0  0  0  0  0  0  0  0  0
  186.8330  178.5230  140.6800 C   0  0  0  0  0  0  0  0  0  0  0  0
  189.0990  177.3640  144.5350 C   0  0  0  0  0  0  0  0  0  0  0  0
  186.5520  178.6420  138.5340 N   0  0  0  0  0  0  0  0  0  0  0  0
  186.5980  178.5590  142.1740 C   0  0  2  0  0  3  0  0  0  0  0  0
  190.7040  179.7220  143.9170 O   0  0  0  0  0  1  0  0  0  0  0  0
  191.1720  178.4260  143.6970 C   0  0  0  0  0  2  0  0  0  0  0  0
  190.5860  176.0850  142.9460 C   0  0  0  0  0  2  0  0  0  0  0  0
  191.7840  175.6350  143.7740 C   0  0  0  0  0  1  0  0  0  0  0  0
  190.5160  177.6430  140.2450 C   0  0  0  0  0  2  0  0  0  0  0  0
  190.5320  176.3050  139.5100 C   0  0  0  0  0  2  0  0  0  0  0  0
  191.4460  174.9820  137.5570 C   0  0  0  0  0  2  0  0  0  0  0  0
  192.9130  176.5870  138.6990 C   0  0  0  0  0  2  0  0  0  0  0  0
  193.2190  173.6300  136.4140 C   0  0  0  0  0  1  0  0  0  0  0  0
  192.8540  174.4330  137.6510 C   0  0  1  0  0  3  0  0  0  0  0  0
  194.1170  176.2450  136.6880 O   0  0  0  0  0  1  0  0  0  0  0  0
  191.4680  176.3080  138.3030 C   0  0  2  0  0  3  0  0  0  0  0  0
  193.7640  175.6290  137.8920 C   0  0  1  0  0  3  0  0  0  0  0  0
  1 12  1  1  0  0  0
  3  8  2  0  0  0  0
  6  5  1  6  0  0  0
  6  1  1  0  0  0  0
  6  7  1  0  0  0  0
  7 19  1  6  0  0  0
  7 18  1  0  0  0  0
  7 14  1  0  0  0  0
  9 13  2  0  0  0  0
 10  4  1  0  0  0  0
 11  4  1  6  0  0  0
 11 13  1  0  0  0  0
 11  5  1  0  0  0  0
 12 14  1  0  0  0  0
 13 16  1  0  0  0  0
 14  3  2  0  0  0  0
 15  4  2  0  0  0  0
 15  9  1  0  0  0  0
 16  2  1  6  0  0  0
 16  1  1  0  0  0  0
 18 17  1  0  0  0  0
 19 20  1  0  0  0  0
 21  5  1  0  0  0  0
 22 21  1  0  0  0  0
 23 26  1  0  0  0  0
 23 28  1  0  0  0  0
 26 25  1  6  0  0  0
 26 29  1  0  0  0  0
 28 24  1  0  0  0  0
 28 22  1  1  0  0  0
 29 27  1  6  0  0  0
 29 24  1  0  0  0  0
M  END
>  <MODEL>
4

>  <REMARK>
 VINA RESULT:      -7.1      2.479      3.762
  Name = 
  5 active torsions:
  status: ('A' for Active; 'I' for Inactive)
    1  A    between atoms: C_2  and  N_12
    2  A    between atoms: C_2  and  C_23
    3  A    between atoms: C_4  and  C_14
    4  A    between atoms: C_8  and  C_14
    5  A    between atoms: C_23  and  C_25
                            x       y       z     vdW  Elec       q    Type
                         _______ _______ _______ _____ _____    ______ ____

>  <TORSDO>
F 5

$$$$
=
 OpenBabel11062416303D

 29 32  0  0  1  0  0  0  0  0999 V2000
  188.1890  177.3050  144.7950 C   0  0  1  0  0  3  0  0  0  0  0  0
  186.0250  177.0380  145.8810 N   0  0  0  0  0  1  0  0  0  0  0  0
  191.3850  176.6470  146.0760 C   0  0  0  0  0  0  0  0  0  0  0  0
  185.9450  178.6180  141.6540 C   0  0  0  0  0  0  0  0  0  0  0  0
  188.3330  178.2150  142.5180 N   0  0  0  0  0  0  0  0  0  0  0  0
  189.0060  178.1620  143.8290 C   0  0  2  0  0  3  0  0  0  0  0  0
  190.4420  177.6180  143.9700 C   0  0  2  0  0  0  0  0  0  0  0  0
  192.3510  176.2470  146.7380 O   0  0  0  0  0  0  0  0  0  0  0  0
  184.8820  178.4580  143.5460 N   0  0  0  0  0  0  0  0  0  0  0  0
  186.1610  178.7800  140.2570 N   0  0  0  0  0  1  0  0  0  0  0  0
  186.9010  178.3650  142.6080 C   0  0  2  0  0  3  0  0  0  0  0  0
  189.0660  177.0300  145.8620 O   0  0  0  0  0  0  0  0  0  0  0  0
  186.1940  178.2550  143.7870 C   0  0  0  0  0  0  0  0  0  0  0  0
  190.3650  177.0680  145.3750 C   0  0  0  0  0  0  0  0  0  0  0  0
  184.7320  178.6750  142.2420 N   0  0  0  0  0  0  0  0  0  0  0  0
  186.8460  177.9640  145.1200 C   0  0  2  0  0  3  0  0  0  0  0  0
  190.8240  180.0090  144.0460 O   0  0  0  0  0  1  0  0  0  0  0  0
  191.4520  178.7680  143.9400 C   0  0  0  0  0  2  0  0  0  0  0  0
  190.8280  176.5260  142.9530 C   0  0  0  0  0  2  0  0  0  0  0  0
  192.0850  176.8460  142.1540 C   0  0  0  0  0  1  0  0  0  0  0  0
  189.0520  178.4640  141.2740 C   0  0  0  0  0  2  0  0  0  0  0  0
  188.9960  177.2330  140.3730 C   0  0  0  0  0  2  0  0  0  0  0  0
  189.1880  177.9800  137.9630 C   0  0  0  0  0  2  0  0  0  0  0  0
  190.4490  176.0060  138.7020 C   0  0  0  0  0  2  0  0  0  0  0  0
  189.2710  177.5520  135.4960 C   0  0  0  0  0  1  0  0  0  0  0  0
  189.1960  176.9240  136.8770 C   0  0  1  0  0  3  0  0  0  0  0  0
  191.5590  176.5010  136.6690 O   0  0  0  0  0  1  0  0  0  0  0  0
  189.9060  177.3570  139.1510 C   0  0  2  0  0  3  0  0  0  0  0  0
  190.3630  175.9990  137.1900 C   0  0  1  0  0  3  0  0  0  0  0  0
  1 16  1  0  0  0  0
  1 12  1  1  0  0  0
  3  8  2  0  0  0  0
  4 15  2  0  0  0  0
  5 11  1  0  0  0  0
  6  5  1  6  0  0  0
  6  7  1  0  0  0  0
  6  1  1  0  0  0  0
  7 19  1  6  0  0  0
  7 14  1  0  0  0  0
  9 13  2  0  0  0  0
 10  4  1  0  0  0  0
 11  4  1  6  0  0  0
 11 13  1  0  0  0  0
 13 16  1  0  0  0  0
 14 12  1  0  0  0  0
 14  3  2  0  0  0  0
 15  9  1  0  0  0  0
 16  2  1  1  0  0  0
 18  7  1  0  0  0  0
 18 17  1  0  0  0  0
 20 19  1  0  0  0  0
 21  5  1  0  0  0  0
 22 21  1  0  0  0  0
 23 28  1  0  0  0  0
 24 28  1  0  0  0  0
 26 25  1  6  0  0  0
 26 29  1  0  0  0  0
 26 23  1  0  0  0  0
 28 22  1  1  0  0  0
 29 27  1  6  0  0  0
 29 24  1  0  0  0  0
M  END
>  <MODEL>
5

>  <REMARK>
 VINA RESULT:      -6.9      1.252      1.525
  Name = 
  5 active torsions:
  status: ('A' for Active; 'I' for Inactive)
    1  A    between atoms: C_2  and  N_12
    2  A    between atoms: C_2  and  C_23
    3  A    between atoms: C_4  and  C_14
    4  A    between atoms: C_8  and  C_14
    5  A    between atoms: C_23  and  C_25
                            x       y       z     vdW  Elec       q    Type
                         _______ _______ _______ _____ _____    ______ ____

>  <TORSDO>
F 5

$$$$
=
 OpenBabel11062416303D

 29 32  0  0  1  0  0  0  0  0999 V2000
  186.4060  178.6170  141.3970 C   0  0  1  0  0  3  0  0  0  0  0  0
  184.3480  179.2030  140.2330 N   0  0  0  0  0  1  0  0  0  0  0  0
  189.5570  177.8780  140.0480 C   0  0  0  0  0  0  0  0  0  0  0  0
  184.1000  179.0080  144.7350 C   0  0  0  0  0  0  0  0  0  0  0  0
  186.4340  178.4020  143.8430 N   0  0  0  0  0  0  0  0  0  0  0  0
  186.9990  177.8690  142.5890 C   0  0  2  0  0  3  0  0  0  0  0  0
  188.5180  177.8870  142.3260 C   0  0  2  0  0  0  0  0  0  0  0  0
  190.5490  177.7570  139.3180 O   0  0  0  0  0  0  0  0  0  0  0  0
  183.0020  178.9310  142.8580 N   0  0  0  0  0  0  0  0  0  0  0  0
  184.3550  179.1980  146.1230 N   0  0  0  0  0  1  0  0  0  0  0  0
  185.0190  178.6740  143.7700 C   0  0  0  0  0  0  0  0  0  0  0  0
  187.2490  178.2940  140.3150 O   0  0  0  0  0  0  0  0  0  0  0  0
  184.2950  178.6490  142.5960 C   0  0  0  0  0  0  0  0  0  0  0  0
  188.5100  178.0060  140.8190 C   0  0  0  0  0  0  0  0  0  0  0  0
  182.8860  179.1560  144.1640 N   0  0  0  0  0  2  0  0  0  0  0  0
  184.9090  178.3330  141.2510 C   0  0  2  0  0  3  0  0  0  0  0  0
  188.1690  175.5860  142.9960 O   0  0  0  0  0  1  0  0  0  0  0  0
  189.1420  176.5450  142.7150 C   0  0  0  0  0  2  0  0  0  0  0  0
  189.2800  179.0550  142.9830 C   0  0  0  0  0  2  0  0  0  0  0  0
  190.6960  178.6990  143.4180 C   0  0  0  0  0  1  0  0  0  0  0  0
  187.1310  178.3160  145.1210 C   0  0  0  0  0  2  0  0  0  0  0  0
  186.9360  176.9350  145.7410 C   0  0  0  0  0  2  0  0  0  0  0  0
  188.0840  177.3900  147.9490 C   0  0  0  0  0  2  0  0  0  0  0  0
  189.4400  176.6990  146.0220 C   0  0  0  0  0  2  0  0  0  0  0  0
  189.9210  178.3610  149.3480 C   0  0  0  0  0  1  0  0  0  0  0  0
  189.4010  178.1370  147.9390 C   0  0  1  0  0  3  0  0  0  0  0  0
  190.9620  176.3070  147.7950 O   0  0  0  0  0  1  0  0  0  0  0  0
  188.0750  176.5470  146.6820 C   0  0  2  0  0  3  0  0  0  0  0  0
  190.3450  177.3250  147.0620 C   0  0  1  0  0  3  0  0  0  0  0  0
  1 12  1  6  0  0  0
  1  6  1  0  0  0  0
  3 14  2  0  0  0  0
  4 10  1  0  0  0  0
  5 21  1  0  0  0  0
  6  5  1  1  0  0  0
  7  6  1  0  0  0  0
  7 18  1  1  0  0  0
  7 19  1  0  0  0  0
  8  3  2  0  0  0  0
  9 15  1  0  0  0  0
 11  5  1  0  0  0  0
 11  4  2  0  0  0  0
 12 14  1  0  0  0  0
 13  9  2  0  0  0  0
 13 11  1  0  0  0  0
 14  7  1  0  0  0  0
 15  4  1  0  0  0  0
 16  2  1  6  0  0  0
 16  1  1  0  0  0  0
 16 13  1  0  0  0  0
 18 17  1  0  0  0  0
 19 20  1  0  0  0  0
 21 22  1  0  0  0  0
 24 28  1  0  0  0  0
 24 29  1  0  0  0  0
 26 23  1  0  0  0  0
 26 25  1  1  0  0  0
 28 22  1  6  0  0  0
 28 23  1  0  0  0  0
 29 27  1  1  0  0  0
 29 26  1  0  0  0  0
M  END
>  <MODEL>
6

>  <REMARK>
 VINA RESULT:      -6.4      1.809      5.877
  Name = 
  5 active torsions:
  status: ('A' for Active; 'I' for Inactive)
    1  A    between atoms: C_2  and  N_12
    2  A    between atoms: C_2  and  C_23
    3  A    between atoms: C_4  and  C_14
    4  A    between atoms: C_8  and  C_14
    5  A    between atoms: C_23  and  C_25
                            x       y       z     vdW  Elec       q    Type
                         _______ _______ _______ _____ _____    ______ ____

>  <TORSDO>
F 5

$$$$
=
 OpenBabel11062416303D

 29 32  0  0  1  0  0  0  0  0999 V2000
  186.5440  178.0910  143.7710 C   0  0  1  0  0  3  0  0  0  0  0  0
  184.2710  178.8780  144.1600 N   0  0  0  0  0  1  0  0  0  0  0  0
  188.9700  177.1370  146.1150 C   0  0  0  0  0  0  0  0  0  0  0  0
  185.5760  178.6270  139.8470 C   0  0  0  0  0  0  0  0  0  0  0  0
  187.4380  177.9560  141.4880 N   0  0  0  0  0  0  0  0  0  0  0  0
  187.7850  178.2390  142.8930 C   0  0  2  0  0  3  0  0  0  0  0  0
  188.8660  177.4220  143.6300 C   0  0  2  0  0  0  0  0  0  0  0  0
  189.5780  176.7820  147.1330 O   0  0  0  0  0  0  0  0  0  0  0  0
  184.1940  179.5210  141.2700 N   0  0  0  0  0  0  0  0  0  0  0  0
  186.0950  178.1610  138.6060 N   0  0  0  0  0  1  0  0  0  0  0  0
  186.1740  178.5170  141.0790 C   0  0  2  0  0  3  0  0  0  0  0  0
  187.0400  178.0280  145.0880 O   0  0  0  0  0  0  0  0  0  0  0  0
  185.2670  179.0770  141.9550 C   0  0  0  0  0  0  0  0  0  0  0  0
  188.3290  177.5120  145.0400 C   0  0  0  0  0  0  0  0  0  0  0  0
  184.3820  179.2400  139.9830 N   0  0  0  0  0  0  0  0  0  0  0  0
  185.5030  179.1660  143.4460 C   0  0  2  0  0  3  0  0  0  0  0  0
  190.1750  179.3710  144.2240 O   0  0  0  0  0  1  0  0  0  0  0  0
  190.2150  178.1420  143.5650 C   0  0  0  0  0  2  0  0  0  0  0  0
  189.0040  175.9580  143.1680 C   0  0  0  0  0  2  0  0  0  0  0  0
  190.4360  175.5490  142.8430 C   0  0  0  0  0  1  0  0  0  0  0  0
  188.4180  177.4880  140.5140 C   0  0  0  0  0  2  0  0  0  0  0  0
  189.1220  178.6740  139.8570 C   0  0  0  0  0  2  0  0  0  0  0  0
  189.3900  178.4530  137.3510 C   0  0  0  0  0  2  0  0  0  0  0  0
  190.4440  176.7840  138.8130 C   0  0  0  0  0  2  0  0  0  0  0  0
  189.4310  177.1360  135.2200 C   0  0  0  0  0  1  0  0  0  0  0  0
  189.2910  177.0750  136.7320 C   0  0  1  0  0  3  0  0  0  0  0  0
  191.6000  176.3830  136.7850 O   0  0  0  0  0  1  0  0  0  0  0  0
  190.0410  178.2500  138.7120 C   0  0  2  0  0  3  0  0  0  0  0  0
  190.3580  176.2250  137.4080 C   0  0  1  0  0  3  0  0  0  0  0  0
  1 12  1  1  0  0  0
  3  8  2  0  0  0  0
  4 15  2  0  0  0  0
  6  5  1  6  0  0  0
  6  7  1  0  0  0  0
  6  1  1  0  0  0  0
  7 19  1  6  0  0  0
  7 14  1  0  0  0  0
  9 13  2  0  0  0  0
 10  4  1  0  0  0  0
 11  4  1  1  0  0  0
 11  5  1  0  0  0  0
 11 13  1  0  0  0  0
 13 16  1  0  0  0  0
 14 12  1  0  0  0  0
 14  3  2  0  0  0  0
 15  9  1  0  0  0  0
 16  1  1  0  0  0  0
 16  2  1  1  0  0  0
 18  7  1  0  0  0  0
 18 17  1  0  0  0  0
 20 19  1  0  0  0  0
 21  5  1  0  0  0  0
 22 21  1  0  0  0  0
 23 28  1  0  0  0  0
 26 25  1  6  0  0  0
 26 23  1  0  0  0  0
 26 29  1  0  0  0  0
 28 24  1  0  0  0  0
 28 22  1  1  0  0  0
 29 27  1  6  0  0  0
 29 24  1  0  0  0  0
M  END
>  <MODEL>
7

>  <REMARK>
 VINA RESULT:      -6.2      1.518      2.224
  Name = 
  5 active torsions:
  status: ('A' for Active; 'I' for Inactive)
    1  A    between atoms: C_2  and  N_12
    2  A    between atoms: C_2  and  C_23
    3  A    between atoms: C_4  and  C_14
    4  A    between atoms: C_8  and  C_14
    5  A    between atoms: C_23  and  C_25
                            x       y       z     vdW  Elec       q    Type
                         _______ _______ _______ _____ _____    ______ ____

>  <TORSDO>
F 5

$$$$
=
 OpenBabel11062416303D

 29 32  0  0  1  0  0  0  0  0999 V2000
  188.3480  177.7800  139.1800 C   0  0  1  0  0  3  0  0  0  0  0  0
  187.9860  178.6520  141.4260 N   0  0  0  0  0  1  0  0  0  0  0  0
  186.0360  177.4050  136.5710 C   0  0  0  0  0  0  0  0  0  0  0  0
  192.1850  177.3020  140.4700 C   0  0  0  0  0  0  0  0  0  0  0  0
  190.5570  176.9400  138.5140 N   0  0  0  0  0  0  0  0  0  0  0  0
  189.1050  176.7470  138.3470 C   0  0  2  0  0  3  0  0  0  0  0  0
  188.4420  176.8290  136.9560 C   0  0  2  0  0  0  0  0  0  0  0  0
  185.0530  177.4740  135.8220 O   0  0  0  0  0  0  0  0  0  0  0  0
  190.7290  177.7150  142.0340 N   0  0  0  0  0  0  0  0  0  0  0  0
  193.4490  177.1260  139.8390 N   0  0  0  0  0  1  0  0  0  0  0  0
  190.9510  177.2250  139.8720 C   0  0  0  0  0  0  0  0  0  0  0  0
  187.0290  177.7440  138.6850 O   0  0  0  0  0  0  0  0  0  0  0  0
  190.0570  177.5060  140.8840 C   0  0  0  0  0  0  0  0  0  0  0  0
  187.0760  177.3320  137.3600 C   0  0  0  0  0  0  0  0  0  0  0  0
  192.0300  177.5950  141.7780 N   0  0  0  0  0  2  0  0  0  0  0  0
  188.5590  177.5460  140.6780 C   0  0  2  0  0  3  0  0  0  0  0  0
  187.8690  174.5010  137.3000 O   0  0  0  0  0  1  0  0  0  0  0  0
  188.2980  175.4300  136.3520 C   0  0  0  0  0  2  0  0  0  0  0  0
  189.1290  177.7860  135.9620 C   0  0  0  0  0  2  0  0  0  0  0  0
  189.3890  177.1680  134.5940 C   0  0  0  0  0  1  0  0  0  0  0  0
  191.5280  176.5260  137.5070 C   0  0  0  0  0  2  0  0  0  0  0  0
  191.6920  175.0080  137.5200 C   0  0  0  0  0  2  0  0  0  0  0  0
  193.9370  173.8410  137.5220 C   0  0  0  0  0  2  0  0  0  0  0  0
  193.5580  175.6920  135.9530 C   0  0  0  0  0  2  0  0  0  0  0  0
  196.4410  173.8250  137.4550 C   0  0  0  0  0  1  0  0  0  0  0  0
  195.1890  174.6820  137.3890 C   0  0  1  0  0  3  0  0  0  0  0  0
  195.4810  174.6920  134.9970 O   0  0  0  0  0  1  0  0  0  0  0  0
  192.8780  174.5380  136.6800 C   0  0  2  0  0  3  0  0  0  0  0  0
  195.0480  175.4550  136.0850 C   0  0  1  0  0  3  0  0  0  0  0  0
  1 12  1  1  0  0  0
  1 16  1  0  0  0  0
  3 14  2  0  0  0  0
  4 15  1  0  0  0  0
  5 11  1  0  0  0  0
  6  5  1  6  0  0  0
  6  1  1  0  0  0  0
  7 19  1  6  0  0  0
  7 14  1  0  0  0  0
  7  6  1  0  0  0  0
  8  3  2  0  0  0  0
 10  4  1  0  0  0  0
 11  4  2  0  0  0  0
 11 13  1  0  0  0  0
 13  9  2  0  0  0  0
 14 12  1  0  0  0  0
 15  9  1  0  0  0  0
 16 13  1  0  0  0  0
 16  2  1  1  0  0  0
 18  7  1  0  0  0  0
 18 17  1  0  0  0  0
 20 19  1  0  0  0  0
 21 22  1  0  0  0  0
 21  5  1  0  0  0  0
 24 29  1  0  0  0  0
 24 28  1  0  0  0  0
 26 25  1  6  0  0  0
 26 23  1  0  0  0  0
 28 22  1  1  0  0  0
 28 23  1  0  0  0  0
 29 27  1  6  0  0  0
 29 26  1  0  0  0  0
M  END
>  <MODEL>
8

>  <REMARK>
 VINA RESULT:      -5.8      4.423      7.717
  Name = 
  5 active torsions:
  status: ('A' for Active; 'I' for Inactive)
    1  A    between atoms: C_2  and  N_12
    2  A    between atoms: C_2  and  C_23
    3  A    between atoms: C_4  and  C_14
    4  A    between atoms: C_8  and  C_14
    5  A    between atoms: C_23  and  C_25
                            x       y       z     vdW  Elec       q    Type
                         _______ _______ _______ _____ _____    ______ ____

>  <TORSDO>
F 5

$$$$
=
 OpenBabel11062416303D

 29 32  0  0  1  0  0  0  0  0999 V2000
  184.5680  178.2720  140.1690 C   0  0  1  0  0  3  0  0  0  0  0  0
  183.8280  177.8560  137.8850 N   0  0  0  0  0  1  0  0  0  0  0  0
  182.6310  178.7250  143.0560 C   0  0  0  0  0  0  0  0  0  0  0  0
  188.2900  178.1100  138.5140 C   0  0  0  0  0  0  0  0  0  0  0  0
  186.9580  178.5050  140.6780 N   0  0  0  0  0  0  0  0  0  0  0  0
  185.6080  178.9760  141.0370 C   0  0  2  0  0  3  0  0  0  0  0  0
  185.0640  178.8250  142.4720 C   0  0  2  0  0  0  0  0  0  0  0  0
  181.7250  178.7540  143.8980 O   0  0  0  0  0  0  0  0  0  0  0  0
  186.6520  178.2650  137.0900 N   0  0  0  0  0  0  0  0  0  0  0  0
  189.6090  177.9100  139.0120 N   0  0  0  0  0  1  0  0  0  0  0  0
  187.1610  178.3550  139.2580 C   0  0  2  0  0  3  0  0  0  0  0  0
  183.3380  178.5130  140.8140 O   0  0  0  0  0  0  0  0  0  0  0  0
  186.1440  178.4320  138.3290 C   0  0  0  0  0  0  0  0  0  0  0  0
  183.5890  178.6950  142.1680 C   0  0  0  0  0  0  0  0  0  0  0  0
  187.9620  178.0620  137.2070 N   0  0  0  0  0  0  0  0  0  0  0  0
  184.7000  178.6830  138.7010 C   0  0  2  0  0  3  0  0  0  0  0  0
  184.3710  180.2500  144.3040 O   0  0  0  0  0  1  0  0  0  0  0  0
  185.2950  180.1110  143.2680 C   0  0  0  0  0  2  0  0  0  0  0  0
  185.5940  177.6010  143.2450 C   0  0  0  0  0  2  0  0  0  0  0  0
  185.9900  177.9070  144.6840 C   0  0  0  0  0  1  0  0  0  0  0  0
  188.0790  178.5410  141.6110 C   0  0  0  0  0  2  0  0  0  0  0  0
  188.5060  177.1230  141.9840 C   0  0  0  0  0  2  0  0  0  0  0  0
  189.2890  176.5660  144.3240 C   0  0  0  0  0  2  0  0  0  0  0  0
  190.2830  178.4880  143.1610 C   0  0  0  0  0  2  0  0  0  0  0  0
  189.9500  177.1840  146.6610 C   0  0  0  0  0  1  0  0  0  0  0  0
  189.5290  177.7020  145.2960 C   0  0  1  0  0  3  0  0  0  0  0  0
  191.8620  178.1600  144.8970 O   0  0  0  0  0  1  0  0  0  0  0  0
  189.6850  177.1010  142.9560 C   0  0  2  0  0  3  0  0  0  0  0  0
  190.5620  178.6110  144.6440 C   0  0  1  0  0  3  0  0  0  0  0  0
  1 12  1  1  0  0  0
  1  6  1  0  0  0  0
  3  8  2  0  0  0  0
  4 10  1  0  0  0  0
  4 11  1  0  0  0  0
  5 21  1  0  0  0  0
  6  5  1  1  0  0  0
  6  7  1  0  0  0  0
  7 19  1  1  0  0  0
  7 18  1  0  0  0  0
  9 15  1  0  0  0  0
  9 13  2  0  0  0  0
 11 13  1  1  0  0  0
 11  5  1  0  0  0  0
 12 14  1  0  0  0  0
 13 16  1  0  0  0  0
 14  7  1  0  0  0  0
 14  3  2  0  0  0  0
 15  4  2  0  0  0  0
 16  2  1  6  0  0  0
 16  1  1  0  0  0  0
 18 17  1  0  0  0  0
 19 20  1  0  0  0  0
 21 22  1  0  0  0  0
 23 26  1  0  0  0  0
 24 29  1  0  0  0  0
 26 25  1  1  0  0  0
 28 22  1  6  0  0  0
 28 24  1  0  0  0  0
 28 23  1  0  0  0  0
 29 27  1  6  0  0  0
 29 26  1  0  0  0  0
M  END
>  <MODEL>
9

>  <REMARK>
 VINA RESULT:      -5.8      3.214      6.540
  Name = 
  5 active torsions:
  status: ('A' for Active; 'I' for Inactive)
    1  A    between atoms: C_2  and  N_12
    2  A    between atoms: C_2  and  C_23
    3  A    between atoms: C_4  and  C_14
    4  A    between atoms: C_8  and  C_14
    5  A    between atoms: C_23  and  C_25
                            x       y       z     vdW  Elec       q    Type
                         _______ _______ _______ _____ _____    ______ ____

>  <TORSDO>
F 5

$$$$
