=
 OpenBabel11062412443D

 32 35  0  0  1  0  0  0  0  0999 V2000
  190.9550  179.2870  143.8940 O   0  0  0  0  0  1  0  0  0  0  0  0
  189.4890  176.6330  144.7110 O   0  0  0  0  0  0  0  0  0  0  0  0
  189.0930  178.2100  142.9400 C   0  0  1  0  0  3  0  0  0  0  0  0
  188.5410  177.5390  144.1970 C   0  0  1  0  0  3  0  0  0  0  0  0
  190.7010  176.8900  144.0410 C   0  0  1  0  0  3  0  0  0  0  0  0
  190.5660  178.1440  143.1860 C   0  0  2  0  0  3  0  0  0  0  0  0
  191.8670  176.9420  145.0180 C   0  0  0  0  0  2  0  0  0  0  0  0
  191.5720  176.1550  146.1620 O   0  0  0  0  0  0  0  0  0  0  0  0
  191.3980  176.7270  147.4210 C   0  0  0  0  0  0  0  0  0  0  0  0
  190.1610  177.2520  147.7690 O   0  0  0  0  0  0  0  0  0  0  0  0
  192.3470  176.7690  148.2490 O   0  0  0  0  0  1  0  0  0  0  0  0
  187.1750  176.8790  144.0240 C   0  0  0  0  0  2  0  0  0  0  0  0
  186.1100  177.6480  144.7260 C   0  0  0  0  0  0  0  0  0  0  0  0
  186.1350  177.7620  146.1180 C   0  0  0  0  0  3  0  0  0  0  0  0
  184.1450  179.0820  146.0340 N   0  0  0  0  0  0  0  0  0  0  0  0
  185.0900  178.2650  143.9980 C   0  0  0  0  0  3  0  0  0  0  0  0
  185.1310  178.4910  146.7610 C   0  0  0  0  0  3  0  0  0  0  0  0
  184.1050  178.9850  144.6770 C   0  0  0  0  0  3  0  0  0  0  0  0
  188.7840  177.4490  141.6510 C   0  0  0  0  0  2  0  0  0  0  0  0
  188.5410  178.4240  140.5120 C   0  0  0  0  0  2  0  0  0  0  0  0
  189.1100  177.8880  139.2030 C   0  0  2  0  0  3  0  0  0  0  0  0
  186.6270  178.0480  138.7320 C   0  0  0  0  0  1  0  0  0  0  0  0
  188.0070  177.7890  138.1410 C   0  0  1  0  0  3  0  0  0  0  0  0
  188.2670  178.5860  136.8490 C   0  0  1  0  0  3  0  0  0  0  0  0
  189.0120  179.7250  137.1600 O   0  0  0  0  0  1  0  0  0  0  0  0
  188.1210  177.1910  134.5940 C   0  0  1  0  0  0  0  0  0  0  0  0
  186.9350  177.9800  134.6430 O   0  0  0  0  0  0  0  0  0  0  0  0
  186.7340  176.6200  134.5940 C   0  0  0  0  0  2  0  0  0  0  0  0
  188.9920  177.7730  135.7600 C   0  0  2  0  0  3  0  0  0  0  0  0
  188.5480  176.3730  135.8180 C   0  0  0  0  0  2  0  0  0  0  0  0
  189.7320  176.6500  139.4050 O   0  0  0  0  0  0  0  0  0  0  0  0
  190.9800  176.7650  138.7880 C   0  0  0  0  0  1  0  0  0  0  0  0
  3 19  1  6  0  0  0
  3  6  1  0  0  0  0
  3  4  1  0  0  0  0
  4 12  1  6  0  0  0
  4  2  1  0  0  0  0
  5  2  1  0  0  0  0
  5  7  1  1  0  0  0
  6  1  1  1  0  0  0
  6  5  1  0  0  0  0
  7  8  1  0  0  0  0
  8  9  1  0  0  0  0
  9 10  2  0  0  0  0
  9 11  1  0  0  0  0
 12 13  1  0  0  0  0
 13 14  1  0  0  0  0
 14 17  2  0  0  0  0
 15 17  1  0  0  0  0
 16 18  1  0  0  0  0
 16 13  2  0  0  0  0
 18 15  2  0  0  0  0
 20 19  1  0  0  0  0
 21 31  1  0  0  0  0
 21 20  1  1  0  0  0
 23 22  1  1  0  0  0
 23 21  1  0  0  0  0
 24 25  1  1  0  0  0
 24 23  1  0  0  0  0
 26 28  1  6  0  0  0
 26 27  1  0  0  0  0
 26 29  1  0  0  0  0
 26 30  1  0  0  0  0
 28 27  1  0  0  0  0
 29 30  1  0  0  0  0
 29 24  1  1  0  0  0
 32 31  1  0  0  0  0
M  END
>  <MODEL>
1

>  <REMARK>
 VINA RESULT:      -7.5      0.000      0.000
  Name = 
  12 active torsions:
  status: ('A' for Active; 'I' for Inactive)
    1  A    between atoms: C_1  and  O_10
    2  A    between atoms: C_1  and  C_25
    3  A    between atoms: C_2  and  C_12
    4  A    between atoms: C_2  and  C_21
    5  A    between atoms: C_6  and  O_10
    6  A    between atoms: C_11  and  C_15
    7  A    between atoms: C_11  and  C_18
    8  A    between atoms: C_15  and  O_16
    9  A    between atoms: C_15  and  C_20
   10  A    between atoms: C_18  and  C_19
   11  A    between atoms: C_20  and  C_23
   12  A    between atoms: C_23  and  C_24
                            x       y       z     vdW  Elec       q    Type
                         _______ _______ _______ _____ _____    ______ ____

>  <TORSDO>
F 12

$$$$
=
 OpenBabel11062412443D

 32 35  0  0  1  0  0  0  0  0999 V2000
  191.2090  178.9430  143.6590 O   0  0  0  0  0  1  0  0  0  0  0  0
  189.2820  176.5500  144.3050 O   0  0  0  0  0  0  0  0  0  0  0  0
  189.2660  178.2010  142.5580 C   0  0  1  0  0  3  0  0  0  0  0  0
  188.5290  177.6070  143.7580 C   0  0  1  0  0  3  0  0  0  0  0  0
  190.5610  176.6170  143.7210 C   0  0  1  0  0  3  0  0  0  0  0  0
  190.6890  177.8920  142.8950 C   0  0  2  0  0  3  0  0  0  0  0  0
  191.6530  176.4610  144.7710 C   0  0  0  0  0  2  0  0  0  0  0  0
  191.1110  176.6770  146.0650 O   0  0  0  0  0  0  0  0  0  0  0  0
  191.8350  176.3920  147.2210 C   0  0  0  0  0  0  0  0  0  0  0  0
  191.8100  177.2860  148.2820 O   0  0  0  0  0  1  0  0  0  0  0  0
  192.5060  175.3290  147.3170 O   0  0  0  0  0  0  0  0  0  0  0  0
  187.0890  177.1810  143.4800 C   0  0  0  0  0  2  0  0  0  0  0  0
  186.1450  177.8050  144.4490 C   0  0  0  0  0  0  0  0  0  0  0  0
  184.9790  178.4200  143.9880 C   0  0  0  0  0  3  0  0  0  0  0  0
  184.3840  178.9540  146.2390 N   0  0  0  0  0  0  0  0  0  0  0  0
  186.4150  177.7700  145.8190 C   0  0  0  0  0  3  0  0  0  0  0  0
  184.1010  178.9970  144.9090 C   0  0  0  0  0  3  0  0  0  0  0  0
  185.5120  178.3570  146.7080 C   0  0  0  0  0  3  0  0  0  0  0  0
  188.9250  177.5230  141.2310 C   0  0  0  0  0  2  0  0  0  0  0  0
  190.1650  176.8700  140.6440 C   0  0  0  0  0  2  0  0  0  0  0  0
  190.1680  176.9730  139.1230 C   0  0  2  0  0  3  0  0  0  0  0  0
  192.6530  177.1550  139.5740 C   0  0  0  0  0  1  0  0  0  0  0  0
  191.5810  176.7410  138.5730 C   0  0  1  0  0  3  0  0  0  0  0  0
  191.8300  175.3470  137.9690 C   0  0  1  0  0  3  0  0  0  0  0  0
  190.6420  174.6140  138.0130 O   0  0  0  0  0  1  0  0  0  0  0  0
  193.7390  174.6980  136.2410 C   0  0  1  0  0  0  0  0  0  0  0  0
  193.9000  173.8180  137.3510 O   0  0  0  0  0  0  0  0  0  0  0  0
  194.9850  174.6160  137.0710 C   0  0  0  0  0  2  0  0  0  0  0  0
  192.3610  175.3880  136.5240 C   0  0  2  0  0  3  0  0  0  0  0  0
  193.5820  176.2040  136.4740 C   0  0  0  0  0  2  0  0  0  0  0  0
  189.6610  178.2120  138.7110 O   0  0  0  0  0  0  0  0  0  0  0  0
  189.4080  178.0640  137.3440 C   0  0  0  0  0  1  0  0  0  0  0  0
  3 19  1  6  0  0  0
  3  6  1  0  0  0  0
  3  4  1  0  0  0  0
  4 12  1  6  0  0  0
  4  2  1  0  0  0  0
  5  2  1  0  0  0  0
  5  7  1  1  0  0  0
  6  1  1  1  0  0  0
  6  5  1  0  0  0  0
  7  8  1  0  0  0  0
  8  9  1  0  0  0  0
  9 11  2  0  0  0  0
  9 10  1  0  0  0  0
 12 13  1  0  0  0  0
 13 16  1  0  0  0  0
 14 13  2  0  0  0  0
 14 17  1  0  0  0  0
 15 18  1  0  0  0  0
 16 18  2  0  0  0  0
 17 15  2  0  0  0  0
 20 19  1  0  0  0  0
 21 20  1  1  0  0  0
 23 21  1  0  0  0  0
 23 22  1  1  0  0  0
 24 25  1  6  0  0  0
 24 23  1  0  0  0  0
 26 30  1  1  0  0  0
 26 29  1  0  0  0  0
 26 28  1  0  0  0  0
 26 27  1  0  0  0  0
 28 27  1  0  0  0  0
 29 24  1  1  0  0  0
 30 29  1  0  0  0  0
 31 21  1  0  0  0  0
 32 31  1  0  0  0  0
M  END
>  <MODEL>
2

>  <REMARK>
 VINA RESULT:      -7.4      1.961      3.488
  Name = 
  12 active torsions:
  status: ('A' for Active; 'I' for Inactive)
    1  A    between atoms: C_1  and  O_10
    2  A    between atoms: C_1  and  C_25
    3  A    between atoms: C_2  and  C_12
    4  A    between atoms: C_2  and  C_21
    5  A    between atoms: C_6  and  O_10
    6  A    between atoms: C_11  and  C_15
    7  A    between atoms: C_11  and  C_18
    8  A    between atoms: C_15  and  O_16
    9  A    between atoms: C_15  and  C_20
   10  A    between atoms: C_18  and  C_19
   11  A    between atoms: C_20  and  C_23
   12  A    between atoms: C_23  and  C_24
                            x       y       z     vdW  Elec       q    Type
                         _______ _______ _______ _____ _____    ______ ____

>  <TORSDO>
F 12

$$$$
=
 OpenBabel11062412443D

 32 35  0  0  1  0  0  0  0  0999 V2000
  191.3460  178.6690  143.2330 O   0  0  0  0  0  1  0  0  0  0  0  0
  189.2610  176.4660  144.0440 O   0  0  0  0  0  0  0  0  0  0  0  0
  189.3050  178.0520  142.2380 C   0  0  1  0  0  3  0  0  0  0  0  0
  188.5740  177.5630  143.4870 C   0  0  1  0  0  3  0  0  0  0  0  0
  190.5160  176.4080  143.4080 C   0  0  1  0  0  3  0  0  0  0  0  0
  190.7110  177.6390  142.5310 C   0  0  2  0  0  3  0  0  0  0  0  0
  191.6340  176.1990  144.4200 C   0  0  0  0  0  2  0  0  0  0  0  0
  191.2770  176.7870  145.6610 O   0  0  0  0  0  0  0  0  0  0  0  0
  191.8270  176.3510  146.8660 C   0  0  0  0  0  0  0  0  0  0  0  0
  192.4700  175.1220  146.9190 O   0  0  0  0  0  0  0  0  0  0  0  0
  191.7520  177.0610  147.9040 O   0  0  0  0  0  1  0  0  0  0  0  0
  187.0940  177.2470  143.2820 C   0  0  0  0  0  2  0  0  0  0  0  0
  186.2600  177.8380  144.3670 C   0  0  0  0  0  0  0  0  0  0  0  0
  185.0330  178.4290  144.0590 C   0  0  0  0  0  3  0  0  0  0  0  0
  184.7040  178.9240  146.3730 N   0  0  0  0  0  0  0  0  0  0  0  0
  186.6960  177.7950  145.6930 C   0  0  0  0  0  3  0  0  0  0  0  0
  184.2610  178.9740  145.0880 C   0  0  0  0  0  3  0  0  0  0  0  0
  185.8950  178.3500  146.6940 C   0  0  0  0  0  3  0  0  0  0  0  0
  188.8550  177.3590  140.9520 C   0  0  0  0  0  2  0  0  0  0  0  0
  188.6910  178.3790  139.8370 C   0  0  0  0  0  2  0  0  0  0  0  0
  187.5660  177.9770  138.8910 C   0  0  2  0  0  3  0  0  0  0  0  0
  189.0280  179.2560  137.2660 C   0  0  0  0  0  1  0  0  0  0  0  0
  188.0140  178.1310  137.4310 C   0  0  1  0  0  3  0  0  0  0  0  0
  188.4440  176.8260  136.7350 C   0  0  1  0  0  3  0  0  0  0  0  0
  187.6410  176.6250  135.6110 O   0  0  0  0  0  1  0  0  0  0  0  0
  190.6460  175.4180  136.2710 C   0  0  1  0  0  0  0  0  0  0  0  0
  189.5650  174.4920  136.1900 O   0  0  0  0  0  0  0  0  0  0  0  0
  190.5110  174.2090  137.1480 C   0  0  0  0  0  2  0  0  0  0  0  0
  189.9270  176.8100  136.3230 C   0  0  2  0  0  3  0  0  0  0  0  0
  190.7470  176.3760  137.4620 C   0  0  0  0  0  2  0  0  0  0  0  0
  186.4120  178.7280  139.1480 O   0  0  0  0  0  0  0  0  0  0  0  0
  185.4320  178.1860  138.3130 C   0  0  0  0  0  1  0  0  0  0  0  0
  3 19  1  6  0  0  0
  3  6  1  0  0  0  0
  3  4  1  0  0  0  0
  4 12  1  6  0  0  0
  4  2  1  0  0  0  0
  5  2  1  0  0  0  0
  5  7  1  1  0  0  0
  6  1  1  1  0  0  0
  6  5  1  0  0  0  0
  7  8  1  0  0  0  0
  8  9  1  0  0  0  0
  9 10  2  0  0  0  0
  9 11  1  0  0  0  0
 12 13  1  0  0  0  0
 13 16  1  0  0  0  0
 14 13  2  0  0  0  0
 14 17  1  0  0  0  0
 15 18  1  0  0  0  0
 16 18  2  0  0  0  0
 17 15  2  0  0  0  0
 20 19  1  0  0  0  0
 21 31  1  0  0  0  0
 21 20  1  1  0  0  0
 23 22  1  1  0  0  0
 23 21  1  0  0  0  0
 24 25  1  6  0  0  0
 24 23  1  0  0  0  0
 26 29  1  0  0  0  0
 26 28  1  6  0  0  0
 26 30  1  0  0  0  0
 27 26  1  0  0  0  0
 27 28  1  0  0  0  0
 29 24  1  1  0  0  0
 29 30  1  0  0  0  0
 32 31  1  0  0  0  0
M  END
>  <MODEL>
3

>  <REMARK>
 VINA RESULT:      -7.4      1.450      2.442
  Name = 
  12 active torsions:
  status: ('A' for Active; 'I' for Inactive)
    1  A    between atoms: C_1  and  O_10
    2  A    between atoms: C_1  and  C_25
    3  A    between atoms: C_2  and  C_12
    4  A    between atoms: C_2  and  C_21
    5  A    between atoms: C_6  and  O_10
    6  A    between atoms: C_11  and  C_15
    7  A    between atoms: C_11  and  C_18
    8  A    between atoms: C_15  and  O_16
    9  A    between atoms: C_15  and  C_20
   10  A    between atoms: C_18  and  C_19
   11  A    between atoms: C_20  and  C_23
   12  A    between atoms: C_23  and  C_24
                            x       y       z     vdW  Elec       q    Type
                         _______ _______ _______ _____ _____    ______ ____

>  <TORSDO>
F 12

$$$$
=
 OpenBabel11062412443D

 32 35  0  0  1  0  0  0  0  0999 V2000
  189.0610  179.5170  138.6160 O   0  0  0  0  0  1  0  0  0  0  0  0
  188.5670  176.5320  137.7760 O   0  0  0  0  0  0  0  0  0  0  0  0
  190.1640  177.5420  139.2630 C   0  0  1  0  0  3  0  0  0  0  0  0
  189.9460  176.7250  137.9900 C   0  0  1  0  0  3  0  0  0  0  0  0
  187.8950  177.4030  138.6550 C   0  0  1  0  0  3  0  0  0  0  0  0
  188.8960  178.3290  139.3360 C   0  0  2  0  0  3  0  0  0  0  0  0
  186.7700  178.1420  137.9420 C   0  0  0  0  0  2  0  0  0  0  0  0
  185.5470  177.9390  138.6330 O   0  0  0  0  0  0  0  0  0  0  0  0
  185.0470  178.8800  139.5320 C   0  0  0  0  0  0  0  0  0  0  0  0
  185.0340  178.5910  140.8890 O   0  0  0  0  0  1  0  0  0  0  0  0
  184.6120  179.9920  139.1270 O   0  0  0  0  0  0  0  0  0  0  0  0
  190.7080  175.4020  137.9390 C   0  0  0  0  0  2  0  0  0  0  0  0
  191.8220  175.4580  136.9510 C   0  0  0  0  0  0  0  0  0  0  0  0
  192.9430  176.2510  137.2100 C   0  0  0  0  0  3  0  0  0  0  0  0
  193.8970  175.5580  135.1320 N   0  0  0  0  0  0  0  0  0  0  0  0
  191.7560  174.7130  135.7720 C   0  0  0  0  0  3  0  0  0  0  0  0
  193.9820  176.2890  136.2760 C   0  0  0  0  0  3  0  0  0  0  0  0
  192.8150  174.7780  134.8630 C   0  0  0  0  0  3  0  0  0  0  0  0
  190.2790  176.6910  140.5270 C   0  0  0  0  0  2  0  0  0  0  0  0
  190.4680  177.5820  141.7430 C   0  0  0  0  0  2  0  0  0  0  0  0
  189.8930  176.9280  142.9940 C   0  0  2  0  0  3  0  0  0  0  0  0
  190.7690  179.1460  143.8490 C   0  0  0  0  0  1  0  0  0  0  0  0
  190.1780  177.7930  144.2300 C   0  0  1  0  0  3  0  0  0  0  0  0
  189.0180  177.9050  145.2350 C   0  0  1  0  0  3  0  0  0  0  0  0
  187.8100  177.9220  144.5340 O   0  0  0  0  0  1  0  0  0  0  0  0
  188.6500  177.1610  147.7570 C   0  0  1  0  0  0  0  0  0  0  0  0
  188.0010  178.4230  147.6230 O   0  0  0  0  0  0  0  0  0  0  0  0
  189.0050  178.3750  148.5630 C   0  0  0  0  0  2  0  0  0  0  0  0
  188.9960  176.7730  146.2780 C   0  0  2  0  0  3  0  0  0  0  0  0
  190.0830  176.9780  147.2450 C   0  0  0  0  0  2  0  0  0  0  0  0
  190.4040  175.6340  143.1540 O   0  0  0  0  0  0  0  0  0  0  0  0
  191.6370  175.8060  143.7900 C   0  0  0  0  0  1  0  0  0  0  0  0
  2  4  1  0  0  0  0
  2  5  1  0  0  0  0
  3  6  1  0  0  0  0
  3 19  1  1  0  0  0
  4 12  1  1  0  0  0
  4  3  1  0  0  0  0
  5  7  1  6  0  0  0
  5  6  1  0  0  0  0
  6  1  1  6  0  0  0
  7  8  1  0  0  0  0
  8  9  1  0  0  0  0
  9 10  1  0  0  0  0
 11  9  2  0  0  0  0
 13 14  1  0  0  0  0
 13 12  1  0  0  0  0
 15 17  1  0  0  0  0
 16 13  2  0  0  0  0
 17 14  2  0  0  0  0
 18 15  2  0  0  0  0
 18 16  1  0  0  0  0
 19 20  1  0  0  0  0
 21 20  1  6  0  0  0
 21 31  1  0  0  0  0
 21 23  1  0  0  0  0
 23 22  1  6  0  0  0
 23 24  1  0  0  0  0
 24 25  1  6  0  0  0
 26 30  1  6  0  0  0
 26 28  1  0  0  0  0
 27 26  1  0  0  0  0
 27 28  1  0  0  0  0
 29 24  1  6  0  0  0
 29 30  1  0  0  0  0
 29 26  1  0  0  0  0
 31 32  1  0  0  0  0
M  END
>  <MODEL>
4

>  <REMARK>
 VINA RESULT:      -6.7      3.737      9.336
  Name = 
  12 active torsions:
  status: ('A' for Active; 'I' for Inactive)
    1  A    between atoms: C_1  and  O_10
    2  A    between atoms: C_1  and  C_25
    3  A    between atoms: C_2  and  C_12
    4  A    between atoms: C_2  and  C_21
    5  A    between atoms: C_6  and  O_10
    6  A    between atoms: C_11  and  C_15
    7  A    between atoms: C_11  and  C_18
    8  A    between atoms: C_15  and  O_16
    9  A    between atoms: C_15  and  C_20
   10  A    between atoms: C_18  and  C_19
   11  A    between atoms: C_20  and  C_23
   12  A    between atoms: C_23  and  C_24
                            x       y       z     vdW  Elec       q    Type
                         _______ _______ _______ _____ _____    ______ ____

>  <TORSDO>
F 12

$$$$
=
 OpenBabel11062412443D

 32 35  0  0  1  0  0  0  0  0999 V2000
  189.1420  176.0500  138.5450 O   0  0  0  0  0  1  0  0  0  0  0  0
  188.1960  178.9950  139.0860 O   0  0  0  0  0  0  0  0  0  0  0  0
  188.9140  177.2390  140.5630 C   0  0  1  0  0  3  0  0  0  0  0  0
  187.7790  178.1780  140.1550 C   0  0  1  0  0  3  0  0  0  0  0  0
  189.4020  178.4500  138.6050 C   0  0  1  0  0  3  0  0  0  0  0  0
  189.6750  177.1130  139.2830 C   0  0  2  0  0  3  0  0  0  0  0  0
  189.4010  178.3720  137.0840 C   0  0  0  0  0  2  0  0  0  0  0  0
  188.1210  178.7290  136.5850 O   0  0  0  0  0  0  0  0  0  0  0  0
  187.1800  177.7670  136.2220 C   0  0  0  0  0  0  0  0  0  0  0  0
  187.5280  176.7770  135.3130 O   0  0  0  0  0  0  0  0  0  0  0  0
  186.0190  177.7810  136.7140 O   0  0  0  0  0  1  0  0  0  0  0  0
  187.1910  179.0070  141.2940 C   0  0  0  0  0  2  0  0  0  0  0  0
  185.7080  178.8730  141.3510 C   0  0  0  0  0  0  0  0  0  0  0  0
  184.9640  178.8530  140.1700 C   0  0  0  0  0  3  0  0  0  0  0  0
  182.9610  178.6130  141.4490 N   0  0  0  0  0  0  0  0  0  0  0  0
  185.0590  178.7570  142.5830 C   0  0  0  0  0  3  0  0  0  0  0  0
  183.5750  178.7220  140.2400 C   0  0  0  0  0  3  0  0  0  0  0  0
  183.6680  178.6270  142.6110 C   0  0  0  0  0  3  0  0  0  0  0  0
  189.8450  177.8260  141.6230 C   0  0  0  0  0  2  0  0  0  0  0  0
  190.0040  176.8520  142.7780 C   0  0  0  0  0  2  0  0  0  0  0  0
  189.7110  177.5310  144.1110 C   0  0  2  0  0  3  0  0  0  0  0  0
  187.4690  176.3830  143.8460 C   0  0  0  0  0  1  0  0  0  0  0  0
  188.1970  177.6270  144.3410 C   0  0  1  0  0  3  0  0  0  0  0  0
  187.7740  178.0470  145.7600 C   0  0  1  0  0  3  0  0  0  0  0  0
  186.4550  178.5030  145.7250 O   0  0  0  0  0  1  0  0  0  0  0  0
  188.2510  177.3290  148.2720 C   0  0  1  0  0  0  0  0  0  0  0  0
  187.9000  178.7100  148.3190 O   0  0  0  0  0  0  0  0  0  0  0  0
  189.1490  178.4050  148.8060 C   0  0  0  0  0  2  0  0  0  0  0  0
  187.9040  176.9180  146.8000 C   0  0  2  0  0  3  0  0  0  0  0  0
  189.2970  176.8390  147.2640 C   0  0  0  0  0  2  0  0  0  0  0  0
  190.3130  178.7950  144.1630 O   0  0  0  0  0  0  0  0  0  0  0  0
  191.6360  178.5510  144.5410 C   0  0  0  0  0  1  0  0  0  0  0  0
  2  4  1  0  0  0  0
  3 19  1  1  0  0  0
  4  3  1  0  0  0  0
  4 12  1  1  0  0  0
  5  7  1  6  0  0  0
  5  2  1  0  0  0  0
  5  6  1  0  0  0  0
  6  1  1  6  0  0  0
  6  3  1  0  0  0  0
  8  7  1  0  0  0  0
  9  8  1  0  0  0  0
  9 11  1  0  0  0  0
 10  9  2  0  0  0  0
 12 13  1  0  0  0  0
 13 16  1  0  0  0  0
 14 17  1  0  0  0  0
 14 13  2  0  0  0  0
 15 18  1  0  0  0  0
 16 18  2  0  0  0  0
 17 15  2  0  0  0  0
 19 20  1  0  0  0  0
 21 20  1  6  0  0  0
 21 31  1  0  0  0  0
 21 23  1  0  0  0  0
 23 22  1  1  0  0  0
 23 24  1  0  0  0  0
 24 25  1  6  0  0  0
 26 30  1  6  0  0  0
 26 27  1  0  0  0  0
 26 28  1  0  0  0  0
 27 28  1  0  0  0  0
 29 24  1  6  0  0  0
 29 30  1  0  0  0  0
 29 26  1  0  0  0  0
 31 32  1  0  0  0  0
M  END
>  <MODEL>
5

>  <REMARK>
 VINA RESULT:      -6.6      2.100      8.153
  Name = 
  12 active torsions:
  status: ('A' for Active; 'I' for Inactive)
    1  A    between atoms: C_1  and  O_10
    2  A    between atoms: C_1  and  C_25
    3  A    between atoms: C_2  and  C_12
    4  A    between atoms: C_2  and  C_21
    5  A    between atoms: C_6  and  O_10
    6  A    between atoms: C_11  and  C_15
    7  A    between atoms: C_11  and  C_18
    8  A    between atoms: C_15  and  O_16
    9  A    between atoms: C_15  and  C_20
   10  A    between atoms: C_18  and  C_19
   11  A    between atoms: C_20  and  C_23
   12  A    between atoms: C_23  and  C_24
                            x       y       z     vdW  Elec       q    Type
                         _______ _______ _______ _____ _____    ______ ____

>  <TORSDO>
F 12

$$$$
=
 OpenBabel11062412443D

 32 35  0  0  1  0  0  0  0  0999 V2000
  187.8810  179.6850  141.4200 O   0  0  0  0  0  1  0  0  0  0  0  0
  188.2060  176.9720  142.9670 O   0  0  0  0  0  0  0  0  0  0  0  0
  186.4380  178.6010  142.9300 C   0  0  1  0  0  3  0  0  0  0  0  0
  187.4850  177.8740  143.7740 C   0  0  1  0  0  3  0  0  0  0  0  0
  187.8890  177.2790  141.6310 C   0  0  1  0  0  3  0  0  0  0  0  0
  187.0640  178.5600  141.5730 C   0  0  2  0  0  3  0  0  0  0  0  0
  189.1410  177.3230  140.7650 C   0  0  0  0  0  2  0  0  0  0  0  0
  188.7830  177.2200  139.3960 O   0  0  0  0  0  0  0  0  0  0  0  0
  189.3990  177.9960  138.4160 C   0  0  0  0  0  0  0  0  0  0  0  0
  189.0550  179.3340  138.2850 O   0  0  0  0  0  1  0  0  0  0  0  0
  190.2690  177.4990  137.6500 O   0  0  0  0  0  0  0  0  0  0  0  0
  186.9380  177.1900  145.0250 C   0  0  0  0  0  2  0  0  0  0  0  0
  187.8010  177.4580  146.2090 C   0  0  0  0  0  0  0  0  0  0  0  0
  187.2470  178.0110  147.3650 C   0  0  0  0  0  3  0  0  0  0  0  0
  189.3940  177.9480  148.4110 N   0  0  0  0  0  0  0  0  0  0  0  0
  189.1640  177.1510  146.1710 C   0  0  0  0  0  3  0  0  0  0  0  0
  188.0690  178.2520  148.4690 C   0  0  0  0  0  3  0  0  0  0  0  0
  189.9520  177.4060  147.2950 C   0  0  0  0  0  3  0  0  0  0  0  0
  185.0930  177.8780  142.8640 C   0  0  0  0  0  2  0  0  0  0  0  0
  183.9740  178.8750  142.6100 C   0  0  0  0  0  2  0  0  0  0  0  0
  182.9170  178.2860  141.6850 C   0  0  2  0  0  3  0  0  0  0  0  0
  182.9250  177.0690  139.4630 C   0  0  0  0  0  1  0  0  0  0  0  0
  183.4130  178.2900  140.2320 C   0  0  1  0  0  3  0  0  0  0  0  0
  183.1950  179.6090  139.4690 C   0  0  1  0  0  3  0  0  0  0  0  0
  184.4370  180.1270  139.0940 O   0  0  0  0  0  1  0  0  0  0  0  0
  181.3720  180.6670  137.8540 C   0  0  1  0  0  0  0  0  0  0  0  0
  181.9690  181.7630  138.5430 O   0  0  0  0  0  0  0  0  0  0  0  0
  180.6120  181.6250  138.7220 C   0  0  0  0  0  2  0  0  0  0  0  0
  182.2990  179.4590  138.2250 C   0  0  2  0  0  3  0  0  0  0  0  0
  180.8890  179.4420  138.6380 C   0  0  0  0  0  2  0  0  0  0  0  0
  181.7080  178.9820  141.8090 O   0  0  0  0  0  0  0  0  0  0  0  0
  181.5150  179.1320  143.1850 C   0  0  0  0  0  1  0  0  0  0  0  0
  2  4  1  0  0  0  0
  3 19  1  6  0  0  0
  3  4  1  0  0  0  0
  4 12  1  1  0  0  0
  5  7  1  6  0  0  0
  5  2  1  0  0  0  0
  6  1  1  1  0  0  0
  6  5  1  0  0  0  0
  6  3  1  0  0  0  0
  8  7  1  0  0  0  0
  9  8  1  0  0  0  0
 10  9  1  0  0  0  0
 11  9  2  0  0  0  0
 12 13  1  0  0  0  0
 13 14  1  0  0  0  0
 14 17  2  0  0  0  0
 15 17  1  0  0  0  0
 16 13  2  0  0  0  0
 16 18  1  0  0  0  0
 18 15  2  0  0  0  0
 20 19  1  0  0  0  0
 21 31  1  0  0  0  0
 21 20  1  1  0  0  0
 23 22  1  6  0  0  0
 23 21  1  0  0  0  0
 24 25  1  6  0  0  0
 24 23  1  0  0  0  0
 26 29  1  0  0  0  0
 26 27  1  0  0  0  0
 26 30  1  1  0  0  0
 26 28  1  0  0  0  0
 27 28  1  0  0  0  0
 29 30  1  0  0  0  0
 29 24  1  1  0  0  0
 31 32  1  0  0  0  0
M  END
>  <MODEL>
6

>  <REMARK>
 VINA RESULT:      -6.3      3.772      6.289
  Name = 
  12 active torsions:
  status: ('A' for Active; 'I' for Inactive)
    1  A    between atoms: C_1  and  O_10
    2  A    between atoms: C_1  and  C_25
    3  A    between atoms: C_2  and  C_12
    4  A    between atoms: C_2  and  C_21
    5  A    between atoms: C_6  and  O_10
    6  A    between atoms: C_11  and  C_15
    7  A    between atoms: C_11  and  C_18
    8  A    between atoms: C_15  and  O_16
    9  A    between atoms: C_15  and  C_20
   10  A    between atoms: C_18  and  C_19
   11  A    between atoms: C_20  and  C_23
   12  A    between atoms: C_23  and  C_24
                            x       y       z     vdW  Elec       q    Type
                         _______ _______ _______ _____ _____    ______ ____

>  <TORSDO>
F 12

$$$$
=
 OpenBabel11062412443D

 32 35  0  0  1  0  0  0  0  0999 V2000
  190.9280  174.2310  137.9010 O   0  0  0  0  0  1  0  0  0  0  0  0
  190.4300  176.7570  136.1030 O   0  0  0  0  0  0  0  0  0  0  0  0
  189.9480  176.3080  138.4150 C   0  0  1  0  0  3  0  0  0  0  0  0
  189.3810  176.6470  137.0370 C   0  0  1  0  0  3  0  0  0  0  0  0
  191.5820  176.2360  136.7230 C   0  0  1  0  0  3  0  0  0  0  0  0
  191.2100  175.5930  138.0540 C   0  0  2  0  0  3  0  0  0  0  0  0
  192.3340  175.3010  135.7850 C   0  0  0  0  0  2  0  0  0  0  0  0
  193.4310  175.9860  135.2010 O   0  0  0  0  0  0  0  0  0  0  0  0
  194.5160  176.4180  135.9610 C   0  0  0  0  0  0  0  0  0  0  0  0
  195.0660  177.6700  135.7190 O   0  0  0  0  0  0  0  0  0  0  0  0
  195.0000  175.6900  136.8690 O   0  0  0  0  0  1  0  0  0  0  0  0
  188.4720  177.8740  137.0020 C   0  0  0  0  0  2  0  0  0  0  0  0
  187.0470  177.4960  137.2160 C   0  0  0  0  0  0  0  0  0  0  0  0
  186.5210  176.3700  136.5790 C   0  0  0  0  0  3  0  0  0  0  0  0
  184.4090  176.7850  137.6160 N   0  0  0  0  0  0  0  0  0  0  0  0
  186.2350  178.2600  138.0580 C   0  0  0  0  0  3  0  0  0  0  0  0
  185.1840  176.0270  136.7940 C   0  0  0  0  0  3  0  0  0  0  0  0
  184.9030  177.8840  138.2470 C   0  0  0  0  0  3  0  0  0  0  0  0
  190.3100  177.5360  139.2500 C   0  0  0  0  0  2  0  0  0  0  0  0
  190.6430  177.1220  140.6740 C   0  0  0  0  0  2  0  0  0  0  0  0
  189.6060  177.6560  141.6550 C   0  0  2  0  0  3  0  0  0  0  0  0
  190.4530  175.6150  142.8920 C   0  0  0  0  0  1  0  0  0  0  0  0
  189.7490  176.9610  143.0160 C   0  0  1  0  0  3  0  0  0  0  0  0
  190.3210  177.8380  144.1440 C   0  0  1  0  0  3  0  0  0  0  0  0
  190.9360  178.9580  143.5810 O   0  0  0  0  0  1  0  0  0  0  0  0
  189.4000  177.7390  146.6320 C   0  0  1  0  0  0  0  0  0  0  0  0
  190.7600  177.3180  146.7020 O   0  0  0  0  0  0  0  0  0  0  0  0
  189.8380  176.3980  147.1420 C   0  0  0  0  0  2  0  0  0  0  0  0
  189.2650  178.2870  145.1700 C   0  0  2  0  0  3  0  0  0  0  0  0
  188.4620  177.1280  145.5850 C   0  0  0  0  0  2  0  0  0  0  0  0
  188.3130  177.5000  141.1400 O   0  0  0  0  0  0  0  0  0  0  0  0
  187.5880  178.5830  141.6460 C   0  0  0  0  0  1  0  0  0  0  0  0
  2  5  1  0  0  0  0
  2  4  1  0  0  0  0
  3 19  1  1  0  0  0
  4 12  1  1  0  0  0
  4  3  1  0  0  0  0
  5  7  1  6  0  0  0
  5  6  1  0  0  0  0
  6  1  1  6  0  0  0
  6  3  1  0  0  0  0
  8  7  1  0  0  0  0
  8  9  1  0  0  0  0
  9 11  1  0  0  0  0
 10  9  2  0  0  0  0
 12 13  1  0  0  0  0
 13 16  1  0  0  0  0
 14 17  1  0  0  0  0
 14 13  2  0  0  0  0
 15 18  1  0  0  0  0
 16 18  2  0  0  0  0
 17 15  2  0  0  0  0
 19 20  1  0  0  0  0
 21 20  1  6  0  0  0
 21 23  1  0  0  0  0
 23 22  1  6  0  0  0
 23 24  1  0  0  0  0
 24 25  1  6  0  0  0
 26 30  1  6  0  0  0
 26 27  1  0  0  0  0
 26 28  1  0  0  0  0
 27 28  1  0  0  0  0
 29 24  1  6  0  0  0
 29 30  1  0  0  0  0
 29 26  1  0  0  0  0
 31 32  1  0  0  0  0
 31 21  1  0  0  0  0
M  END
>  <MODEL>
7

>  <REMARK>
 VINA RESULT:      -6.2      3.077      8.484
  Name = 
  12 active torsions:
  status: ('A' for Active; 'I' for Inactive)
    1  A    between atoms: C_1  and  O_10
    2  A    between atoms: C_1  and  C_25
    3  A    between atoms: C_2  and  C_12
    4  A    between atoms: C_2  and  C_21
    5  A    between atoms: C_6  and  O_10
    6  A    between atoms: C_11  and  C_15
    7  A    between atoms: C_11  and  C_18
    8  A    between atoms: C_15  and  O_16
    9  A    between atoms: C_15  and  C_20
   10  A    between atoms: C_18  and  C_19
   11  A    between atoms: C_20  and  C_23
   12  A    between atoms: C_23  and  C_24
                            x       y       z     vdW  Elec       q    Type
                         _______ _______ _______ _____ _____    ______ ____

>  <TORSDO>
F 12

$$$$
=
 OpenBabel11062412443D

 32 35  0  0  1  0  0  0  0  0999 V2000
  182.3410  176.3210  139.9930 O   0  0  0  0  0  1  0  0  0  0  0  0
  182.6840  178.8500  141.8230 O   0  0  0  0  0  0  0  0  0  0  0  0
  184.1300  177.8370  140.1910 C   0  0  1  0  0  3  0  0  0  0  0  0
  183.9400  178.2340  141.6540 C   0  0  1  0  0  3  0  0  0  0  0  0
  181.9550  178.6150  140.6410 C   0  0  1  0  0  3  0  0  0  0  0  0
  182.7170  177.6460  139.7450 C   0  0  2  0  0  3  0  0  0  0  0  0
  180.5340  178.1670  140.9530 C   0  0  0  0  0  2  0  0  0  0  0  0
  179.6120  179.1560  140.5220 O   0  0  0  0  0  0  0  0  0  0  0  0
  179.7470  180.4940  140.8890 C   0  0  0  0  0  0  0  0  0  0  0  0
  179.9380  181.4560  139.9070 O   0  0  0  0  0  0  0  0  0  0  0  0
  179.6920  180.8410  142.0990 O   0  0  0  0  0  1  0  0  0  0  0  0
  185.0630  179.0880  142.2380 C   0  0  0  0  0  2  0  0  0  0  0  0
  185.4030  178.6600  143.6240 C   0  0  0  0  0  0  0  0  0  0  0  0
  184.5800  179.0280  144.6900 C   0  0  0  0  0  3  0  0  0  0  0  0
  186.0220  177.8590  146.1930 N   0  0  0  0  0  0  0  0  0  0  0  0
  186.5390  177.8820  143.8610 C   0  0  0  0  0  3  0  0  0  0  0  0
  184.9100  178.6140  145.9830 C   0  0  0  0  0  3  0  0  0  0  0  0
  186.8360  177.4880  145.1680 C   0  0  0  0  0  3  0  0  0  0  0  0
  184.7640  178.9320  139.3340 C   0  0  0  0  0  2  0  0  0  0  0  0
  185.0410  178.4090  137.9350 C   0  0  0  0  0  2  0  0  0  0  0  0
  185.8880  177.1430  137.9830 C   0  0  2  0  0  3  0  0  0  0  0  0
  187.4070  178.8250  136.8520 C   0  0  0  0  0  1  0  0  0  0  0  0
  187.2870  177.4130  137.4130 C   0  0  1  0  0  3  0  0  0  0  0  0
  188.4580  177.0320  138.3370 C   0  0  1  0  0  3  0  0  0  0  0  0
  189.4880  176.4890  137.5660 O   0  0  0  0  0  1  0  0  0  0  0  0
  189.7300  177.8760  140.5090 C   0  0  1  0  0  0  0  0  0  0  0  0
  190.0860  176.5050  140.3550 O   0  0  0  0  0  0  0  0  0  0  0  0
  189.4590  176.8200  141.5380 C   0  0  0  0  0  2  0  0  0  0  0  0
  188.9980  178.2130  139.1650 C   0  0  2  0  0  3  0  0  0  0  0  0
  188.2590  178.2990  140.4330 C   0  0  0  0  0  2  0  0  0  0  0  0
  185.2550  176.0990  137.2970 O   0  0  0  0  0  0  0  0  0  0  0  0
  184.3250  176.7240  136.4620 C   0  0  0  0  0  1  0  0  0  0  0  0
  3 19  1  6  0  0  0
  3  4  1  0  0  0  0
  4  2  1  0  0  0  0
  4 12  1  6  0  0  0
  5  7  1  1  0  0  0
  5  2  1  0  0  0  0
  6  1  1  1  0  0  0
  6  3  1  0  0  0  0
  6  5  1  0  0  0  0
  8  9  1  0  0  0  0
  8  7  1  0  0  0  0
  9 11  1  0  0  0  0
 10  9  2  0  0  0  0
 12 13  1  0  0  0  0
 13 16  2  0  0  0  0
 13 14  1  0  0  0  0
 14 17  2  0  0  0  0
 16 18  1  0  0  0  0
 17 15  1  0  0  0  0
 18 15  2  0  0  0  0
 20 19  1  0  0  0  0
 21 20  1  6  0  0  0
 23 22  1  1  0  0  0
 23 21  1  0  0  0  0
 23 24  1  0  0  0  0
 24 25  1  6  0  0  0
 26 30  1  6  0  0  0
 26 28  1  0  0  0  0
 27 26  1  0  0  0  0
 27 28  1  0  0  0  0
 29 24  1  6  0  0  0
 29 30  1  0  0  0  0
 29 26  1  0  0  0  0
 31 21  1  0  0  0  0
 32 31  1  0  0  0  0
M  END
>  <MODEL>
8

>  <REMARK>
 VINA RESULT:      -6.1      4.232      7.224
  Name = 
  12 active torsions:
  status: ('A' for Active; 'I' for Inactive)
    1  A    between atoms: C_1  and  O_10
    2  A    between atoms: C_1  and  C_25
    3  A    between atoms: C_2  and  C_12
    4  A    between atoms: C_2  and  C_21
    5  A    between atoms: C_6  and  O_10
    6  A    between atoms: C_11  and  C_15
    7  A    between atoms: C_11  and  C_18
    8  A    between atoms: C_15  and  O_16
    9  A    between atoms: C_15  and  C_20
   10  A    between atoms: C_18  and  C_19
   11  A    between atoms: C_20  and  C_23
   12  A    between atoms: C_23  and  C_24
                            x       y       z     vdW  Elec       q    Type
                         _______ _______ _______ _____ _____    ______ ____

>  <TORSDO>
F 12

$$$$
=
 OpenBabel11062412443D

 32 35  0  0  1  0  0  0  0  0999 V2000
  189.4130  175.3650  143.2190 O   0  0  0  0  0  1  0  0  0  0  0  0
  191.1590  177.5290  141.7590 O   0  0  0  0  0  0  0  0  0  0  0  0
  188.8090  177.0270  141.6660 C   0  0  1  0  0  3  0  0  0  0  0  0
  190.1250  177.1160  140.8940 C   0  0  1  0  0  3  0  0  0  0  0  0
  190.6550  177.4310  143.0700 C   0  0  1  0  0  3  0  0  0  0  0  0
  189.2920  176.7490  143.0530 C   0  0  2  0  0  3  0  0  0  0  0  0
  191.6600  176.7600  143.9950 C   0  0  0  0  0  2  0  0  0  0  0  0
  191.7250  177.4630  145.2260 O   0  0  0  0  0  0  0  0  0  0  0  0
  191.2550  176.9080  146.4150 C   0  0  0  0  0  0  0  0  0  0  0  0
  189.8880  176.7530  146.6050 O   0  0  0  0  0  0  0  0  0  0  0  0
  192.0550  176.5390  147.3170 O   0  0  0  0  0  1  0  0  0  0  0  0
  190.0740  177.9790  139.6350 C   0  0  0  0  0  2  0  0  0  0  0  0
  189.7810  177.1560  138.4280 C   0  0  0  0  0  0  0  0  0  0  0  0
  190.8210  176.7650  137.5820 C   0  0  0  0  0  3  0  0  0  0  0  0
  189.2470  175.6220  136.1950 N   0  0  0  0  0  0  0  0  0  0  0  0
  188.4700  176.7660  138.1430 C   0  0  0  0  0  3  0  0  0  0  0  0
  190.5300  175.9890  136.4570 C   0  0  0  0  0  3  0  0  0  0  0  0
  188.2200  175.9900  137.0090 C   0  0  0  0  0  3  0  0  0  0  0  0
  188.0170  178.3340  141.6820 C   0  0  0  0  0  2  0  0  0  0  0  0
  186.5270  178.0440  141.6180 C   0  0  0  0  0  2  0  0  0  0  0  0
  185.7150  179.3270  141.7490 C   0  0  2  0  0  3  0  0  0  0  0  0
  183.7370  177.8810  142.3890 C   0  0  0  0  0  1  0  0  0  0  0  0
  184.5490  179.1250  142.7270 C   0  0  1  0  0  3  0  0  0  0  0  0
  184.9200  179.2140  144.2180 C   0  0  1  0  0  3  0  0  0  0  0  0
  183.8050  179.6490  144.9390 O   0  0  0  0  0  1  0  0  0  0  0  0
  185.8050  177.8660  146.3280 C   0  0  1  0  0  0  0  0  0  0  0  0
  185.1230  179.0050  146.8480 O   0  0  0  0  0  0  0  0  0  0  0  0
  186.4510  178.9060  147.1950 C   0  0  0  0  0  2  0  0  0  0  0  0
  185.4310  177.8860  144.8060 C   0  0  2  0  0  3  0  0  0  0  0  0
  186.8370  178.0370  145.2080 C   0  0  0  0  0  2  0  0  0  0  0  0
  185.2570  179.7520  140.4960 O   0  0  0  0  0  0  0  0  0  0  0  0
  185.3660  178.6310  139.6700 C   0  0  0  0  0  1  0  0  0  0  0  0
  2  5  1  0  0  0  0
  3 19  1  1  0  0  0
  3  6  1  0  0  0  0
  4 12  1  6  0  0  0
  4  3  1  0  0  0  0
  4  2  1  0  0  0  0
  5  7  1  1  0  0  0
  6  5  1  0  0  0  0
  6  1  1  6  0  0  0
  7  8  1  0  0  0  0
  8  9  1  0  0  0  0
  9 10  2  0  0  0  0
  9 11  1  0  0  0  0
 13 12  1  0  0  0  0
 14 13  2  0  0  0  0
 15 17  2  0  0  0  0
 15 18  1  0  0  0  0
 16 13  1  0  0  0  0
 17 14  1  0  0  0  0
 18 16  2  0  0  0  0
 20 19  1  0  0  0  0
 21 20  1  6  0  0  0
 21 23  1  0  0  0  0
 23 22  1  1  0  0  0
 23 24  1  0  0  0  0
 24 25  1  1  0  0  0
 26 30  1  6  0  0  0
 26 27  1  0  0  0  0
 26 28  1  0  0  0  0
 27 28  1  0  0  0  0
 29 24  1  1  0  0  0
 29 30  1  0  0  0  0
 29 26  1  0  0  0  0
 31 21  1  0  0  0  0
 32 31  1  0  0  0  0
M  END
>  <MODEL>
9

>  <REMARK>
 VINA RESULT:      -6.0      3.034      7.070
  Name = 
  12 active torsions:
  status: ('A' for Active; 'I' for Inactive)
    1  A    between atoms: C_1  and  O_10
    2  A    between atoms: C_1  and  C_25
    3  A    between atoms: C_2  and  C_12
    4  A    between atoms: C_2  and  C_21
    5  A    between atoms: C_6  and  O_10
    6  A    between atoms: C_11  and  C_15
    7  A    between atoms: C_11  and  C_18
    8  A    between atoms: C_15  and  O_16
    9  A    between atoms: C_15  and  C_20
   10  A    between atoms: C_18  and  C_19
   11  A    between atoms: C_20  and  C_23
   12  A    between atoms: C_23  and  C_24
                            x       y       z     vdW  Elec       q    Type
                         _______ _______ _______ _____ _____    ______ ____

>  <TORSDO>
F 12

$$$$
