=
 OpenBabel11062417163D

 26 29  0  0  1  0  0  0  0  0999 V2000
  187.3650  178.3100  141.3610 C   0  0  0  0  0  0  0  0  0  0  0  0
  188.1090  177.2140  143.2240 N   0  0  0  0  0  0  0  0  0  0  0  0
  187.0370  177.9550  142.6990 N   0  0  0  0  0  0  0  0  0  0  0  0
  188.6760  177.7530  141.0850 C   0  0  0  0  0  0  0  0  0  0  0  0
  189.3960  177.8400  140.0070 N   0  0  0  0  0  0  0  0  0  0  0  0
  189.0410  177.0690  142.3270 C   0  0  0  0  0  0  0  0  0  0  0  0
  186.6340  178.9740  140.5800 O   0  0  0  0  0  0  0  0  0  0  0  0
  185.8510  178.2810  143.4400 C   0  0  0  0  0  0  0  0  0  0  0  0
  184.7570  178.7100  145.5680 C   0  0  0  0  0  3  0  0  0  0  0  0
  183.5430  178.9130  144.9070 C   0  0  0  0  0  3  0  0  0  0  0  0
  185.9060  178.3940  144.8360 C   0  0  0  0  0  3  0  0  0  0  0  0
  184.6260  178.4870  142.7840 C   0  0  0  0  0  3  0  0  0  0  0  0
  183.4780  178.8030  143.5160 C   0  0  0  0  0  3  0  0  0  0  0  0
  191.7380  177.3190  143.8060 N   0  0  0  0  0  2  0  0  0  0  0  0
  190.3560  176.3960  142.5950 C   0  0  1  0  0  3  0  0  0  0  0  0
  191.4570  177.3300  142.4240 N   0  0  0  0  0  2  0  0  0  0  0  0
  190.6540  176.3890  144.0610 C   0  0  0  0  0  2  0  0  0  0  0  0
  188.9880  178.5750  138.8160 C   0  0  0  0  0  2  0  0  0  0  0  0
  189.9800  176.5180  137.7820 C   0  0  2  0  0  3  0  0  0  0  0  0
  187.9740  175.2880  137.2240 C   0  0  0  0  0  2  0  0  0  0  0  0
  187.3410  176.9880  137.3170 S   0  0  0  0  0  0  0  0  0  0  0  0
  189.4590  175.3600  136.9650 C   0  0  0  0  0  2  0  0  0  0  0  0
  189.0060  177.6690  137.5920 C   0  0  1  0  0  3  0  0  0  0  0  0
  191.2480  176.8830  137.3260 O   0  0  0  0  0  0  0  0  0  0  0  0
  192.1360  176.3190  138.2440 C   0  0  0  0  0  2  0  0  0  0  0  0
  193.4280  176.7730  137.9790 O   0  0  0  0  0  1  0  0  0  0  0  0
  1  3  1  0  0  0  0
  3  2  1  0  0  0  0
  3  8  1  0  0  0  0
  4  1  1  0  0  0  0
  4  6  1  0  0  0  0
  5  4  2  0  0  0  0
  6  2  2  0  0  0  0
  7  1  2  0  0  0  0
  8 11  1  0  0  0  0
 10  9  1  0  0  0  0
 11  9  2  0  0  0  0
 12  8  2  0  0  0  0
 12 13  1  0  0  0  0
 13 10  2  0  0  0  0
 14 17  1  0  0  0  0
 15  6  1  1  0  0  0
 15 17  1  0  0  0  0
 16 15  1  0  0  0  0
 16 14  1  0  0  0  0
 18  5  1  0  0  0  0
 19 24  1  6  0  0  0
 20 21  1  0  0  0  0
 21 23  1  0  0  0  0
 22 20  1  0  0  0  0
 22 19  1  0  0  0  0
 23 19  1  0  0  0  0
 23 18  1  1  0  0  0
 24 25  1  0  0  0  0
 26 25  1  0  0  0  0
M  END
>  <MODEL>
1

>  <REMARK>
 VINA RESULT:      -7.8      0.000      0.000
  Name = 
  6 active torsions:
  status: ('A' for Active; 'I' for Inactive)
    1  A    between atoms: C_2  and  N_10
    2  A    between atoms: C_3  and  O_6
    3  A    between atoms: O_6  and  C_18
    4  A    between atoms: C_11  and  C_21
    5  A    between atoms: C_11  and  N_24
    6  A    between atoms: C_12  and  C_25
                            x       y       z     vdW  Elec       q    Type
                         _______ _______ _______ _____ _____    ______ ____

>  <TORSDO>
F 6

$$$$
=
 OpenBabel11062417163D

 26 29  0  0  1  0  0  0  0  0999 V2000
  186.2930  177.8920  143.4800 C   0  0  0  0  0  0  0  0  0  0  0  0
  186.3530  178.5730  141.2980 N   0  0  0  0  0  0  0  0  0  0  0  0
  185.4980  178.3390  142.3880 N   0  0  0  0  0  0  0  0  0  0  0  0
  187.6690  177.8670  143.0190 C   0  0  0  0  0  0  0  0  0  0  0  0
  188.7420  177.5020  143.6520 N   0  0  0  0  0  0  0  0  0  0  0  0
  187.5870  178.3320  141.6330 C   0  0  0  0  0  0  0  0  0  0  0  0
  185.8630  177.5910  144.6250 O   0  0  0  0  0  0  0  0  0  0  0  0
  184.0740  178.5210  142.3420 C   0  0  0  0  0  0  0  0  0  0  0  0
  181.9910  178.4620  141.0910 C   0  0  0  0  0  3  0  0  0  0  0  0
  181.2920  178.8730  142.2290 C   0  0  0  0  0  3  0  0  0  0  0  0
  183.3770  178.2870  141.1490 C   0  0  0  0  0  3  0  0  0  0  0  0
  183.3630  178.9330  143.4810 C   0  0  0  0  0  3  0  0  0  0  0  0
  181.9770  179.1080  143.4230 C   0  0  0  0  0  3  0  0  0  0  0  0
  188.8620  177.0470  139.1320 N   0  0  0  0  0  2  0  0  0  0  0  0
  188.7380  178.4060  140.6720 C   0  0  1  0  0  3  0  0  0  0  0  0
  189.3230  177.0900  140.4640 N   0  0  0  0  0  2  0  0  0  0  0  0
  188.2480  178.3560  139.2590 C   0  0  0  0  0  2  0  0  0  0  0  0
  188.7460  177.0070  145.0240 C   0  0  0  0  0  2  0  0  0  0  0  0
  189.9700  177.0390  147.2110 C   0  0  2  0  0  3  0  0  0  0  0  0
  192.0450  175.9700  146.5760 C   0  0  0  0  0  2  0  0  0  0  0  0
  191.4460  176.5800  144.9720 S   0  0  0  0  0  0  0  0  0  0  0  0
  191.3930  176.7960  147.6580 C   0  0  0  0  0  2  0  0  0  0  0  0
  190.0250  177.4180  145.7410 C   0  0  1  0  0  3  0  0  0  0  0  0
  189.4150  178.0820  147.9550 O   0  0  0  0  0  0  0  0  0  0  0  0
  188.2180  177.5680  148.4560 C   0  0  0  0  0  2  0  0  0  0  0  0
  187.1440  178.2520  147.8870 O   0  0  0  0  0  1  0  0  0  0  0  0
  1  7  2  0  0  0  0
  2  6  2  0  0  0  0
  2  3  1  0  0  0  0
  3  1  1  0  0  0  0
  4  1  1  0  0  0  0
  4  5  2  0  0  0  0
  5 18  1  0  0  0  0
  6  4  1  0  0  0  0
  8  3  1  0  0  0  0
  8 12  1  0  0  0  0
  9 11  1  0  0  0  0
  9 10  2  0  0  0  0
 10 13  1  0  0  0  0
 11  8  2  0  0  0  0
 13 12  2  0  0  0  0
 14 17  1  0  0  0  0
 14 16  1  0  0  0  0
 15  6  1  1  0  0  0
 16 15  1  0  0  0  0
 17 15  1  0  0  0  0
 19 22  1  0  0  0  0
 19 24  1  1  0  0  0
 20 22  1  0  0  0  0
 21 23  1  0  0  0  0
 21 20  1  0  0  0  0
 23 18  1  6  0  0  0
 23 19  1  0  0  0  0
 24 25  1  0  0  0  0
 26 25  1  0  0  0  0
M  END
>  <MODEL>
2

>  <REMARK>
 VINA RESULT:      -7.7      3.883      6.464
  Name = 
  6 active torsions:
  status: ('A' for Active; 'I' for Inactive)
    1  A    between atoms: C_2  and  N_10
    2  A    between atoms: C_3  and  O_6
    3  A    between atoms: O_6  and  C_18
    4  A    between atoms: C_11  and  C_21
    5  A    between atoms: C_11  and  N_24
    6  A    between atoms: C_12  and  C_25
                            x       y       z     vdW  Elec       q    Type
                         _______ _______ _______ _____ _____    ______ ____

>  <TORSDO>
F 6

$$$$
=
 OpenBabel11062417163D

 26 29  0  0  1  0  0  0  0  0999 V2000
  189.3750  177.6860  142.6810 C   0  0  0  0  0  0  0  0  0  0  0  0
  187.5680  177.6180  144.0790 N   0  0  0  0  0  0  0  0  0  0  0  0
  188.9660  177.4850  144.0280 N   0  0  0  0  0  0  0  0  0  0  0  0
  188.1760  177.9530  141.9090 C   0  0  0  0  0  0  0  0  0  0  0  0
  188.0500  178.1690  140.6350 N   0  0  0  0  0  0  0  0  0  0  0  0
  187.0980  177.9010  142.8980 C   0  0  0  0  0  0  0  0  0  0  0  0
  190.5630  177.6450  142.2630 O   0  0  0  0  0  0  0  0  0  0  0  0
  189.7820  177.1810  145.1690 C   0  0  0  0  0  0  0  0  0  0  0  0
  190.0870  177.1390  147.5810 C   0  0  0  0  0  3  0  0  0  0  0  0
  191.3640  176.5970  147.4140 C   0  0  0  0  0  3  0  0  0  0  0  0
  189.3000  177.4300  146.4620 C   0  0  0  0  0  3  0  0  0  0  0  0
  191.0660  176.6350  145.0120 C   0  0  0  0  0  3  0  0  0  0  0  0
  191.8530  176.3440  146.1300 C   0  0  0  0  0  3  0  0  0  0  0  0
  184.5440  179.5380  143.4680 N   0  0  0  0  0  2  0  0  0  0  0  0
  185.6330  178.0270  142.5950 C   0  0  1  0  0  3  0  0  0  0  0  0
  184.8670  178.2110  143.8180 N   0  0  0  0  0  2  0  0  0  0  0  0
  185.2910  179.4370  142.2280 C   0  0  0  0  0  2  0  0  0  0  0  0
  189.1660  178.1660  139.6960 C   0  0  0  0  0  2  0  0  0  0  0  0
  188.8670  178.5540  137.2380 C   0  0  2  0  0  3  0  0  0  0  0  0
  190.2040  176.7510  136.3360 C   0  0  0  0  0  2  0  0  0  0  0  0
  189.8280  176.1250  138.0000 S   0  0  0  0  0  0  0  0  0  0  0  0
  189.1520  177.7720  135.9770 C   0  0  0  0  0  2  0  0  0  0  0  0
  188.7510  177.5450  138.3690 C   0  0  1  0  0  3  0  0  0  0  0  0
  187.6680  179.2550  137.0960 O   0  0  0  0  0  0  0  0  0  0  0  0
  186.6690  178.2930  137.2490 C   0  0  0  0  0  2  0  0  0  0  0  0
  185.6950  178.7690  138.1250 O   0  0  0  0  0  1  0  0  0  0  0  0
  1  3  1  0  0  0  0
  3  2  1  0  0  0  0
  3  8  1  0  0  0  0
  4  1  1  0  0  0  0
  4  6  1  0  0  0  0
  5  4  2  0  0  0  0
  6  2  2  0  0  0  0
  7  1  2  0  0  0  0
  8 11  1  0  0  0  0
 10  9  1  0  0  0  0
 11  9  2  0  0  0  0
 12  8  2  0  0  0  0
 12 13  1  0  0  0  0
 13 10  2  0  0  0  0
 14 16  1  0  0  0  0
 15  6  1  1  0  0  0
 15 16  1  0  0  0  0
 17 15  1  0  0  0  0
 17 14  1  0  0  0  0
 18  5  1  0  0  0  0
 19 24  1  6  0  0  0
 19 23  1  0  0  0  0
 20 21  1  0  0  0  0
 21 23  1  0  0  0  0
 22 20  1  0  0  0  0
 22 19  1  0  0  0  0
 23 18  1  1  0  0  0
 24 25  1  0  0  0  0
 25 26  1  0  0  0  0
M  END
>  <MODEL>
3

>  <REMARK>
 VINA RESULT:      -7.7      2.349      4.932
  Name = 
  6 active torsions:
  status: ('A' for Active; 'I' for Inactive)
    1  A    between atoms: C_2  and  N_10
    2  A    between atoms: C_3  and  O_6
    3  A    between atoms: O_6  and  C_18
    4  A    between atoms: C_11  and  C_21
    5  A    between atoms: C_11  and  N_24
    6  A    between atoms: C_12  and  C_25
                            x       y       z     vdW  Elec       q    Type
                         _______ _______ _______ _____ _____    ______ ____

>  <TORSDO>
F 6

$$$$
=
 OpenBabel11062417163D

 26 29  0  0  1  0  0  0  0  0999 V2000
  188.4860  177.1580  141.9800 C   0  0  0  0  0  0  0  0  0  0  0  0
  187.5200  178.4050  140.3250 N   0  0  0  0  0  0  0  0  0  0  0  0
  188.6160  177.5800  140.6280 N   0  0  0  0  0  0  0  0  0  0  0  0
  187.2650  177.7510  142.4920 C   0  0  0  0  0  0  0  0  0  0  0  0
  186.7490  177.6720  143.6810 N   0  0  0  0  0  0  0  0  0  0  0  0
  186.7310  178.5030  141.3560 C   0  0  0  0  0  0  0  0  0  0  0  0
  189.2870  176.4030  142.5920 O   0  0  0  0  0  0  0  0  0  0  0  0
  189.6640  177.2690  139.6970 C   0  0  0  0  0  0  0  0  0  0  0  0
  192.0210  176.8810  139.2430 C   0  0  0  0  0  3  0  0  0  0  0  0
  191.7290  176.6650  137.8940 C   0  0  0  0  0  3  0  0  0  0  0  0
  190.9920  177.1820  140.1400 C   0  0  0  0  0  3  0  0  0  0  0  0
  189.3810  177.0490  138.3390 C   0  0  0  0  0  3  0  0  0  0  0  0
  190.4100  176.7480  137.4420 C   0  0  0  0  0  3  0  0  0  0  0  0
  183.8280  178.8090  140.3510 N   0  0  0  0  0  2  0  0  0  0  0  0
  185.5110  179.3780  141.3880 C   0  0  1  0  0  3  0  0  0  0  0  0
  184.9770  179.5680  140.0480 N   0  0  0  0  0  2  0  0  0  0  0  0
  184.2920  178.5690  141.7050 C   0  0  0  0  0  2  0  0  0  0  0  0
  187.3570  176.9360  144.7830 C   0  0  0  0  0  2  0  0  0  0  0  0
  187.3480  177.9330  147.0830 C   0  0  2  0  0  3  0  0  0  0  0  0
  189.5890  177.3880  147.8140 C   0  0  0  0  0  2  0  0  0  0  0  0
  189.7720  177.3220  146.0070 S   0  0  0  0  0  0  0  0  0  0  0  0
  188.3920  178.2530  148.1270 C   0  0  0  0  0  2  0  0  0  0  0  0
  188.0620  177.8860  145.7420 C   0  0  1  0  0  3  0  0  0  0  0  0
  186.3720  178.9310  147.0720 O   0  0  0  0  0  0  0  0  0  0  0  0
  185.1600  178.2470  146.9680 C   0  0  0  0  0  2  0  0  0  0  0  0
  184.2630  179.0030  146.2130 O   0  0  0  0  0  1  0  0  0  0  0  0
  1  4  1  0  0  0  0
  1  7  2  0  0  0  0
  2  3  1  0  0  0  0
  2  6  2  0  0  0  0
  3  1  1  0  0  0  0
  4  5  2  0  0  0  0
  5 18  1  0  0  0  0
  6  4  1  0  0  0  0
  8 11  1  0  0  0  0
  8  3  1  0  0  0  0
  9 11  2  0  0  0  0
 10  9  1  0  0  0  0
 12  8  2  0  0  0  0
 13 10  2  0  0  0  0
 13 12  1  0  0  0  0
 14 17  1  0  0  0  0
 15  6  1  6  0  0  0
 15 17  1  0  0  0  0
 16 14  1  0  0  0  0
 16 15  1  0  0  0  0
 19 24  1  6  0  0  0
 19 22  1  0  0  0  0
 20 22  1  0  0  0  0
 21 20  1  0  0  0  0
 23 18  1  6  0  0  0
 23 21  1  0  0  0  0
 23 19  1  0  0  0  0
 25 24  1  0  0  0  0
 26 25  1  0  0  0  0
M  END
>  <MODEL>
4

>  <REMARK>
 VINA RESULT:      -7.7      3.323      7.993
  Name = 
  6 active torsions:
  status: ('A' for Active; 'I' for Inactive)
    1  A    between atoms: C_2  and  N_10
    2  A    between atoms: C_3  and  O_6
    3  A    between atoms: O_6  and  C_18
    4  A    between atoms: C_11  and  C_21
    5  A    between atoms: C_11  and  N_24
    6  A    between atoms: C_12  and  C_25
                            x       y       z     vdW  Elec       q    Type
                         _______ _______ _______ _____ _____    ______ ____

>  <TORSDO>
F 6

$$$$
=
 OpenBabel11062417163D

 26 29  0  0  1  0  0  0  0  0999 V2000
  187.3770  178.2910  141.5230 C   0  0  0  0  0  0  0  0  0  0  0  0
  188.0680  177.0890  143.3410 N   0  0  0  0  0  0  0  0  0  0  0  0
  187.0280  177.8920  142.8440 N   0  0  0  0  0  0  0  0  0  0  0  0
  188.6660  177.6950  141.2280 C   0  0  0  0  0  0  0  0  0  0  0  0
  189.3940  177.8000  140.1580 N   0  0  0  0  0  0  0  0  0  0  0  0
  188.9980  176.9460  142.4410 C   0  0  0  0  0  0  0  0  0  0  0  0
  186.6760  179.0150  140.7680 O   0  0  0  0  0  0  0  0  0  0  0  0
  185.8520  178.2330  143.5930 C   0  0  0  0  0  0  0  0  0  0  0  0
  184.7830  178.6910  145.7280 C   0  0  0  0  0  3  0  0  0  0  0  0
  183.5630  178.8940  145.0790 C   0  0  0  0  0  3  0  0  0  0  0  0
  185.9230  178.3610  144.9880 C   0  0  0  0  0  3  0  0  0  0  0  0
  184.6210  178.4390  142.9490 C   0  0  0  0  0  3  0  0  0  0  0  0
  183.4820  178.7680  143.6900 C   0  0  0  0  0  3  0  0  0  0  0  0
  191.7890  177.1280  143.7460 N   0  0  0  0  0  2  0  0  0  0  0  0
  190.2840  176.2110  142.6850 C   0  0  1  0  0  3  0  0  0  0  0  0
  191.4270  177.0600  142.3850 N   0  0  0  0  0  2  0  0  0  0  0  0
  190.6680  176.2890  144.1290 C   0  0  0  0  0  2  0  0  0  0  0  0
  189.0210  178.6000  138.9970 C   0  0  0  0  0  2  0  0  0  0  0  0
  187.4860  178.5760  137.0150 C   0  0  2  0  0  3  0  0  0  0  0  0
  188.8780  177.4530  135.3870 C   0  0  0  0  0  2  0  0  0  0  0  0
  189.6240  176.8930  136.9470 S   0  0  0  0  0  0  0  0  0  0  0  0
  187.4590  177.8760  135.6780 C   0  0  0  0  0  2  0  0  0  0  0  0
  188.3500  177.7340  137.9390 C   0  0  1  0  0  3  0  0  0  0  0  0
  186.1900  178.6700  137.5250 O   0  0  0  0  0  0  0  0  0  0  0  0
  185.5700  177.4750  137.1530 C   0  0  0  0  0  2  0  0  0  0  0  0
  184.4890  177.2300  137.9980 O   0  0  0  0  0  1  0  0  0  0  0  0
  1  3  1  0  0  0  0
  3  2  1  0  0  0  0
  3  8  1  0  0  0  0
  4  1  1  0  0  0  0
  4  6  1  0  0  0  0
  5  4  2  0  0  0  0
  6  2  2  0  0  0  0
  7  1  2  0  0  0  0
  8 11  1  0  0  0  0
 10  9  1  0  0  0  0
 11  9  2  0  0  0  0
 12  8  2  0  0  0  0
 12 13  1  0  0  0  0
 13 10  2  0  0  0  0
 14 17  1  0  0  0  0
 15  6  1  1  0  0  0
 15 17  1  0  0  0  0
 16 15  1  0  0  0  0
 16 14  1  0  0  0  0
 18  5  1  0  0  0  0
 19 24  1  1  0  0  0
 19 23  1  0  0  0  0
 20 22  1  0  0  0  0
 20 21  1  0  0  0  0
 21 23  1  0  0  0  0
 22 19  1  0  0  0  0
 23 18  1  1  0  0  0
 25 24  1  0  0  0  0
 25 26  1  0  0  0  0
M  END
>  <MODEL>
5

>  <REMARK>
 VINA RESULT:      -7.6      2.192      2.724
  Name = 
  6 active torsions:
  status: ('A' for Active; 'I' for Inactive)
    1  A    between atoms: C_2  and  N_10
    2  A    between atoms: C_3  and  O_6
    3  A    between atoms: O_6  and  C_18
    4  A    between atoms: C_11  and  C_21
    5  A    between atoms: C_11  and  N_24
    6  A    between atoms: C_12  and  C_25
                            x       y       z     vdW  Elec       q    Type
                         _______ _______ _______ _____ _____    ______ ____

>  <TORSDO>
F 6

$$$$
=
 OpenBabel11062417163D

 26 29  0  0  1  0  0  0  0  0999 V2000
  189.2220  177.2400  141.5280 C   0  0  0  0  0  0  0  0  0  0  0  0
  187.6920  178.2370  140.1530 N   0  0  0  0  0  0  0  0  0  0  0  0
  188.8890  177.5020  140.1700 N   0  0  0  0  0  0  0  0  0  0  0  0
  188.1810  177.8370  142.3420 C   0  0  0  0  0  0  0  0  0  0  0  0
  188.0710  177.8790  143.6350 N   0  0  0  0  0  0  0  0  0  0  0  0
  187.2600  178.4240  141.3670 C   0  0  0  0  0  0  0  0  0  0  0  0
  190.2310  176.5980  141.9230 O   0  0  0  0  0  0  0  0  0  0  0  0
  189.6140  177.1250  138.9890 C   0  0  0  0  0  0  0  0  0  0  0  0
  189.6710  176.7780  136.5840 C   0  0  0  0  0  3  0  0  0  0  0  0
  191.0110  176.3900  136.6680 C   0  0  0  0  0  3  0  0  0  0  0  0
  188.9760  177.1430  137.7400 C   0  0  0  0  0  3  0  0  0  0  0  0
  190.9610  176.7350  139.0630 C   0  0  0  0  0  3  0  0  0  0  0  0
  191.6560  176.3700  137.9070 C   0  0  0  0  0  3  0  0  0  0  0  0
  184.1860  178.5750  141.1350 N   0  0  0  0  0  2  0  0  0  0  0  0
  186.0470  179.2440  141.7000 C   0  0  1  0  0  3  0  0  0  0  0  0
  185.1800  179.3770  140.5390 N   0  0  0  0  0  2  0  0  0  0  0  0
  184.9910  178.3900  142.3280 C   0  0  0  0  0  2  0  0  0  0  0  0
  189.0490  177.3070  144.5530 C   0  0  0  0  0  2  0  0  0  0  0  0
  189.3120  177.2880  147.0450 C   0  0  2  0  0  3  0  0  0  0  0  0
  187.3150  178.4800  147.7130 C   0  0  0  0  0  2  0  0  0  0  0  0
  186.8430  177.8780  146.0640 S   0  0  0  0  0  0  0  0  0  0  0  0
  188.4240  177.5950  148.2280 C   0  0  0  0  0  2  0  0  0  0  0  0
  188.3970  176.9480  145.8810 C   0  0  1  0  0  3  0  0  0  0  0  0
  190.1330  176.2000  147.3430 O   0  0  0  0  0  0  0  0  0  0  0  0
  191.3980  176.7520  147.5580 C   0  0  0  0  0  2  0  0  0  0  0  0
  192.0000  177.0260  146.3300 O   0  0  0  0  0  1  0  0  0  0  0  0
  1  7  2  0  0  0  0
  1  4  1  0  0  0  0
  2  3  1  0  0  0  0
  2  6  2  0  0  0  0
  3  1  1  0  0  0  0
  4  5  2  0  0  0  0
  5 18  1  0  0  0  0
  6  4  1  0  0  0  0
  8 12  1  0  0  0  0
  8  3  1  0  0  0  0
  9 10  2  0  0  0  0
  9 11  1  0  0  0  0
 10 13  1  0  0  0  0
 11  8  2  0  0  0  0
 13 12  2  0  0  0  0
 14 17  1  0  0  0  0
 15  6  1  6  0  0  0
 15 17  1  0  0  0  0
 16 14  1  0  0  0  0
 16 15  1  0  0  0  0
 19 24  1  1  0  0  0
 19 22  1  0  0  0  0
 20 22  1  0  0  0  0
 21 20  1  0  0  0  0
 23 18  1  6  0  0  0
 23 21  1  0  0  0  0
 23 19  1  0  0  0  0
 24 25  1  0  0  0  0
 26 25  1  0  0  0  0
M  END
>  <MODEL>
6

>  <REMARK>
 VINA RESULT:      -7.5      3.584      7.666
  Name = 
  6 active torsions:
  status: ('A' for Active; 'I' for Inactive)
    1  A    between atoms: C_2  and  N_10
    2  A    between atoms: C_3  and  O_6
    3  A    between atoms: O_6  and  C_18
    4  A    between atoms: C_11  and  C_21
    5  A    between atoms: C_11  and  N_24
    6  A    between atoms: C_12  and  C_25
                            x       y       z     vdW  Elec       q    Type
                         _______ _______ _______ _____ _____    ______ ____

>  <TORSDO>
F 6

$$$$
=
 OpenBabel11062417163D

 26 29  0  0  1  0  0  0  0  0999 V2000
  185.7360  178.1670  142.1950 C   0  0  0  0  0  0  0  0  0  0  0  0
  186.5630  178.7610  140.1480 N   0  0  0  0  0  0  0  0  0  0  0  0
  185.3850  178.6590  140.9070 N   0  0  0  0  0  0  0  0  0  0  0  0
  187.1740  177.9770  142.1980 C   0  0  0  0  0  0  0  0  0  0  0  0
  187.9410  177.5200  143.1420 N   0  0  0  0  0  0  0  0  0  0  0  0
  187.5910  178.3990  140.8600 C   0  0  0  0  0  0  0  0  0  0  0  0
  184.9320  177.9550  143.1410 O   0  0  0  0  0  0  0  0  0  0  0  0
  184.0800  178.9920  140.4080 C   0  0  0  0  0  0  0  0  0  0  0  0
  182.6860  180.0530  138.7230 C   0  0  0  0  0  3  0  0  0  0  0  0
  181.5400  179.6560  139.4170 C   0  0  0  0  0  3  0  0  0  0  0  0
  183.9510  179.7220  139.2180 C   0  0  0  0  0  3  0  0  0  0  0  0
  182.9230  178.5970  141.0980 C   0  0  0  0  0  3  0  0  0  0  0  0
  181.6580  178.9280  140.6030 C   0  0  0  0  0  3  0  0  0  0  0  0
  189.3510  177.2200  138.6150 N   0  0  0  0  0  2  0  0  0  0  0  0
  188.9890  178.3150  140.3180 C   0  0  1  0  0  3  0  0  0  0  0  0
  189.3350  176.9390  139.9970 N   0  0  0  0  0  2  0  0  0  0  0  0
  189.0030  178.6090  138.8510 C   0  0  0  0  0  2  0  0  0  0  0  0
  187.4520  177.0770  144.4420 C   0  0  0  0  0  2  0  0  0  0  0  0
  187.0680  177.9550  146.7580 C   0  0  2  0  0  3  0  0  0  0  0  0
  189.1520  177.3390  147.8200 C   0  0  0  0  0  2  0  0  0  0  0  0
  189.6330  177.3630  146.0680 S   0  0  0  0  0  0  0  0  0  0  0  0
  187.9260  178.2050  147.9750 C   0  0  0  0  0  2  0  0  0  0  0  0
  187.9940  177.9660  145.5530 C   0  0  1  0  0  3  0  0  0  0  0  0
  186.1150  178.9680  146.6380 O   0  0  0  0  0  0  0  0  0  0  0  0
  184.8840  178.3200  146.7680 C   0  0  0  0  0  2  0  0  0  0  0  0
  183.9130  179.0210  146.0530 O   0  0  0  0  0  1  0  0  0  0  0  0
  1  4  1  0  0  0  0
  1  7  2  0  0  0  0
  2  6  2  0  0  0  0
  2  3  1  0  0  0  0
  3  1  1  0  0  0  0
  4  5  2  0  0  0  0
  5 18  1  0  0  0  0
  6  4  1  0  0  0  0
  8  3  1  0  0  0  0
  8 12  1  0  0  0  0
  9 11  1  0  0  0  0
  9 10  2  0  0  0  0
 10 13  1  0  0  0  0
 11  8  2  0  0  0  0
 13 12  2  0  0  0  0
 14 17  1  0  0  0  0
 14 16  1  0  0  0  0
 15  6  1  6  0  0  0
 16 15  1  0  0  0  0
 17 15  1  0  0  0  0
 19 24  1  6  0  0  0
 19 22  1  0  0  0  0
 20 22  1  0  0  0  0
 21 20  1  0  0  0  0
 23 18  1  6  0  0  0
 23 21  1  0  0  0  0
 23 19  1  0  0  0  0
 24 25  1  0  0  0  0
 26 25  1  0  0  0  0
M  END
>  <MODEL>
7

>  <REMARK>
 VINA RESULT:      -7.4      3.906      6.881
  Name = 
  6 active torsions:
  status: ('A' for Active; 'I' for Inactive)
    1  A    between atoms: C_2  and  N_10
    2  A    between atoms: C_3  and  O_6
    3  A    between atoms: O_6  and  C_18
    4  A    between atoms: C_11  and  C_21
    5  A    between atoms: C_11  and  N_24
    6  A    between atoms: C_12  and  C_25
                            x       y       z     vdW  Elec       q    Type
                         _______ _______ _______ _____ _____    ______ ____

>  <TORSDO>
F 6

$$$$
=
 OpenBabel11062417163D

 26 29  0  0  1  0  0  0  0  0999 V2000
  189.2940  177.6900  142.5910 C   0  0  0  0  0  0  0  0  0  0  0  0
  187.4850  177.5840  143.9860 N   0  0  0  0  0  0  0  0  0  0  0  0
  188.8850  177.4710  143.9360 N   0  0  0  0  0  0  0  0  0  0  0  0
  188.0920  177.9470  141.8200 C   0  0  0  0  0  0  0  0  0  0  0  0
  187.9640  178.1740  140.5480 N   0  0  0  0  0  0  0  0  0  0  0  0
  187.0130  177.8710  142.8070 C   0  0  0  0  0  0  0  0  0  0  0  0
  190.4820  177.6700  142.1750 O   0  0  0  0  0  0  0  0  0  0  0  0
  189.7040  177.1680  145.0750 C   0  0  0  0  0  0  0  0  0  0  0  0
  189.9870  177.0590  147.4870 C   0  0  0  0  0  3  0  0  0  0  0  0
  191.2900  176.5840  147.3170 C   0  0  0  0  0  3  0  0  0  0  0  0
  189.1980  177.3500  146.3700 C   0  0  0  0  0  3  0  0  0  0  0  0
  191.0140  176.6890  144.9140 C   0  0  0  0  0  3  0  0  0  0  0  0
  191.8030  176.3980  146.0310 C   0  0  0  0  0  3  0  0  0  0  0  0
  184.4530  179.5170  143.3210 N   0  0  0  0  0  2  0  0  0  0  0  0
  185.5470  177.9790  142.5030 C   0  0  1  0  0  3  0  0  0  0  0  0
  184.7830  178.2060  143.7200 N   0  0  0  0  0  2  0  0  0  0  0  0
  185.1980  179.3720  142.0840 C   0  0  0  0  0  2  0  0  0  0  0  0
  189.0810  178.1950  139.6110 C   0  0  0  0  0  2  0  0  0  0  0  0
  189.0510  176.7280  137.5780 C   0  0  2  0  0  3  0  0  0  0  0  0
  186.6710  176.5510  137.1910 C   0  0  0  0  0  2  0  0  0  0  0  0
  186.7660  178.0860  138.1590 S   0  0  0  0  0  0  0  0  0  0  0  0
  188.0190  176.3210  136.5540 C   0  0  0  0  0  2  0  0  0  0  0  0
  188.5860  178.0440  138.1790 C   0  0  1  0  0  3  0  0  0  0  0  0
  190.2900  176.8960  136.9570 O   0  0  0  0  0  0  0  0  0  0  0  0
  190.9280  175.6610  137.0860 C   0  0  0  0  0  2  0  0  0  0  0  0
  190.9060  175.2640  138.4230 O   0  0  0  0  0  1  0  0  0  0  0  0
  1  3  1  0  0  0  0
  3  2  1  0  0  0  0
  3  8  1  0  0  0  0
  4  1  1  0  0  0  0
  4  6  1  0  0  0  0
  5  4  2  0  0  0  0
  6  2  2  0  0  0  0
  7  1  2  0  0  0  0
  8 11  1  0  0  0  0
 10  9  1  0  0  0  0
 11  9  2  0  0  0  0
 12  8  2  0  0  0  0
 12 13  1  0  0  0  0
 13 10  2  0  0  0  0
 14 16  1  0  0  0  0
 15  6  1  1  0  0  0
 15 16  1  0  0  0  0
 17 15  1  0  0  0  0
 17 14  1  0  0  0  0
 18  5  1  0  0  0  0
 19 24  1  6  0  0  0
 19 23  1  0  0  0  0
 20 21  1  0  0  0  0
 21 23  1  0  0  0  0
 22 20  1  0  0  0  0
 22 19  1  0  0  0  0
 23 18  1  1  0  0  0
 24 25  1  0  0  0  0
 25 26  1  0  0  0  0
M  END
>  <MODEL>
8

>  <REMARK>
 VINA RESULT:      -7.4      1.997      4.407
  Name = 
  6 active torsions:
  status: ('A' for Active; 'I' for Inactive)
    1  A    between atoms: C_2  and  N_10
    2  A    between atoms: C_3  and  O_6
    3  A    between atoms: O_6  and  C_18
    4  A    between atoms: C_11  and  C_21
    5  A    between atoms: C_11  and  N_24
    6  A    between atoms: C_12  and  C_25
                            x       y       z     vdW  Elec       q    Type
                         _______ _______ _______ _____ _____    ______ ____

>  <TORSDO>
F 6

$$$$
=
 OpenBabel11062417163D

 26 29  0  0  1  0  0  0  0  0999 V2000
  187.0220  178.1820  142.8900 C   0  0  0  0  0  0  0  0  0  0  0  0
  189.2500  177.6980  142.7220 N   0  0  0  0  0  0  0  0  0  0  0  0
  188.1840  177.8250  143.6290 N   0  0  0  0  0  0  0  0  0  0  0  0
  187.4150  178.2630  141.4960 C   0  0  0  0  0  0  0  0  0  0  0  0
  186.7020  178.5820  140.4580 N   0  0  0  0  0  0  0  0  0  0  0  0
  188.8390  177.9220  141.5070 C   0  0  0  0  0  0  0  0  0  0  0  0
  185.8760  178.3760  143.3760 O   0  0  0  0  0  0  0  0  0  0  0  0
  188.3120  177.6330  145.0460 C   0  0  0  0  0  0  0  0  0  0  0  0
  189.6680  177.0120  146.9650 C   0  0  0  0  0  3  0  0  0  0  0  0
  188.5820  177.2480  147.8130 C   0  0  0  0  0  3  0  0  0  0  0  0
  189.5320  177.2040  145.5870 C   0  0  0  0  0  3  0  0  0  0  0  0
  187.2270  177.8680  145.9050 C   0  0  0  0  0  3  0  0  0  0  0  0
  187.3630  177.6760  147.2840 C   0  0  0  0  0  3  0  0  0  0  0  0
  190.7490  176.2330  139.7680 N   0  0  0  0  0  2  0  0  0  0  0  0
  189.7480  177.9450  140.3130 C   0  0  1  0  0  3  0  0  0  0  0  0
  191.0240  177.3190  140.6240 N   0  0  0  0  0  2  0  0  0  0  0  0
  189.4580  176.7890  139.4080 C   0  0  0  0  0  2  0  0  0  0  0  0
  185.2940  178.9530  140.5230 C   0  0  0  0  0  2  0  0  0  0  0  0
  185.5880  178.1540  138.1650 C   0  0  2  0  0  3  0  0  0  0  0  0
  183.7440  176.5990  137.9880 C   0  0  0  0  0  2  0  0  0  0  0  0
  183.1860  177.6690  139.3460 S   0  0  0  0  0  0  0  0  0  0  0  0
  184.7570  177.3700  137.1780 C   0  0  0  0  0  2  0  0  0  0  0  0
  184.6250  178.7680  139.1670 C   0  0  1  0  0  3  0  0  0  0  0  0
  186.2900  179.1590  137.4970 O   0  0  0  0  0  0  0  0  0  0  0  0
  187.4240  178.5250  136.9840 C   0  0  0  0  0  2  0  0  0  0  0  0
  188.5400  179.3360  137.1850 O   0  0  0  0  0  1  0  0  0  0  0  0
  1  7  2  0  0  0  0
  1  3  1  0  0  0  0
  2  3  1  0  0  0  0
  3  8  1  0  0  0  0
  4  6  1  0  0  0  0
  4  1  1  0  0  0  0
  5 18  1  0  0  0  0
  5  4  2  0  0  0  0
  6  2  2  0  0  0  0
  8 11  2  0  0  0  0
  8 12  1  0  0  0  0
  9 10  2  0  0  0  0
 11  9  1  0  0  0  0
 12 13  2  0  0  0  0
 13 10  1  0  0  0  0
 14 16  1  0  0  0  0
 15 16  1  0  0  0  0
 15  6  1  1  0  0  0
 17 14  1  0  0  0  0
 17 15  1  0  0  0  0
 19 24  1  6  0  0  0
 19 23  1  0  0  0  0
 20 21  1  0  0  0  0
 22 20  1  0  0  0  0
 22 19  1  0  0  0  0
 23 21  1  0  0  0  0
 23 18  1  1  0  0  0
 25 26  1  0  0  0  0
 25 24  1  0  0  0  0
M  END
>  <MODEL>
9

>  <REMARK>
 VINA RESULT:      -7.3      2.732      4.097
  Name = 
  6 active torsions:
  status: ('A' for Active; 'I' for Inactive)
    1  A    between atoms: C_2  and  N_10
    2  A    between atoms: C_3  and  O_6
    3  A    between atoms: O_6  and  C_18
    4  A    between atoms: C_11  and  C_21
    5  A    between atoms: C_11  and  N_24
    6  A    between atoms: C_12  and  C_25
                            x       y       z     vdW  Elec       q    Type
                         _______ _______ _______ _____ _____    ______ ____

>  <TORSDO>
F 6

$$$$
