=
 OpenBabel11062415553D

 41 46  0  0  1  0  0  0  0  0999 V2000
  191.3100  177.2550  140.1770 C   0  0  0  0  0  2  0  0  0  0  0  0
  190.1060  177.7020  142.8560 C   0  0  0  0  0  0  0  0  0  0  0  0
  187.8940  178.2340  139.8400 C   0  0  0  0  0  2  0  0  0  0  0  0
  187.8080  177.9560  137.1290 C   0  0  1  0  0  0  0  0  0  0  0  0
  190.9790  176.5020  142.6110 C   0  0  0  0  0  2  0  0  0  0  0  0
  189.9520  176.6030  139.9400 C   0  0  2  0  0  3  0  0  0  0  0  0
  189.6880  176.4290  138.4200 C   0  0  0  0  0  2  0  0  0  0  0  0
  187.6670  177.4810  138.5520 C   0  0  1  0  0  3  0  0  0  0  0  0
  191.9640  176.7320  141.4600 C   0  0  0  0  0  2  0  0  0  0  0  0
  188.7750  177.3170  140.7220 C   0  0  1  0  0  3  0  0  0  0  0  0
  189.1680  178.0750  141.9690 C   0  0  0  0  0  3  0  0  0  0  0  0
  189.0590  177.7190  137.9420 C   0  0  2  0  0  3  0  0  0  0  0  0
  190.3720  178.5990  144.0440 C   0  0  1  0  0  3  0  0  0  0  0  0
  189.5290  178.4010  145.2030 C   0  0  2  0  0  3  0  0  0  0  0  0
  191.8920  177.1730  145.8110 N   0  0  0  0  0  0  0  0  0  0  0  0
  190.9480  177.8230  145.2350 C   0  0  0  0  0  0  0  0  0  0  0  0
  190.4620  175.6300  147.3970 O   0  0  0  0  0  0  0  0  0  0  0  0
  193.0690  175.6330  147.8500 N   0  0  0  0  0  1  0  0  0  0  0  0
  191.6670  176.5280  147.3840 S   0  0  0  0  0  0  0  0  0  0  0  0
  191.4540  177.6540  148.3530 O   0  0  0  0  0  0  0  0  0  0  0  0
  188.5400  177.2330  145.1630 C   0  0  0  0  0  2  0  0  0  0  0  0
  187.3270  177.4680  146.0630 C   0  0  2  0  0  3  0  0  0  0  0  0
  186.1500  177.8990  143.9030 C   0  0  0  0  0  3  0  0  0  0  0  0
  185.0260  178.5090  145.9590 C   0  0  0  0  0  3  0  0  0  0  0  0
  183.9350  178.9820  145.2240 C   0  0  0  0  0  3  0  0  0  0  0  0
  183.9510  178.9110  143.8280 C   0  0  0  0  0  3  0  0  0  0  0  0
  186.1370  177.9620  145.3000 C   0  0  0  0  0  0  0  0  0  0  0  0
  185.0580  178.3700  143.1670 C   0  0  0  0  0  3  0  0  0  0  0  0
  187.6420  178.3240  147.1230 O   0  0  0  0  0  0  0  0  0  0  0  0
  187.8320  177.5240  148.1520 O   0  0  0  0  0  1  0  0  0  0  0  0
  188.4440  176.7370  134.8830 C   0  0  1  0  0  3  0  0  0  0  0  0
  187.4730  176.9600  135.9950 C   0  0  2  0  0  0  0  0  0  0  0  0
  187.3080  177.5650  134.7340 O   0  0  0  0  0  0  0  0  0  0  0  0
  186.0310  175.2660  135.0620 F   0  0  0  0  0  0  0  0  0  0  0  0
  187.0840  174.8360  137.0020 F   0  0  0  0  0  0  0  0  0  0  0  0
  186.4740  175.8230  136.2510 C   0  0  0  0  0  0  0  0  0  0  0  0
  185.3790  176.3020  136.9450 F   0  0  0  0  0  0  0  0  0  0  0  0
  189.6940  177.6020  134.9470 C   0  0  0  0  0  2  0  0  0  0  0  0
  190.8240  176.8010  134.7900 O   0  0  0  0  0  1  0  0  0  0  0  0
  188.5840  179.9840  137.0500 F   0  0  0  0  0  0  0  0  0  0  0  0
  187.4550  179.2990  136.9550 O   0  0  0  0  0  0  0  0  0  0  0  0
  1  9  1  0  0  0  0
  4 41  1  6  0  0  0
  4 12  1  0  0  0  0
  4  8  1  0  0  0  0
  5  2  1  0  0  0  0
  6  7  1  6  0  0  0
  6  1  1  0  0  0  0
  6 10  1  0  0  0  0
  8  3  1  1  0  0  0
  9  5  1  0  0  0  0
 10  3  1  6  0  0  0
 10 11  1  0  0  0  0
 11  2  2  0  0  0  0
 12  7  1  6  0  0  0
 12  8  1  0  0  0  0
 13  2  1  6  0  0  0
 13 14  1  0  0  0  0
 13 16  1  0  0  0  0
 14 21  1  6  0  0  0
 14 16  1  0  0  0  0
 15 19  1  0  0  0  0
 16 15  2  0  0  0  0
 19 17  2  0  0  0  0
 19 18  1  0  0  0  0
 19 20  2  0  0  0  0
 22 21  1  6  0  0  0
 22 29  1  0  0  0  0
 23 27  1  0  0  0  0
 25 24  1  0  0  0  0
 26 25  2  0  0  0  0
 27 24  2  0  0  0  0
 27 22  1  0  0  0  0
 28 26  1  0  0  0  0
 28 23  2  0  0  0  0
 29 30  1  0  0  0  0
 31 38  1  1  0  0  0
 31 32  1  0  0  0  0
 32 36  1  1  0  0  0
 32  4  1  0  0  0  0
 33 31  1  0  0  0  0
 33 32  1  0  0  0  0
 34 36  1  0  0  0  0
 36 37  1  0  0  0  0
 36 35  1  0  0  0  0
 39 38  1  0  0  0  0
 41 40  1  0  0  0  0
M  END
>  <MODEL>
1

>  <REMARK>
 VINA RESULT:      -9.0      0.000      0.000
  Name = 
  10 active torsions:
  status: ('A' for Active; 'I' for Inactive)
    1  A    between atoms: C_2  and  C_19
    2  A    between atoms: C_5  and  C_8
    3  A    between atoms: C_6  and  C_15
    4  A    between atoms: C_6  and  O_22
    5  A    between atoms: O_14  and  C_33
    6  A    between atoms: C_15  and  C_36
    7  A    between atoms: C_30  and  C_38
    8  A    between atoms: S_31  and  N_35
    9  A    between atoms: C_33  and  C_34
   10  A    between atoms: C_33  and  C_38
                            x       y       z     vdW  Elec       q    Type
                         _______ _______ _______ _____ _____    ______ ____

>  <TORSDO>
F 10

$$$$
=
 OpenBabel11062415553D

 41 46  0  0  1  0  0  0  0  0999 V2000
  185.7810  178.6040  143.6050 C   0  0  0  0  0  2  0  0  0  0  0  0
  185.1360  178.6190  140.7050 C   0  0  0  0  0  0  0  0  0  0  0  0
  188.7690  178.2700  141.6810 C   0  0  0  0  0  2  0  0  0  0  0  0
  190.4250  177.9440  143.8230 C   0  0  1  0  0  0  0  0  0  0  0  0
  184.2980  177.8150  141.6600 C   0  0  0  0  0  2  0  0  0  0  0  0
  186.7270  177.5000  143.1450 C   0  0  2  0  0  3  0  0  0  0  0  0
  187.8070  177.2220  144.2250 C   0  0  0  0  0  2  0  0  0  0  0  0
  189.5090  177.4690  142.7240 C   0  0  1  0  0  3  0  0  0  0  0  0
  184.3580  178.3720  143.0870 C   0  0  0  0  0  2  0  0  0  0  0  0
  187.3130  177.7480  141.6950 C   0  0  1  0  0  3  0  0  0  0  0  0
  186.4780  178.6140  140.7790 C   0  0  0  0  0  3  0  0  0  0  0  0
  188.9400  178.1880  143.9590 C   0  0  2  0  0  3  0  0  0  0  0  0
  184.4720  179.5670  139.7320 C   0  0  1  0  0  3  0  0  0  0  0  0
  184.0940  179.0150  138.4500 C   0  0  2  0  0  3  0  0  0  0  0  0
  181.7790  179.1370  139.8930 N   0  0  0  0  0  0  0  0  0  0  0  0
  182.9960  179.2150  139.5010 C   0  0  0  0  0  0  0  0  0  0  0  0
  180.7120  179.1240  137.4840 O   0  0  0  0  0  0  0  0  0  0  0  0
  180.7190  176.7970  138.7450 N   0  0  0  0  0  1  0  0  0  0  0  0
  180.5690  178.5140  138.8500 S   0  0  0  0  0  0  0  0  0  0  0  0
  179.2160  178.8600  139.4040 O   0  0  0  0  0  0  0  0  0  0  0  0
  184.2880  177.5090  138.2470 C   0  0  0  0  0  2  0  0  0  0  0  0
  185.1690  177.1950  137.0380 C   0  0  2  0  0  3  0  0  0  0  0  0
  187.3970  176.5350  137.9550 C   0  0  0  0  0  3  0  0  0  0  0  0
  187.1900  178.7090  136.9090 C   0  0  0  0  0  3  0  0  0  0  0  0
  188.5370  178.9680  137.1760 C   0  0  0  0  0  3  0  0  0  0  0  0
  189.3150  178.0090  137.8310 C   0  0  0  0  0  3  0  0  0  0  0  0
  186.6150  177.4880  137.2940 C   0  0  0  0  0  0  0  0  0  0  0  0
  188.7460  176.7930  138.2210 C   0  0  0  0  0  3  0  0  0  0  0  0
  184.7120  177.8550  135.8930 O   0  0  0  0  0  0  0  0  0  0  0  0
  184.9040  176.9950  134.9140 O   0  0  0  0  0  1  0  0  0  0  0  0
  190.7240  176.8170  146.1840 C   0  0  1  0  0  3  0  0  0  0  0  0
  191.0770  176.8790  144.7350 C   0  0  2  0  0  0  0  0  0  0  0  0
  191.9190  177.4170  145.7270 O   0  0  0  0  0  0  0  0  0  0  0  0
  190.5980  174.7880  143.6310 F   0  0  0  0  0  0  0  0  0  0  0  0
  192.4780  175.8920  143.0800 F   0  0  0  0  0  0  0  0  0  0  0  0
  191.6230  175.5820  144.1210 C   0  0  0  0  0  0  0  0  0  0  0  0
  192.3180  174.8630  145.0740 F   0  0  0  0  0  0  0  0  0  0  0  0
  189.7630  177.8990  146.6520 C   0  0  0  0  0  2  0  0  0  0  0  0
  189.0100  177.4220  147.7230 O   0  0  0  0  0  1  0  0  0  0  0  0
  190.8070  180.0320  144.2900 F   0  0  0  0  0  0  0  0  0  0  0  0
  191.1840  179.0650  143.4670 O   0  0  0  0  0  0  0  0  0  0  0  0
  2 11  2  0  0  0  0
  2  5  1  0  0  0  0
  3 10  1  0  0  0  0
  4 41  1  6  0  0  0
  4 12  1  0  0  0  0
  4 32  1  0  0  0  0
  5  9  1  0  0  0  0
  6  1  1  1  0  0  0
  6  7  1  0  0  0  0
  8  3  1  6  0  0  0
  8  4  1  0  0  0  0
  8 12  1  0  0  0  0
  9  1  1  0  0  0  0
 10 11  1  1  0  0  0
 10  6  1  0  0  0  0
 12  7  1  1  0  0  0
 13  2  1  1  0  0  0
 14 21  1  1  0  0  0
 14 16  1  0  0  0  0
 14 13  1  0  0  0  0
 16 13  1  0  0  0  0
 16 15  2  0  0  0  0
 17 19  2  0  0  0  0
 18 19  1  0  0  0  0
 19 20  2  0  0  0  0
 19 15  1  0  0  0  0
 22 27  1  0  0  0  0
 22 21  1  1  0  0  0
 23 28  1  0  0  0  0
 24 25  2  0  0  0  0
 24 27  1  0  0  0  0
 25 26  1  0  0  0  0
 26 28  2  0  0  0  0
 27 23  2  0  0  0  0
 29 22  1  0  0  0  0
 30 29  1  0  0  0  0
 31 38  1  6  0  0  0
 32 36  1  6  0  0  0
 32 33  1  0  0  0  0
 32 31  1  0  0  0  0
 33 31  1  0  0  0  0
 34 36  1  0  0  0  0
 35 36  1  0  0  0  0
 36 37  1  0  0  0  0
 38 39  1  0  0  0  0
 41 40  1  0  0  0  0
M  END
>  <MODEL>
2

>  <REMARK>
 VINA RESULT:      -7.3      5.083      9.394
  Name = 
  10 active torsions:
  status: ('A' for Active; 'I' for Inactive)
    1  A    between atoms: C_2  and  C_19
    2  A    between atoms: C_5  and  C_8
    3  A    between atoms: C_6  and  C_15
    4  A    between atoms: C_6  and  O_22
    5  A    between atoms: O_14  and  C_33
    6  A    between atoms: C_15  and  C_36
    7  A    between atoms: C_30  and  C_38
    8  A    between atoms: S_31  and  N_35
    9  A    between atoms: C_33  and  C_34
   10  A    between atoms: C_33  and  C_38
                            x       y       z     vdW  Elec       q    Type
                         _______ _______ _______ _____ _____    ______ ____

>  <TORSDO>
F 10

$$$$
=
 OpenBabel11062415553D

 41 46  0  0  1  0  0  0  0  0999 V2000
  184.8140  179.4030  144.3590 C   0  0  0  0  0  2  0  0  0  0  0  0
  184.5900  178.4810  141.5430 C   0  0  0  0  0  0  0  0  0  0  0  0
  187.9050  177.9760  143.2830 C   0  0  0  0  0  2  0  0  0  0  0  0
  189.1490  178.1930  145.7000 C   0  0  1  0  0  0  0  0  0  0  0  0
  183.4810  178.2000  142.5200 C   0  0  0  0  0  2  0  0  0  0  0  0
  185.5670  178.0820  144.4790 C   0  0  2  0  0  3  0  0  0  0  0  0
  186.4080  178.0500  145.7830 C   0  0  0  0  0  2  0  0  0  0  0  0
  188.3140  177.4980  144.6550 C   0  0  1  0  0  3  0  0  0  0  0  0
  183.4590  179.2120  143.6710 C   0  0  0  0  0  2  0  0  0  0  0  0
  186.3840  177.7110  143.1750 C   0  0  1  0  0  3  0  0  0  0  0  0
  185.8780  178.3070  141.8810 C   0  0  0  0  0  3  0  0  0  0  0  0
  187.7420  178.6830  145.4500 C   0  0  2  0  0  3  0  0  0  0  0  0
  184.2740  179.1080  140.2040 C   0  0  1  0  0  3  0  0  0  0  0  0
  185.2400  178.8940  139.1480 C   0  0  2  0  0  3  0  0  0  0  0  0
  183.2020  177.1520  138.6260 N   0  0  0  0  0  0  0  0  0  0  0  0
  183.9570  178.0550  139.1340 C   0  0  0  0  0  0  0  0  0  0  0  0
  184.8420  175.4170  137.5120 O   0  0  0  0  0  0  0  0  0  0  0  0
  182.3560  175.3850  136.6070 N   0  0  0  0  0  1  0  0  0  0  0  0
  183.6800  176.3190  137.2060 S   0  0  0  0  0  0  0  0  0  0  0  0
  184.0920  177.3180  136.1630 O   0  0  0  0  0  0  0  0  0  0  0  0
  186.4160  177.9590  139.4480 C   0  0  0  0  0  2  0  0  0  0  0  0
  187.3820  177.8440  138.2690 C   0  0  2  0  0  3  0  0  0  0  0  0
  189.1410  177.6910  140.0360 C   0  0  0  0  0  3  0  0  0  0  0  0
  189.7120  176.9900  137.7900 C   0  0  0  0  0  3  0  0  0  0  0  0
  191.0090  176.6860  138.2130 C   0  0  0  0  0  3  0  0  0  0  0  0
  191.3710  176.8820  139.5490 C   0  0  0  0  0  3  0  0  0  0  0  0
  188.7710  177.4910  138.7020 C   0  0  0  0  0  0  0  0  0  0  0  0
  190.4370  177.3840  140.4610 C   0  0  0  0  0  3  0  0  0  0  0  0
  187.3720  179.0070  137.4920 O   0  0  0  0  0  0  0  0  0  0  0  0
  187.1270  178.5870  136.2680 O   0  0  0  0  0  1  0  0  0  0  0  0
  190.6440  176.5690  147.1350 C   0  0  1  0  0  3  0  0  0  0  0  0
  189.4370  177.4380  147.0180 C   0  0  2  0  0  0  0  0  0  0  0  0
  189.3560  176.0370  146.9030 O   0  0  0  0  0  0  0  0  0  0  0  0
  188.1360  179.1320  148.1400 F   0  0  0  0  0  0  0  0  0  0  0  0
  188.0220  177.0150  148.8880 F   0  0  0  0  0  0  0  0  0  0  0  0
  188.8600  177.9670  148.3390 C   0  0  0  0  0  0  0  0  0  0  0  0
  189.8830  178.2330  149.2290 F   0  0  0  0  0  0  0  0  0  0  0  0
  191.4730  176.4560  145.8650 C   0  0  0  0  0  2  0  0  0  0  0  0
  192.2820  175.3240  145.9340 O   0  0  0  0  0  1  0  0  0  0  0  0
  190.4040  178.5010  143.9530 F   0  0  0  0  0  0  0  0  0  0  0  0
  190.1640  178.9910  145.1590 O   0  0  0  0  0  0  0  0  0  0  0  0
  2 11  2  0  0  0  0
  2  5  1  0  0  0  0
  4 41  1  6  0  0  0
  4 32  1  0  0  0  0
  5  9  1  0  0  0  0
  6  1  1  6  0  0  0
  6  7  1  0  0  0  0
  8  3  1  6  0  0  0
  8 12  1  0  0  0  0
  8  4  1  0  0  0  0
  9  1  1  0  0  0  0
 10 11  1  6  0  0  0
 10  3  1  0  0  0  0
 10  6  1  0  0  0  0
 12  4  1  0  0  0  0
 12  7  1  1  0  0  0
 13  2  1  1  0  0  0
 14 21  1  1  0  0  0
 14 13  1  0  0  0  0
 15 16  2  0  0  0  0
 16 14  1  0  0  0  0
 16 13  1  0  0  0  0
 18 19  1  0  0  0  0
 19 17  2  0  0  0  0
 19 15  1  0  0  0  0
 20 19  2  0  0  0  0
 22 27  1  0  0  0  0
 22 21  1  1  0  0  0
 23 28  1  0  0  0  0
 24 25  2  0  0  0  0
 24 27  1  0  0  0  0
 25 26  1  0  0  0  0
 26 28  2  0  0  0  0
 27 23  2  0  0  0  0
 29 22  1  0  0  0  0
 30 29  1  0  0  0  0
 31 38  1  6  0  0  0
 32 31  1  0  0  0  0
 32 36  1  1  0  0  0
 33 32  1  0  0  0  0
 33 31  1  0  0  0  0
 34 36  1  0  0  0  0
 36 35  1  0  0  0  0
 36 37  1  0  0  0  0
 38 39  1  0  0  0  0
 40 41  1  0  0  0  0
M  END
>  <MODEL>
3

>  <REMARK>
 VINA RESULT:      -7.2      5.128      9.654
  Name = 
  10 active torsions:
  status: ('A' for Active; 'I' for Inactive)
    1  A    between atoms: C_2  and  C_19
    2  A    between atoms: C_5  and  C_8
    3  A    between atoms: C_6  and  C_15
    4  A    between atoms: C_6  and  O_22
    5  A    between atoms: O_14  and  C_33
    6  A    between atoms: C_15  and  C_36
    7  A    between atoms: C_30  and  C_38
    8  A    between atoms: S_31  and  N_35
    9  A    between atoms: C_33  and  C_34
   10  A    between atoms: C_33  and  C_38
                            x       y       z     vdW  Elec       q    Type
                         _______ _______ _______ _____ _____    ______ ____

>  <TORSDO>
F 10

$$$$
=
 OpenBabel11062415553D

 41 46  0  0  1  0  0  0  0  0999 V2000
  185.5580  178.4370  143.8130 C   0  0  0  0  0  2  0  0  0  0  0  0
  185.0120  178.7500  140.9090 C   0  0  0  0  0  0  0  0  0  0  0  0
  188.6260  178.5630  141.9910 C   0  0  0  0  0  2  0  0  0  0  0  0
  190.2310  178.1080  144.1490 C   0  0  1  0  0  0  0  0  0  0  0  0
  184.2090  177.7760  141.7280 C   0  0  0  0  0  2  0  0  0  0  0  0
  186.6050  177.4700  143.2670 C   0  0  2  0  0  3  0  0  0  0  0  0
  187.6670  177.1470  144.3520 C   0  0  0  0  0  2  0  0  0  0  0  0
  189.3930  177.7010  142.9650 C   0  0  1  0  0  3  0  0  0  0  0  0
  184.1770  178.1610  143.2110 C   0  0  0  0  0  2  0  0  0  0  0  0
  187.2170  177.9340  141.8820 C   0  0  1  0  0  3  0  0  0  0  0  0
  186.3460  178.8370  141.0390 C   0  0  0  0  0  3  0  0  0  0  0  0
  188.7280  178.2210  144.2490 C   0  0  2  0  0  3  0  0  0  0  0  0
  184.3060  179.7540  140.0270 C   0  0  1  0  0  3  0  0  0  0  0  0
  184.1710  179.4030  138.6300 C   0  0  2  0  0  3  0  0  0  0  0  0
  181.7240  178.9070  139.7380 N   0  0  0  0  0  0  0  0  0  0  0  0
  182.9460  179.2380  139.5370 C   0  0  0  0  0  0  0  0  0  0  0  0
  180.9430  179.1920  137.2390 O   0  0  0  0  0  0  0  0  0  0  0  0
  181.2160  176.6960  138.0750 N   0  0  0  0  0  1  0  0  0  0  0  0
  180.7600  178.3200  138.4480 S   0  0  0  0  0  0  0  0  0  0  0  0
  179.3170  178.3460  138.8610 O   0  0  0  0  0  0  0  0  0  0  0  0
  184.6400  178.0080  138.2060 C   0  0  0  0  0  2  0  0  0  0  0  0
  185.8260  178.0610  137.2440 C   0  0  2  0  0  3  0  0  0  0  0  0
  187.3630  176.0940  137.3330 C   0  0  0  0  0  3  0  0  0  0  0  0
  185.5320  176.0430  135.7500 C   0  0  0  0  0  3  0  0  0  0  0  0
  185.9460  174.7830  135.3100 C   0  0  0  0  0  3  0  0  0  0  0  0
  187.0680  174.1770  135.8820 C   0  0  0  0  0  3  0  0  0  0  0  0
  186.2370  176.7020  136.7680 C   0  0  0  0  0  0  0  0  0  0  0  0
  187.7770  174.8330  136.8940 C   0  0  0  0  0  3  0  0  0  0  0  0
  186.9050  178.7500  137.8080 O   0  0  0  0  0  0  0  0  0  0  0  0
  187.3670  179.5030  136.8320 O   0  0  0  0  0  1  0  0  0  0  0  0
  190.6240  176.8090  146.4050 C   0  0  1  0  0  3  0  0  0  0  0  0
  190.9350  176.9950  144.9570 C   0  0  2  0  0  0  0  0  0  0  0  0
  191.7900  177.4760  145.9670 O   0  0  0  0  0  0  0  0  0  0  0  0
  192.2660  174.9860  145.0790 F   0  0  0  0  0  0  0  0  0  0  0  0
  190.4530  174.9980  143.7490 F   0  0  0  0  0  0  0  0  0  0  0  0
  191.4980  175.7660  144.2290 C   0  0  0  0  0  0  0  0  0  0  0  0
  192.2870  176.1650  143.1670 F   0  0  0  0  0  0  0  0  0  0  0  0
  189.6490  177.8230  146.9820 C   0  0  0  0  0  2  0  0  0  0  0  0
  188.7530  177.1790  147.8330 O   0  0  0  0  0  1  0  0  0  0  0  0
  192.0170  179.0110  143.3020 F   0  0  0  0  0  0  0  0  0  0  0  0
  190.9090  179.3180  143.9590 O   0  0  0  0  0  0  0  0  0  0  0  0
  2 11  2  0  0  0  0
  2  5  1  0  0  0  0
  4 41  1  6  0  0  0
  4 12  1  0  0  0  0
  4 32  1  0  0  0  0
  5  9  1  0  0  0  0
  6  1  1  1  0  0  0
  6  7  1  0  0  0  0
  8  3  1  6  0  0  0
  8  4  1  0  0  0  0
  8 12  1  0  0  0  0
  9  1  1  0  0  0  0
 10 11  1  1  0  0  0
 10  3  1  0  0  0  0
 10  6  1  0  0  0  0
 12  7  1  1  0  0  0
 13  2  1  1  0  0  0
 14 21  1  1  0  0  0
 14 16  1  0  0  0  0
 14 13  1  0  0  0  0
 16 15  2  0  0  0  0
 16 13  1  0  0  0  0
 17 19  2  0  0  0  0
 18 19  1  0  0  0  0
 19 20  2  0  0  0  0
 19 15  1  0  0  0  0
 22 29  1  0  0  0  0
 22 21  1  1  0  0  0
 24 27  1  0  0  0  0
 25 24  2  0  0  0  0
 25 26  1  0  0  0  0
 26 28  2  0  0  0  0
 27 22  1  0  0  0  0
 27 23  2  0  0  0  0
 28 23  1  0  0  0  0
 30 29  1  0  0  0  0
 31 38  1  1  0  0  0
 32 36  1  6  0  0  0
 32 33  1  0  0  0  0
 32 31  1  0  0  0  0
 33 31  1  0  0  0  0
 35 36  1  0  0  0  0
 36 34  1  0  0  0  0
 37 36  1  0  0  0  0
 38 39  1  0  0  0  0
 40 41  1  0  0  0  0
M  END
>  <MODEL>
4

>  <REMARK>
 VINA RESULT:      -7.1      5.025      9.494
  Name = 
  10 active torsions:
  status: ('A' for Active; 'I' for Inactive)
    1  A    between atoms: C_2  and  C_19
    2  A    between atoms: C_5  and  C_8
    3  A    between atoms: C_6  and  C_15
    4  A    between atoms: C_6  and  O_22
    5  A    between atoms: O_14  and  C_33
    6  A    between atoms: C_15  and  C_36
    7  A    between atoms: C_30  and  C_38
    8  A    between atoms: S_31  and  N_35
    9  A    between atoms: C_33  and  C_34
   10  A    between atoms: C_33  and  C_38
                            x       y       z     vdW  Elec       q    Type
                         _______ _______ _______ _____ _____    ______ ____

>  <TORSDO>
F 10

$$$$
=
 OpenBabel11062415553D

 41 46  0  0  1  0  0  0  0  0999 V2000
  185.0250  178.9570  143.8530 C   0  0  0  0  0  2  0  0  0  0  0  0
  184.8380  178.6890  140.9000 C   0  0  0  0  0  0  0  0  0  0  0  0
  188.2590  178.3500  142.4680 C   0  0  0  0  0  2  0  0  0  0  0  0
  189.5480  178.2050  144.8660 C   0  0  1  0  0  0  0  0  0  0  0  0
  183.8300  178.0090  141.7850 C   0  0  0  0  0  2  0  0  0  0  0  0
  185.9840  177.7880  143.6590 C   0  0  2  0  0  3  0  0  0  0  0  0
  186.8710  177.5950  144.9170 C   0  0  0  0  0  2  0  0  0  0  0  0
  188.7940  177.6430  143.6880 C   0  0  1  0  0  3  0  0  0  0  0  0
  183.6910  178.7080  143.1420 C   0  0  0  0  0  2  0  0  0  0  0  0
  186.7970  177.8700  142.3020 C   0  0  1  0  0  3  0  0  0  0  0  0
  186.1500  178.6570  141.1850 C   0  0  0  0  0  3  0  0  0  0  0  0
  188.0710  178.4990  144.7410 C   0  0  2  0  0  3  0  0  0  0  0  0
  184.3720  179.5480  139.7470 C   0  0  1  0  0  3  0  0  0  0  0  0
  184.2970  178.9050  138.4530 C   0  0  2  0  0  3  0  0  0  0  0  0
  181.7220  179.0110  139.3550 N   0  0  0  0  0  0  0  0  0  0  0  0
  182.9930  179.1190  139.2280 C   0  0  0  0  0  0  0  0  0  0  0  0
  179.3240  178.4750  138.4050 O   0  0  0  0  0  0  0  0  0  0  0  0
  181.1860  178.9750  136.5930 N   0  0  0  0  0  1  0  0  0  0  0  0
  180.7860  178.2760  138.1210 S   0  0  0  0  0  0  0  0  0  0  0  0
  181.0850  176.8050  138.0860 O   0  0  0  0  0  0  0  0  0  0  0  0
  184.5760  177.4000  138.3970 C   0  0  0  0  0  2  0  0  0  0  0  0
  185.5630  177.0330  137.2890 C   0  0  2  0  0  3  0  0  0  0  0  0
  187.4460  178.6110  136.8390 C   0  0  0  0  0  3  0  0  0  0  0  0
  187.7600  176.9110  138.5340 C   0  0  0  0  0  3  0  0  0  0  0  0
  189.0570  177.3800  138.7650 C   0  0  0  0  0  3  0  0  0  0  0  0
  189.5470  178.4660  138.0350 C   0  0  0  0  0  3  0  0  0  0  0  0
  186.9470  177.5290  137.5710 C   0  0  0  0  0  0  0  0  0  0  0  0
  188.7420  179.0820  137.0720 C   0  0  0  0  0  3  0  0  0  0  0  0
  185.1100  177.4720  136.0410 O   0  0  0  0  0  0  0  0  0  0  0  0
  184.1250  176.6530  135.7370 O   0  0  0  0  0  1  0  0  0  0  0  0
  191.2300  176.3930  145.7720 C   0  0  1  0  0  3  0  0  0  0  0  0
  190.0060  177.2240  145.9700 C   0  0  2  0  0  0  0  0  0  0  0  0
  189.9300  175.8680  145.5950 O   0  0  0  0  0  0  0  0  0  0  0  0
  189.0020  178.7150  147.5780 F   0  0  0  0  0  0  0  0  0  0  0  0
  188.6810  176.5020  147.8140 F   0  0  0  0  0  0  0  0  0  0  0  0
  189.5890  177.4690  147.4270 C   0  0  0  0  0  0  0  0  0  0  0  0
  190.6950  177.4030  148.2530 F   0  0  0  0  0  0  0  0  0  0  0  0
  191.8970  176.5550  144.4150 C   0  0  0  0  0  2  0  0  0  0  0  0
  191.6010  175.4530  143.6140 O   0  0  0  0  0  1  0  0  0  0  0  0
  190.7880  179.0290  143.2830 F   0  0  0  0  0  0  0  0  0  0  0  0
  190.3980  179.2630  144.5270 O   0  0  0  0  0  0  0  0  0  0  0  0
  2 11  2  0  0  0  0
  2  5  1  0  0  0  0
  4 41  1  6  0  0  0
  4 32  1  0  0  0  0
  5  9  1  0  0  0  0
  6  1  1  1  0  0  0
  6  7  1  0  0  0  0
  8  3  1  6  0  0  0
  8 12  1  0  0  0  0
  8  4  1  0  0  0  0
  9  1  1  0  0  0  0
 10 11  1  6  0  0  0
 10  3  1  0  0  0  0
 10  6  1  0  0  0  0
 12  4  1  0  0  0  0
 12  7  1  1  0  0  0
 13  2  1  1  0  0  0
 14 21  1  1  0  0  0
 14 16  1  0  0  0  0
 14 13  1  0  0  0  0
 16 15  2  0  0  0  0
 16 13  1  0  0  0  0
 18 19  1  0  0  0  0
 19 17  2  0  0  0  0
 19 15  1  0  0  0  0
 20 19  2  0  0  0  0
 22 27  1  0  0  0  0
 22 21  1  1  0  0  0
 23 28  2  0  0  0  0
 23 27  1  0  0  0  0
 24 25  1  0  0  0  0
 26 25  2  0  0  0  0
 27 24  2  0  0  0  0
 28 26  1  0  0  0  0
 29 22  1  0  0  0  0
 30 29  1  0  0  0  0
 31 38  1  6  0  0  0
 31 32  1  0  0  0  0
 32 36  1  1  0  0  0
 33 31  1  0  0  0  0
 33 32  1  0  0  0  0
 36 34  1  0  0  0  0
 36 35  1  0  0  0  0
 36 37  1  0  0  0  0
 39 38  1  0  0  0  0
 40 41  1  0  0  0  0
M  END
>  <MODEL>
5

>  <REMARK>
 VINA RESULT:      -7.1      5.519      9.627
  Name = 
  10 active torsions:
  status: ('A' for Active; 'I' for Inactive)
    1  A    between atoms: C_2  and  C_19
    2  A    between atoms: C_5  and  C_8
    3  A    between atoms: C_6  and  C_15
    4  A    between atoms: C_6  and  O_22
    5  A    between atoms: O_14  and  C_33
    6  A    between atoms: C_15  and  C_36
    7  A    between atoms: C_30  and  C_38
    8  A    between atoms: S_31  and  N_35
    9  A    between atoms: C_33  and  C_34
   10  A    between atoms: C_33  and  C_38
                            x       y       z     vdW  Elec       q    Type
                         _______ _______ _______ _____ _____    ______ ____

>  <TORSDO>
F 10

$$$$
=
 OpenBabel11062415553D

 41 46  0  0  1  0  0  0  0  0999 V2000
  189.9800  176.7520  138.9630 C   0  0  0  0  0  2  0  0  0  0  0  0
  187.8170  178.2990  137.6370 C   0  0  0  0  0  0  0  0  0  0  0  0
  187.6120  177.8780  141.3860 C   0  0  0  0  0  2  0  0  0  0  0  0
  188.9830  176.9370  143.5480 C   0  0  1  0  0  0  0  0  0  0  0  0
  189.2530  178.5270  137.2530 C   0  0  0  0  0  2  0  0  0  0  0  0
  189.8340  177.8780  139.9810 C   0  0  2  0  0  3  0  0  0  0  0  0
  190.5000  177.4860  141.3270 C   0  0  0  0  0  2  0  0  0  0  0  0
  188.6120  177.9680  142.5140 C   0  0  1  0  0  3  0  0  0  0  0  0
  190.1280  177.3010  137.5410 C   0  0  0  0  0  2  0  0  0  0  0  0
  188.3440  178.3960  140.1250 C   0  0  1  0  0  3  0  0  0  0  0  0
  187.4490  178.1890  138.9250 C   0  0  0  0  0  3  0  0  0  0  0  0
  189.4530  176.7410  142.1250 C   0  0  2  0  0  3  0  0  0  0  0  0
  186.7810  178.0420  136.5670 C   0  0  1  0  0  3  0  0  0  0  0  0
  186.4860  176.6560  136.2750 C   0  0  2  0  0  3  0  0  0  0  0  0
  184.4180  177.5190  137.8360 N   0  0  0  0  0  0  0  0  0  0  0  0
  185.4940  177.4370  137.1440 C   0  0  0  0  0  0  0  0  0  0  0  0
  184.1850  174.8950  137.8240 O   0  0  0  0  0  0  0  0  0  0  0  0
  182.6700  176.1710  139.5800 N   0  0  0  0  0  1  0  0  0  0  0  0
  183.3910  176.1580  138.0100 S   0  0  0  0  0  0  0  0  0  0  0  0
  182.3110  176.2190  136.9690 O   0  0  0  0  0  0  0  0  0  0  0  0
  187.1540  175.5940  137.1540 C   0  0  0  0  0  2  0  0  0  0  0  0
  187.5670  174.3570  136.3560 C   0  0  2  0  0  3  0  0  0  0  0  0
  189.9230  173.7520  136.9280 C   0  0  0  0  0  3  0  0  0  0  0  0
  189.5200  174.9530  134.8650 C   0  0  0  0  0  3  0  0  0  0  0  0
  190.8910  174.9500  134.5940 C   0  0  0  0  0  3  0  0  0  0  0  0
  191.7780  174.3460  135.4900 C   0  0  0  0  0  3  0  0  0  0  0  0
  189.0290  174.3490  136.0330 C   0  0  0  0  0  0  0  0  0  0  0  0
  191.2940  173.7470  136.6570 C   0  0  0  0  0  3  0  0  0  0  0  0
  186.7910  174.2160  135.2020 O   0  0  0  0  0  0  0  0  0  0  0  0
  186.1900  173.0530  135.3450 O   0  0  0  0  0  1  0  0  0  0  0  0
  189.5880  177.7780  145.9680 C   0  0  1  0  0  3  0  0  0  0  0  0
  190.0300  177.3250  144.6170 C   0  0  2  0  0  0  0  0  0  0  0  0
  190.0060  178.6880  144.9710 O   0  0  0  0  0  0  0  0  0  0  0  0
  191.4610  175.5260  143.8860 F   0  0  0  0  0  0  0  0  0  0  0  0
  192.2590  177.6270  143.8320 F   0  0  0  0  0  0  0  0  0  0  0  0
  191.4520  176.7510  144.5330 C   0  0  0  0  0  0  0  0  0  0  0  0
  191.9690  176.5810  145.8030 F   0  0  0  0  0  0  0  0  0  0  0  0
  188.0810  177.8790  146.1440 C   0  0  0  0  0  2  0  0  0  0  0  0
  187.7170  177.3330  147.3740 O   0  0  0  0  0  1  0  0  0  0  0  0
  188.0100  175.0210  143.2180 F   0  0  0  0  0  0  0  0  0  0  0  0
  187.9080  176.1290  143.9370 O   0  0  0  0  0  0  0  0  0  0  0  0
  2 11  2  0  0  0  0
  4 41  1  1  0  0  0
  4 32  1  0  0  0  0
  5  9  1  0  0  0  0
  5  2  1  0  0  0  0
  6  1  1  6  0  0  0
  6 10  1  0  0  0  0
  6  7  1  0  0  0  0
  8  3  1  6  0  0  0
  8  4  1  0  0  0  0
  9  1  1  0  0  0  0
 10 11  1  6  0  0  0
 10  3  1  0  0  0  0
 12  7  1  1  0  0  0
 12  8  1  0  0  0  0
 12  4  1  0  0  0  0
 13 16  1  0  0  0  0
 13  2  1  1  0  0  0
 14 13  1  0  0  0  0
 14 16  1  0  0  0  0
 14 21  1  1  0  0  0
 15 19  1  0  0  0  0
 16 15  2  0  0  0  0
 17 19  2  0  0  0  0
 19 18  1  0  0  0  0
 20 19  2  0  0  0  0
 22 21  1  6  0  0  0
 24 27  1  0  0  0  0
 25 24  2  0  0  0  0
 25 26  1  0  0  0  0
 26 28  2  0  0  0  0
 27 22  1  0  0  0  0
 27 23  2  0  0  0  0
 28 23  1  0  0  0  0
 29 30  1  0  0  0  0
 29 22  1  0  0  0  0
 31 38  1  6  0  0  0
 32 36  1  6  0  0  0
 32 33  1  0  0  0  0
 32 31  1  0  0  0  0
 33 31  1  0  0  0  0
 34 36  1  0  0  0  0
 35 36  1  0  0  0  0
 36 37  1  0  0  0  0
 38 39  1  0  0  0  0
 40 41  1  0  0  0  0
M  END
>  <MODEL>
6

>  <REMARK>
 VINA RESULT:      -7.0      4.631      9.489
  Name = 
  10 active torsions:
  status: ('A' for Active; 'I' for Inactive)
    1  A    between atoms: C_2  and  C_19
    2  A    between atoms: C_5  and  C_8
    3  A    between atoms: C_6  and  C_15
    4  A    between atoms: C_6  and  O_22
    5  A    between atoms: O_14  and  C_33
    6  A    between atoms: C_15  and  C_36
    7  A    between atoms: C_30  and  C_38
    8  A    between atoms: S_31  and  N_35
    9  A    between atoms: C_33  and  C_34
   10  A    between atoms: C_33  and  C_38
                            x       y       z     vdW  Elec       q    Type
                         _______ _______ _______ _____ _____    ______ ____

>  <TORSDO>
F 10

$$$$
=
 OpenBabel11062415553D

 41 46  0  0  1  0  0  0  0  0999 V2000
  191.0940  176.6280  141.2170 C   0  0  0  0  0  2  0  0  0  0  0  0
  189.8060  177.6580  143.6890 C   0  0  0  0  0  0  0  0  0  0  0  0
  188.2520  178.6220  140.3830 C   0  0  0  0  0  2  0  0  0  0  0  0
  188.3900  178.1630  137.6990 C   0  0  1  0  0  0  0  0  0  0  0  0
  190.2580  176.2250  143.6130 C   0  0  0  0  0  2  0  0  0  0  0  0
  189.6330  176.4300  140.8260 C   0  0  2  0  0  3  0  0  0  0  0  0
  189.5020  176.2250  139.2930 C   0  0  0  0  0  2  0  0  0  0  0  0
  187.9390  177.8770  139.1080 C   0  0  1  0  0  3  0  0  0  0  0  0
  191.3880  176.0310  142.5970 C   0  0  0  0  0  2  0  0  0  0  0  0
  188.6760  177.5460  141.4120 C   0  0  1  0  0  3  0  0  0  0  0  0
  189.1520  178.2380  142.6700 C   0  0  0  0  0  3  0  0  0  0  0  0
  189.3910  177.6050  138.6820 C   0  0  2  0  0  3  0  0  0  0  0  0
  190.2150  178.5170  144.8640 C   0  0  1  0  0  3  0  0  0  0  0  0
  189.5850  178.2170  146.1320 C   0  0  2  0  0  3  0  0  0  0  0  0
  192.0770  177.1100  146.2860 N   0  0  0  0  0  0  0  0  0  0  0  0
  191.0190  177.7250  145.9050 C   0  0  0  0  0  0  0  0  0  0  0  0
  191.0360  175.3820  147.9810 O   0  0  0  0  0  0  0  0  0  0  0  0
  193.6730  175.6000  148.0440 N   0  0  0  0  0  1  0  0  0  0  0  0
  192.1480  176.3840  147.8380 S   0  0  0  0  0  0  0  0  0  0  0  0
  191.9920  177.4470  148.8870 O   0  0  0  0  0  0  0  0  0  0  0  0
  188.6660  176.9930  146.1900 C   0  0  0  0  0  2  0  0  0  0  0  0
  187.2750  177.3370  146.7230 C   0  0  2  0  0  3  0  0  0  0  0  0
  185.5460  178.9890  146.0030 C   0  0  0  0  0  3  0  0  0  0  0  0
  186.3680  177.4070  144.3640 C   0  0  0  0  0  3  0  0  0  0  0  0
  185.5170  177.9590  143.4030 C   0  0  0  0  0  3  0  0  0  0  0  0
  184.6820  179.0280  143.7400 C   0  0  0  0  0  3  0  0  0  0  0  0
  186.3890  177.9230  145.6690 C   0  0  0  0  0  0  0  0  0  0  0  0
  184.6970  179.5440  145.0400 C   0  0  0  0  0  3  0  0  0  0  0  0
  187.3540  178.1710  147.8430 O   0  0  0  0  0  0  0  0  0  0  0  0
  188.1230  177.5190  148.6900 O   0  0  0  0  0  1  0  0  0  0  0  0
  186.4180  177.1620  136.2690 C   0  0  1  0  0  3  0  0  0  0  0  0
  187.8780  177.2370  136.5720 C   0  0  2  0  0  0  0  0  0  0  0  0
  187.0790  176.1710  137.0280 O   0  0  0  0  0  0  0  0  0  0  0  0
  189.0870  177.9100  134.5950 F   0  0  0  0  0  0  0  0  0  0  0  0
  190.0150  176.3820  135.9590 F   0  0  0  0  0  0  0  0  0  0  0  0
  188.8220  176.8360  135.4300 C   0  0  0  0  0  0  0  0  0  0  0  0
  188.2520  175.8260  134.6770 F   0  0  0  0  0  0  0  0  0  0  0  0
  185.5340  177.9940  137.1850 C   0  0  0  0  0  2  0  0  0  0  0  0
  184.7140  177.1510  137.9330 O   0  0  0  0  0  1  0  0  0  0  0  0
  187.7580  179.7600  136.3660 F   0  0  0  0  0  0  0  0  0  0  0  0
  188.5210  179.5290  137.4240 O   0  0  0  0  0  0  0  0  0  0  0  0
  1  9  1  0  0  0  0
  4 41  1  6  0  0  0
  4 12  1  0  0  0  0
  4  8  1  0  0  0  0
  5  2  1  0  0  0  0
  6  7  1  6  0  0  0
  6  1  1  0  0  0  0
  6 10  1  0  0  0  0
  8  3  1  1  0  0  0
  9  5  1  0  0  0  0
 10  3  1  6  0  0  0
 10 11  1  0  0  0  0
 11  2  2  0  0  0  0
 12  8  1  0  0  0  0
 12  7  1  6  0  0  0
 13  2  1  6  0  0  0
 13 16  1  0  0  0  0
 13 14  1  0  0  0  0
 14 21  1  6  0  0  0
 15 19  1  0  0  0  0
 16 14  1  0  0  0  0
 16 15  2  0  0  0  0
 19 17  2  0  0  0  0
 19 18  1  0  0  0  0
 19 20  2  0  0  0  0
 22 21  1  6  0  0  0
 22 29  1  0  0  0  0
 24 27  2  0  0  0  0
 25 26  2  0  0  0  0
 25 24  1  0  0  0  0
 26 28  1  0  0  0  0
 27 23  1  0  0  0  0
 27 22  1  0  0  0  0
 28 23  2  0  0  0  0
 29 30  1  0  0  0  0
 31 32  1  0  0  0  0
 31 33  1  0  0  0  0
 31 38  1  1  0  0  0
 32 36  1  6  0  0  0
 32 33  1  0  0  0  0
 32  4  1  0  0  0  0
 34 36  1  0  0  0  0
 36 35  1  0  0  0  0
 37 36  1  0  0  0  0
 38 39  1  0  0  0  0
 40 41  1  0  0  0  0
M  END
>  <MODEL>
7

>  <REMARK>
 VINA RESULT:      -6.9      1.389      2.087
  Name = 
  10 active torsions:
  status: ('A' for Active; 'I' for Inactive)
    1  A    between atoms: C_2  and  C_19
    2  A    between atoms: C_5  and  C_8
    3  A    between atoms: C_6  and  C_15
    4  A    between atoms: C_6  and  O_22
    5  A    between atoms: O_14  and  C_33
    6  A    between atoms: C_15  and  C_36
    7  A    between atoms: C_30  and  C_38
    8  A    between atoms: S_31  and  N_35
    9  A    between atoms: C_33  and  C_34
   10  A    between atoms: C_33  and  C_38
                            x       y       z     vdW  Elec       q    Type
                         _______ _______ _______ _____ _____    ______ ____

>  <TORSDO>
F 10

$$$$
=
 OpenBabel11062415553D

 41 46  0  0  1  0  0  0  0  0999 V2000
  189.9350  176.5280  138.6820 C   0  0  0  0  0  2  0  0  0  0  0  0
  187.8840  178.1500  137.2710 C   0  0  0  0  0  0  0  0  0  0  0  0
  187.6440  177.9290  141.0350 C   0  0  0  0  0  2  0  0  0  0  0  0
  188.9430  177.0060  143.2470 C   0  0  1  0  0  0  0  0  0  0  0  0
  189.3330  178.2610  136.8830 C   0  0  0  0  0  2  0  0  0  0  0  0
  189.8630  177.7100  139.6430 C   0  0  2  0  0  3  0  0  0  0  0  0
  190.4990  177.3420  141.0100 C   0  0  0  0  0  2  0  0  0  0  0  0
  188.6450  178.0080  142.1620 C   0  0  1  0  0  3  0  0  0  0  0  0
  190.1220  176.9950  137.2360 C   0  0  0  0  0  2  0  0  0  0  0  0
  188.4110  178.3340  139.7540 C   0  0  1  0  0  3  0  0  0  0  0  0
  187.5060  178.1280  138.5600 C   0  0  0  0  0  3  0  0  0  0  0  0
  189.4020  176.7090  141.8390 C   0  0  2  0  0  3  0  0  0  0  0  0
  186.8350  177.9100  136.2090 C   0  0  1  0  0  3  0  0  0  0  0  0
  186.3460  176.5550  136.0800 C   0  0  2  0  0  3  0  0  0  0  0  0
  184.4060  177.8920  137.4600 N   0  0  0  0  0  0  0  0  0  0  0  0
  185.4670  177.5710  136.8160 C   0  0  0  0  0  0  0  0  0  0  0  0
  183.5780  175.8870  138.9550 O   0  0  0  0  0  0  0  0  0  0  0  0
  181.6860  177.5140  138.0730 N   0  0  0  0  0  1  0  0  0  0  0  0
  183.1910  176.7220  137.7680 S   0  0  0  0  0  0  0  0  0  0  0  0
  183.0470  175.8330  136.5660 O   0  0  0  0  0  0  0  0  0  0  0  0
  186.8420  175.5270  137.1010 C   0  0  0  0  0  2  0  0  0  0  0  0
  187.2750  174.2170  136.4440 C   0  0  2  0  0  3  0  0  0  0  0  0
  186.1170  172.2960  135.3430 C   0  0  0  0  0  3  0  0  0  0  0  0
  185.1790  173.1730  137.3960 C   0  0  0  0  0  3  0  0  0  0  0  0
  184.1470  172.2320  137.3270 C   0  0  0  0  0  3  0  0  0  0  0  0
  184.1020  171.3220  136.2670 C   0  0  0  0  0  3  0  0  0  0  0  0
  186.1710  173.2060  136.4050 C   0  0  0  0  0  0  0  0  0  0  0  0
  185.0870  171.3530  135.2750 C   0  0  0  0  0  3  0  0  0  0  0  0
  188.4190  173.6960  137.0570 O   0  0  0  0  0  0  0  0  0  0  0  0
  189.3340  173.6970  136.1100 O   0  0  0  0  0  1  0  0  0  0  0  0
  189.5980  177.9030  145.6350 C   0  0  1  0  0  3  0  0  0  0  0  0
  190.0120  177.3750  144.3010 C   0  0  2  0  0  0  0  0  0  0  0  0
  190.0640  178.7500  144.6030 O   0  0  0  0  0  0  0  0  0  0  0  0
  191.9570  176.6060  145.5040 F   0  0  0  0  0  0  0  0  0  0  0  0
  191.2860  175.4570  143.6910 F   0  0  0  0  0  0  0  0  0  0  0  0
  191.3990  176.7200  144.2400 C   0  0  0  0  0  0  0  0  0  0  0  0
  192.2460  177.4780  143.4540 F   0  0  0  0  0  0  0  0  0  0  0  0
  188.0990  178.0950  145.8060 C   0  0  0  0  0  2  0  0  0  0  0  0
  187.6640  177.3930  146.9280 O   0  0  0  0  0  1  0  0  0  0  0  0
  188.0240  175.0380  143.3020 F   0  0  0  0  0  0  0  0  0  0  0  0
  187.8160  176.2930  143.6700 O   0  0  0  0  0  0  0  0  0  0  0  0
  2 11  2  0  0  0  0
  4 41  1  1  0  0  0
  4 32  1  0  0  0  0
  5  9  1  0  0  0  0
  5  2  1  0  0  0  0
  6  1  1  6  0  0  0
  6 10  1  0  0  0  0
  6  7  1  0  0  0  0
  8  3  1  6  0  0  0
  8  4  1  0  0  0  0
  9  1  1  0  0  0  0
 10 11  1  6  0  0  0
 10  3  1  0  0  0  0
 12  7  1  1  0  0  0
 12  8  1  0  0  0  0
 12  4  1  0  0  0  0
 13 16  1  0  0  0  0
 13  2  1  1  0  0  0
 14 13  1  0  0  0  0
 14 16  1  0  0  0  0
 14 21  1  1  0  0  0
 15 19  1  0  0  0  0
 16 15  2  0  0  0  0
 19 18  1  0  0  0  0
 19 17  2  0  0  0  0
 20 19  2  0  0  0  0
 22 29  1  0  0  0  0
 22 21  1  1  0  0  0
 23 27  1  0  0  0  0
 25 24  1  0  0  0  0
 26 25  2  0  0  0  0
 27 22  1  0  0  0  0
 27 24  2  0  0  0  0
 28 23  2  0  0  0  0
 28 26  1  0  0  0  0
 30 29  1  0  0  0  0
 31 38  1  6  0  0  0
 32 36  1  6  0  0  0
 32 33  1  0  0  0  0
 32 31  1  0  0  0  0
 33 31  1  0  0  0  0
 35 36  1  0  0  0  0
 36 34  1  0  0  0  0
 37 36  1  0  0  0  0
 38 39  1  0  0  0  0
 40 41  1  0  0  0  0
M  END
>  <MODEL>
8

>  <REMARK>
 VINA RESULT:      -6.9      4.838      9.251
  Name = 
  10 active torsions:
  status: ('A' for Active; 'I' for Inactive)
    1  A    between atoms: C_2  and  C_19
    2  A    between atoms: C_5  and  C_8
    3  A    between atoms: C_6  and  C_15
    4  A    between atoms: C_6  and  O_22
    5  A    between atoms: O_14  and  C_33
    6  A    between atoms: C_15  and  C_36
    7  A    between atoms: C_30  and  C_38
    8  A    between atoms: S_31  and  N_35
    9  A    between atoms: C_33  and  C_34
   10  A    between atoms: C_33  and  C_38
                            x       y       z     vdW  Elec       q    Type
                         _______ _______ _______ _____ _____    ______ ____

>  <TORSDO>
F 10

$$$$
=
 OpenBabel11062415553D

 41 46  0  0  1  0  0  0  0  0999 V2000
  185.2110  177.5560  136.4980 C   0  0  0  0  0  2  0  0  0  0  0  0
  187.6080  177.7380  138.2440 C   0  0  0  0  0  0  0  0  0  0  0  0
  184.3460  179.0540  139.6210 C   0  0  0  0  0  2  0  0  0  0  0  0
  181.6750  179.2260  139.0980 C   0  0  1  0  0  0  0  0  0  0  0  0
  187.3340  176.4800  137.4660 C   0  0  0  0  0  2  0  0  0  0  0  0
  184.5730  177.1510  137.8230 C   0  0  2  0  0  3  0  0  0  0  0  0
  183.0270  177.2600  137.7390 C   0  0  0  0  0  2  0  0  0  0  0  0
  182.9210  178.5550  139.6160 C   0  0  1  0  0  3  0  0  0  0  0  0
  186.4820  176.7480  136.2200 C   0  0  0  0  0  2  0  0  0  0  0  0
  185.2060  177.8920  139.0700 C   0  0  1  0  0  3  0  0  0  0  0  0
  186.6280  178.3770  138.9040 C   0  0  0  0  0  3  0  0  0  0  0  0
  182.6760  178.6870  138.1030 C   0  0  2  0  0  3  0  0  0  0  0  0
  188.9720  178.3870  138.1730 C   0  0  1  0  0  3  0  0  0  0  0  0
  189.9460  177.9490  139.1490 C   0  0  2  0  0  3  0  0  0  0  0  0
  190.6190  176.6670  136.8340 N   0  0  0  0  0  0  0  0  0  0  0  0
  190.0570  177.4000  137.7220 C   0  0  0  0  0  0  0  0  0  0  0  0
  192.7060  175.3070  135.9740 O   0  0  0  0  0  0  0  0  0  0  0  0
  193.0570  176.6320  138.2380 N   0  0  0  0  0  1  0  0  0  0  0  0
  191.9910  175.7190  137.2310 S   0  0  0  0  0  0  0  0  0  0  0  0
  191.5440  174.4900  137.9690 O   0  0  0  0  0  0  0  0  0  0  0  0
  189.5470  176.7940  140.0730 C   0  0  0  0  0  2  0  0  0  0  0  0
  190.2180  176.8890  141.4430 C   0  0  2  0  0  3  0  0  0  0  0  0
  189.6300  176.9310  143.8710 C   0  0  0  0  0  3  0  0  0  0  0  0
  187.9190  177.5400  142.2690 C   0  0  0  0  0  3  0  0  0  0  0  0
  187.0130  177.7450  143.3130 C   0  0  0  0  0  3  0  0  0  0  0  0
  187.4160  177.5450  144.6360 C   0  0  0  0  0  3  0  0  0  0  0  0
  189.2340  177.1360  142.5440 C   0  0  0  0  0  0  0  0  0  0  0  0
  188.7240  177.1390  144.9160 C   0  0  0  0  0  3  0  0  0  0  0  0
  191.2340  177.8500  141.4440 O   0  0  0  0  0  0  0  0  0  0  0  0
  192.3450  177.1600  141.5890 O   0  0  0  0  0  1  0  0  0  0  0  0
  179.3440  178.4670  138.1370 C   0  0  1  0  0  3  0  0  0  0  0  0
  180.3300  178.4810  139.2580 C   0  0  2  0  0  0  0  0  0  0  0  0
  179.2050  179.3280  139.2490 O   0  0  0  0  0  0  0  0  0  0  0  0
  178.9310  177.2570  140.7940 F   0  0  0  0  0  0  0  0  0  0  0  0
  180.5050  176.1370  139.6450 F   0  0  0  0  0  0  0  0  0  0  0  0
  180.2110  177.3340  140.2710 C   0  0  0  0  0  0  0  0  0  0  0  0
  181.1000  177.5270  141.3110 F   0  0  0  0  0  0  0  0  0  0  0  0
  179.7530  179.2800  136.9180 C   0  0  0  0  0  2  0  0  0  0  0  0
  180.0990  178.4190  135.8780 O   0  0  0  0  0  1  0  0  0  0  0  0
  182.0980  181.1120  138.1030 F   0  0  0  0  0  0  0  0  0  0  0  0
  181.6850  180.6170  139.2600 O   0  0  0  0  0  0  0  0  0  0  0  0
  2 11  2  0  0  0  0
  4 32  1  0  0  0  0
  4 41  1  1  0  0  0
  4  8  1  0  0  0  0
  5  2  1  0  0  0  0
  6  1  1  6  0  0  0
  6 10  1  0  0  0  0
  7  6  1  0  0  0  0
  8  3  1  1  0  0  0
  9  1  1  0  0  0  0
  9  5  1  0  0  0  0
 10 11  1  6  0  0  0
 10  3  1  0  0  0  0
 12  7  1  6  0  0  0
 12  4  1  0  0  0  0
 12  8  1  0  0  0  0
 13  2  1  1  0  0  0
 13 14  1  0  0  0  0
 14 21  1  1  0  0  0
 15 19  1  0  0  0  0
 15 16  2  0  0  0  0
 16 13  1  0  0  0  0
 16 14  1  0  0  0  0
 17 19  2  0  0  0  0
 19 20  2  0  0  0  0
 19 18  1  0  0  0  0
 22 21  1  6  0  0  0
 22 29  1  0  0  0  0
 22 27  1  0  0  0  0
 23 28  1  0  0  0  0
 24 27  1  0  0  0  0
 24 25  2  0  0  0  0
 25 26  1  0  0  0  0
 26 28  2  0  0  0  0
 27 23  2  0  0  0  0
 29 30  1  0  0  0  0
 31 38  1  6  0  0  0
 31 33  1  0  0  0  0
 31 32  1  0  0  0  0
 32 36  1  1  0  0  0
 33 32  1  0  0  0  0
 35 36  1  0  0  0  0
 36 34  1  0  0  0  0
 36 37  1  0  0  0  0
 39 38  1  0  0  0  0
 40 41  1  0  0  0  0
M  END
>  <MODEL>
9

>  <REMARK>
 VINA RESULT:      -6.5      4.910      7.216
  Name = 
  10 active torsions:
  status: ('A' for Active; 'I' for Inactive)
    1  A    between atoms: C_2  and  C_19
    2  A    between atoms: C_5  and  C_8
    3  A    between atoms: C_6  and  C_15
    4  A    between atoms: C_6  and  O_22
    5  A    between atoms: O_14  and  C_33
    6  A    between atoms: C_15  and  C_36
    7  A    between atoms: C_30  and  C_38
    8  A    between atoms: S_31  and  N_35
    9  A    between atoms: C_33  and  C_34
   10  A    between atoms: C_33  and  C_38
                            x       y       z     vdW  Elec       q    Type
                         _______ _______ _______ _____ _____    ______ ____

>  <TORSDO>
F 10

$$$$
