=
 OpenBabel11062412343D

 33 36  0  0  1  0  0  0  0  0999 V2000
  189.5230  177.6600  140.0550 C   0  0  1  0  0  3  0  0  0  0  0  0
  191.5390  176.8850  138.7700 C   0  0  1  0  0  3  0  0  0  0  0  0
  192.9380  177.0600  139.1410 C   0  0  0  0  0  0  0  0  0  0  0  0
  191.5700  175.5330  138.0720 C   0  0  0  0  0  2  0  0  0  0  0  0
  193.1490  177.3400  140.3770 N   0  0  0  0  0  0  0  0  0  0  0  0
  193.0140  175.3790  137.5620 C   0  0  1  0  0  3  0  0  0  0  0  0
  190.8440  176.8850  140.1240 C   0  0  1  0  0  3  0  0  0  0  0  0
  193.0890  175.8180  136.1800 N   0  0  0  0  0  1  0  0  0  0  0  0
  191.8800  177.5270  141.0590 C   0  0  1  0  0  3  0  0  0  0  0  0
  193.8250  176.2570  138.3930 N   0  0  0  0  0  2  0  0  0  0  0  0
  191.8950  176.8060  142.3970 C   0  0  0  0  0  2  0  0  0  0  0  0
  191.6380  177.7640  143.5090 C   0  0  0  0  0  0  0  0  0  0  0  0
  191.2990  178.9470  143.2530 O   0  0  0  0  0  0  0  0  0  0  0  0
  191.7400  177.3420  144.8260 O   0  0  0  0  0  1  0  0  0  0  0  0
  188.2350  176.5930  138.2010 C   0  0  0  0  0  3  0  0  0  0  0  0
  188.9510  177.6990  138.6710 C   0  0  0  0  0  0  0  0  0  0  0  0
  187.8110  177.7410  136.1120 C   0  0  0  0  0  3  0  0  0  0  0  0
  189.0880  178.8340  137.8560 C   0  0  0  0  0  3  0  0  0  0  0  0
  187.6680  176.6120  136.9230 C   0  0  0  0  0  3  0  0  0  0  0  0
  188.5200  178.8530  136.5780 C   0  0  0  0  0  3  0  0  0  0  0  0
  188.5000  177.2270  141.1050 C   0  0  0  0  0  2  0  0  0  0  0  0
  187.2070  178.4940  141.2870 S   0  0  0  0  0  0  0  0  0  0  0  0
  185.7020  178.2520  145.1200 C   0  0  0  0  0  0  0  0  0  0  0  0
  188.0330  177.5320  143.7210 C   0  0  0  0  0  3  0  0  0  0  0  0
  185.8000  178.5050  143.7250 C   0  0  0  0  0  0  0  0  0  0  0  0
  186.9840  178.1530  143.0380 C   0  0  0  0  0  0  0  0  0  0  0  0
  188.9510  176.6680  145.7370 F   0  0  0  0  0  0  0  0  0  0  0  0
  187.9280  177.2680  145.0830 C   0  0  0  0  0  0  0  0  0  0  0  0
  184.4720  179.2310  142.8120 Cl  0  0  0  0  0  0  0  0  0  0  0  0
  186.7750  177.6310  145.7740 C   0  0  0  0  0  3  0  0  0  0  0  0
  184.5280  178.6200  145.9510 C   0  0  0  0  0  0  0  0  0  0  0  0
  184.5790  178.4480  147.3290 O   0  0  0  0  0  1  0  0  0  0  0  0
  183.4830  179.1010  145.4430 O   0  0  0  0  0  0  0  0  0  0  0  0
  1 21  1  1  0  0  0
  2  4  1  1  0  0  0
  2  3  1  0  0  0  0
  2  7  1  0  0  0  0
  3  5  2  0  0  0  0
  5  9  1  0  0  0  0
  6  8  1  6  0  0  0
  6  4  1  0  0  0  0
  6 10  1  0  0  0  0
  7  1  1  6  0  0  0
  7  9  1  0  0  0  0
  9 11  1  1  0  0  0
 10  3  1  0  0  0  0
 11 12  1  0  0  0  0
 12 14  1  0  0  0  0
 13 12  2  0  0  0  0
 15 16  1  0  0  0  0
 16  1  1  0  0  0  0
 17 20  2  0  0  0  0
 17 19  1  0  0  0  0
 18 16  2  0  0  0  0
 19 15  2  0  0  0  0
 20 18  1  0  0  0  0
 21 22  1  0  0  0  0
 22 26  1  0  0  0  0
 23 30  1  0  0  0  0
 23 31  1  0  0  0  0
 24 28  1  0  0  0  0
 25 23  2  0  0  0  0
 26 24  2  0  0  0  0
 26 25  1  0  0  0  0
 28 27  1  0  0  0  0
 28 30  2  0  0  0  0
 29 25  1  0  0  0  0
 31 32  1  0  0  0  0
 33 31  2  0  0  0  0
M  END
>  <MODEL>
1

>  <REMARK>
 VINA RESULT:      -8.3      0.000      0.000
  Name = 
  8 active torsions:
  status: ('A' for Active; 'I' for Inactive)
    1  A    between atoms: C_2  and  C_6
    2  A    between atoms: C_2  and  C_13
    3  A    between atoms: C_2  and  C_18
    4  A    between atoms: C_4  and  C_22
    5  A    between atoms: S_5  and  C_13
    6  A    between atoms: S_5  and  C_19
    7  A    between atoms: C_8  and  C_14
    8  A    between atoms: C_22  and  C_25
                            x       y       z     vdW  Elec       q    Type
                         _______ _______ _______ _____ _____    ______ ____

>  <TORSDO>
F 8

$$$$
=
 OpenBabel11062412343D

 33 36  0  0  1  0  0  0  0  0999 V2000
  187.3040  178.1100  143.7140 C   0  0  1  0  0  3  0  0  0  0  0  0
  187.7500  178.2510  146.1840 C   0  0  1  0  0  3  0  0  0  0  0  0
  186.9460  178.9410  147.1850 C   0  0  0  0  0  0  0  0  0  0  0  0
  188.2670  177.0550  146.9720 C   0  0  0  0  0  2  0  0  0  0  0  0
  185.7430  179.2190  146.8280 N   0  0  0  0  0  0  0  0  0  0  0  0
  188.2400  177.5050  148.4430 C   0  0  1  0  0  3  0  0  0  0  0  0
  186.7190  177.9120  145.1180 C   0  0  1  0  0  3  0  0  0  0  0  0
  189.5500  178.0060  148.8210 N   0  0  0  0  0  1  0  0  0  0  0  0
  185.5530  178.8610  145.4330 C   0  0  1  0  0  3  0  0  0  0  0  0
  187.2690  178.5870  148.5120 N   0  0  0  0  0  2  0  0  0  0  0  0
  184.2280  178.1370  145.2550 C   0  0  0  0  0  2  0  0  0  0  0  0
  183.2640  178.9890  144.5040 C   0  0  0  0  0  0  0  0  0  0  0  0
  183.6270  180.1090  144.0630 O   0  0  0  0  0  0  0  0  0  0  0  0
  181.9770  178.5340  144.2610 O   0  0  0  0  0  1  0  0  0  0  0  0
  188.8410  176.2050  143.2180 C   0  0  0  0  0  3  0  0  0  0  0  0
  188.6860  177.5470  143.5830 C   0  0  0  0  0  0  0  0  0  0  0  0
  191.2480  176.4580  143.2680 C   0  0  0  0  0  3  0  0  0  0  0  0
  189.8230  178.3470  143.7830 C   0  0  0  0  0  3  0  0  0  0  0  0
  190.1190  175.6610  143.0630 C   0  0  0  0  0  3  0  0  0  0  0  0
  191.1010  177.8010  143.6270 C   0  0  0  0  0  3  0  0  0  0  0  0
  186.3730  177.6580  142.5900 C   0  0  0  0  0  2  0  0  0  0  0  0
  185.8770  179.0810  141.5710 S   0  0  0  0  0  0  0  0  0  0  0  0
  187.1450  177.8090  137.8580 C   0  0  0  0  0  0  0  0  0  0  0  0
  188.2520  178.4120  140.3720 C   0  0  0  0  0  3  0  0  0  0  0  0
  186.3090  178.2700  138.9110 C   0  0  0  0  0  0  0  0  0  0  0  0
  186.8770  178.5520  140.1740 C   0  0  0  0  0  0  0  0  0  0  0  0
  190.4050  177.8420  139.5370 F   0  0  0  0  0  0  0  0  0  0  0  0
  189.0730  177.9790  139.3350 C   0  0  0  0  0  0  0  0  0  0  0  0
  184.5750  178.5220  138.6830 Cl  0  0  0  0  0  0  0  0  0  0  0  0
  188.5210  177.6760  138.0930 C   0  0  0  0  0  3  0  0  0  0  0  0
  186.6540  177.4390  136.5070 C   0  0  0  0  0  0  0  0  0  0  0  0
  185.8360  176.3260  136.3520 O   0  0  0  0  0  1  0  0  0  0  0  0
  186.9480  178.1160  135.4880 O   0  0  0  0  0  0  0  0  0  0  0  0
  1 21  1  6  0  0  0
  2  4  1  1  0  0  0
  2  3  1  0  0  0  0
  3 10  1  0  0  0  0
  4  6  1  0  0  0  0
  5  3  2  0  0  0  0
  6 10  1  0  0  0  0
  6  8  1  6  0  0  0
  7  1  1  6  0  0  0
  7  9  1  0  0  0  0
  7  2  1  0  0  0  0
  9 11  1  1  0  0  0
  9  5  1  0  0  0  0
 12 11  1  0  0  0  0
 13 12  2  0  0  0  0
 14 12  1  0  0  0  0
 15 16  1  0  0  0  0
 16  1  1  0  0  0  0
 16 18  2  0  0  0  0
 17 20  2  0  0  0  0
 19 15  2  0  0  0  0
 19 17  1  0  0  0  0
 20 18  1  0  0  0  0
 22 21  1  0  0  0  0
 23 30  2  0  0  0  0
 23 25  1  0  0  0  0
 25 26  2  0  0  0  0
 26 24  1  0  0  0  0
 26 22  1  0  0  0  0
 28 27  1  0  0  0  0
 28 24  2  0  0  0  0
 29 25  1  0  0  0  0
 30 28  1  0  0  0  0
 31 23  1  0  0  0  0
 32 31  1  0  0  0  0
 33 31  2  0  0  0  0
M  END
>  <MODEL>
2

>  <REMARK>
 VINA RESULT:      -8.3      4.612      8.003
  Name = 
  8 active torsions:
  status: ('A' for Active; 'I' for Inactive)
    1  A    between atoms: C_2  and  C_6
    2  A    between atoms: C_2  and  C_13
    3  A    between atoms: C_2  and  C_18
    4  A    between atoms: C_4  and  C_22
    5  A    between atoms: S_5  and  C_13
    6  A    between atoms: S_5  and  C_19
    7  A    between atoms: C_8  and  C_14
    8  A    between atoms: C_22  and  C_25
                            x       y       z     vdW  Elec       q    Type
                         _______ _______ _______ _____ _____    ______ ____

>  <TORSDO>
F 8

$$$$
=
 OpenBabel11062412343D

 33 36  0  0  1  0  0  0  0  0999 V2000
  187.5790  178.4100  142.1410 C   0  0  1  0  0  3  0  0  0  0  0  0
  186.5240  178.5980  144.4150 C   0  0  1  0  0  3  0  0  0  0  0  0
  185.2430  179.2130  144.7420 C   0  0  0  0  0  0  0  0  0  0  0  0
  186.5860  177.4570  145.4210 C   0  0  0  0  0  2  0  0  0  0  0  0
  184.4430  179.3780  143.7490 N   0  0  0  0  0  0  0  0  0  0  0  0
  185.6900  177.9060  146.5890 C   0  0  1  0  0  3  0  0  0  0  0  0
  186.3150  178.1620  142.9720 C   0  0  1  0  0  3  0  0  0  0  0  0
  186.5080  178.5280  147.6160 N   0  0  0  0  0  1  0  0  0  0  0  0
  185.1110  178.9990  142.5160 C   0  0  1  0  0  3  0  0  0  0  0  0
  184.7770  178.8940  146.0340 N   0  0  0  0  0  2  0  0  0  0  0  0
  184.1820  178.1560  141.6570 C   0  0  0  0  0  2  0  0  0  0  0  0
  183.6890  178.9430  140.4920 C   0  0  0  0  0  0  0  0  0  0  0  0
  182.4730  178.9060  140.1780 O   0  0  0  0  0  1  0  0  0  0  0  0
  184.5650  179.7440  139.7740 O   0  0  0  0  0  0  0  0  0  0  0  0
  188.8600  176.3140  142.5920 C   0  0  0  0  0  3  0  0  0  0  0  0
  188.7800  177.7070  142.6980 C   0  0  0  0  0  0  0  0  0  0  0  0
  191.0280  176.3480  143.6710 C   0  0  0  0  0  3  0  0  0  0  0  0
  189.8360  178.4200  143.2880 C   0  0  0  0  0  3  0  0  0  0  0  0
  189.9810  175.6350  143.0800 C   0  0  0  0  0  3  0  0  0  0  0  0
  190.9560  177.7410  143.7740 C   0  0  0  0  0  3  0  0  0  0  0  0
  187.3910  178.1620  140.6450 C   0  0  0  0  0  2  0  0  0  0  0  0
  188.8910  178.6380  139.7320 S   0  0  0  0  0  0  0  0  0  0  0  0
  189.2100  175.5340  137.0360 C   0  0  0  0  0  0  0  0  0  0  0  0
  187.4120  177.6030  137.6660 C   0  0  0  0  0  3  0  0  0  0  0  0
  189.4860  176.4100  138.1200 C   0  0  0  0  0  0  0  0  0  0  0  0
  188.5820  177.4550  138.4150 C   0  0  0  0  0  0  0  0  0  0  0  0
  185.9980  176.8860  135.8930 F   0  0  0  0  0  0  0  0  0  0  0  0
  187.1340  176.7330  136.6160 C   0  0  0  0  0  0  0  0  0  0  0  0
  190.9230  176.2170  139.1320 Cl  0  0  0  0  0  0  0  0  0  0  0  0
  188.0280  175.7140  136.3030 C   0  0  0  0  0  3  0  0  0  0  0  0
  190.1070  174.4320  136.6070 C   0  0  0  0  0  0  0  0  0  0  0  0
  190.8380  174.5560  135.4310 O   0  0  0  0  0  0  0  0  0  0  0  0
  190.2390  173.3830  137.2890 O   0  0  0  0  0  1  0  0  0  0  0  0
  1 21  1  6  0  0  0
  1 16  1  0  0  0  0
  2  3  1  0  0  0  0
  2  4  1  1  0  0  0
  3 10  1  0  0  0  0
  4  6  1  0  0  0  0
  5  3  2  0  0  0  0
  6  8  1  1  0  0  0
  7  1  1  6  0  0  0
  7  2  1  0  0  0  0
  9 11  1  6  0  0  0
  9  7  1  0  0  0  0
  9  5  1  0  0  0  0
 10  6  1  0  0  0  0
 12 11  1  0  0  0  0
 13 12  1  0  0  0  0
 14 12  2  0  0  0  0
 15 16  2  0  0  0  0
 15 19  1  0  0  0  0
 16 18  1  0  0  0  0
 17 20  1  0  0  0  0
 18 20  2  0  0  0  0
 19 17  2  0  0  0  0
 22 21  1  0  0  0  0
 23 25  1  0  0  0  0
 24 26  1  0  0  0  0
 25 26  2  0  0  0  0
 25 29  1  0  0  0  0
 26 22  1  0  0  0  0
 27 28  1  0  0  0  0
 28 24  2  0  0  0  0
 30 28  1  0  0  0  0
 30 23  2  0  0  0  0
 31 23  1  0  0  0  0
 31 33  1  0  0  0  0
 32 31  2  0  0  0  0
M  END
>  <MODEL>
3

>  <REMARK>
 VINA RESULT:      -8.1      5.017      8.617
  Name = 
  8 active torsions:
  status: ('A' for Active; 'I' for Inactive)
    1  A    between atoms: C_2  and  C_6
    2  A    between atoms: C_2  and  C_13
    3  A    between atoms: C_2  and  C_18
    4  A    between atoms: C_4  and  C_22
    5  A    between atoms: S_5  and  C_13
    6  A    between atoms: S_5  and  C_19
    7  A    between atoms: C_8  and  C_14
    8  A    between atoms: C_22  and  C_25
                            x       y       z     vdW  Elec       q    Type
                         _______ _______ _______ _____ _____    ______ ____

>  <TORSDO>
F 8

$$$$
=
 OpenBabel11062412343D

 33 36  0  0  1  0  0  0  0  0999 V2000
  188.3290  178.4950  140.8030 C   0  0  1  0  0  3  0  0  0  0  0  0
  189.2560  177.5030  142.9190 C   0  0  1  0  0  3  0  0  0  0  0  0
  190.1060  176.3250  143.0390 C   0  0  0  0  0  0  0  0  0  0  0  0
  189.7790  178.3790  144.0490 C   0  0  0  0  0  2  0  0  0  0  0  0
  190.6940  175.9590  141.9560 N   0  0  0  0  0  0  0  0  0  0  0  0
  190.4000  177.3980  145.0590 C   0  0  1  0  0  3  0  0  0  0  0  0
  189.5910  178.0030  141.5210 C   0  0  1  0  0  3  0  0  0  0  0  0
  189.4250  177.0790  146.0880 N   0  0  0  0  0  1  0  0  0  0  0  0
  190.2380  176.7820  140.8500 C   0  0  1  0  0  3  0  0  0  0  0  0
  190.7160  176.1950  144.3030 N   0  0  0  0  0  2  0  0  0  0  0  0
  191.4220  177.2180  140.0000 C   0  0  0  0  0  2  0  0  0  0  0  0
  191.4910  176.4130  138.7500 C   0  0  0  0  0  0  0  0  0  0  0  0
  192.2320  176.7840  137.8040 O   0  0  0  0  0  0  0  0  0  0  0  0
  190.7650  175.2360  138.6400 O   0  0  0  0  0  1  0  0  0  0  0  0
  188.9910  179.1060  138.4740 C   0  0  0  0  0  3  0  0  0  0  0  0
  188.3530  178.2050  139.3340 C   0  0  0  0  0  0  0  0  0  0  0  0
  188.4780  177.6820  136.5840 C   0  0  0  0  0  3  0  0  0  0  0  0
  187.7820  177.0330  138.8110 C   0  0  0  0  0  3  0  0  0  0  0  0
  189.0510  178.8460  137.1020 C   0  0  0  0  0  3  0  0  0  0  0  0
  187.8440  176.7740  137.4380 C   0  0  0  0  0  3  0  0  0  0  0  0
  187.0290  178.0510  141.4720 C   0  0  0  0  0  2  0  0  0  0  0  0
  185.6030  178.8530  140.6740 S   0  0  0  0  0  0  0  0  0  0  0  0
  182.5050  178.9520  143.3950 C   0  0  0  0  0  0  0  0  0  0  0  0
  185.3120  178.7700  143.4010 C   0  0  0  0  0  3  0  0  0  0  0  0
  183.2180  178.9170  142.1660 C   0  0  0  0  0  0  0  0  0  0  0  0
  184.6290  178.8430  142.1850 C   0  0  0  0  0  0  0  0  0  0  0  0
  185.2830  178.7190  145.7790 F   0  0  0  0  0  0  0  0  0  0  0  0
  184.6120  178.7860  144.6040 C   0  0  0  0  0  0  0  0  0  0  0  0
  182.3880  178.9420  140.6060 Cl  0  0  0  0  0  0  0  0  0  0  0  0
  183.2230  178.8820  144.5980 C   0  0  0  0  0  3  0  0  0  0  0  0
  181.0300  179.0760  143.4990 C   0  0  0  0  0  0  0  0  0  0  0  0
  180.3980  180.2140  143.0130 O   0  0  0  0  0  0  0  0  0  0  0  0
  180.3240  178.1660  144.0060 O   0  0  0  0  0  1  0  0  0  0  0  0
  1 21  1  1  0  0  0
  2  3  1  0  0  0  0
  2  4  1  1  0  0  0
  3 10  1  0  0  0  0
  4  6  1  0  0  0  0
  5  3  2  0  0  0  0
  6  8  1  1  0  0  0
  7  1  1  6  0  0  0
  7  2  1  0  0  0  0
  9 11  1  6  0  0  0
  9  7  1  0  0  0  0
  9  5  1  0  0  0  0
 10  6  1  0  0  0  0
 12 11  1  0  0  0  0
 13 12  2  0  0  0  0
 14 12  1  0  0  0  0
 15 16  1  0  0  0  0
 16  1  1  0  0  0  0
 17 19  1  0  0  0  0
 17 20  2  0  0  0  0
 18 16  2  0  0  0  0
 19 15  2  0  0  0  0
 20 18  1  0  0  0  0
 22 21  1  0  0  0  0
 22 26  1  0  0  0  0
 23 31  1  0  0  0  0
 23 30  1  0  0  0  0
 24 28  1  0  0  0  0
 25 26  1  0  0  0  0
 25 23  2  0  0  0  0
 26 24  2  0  0  0  0
 28 27  1  0  0  0  0
 29 25  1  0  0  0  0
 30 28  2  0  0  0  0
 31 33  1  0  0  0  0
 32 31  2  0  0  0  0
M  END
>  <MODEL>
4

>  <REMARK>
 VINA RESULT:      -8.1      2.931      4.430
  Name = 
  8 active torsions:
  status: ('A' for Active; 'I' for Inactive)
    1  A    between atoms: C_2  and  C_6
    2  A    between atoms: C_2  and  C_13
    3  A    between atoms: C_2  and  C_18
    4  A    between atoms: C_4  and  C_22
    5  A    between atoms: S_5  and  C_13
    6  A    between atoms: S_5  and  C_19
    7  A    between atoms: C_8  and  C_14
    8  A    between atoms: C_22  and  C_25
                            x       y       z     vdW  Elec       q    Type
                         _______ _______ _______ _____ _____    ______ ____

>  <TORSDO>
F 8

$$$$
=
 OpenBabel11062412343D

 33 36  0  0  1  0  0  0  0  0999 V2000
  187.9410  178.1560  142.2190 C   0  0  1  0  0  3  0  0  0  0  0  0
  186.9030  178.3580  144.4990 C   0  0  1  0  0  3  0  0  0  0  0  0
  185.6470  179.0160  144.8380 C   0  0  0  0  0  0  0  0  0  0  0  0
  186.9260  177.2050  145.4930 C   0  0  0  0  0  2  0  0  0  0  0  0
  184.8490  179.2210  143.8510 N   0  0  0  0  0  0  0  0  0  0  0  0
  186.0530  177.6740  146.6690 C   0  0  1  0  0  3  0  0  0  0  0  0
  186.6720  177.9450  143.0530 C   0  0  1  0  0  3  0  0  0  0  0  0
  186.8970  178.2550  147.6990 N   0  0  0  0  0  1  0  0  0  0  0  0
  185.4980  178.8320  142.6100 C   0  0  1  0  0  3  0  0  0  0  0  0
  185.1740  178.7010  146.1290 N   0  0  0  0  0  2  0  0  0  0  0  0
  184.5350  178.0320  141.7470 C   0  0  0  0  0  2  0  0  0  0  0  0
  184.2250  178.7700  140.4910 C   0  0  0  0  0  0  0  0  0  0  0  0
  184.9300  179.7530  140.1480 O   0  0  0  0  0  1  0  0  0  0  0  0
  183.1800  178.3530  139.6800 O   0  0  0  0  0  0  0  0  0  0  0  0
  189.4080  176.2000  142.7300 C   0  0  0  0  0  3  0  0  0  0  0  0
  189.1580  177.5700  142.8680 C   0  0  0  0  0  0  0  0  0  0  0  0
  191.4490  176.4340  144.0120 C   0  0  0  0  0  3  0  0  0  0  0  0
  190.0660  178.3730  143.5770 C   0  0  0  0  0  3  0  0  0  0  0  0
  190.5500  175.6320  143.3030 C   0  0  0  0  0  3  0  0  0  0  0  0
  191.2080  177.8040  144.1490 C   0  0  0  0  0  3  0  0  0  0  0  0
  187.7930  177.7380  140.7560 C   0  0  0  0  0  2  0  0  0  0  0  0
  188.9980  178.6250  139.7210 S   0  0  0  0  0  0  0  0  0  0  0  0
  188.4050  175.7640  136.8100 C   0  0  0  0  0  0  0  0  0  0  0  0
  190.3660  176.4780  138.6960 C   0  0  0  0  0  3  0  0  0  0  0  0
  188.2120  176.9000  137.6410 C   0  0  0  0  0  0  0  0  0  0  0  0
  189.1980  177.2380  138.5960 C   0  0  0  0  0  0  0  0  0  0  0  0
  191.6970  174.6440  137.9760 F   0  0  0  0  0  0  0  0  0  0  0  0
  190.5630  175.3770  137.8690 C   0  0  0  0  0  0  0  0  0  0  0  0
  186.7780  177.9240  137.5010 Cl  0  0  0  0  0  0  0  0  0  0  0  0
  189.5880  175.0220  136.9410 C   0  0  0  0  0  3  0  0  0  0  0  0
  187.4200  175.2890  135.8070 C   0  0  0  0  0  0  0  0  0  0  0  0
  186.4610  174.3510  136.1720 O   0  0  0  0  0  1  0  0  0  0  0  0
  187.4180  175.7230  134.6260 O   0  0  0  0  0  0  0  0  0  0  0  0
  1 21  1  6  0  0  0
  1 16  1  0  0  0  0
  2  3  1  0  0  0  0
  2  4  1  1  0  0  0
  3 10  1  0  0  0  0
  4  6  1  0  0  0  0
  5  3  2  0  0  0  0
  6  8  1  1  0  0  0
  7  1  1  6  0  0  0
  7  2  1  0  0  0  0
  9 11  1  6  0  0  0
  9  7  1  0  0  0  0
  9  5  1  0  0  0  0
 10  6  1  0  0  0  0
 12 11  1  0  0  0  0
 13 12  1  0  0  0  0
 14 12  2  0  0  0  0
 15 16  2  0  0  0  0
 15 19  1  0  0  0  0
 16 18  1  0  0  0  0
 17 20  1  0  0  0  0
 18 20  2  0  0  0  0
 19 17  2  0  0  0  0
 22 21  1  0  0  0  0
 23 30  2  0  0  0  0
 23 25  1  0  0  0  0
 25 26  2  0  0  0  0
 26 24  1  0  0  0  0
 26 22  1  0  0  0  0
 28 27  1  0  0  0  0
 28 24  2  0  0  0  0
 29 25  1  0  0  0  0
 30 28  1  0  0  0  0
 31 32  1  0  0  0  0
 31 23  1  0  0  0  0
 33 31  2  0  0  0  0
M  END
>  <MODEL>
5

>  <REMARK>
 VINA RESULT:      -7.9      4.668      8.254
  Name = 
  8 active torsions:
  status: ('A' for Active; 'I' for Inactive)
    1  A    between atoms: C_2  and  C_6
    2  A    between atoms: C_2  and  C_13
    3  A    between atoms: C_2  and  C_18
    4  A    between atoms: C_4  and  C_22
    5  A    between atoms: S_5  and  C_13
    6  A    between atoms: S_5  and  C_19
    7  A    between atoms: C_8  and  C_14
    8  A    between atoms: C_22  and  C_25
                            x       y       z     vdW  Elec       q    Type
                         _______ _______ _______ _____ _____    ______ ____

>  <TORSDO>
F 8

$$$$
=
 OpenBabel11062412343D

 33 36  0  0  1  0  0  0  0  0999 V2000
  186.7620  178.1400  142.3830 C   0  0  1  0  0  3  0  0  0  0  0  0
  189.1220  177.6240  143.0800 C   0  0  1  0  0  3  0  0  0  0  0  0
  190.1550  176.9800  142.2780 C   0  0  0  0  0  0  0  0  0  0  0  0
  189.9410  178.6010  143.9120 C   0  0  0  0  0  2  0  0  0  0  0  0
  189.9420  176.9730  141.0100 N   0  0  0  0  0  0  0  0  0  0  0  0
  191.3520  177.9910  143.9700 C   0  0  1  0  0  3  0  0  0  0  0  0
  188.2460  178.2730  142.0180 C   0  0  1  0  0  3  0  0  0  0  0  0
  191.4960  177.2150  145.1890 N   0  0  0  0  0  1  0  0  0  0  0  0
  188.6270  177.5250  140.7330 C   0  0  1  0  0  3  0  0  0  0  0  0
  191.4510  177.1060  142.8180 N   0  0  0  0  0  2  0  0  0  0  0  0
  188.7040  178.4960  139.5650 C   0  0  0  0  0  2  0  0  0  0  0  0
  187.9970  177.9420  138.3770 C   0  0  0  0  0  0  0  0  0  0  0  0
  188.1500  176.7350  138.0610 O   0  0  0  0  0  1  0  0  0  0  0  0
  187.1440  178.7480  137.6380 O   0  0  0  0  0  0  0  0  0  0  0  0
  185.8500  179.1840  144.4600 C   0  0  0  0  0  3  0  0  0  0  0  0
  186.5350  178.1200  143.8640 C   0  0  0  0  0  0  0  0  0  0  0  0
  186.0310  178.1060  146.6200 C   0  0  0  0  0  3  0  0  0  0  0  0
  186.9620  177.0410  144.6550 C   0  0  0  0  0  3  0  0  0  0  0  0
  185.6000  179.1790  145.8350 C   0  0  0  0  0  3  0  0  0  0  0  0
  186.7120  177.0360  146.0300 C   0  0  0  0  0  3  0  0  0  0  0  0
  185.8590  179.1380  141.6600 C   0  0  0  0  0  2  0  0  0  0  0  0
  184.9140  178.2990  140.3500 S   0  0  0  0  0  0  0  0  0  0  0  0
  181.0050  179.4410  141.0060 C   0  0  0  0  0  0  0  0  0  0  0  0
  183.2300  178.5850  142.4980 C   0  0  0  0  0  3  0  0  0  0  0  0
  182.2170  179.1010  140.3450 C   0  0  0  0  0  0  0  0  0  0  0  0
  183.3320  178.6890  141.1090 C   0  0  0  0  0  0  0  0  0  0  0  0
  181.9510  178.8000  144.4910 F   0  0  0  0  0  0  0  0  0  0  0  0
  182.0390  178.9000  143.1430 C   0  0  0  0  0  0  0  0  0  0  0  0
  182.3660  179.1580  138.5840 Cl  0  0  0  0  0  0  0  0  0  0  0  0
  180.9410  179.3300  142.4020 C   0  0  0  0  0  3  0  0  0  0  0  0
  179.7870  179.9300  140.3130 C   0  0  0  0  0  0  0  0  0  0  0  0
  179.4540  181.2780  140.3720 O   0  0  0  0  0  1  0  0  0  0  0  0
  179.0460  179.1550  139.6540 O   0  0  0  0  0  0  0  0  0  0  0  0
  1 21  1  6  0  0  0
  1 16  1  0  0  0  0
  2  4  1  1  0  0  0
  3 10  1  0  0  0  0
  3  2  1  0  0  0  0
  4  6  1  0  0  0  0
  5  3  2  0  0  0  0
  6  8  1  1  0  0  0
  7  1  1  1  0  0  0
  7  2  1  0  0  0  0
  9 11  1  6  0  0  0
  9  5  1  0  0  0  0
  9  7  1  0  0  0  0
 10  6  1  0  0  0  0
 12 11  1  0  0  0  0
 13 12  1  0  0  0  0
 14 12  2  0  0  0  0
 15 19  1  0  0  0  0
 16 15  2  0  0  0  0
 16 18  1  0  0  0  0
 18 20  2  0  0  0  0
 19 17  2  0  0  0  0
 20 17  1  0  0  0  0
 22 26  1  0  0  0  0
 22 21  1  0  0  0  0
 23 30  1  0  0  0  0
 24 28  1  0  0  0  0
 25 23  2  0  0  0  0
 25 26  1  0  0  0  0
 26 24  2  0  0  0  0
 28 27  1  0  0  0  0
 29 25  1  0  0  0  0
 30 28  2  0  0  0  0
 31 32  1  0  0  0  0
 31 23  1  0  0  0  0
 33 31  2  0  0  0  0
M  END
>  <MODEL>
6

>  <REMARK>
 VINA RESULT:      -7.8      3.935      6.507
  Name = 
  8 active torsions:
  status: ('A' for Active; 'I' for Inactive)
    1  A    between atoms: C_2  and  C_6
    2  A    between atoms: C_2  and  C_13
    3  A    between atoms: C_2  and  C_18
    4  A    between atoms: C_4  and  C_22
    5  A    between atoms: S_5  and  C_13
    6  A    between atoms: S_5  and  C_19
    7  A    between atoms: C_8  and  C_14
    8  A    between atoms: C_22  and  C_25
                            x       y       z     vdW  Elec       q    Type
                         _______ _______ _______ _____ _____    ______ ____

>  <TORSDO>
F 8

$$$$
=
 OpenBabel11062412343D

 33 36  0  0  1  0  0  0  0  0999 V2000
  187.3300  178.1950  143.6700 C   0  0  1  0  0  3  0  0  0  0  0  0
  187.7170  178.2820  146.1520 C   0  0  1  0  0  3  0  0  0  0  0  0
  186.8790  178.9360  147.1500 C   0  0  0  0  0  0  0  0  0  0  0  0
  188.2320  177.0750  146.9230 C   0  0  0  0  0  2  0  0  0  0  0  0
  185.6800  179.2050  146.7710 N   0  0  0  0  0  0  0  0  0  0  0  0
  188.1650  177.4880  148.4040 C   0  0  1  0  0  3  0  0  0  0  0  0
  186.7150  177.9540  145.0540 C   0  0  1  0  0  3  0  0  0  0  0  0
  189.4570  178.0000  148.8240 N   0  0  0  0  0  1  0  0  0  0  0  0
  185.5280  178.8780  145.3640 C   0  0  1  0  0  3  0  0  0  0  0  0
  187.1760  178.5550  148.4750 N   0  0  0  0  0  2  0  0  0  0  0  0
  184.2180  178.1400  145.1380 C   0  0  0  0  0  2  0  0  0  0  0  0
  183.2280  179.0270  144.4660 C   0  0  0  0  0  0  0  0  0  0  0  0
  183.5970  180.1280  143.9830 O   0  0  0  0  0  0  0  0  0  0  0  0
  181.9070  178.6250  144.3430 O   0  0  0  0  0  1  0  0  0  0  0  0
  189.8220  178.3420  143.7290 C   0  0  0  0  0  3  0  0  0  0  0  0
  188.6800  177.5610  143.5220 C   0  0  0  0  0  0  0  0  0  0  0  0
  191.2270  176.4140  143.3150 C   0  0  0  0  0  3  0  0  0  0  0  0
  188.8170  176.1970  143.2170 C   0  0  0  0  0  3  0  0  0  0  0  0
  191.0930  177.7700  143.6240 C   0  0  0  0  0  3  0  0  0  0  0  0
  190.0890  175.6270  143.1120 C   0  0  0  0  0  3  0  0  0  0  0  0
  186.3900  177.8590  142.5130 C   0  0  0  0  0  2  0  0  0  0  0  0
  185.8870  179.3780  141.6470 S   0  0  0  0  0  0  0  0  0  0  0  0
  187.1770  177.6830  138.1150 C   0  0  0  0  0  0  0  0  0  0  0  0
  184.7500  178.3320  139.3790 C   0  0  0  0  0  3  0  0  0  0  0  0
  187.1840  178.2570  139.4140 C   0  0  0  0  0  0  0  0  0  0  0  0
  185.9570  178.5940  140.0300 C   0  0  0  0  0  0  0  0  0  0  0  0
  183.5680  177.5050  137.4880 F   0  0  0  0  0  0  0  0  0  0  0  0
  184.7430  177.7520  138.1140 C   0  0  0  0  0  0  0  0  0  0  0  0
  188.6870  178.5450  140.2980 Cl  0  0  0  0  0  0  0  0  0  0  0  0
  185.9470  177.4370  137.4880 C   0  0  0  0  0  3  0  0  0  0  0  0
  188.4010  177.3320  137.3530 C   0  0  0  0  0  0  0  0  0  0  0  0
  188.8140  178.1390  136.3000 O   0  0  0  0  0  0  0  0  0  0  0  0
  189.0930  176.3210  137.6430 O   0  0  0  0  0  1  0  0  0  0  0  0
  1 21  1  6  0  0  0
  2  4  1  1  0  0  0
  2  3  1  0  0  0  0
  3 10  1  0  0  0  0
  4  6  1  0  0  0  0
  5  3  2  0  0  0  0
  6 10  1  0  0  0  0
  6  8  1  6  0  0  0
  7  1  1  6  0  0  0
  7  9  1  0  0  0  0
  7  2  1  0  0  0  0
  9 11  1  1  0  0  0
  9  5  1  0  0  0  0
 12 11  1  0  0  0  0
 13 12  2  0  0  0  0
 14 12  1  0  0  0  0
 16  1  1  0  0  0  0
 16 15  2  0  0  0  0
 17 19  2  0  0  0  0
 18 16  1  0  0  0  0
 19 15  1  0  0  0  0
 20 18  2  0  0  0  0
 20 17  1  0  0  0  0
 22 21  1  0  0  0  0
 23 25  1  0  0  0  0
 24 26  1  0  0  0  0
 25 26  2  0  0  0  0
 25 29  1  0  0  0  0
 26 22  1  0  0  0  0
 27 28  1  0  0  0  0
 28 24  2  0  0  0  0
 30 28  1  0  0  0  0
 30 23  2  0  0  0  0
 31 33  1  0  0  0  0
 31 23  1  0  0  0  0
 32 31  2  0  0  0  0
M  END
>  <MODEL>
7

>  <REMARK>
 VINA RESULT:      -7.7      4.808      8.243
  Name = 
  8 active torsions:
  status: ('A' for Active; 'I' for Inactive)
    1  A    between atoms: C_2  and  C_6
    2  A    between atoms: C_2  and  C_13
    3  A    between atoms: C_2  and  C_18
    4  A    between atoms: C_4  and  C_22
    5  A    between atoms: S_5  and  C_13
    6  A    between atoms: S_5  and  C_19
    7  A    between atoms: C_8  and  C_14
    8  A    between atoms: C_22  and  C_25
                            x       y       z     vdW  Elec       q    Type
                         _______ _______ _______ _____ _____    ______ ____

>  <TORSDO>
F 8

$$$$
=
 OpenBabel11062412343D

 33 36  0  0  1  0  0  0  0  0999 V2000
  187.0240  177.2830  143.9120 C   0  0  1  0  0  3  0  0  0  0  0  0
  187.8620  177.3420  146.2810 C   0  0  1  0  0  3  0  0  0  0  0  0
  189.2400  177.1830  146.7310 C   0  0  0  0  0  0  0  0  0  0  0  0
  187.3180  178.3370  147.2960 C   0  0  0  0  0  2  0  0  0  0  0  0
  190.1370  177.3550  145.8260 N   0  0  0  0  0  0  0  0  0  0  0  0
  188.2000  178.1570  148.5440 C   0  0  1  0  0  3  0  0  0  0  0  0
  188.0420  177.9010  144.8770 C   0  0  1  0  0  3  0  0  0  0  0  0
  187.5540  177.2390  149.4660 N   0  0  0  0  0  1  0  0  0  0  0  0
  189.4980  177.5500  144.5360 C   0  0  1  0  0  3  0  0  0  0  0  0
  189.4450  177.5710  148.0710 N   0  0  0  0  0  2  0  0  0  0  0  0
  190.1550  178.7040  143.7970 C   0  0  0  0  0  2  0  0  0  0  0  0
  191.6220  178.4780  143.6740 C   0  0  0  0  0  0  0  0  0  0  0  0
  192.0570  177.5550  142.9400 O   0  0  0  0  0  0  0  0  0  0  0  0
  192.5110  179.3060  144.3430 O   0  0  0  0  0  1  0  0  0  0  0  0
  184.9150  177.9930  142.7790 C   0  0  0  0  0  3  0  0  0  0  0  0
  185.7060  177.9960  143.9330 C   0  0  0  0  0  0  0  0  0  0  0  0
  183.2090  179.2660  143.9340 C   0  0  0  0  0  3  0  0  0  0  0  0
  185.2380  178.6330  145.0930 C   0  0  0  0  0  3  0  0  0  0  0  0
  183.6690  178.6280  142.7790 C   0  0  0  0  0  3  0  0  0  0  0  0
  183.9930  179.2680  145.0920 C   0  0  0  0  0  3  0  0  0  0  0  0
  187.5630  177.0790  142.4970 C   0  0  0  0  0  2  0  0  0  0  0  0
  187.4450  178.6270  141.5480 S   0  0  0  0  0  0  0  0  0  0  0  0
  188.5740  177.1880  137.8510 C   0  0  0  0  0  0  0  0  0  0  0  0
  189.7200  177.6330  140.3800 C   0  0  0  0  0  3  0  0  0  0  0  0
  187.7960  177.7610  138.8930 C   0  0  0  0  0  0  0  0  0  0  0  0
  188.3810  177.9630  140.1640 C   0  0  0  0  0  0  0  0  0  0  0  0
  191.7840  176.7690  139.5740 F   0  0  0  0  0  0  0  0  0  0  0  0
  190.4870  177.0900  139.3540 C   0  0  0  0  0  0  0  0  0  0  0  0
  186.1170  178.2510  138.6420 Cl  0  0  0  0  0  0  0  0  0  0  0  0
  189.9150  176.8650  138.1040 C   0  0  0  0  0  3  0  0  0  0  0  0
  188.0550  176.8880  136.4930 C   0  0  0  0  0  0  0  0  0  0  0  0
  188.5220  177.6100  135.4010 O   0  0  0  0  0  0  0  0  0  0  0  0
  187.2040  175.9820  136.2960 O   0  0  0  0  0  1  0  0  0  0  0  0
  1 21  1  6  0  0  0
  1 16  1  0  0  0  0
  2  3  1  0  0  0  0
  2  4  1  1  0  0  0
  3 10  1  0  0  0  0
  4  6  1  0  0  0  0
  5  3  2  0  0  0  0
  6  8  1  1  0  0  0
  7  1  1  6  0  0  0
  7  2  1  0  0  0  0
  9 11  1  1  0  0  0
  9  7  1  0  0  0  0
  9  5  1  0  0  0  0
 10  6  1  0  0  0  0
 12 11  1  0  0  0  0
 12 14  1  0  0  0  0
 13 12  2  0  0  0  0
 15 19  2  0  0  0  0
 15 16  1  0  0  0  0
 16 18  2  0  0  0  0
 17 20  2  0  0  0  0
 19 17  1  0  0  0  0
 20 18  1  0  0  0  0
 22 21  1  0  0  0  0
 23 30  2  0  0  0  0
 23 25  1  0  0  0  0
 25 26  2  0  0  0  0
 26 24  1  0  0  0  0
 26 22  1  0  0  0  0
 28 27  1  0  0  0  0
 28 24  2  0  0  0  0
 29 25  1  0  0  0  0
 30 28  1  0  0  0  0
 31 23  1  0  0  0  0
 32 31  2  0  0  0  0
 33 31  1  0  0  0  0
M  END
>  <MODEL>
8

>  <REMARK>
 VINA RESULT:      -7.7      3.872      7.566
  Name = 
  8 active torsions:
  status: ('A' for Active; 'I' for Inactive)
    1  A    between atoms: C_2  and  C_6
    2  A    between atoms: C_2  and  C_13
    3  A    between atoms: C_2  and  C_18
    4  A    between atoms: C_4  and  C_22
    5  A    between atoms: S_5  and  C_13
    6  A    between atoms: S_5  and  C_19
    7  A    between atoms: C_8  and  C_14
    8  A    between atoms: C_22  and  C_25
                            x       y       z     vdW  Elec       q    Type
                         _______ _______ _______ _____ _____    ______ ____

>  <TORSDO>
F 8

$$$$
=
 OpenBabel11062412343D

 33 36  0  0  1  0  0  0  0  0999 V2000
  189.4920  177.1970  140.7240 C   0  0  1  0  0  3  0  0  0  0  0  0
  188.4070  177.7930  138.5360 C   0  0  1  0  0  3  0  0  0  0  0  0
  186.9900  178.0310  138.2930 C   0  0  0  0  0  0  0  0  0  0  0  0
  189.0560  178.7650  137.5610 C   0  0  0  0  0  2  0  0  0  0  0  0
  186.2870  178.2790  139.3400 N   0  0  0  0  0  0  0  0  0  0  0  0
  188.0080  178.9800  136.4540 C   0  0  1  0  0  3  0  0  0  0  0  0
  188.5530  178.1710  140.0020 C   0  0  1  0  0  3  0  0  0  0  0  0
  188.2780  178.0770  135.3490 N   0  0  0  0  0  1  0  0  0  0  0  0
  187.1100  178.1300  140.5280 C   0  0  1  0  0  3  0  0  0  0  0  0
  186.7240  178.6440  137.0510 N   0  0  0  0  0  2  0  0  0  0  0  0
  186.8670  179.2890  141.4810 C   0  0  0  0  0  2  0  0  0  0  0  0
  185.5100  179.1920  142.0860 C   0  0  0  0  0  0  0  0  0  0  0  0
  184.7480  178.2430  141.7710 O   0  0  0  0  0  0  0  0  0  0  0  0
  185.0980  180.1280  143.0230 O   0  0  0  0  0  1  0  0  0  0  0  0
  190.6320  176.0030  138.8500 C   0  0  0  0  0  3  0  0  0  0  0  0
  190.7240  176.8910  139.9270 C   0  0  0  0  0  0  0  0  0  0  0  0
  192.9830  176.3260  138.3700 C   0  0  0  0  0  3  0  0  0  0  0  0
  191.9530  177.5030  140.2190 C   0  0  0  0  0  3  0  0  0  0  0  0
  191.7600  175.7190  138.0740 C   0  0  0  0  0  3  0  0  0  0  0  0
  193.0810  177.2190  139.4420 C   0  0  0  0  0  3  0  0  0  0  0  0
  189.8050  177.5980  142.1650 C   0  0  0  0  0  2  0  0  0  0  0  0
  189.9600  176.1180  143.2120 S   0  0  0  0  0  0  0  0  0  0  0  0
  188.4840  177.5890  146.7720 C   0  0  0  0  0  0  0  0  0  0  0  0
  187.5520  177.0070  144.1820 C   0  0  0  0  0  3  0  0  0  0  0  0
  189.3830  177.0990  145.7860 C   0  0  0  0  0  0  0  0  0  0  0  0
  188.8970  176.7950  144.4930 C   0  0  0  0  0  0  0  0  0  0  0  0
  185.3730  177.7020  144.8330 F   0  0  0  0  0  0  0  0  0  0  0  0
  186.6770  177.5040  145.1430 C   0  0  0  0  0  0  0  0  0  0  0  0
  191.1040  176.8790  146.1200 Cl  0  0  0  0  0  0  0  0  0  0  0  0
  187.1390  177.7850  146.4250 C   0  0  0  0  0  3  0  0  0  0  0  0
  188.8710  177.8970  148.1710 C   0  0  0  0  0  0  0  0  0  0  0  0
  187.9310  177.7800  149.1880 O   0  0  0  0  0  1  0  0  0  0  0  0
  190.0400  178.2530  148.4700 O   0  0  0  0  0  0  0  0  0  0  0  0
  1 21  1  1  0  0  0
  2  4  1  6  0  0  0
  2  7  1  0  0  0  0
  3  2  1  0  0  0  0
  3  5  2  0  0  0  0
  5  9  1  0  0  0  0
  6  8  1  6  0  0  0
  6 10  1  0  0  0  0
  6  4  1  0  0  0  0
  7  9  1  0  0  0  0
  7  1  1  1  0  0  0
  9 11  1  1  0  0  0
 10  3  1  0  0  0  0
 11 12  1  0  0  0  0
 12 14  1  0  0  0  0
 13 12  2  0  0  0  0
 15 16  1  0  0  0  0
 16 18  2  0  0  0  0
 16  1  1  0  0  0  0
 17 20  2  0  0  0  0
 19 17  1  0  0  0  0
 19 15  2  0  0  0  0
 20 18  1  0  0  0  0
 21 22  1  0  0  0  0
 22 26  1  0  0  0  0
 23 31  1  0  0  0  0
 24 26  2  0  0  0  0
 24 28  1  0  0  0  0
 25 29  1  0  0  0  0
 25 23  2  0  0  0  0
 26 25  1  0  0  0  0
 27 28  1  0  0  0  0
 28 30  2  0  0  0  0
 30 23  1  0  0  0  0
 31 33  2  0  0  0  0
 31 32  1  0  0  0  0
M  END
>  <MODEL>
9

>  <REMARK>
 VINA RESULT:      -7.6      3.139      4.878
  Name = 
  8 active torsions:
  status: ('A' for Active; 'I' for Inactive)
    1  A    between atoms: C_2  and  C_6
    2  A    between atoms: C_2  and  C_13
    3  A    between atoms: C_2  and  C_18
    4  A    between atoms: C_4  and  C_22
    5  A    between atoms: S_5  and  C_13
    6  A    between atoms: S_5  and  C_19
    7  A    between atoms: C_8  and  C_14
    8  A    between atoms: C_22  and  C_25
                            x       y       z     vdW  Elec       q    Type
                         _______ _______ _______ _____ _____    ______ ____

>  <TORSDO>
F 8

$$$$
