=
 OpenBabel11062415133D

 52 56  0  0  1  0  0  0  0  0999 V2000
  182.3330  178.0990  140.0320 C   0  0  2  0  0  3  0  0  0  0  0  0
  181.7960  177.1090  139.0080 C   0  0  0  0  0  2  0  0  0  0  0  0
  182.9170  176.3960  138.2610 C   0  0  2  0  0  3  0  0  0  0  0  0
  182.9470  176.9200  136.8220 C   0  0  1  0  0  3  0  0  0  0  0  0
  181.4600  178.8810  136.3790 C   0  0  0  0  0  3  0  0  0  0  0  0
  180.5390  176.6600  136.1040 C   0  0  0  0  0  3  0  0  0  0  0  0
  179.1620  178.6010  135.6680 C   0  0  0  0  0  3  0  0  0  0  0  0
  180.2350  179.4350  135.9960 C   0  0  0  0  0  3  0  0  0  0  0  0
  181.6170  177.4930  136.4380 C   0  0  0  0  0  0  0  0  0  0  0  0
  179.3140  177.2130  135.7230 C   0  0  0  0  0  3  0  0  0  0  0  0
  183.9550  177.8780  136.6470 O   0  0  0  0  0  0  0  0  0  0  0  0
  187.0330  178.5710  138.0270 O   0  0  0  0  0  0  0  0  0  0  0  0
  186.1800  177.1630  136.3820 C   0  0  0  0  0  0  0  0  0  0  0  0
  185.0710  177.3620  137.3170 C   0  0  1  0  0  3  0  0  0  0  0  0
  187.3270  178.0130  136.7670 C   0  0  2  0  0  3  0  0  0  0  0  0
  186.0640  176.5510  135.2010 C   0  0  0  0  0  2  0  0  0  0  0  0
  185.6440  178.4220  138.2430 C   0  0  0  0  0  2  0  0  0  0  0  0
  188.7630  176.2600  137.8480 O   0  0  0  0  0  1  0  0  0  0  0  0
  189.5300  177.4610  136.0470 O   0  0  0  0  0  0  0  0  0  0  0  0
  188.5940  177.2230  136.8560 C   0  0  0  0  0  0  0  0  0  0  0  0
  182.6790  175.0130  138.2770 O   0  0  0  0  0  0  0  0  0  0  0  0
  183.3000  174.5300  137.1710 N   0  0  0  0  0  0  0  0  0  0  0  0
  184.4550  173.7580  137.6290 C   0  0  0  0  0  2  0  0  0  0  0  0
  182.7320  172.2010  137.0750 C   0  0  0  0  0  2  0  0  0  0  0  0
  182.3880  173.5740  136.5540 C   0  0  0  0  0  2  0  0  0  0  0  0
  184.2020  172.2890  137.3620 C   0  0  0  0  0  2  0  0  0  0  0  0
  183.1400  177.4610  141.0220 O   0  0  0  0  0  0  0  0  0  0  0  0
  185.2600  179.6300  141.2420 O   0  0  0  0  0  1  0  0  0  0  0  0
  183.5880  179.2750  145.2940 O   0  0  0  0  0  0  0  0  0  0  0  0
  183.9320  178.9290  144.1340 C   0  0  0  0  0  0  0  0  0  0  0  0
  185.1120  178.5840  142.1520 C   0  0  2  0  0  3  0  0  0  0  0  0
  183.6950  178.1050  142.1330 C   0  0  0  0  0  0  0  0  0  0  0  0
  185.2950  179.1150  143.5760 C   0  0  2  0  0  3  0  0  0  0  0  0
  183.0420  178.3090  143.2270 N   0  0  0  0  0  0  0  0  0  0  0  0
  186.2860  178.2470  144.3440 C   0  0  0  0  0  2  0  0  0  0  0  0
  186.5960  176.9350  143.6230 C   0  0  0  0  0  2  0  0  0  0  0  0
  188.0790  176.8090  143.2960 C   0  0  1  0  0  3  0  0  0  0  0  0
  188.8740  178.5070  141.6500 C   0  0  0  0  0  1  0  0  0  0  0  0
  188.3090  177.1110  141.8220 C   0  0  0  0  0  2  0  0  0  0  0  0
  188.8590  177.8050  144.1410 C   0  0  0  0  0  2  0  0  0  0  0  0
  191.5390  178.3800  144.4990 N   0  0  0  0  0  1  0  0  0  0  0  0
  189.3480  177.8430  146.4560 C   0  0  0  0  0  2  0  0  0  0  0  0
  189.8720  177.0450  147.6540 C   0  0  0  0  0  2  0  0  0  0  0  0
  190.9720  176.0580  147.2600 C   0  0  0  0  0  2  0  0  0  0  0  0
  189.5890  177.1150  145.2070 N   0  0  0  0  0  0  0  0  0  0  0  0
  191.0470  177.0730  144.9210 C   0  0  1  0  0  0  0  0  0  0  0  0
  191.3140  176.0680  143.8120 C   0  0  0  0  0  1  0  0  0  0  0  0
  191.8580  176.6340  146.1550 C   0  0  0  0  0  2  0  0  0  0  0  0
  181.1800  178.8650  140.6690 C   0  0  0  0  0  2  0  0  0  0  0  0
  179.5270  180.7400  140.0220 C   0  0  0  0  0  1  0  0  0  0  0  0
  180.8720  180.1120  139.9030 C   0  0  0  0  0  0  0  0  0  0  0  0
  181.7250  180.6320  139.1980 O   0  0  0  0  0  0  0  0  0  0  0  0
  1  2  1  6  0  0  0
  1 49  1  0  0  0  0
  1 27  1  0  0  0  0
  3 21  1  0  0  0  0
  3  2  1  1  0  0  0
  4 11  1  1  0  0  0
  4  3  1  0  0  0  0
  5  9  1  0  0  0  0
  6  9  2  0  0  0  0
  7 10  2  0  0  0  0
  7  8  1  0  0  0  0
  8  5  2  0  0  0  0
  9  4  1  0  0  0  0
 10  6  1  0  0  0  0
 12 17  1  0  0  0  0
 13 15  1  0  0  0  0
 13 14  1  0  0  0  0
 14 11  1  6  0  0  0
 14 17  1  0  0  0  0
 15 20  1  1  0  0  0
 15 12  1  0  0  0  0
 16 13  2  0  0  0  0
 19 20  2  0  0  0  0
 20 18  1  0  0  0  0
 22 23  1  0  0  0  0
 22 21  1  0  0  0  0
 24 26  1  0  0  0  0
 25 24  1  0  0  0  0
 25 22  1  0  0  0  0
 26 23  1  0  0  0  0
 27 32  1  0  0  0  0
 30 29  2  0  0  0  0
 31 28  1  6  0  0  0
 31 33  1  0  0  0  0
 32 31  1  0  0  0  0
 32 34  2  0  0  0  0
 33 30  1  0  0  0  0
 33 35  1  1  0  0  0
 34 30  1  0  0  0  0
 36 35  1  0  0  0  0
 37 39  1  6  0  0  0
 37 36  1  0  0  0  0
 37 40  1  0  0  0  0
 38 39  1  0  0  0  0
 40 45  1  0  0  0  0
 41 46  1  0  0  0  0
 42 43  1  0  0  0  0
 44 43  1  0  0  0  0
 45 42  1  0  0  0  0
 46 47  1  6  0  0  0
 46 45  1  0  0  0  0
 46 48  1  0  0  0  0
 48 44  1  0  0  0  0
 51 50  1  0  0  0  0
 51 49  1  0  0  0  0
 52 51  2  0  0  0  0
M  END
>  <MODEL>
1

>  <REMARK>
 VINA RESULT:      -6.9      0.000      0.000
  Name = 
  19 active torsions:
  status: ('A' for Active; 'I' for Inactive)
    1  A    between atoms: C_3  and  C_8
    2  A    between atoms: C_3  and  C_29
    3  A    between atoms: N_4  and  O_21
    4  A    between atoms: C_8  and  O_39
    5  A    between atoms: C_8  and  C_42
    6  A    between atoms: C_16  and  C_19
    7  A    between atoms: C_16  and  C_38
    8  A    between atoms: C_19  and  C_37
    9  A    between atoms: O_21  and  C_33
   10  A    between atoms: C_22  and  C_33
   11  A    between atoms: C_22  and  C_48
   12  A    between atoms: C_22  and  O_51
   13  A    between atoms: N_24  and  C_44
   14  A    between atoms: C_33  and  C_42
   15  A    between atoms: C_34  and  O_39
   16  A    between atoms: C_35  and  O_51
   17  A    between atoms: C_36  and  C_37
   18  A    between atoms: C_37  and  C_44
   19  A    between atoms: C_46  and  C_47
                            x       y       z     vdW  Elec       q    Type
                         _______ _______ _______ _____ _____    ______ ____

>  <TORSDO>
F 19

$$$$
=
 OpenBabel11062415133D

 52 56  0  0  1  0  0  0  0  0999 V2000
  183.7130  177.3580  139.2450 C   0  0  2  0  0  3  0  0  0  0  0  0
  182.7900  176.1570  139.0860 C   0  0  0  0  0  2  0  0  0  0  0  0
  182.5930  175.7790  137.6230 C   0  0  2  0  0  3  0  0  0  0  0  0
  181.1300  176.0420  137.2510 C   0  0  1  0  0  3  0  0  0  0  0  0
  179.8680  174.1100  138.2140 C   0  0  0  0  0  3  0  0  0  0  0  0
  180.1650  174.2030  135.8140 C   0  0  0  0  0  3  0  0  0  0  0  0
  178.9320  172.3730  136.8090 C   0  0  0  0  0  3  0  0  0  0  0  0
  179.1450  172.9210  138.0780 C   0  0  0  0  0  3  0  0  0  0  0  0
  180.3840  174.7540  137.0850 C   0  0  0  0  0  0  0  0  0  0  0  0
  179.4430  173.0140  135.6770 C   0  0  0  0  0  3  0  0  0  0  0  0
  180.4960  176.8480  138.2070 O   0  0  0  0  0  0  0  0  0  0  0  0
  181.1890  179.4860  136.1040 O   0  0  0  0  0  0  0  0  0  0  0  0
  180.2230  179.1840  138.2000 C   0  0  0  0  0  0  0  0  0  0  0  0
  179.9730  177.9290  137.4870 C   0  0  1  0  0  3  0  0  0  0  0  0
  181.0770  180.0710  137.3810 C   0  0  2  0  0  3  0  0  0  0  0  0
  179.9770  179.3700  139.4990 C   0  0  0  0  0  2  0  0  0  0  0  0
  180.7830  178.1360  136.2190 C   0  0  0  0  0  2  0  0  0  0  0  0
  181.1770  182.5560  137.7230 O   0  0  0  0  0  1  0  0  0  0  0  0
  179.3430  181.5760  136.7490 O   0  0  0  0  0  0  0  0  0  0  0  0
  180.4890  181.4400  137.2520 C   0  0  0  0  0  0  0  0  0  0  0  0
  182.9080  174.4230  137.4480 O   0  0  0  0  0  0  0  0  0  0  0  0
  184.0200  174.4110  136.6690 N   0  0  0  0  0  0  0  0  0  0  0  0
  185.0650  173.7200  137.4220 C   0  0  0  0  0  2  0  0  0  0  0  0
  184.1960  172.1730  135.8250 C   0  0  0  0  0  2  0  0  0  0  0  0
  183.7220  173.5700  135.5150 C   0  0  0  0  0  2  0  0  0  0  0  0
  185.3510  172.3890  136.7590 C   0  0  0  0  0  2  0  0  0  0  0  0
  183.1300  178.3760  140.0600 O   0  0  0  0  0  0  0  0  0  0  0  0
  185.5340  179.8510  141.1980 O   0  0  0  0  0  1  0  0  0  0  0  0
  182.8510  179.2540  144.6300 O   0  0  0  0  0  0  0  0  0  0  0  0
  183.3970  179.0350  143.5180 C   0  0  0  0  0  0  0  0  0  0  0  0
  184.9420  178.7390  141.7960 C   0  0  2  0  0  3  0  0  0  0  0  0
  183.5080  178.6540  141.3780 C   0  0  0  0  0  0  0  0  0  0  0  0
  184.8650  178.9540  143.3090 C   0  0  2  0  0  3  0  0  0  0  0  0
  182.6570  178.8310  142.3310 N   0  0  0  0  0  0  0  0  0  0  0  0
  185.4210  177.7400  144.0470 C   0  0  0  0  0  2  0  0  0  0  0  0
  186.9330  177.5920  143.8720 C   0  0  0  0  0  2  0  0  0  0  0  0
  187.6830  177.9220  145.1570 C   0  0  1  0  0  3  0  0  0  0  0  0
  186.3490  178.6370  147.1400 C   0  0  0  0  0  1  0  0  0  0  0  0
  186.8790  177.4500  146.3590 C   0  0  0  0  0  2  0  0  0  0  0  0
  189.0280  177.2100  145.1410 C   0  0  0  0  0  2  0  0  0  0  0  0
  191.7890  177.2810  145.0310 N   0  0  0  0  0  1  0  0  0  0  0  0
  189.7640  176.0320  143.2260 C   0  0  0  0  0  2  0  0  0  0  0  0
  190.2010  176.1400  141.7610 C   0  0  0  0  0  2  0  0  0  0  0  0
  190.9680  177.4320  141.4750 C   0  0  0  0  0  2  0  0  0  0  0  0
  189.6750  177.3610  143.8360 N   0  0  0  0  0  0  0  0  0  0  0  0
  191.0350  177.9450  143.9740 C   0  0  1  0  0  0  0  0  0  0  0  0
  190.9170  179.4240  144.3110 C   0  0  0  0  0  1  0  0  0  0  0  0
  191.8410  177.8280  142.6660 C   0  0  0  0  0  2  0  0  0  0  0  0
  184.1020  177.9010  137.8760 C   0  0  0  0  0  2  0  0  0  0  0  0
  186.1800  177.2190  136.5040 C   0  0  0  0  0  1  0  0  0  0  0  0
  185.5860  177.8910  137.6920 C   0  0  0  0  0  0  0  0  0  0  0  0
  186.3130  178.4520  138.5000 O   0  0  0  0  0  0  0  0  0  0  0  0
  1 49  1  6  0  0  0
  1 27  1  0  0  0  0
  2  1  1  0  0  0  0
  3  2  1  1  0  0  0
  4  3  1  0  0  0  0
  4 11  1  1  0  0  0
  6  9  1  0  0  0  0
  7  8  2  0  0  0  0
  8  5  1  0  0  0  0
  9  4  1  0  0  0  0
  9  5  2  0  0  0  0
 10  6  2  0  0  0  0
 10  7  1  0  0  0  0
 12 17  1  0  0  0  0
 12 15  1  0  0  0  0
 13 16  2  0  0  0  0
 14 13  1  0  0  0  0
 14 11  1  1  0  0  0
 15 20  1  6  0  0  0
 15 13  1  0  0  0  0
 17 14  1  0  0  0  0
 19 20  2  0  0  0  0
 20 18  1  0  0  0  0
 21  3  1  0  0  0  0
 22 23  1  0  0  0  0
 22 21  1  0  0  0  0
 24 26  1  0  0  0  0
 25 24  1  0  0  0  0
 25 22  1  0  0  0  0
 26 23  1  0  0  0  0
 27 32  1  0  0  0  0
 30 29  2  0  0  0  0
 31 28  1  6  0  0  0
 31 33  1  0  0  0  0
 32 31  1  0  0  0  0
 32 34  2  0  0  0  0
 33 30  1  0  0  0  0
 33 35  1  1  0  0  0
 34 30  1  0  0  0  0
 36 35  1  0  0  0  0
 37 36  1  6  0  0  0
 37 39  1  0  0  0  0
 39 38  1  0  0  0  0
 40 37  1  0  0  0  0
 42 45  1  0  0  0  0
 43 42  1  0  0  0  0
 44 43  1  0  0  0  0
 44 48  1  0  0  0  0
 45 46  1  0  0  0  0
 45 40  1  0  0  0  0
 46 47  1  1  0  0  0
 46 41  1  0  0  0  0
 48 46  1  0  0  0  0
 50 51  1  0  0  0  0
 51 49  1  0  0  0  0
 51 52  2  0  0  0  0
M  END
>  <MODEL>
2

>  <REMARK>
 VINA RESULT:      -6.8      1.882      4.524
  Name = 
  19 active torsions:
  status: ('A' for Active; 'I' for Inactive)
    1  A    between atoms: C_3  and  C_8
    2  A    between atoms: C_3  and  C_29
    3  A    between atoms: N_4  and  O_21
    4  A    between atoms: C_8  and  O_39
    5  A    between atoms: C_8  and  C_42
    6  A    between atoms: C_16  and  C_19
    7  A    between atoms: C_16  and  C_38
    8  A    between atoms: C_19  and  C_37
    9  A    between atoms: O_21  and  C_33
   10  A    between atoms: C_22  and  C_33
   11  A    between atoms: C_22  and  C_48
   12  A    between atoms: C_22  and  O_51
   13  A    between atoms: N_24  and  C_44
   14  A    between atoms: C_33  and  C_42
   15  A    between atoms: C_34  and  O_39
   16  A    between atoms: C_35  and  O_51
   17  A    between atoms: C_36  and  C_37
   18  A    between atoms: C_37  and  C_44
   19  A    between atoms: C_46  and  C_47
                            x       y       z     vdW  Elec       q    Type
                         _______ _______ _______ _____ _____    ______ ____

>  <TORSDO>
F 19

$$$$
=
 OpenBabel11062415133D

 52 56  0  0  1  0  0  0  0  0999 V2000
  182.5990  178.1400  140.3480 C   0  0  2  0  0  3  0  0  0  0  0  0
  181.9180  177.1590  139.4030 C   0  0  0  0  0  2  0  0  0  0  0  0
  182.9160  176.4630  138.4860 C   0  0  2  0  0  3  0  0  0  0  0  0
  182.9370  177.2060  137.1450 C   0  0  1  0  0  3  0  0  0  0  0  0
  181.5080  179.2540  137.0250 C   0  0  0  0  0  3  0  0  0  0  0  0
  180.5040  177.1220  136.4700 C   0  0  0  0  0  3  0  0  0  0  0  0
  179.1840  179.1470  136.3500 C   0  0  0  0  0  3  0  0  0  0  0  0
  180.2930  179.8940  136.7590 C   0  0  0  0  0  3  0  0  0  0  0  0
  181.6180  177.8670  136.8850 C   0  0  0  0  0  0  0  0  0  0  0  0
  179.2890  177.7610  136.2070 C   0  0  0  0  0  3  0  0  0  0  0  0
  183.9690  178.1520  137.1010 O   0  0  0  0  0  0  0  0  0  0  0  0
  187.1730  178.5070  138.3160 O   0  0  0  0  0  0  0  0  0  0  0  0
  186.1140  177.3120  136.6230 C   0  0  0  0  0  0  0  0  0  0  0  0
  185.0850  177.5040  137.6470 C   0  0  1  0  0  3  0  0  0  0  0  0
  187.3430  178.0430  136.9970 C   0  0  2  0  0  3  0  0  0  0  0  0
  185.8770  176.8160  135.4060 C   0  0  0  0  0  2  0  0  0  0  0  0
  185.7920  178.4360  138.6150 C   0  0  0  0  0  2  0  0  0  0  0  0
  188.5200  175.8740  137.4570 O   0  0  0  0  0  1  0  0  0  0  0  0
  189.6160  177.6100  136.4290 O   0  0  0  0  0  0  0  0  0  0  0  0
  188.5510  177.1630  136.9300 C   0  0  0  0  0  0  0  0  0  0  0  0
  182.5250  175.1280  138.3030 O   0  0  0  0  0  0  0  0  0  0  0  0
  183.1870  174.7090  137.1940 N   0  0  0  0  0  0  0  0  0  0  0  0
  184.3450  173.9420  137.6480 C   0  0  0  0  0  2  0  0  0  0  0  0
  182.6740  172.3760  136.9750 C   0  0  0  0  0  2  0  0  0  0  0  0
  182.3130  173.7640  136.5090 C   0  0  0  0  0  2  0  0  0  0  0  0
  184.1330  172.4820  137.3070 C   0  0  0  0  0  2  0  0  0  0  0  0
  183.2940  177.4730  141.4020 O   0  0  0  0  0  0  0  0  0  0  0  0
  185.4300  179.5960  141.8220 O   0  0  0  0  0  1  0  0  0  0  0  0
  183.4180  179.2380  145.7160 O   0  0  0  0  0  0  0  0  0  0  0  0
  183.8510  178.8960  144.5850 C   0  0  0  0  0  0  0  0  0  0  0  0
  185.1860  178.5450  142.7060 C   0  0  2  0  0  3  0  0  0  0  0  0
  183.7670  178.0950  142.5630 C   0  0  0  0  0  0  0  0  0  0  0  0
  185.2600  179.0600  144.1450 C   0  0  2  0  0  3  0  0  0  0  0  0
  183.0280  178.3030  143.6010 N   0  0  0  0  0  0  0  0  0  0  0  0
  186.1660  178.1650  144.9840 C   0  0  0  0  0  2  0  0  0  0  0  0
  187.6490  178.4450  144.7440 C   0  0  0  0  0  2  0  0  0  0  0  0
  188.5160  177.8830  145.8640 C   0  0  1  0  0  3  0  0  0  0  0  0
  187.9660  177.8710  148.2980 C   0  0  0  0  0  1  0  0  0  0  0  0
  187.6330  177.2750  146.9450 C   0  0  0  0  0  2  0  0  0  0  0  0
  189.4250  176.8050  145.2930 C   0  0  0  0  0  2  0  0  0  0  0  0
  191.8800  175.9710  144.3330 N   0  0  0  0  0  1  0  0  0  0  0  0
  189.1820  176.0760  143.0550 C   0  0  0  0  0  2  0  0  0  0  0  0
  189.2950  176.4610  141.5760 C   0  0  0  0  0  2  0  0  0  0  0  0
  190.4400  177.4430  141.3170 C   0  0  0  0  0  2  0  0  0  0  0  0
  189.7770  177.1110  143.9040 N   0  0  0  0  0  0  0  0  0  0  0  0
  191.2510  177.1340  143.7150 C   0  0  1  0  0  0  0  0  0  0  0  0
  191.8210  178.3930  144.3490 C   0  0  0  0  0  1  0  0  0  0  0  0
  191.6350  177.1470  142.2240 C   0  0  0  0  0  2  0  0  0  0  0  0
  181.5780  179.1280  140.8970 C   0  0  0  0  0  2  0  0  0  0  0  0
  179.1420  178.8090  140.1040 C   0  0  0  0  0  1  0  0  0  0  0  0
  180.2370  178.4860  141.0590 C   0  0  0  0  0  0  0  0  0  0  0  0
  180.0420  177.6780  141.9570 O   0  0  0  0  0  0  0  0  0  0  0  0
  1  2  1  1  0  0  0
  1 49  1  0  0  0  0
  1 27  1  0  0  0  0
  3  2  1  1  0  0  0
  4 11  1  1  0  0  0
  4  3  1  0  0  0  0
  6  9  2  0  0  0  0
  7  8  1  0  0  0  0
  8  5  2  0  0  0  0
  9  5  1  0  0  0  0
  9  4  1  0  0  0  0
 10  7  2  0  0  0  0
 10  6  1  0  0  0  0
 12 17  1  0  0  0  0
 13 15  1  0  0  0  0
 13 14  1  0  0  0  0
 14 11  1  6  0  0  0
 14 17  1  0  0  0  0
 15 20  1  1  0  0  0
 15 12  1  0  0  0  0
 16 13  2  0  0  0  0
 19 20  2  0  0  0  0
 20 18  1  0  0  0  0
 21  3  1  0  0  0  0
 22 23  1  0  0  0  0
 22 21  1  0  0  0  0
 24 26  1  0  0  0  0
 25 24  1  0  0  0  0
 25 22  1  0  0  0  0
 26 23  1  0  0  0  0
 27 32  1  0  0  0  0
 30 29  2  0  0  0  0
 31 28  1  6  0  0  0
 31 33  1  0  0  0  0
 32 31  1  0  0  0  0
 32 34  2  0  0  0  0
 33 30  1  0  0  0  0
 33 35  1  1  0  0  0
 34 30  1  0  0  0  0
 36 35  1  0  0  0  0
 37 36  1  6  0  0  0
 37 39  1  0  0  0  0
 39 38  1  0  0  0  0
 40 37  1  0  0  0  0
 42 45  1  0  0  0  0
 43 42  1  0  0  0  0
 44 43  1  0  0  0  0
 44 48  1  0  0  0  0
 45 40  1  0  0  0  0
 46 45  1  0  0  0  0
 46 41  1  0  0  0  0
 46 47  1  1  0  0  0
 48 46  1  0  0  0  0
 49 51  1  0  0  0  0
 50 51  1  0  0  0  0
 51 52  2  0  0  0  0
M  END
>  <MODEL>
3

>  <REMARK>
 VINA RESULT:      -6.8      1.172      2.166
  Name = 
  19 active torsions:
  status: ('A' for Active; 'I' for Inactive)
    1  A    between atoms: C_3  and  C_8
    2  A    between atoms: C_3  and  C_29
    3  A    between atoms: N_4  and  O_21
    4  A    between atoms: C_8  and  O_39
    5  A    between atoms: C_8  and  C_42
    6  A    between atoms: C_16  and  C_19
    7  A    between atoms: C_16  and  C_38
    8  A    between atoms: C_19  and  C_37
    9  A    between atoms: O_21  and  C_33
   10  A    between atoms: C_22  and  C_33
   11  A    between atoms: C_22  and  C_48
   12  A    between atoms: C_22  and  O_51
   13  A    between atoms: N_24  and  C_44
   14  A    between atoms: C_33  and  C_42
   15  A    between atoms: C_34  and  O_39
   16  A    between atoms: C_35  and  O_51
   17  A    between atoms: C_36  and  C_37
   18  A    between atoms: C_37  and  C_44
   19  A    between atoms: C_46  and  C_47
                            x       y       z     vdW  Elec       q    Type
                         _______ _______ _______ _____ _____    ______ ____

>  <TORSDO>
F 19

$$$$
=
 OpenBabel11062415133D

 52 56  0  0  1  0  0  0  0  0999 V2000
  182.8520  178.1690  140.1640 C   0  0  2  0  0  3  0  0  0  0  0  0
  183.4760  177.9410  138.7930 C   0  0  0  0  0  2  0  0  0  0  0  0
  182.4570  177.4330  137.7800 C   0  0  2  0  0  3  0  0  0  0  0  0
  182.9260  176.0650  137.2710 C   0  0  1  0  0  3  0  0  0  0  0  0
  181.0550  175.0970  138.6180 C   0  0  0  0  0  3  0  0  0  0  0  0
  181.6470  174.0150  136.5360 C   0  0  0  0  0  3  0  0  0  0  0  0
  179.8290  173.1440  137.8750 C   0  0  0  0  0  3  0  0  0  0  0  0
  180.0400  174.1560  138.8170 C   0  0  0  0  0  3  0  0  0  0  0  0
  181.8640  175.0290  137.4800 C   0  0  0  0  0  0  0  0  0  0  0  0
  180.6340  173.0730  136.7350 C   0  0  0  0  0  3  0  0  0  0  0  0
  183.2870  176.1200  135.9180 O   0  0  0  0  0  0  0  0  0  0  0  0
  186.2890  175.9050  137.5930 O   0  0  0  0  0  0  0  0  0  0  0  0
  185.5170  176.7870  135.5820 C   0  0  0  0  0  0  0  0  0  0  0  0
  184.6130  175.6730  135.8740 C   0  0  1  0  0  3  0  0  0  0  0  0
  186.4530  176.9890  136.7090 C   0  0  2  0  0  3  0  0  0  0  0  0
  185.3260  177.6700  134.5990 C   0  0  0  0  0  2  0  0  0  0  0  0
  185.0630  175.2770  137.2700 C   0  0  0  0  0  2  0  0  0  0  0  0
  188.5620  175.8730  135.9280 O   0  0  0  0  0  0  0  0  0  0  0  0
  188.4620  178.1540  136.1780 O   0  0  0  0  0  1  0  0  0  0  0  0
  187.8740  177.0420  136.2440 C   0  0  0  0  0  0  0  0  0  0  0  0
  182.3620  178.3460  136.7200 O   0  0  0  0  0  0  0  0  0  0  0  0
  181.0320  178.5090  136.5050 N   0  0  0  0  0  0  0  0  0  0  0  0
  180.6570  179.8000  137.0800 C   0  0  0  0  0  2  0  0  0  0  0  0
  180.8520  180.1010  134.7200 C   0  0  0  0  0  2  0  0  0  0  0  0
  180.8450  178.6330  135.0640 C   0  0  0  0  0  2  0  0  0  0  0  0
  180.3160  180.7580  135.9580 C   0  0  0  0  0  2  0  0  0  0  0  0
  183.6500  177.6180  141.2130 O   0  0  0  0  0  0  0  0  0  0  0  0
  185.7080  179.6810  142.0840 O   0  0  0  0  0  1  0  0  0  0  0  0
  182.8890  179.4130  145.4480 O   0  0  0  0  0  0  0  0  0  0  0  0
  183.5460  179.0490  144.4380 C   0  0  0  0  0  0  0  0  0  0  0  0
  185.2460  178.6440  142.8940 C   0  0  2  0  0  3  0  0  0  0  0  0
  183.8780  178.2360  142.4470 C   0  0  0  0  0  0  0  0  0  0  0  0
  185.0210  179.1680  144.3140 C   0  0  2  0  0  3  0  0  0  0  0  0
  182.9390  178.4730  143.3000 N   0  0  0  0  0  0  0  0  0  0  0  0
  185.6960  178.2530  145.3310 C   0  0  0  0  0  2  0  0  0  0  0  0
  186.9170  177.5370  144.7540 C   0  0  0  0  0  2  0  0  0  0  0  0
  188.1880  177.8870  145.5190 C   0  0  1  0  0  3  0  0  0  0  0  0
  189.2530  177.8710  147.7760 C   0  0  0  0  0  1  0  0  0  0  0  0
  187.9490  177.7330  147.0140 C   0  0  0  0  0  2  0  0  0  0  0  0
  189.3010  176.9450  145.0880 C   0  0  0  0  0  2  0  0  0  0  0  0
  191.9410  176.4990  144.3970 N   0  0  0  0  0  1  0  0  0  0  0  0
  189.3990  176.0880  142.8840 C   0  0  0  0  0  2  0  0  0  0  0  0
  189.5890  176.4230  141.4010 C   0  0  0  0  0  2  0  0  0  0  0  0
  190.5750  177.5730  141.1850 C   0  0  0  0  0  2  0  0  0  0  0  0
  189.7300  177.2450  143.7200 N   0  0  0  0  0  0  0  0  0  0  0  0
  191.1920  177.5100  143.6600 C   0  0  1  0  0  0  0  0  0  0  0  0
  191.4820  178.8750  144.2660 C   0  0  0  0  0  1  0  0  0  0  0  0
  191.7090  177.5240  142.2100 C   0  0  0  0  0  2  0  0  0  0  0  0
  181.4370  177.6070  140.1920 C   0  0  0  0  0  2  0  0  0  0  0  0
  179.0010  178.3160  140.6690 C   0  0  0  0  0  1  0  0  0  0  0  0
  180.4390  178.6710  140.5180 C   0  0  0  0  0  0  0  0  0  0  0  0
  180.8000  179.8280  140.6860 O   0  0  0  0  0  0  0  0  0  0  0  0
  1  2  1  6  0  0  0
  1 49  1  0  0  0  0
  1 27  1  0  0  0  0
  3  2  1  1  0  0  0
  4 11  1  6  0  0  0
  4  9  1  0  0  0  0
  4  3  1  0  0  0  0
  5  8  1  0  0  0  0
  6 10  2  0  0  0  0
  6  9  1  0  0  0  0
  7  8  2  0  0  0  0
  9  5  2  0  0  0  0
 10  7  1  0  0  0  0
 13 14  1  0  0  0  0
 13 15  1  0  0  0  0
 14 11  1  1  0  0  0
 14 17  1  0  0  0  0
 15 20  1  6  0  0  0
 15 12  1  0  0  0  0
 16 13  2  0  0  0  0
 17 12  1  0  0  0  0
 18 20  2  0  0  0  0
 19 20  1  0  0  0  0
 21  3  1  0  0  0  0
 22 21  1  0  0  0  0
 22 23  1  0  0  0  0
 24 25  1  0  0  0  0
 24 26  1  0  0  0  0
 25 22  1  0  0  0  0
 26 23  1  0  0  0  0
 27 32  1  0  0  0  0
 30 29  2  0  0  0  0
 31 28  1  6  0  0  0
 31 33  1  0  0  0  0
 32 31  1  0  0  0  0
 32 34  2  0  0  0  0
 33 30  1  0  0  0  0
 33 35  1  1  0  0  0
 34 30  1  0  0  0  0
 36 35  1  0  0  0  0
 37 36  1  6  0  0  0
 37 39  1  0  0  0  0
 39 38  1  0  0  0  0
 40 37  1  0  0  0  0
 42 45  1  0  0  0  0
 43 42  1  0  0  0  0
 44 43  1  0  0  0  0
 44 48  1  0  0  0  0
 45 40  1  0  0  0  0
 46 45  1  0  0  0  0
 46 47  1  1  0  0  0
 46 41  1  0  0  0  0
 48 46  1  0  0  0  0
 49 51  1  0  0  0  0
 51 50  1  0  0  0  0
 51 52  2  0  0  0  0
M  END
>  <MODEL>
4

>  <REMARK>
 VINA RESULT:      -6.7      1.698      3.592
  Name = 
  19 active torsions:
  status: ('A' for Active; 'I' for Inactive)
    1  A    between atoms: C_3  and  C_8
    2  A    between atoms: C_3  and  C_29
    3  A    between atoms: N_4  and  O_21
    4  A    between atoms: C_8  and  O_39
    5  A    between atoms: C_8  and  C_42
    6  A    between atoms: C_16  and  C_19
    7  A    between atoms: C_16  and  C_38
    8  A    between atoms: C_19  and  C_37
    9  A    between atoms: O_21  and  C_33
   10  A    between atoms: C_22  and  C_33
   11  A    between atoms: C_22  and  C_48
   12  A    between atoms: C_22  and  O_51
   13  A    between atoms: N_24  and  C_44
   14  A    between atoms: C_33  and  C_42
   15  A    between atoms: C_34  and  O_39
   16  A    between atoms: C_35  and  O_51
   17  A    between atoms: C_36  and  C_37
   18  A    between atoms: C_37  and  C_44
   19  A    between atoms: C_46  and  C_47
                            x       y       z     vdW  Elec       q    Type
                         _______ _______ _______ _____ _____    ______ ____

>  <TORSDO>
F 19

$$$$
=
 OpenBabel11062415133D

 52 56  0  0  1  0  0  0  0  0999 V2000
  185.6670  178.1610  138.8870 C   0  0  2  0  0  3  0  0  0  0  0  0
  184.3050  178.7790  139.1730 C   0  0  0  0  0  2  0  0  0  0  0  0
  183.6060  178.1030  140.3470 C   0  0  2  0  0  3  0  0  0  0  0  0
  182.1550  177.8170  139.9440 C   0  0  1  0  0  3  0  0  0  0  0  0
  181.3430  179.9790  138.9840 C   0  0  0  0  0  3  0  0  0  0  0  0
  180.5030  179.2990  141.1500 C   0  0  0  0  0  3  0  0  0  0  0  0
  179.7380  181.3670  140.1520 C   0  0  0  0  0  3  0  0  0  0  0  0
  180.5530  181.1310  139.0400 C   0  0  0  0  0  3  0  0  0  0  0  0
  181.3250  179.0610  140.0380 C   0  0  0  0  0  0  0  0  0  0  0  0
  179.7140  180.4520  141.2070 C   0  0  0  0  0  3  0  0  0  0  0  0
  182.0790  177.2820  138.6510 O   0  0  0  0  0  0  0  0  0  0  0  0
  182.7110  174.1560  137.3510 O   0  0  0  0  0  0  0  0  0  0  0  0
  180.8480  175.3790  138.0240 C   0  0  0  0  0  0  0  0  0  0  0  0
  181.9510  175.8990  138.8340 C   0  0  1  0  0  3  0  0  0  0  0  0
  181.3610  174.4050  137.0360 C   0  0  2  0  0  3  0  0  0  0  0  0
  179.6300  175.9230  137.9780 C   0  0  0  0  0  2  0  0  0  0  0  0
  183.1430  175.1920  138.2120 C   0  0  0  0  0  2  0  0  0  0  0  0
  180.1780  172.5030  135.9020 O   0  0  0  0  0  0  0  0  0  0  0  0
  180.2910  172.6180  138.1920 O   0  0  0  0  0  1  0  0  0  0  0  0
  180.5950  173.1200  137.0790 C   0  0  0  0  0  0  0  0  0  0  0  0
  183.6500  178.9510  141.4630 O   0  0  0  0  0  0  0  0  0  0  0  0
  183.7740  178.1270  142.5350 N   0  0  0  0  0  0  0  0  0  0  0  0
  185.2020  178.0170  142.8300 C   0  0  0  0  0  2  0  0  0  0  0  0
  184.2670  179.5560  144.3980 C   0  0  0  0  0  2  0  0  0  0  0  0
  183.1730  178.8140  143.6720 C   0  0  0  0  0  2  0  0  0  0  0  0
  185.4910  178.7280  144.1350 C   0  0  0  0  0  2  0  0  0  0  0  0
  186.6910  178.7210  139.7090 O   0  0  0  0  0  0  0  0  0  0  0  0
  189.2830  179.5420  138.3450 O   0  0  0  0  0  1  0  0  0  0  0  0
  190.5070  176.7020  141.4720 O   0  0  0  0  0  0  0  0  0  0  0  0
  189.7720  177.2510  140.6100 C   0  0  0  0  0  0  0  0  0  0  0  0
  188.9450  178.2250  138.6590 C   0  0  2  0  0  3  0  0  0  0  0  0
  187.9930  178.2180  139.8130 C   0  0  0  0  0  0  0  0  0  0  0  0
  190.1770  177.4980  139.2030 C   0  0  2  0  0  3  0  0  0  0  0  0
  188.4590  177.6900  140.8930 N   0  0  0  0  0  0  0  0  0  0  0  0
  190.3690  176.1670  138.4830 C   0  0  0  0  0  2  0  0  0  0  0  0
  190.1370  176.2780  136.9760 C   0  0  0  0  0  2  0  0  0  0  0  0
  190.7590  175.1080  136.2230 C   0  0  1  0  0  3  0  0  0  0  0  0
  189.4810  173.0200  135.7440 C   0  0  0  0  0  1  0  0  0  0  0  0
  189.7150  174.4580  135.3270 C   0  0  0  0  0  2  0  0  0  0  0  0
  191.9060  175.6240  135.3680 C   0  0  0  0  0  2  0  0  0  0  0  0
  193.8820  176.6990  136.9750 N   0  0  0  0  0  1  0  0  0  0  0  0
  192.8430  173.9120  136.7050 C   0  0  0  0  0  2  0  0  0  0  0  0
  193.9780  172.8920  136.8470 C   0  0  0  0  0  2  0  0  0  0  0  0
  195.2990  173.4070  136.2720 C   0  0  0  0  0  2  0  0  0  0  0  0
  193.1200  174.8410  135.6060 N   0  0  0  0  0  0  0  0  0  0  0  0
  194.2650  175.7190  135.9640 C   0  0  1  0  0  0  0  0  0  0  0  0
  194.7430  176.4570  134.7230 C   0  0  0  0  0  1  0  0  0  0  0  0
  195.4550  174.9090  136.5130 C   0  0  0  0  0  2  0  0  0  0  0  0
  186.0040  178.3060  137.4090 C   0  0  0  0  0  2  0  0  0  0  0  0
  185.5130  176.8170  135.3570 C   0  0  0  0  0  1  0  0  0  0  0  0
  186.0590  176.9730  136.7330 C   0  0  0  0  0  0  0  0  0  0  0  0
  186.5710  176.0150  137.2960 O   0  0  0  0  0  0  0  0  0  0  0  0
  1 49  1  6  0  0  0
  1  2  1  0  0  0  0
  1 27  1  0  0  0  0
  3  2  1  6  0  0  0
  3 21  1  0  0  0  0
  4 11  1  6  0  0  0
  4  9  1  0  0  0  0
  4  3  1  0  0  0  0
  5  8  2  0  0  0  0
  5  9  1  0  0  0  0
  6 10  1  0  0  0  0
  7 10  2  0  0  0  0
  8  7  1  0  0  0  0
  9  6  2  0  0  0  0
 12 17  1  0  0  0  0
 13 14  1  0  0  0  0
 14 11  1  6  0  0  0
 15 20  1  1  0  0  0
 15 12  1  0  0  0  0
 15 13  1  0  0  0  0
 16 13  2  0  0  0  0
 17 14  1  0  0  0  0
 18 20  2  0  0  0  0
 20 19  1  0  0  0  0
 21 22  1  0  0  0  0
 22 23  1  0  0  0  0
 22 25  1  0  0  0  0
 23 26  1  0  0  0  0
 25 24  1  0  0  0  0
 26 24  1  0  0  0  0
 27 32  1  0  0  0  0
 30 34  1  0  0  0  0
 30 29  2  0  0  0  0
 31 28  1  1  0  0  0
 31 33  1  0  0  0  0
 31 32  1  0  0  0  0
 32 34  2  0  0  0  0
 33 35  1  6  0  0  0
 33 30  1  0  0  0  0
 36 35  1  0  0  0  0
 37 39  1  6  0  0  0
 37 36  1  0  0  0  0
 39 38  1  0  0  0  0
 40 45  1  0  0  0  0
 40 37  1  0  0  0  0
 42 43  1  0  0  0  0
 44 48  1  0  0  0  0
 44 43  1  0  0  0  0
 45 46  1  0  0  0  0
 45 42  1  0  0  0  0
 46 47  1  6  0  0  0
 46 48  1  0  0  0  0
 46 41  1  0  0  0  0
 50 51  1  0  0  0  0
 51 52  2  0  0  0  0
 51 49  1  0  0  0  0
M  END
>  <MODEL>
5

>  <REMARK>
 VINA RESULT:      -6.2      3.504      7.376
  Name = 
  19 active torsions:
  status: ('A' for Active; 'I' for Inactive)
    1  A    between atoms: C_3  and  C_8
    2  A    between atoms: C_3  and  C_29
    3  A    between atoms: N_4  and  O_21
    4  A    between atoms: C_8  and  O_39
    5  A    between atoms: C_8  and  C_42
    6  A    between atoms: C_16  and  C_19
    7  A    between atoms: C_16  and  C_38
    8  A    between atoms: C_19  and  C_37
    9  A    between atoms: O_21  and  C_33
   10  A    between atoms: C_22  and  C_33
   11  A    between atoms: C_22  and  C_48
   12  A    between atoms: C_22  and  O_51
   13  A    between atoms: N_24  and  C_44
   14  A    between atoms: C_33  and  C_42
   15  A    between atoms: C_34  and  O_39
   16  A    between atoms: C_35  and  O_51
   17  A    between atoms: C_36  and  C_37
   18  A    between atoms: C_37  and  C_44
   19  A    between atoms: C_46  and  C_47
                            x       y       z     vdW  Elec       q    Type
                         _______ _______ _______ _____ _____    ______ ____

>  <TORSDO>
F 19

$$$$
=
 OpenBabel11062415133D

 52 56  0  0  1  0  0  0  0  0999 V2000
  190.8370  177.0130  141.6220 C   0  0  2  0  0  3  0  0  0  0  0  0
  191.4320  177.3280  140.2560 C   0  0  0  0  0  2  0  0  0  0  0  0
  190.5210  176.8790  139.1200 C   0  0  2  0  0  3  0  0  0  0  0  0
  191.2280  175.7600  138.3480 C   0  0  1  0  0  3  0  0  0  0  0  0
  189.6450  174.2160  137.1820 C   0  0  0  0  0  3  0  0  0  0  0  0
  190.4480  176.1570  135.9790 C   0  0  0  0  0  3  0  0  0  0  0  0
  188.8940  174.6350  134.9170 C   0  0  0  0  0  3  0  0  0  0  0  0
  188.8760  173.8480  136.0730 C   0  0  0  0  0  3  0  0  0  0  0  0
  190.4360  175.3680  137.1390 C   0  0  0  0  0  0  0  0  0  0  0  0
  189.6810  175.7880  134.8700 C   0  0  0  0  0  3  0  0  0  0  0  0
  192.5250  176.1380  137.9740 O   0  0  0  0  0  0  0  0  0  0  0  0
  195.7170  175.0850  138.7250 O   0  0  0  0  0  0  0  0  0  0  0  0
  194.0740  174.5670  137.1590 C   0  0  0  0  0  0  0  0  0  0  0  0
  193.3390  175.0550  138.3280 C   0  0  1  0  0  3  0  0  0  0  0  0
  195.5290  174.7150  137.3780 C   0  0  2  0  0  3  0  0  0  0  0  0
  193.5160  174.3190  135.9730 C   0  0  0  0  0  2  0  0  0  0  0  0
  194.4710  175.5380  139.2170 C   0  0  0  0  0  2  0  0  0  0  0  0
  197.2660  173.3890  136.1410 O   0  0  0  0  0  0  0  0  0  0  0  0
  195.9360  172.3940  137.7270 O   0  0  0  0  0  1  0  0  0  0  0  0
  196.2610  173.4400  137.1050 C   0  0  0  0  0  0  0  0  0  0  0  0
  190.2600  177.9700  138.2770 O   0  0  0  0  0  0  0  0  0  0  0  0
  189.0750  178.4770  138.7030 N   0  0  0  0  0  0  0  0  0  0  0  0
  188.5570  179.3230  137.6280 C   0  0  0  0  0  2  0  0  0  0  0  0
  187.3830  177.2460  137.5280 C   0  0  0  0  0  2  0  0  0  0  0  0
  188.1500  177.3550  138.8220 C   0  0  0  0  0  2  0  0  0  0  0  0
  187.3380  178.6580  137.0230 C   0  0  0  0  0  2  0  0  0  0  0  0
  189.7440  177.8750  141.9410 O   0  0  0  0  0  0  0  0  0  0  0  0
  187.7940  175.7370  142.8780 O   0  0  0  0  0  1  0  0  0  0  0  0
  188.3200  178.3810  146.3520 O   0  0  0  0  0  0  0  0  0  0  0  0
  188.2690  178.0280  145.1450 C   0  0  0  0  0  0  0  0  0  0  0  0
  187.6270  177.1030  143.1030 C   0  0  2  0  0  3  0  0  0  0  0  0
  188.9630  177.7750  143.0980 C   0  0  0  0  0  0  0  0  0  0  0  0
  187.1150  177.3260  144.5280 C   0  0  2  0  0  3  0  0  0  0  0  0
  189.3200  178.2740  144.2330 N   0  0  0  0  0  0  0  0  0  0  0  0
  185.9000  178.2480  144.5180 C   0  0  0  0  0  2  0  0  0  0  0  0
  185.4680  178.6310  143.1020 C   0  0  0  0  0  2  0  0  0  0  0  0
  184.0330  178.2040  142.8170 C   0  0  1  0  0  3  0  0  0  0  0  0
  182.1420  179.0030  144.2350 C   0  0  0  0  0  1  0  0  0  0  0  0
  183.0850  179.3600  143.1020 C   0  0  0  0  0  2  0  0  0  0  0  0
  183.9160  177.8080  141.3530 C   0  0  0  0  0  2  0  0  0  0  0  0
  183.6170  177.5340  138.6180 N   0  0  0  0  0  1  0  0  0  0  0  0
  181.6310  178.0490  140.7880 C   0  0  0  0  0  2  0  0  0  0  0  0
  180.5380  179.0100  140.3080 C   0  0  0  0  0  2  0  0  0  0  0  0
  181.0710  180.0550  139.3260 C   0  0  0  0  0  2  0  0  0  0  0  0
  182.9530  178.6690  140.6620 N   0  0  0  0  0  0  0  0  0  0  0  0
  183.3030  178.8230  139.2250 C   0  0  1  0  0  0  0  0  0  0  0  0
  184.5140  179.7340  139.0970 C   0  0  0  0  0  1  0  0  0  0  0  0
  182.1530  179.4600  138.4230 C   0  0  0  0  0  2  0  0  0  0  0  0
  191.9220  177.0790  142.6900 C   0  0  0  0  0  2  0  0  0  0  0  0
  191.8430  176.4790  145.1990 C   0  0  0  0  0  1  0  0  0  0  0  0
  191.6740  176.0810  143.7750 C   0  0  0  0  0  0  0  0  0  0  0  0
  191.3110  174.9460  143.5000 O   0  0  0  0  0  0  0  0  0  0  0  0
  1  2  1  6  0  0  0
  1 27  1  0  0  0  0
  1 49  1  0  0  0  0
  3  2  1  1  0  0  0
  4 11  1  6  0  0  0
  4  3  1  0  0  0  0
  6  9  2  0  0  0  0
  7  8  1  0  0  0  0
  8  5  2  0  0  0  0
  9  5  1  0  0  0  0
  9  4  1  0  0  0  0
 10  7  2  0  0  0  0
 10  6  1  0  0  0  0
 12 17  1  0  0  0  0
 13 15  1  0  0  0  0
 13 14  1  0  0  0  0
 14 11  1  6  0  0  0
 14 17  1  0  0  0  0
 15 20  1  1  0  0  0
 15 12  1  0  0  0  0
 16 13  2  0  0  0  0
 18 20  2  0  0  0  0
 20 19  1  0  0  0  0
 21 22  1  0  0  0  0
 21  3  1  0  0  0  0
 22 25  1  0  0  0  0
 23 22  1  0  0  0  0
 24 25  1  0  0  0  0
 26 24  1  0  0  0  0
 26 23  1  0  0  0  0
 27 32  1  0  0  0  0
 30 29  2  0  0  0  0
 31 28  1  1  0  0  0
 31 33  1  0  0  0  0
 32 31  1  0  0  0  0
 32 34  2  0  0  0  0
 33 35  1  6  0  0  0
 33 30  1  0  0  0  0
 34 30  1  0  0  0  0
 36 35  1  0  0  0  0
 37 40  1  6  0  0  0
 37 39  1  0  0  0  0
 37 36  1  0  0  0  0
 39 38  1  0  0  0  0
 41 46  1  0  0  0  0
 43 42  1  0  0  0  0
 44 43  1  0  0  0  0
 45 42  1  0  0  0  0
 45 40  1  0  0  0  0
 46 47  1  6  0  0  0
 46 45  1  0  0  0  0
 48 46  1  0  0  0  0
 48 44  1  0  0  0  0
 49 51  1  0  0  0  0
 51 50  1  0  0  0  0
 52 51  2  0  0  0  0
M  END
>  <MODEL>
6

>  <REMARK>
 VINA RESULT:      -6.1      3.838      8.603
  Name = 
  19 active torsions:
  status: ('A' for Active; 'I' for Inactive)
    1  A    between atoms: C_3  and  C_8
    2  A    between atoms: C_3  and  C_29
    3  A    between atoms: N_4  and  O_21
    4  A    between atoms: C_8  and  O_39
    5  A    between atoms: C_8  and  C_42
    6  A    between atoms: C_16  and  C_19
    7  A    between atoms: C_16  and  C_38
    8  A    between atoms: C_19  and  C_37
    9  A    between atoms: O_21  and  C_33
   10  A    between atoms: C_22  and  C_33
   11  A    between atoms: C_22  and  C_48
   12  A    between atoms: C_22  and  O_51
   13  A    between atoms: N_24  and  C_44
   14  A    between atoms: C_33  and  C_42
   15  A    between atoms: C_34  and  O_39
   16  A    between atoms: C_35  and  O_51
   17  A    between atoms: C_36  and  C_37
   18  A    between atoms: C_37  and  C_44
   19  A    between atoms: C_46  and  C_47
                            x       y       z     vdW  Elec       q    Type
                         _______ _______ _______ _____ _____    ______ ____

>  <TORSDO>
F 19

$$$$
=
 OpenBabel11062415133D

 52 56  0  0  1  0  0  0  0  0999 V2000
  188.0010  177.5760  138.8860 C   0  0  2  0  0  3  0  0  0  0  0  0
  188.3570  177.0130  137.5160 C   0  0  0  0  0  2  0  0  0  0  0  0
  187.4690  175.8340  137.1360 C   0  0  2  0  0  3  0  0  0  0  0  0
  188.3710  174.6660  136.7230 C   0  0  1  0  0  3  0  0  0  0  0  0
  186.5870  172.9720  137.1670 C   0  0  0  0  0  3  0  0  0  0  0  0
  187.7110  172.9180  135.0240 C   0  0  0  0  0  3  0  0  0  0  0  0
  185.9560  171.3220  135.5090 C   0  0  0  0  0  3  0  0  0  0  0  0
  185.7910  171.8900  136.7760 C   0  0  0  0  0  3  0  0  0  0  0  0
  187.5510  173.4870  136.2960 C   0  0  0  0  0  0  0  0  0  0  0  0
  186.9170  171.8350  134.6340 C   0  0  0  0  0  3  0  0  0  0  0  0
  189.2520  175.0370  135.6990 O   0  0  0  0  0  0  0  0  0  0  0  0
  191.7660  175.0570  138.0540 O   0  0  0  0  0  0  0  0  0  0  0  0
  191.5640  175.4680  135.7720 C   0  0  0  0  0  0  0  0  0  0  0  0
  190.4960  174.5150  136.0770 C   0  0  1  0  0  3  0  0  0  0  0  0
  192.2450  175.8830  137.0170 C   0  0  2  0  0  3  0  0  0  0  0  0
  191.6970  176.0950  134.6010 C   0  0  0  0  0  2  0  0  0  0  0  0
  190.5780  174.4440  137.5920 C   0  0  0  0  0  2  0  0  0  0  0  0
  194.5050  176.7520  136.3550 O   0  0  0  0  0  0  0  0  0  0  0  0
  194.2750  174.6660  137.2880 O   0  0  0  0  0  1  0  0  0  0  0  0
  193.7300  175.7360  136.9090 C   0  0  0  0  0  0  0  0  0  0  0  0
  186.6320  176.2080  136.0750 O   0  0  0  0  0  0  0  0  0  0  0  0
  185.4010  176.3610  136.6250 N   0  0  0  0  0  0  0  0  0  0  0  0
  184.9080  177.6770  136.2190 C   0  0  0  0  0  2  0  0  0  0  0  0
  183.8420  176.0560  134.8270 C   0  0  0  0  0  2  0  0  0  0  0  0
  184.5260  175.3830  135.9910 C   0  0  0  0  0  2  0  0  0  0  0  0
  183.7600  177.4940  135.2480 C   0  0  0  0  0  2  0  0  0  0  0  0
  186.8780  178.4570  138.8260 O   0  0  0  0  0  0  0  0  0  0  0  0
  186.9660  180.1610  141.3440 O   0  0  0  0  0  1  0  0  0  0  0  0
  182.8160  178.7250  141.1000 O   0  0  0  0  0  0  0  0  0  0  0  0
  184.0650  178.7330  140.9420 C   0  0  0  0  0  0  0  0  0  0  0  0
  186.3670  178.9030  141.2700 C   0  0  2  0  0  3  0  0  0  0  0  0
  185.9500  178.6350  139.8590 C   0  0  0  0  0  0  0  0  0  0  0  0
  185.0460  178.9200  142.0410 C   0  0  2  0  0  3  0  0  0  0  0  0
  184.6750  178.5540  139.6800 N   0  0  0  0  0  0  0  0  0  0  0  0
  184.9740  177.7350  142.9990 C   0  0  0  0  0  2  0  0  0  0  0  0
  186.3210  177.4310  143.6540 C   0  0  0  0  0  2  0  0  0  0  0  0
  186.5610  178.3060  144.8790 C   0  0  1  0  0  3  0  0  0  0  0  0
  185.0390  178.2850  146.8560 C   0  0  0  0  0  1  0  0  0  0  0  0
  185.2300  178.7870  145.4380 C   0  0  0  0  0  2  0  0  0  0  0  0
  187.2850  177.4880  145.9370 C   0  0  0  0  0  2  0  0  0  0  0  0
  188.9270  175.9100  147.5050 N   0  0  0  0  0  1  0  0  0  0  0  0
  189.1320  176.7600  144.6490 C   0  0  0  0  0  2  0  0  0  0  0  0
  190.5920  177.0230  144.2630 C   0  0  0  0  0  2  0  0  0  0  0  0
  191.4050  177.6020  145.4220 C   0  0  0  0  0  2  0  0  0  0  0  0
  188.7370  177.6080  145.7770 N   0  0  0  0  0  0  0  0  0  0  0  0
  189.4520  177.1770  147.0070 C   0  0  1  0  0  0  0  0  0  0  0  0
  189.2810  178.2360  148.0860 C   0  0  0  0  0  1  0  0  0  0  0  0
  190.9610  177.0040  146.7580 C   0  0  0  0  0  2  0  0  0  0  0  0
  189.2130  178.2670  139.4950 C   0  0  0  0  0  2  0  0  0  0  0  0
  191.4030  177.4970  140.6260 C   0  0  0  0  0  1  0  0  0  0  0  0
  189.9320  177.3610  140.4440 C   0  0  0  0  0  0  0  0  0  0  0  0
  189.3140  176.5250  141.0880 O   0  0  0  0  0  0  0  0  0  0  0  0
  1  2  1  6  0  0  0
  1 49  1  0  0  0  0
  3  2  1  6  0  0  0
  4 11  1  6  0  0  0
  4  3  1  0  0  0  0
  6  9  1  0  0  0  0
  7  8  2  0  0  0  0
  8  5  1  0  0  0  0
  9  4  1  0  0  0  0
  9  5  2  0  0  0  0
 10  6  2  0  0  0  0
 10  7  1  0  0  0  0
 13 14  1  0  0  0  0
 13 15  1  0  0  0  0
 14 11  1  1  0  0  0
 14 17  1  0  0  0  0
 15 20  1  6  0  0  0
 15 12  1  0  0  0  0
 16 13  2  0  0  0  0
 17 12  1  0  0  0  0
 18 20  2  0  0  0  0
 20 19  1  0  0  0  0
 21 22  1  0  0  0  0
 21  3  1  0  0  0  0
 23 22  1  0  0  0  0
 24 26  1  0  0  0  0
 24 25  1  0  0  0  0
 25 22  1  0  0  0  0
 26 23  1  0  0  0  0
 27  1  1  0  0  0  0
 27 32  1  0  0  0  0
 30 29  2  0  0  0  0
 30 33  1  0  0  0  0
 31 28  1  6  0  0  0
 31 33  1  0  0  0  0
 32 31  1  0  0  0  0
 33 35  1  1  0  0  0
 34 32  2  0  0  0  0
 34 30  1  0  0  0  0
 35 36  1  0  0  0  0
 37 36  1  6  0  0  0
 37 39  1  0  0  0  0
 37 40  1  0  0  0  0
 39 38  1  0  0  0  0
 42 45  1  0  0  0  0
 43 42  1  0  0  0  0
 43 44  1  0  0  0  0
 44 48  1  0  0  0  0
 45 40  1  0  0  0  0
 45 46  1  0  0  0  0
 46 41  1  0  0  0  0
 46 47  1  1  0  0  0
 48 46  1  0  0  0  0
 49 51  1  0  0  0  0
 51 50  1  0  0  0  0
 51 52  2  0  0  0  0
M  END
>  <MODEL>
7

>  <REMARK>
 VINA RESULT:      -6.0      2.637      5.674
  Name = 
  19 active torsions:
  status: ('A' for Active; 'I' for Inactive)
    1  A    between atoms: C_3  and  C_8
    2  A    between atoms: C_3  and  C_29
    3  A    between atoms: N_4  and  O_21
    4  A    between atoms: C_8  and  O_39
    5  A    between atoms: C_8  and  C_42
    6  A    between atoms: C_16  and  C_19
    7  A    between atoms: C_16  and  C_38
    8  A    between atoms: C_19  and  C_37
    9  A    between atoms: O_21  and  C_33
   10  A    between atoms: C_22  and  C_33
   11  A    between atoms: C_22  and  C_48
   12  A    between atoms: C_22  and  O_51
   13  A    between atoms: N_24  and  C_44
   14  A    between atoms: C_33  and  C_42
   15  A    between atoms: C_34  and  O_39
   16  A    between atoms: C_35  and  O_51
   17  A    between atoms: C_36  and  C_37
   18  A    between atoms: C_37  and  C_44
   19  A    between atoms: C_46  and  C_47
                            x       y       z     vdW  Elec       q    Type
                         _______ _______ _______ _____ _____    ______ ____

>  <TORSDO>
F 19

$$$$
=
 OpenBabel11062415133D

 52 56  0  0  1  0  0  0  0  0999 V2000
  180.9390  177.6590  140.1680 C   0  0  2  0  0  3  0  0  0  0  0  0
  182.0240  176.6770  139.7490 C   0  0  0  0  0  2  0  0  0  0  0  0
  182.1450  176.5710  138.2340 C   0  0  2  0  0  3  0  0  0  0  0  0
  183.5440  176.0430  137.8980 C   0  0  1  0  0  3  0  0  0  0  0  0
  184.2310  173.6420  137.7830 C   0  0  0  0  0  3  0  0  0  0  0  0
  182.6000  174.4450  136.1850 C   0  0  0  0  0  3  0  0  0  0  0  0
  183.2900  172.1250  136.1440 C   0  0  0  0  0  3  0  0  0  0  0  0
  184.1470  172.3630  137.2230 C   0  0  0  0  0  3  0  0  0  0  0  0
  183.4620  174.6880  137.2650 C   0  0  0  0  0  0  0  0  0  0  0  0
  182.5170  173.1670  135.6250 C   0  0  0  0  0  3  0  0  0  0  0  0
  184.2360  176.9270  137.0600 O   0  0  0  0  0  0  0  0  0  0  0  0
  187.0790  178.7880  137.6230 O   0  0  0  0  0  0  0  0  0  0  0  0
  186.4960  176.8910  136.4060 C   0  0  0  0  0  0  0  0  0  0  0  0
  185.5560  176.9210  137.5290 C   0  0  1  0  0  3  0  0  0  0  0  0
  187.3330  178.1100  136.4140 C   0  0  2  0  0  3  0  0  0  0  0  0
  186.4020  176.0530  135.3720 C   0  0  0  0  0  2  0  0  0  0  0  0
  185.8790  178.2650  138.1570 C   0  0  0  0  0  2  0  0  0  0  0  0
  189.2070  176.4910  136.0010 O   0  0  0  0  0  0  0  0  0  0  0  0
  189.6420  178.6690  136.5840 O   0  0  0  0  0  1  0  0  0  0  0  0
  188.7890  177.7800  136.3240 C   0  0  0  0  0  0  0  0  0  0  0  0
  181.9470  177.8360  137.6640 O   0  0  0  0  0  0  0  0  0  0  0  0
  180.9040  177.6850  136.8080 N   0  0  0  0  0  0  0  0  0  0  0  0
  180.0550  178.8670  136.9510 C   0  0  0  0  0  2  0  0  0  0  0  0
  181.3530  179.1580  134.9690 C   0  0  0  0  0  2  0  0  0  0  0  0
  181.4500  177.7350  135.4570 C   0  0  0  0  0  2  0  0  0  0  0  0
  180.1530  179.6990  135.6900 C   0  0  0  0  0  2  0  0  0  0  0  0
  181.0550  178.0320  141.5410 O   0  0  0  0  0  0  0  0  0  0  0  0
  183.6150  179.1850  140.3730 O   0  0  0  0  0  1  0  0  0  0  0  0
  183.9850  179.7920  144.7130 O   0  0  0  0  0  0  0  0  0  0  0  0
  183.6210  179.2630  143.6310 C   0  0  0  0  0  0  0  0  0  0  0  0
  183.5700  178.3460  141.4870 C   0  0  2  0  0  3  0  0  0  0  0  0
  182.2360  178.4720  142.1500 C   0  0  0  0  0  0  0  0  0  0  0  0
  184.5500  178.8530  142.5470 C   0  0  2  0  0  3  0  0  0  0  0  0
  182.2670  178.9910  143.3310 N   0  0  0  0  0  0  0  0  0  0  0  0
  185.4380  177.7140  143.0380 C   0  0  0  0  0  2  0  0  0  0  0  0
  186.9100  178.1170  143.1270 C   0  0  0  0  0  2  0  0  0  0  0  0
  187.3790  178.2160  144.5740 C   0  0  1  0  0  3  0  0  0  0  0  0
  186.5450  177.9830  146.9140 C   0  0  0  0  0  1  0  0  0  0  0  0
  186.3960  177.4970  145.4850 C   0  0  0  0  0  2  0  0  0  0  0  0
  188.7480  177.5640  144.6960 C   0  0  0  0  0  2  0  0  0  0  0  0
  191.4720  177.0940  144.6750 N   0  0  0  0  0  1  0  0  0  0  0  0
  189.3100  176.3110  142.7700 C   0  0  0  0  0  2  0  0  0  0  0  0
  189.8130  176.3660  141.3230 C   0  0  0  0  0  2  0  0  0  0  0  0
  190.8280  177.4900  141.1020 C   0  0  0  0  0  2  0  0  0  0  0  0
  189.4600  177.6160  143.4170 N   0  0  0  0  0  0  0  0  0  0  0  0
  190.9020  177.9190  143.6160 C   0  0  1  0  0  0  0  0  0  0  0  0
  191.0620  179.3830  143.9950 C   0  0  0  0  0  1  0  0  0  0  0  0
  191.7170  177.6770  142.3320 C   0  0  0  0  0  2  0  0  0  0  0  0
  179.5650  177.0750  139.8680 C   0  0  0  0  0  2  0  0  0  0  0  0
  179.5590  174.4960  139.7500 C   0  0  0  0  0  1  0  0  0  0  0  0
  179.3830  175.7490  140.5350 C   0  0  0  0  0  0  0  0  0  0  0  0
  179.1160  175.6870  141.7260 O   0  0  0  0  0  0  0  0  0  0  0  0
  1  2  1  1  0  0  0
  1 27  1  0  0  0  0
  3  2  1  1  0  0  0
  4 11  1  6  0  0  0
  4  3  1  0  0  0  0
  6  9  2  0  0  0  0
  7  8  1  0  0  0  0
  8  5  2  0  0  0  0
  9  5  1  0  0  0  0
  9  4  1  0  0  0  0
 10  7  2  0  0  0  0
 10  6  1  0  0  0  0
 12 17  1  0  0  0  0
 13 15  1  0  0  0  0
 13 14  1  0  0  0  0
 14 11  1  6  0  0  0
 14 17  1  0  0  0  0
 15 20  1  1  0  0  0
 15 12  1  0  0  0  0
 16 13  2  0  0  0  0
 18 20  2  0  0  0  0
 20 19  1  0  0  0  0
 21  3  1  0  0  0  0
 22 23  1  0  0  0  0
 22 21  1  0  0  0  0
 24 25  1  0  0  0  0
 24 26  1  0  0  0  0
 25 22  1  0  0  0  0
 26 23  1  0  0  0  0
 27 32  1  0  0  0  0
 30 29  2  0  0  0  0
 31 28  1  6  0  0  0
 31 32  1  0  0  0  0
 31 33  1  0  0  0  0
 32 34  2  0  0  0  0
 33 35  1  1  0  0  0
 33 30  1  0  0  0  0
 34 30  1  0  0  0  0
 35 36  1  0  0  0  0
 37 36  1  6  0  0  0
 37 40  1  0  0  0  0
 37 39  1  0  0  0  0
 39 38  1  0  0  0  0
 42 45  1  0  0  0  0
 43 42  1  0  0  0  0
 44 43  1  0  0  0  0
 44 48  1  0  0  0  0
 45 46  1  0  0  0  0
 45 40  1  0  0  0  0
 46 47  1  1  0  0  0
 46 41  1  0  0  0  0
 48 46  1  0  0  0  0
 49  1  1  0  0  0  0
 49 51  1  0  0  0  0
 50 51  1  0  0  0  0
 51 52  2  0  0  0  0
M  END
>  <MODEL>
8

>  <REMARK>
 VINA RESULT:      -5.9      1.709      3.816
  Name = 
  19 active torsions:
  status: ('A' for Active; 'I' for Inactive)
    1  A    between atoms: C_3  and  C_8
    2  A    between atoms: C_3  and  C_29
    3  A    between atoms: N_4  and  O_21
    4  A    between atoms: C_8  and  O_39
    5  A    between atoms: C_8  and  C_42
    6  A    between atoms: C_16  and  C_19
    7  A    between atoms: C_16  and  C_38
    8  A    between atoms: C_19  and  C_37
    9  A    between atoms: O_21  and  C_33
   10  A    between atoms: C_22  and  C_33
   11  A    between atoms: C_22  and  C_48
   12  A    between atoms: C_22  and  O_51
   13  A    between atoms: N_24  and  C_44
   14  A    between atoms: C_33  and  C_42
   15  A    between atoms: C_34  and  O_39
   16  A    between atoms: C_35  and  O_51
   17  A    between atoms: C_36  and  C_37
   18  A    between atoms: C_37  and  C_44
   19  A    between atoms: C_46  and  C_47
                            x       y       z     vdW  Elec       q    Type
                         _______ _______ _______ _____ _____    ______ ____

>  <TORSDO>
F 19

$$$$
=
 OpenBabel11062415133D

 52 56  0  0  1  0  0  0  0  0999 V2000
  185.4000  177.6340  138.2660 C   0  0  2  0  0  3  0  0  0  0  0  0
  184.4860  177.8490  137.0670 C   0  0  0  0  0  2  0  0  0  0  0  0
  183.5110  176.6940  136.8780 C   0  0  2  0  0  3  0  0  0  0  0  0
  182.0910  177.2170  137.1250 C   0  0  1  0  0  3  0  0  0  0  0  0
  181.3380  176.3320  139.3390 C   0  0  0  0  0  3  0  0  0  0  0  0
  180.5020  175.2650  137.3330 C   0  0  0  0  0  3  0  0  0  0  0  0
  179.7920  174.4740  139.5080 C   0  0  0  0  0  3  0  0  0  0  0  0
  180.5860  175.4490  140.1210 C   0  0  0  0  0  3  0  0  0  0  0  0
  181.3020  176.2420  137.9440 C   0  0  0  0  0  0  0  0  0  0  0  0
  179.7520  174.3810  138.1150 C   0  0  0  0  0  3  0  0  0  0  0  0
  182.1100  178.4700  137.7520 O   0  0  0  0  0  0  0  0  0  0  0  0
  180.8290  180.9070  135.6820 O   0  0  0  0  0  0  0  0  0  0  0  0
  180.8170  180.4240  137.9590 C   0  0  0  0  0  0  0  0  0  0  0  0
  180.9570  179.1240  137.3000 C   0  0  1  0  0  3  0  0  0  0  0  0
  180.8690  181.5090  136.9550 C   0  0  2  0  0  3  0  0  0  0  0  0
  180.9340  180.6140  139.2750 C   0  0  0  0  0  2  0  0  0  0  0  0
  181.1410  179.5380  135.8510 C   0  0  0  0  0  2  0  0  0  0  0  0
  178.9340  182.7880  135.9960 O   0  0  0  0  0  0  0  0  0  0  0  0
  179.4770  182.9710  138.2200 O   0  0  0  0  0  1  0  0  0  0  0  0
  179.7160  182.4500  137.0980 C   0  0  0  0  0  0  0  0  0  0  0  0
  183.8230  175.6710  137.7840 O   0  0  0  0  0  0  0  0  0  0  0  0
  183.8700  174.5360  137.0410 N   0  0  0  0  0  0  0  0  0  0  0  0
  184.5680  174.8620  135.7990 C   0  0  0  0  0  2  0  0  0  0  0  0
  186.1250  173.7370  137.2170 C   0  0  0  0  0  2  0  0  0  0  0  0
  184.7240  173.5940  137.7560 C   0  0  0  0  0  2  0  0  0  0  0  0
  185.9160  174.1710  135.7960 C   0  0  0  0  0  2  0  0  0  0  0  0
  185.4620  178.7880  139.1050 O   0  0  0  0  0  0  0  0  0  0  0  0
  187.8920  179.2730  140.8680 O   0  0  0  0  0  1  0  0  0  0  0  0
  184.4980  179.0800  143.6580 O   0  0  0  0  0  0  0  0  0  0  0  0
  185.1800  178.8550  142.6240 C   0  0  0  0  0  0  0  0  0  0  0  0
  186.9020  178.3300  141.1420 C   0  0  2  0  0  3  0  0  0  0  0  0
  185.6210  178.7530  140.4950 C   0  0  0  0  0  0  0  0  0  0  0  0
  186.5760  178.3510  142.6370 C   0  0  2  0  0  3  0  0  0  0  0  0
  184.6750  179.0550  141.3190 N   0  0  0  0  0  0  0  0  0  0  0  0
  186.6050  176.9360  143.2070 C   0  0  0  0  0  2  0  0  0  0  0  0
  187.6710  176.7630  144.2890 C   0  0  0  0  0  2  0  0  0  0  0  0
  187.8190  178.0210  145.1380 C   0  0  1  0  0  3  0  0  0  0  0  0
  185.8180  178.3120  146.5990 C   0  0  0  0  0  1  0  0  0  0  0  0
  187.2350  177.7790  146.5220 C   0  0  0  0  0  2  0  0  0  0  0  0
  189.2960  178.3590  145.2670 C   0  0  0  0  0  2  0  0  0  0  0  0
  191.6370  178.9470  143.9180 N   0  0  0  0  0  1  0  0  0  0  0  0
  190.9680  176.8060  145.8900 C   0  0  0  0  0  2  0  0  0  0  0  0
  191.6790  175.4960  145.5320 C   0  0  0  0  0  2  0  0  0  0  0  0
  191.8140  175.3000  144.0210 C   0  0  0  0  0  2  0  0  0  0  0  0
  190.1230  177.2530  144.7800 N   0  0  0  0  0  0  0  0  0  0  0  0
  190.9730  177.6780  143.6370 C   0  0  1  0  0  0  0  0  0  0  0  0
  190.1060  177.8420  142.3980 C   0  0  0  0  0  1  0  0  0  0  0  0
  192.0570  176.6340  143.3130 C   0  0  0  0  0  2  0  0  0  0  0  0
  186.7870  177.2190  137.7950 C   0  0  0  0  0  2  0  0  0  0  0  0
  187.2600  177.7970  135.3230 C   0  0  0  0  0  1  0  0  0  0  0  0
  187.3150  178.1660  136.7640 C   0  0  0  0  0  0  0  0  0  0  0  0
  187.7690  179.2520  137.0980 O   0  0  0  0  0  0  0  0  0  0  0  0
  1  2  1  6  0  0  0
  1 27  1  0  0  0  0
  3  2  1  1  0  0  0
  3  4  1  0  0  0  0
  3 21  1  0  0  0  0
  4 11  1  1  0  0  0
  4  9  1  0  0  0  0
  5  8  1  0  0  0  0
  6  9  1  0  0  0  0
  6 10  2  0  0  0  0
  7  8  2  0  0  0  0
  9  5  2  0  0  0  0
 10  7  1  0  0  0  0
 12 17  1  0  0  0  0
 12 15  1  0  0  0  0
 13 16  2  0  0  0  0
 14 11  1  1  0  0  0
 14 13  1  0  0  0  0
 15 20  1  1  0  0  0
 15 13  1  0  0  0  0
 17 14  1  0  0  0  0
 18 20  2  0  0  0  0
 20 19  1  0  0  0  0
 22 25  1  0  0  0  0
 22 21  1  0  0  0  0
 23 22  1  0  0  0  0
 24 25  1  0  0  0  0
 26 23  1  0  0  0  0
 26 24  1  0  0  0  0
 27 32  1  0  0  0  0
 30 33  1  0  0  0  0
 30 29  2  0  0  0  0
 31 28  1  1  0  0  0
 31 33  1  0  0  0  0
 32 31  1  0  0  0  0
 32 34  2  0  0  0  0
 33 35  1  6  0  0  0
 34 30  1  0  0  0  0
 35 36  1  0  0  0  0
 37 36  1  6  0  0  0
 37 40  1  0  0  0  0
 37 39  1  0  0  0  0
 39 38  1  0  0  0  0
 43 42  1  0  0  0  0
 44 43  1  0  0  0  0
 45 40  1  0  0  0  0
 45 42  1  0  0  0  0
 46 47  1  6  0  0  0
 46 41  1  0  0  0  0
 46 45  1  0  0  0  0
 48 46  1  0  0  0  0
 48 44  1  0  0  0  0
 49  1  1  0  0  0  0
 50 51  1  0  0  0  0
 51 52  2  0  0  0  0
 51 49  1  0  0  0  0
M  END
>  <MODEL>
9

>  <REMARK>
 VINA RESULT:      -5.8      1.904      4.800
  Name = 
  19 active torsions:
  status: ('A' for Active; 'I' for Inactive)
    1  A    between atoms: C_3  and  C_8
    2  A    between atoms: C_3  and  C_29
    3  A    between atoms: N_4  and  O_21
    4  A    between atoms: C_8  and  O_39
    5  A    between atoms: C_8  and  C_42
    6  A    between atoms: C_16  and  C_19
    7  A    between atoms: C_16  and  C_38
    8  A    between atoms: C_19  and  C_37
    9  A    between atoms: O_21  and  C_33
   10  A    between atoms: C_22  and  C_33
   11  A    between atoms: C_22  and  C_48
   12  A    between atoms: C_22  and  O_51
   13  A    between atoms: N_24  and  C_44
   14  A    between atoms: C_33  and  C_42
   15  A    between atoms: C_34  and  O_39
   16  A    between atoms: C_35  and  O_51
   17  A    between atoms: C_36  and  C_37
   18  A    between atoms: C_37  and  C_44
   19  A    between atoms: C_46  and  C_47
                            x       y       z     vdW  Elec       q    Type
                         _______ _______ _______ _____ _____    ______ ____

>  <TORSDO>
F 19

$$$$
