=
 OpenBabel11062417173D

 26 29  0  0  1  0  0  0  0  0999 V2000
  185.3800  177.6670  143.2950 N   0  0  0  0  0  2  0  0  0  0  0  0
  185.6760  179.6790  141.8730 C   0  0  0  0  0  2  0  0  0  0  0  0
  183.7940  177.7680  140.3840 N   0  0  0  0  0  2  0  0  0  0  0  0
  184.8130  178.6170  139.7840 C   0  0  0  0  0  2  0  0  0  0  0  0
  184.8330  178.9730  142.9350 C   0  0  1  0  0  3  0  0  0  0  0  0
  183.3800  178.8610  142.5830 C   0  0  0  0  0  0  0  0  0  0  0  0
  186.0090  178.7720  140.6990 C   0  0  0  0  0  2  0  0  0  0  0  0
  181.5250  178.0000  141.2590 C   0  0  0  0  0  0  0  0  0  0  0  0
  181.0940  179.1140  143.3630 C   0  0  0  0  0  3  0  0  0  0  0  0
  182.4640  179.3020  143.5440 C   0  0  0  0  0  3  0  0  0  0  0  0
  182.9060  178.2150  141.4150 C   0  0  0  0  0  0  0  0  0  0  0  0
  180.6270  178.4600  142.2240 C   0  0  0  0  0  3  0  0  0  0  0  0
  180.8870  177.1860  139.8400 Cl  0  0  0  0  0  0  0  0  0  0  0  0
  185.8890  178.6400  147.3640 C   0  0  0  0  0  3  0  0  0  0  0  0
  186.4930  177.8880  145.4690 C   0  0  0  0  0  0  0  0  0  0  0  0
  188.7730  177.1880  145.8430 C   0  0  0  0  0  0  0  0  0  0  0  0
  185.4970  178.4250  146.1200 O   0  0  0  0  0  0  0  0  0  0  0  0
  187.2100  178.2220  147.5360 C   0  0  0  0  0  3  0  0  0  0  0  0
  187.5700  177.7420  146.2940 C   0  0  0  0  0  0  0  0  0  0  0  0
  186.5290  177.4960  144.1310 C   0  0  0  0  0  0  0  0  0  0  0  0
  188.8450  176.7900  144.4950 C   0  0  0  0  0  3  0  0  0  0  0  0
  187.7300  176.9410  143.6450 C   0  0  0  0  0  3  0  0  0  0  0  0
  189.9580  177.0480  146.7370 C   0  0  0  0  0  2  0  0  0  0  0  0
  191.2270  176.9430  145.9080 C   0  0  0  0  0  2  0  0  0  0  0  0
  192.0490  175.7450  146.3450 C   0  0  0  0  0  2  0  0  0  0  0  0
  192.3700  175.8340  147.8250 C   0  0  0  0  0  1  0  0  0  0  0  0
  1 20  1  0  0  0  0
  2  5  1  0  0  0  0
  3 11  1  0  0  0  0
  4  3  1  0  0  0  0
  4  7  1  0  0  0  0
  5  1  1  6  0  0  0
  6  5  1  0  0  0  0
  6 10  1  0  0  0  0
  7  2  1  0  0  0  0
  8 11  1  0  0  0  0
  8 12  2  0  0  0  0
  9 10  2  0  0  0  0
 11  6  2  0  0  0  0
 12  9  1  0  0  0  0
 13  8  1  0  0  0  0
 14 18  2  0  0  0  0
 15 17  1  0  0  0  0
 15 19  1  0  0  0  0
 16 19  2  0  0  0  0
 16 23  1  0  0  0  0
 17 14  1  0  0  0  0
 19 18  1  0  0  0  0
 20 15  2  0  0  0  0
 21 16  1  0  0  0  0
 22 20  1  0  0  0  0
 22 21  2  0  0  0  0
 24 25  1  0  0  0  0
 24 23  1  0  0  0  0
 25 26  1  0  0  0  0
M  END
>  <MODEL>
1

>  <REMARK>
 VINA RESULT:      -8.3      0.000      0.000
  Name = 
  5 active torsions:
  status: ('A' for Active; 'I' for Inactive)
    1  A    between atoms: C_5  and  N_9
    2  A    between atoms: C_7  and  C_18
    3  A    between atoms: N_9  and  C_14
    4  A    between atoms: C_10  and  C_12
    5  A    between atoms: C_10  and  C_18
                            x       y       z     vdW  Elec       q    Type
                         _______ _______ _______ _____ _____    ______ ____

>  <TORSDO>
F 5

$$$$
=
 OpenBabel11062417173D

 26 29  0  0  1  0  0  0  0  0999 V2000
  182.2240  179.5240  143.0590 N   0  0  0  0  0  2  0  0  0  0  0  0
  179.8750  178.7280  143.1270 C   0  0  0  0  0  2  0  0  0  0  0  0
  180.0450  180.9090  140.9760 N   0  0  0  0  0  2  0  0  0  0  0  0
  178.9310  180.6770  141.8840 C   0  0  0  0  0  2  0  0  0  0  0  0
  181.2530  178.6000  142.4780 C   0  0  1  0  0  3  0  0  0  0  0  0
  181.2340  178.7200  140.9840 C   0  0  0  0  0  0  0  0  0  0  0  0
  179.4120  180.1730  143.2280 C   0  0  0  0  0  2  0  0  0  0  0  0
  180.9240  179.9550  138.9060 C   0  0  0  0  0  0  0  0  0  0  0  0
  182.0280  177.8020  138.8800 C   0  0  0  0  0  3  0  0  0  0  0  0
  181.8770  177.7070  140.2630 C   0  0  0  0  0  3  0  0  0  0  0  0
  180.7360  179.8540  140.2960 C   0  0  0  0  0  0  0  0  0  0  0  0
  181.5570  178.9260  138.2040 C   0  0  0  0  0  3  0  0  0  0  0  0
  180.3450  181.3480  138.0090 Cl  0  0  0  0  0  0  0  0  0  0  0  0
  186.0170  178.6190  141.4630 C   0  0  0  0  0  3  0  0  0  0  0  0
  184.5810  178.8480  143.0130 C   0  0  0  0  0  0  0  0  0  0  0  0
  185.8040  178.2500  145.0060 C   0  0  0  0  0  0  0  0  0  0  0  0
  184.7660  178.9520  141.7240 O   0  0  0  0  0  0  0  0  0  0  0  0
  186.6880  178.2810  142.6410 C   0  0  0  0  0  3  0  0  0  0  0  0
  185.7310  178.4400  143.6220 C   0  0  0  0  0  0  0  0  0  0  0  0
  183.4120  179.0990  143.7330 C   0  0  0  0  0  0  0  0  0  0  0  0
  184.6400  178.4870  145.7610 C   0  0  0  0  0  3  0  0  0  0  0  0
  183.4520  178.9100  145.1290 C   0  0  0  0  0  3  0  0  0  0  0  0
  187.0540  177.7830  145.6710 C   0  0  0  0  0  2  0  0  0  0  0  0
  187.0020  178.0940  147.1580 C   0  0  0  0  0  2  0  0  0  0  0  0
  188.3030  177.6950  147.8300 C   0  0  0  0  0  2  0  0  0  0  0  0
  189.2220  177.0080  146.8370 C   0  0  0  0  0  1  0  0  0  0  0  0
  1 20  1  0  0  0  0
  2  7  1  0  0  0  0
  3  4  1  0  0  0  0
  4  7  1  0  0  0  0
  5  1  1  1  0  0  0
  5  2  1  0  0  0  0
  6  5  1  0  0  0  0
  8 11  2  0  0  0  0
  9 10  1  0  0  0  0
 10  6  2  0  0  0  0
 11  3  1  0  0  0  0
 11  6  1  0  0  0  0
 12  9  2  0  0  0  0
 12  8  1  0  0  0  0
 13  8  1  0  0  0  0
 14 17  1  0  0  0  0
 14 18  2  0  0  0  0
 15 19  2  0  0  0  0
 15 20  1  0  0  0  0
 16 23  1  0  0  0  0
 16 21  2  0  0  0  0
 17 15  1  0  0  0  0
 18 19  1  0  0  0  0
 19 16  1  0  0  0  0
 20 22  2  0  0  0  0
 22 21  1  0  0  0  0
 23 24  1  0  0  0  0
 24 25  1  0  0  0  0
 26 25  1  0  0  0  0
M  END
>  <MODEL>
2

>  <REMARK>
 VINA RESULT:      -7.9      2.335      4.454
  Name = 
  5 active torsions:
  status: ('A' for Active; 'I' for Inactive)
    1  A    between atoms: C_5  and  N_9
    2  A    between atoms: C_7  and  C_18
    3  A    between atoms: N_9  and  C_14
    4  A    between atoms: C_10  and  C_12
    5  A    between atoms: C_10  and  C_18
                            x       y       z     vdW  Elec       q    Type
                         _______ _______ _______ _____ _____    ______ ____

>  <TORSDO>
F 5

$$$$
=
 OpenBabel11062417173D

 26 29  0  0  1  0  0  0  0  0999 V2000
  190.0430  176.4700  140.9820 N   0  0  0  0  0  2  0  0  0  0  0  0
  191.6080  177.4520  139.3260 C   0  0  0  0  0  2  0  0  0  0  0  0
  190.1800  175.1060  137.9620 N   0  0  0  0  0  2  0  0  0  0  0  0
  191.5710  175.4940  137.7770 C   0  0  0  0  0  2  0  0  0  0  0  0
  190.1840  177.4200  139.8820 C   0  0  1  0  0  3  0  0  0  0  0  0
  189.1310  177.1870  138.8400 C   0  0  0  0  0  0  0  0  0  0  0  0
  192.1570  176.0610  139.0530 C   0  0  0  0  0  2  0  0  0  0  0  0
  187.9790  175.8240  137.1820 C   0  0  0  0  0  0  0  0  0  0  0  0
  186.9680  177.8740  137.9750 C   0  0  0  0  0  3  0  0  0  0  0  0
  188.0600  178.0870  138.8160 C   0  0  0  0  0  3  0  0  0  0  0  0
  189.1000  176.0460  138.0010 C   0  0  0  0  0  0  0  0  0  0  0  0
  186.9260  176.7420  137.1640 C   0  0  0  0  0  3  0  0  0  0  0  0
  187.8810  174.4150  136.1380 Cl  0  0  0  0  0  0  0  0  0  0  0  0
  191.7420  176.5110  144.8380 C   0  0  0  0  0  3  0  0  0  0  0  0
  190.1810  176.7500  143.4140 C   0  0  0  0  0  0  0  0  0  0  0  0
  188.2960  177.4350  144.7560 C   0  0  0  0  0  0  0  0  0  0  0  0
  191.4390  176.4280  143.5550 O   0  0  0  0  0  0  0  0  0  0  0  0
  190.6250  176.9090  145.5770 C   0  0  0  0  0  3  0  0  0  0  0  0
  189.6360  177.0540  144.6270 C   0  0  0  0  0  0  0  0  0  0  0  0
  189.4370  176.7990  142.2350 C   0  0  0  0  0  0  0  0  0  0  0  0
  187.5140  177.4860  143.5870 C   0  0  0  0  0  3  0  0  0  0  0  0
  188.0810  177.1720  142.3340 C   0  0  0  0  0  3  0  0  0  0  0  0
  187.6910  177.7470  146.0830 C   0  0  0  0  0  2  0  0  0  0  0  0
  186.1970  177.4680  146.0550 C   0  0  0  0  0  2  0  0  0  0  0  0
  185.4140  178.7450  146.2940 C   0  0  0  0  0  2  0  0  0  0  0  0
  184.3920  178.9540  145.1930 C   0  0  0  0  0  1  0  0  0  0  0  0
  1 20  1  0  0  0  0
  2  5  1  0  0  0  0
  3 11  1  0  0  0  0
  4  3  1  0  0  0  0
  4  7  1  0  0  0  0
  5  1  1  1  0  0  0
  6  5  1  0  0  0  0
  7  2  1  0  0  0  0
  8 11  1  0  0  0  0
  9 10  2  0  0  0  0
 10  6  1  0  0  0  0
 11  6  2  0  0  0  0
 12  8  2  0  0  0  0
 12  9  1  0  0  0  0
 13  8  1  0  0  0  0
 14 18  2  0  0  0  0
 15 17  1  0  0  0  0
 15 19  1  0  0  0  0
 16 23  1  0  0  0  0
 17 14  1  0  0  0  0
 19 16  2  0  0  0  0
 19 18  1  0  0  0  0
 20 22  1  0  0  0  0
 20 15  2  0  0  0  0
 21 16  1  0  0  0  0
 22 21  2  0  0  0  0
 24 23  1  0  0  0  0
 24 25  1  0  0  0  0
 26 25  1  0  0  0  0
M  END
>  <MODEL>
3

>  <REMARK>
 VINA RESULT:      -7.9      4.210      6.269
  Name = 
  5 active torsions:
  status: ('A' for Active; 'I' for Inactive)
    1  A    between atoms: C_5  and  N_9
    2  A    between atoms: C_7  and  C_18
    3  A    between atoms: N_9  and  C_14
    4  A    between atoms: C_10  and  C_12
    5  A    between atoms: C_10  and  C_18
                            x       y       z     vdW  Elec       q    Type
                         _______ _______ _______ _____ _____    ______ ____

>  <TORSDO>
F 5

$$$$
=
 OpenBabel11062417173D

 26 29  0  0  1  0  0  0  0  0999 V2000
  190.3150  176.3380  140.8730 N   0  0  0  0  0  2  0  0  0  0  0  0
  191.7670  177.3020  139.1080 C   0  0  0  0  0  2  0  0  0  0  0  0
  190.1040  175.0730  137.8140 N   0  0  0  0  0  2  0  0  0  0  0  0
  191.4900  175.4020  137.5120 C   0  0  0  0  0  2  0  0  0  0  0  0
  190.4010  177.3170  139.7930 C   0  0  1  0  0  3  0  0  0  0  0  0
  189.2460  177.1700  138.8490 C   0  0  0  0  0  0  0  0  0  0  0  0
  192.2190  175.8970  138.7430 C   0  0  0  0  0  2  0  0  0  0  0  0
  187.8790  175.9200  137.2660 C   0  0  0  0  0  0  0  0  0  0  0  0
  187.0490  177.9870  138.2110 C   0  0  0  0  0  3  0  0  0  0  0  0
  188.2230  178.1190  138.9520 C   0  0  0  0  0  3  0  0  0  0  0  0
  189.0810  176.0610  137.9820 C   0  0  0  0  0  0  0  0  0  0  0  0
  186.8760  176.8860  137.3730 C   0  0  0  0  0  3  0  0  0  0  0  0
  187.6150  174.5540  136.1940 Cl  0  0  0  0  0  0  0  0  0  0  0  0
  186.9860  177.4910  143.1860 C   0  0  0  0  0  3  0  0  0  0  0  0
  189.0370  177.0490  142.8410 C   0  0  0  0  0  0  0  0  0  0  0  0
  190.0600  177.4110  144.9980 C   0  0  0  0  0  0  0  0  0  0  0  0
  187.8630  177.1100  142.2740 O   0  0  0  0  0  0  0  0  0  0  0  0
  187.6180  177.6900  144.4150 C   0  0  0  0  0  3  0  0  0  0  0  0
  188.9410  177.3960  144.1580 C   0  0  0  0  0  0  0  0  0  0  0  0
  190.2530  176.6930  142.2580 C   0  0  0  0  0  0  0  0  0  0  0  0
  191.3040  177.0650  144.4380 C   0  0  0  0  0  3  0  0  0  0  0  0
  191.4000  176.7070  143.0770 C   0  0  0  0  0  3  0  0  0  0  0  0
  189.9620  177.8110  146.4310 C   0  0  0  0  0  2  0  0  0  0  0  0
  189.5630  176.6160  147.2800 C   0  0  0  0  0  2  0  0  0  0  0  0
  188.2780  176.9060  148.0350 C   0  0  0  0  0  2  0  0  0  0  0  0
  188.1890  178.3800  148.3810 C   0  0  0  0  0  1  0  0  0  0  0  0
  1 20  1  0  0  0  0
  2  5  1  0  0  0  0
  3 11  1  0  0  0  0
  4  3  1  0  0  0  0
  4  7  1  0  0  0  0
  5  1  1  1  0  0  0
  6 10  1  0  0  0  0
  6  5  1  0  0  0  0
  7  2  1  0  0  0  0
  8 12  2  0  0  0  0
  8 11  1  0  0  0  0
  9 10  2  0  0  0  0
 11  6  2  0  0  0  0
 12  9  1  0  0  0  0
 13  8  1  0  0  0  0
 14 18  2  0  0  0  0
 15 19  1  0  0  0  0
 16 23  1  0  0  0  0
 17 15  1  0  0  0  0
 17 14  1  0  0  0  0
 19 18  1  0  0  0  0
 19 16  2  0  0  0  0
 20 15  2  0  0  0  0
 20 22  1  0  0  0  0
 21 16  1  0  0  0  0
 22 21  2  0  0  0  0
 23 24  1  0  0  0  0
 24 25  1  0  0  0  0
 25 26  1  0  0  0  0
M  END
>  <MODEL>
4

>  <REMARK>
 VINA RESULT:      -7.7      4.173      5.777
  Name = 
  5 active torsions:
  status: ('A' for Active; 'I' for Inactive)
    1  A    between atoms: C_5  and  N_9
    2  A    between atoms: C_7  and  C_18
    3  A    between atoms: N_9  and  C_14
    4  A    between atoms: C_10  and  C_12
    5  A    between atoms: C_10  and  C_18
                            x       y       z     vdW  Elec       q    Type
                         _______ _______ _______ _____ _____    ______ ____

>  <TORSDO>
F 5

$$$$
=
 OpenBabel11062417173D

 26 29  0  0  1  0  0  0  0  0999 V2000
  184.3050  177.9660  141.5890 N   0  0  0  0  0  2  0  0  0  0  0  0
  183.9370  179.3850  139.5870 C   0  0  0  0  0  2  0  0  0  0  0  0
  182.9860  176.5520  138.8940 N   0  0  0  0  0  2  0  0  0  0  0  0
  183.6590  177.4800  137.9970 C   0  0  0  0  0  2  0  0  0  0  0  0
  183.3440  178.7940  140.8660 C   0  0  1  0  0  3  0  0  0  0  0  0
  182.0580  178.0520  140.6530 C   0  0  0  0  0  0  0  0  0  0  0  0
  184.6540  178.3430  138.7440 C   0  0  0  0  0  2  0  0  0  0  0  0
  180.7370  176.2000  139.7820 C   0  0  0  0  0  0  0  0  0  0  0  0
  179.7930  177.6810  141.4450 C   0  0  0  0  0  3  0  0  0  0  0  0
  180.9840  178.4060  141.4770 C   0  0  0  0  0  3  0  0  0  0  0  0
  181.9300  176.9440  139.7800 C   0  0  0  0  0  0  0  0  0  0  0  0
  179.6720  176.5780  140.6030 C   0  0  0  0  0  3  0  0  0  0  0  0
  180.5340  174.8050  138.7350 Cl  0  0  0  0  0  0  0  0  0  0  0  0
  188.0430  177.3430  143.4320 C   0  0  0  0  0  3  0  0  0  0  0  0
  186.0020  177.9360  143.3580 C   0  0  0  0  0  0  0  0  0  0  0  0
  185.5510  178.6780  145.6100 C   0  0  0  0  0  0  0  0  0  0  0  0
  186.9850  177.4500  142.6480 O   0  0  0  0  0  0  0  0  0  0  0  0
  187.7380  177.7810  144.7230 C   0  0  0  0  0  3  0  0  0  0  0  0
  186.4140  178.1570  144.6400 C   0  0  0  0  0  0  0  0  0  0  0  0
  184.7010  178.2140  142.9410 C   0  0  0  0  0  0  0  0  0  0  0  0
  184.2270  178.9610  145.2240 C   0  0  0  0  0  3  0  0  0  0  0  0
  183.8050  178.7330  143.8980 C   0  0  0  0  0  3  0  0  0  0  0  0
  185.9910  178.9000  147.0170 C   0  0  0  0  0  2  0  0  0  0  0  0
  186.9450  177.7980  147.4470 C   0  0  0  0  0  2  0  0  0  0  0  0
  187.9970  178.3460  148.3930 C   0  0  0  0  0  2  0  0  0  0  0  0
  189.3610  177.7710  148.0580 C   0  0  0  0  0  1  0  0  0  0  0  0
  1 20  1  0  0  0  0
  2  5  1  0  0  0  0
  3 11  1  0  0  0  0
  4  7  1  0  0  0  0
  4  3  1  0  0  0  0
  5  1  1  6  0  0  0
  6  5  1  0  0  0  0
  6 10  1  0  0  0  0
  7  2  1  0  0  0  0
  8 12  2  0  0  0  0
  9 10  2  0  0  0  0
 11  8  1  0  0  0  0
 11  6  2  0  0  0  0
 12  9  1  0  0  0  0
 13  8  1  0  0  0  0
 14 18  2  0  0  0  0
 15 19  1  0  0  0  0
 16 23  1  0  0  0  0
 17 15  1  0  0  0  0
 17 14  1  0  0  0  0
 19 18  1  0  0  0  0
 19 16  2  0  0  0  0
 20 15  2  0  0  0  0
 20 22  1  0  0  0  0
 21 16  1  0  0  0  0
 22 21  2  0  0  0  0
 23 24  1  0  0  0  0
 24 25  1  0  0  0  0
 26 25  1  0  0  0  0
M  END
>  <MODEL>
5

>  <REMARK>
 VINA RESULT:      -7.7      1.937      3.280
  Name = 
  5 active torsions:
  status: ('A' for Active; 'I' for Inactive)
    1  A    between atoms: C_5  and  N_9
    2  A    between atoms: C_7  and  C_18
    3  A    between atoms: N_9  and  C_14
    4  A    between atoms: C_10  and  C_12
    5  A    between atoms: C_10  and  C_18
                            x       y       z     vdW  Elec       q    Type
                         _______ _______ _______ _____ _____    ______ ____

>  <TORSDO>
F 5

$$$$
=
 OpenBabel11062417173D

 26 29  0  0  1  0  0  0  0  0999 V2000
  187.9910  177.4970  142.4780 N   0  0  0  0  0  2  0  0  0  0  0  0
  190.1590  178.6060  142.9520 C   0  0  0  0  0  2  0  0  0  0  0  0
  190.7460  176.1440  141.2190 N   0  0  0  0  0  2  0  0  0  0  0  0
  191.5700  176.6500  142.3080 C   0  0  0  0  0  2  0  0  0  0  0  0
  188.9810  178.4530  141.9900 C   0  0  1  0  0  3  0  0  0  0  0  0
  189.3840  178.1300  140.5830 C   0  0  0  0  0  0  0  0  0  0  0  0
  190.7220  177.2670  143.4000 C   0  0  0  0  0  2  0  0  0  0  0  0
  190.3220  176.6710  138.8710 C   0  0  0  0  0  0  0  0  0  0  0  0
  189.0540  178.6280  138.2290 C   0  0  0  0  0  3  0  0  0  0  0  0
  188.8460  178.9350  139.5730 C   0  0  0  0  0  3  0  0  0  0  0  0
  190.1470  176.9890  140.2300 C   0  0  0  0  0  0  0  0  0  0  0  0
  189.7870  177.4950  137.8790 C   0  0  0  0  0  3  0  0  0  0  0  0
  191.2410  175.2570  138.3810 Cl  0  0  0  0  0  0  0  0  0  0  0  0
  186.7670  177.8500  146.4950 C   0  0  0  0  0  3  0  0  0  0  0  0
  186.5140  177.9350  144.3850 C   0  0  0  0  0  0  0  0  0  0  0  0
  184.2160  178.6260  144.1220 C   0  0  0  0  0  0  0  0  0  0  0  0
  187.3720  177.6740  145.3340 O   0  0  0  0  0  0  0  0  0  0  0  0
  185.4420  178.2480  146.2970 C   0  0  0  0  0  3  0  0  0  0  0  0
  185.3130  178.2930  144.9240 C   0  0  0  0  0  0  0  0  0  0  0  0
  186.7180  177.8790  143.0060 C   0  0  0  0  0  0  0  0  0  0  0  0
  184.3860  178.5710  142.7260 C   0  0  0  0  0  3  0  0  0  0  0  0
  185.6290  178.2020  142.1710 C   0  0  0  0  0  3  0  0  0  0  0  0
  182.8960  178.9960  144.7080 C   0  0  0  0  0  2  0  0  0  0  0  0
  181.8840  179.2410  143.6020 C   0  0  0  0  0  2  0  0  0  0  0  0
  180.5430  178.6280  143.9630 C   0  0  0  0  0  2  0  0  0  0  0  0
  179.7800  178.2480  142.7080 C   0  0  0  0  0  1  0  0  0  0  0  0
  1 20  1  0  0  0  0
  2  7  1  0  0  0  0
  3  4  1  0  0  0  0
  4  7  1  0  0  0  0
  5  1  1  1  0  0  0
  5  2  1  0  0  0  0
  6  5  1  0  0  0  0
  8 11  2  0  0  0  0
  9 10  1  0  0  0  0
 10  6  2  0  0  0  0
 11  6  1  0  0  0  0
 11  3  1  0  0  0  0
 12  9  2  0  0  0  0
 12  8  1  0  0  0  0
 13  8  1  0  0  0  0
 15 19  1  0  0  0  0
 15 17  1  0  0  0  0
 16 23  1  0  0  0  0
 16 19  2  0  0  0  0
 17 14  1  0  0  0  0
 18 14  2  0  0  0  0
 19 18  1  0  0  0  0
 20 15  2  0  0  0  0
 21 16  1  0  0  0  0
 22 21  2  0  0  0  0
 22 20  1  0  0  0  0
 24 25  1  0  0  0  0
 24 23  1  0  0  0  0
 26 25  1  0  0  0  0
M  END
>  <MODEL>
6

>  <REMARK>
 VINA RESULT:      -7.7      3.452      7.087
  Name = 
  5 active torsions:
  status: ('A' for Active; 'I' for Inactive)
    1  A    between atoms: C_5  and  N_9
    2  A    between atoms: C_7  and  C_18
    3  A    between atoms: N_9  and  C_14
    4  A    between atoms: C_10  and  C_12
    5  A    between atoms: C_10  and  C_18
                            x       y       z     vdW  Elec       q    Type
                         _______ _______ _______ _____ _____    ______ ____

>  <TORSDO>
F 5

$$$$
=
 OpenBabel11062417173D

 26 29  0  0  1  0  0  0  0  0999 V2000
  182.4610  179.2160  143.2250 N   0  0  0  0  0  2  0  0  0  0  0  0
  180.2090  178.2070  143.4830 C   0  0  0  0  0  2  0  0  0  0  0  0
  179.8570  180.8770  142.0140 N   0  0  0  0  0  2  0  0  0  0  0  0
  178.9520  180.3110  143.0050 C   0  0  0  0  0  2  0  0  0  0  0  0
  181.4390  178.3860  142.5930 C   0  0  1  0  0  3  0  0  0  0  0  0
  181.1240  178.8870  141.2150 C   0  0  0  0  0  0  0  0  0  0  0  0
  179.7080  179.5240  144.0540 C   0  0  0  0  0  2  0  0  0  0  0  0
  180.3600  180.5830  139.6410 C   0  0  0  0  0  0  0  0  0  0  0  0
  181.5350  178.6270  138.8350 C   0  0  0  0  0  3  0  0  0  0  0  0
  181.6600  178.1620  140.1440 C   0  0  0  0  0  3  0  0  0  0  0  0
  180.4500  180.1070  140.9610 C   0  0  0  0  0  0  0  0  0  0  0  0
  180.8900  179.8370  138.5860 C   0  0  0  0  0  3  0  0  0  0  0  0
  179.5530  182.0980  139.2750 Cl  0  0  0  0  0  0  0  0  0  0  0  0
  184.6160  178.6340  146.7980 C   0  0  0  0  0  3  0  0  0  0  0  0
  184.3480  178.6640  144.6890 C   0  0  0  0  0  0  0  0  0  0  0  0
  186.4990  177.9750  143.8390 C   0  0  0  0  0  0  0  0  0  0  0  0
  183.7510  178.8780  145.8310 O   0  0  0  0  0  0  0  0  0  0  0  0
  185.8450  178.2400  146.2640 C   0  0  0  0  0  3  0  0  0  0  0  0
  185.6370  178.2700  144.9010 C   0  0  0  0  0  0  0  0  0  0  0  0
  183.8170  178.7980  143.4060 C   0  0  0  0  0  0  0  0  0  0  0  0
  185.9970  178.1080  142.5310 C   0  0  0  0  0  3  0  0  0  0  0  0
  184.6640  178.5150  142.3160 C   0  0  0  0  0  3  0  0  0  0  0  0
  187.9150  177.5650  144.0660 C   0  0  0  0  0  2  0  0  0  0  0  0
  188.2590  176.3700  143.1930 C   0  0  0  0  0  2  0  0  0  0  0  0
  189.7630  176.1820  143.1190 C   0  0  0  0  0  2  0  0  0  0  0  0
  190.4540  177.0160  144.1820 C   0  0  0  0  0  1  0  0  0  0  0  0
  1 20  1  0  0  0  0
  2  7  1  0  0  0  0
  3  4  1  0  0  0  0
  4  7  1  0  0  0  0
  5  1  1  1  0  0  0
  5  2  1  0  0  0  0
  6  5  1  0  0  0  0
  8 11  2  0  0  0  0
  9 10  1  0  0  0  0
 10  6  2  0  0  0  0
 11  6  1  0  0  0  0
 11  3  1  0  0  0  0
 12  9  2  0  0  0  0
 12  8  1  0  0  0  0
 13  8  1  0  0  0  0
 15 19  1  0  0  0  0
 15 17  1  0  0  0  0
 16 23  1  0  0  0  0
 16 19  2  0  0  0  0
 17 14  1  0  0  0  0
 18 14  2  0  0  0  0
 19 18  1  0  0  0  0
 20 15  2  0  0  0  0
 21 16  1  0  0  0  0
 22 21  2  0  0  0  0
 22 20  1  0  0  0  0
 24 23  1  0  0  0  0
 25 24  1  0  0  0  0
 25 26  1  0  0  0  0
M  END
>  <MODEL>
7

>  <REMARK>
 VINA RESULT:      -7.7      2.261      4.006
  Name = 
  5 active torsions:
  status: ('A' for Active; 'I' for Inactive)
    1  A    between atoms: C_5  and  N_9
    2  A    between atoms: C_7  and  C_18
    3  A    between atoms: N_9  and  C_14
    4  A    between atoms: C_10  and  C_12
    5  A    between atoms: C_10  and  C_18
                            x       y       z     vdW  Elec       q    Type
                         _______ _______ _______ _____ _____    ______ ____

>  <TORSDO>
F 5

$$$$
=
 OpenBabel11062417173D

 26 29  0  0  1  0  0  0  0  0999 V2000
  189.4860  177.5760  142.2620 N   0  0  0  0  0  2  0  0  0  0  0  0
  190.2180  175.3870  143.1730 C   0  0  0  0  0  2  0  0  0  0  0  0
  190.6340  177.4840  145.3720 N   0  0  0  0  0  2  0  0  0  0  0  0
  191.4980  176.3470  145.0890 C   0  0  0  0  0  2  0  0  0  0  0  0
  189.0840  176.4030  143.0330 C   0  0  1  0  0  3  0  0  0  0  0  0
  188.4700  176.8100  144.3390 C   0  0  0  0  0  0  0  0  0  0  0  0
  191.5240  176.0310  143.6090 C   0  0  0  0  0  2  0  0  0  0  0  0
  188.5150  177.9110  146.5120 C   0  0  0  0  0  0  0  0  0  0  0  0
  186.4060  177.2100  145.5560 C   0  0  0  0  0  3  0  0  0  0  0  0
  187.0760  176.7260  144.4330 C   0  0  0  0  0  3  0  0  0  0  0  0
  189.2040  177.3960  145.4000 C   0  0  0  0  0  0  0  0  0  0  0  0
  187.1250  177.8060  146.5910 C   0  0  0  0  0  3  0  0  0  0  0  0
  189.3750  178.6660  147.8440 Cl  0  0  0  0  0  0  0  0  0  0  0  0
  191.7590  176.5890  138.8530 C   0  0  0  0  0  3  0  0  0  0  0  0
  190.0690  177.3580  139.8900 C   0  0  0  0  0  0  0  0  0  0  0  0
  188.6060  178.0890  138.1150 C   0  0  0  0  0  0  0  0  0  0  0  0
  191.2400  176.8020  140.0500 O   0  0  0  0  0  0  0  0  0  0  0  0
  190.8820  177.0260  137.8580 C   0  0  0  0  0  3  0  0  0  0  0  0
  189.8010  177.5170  138.5620 C   0  0  0  0  0  0  0  0  0  0  0  0
  189.1690  177.7570  140.8780 C   0  0  0  0  0  0  0  0  0  0  0  0
  187.6790  178.5110  139.0870 C   0  0  0  0  0  3  0  0  0  0  0  0
  187.9570  178.3440  140.4600 C   0  0  0  0  0  3  0  0  0  0  0  0
  188.3200  178.2850  136.6650 C   0  0  0  0  0  2  0  0  0  0  0  0
  187.1370  177.4280  136.2460 C   0  0  0  0  0  2  0  0  0  0  0  0
  187.5940  176.0210  135.9070 C   0  0  0  0  0  2  0  0  0  0  0  0
  187.0750  175.0340  136.9360 C   0  0  0  0  0  1  0  0  0  0  0  0
  2  7  1  0  0  0  0
  3 11  1  0  0  0  0
  4  3  1  0  0  0  0
  5  1  1  1  0  0  0
  5  2  1  0  0  0  0
  5  6  1  0  0  0  0
  6 10  2  0  0  0  0
  6 11  1  0  0  0  0
  7  4  1  0  0  0  0
  8 12  1  0  0  0  0
  8 13  1  0  0  0  0
  9 12  2  0  0  0  0
 10  9  1  0  0  0  0
 11  8  2  0  0  0  0
 14 17  1  0  0  0  0
 15 17  1  0  0  0  0
 15 20  1  0  0  0  0
 16 19  1  0  0  0  0
 16 21  2  0  0  0  0
 18 19  1  0  0  0  0
 18 14  2  0  0  0  0
 19 15  2  0  0  0  0
 20  1  1  0  0  0  0
 21 22  1  0  0  0  0
 22 20  2  0  0  0  0
 23 16  1  0  0  0  0
 24 23  1  0  0  0  0
 25 24  1  0  0  0  0
 25 26  1  0  0  0  0
M  END
>  <MODEL>
8

>  <REMARK>
 VINA RESULT:      -7.6      4.487      8.152
  Name = 
  5 active torsions:
  status: ('A' for Active; 'I' for Inactive)
    1  A    between atoms: C_5  and  N_9
    2  A    between atoms: C_7  and  C_18
    3  A    between atoms: N_9  and  C_14
    4  A    between atoms: C_10  and  C_12
    5  A    between atoms: C_10  and  C_18
                            x       y       z     vdW  Elec       q    Type
                         _______ _______ _______ _____ _____    ______ ____

>  <TORSDO>
F 5

$$$$
=
 OpenBabel11062417173D

 26 29  0  0  1  0  0  0  0  0999 V2000
  188.5550  177.1720  140.2920 N   0  0  0  0  0  2  0  0  0  0  0  0
  189.4390  178.6410  138.4990 C   0  0  0  0  0  2  0  0  0  0  0  0
  188.1060  176.2350  137.1420 N   0  0  0  0  0  2  0  0  0  0  0  0
  189.3140  176.9160  136.6980 C   0  0  0  0  0  2  0  0  0  0  0  0
  188.2400  178.2550  139.3650 C   0  0  1  0  0  3  0  0  0  0  0  0
  187.0010  177.9410  138.5820 C   0  0  0  0  0  0  0  0  0  0  0  0
  190.1170  177.4330  137.8730 C   0  0  0  0  0  2  0  0  0  0  0  0
  185.6890  176.5820  137.0420 C   0  0  0  0  0  0  0  0  0  0  0  0
  184.6030  178.2760  138.3860 C   0  0  0  0  0  3  0  0  0  0  0  0
  185.8290  178.6030  138.9650 C   0  0  0  0  0  3  0  0  0  0  0  0
  186.9360  176.9270  137.5950 C   0  0  0  0  0  0  0  0  0  0  0  0
  184.5340  177.2640  137.4300 C   0  0  0  0  0  3  0  0  0  0  0  0
  185.5500  175.3190  135.8310 Cl  0  0  0  0  0  0  0  0  0  0  0  0
  191.9270  177.2590  142.8180 C   0  0  0  0  0  3  0  0  0  0  0  0
  189.8500  177.3400  142.3670 C   0  0  0  0  0  0  0  0  0  0  0  0
  188.8190  177.6680  144.5250 C   0  0  0  0  0  0  0  0  0  0  0  0
  191.0380  177.2000  141.8420 O   0  0  0  0  0  0  0  0  0  0  0  0
  191.2890  177.4480  144.0460 C   0  0  0  0  0  3  0  0  0  0  0  0
  189.9500  177.4960  143.7190 C   0  0  0  0  0  0  0  0  0  0  0  0
  188.6190  177.3410  141.7110 C   0  0  0  0  0  0  0  0  0  0  0  0
  187.5600  177.6650  143.8950 C   0  0  0  0  0  3  0  0  0  0  0  0
  187.4610  177.5040  142.4980 C   0  0  0  0  0  3  0  0  0  0  0  0
  188.9230  177.8170  146.0040 C   0  0  0  0  0  2  0  0  0  0  0  0
  187.5790  177.5300  146.6540 C   0  0  0  0  0  2  0  0  0  0  0  0
  187.6250  177.8550  148.1350 C   0  0  0  0  0  2  0  0  0  0  0  0
  189.0270  178.2680  148.5430 C   0  0  0  0  0  1  0  0  0  0  0  0
  1 20  1  0  0  0  0
  2  5  1  0  0  0  0
  3 11  1  0  0  0  0
  4  3  1  0  0  0  0
  4  7  1  0  0  0  0
  5  1  1  6  0  0  0
  6 10  1  0  0  0  0
  6  5  1  0  0  0  0
  7  2  1  0  0  0  0
  8 12  2  0  0  0  0
  8 11  1  0  0  0  0
  9 10  2  0  0  0  0
 11  6  2  0  0  0  0
 12  9  1  0  0  0  0
 13  8  1  0  0  0  0
 14 18  2  0  0  0  0
 15 19  1  0  0  0  0
 16 23  1  0  0  0  0
 17 15  1  0  0  0  0
 17 14  1  0  0  0  0
 19 18  1  0  0  0  0
 19 16  2  0  0  0  0
 20 15  2  0  0  0  0
 20 22  1  0  0  0  0
 21 16  1  0  0  0  0
 22 21  2  0  0  0  0
 23 24  1  0  0  0  0
 24 25  1  0  0  0  0
 25 26  1  0  0  0  0
M  END
>  <MODEL>
9

>  <REMARK>
 VINA RESULT:      -7.6      3.643      5.051
  Name = 
  5 active torsions:
  status: ('A' for Active; 'I' for Inactive)
    1  A    between atoms: C_5  and  N_9
    2  A    between atoms: C_7  and  C_18
    3  A    between atoms: N_9  and  C_14
    4  A    between atoms: C_10  and  C_12
    5  A    between atoms: C_10  and  C_18
                            x       y       z     vdW  Elec       q    Type
                         _______ _______ _______ _____ _____    ______ ____

>  <TORSDO>
F 5

$$$$
