=
 OpenBabel11062416363D

 61 69  0  0  1  0  0  0  0  0999 V2000
  185.4880  177.5570  137.4090 C   0  0  1  0  0  3  0  0  0  0  0  0
  185.1500  176.3790  135.2150 C   0  0  0  0  0  3  0  0  0  0  0  0
  184.2020  175.4920  134.9580 C   0  0  0  0  0  3  0  0  0  0  0  0
  185.6080  176.2340  136.6310 C   0  0  2  0  0  3  0  0  0  0  0  0
  184.7200  175.1430  137.1360 C   0  0  0  0  0  3  0  0  0  0  0  0
  183.9320  174.7180  136.1600 C   0  0  0  0  0  3  0  0  0  0  0  0
  184.4260  179.9430  138.7680 O   0  0  0  0  0  0  0  0  0  0  0  0
  184.2030  177.7120  138.1060 N   0  0  0  0  0  2  0  0  0  0  0  0
  183.6680  178.9460  138.5990 C   0  0  0  0  0  0  0  0  0  0  0  0
  180.2980  177.8940  141.8500 C   0  0  0  0  0  1  0  0  0  0  0  0
  181.8290  180.5970  138.9260 C   0  0  0  0  0  2  0  0  0  0  0  0
  181.3300  178.3060  137.8590 C   0  0  1  0  0  3  0  0  0  0  0  0
  180.1440  183.1840  137.2950 C   0  0  0  0  0  0  0  0  0  0  0  0
  179.4560  185.0010  135.8830 C   0  0  0  0  0  3  0  0  0  0  0  0
  179.4430  180.4050  138.6640 O   0  0  0  0  0  1  0  0  0  0  0  0
  180.4680  178.1150  140.4300 N   0  0  0  0  0  0  0  0  0  0  0  0
  180.7150  178.6040  135.7040 C   0  0  0  0  0  2  0  0  0  0  0  0
  181.8210  178.3830  136.5500 O   0  0  0  0  0  0  0  0  0  0  0  0
  179.9330  176.2550  138.0790 C   0  0  0  0  0  1  0  0  0  0  0  0
  180.7210  181.0120  136.6460 C   0  0  1  0  0  3  0  0  0  0  0  0
  180.0000  182.8300  134.9170 C   0  0  0  0  0  3  0  0  0  0  0  0
  180.4040  182.5160  138.5090 N   0  0  0  0  0  2  0  0  0  0  0  0
  181.3870  177.0660  139.9400 C   0  0  1  0  0  3  0  0  0  0  0  0
  179.7420  184.5130  137.1700 C   0  0  0  0  0  3  0  0  0  0  0  0
  180.2570  182.3600  136.2100 C   0  0  0  0  0  0  0  0  0  0  0  0
  181.2610  176.9030  138.4200 C   0  0  2  0  0  3  0  0  0  0  0  0
  180.5740  181.0940  138.2050 C   0  0  2  0  0  0  0  0  0  0  0  0
  179.5850  184.1630  134.7580 C   0  0  0  0  0  3  0  0  0  0  0  0
  181.8960  178.4190  140.2170 C   0  0  1  0  0  3  0  0  0  0  0  0
  179.9020  179.8860  136.0000 C   0  0  0  0  0  2  0  0  0  0  0  0
  182.1760  179.0920  138.8620 C   0  0  1  0  0  0  0  0  0  0  0  0
  186.6830  177.8020  138.3350 C   0  0  0  0  0  2  0  0  0  0  0  0
  187.9590  177.1370  137.8100 C   0  0  1  0  0  3  0  0  0  0  0  0
  189.0040  179.4580  137.8240 O   0  0  0  0  0  1  0  0  0  0  0  0
  190.1130  177.6990  136.7760 O   0  0  0  0  0  0  0  0  0  0  0  0
  189.2100  178.1440  135.7830 C   0  0  0  0  0  2  0  0  0  0  0  0
  188.8800  178.2050  137.2170 C   0  0  1  0  0  0  0  0  0  0  0  0
  188.6300  176.3370  138.9280 C   0  0  0  0  0  2  0  0  0  0  0  0
  189.4180  177.1760  139.9390 C   0  0  1  0  0  3  0  0  0  0  0  0
  188.6060  177.6090  141.1360 C   0  0  0  0  0  3  0  0  0  0  0  0
  188.0880  178.8360  141.2120 C   0  0  0  0  0  2  0  0  0  0  0  0
  190.7480  176.5420  140.3310 C   0  0  0  0  0  2  0  0  0  0  0  0
  191.6700  177.6400  140.8500 C   0  0  0  0  0  2  0  0  0  0  0  0
  191.9150  177.5060  142.3140 C   0  0  0  0  0  3  0  0  0  0  0  0
  191.3200  176.5460  143.0250 C   0  0  0  0  0  3  0  0  0  0  0  0
  191.4950  176.4790  144.5110 C   0  0  0  0  0  2  0  0  0  0  0  0
  188.0180  178.0080  146.4970 N   0  0  0  0  0  0  0  0  0  0  0  0
  190.2260  177.1000  146.6560 C   0  0  0  0  0  3  0  0  0  0  0  0
  190.2410  176.9210  145.1900 C   0  0  0  0  0  0  0  0  0  0  0  0
  189.1690  177.7530  148.6280 F   0  0  0  0  0  0  0  0  0  0  0  0
  189.1610  177.2460  144.4610 C   0  0  0  0  0  3  0  0  0  0  0  0
  188.0010  177.7730  145.1140 N   0  0  0  0  0  2  0  0  0  0  0  0
  189.1660  177.6180  147.2720 C   0  0  0  0  0  0  0  0  0  0  0  0
  186.8920  178.6740  147.1360 C   0  0  0  0  0  2  0  0  0  0  0  0
  184.8020  177.3120  146.4400 C   0  0  0  0  0  2  0  0  0  0  0  0
  184.5060  178.4980  147.1480 O   0  0  0  0  0  0  0  0  0  0  0  0
  185.6280  178.5320  146.3030 C   0  0  1  0  0  0  0  0  0  0  0  0
  185.3710  179.4740  145.1350 C   0  0  0  0  0  2  0  0  0  0  0  0
  185.2530  178.7270  143.8130 C   0  0  0  0  0  2  0  0  0  0  0  0
  183.8720  178.8790  143.2570 C   0  0  0  0  0  3  0  0  0  0  0  0
  182.9150  179.3110  143.9970 N   0  0  0  0  0  2  0  0  0  0  0  0
  1  8  1  0  0  0  0
  1 32  1  1  0  0  0
  2  4  1  0  0  0  0
  3  2  2  0  0  0  0
  3  6  1  0  0  0  0
  4  5  1  0  0  0  0
  4  1  1  1  0  0  0
  6  5  2  0  0  0  0
  8  9  1  0  0  0  0
  9  7  2  0  0  0  0
 12 18  1  6  0  0  0
 12 26  1  0  0  0  0
 12 31  1  0  0  0  0
 13 22  1  0  0  0  0
 14 24  2  0  0  0  0
 16 10  1  0  0  0  0
 17 30  1  0  0  0  0
 17 18  1  0  0  0  0
 20 30  1  6  0  0  0
 20 27  1  0  0  0  0
 21 25  1  0  0  0  0
 23 29  1  0  0  0  0
 23 16  1  1  0  0  0
 24 13  1  0  0  0  0
 25 20  1  0  0  0  0
 25 13  2  0  0  0  0
 26 19  1  1  0  0  0
 26 23  1  0  0  0  0
 27 22  1  0  0  0  0
 27 15  1  1  0  0  0
 27 11  1  0  0  0  0
 28 21  2  0  0  0  0
 28 14  1  0  0  0  0
 29 16  1  6  0  0  0
 31  9  1  6  0  0  0
 31 11  1  0  0  0  0
 31 29  1  0  0  0  0
 33 32  1  1  0  0  0
 33 38  1  0  0  0  0
 35 37  1  0  0  0  0
 36 35  1  0  0  0  0
 36 37  1  0  0  0  0
 37 33  1  0  0  0  0
 37 34  1  1  0  0  0
 39 38  1  1  0  0  0
 39 42  1  0  0  0  0
 39 40  1  0  0  0  0
 40 41  2  0  0  0  0
 42 43  1  0  0  0  0
 43 44  1  0  0  0  0
 44 45  2  0  0  0  0
 45 46  1  0  0  0  0
 46 49  1  0  0  0  0
 47 54  1  0  0  0  0
 47 53  1  0  0  0  0
 48 53  2  0  0  0  0
 49 48  1  0  0  0  0
 51 52  1  0  0  0  0
 51 49  2  0  0  0  0
 52 47  1  0  0  0  0
 53 50  1  0  0  0  0
 55 56  1  0  0  0  0
 57 58  1  6  0  0  0
 57 55  1  0  0  0  0
 57 54  1  0  0  0  0
 57 56  1  0  0  0  0
 59 58  1  0  0  0  0
 60 59  1  0  0  0  0
 60 61  2  0  0  0  0
M  END
>  <MODEL>
1

>  <REMARK>
 VINA RESULT:      -7.7      0.000      0.000
  Name = 
  19 active torsions:
  status: ('A' for Active; 'I' for Inactive)
    1  A    between atoms: C_1  and  C_34
    2  A    between atoms: C_1  and  C_40
    3  A    between atoms: N_3  and  C_58
    4  A    between atoms: C_6  and  C_23
    5  A    between atoms: C_6  and  C_43
    6  A    between atoms: C_13  and  C_22
    7  A    between atoms: C_13  and  C_50
    8  A    between atoms: C_19  and  C_48
    9  A    between atoms: C_21  and  C_56
   10  A    between atoms: C_21  and  C_57
   11  A    between atoms: C_22  and  C_29
   12  A    between atoms: C_25  and  C_57
   13  A    between atoms: C_29  and  C_58
   14  A    between atoms: C_31  and  C_48
   15  A    between atoms: C_31  and  C_56
   16  A    between atoms: N_38  and  C_48
   17  A    between atoms: C_40  and  C_57
   18  A    between atoms: C_45  and  C_61
   19  A    between atoms: C_54  and  C_56
                            x       y       z     vdW  Elec       q    Type
                         _______ _______ _______ _____ _____    ______ ____

>  <TORSDO>
F 19

$$$$
=
 OpenBabel11062416363D

 61 69  0  0  1  0  0  0  0  0999 V2000
  184.1540  177.1910  136.1200 C   0  0  1  0  0  3  0  0  0  0  0  0
  182.1790  176.0540  135.0600 C   0  0  0  0  0  3  0  0  0  0  0  0
  181.9810  174.7460  135.0110 C   0  0  0  0  0  3  0  0  0  0  0  0
  183.6390  176.3500  134.9370 C   0  0  2  0  0  3  0  0  0  0  0  0
  184.2290  174.9790  134.8570 C   0  0  0  0  0  3  0  0  0  0  0  0
  183.2640  174.0730  134.8840 C   0  0  0  0  0  3  0  0  0  0  0  0
  183.3880  176.5680  138.8930 O   0  0  0  0  0  0  0  0  0  0  0  0
  183.0800  177.7900  136.9240 N   0  0  0  0  0  2  0  0  0  0  0  0
  182.8650  177.5680  138.3230 C   0  0  0  0  0  0  0  0  0  0  0  0
  182.1440  178.9790  142.8530 C   0  0  0  0  0  1  0  0  0  0  0  0
  182.4590  179.9950  138.7210 C   0  0  0  0  0  2  0  0  0  0  0  0
  180.5600  178.2930  139.0870 C   0  0  1  0  0  3  0  0  0  0  0  0
  181.3250  182.8840  137.1230 C   0  0  0  0  0  0  0  0  0  0  0  0
  180.7030  184.6030  135.5640 C   0  0  0  0  0  3  0  0  0  0  0  0
  180.5910  181.1660  139.6900 O   0  0  0  0  0  1  0  0  0  0  0  0
  181.4750  178.9080  141.5710 N   0  0  0  0  0  0  0  0  0  0  0  0
  178.9320  178.6510  137.5570 C   0  0  0  0  0  2  0  0  0  0  0  0
  180.1210  177.9350  137.8050 O   0  0  0  0  0  0  0  0  0  0  0  0
  178.9310  177.4380  140.7670 C   0  0  0  0  0  1  0  0  0  0  0  0
  180.4650  180.7140  137.2710 C   0  0  1  0  0  3  0  0  0  0  0  0
  179.6260  182.4180  135.4800 C   0  0  0  0  0  3  0  0  0  0  0  0
  181.9850  182.3240  138.2350 N   0  0  0  0  0  2  0  0  0  0  0  0
  181.3880  177.4770  141.2110 C   0  0  1  0  0  3  0  0  0  0  0  0
  181.4970  184.1830  136.6460 C   0  0  0  0  0  3  0  0  0  0  0  0
  180.4100  182.0300  136.5720 C   0  0  0  0  0  0  0  0  0  0  0  0
  180.3040  177.2500  140.1510 C   0  0  2  0  0  3  0  0  0  0  0  0
  181.3540  181.0340  138.5220 C   0  0  2  0  0  0  0  0  0  0  0  0
  179.7700  183.7240  134.9810 C   0  0  0  0  0  3  0  0  0  0  0  0
  182.4400  178.3210  140.6220 C   0  0  1  0  0  3  0  0  0  0  0  0
  179.0640  180.1910  137.6180 C   0  0  0  0  0  2  0  0  0  0  0  0
  182.0640  178.5630  139.1490 C   0  0  1  0  0  0  0  0  0  0  0  0
  185.1670  176.4310  136.9800 C   0  0  0  0  0  2  0  0  0  0  0  0
  186.6020  176.9040  136.7260 C   0  0  1  0  0  3  0  0  0  0  0  0
  186.1340  178.6530  138.5170 O   0  0  0  0  0  1  0  0  0  0  0  0
  188.1240  178.7400  137.3090 O   0  0  0  0  0  0  0  0  0  0  0  0
  187.2070  179.4050  136.4620 C   0  0  0  0  0  2  0  0  0  0  0  0
  186.7930  178.2940  137.3370 C   0  0  1  0  0  0  0  0  0  0  0  0
  187.5960  175.8790  137.2760 C   0  0  0  0  0  2  0  0  0  0  0  0
  188.3680  175.0940  136.2100 C   0  0  1  0  0  3  0  0  0  0  0  0
  187.7130  173.7910  135.8180 C   0  0  0  0  0  3  0  0  0  0  0  0
  187.1800  172.9830  136.7360 C   0  0  0  0  0  2  0  0  0  0  0  0
  188.7500  175.9440  135.0040 C   0  0  0  0  0  2  0  0  0  0  0  0
  190.0960  176.6020  135.2840 C   0  0  0  0  0  2  0  0  0  0  0  0
  190.7060  176.0910  136.5440 C   0  0  0  0  0  3  0  0  0  0  0  0
  190.9820  176.9140  137.5580 C   0  0  0  0  0  3  0  0  0  0  0  0
  191.6840  176.4090  138.7810 C   0  0  0  0  0  2  0  0  0  0  0  0
  189.8870  178.0220  142.3220 N   0  0  0  0  0  0  0  0  0  0  0  0
  189.7100  177.5220  139.9890 C   0  0  0  0  0  3  0  0  0  0  0  0
  191.1110  177.0550  139.9980 C   0  0  0  0  0  0  0  0  0  0  0  0
  187.8450  178.4270  141.0580 F   0  0  0  0  0  0  0  0  0  0  0  0
  191.8360  177.1240  141.1270 C   0  0  0  0  0  3  0  0  0  0  0  0
  191.2390  177.6460  142.3190 N   0  0  0  0  0  2  0  0  0  0  0  0
  189.1330  177.9820  141.0970 C   0  0  0  0  0  0  0  0  0  0  0  0
  189.2460  178.4190  143.5670 C   0  0  0  0  0  2  0  0  0  0  0  0
  187.2020  176.8270  143.5230 C   0  0  0  0  0  2  0  0  0  0  0  0
  188.4350  176.1870  143.2700 O   0  0  0  0  0  0  0  0  0  0  0  0
  188.4590  177.2650  144.1700 C   0  0  1  0  0  0  0  0  0  0  0  0
  188.7850  176.7660  145.5710 C   0  0  0  0  0  2  0  0  0  0  0  0
  189.8010  177.6580  146.2730 C   0  0  0  0  0  2  0  0  0  0  0  0
  190.6000  176.8560  147.2520 C   0  0  0  0  0  3  0  0  0  0  0  0
  191.8850  176.8760  147.2160 N   0  0  0  0  0  2  0  0  0  0  0  0
  1  8  1  0  0  0  0
  1 32  1  1  0  0  0
  3  2  2  0  0  0  0
  4  2  1  0  0  0  0
  4  1  1  1  0  0  0
  5  6  2  0  0  0  0
  5  4  1  0  0  0  0
  6  3  1  0  0  0  0
  8  9  1  0  0  0  0
  9  7  2  0  0  0  0
 11 31  1  0  0  0  0
 12 18  1  6  0  0  0
 12 31  1  0  0  0  0
 12 26  1  0  0  0  0
 13 22  1  0  0  0  0
 14 24  2  0  0  0  0
 16 10  1  0  0  0  0
 17 30  1  0  0  0  0
 17 18  1  0  0  0  0
 20 30  1  1  0  0  0
 20 27  1  0  0  0  0
 21 25  1  0  0  0  0
 22 27  1  0  0  0  0
 23 16  1  1  0  0  0
 24 13  1  0  0  0  0
 25 13  2  0  0  0  0
 25 20  1  0  0  0  0
 26 19  1  1  0  0  0
 26 23  1  0  0  0  0
 27 11  1  0  0  0  0
 27 15  1  1  0  0  0
 28 21  2  0  0  0  0
 28 14  1  0  0  0  0
 29 23  1  0  0  0  0
 29 16  1  1  0  0  0
 31  9  1  6  0  0  0
 31 29  1  0  0  0  0
 33 32  1  1  0  0  0
 33 38  1  0  0  0  0
 33 37  1  0  0  0  0
 35 37  1  0  0  0  0
 36 35  1  0  0  0  0
 36 37  1  0  0  0  0
 37 34  1  1  0  0  0
 39 42  1  6  0  0  0
 39 38  1  0  0  0  0
 40 39  1  0  0  0  0
 40 41  2  0  0  0  0
 42 43  1  0  0  0  0
 43 44  1  0  0  0  0
 44 45  2  0  0  0  0
 45 46  1  0  0  0  0
 46 49  1  0  0  0  0
 47 54  1  0  0  0  0
 48 49  1  0  0  0  0
 48 53  2  0  0  0  0
 49 51  2  0  0  0  0
 50 53  1  0  0  0  0
 51 52  1  0  0  0  0
 52 47  1  0  0  0  0
 53 47  1  0  0  0  0
 55 57  1  0  0  0  0
 56 55  1  0  0  0  0
 56 57  1  0  0  0  0
 57 54  1  6  0  0  0
 57 58  1  0  0  0  0
 58 59  1  0  0  0  0
 59 60  1  0  0  0  0
 61 60  2  0  0  0  0
M  END
>  <MODEL>
2

>  <REMARK>
 VINA RESULT:      -7.5      2.218      3.948
  Name = 
  19 active torsions:
  status: ('A' for Active; 'I' for Inactive)
    1  A    between atoms: C_1  and  C_34
    2  A    between atoms: C_1  and  C_40
    3  A    between atoms: N_3  and  C_58
    4  A    between atoms: C_6  and  C_23
    5  A    between atoms: C_6  and  C_43
    6  A    between atoms: C_13  and  C_22
    7  A    between atoms: C_13  and  C_50
    8  A    between atoms: C_19  and  C_48
    9  A    between atoms: C_21  and  C_56
   10  A    between atoms: C_21  and  C_57
   11  A    between atoms: C_22  and  C_29
   12  A    between atoms: C_25  and  C_57
   13  A    between atoms: C_29  and  C_58
   14  A    between atoms: C_31  and  C_48
   15  A    between atoms: C_31  and  C_56
   16  A    between atoms: N_38  and  C_48
   17  A    between atoms: C_40  and  C_57
   18  A    between atoms: C_45  and  C_61
   19  A    between atoms: C_54  and  C_56
                            x       y       z     vdW  Elec       q    Type
                         _______ _______ _______ _____ _____    ______ ____

>  <TORSDO>
F 19

$$$$
=
 OpenBabel11062416363D

 61 69  0  0  1  0  0  0  0  0999 V2000
  185.3810  175.1890  136.1380 C   0  0  1  0  0  3  0  0  0  0  0  0
  186.1890  173.0490  137.1780 C   0  0  0  0  0  3  0  0  0  0  0  0
  187.3710  172.4920  136.9680 C   0  0  0  0  0  3  0  0  0  0  0  0
  185.7060  173.7000  135.9220 C   0  0  2  0  0  3  0  0  0  0  0  0
  186.8440  173.4510  134.9850 C   0  0  0  0  0  3  0  0  0  0  0  0
  187.7820  172.7440  135.5960 C   0  0  0  0  0  3  0  0  0  0  0  0
  183.4550  174.9250  138.3480 O   0  0  0  0  0  0  0  0  0  0  0  0
  183.9410  175.4810  136.1300 N   0  0  0  0  0  2  0  0  0  0  0  0
  183.0890  175.4970  137.2820 C   0  0  0  0  0  0  0  0  0  0  0  0
  178.9320  175.7390  134.8960 C   0  0  0  0  0  1  0  0  0  0  0  0
  181.0360  176.0150  138.5980 C   0  0  0  0  0  2  0  0  0  0  0  0
  181.9540  177.7320  136.9100 C   0  0  1  0  0  3  0  0  0  0  0  0
  179.9890  177.5370  141.5600 C   0  0  0  0  0  0  0  0  0  0  0  0
  179.7840  178.4650  143.7660 C   0  0  0  0  0  3  0  0  0  0  0  0
  179.4520  177.8220  138.4430 O   0  0  0  0  0  1  0  0  0  0  0  0
  179.8380  176.5570  135.6740 N   0  0  0  0  0  0  0  0  0  0  0  0
  182.6830  179.5590  138.0270 C   0  0  0  0  0  2  0  0  0  0  0  0
  183.0770  178.3020  137.5240 O   0  0  0  0  0  0  0  0  0  0  0  0
  181.3650  179.0740  134.8960 C   0  0  0  0  0  1  0  0  0  0  0  0
  181.4340  178.2200  139.8530 C   0  0  1  0  0  3  0  0  0  0  0  0
  181.3920  179.3920  142.1850 C   0  0  0  0  0  3  0  0  0  0  0  0
  179.6580  176.7050  140.4710 N   0  0  0  0  0  2  0  0  0  0  0  0
  181.1220  176.5890  134.9430 C   0  0  1  0  0  3  0  0  0  0  0  0
  179.3770  177.5150  142.8130 C   0  0  0  0  0  3  0  0  0  0  0  0
  180.9540  178.4520  141.2450 C   0  0  0  0  0  0  0  0  0  0  0  0
  181.9740  177.7800  135.3990 C   0  0  2  0  0  3  0  0  0  0  0  0
  180.3760  177.2050  139.2970 C   0  0  2  0  0  0  0  0  0  0  0  0
  180.7890  179.4010  143.4540 C   0  0  0  0  0  3  0  0  0  0  0  0
  180.9500  175.6800  136.0880 C   0  0  1  0  0  3  0  0  0  0  0  0
  181.5260  179.5270  139.0530 C   0  0  0  0  0  2  0  0  0  0  0  0
  181.7700  176.2540  137.2570 C   0  0  1  0  0  0  0  0  0  0  0  0
  186.0840  175.7690  137.3690 C   0  0  0  0  0  2  0  0  0  0  0  0
  187.4340  176.3980  137.0130 C   0  0  1  0  0  3  0  0  0  0  0  0
  186.5230  178.7670  137.2130 O   0  0  0  0  0  1  0  0  0  0  0  0
  188.3280  178.3400  135.8050 O   0  0  0  0  0  0  0  0  0  0  0  0
  187.2110  178.0100  135.0020 C   0  0  0  0  0  2  0  0  0  0  0  0
  187.2070  177.8070  136.4610 C   0  0  1  0  0  0  0  0  0  0  0  0
  188.3550  176.3870  138.2350 C   0  0  0  0  0  2  0  0  0  0  0  0
  189.8240  176.0740  137.9320 C   0  0  1  0  0  3  0  0  0  0  0  0
  190.0440  175.4150  136.5920 C   0  0  0  0  0  3  0  0  0  0  0  0
  190.8400  174.3510  136.4680 C   0  0  0  0  0  2  0  0  0  0  0  0
  190.7460  177.2670  138.1570 C   0  0  0  0  0  2  0  0  0  0  0  0
  192.0810  176.7520  138.6830 C   0  0  0  0  0  2  0  0  0  0  0  0
  192.2090  176.9590  140.1530 C   0  0  0  0  0  3  0  0  0  0  0  0
  191.2660  177.6050  140.8420 C   0  0  0  0  0  3  0  0  0  0  0  0
  191.4480  177.8930  142.3000 C   0  0  0  0  0  2  0  0  0  0  0  0
  187.8050  177.1000  144.4150 N   0  0  0  0  0  0  0  0  0  0  0  0
  190.0210  178.0020  144.4330 C   0  0  0  0  0  3  0  0  0  0  0  0
  190.2110  177.5220  143.0490 C   0  0  0  0  0  0  0  0  0  0  0  0
  188.7320  178.2320  146.3620 F   0  0  0  0  0  0  0  0  0  0  0  0
  189.2340  176.8360  142.4350 C   0  0  0  0  0  3  0  0  0  0  0  0
  188.0070  176.5800  143.1270 N   0  0  0  0  0  2  0  0  0  0  0  0
  188.8750  177.7980  145.0780 C   0  0  0  0  0  0  0  0  0  0  0  0
  186.5080  176.9600  145.0610 C   0  0  0  0  0  2  0  0  0  0  0  0
  184.8190  178.4990  146.2800 C   0  0  0  0  0  2  0  0  0  0  0  0
  186.1680  178.8860  146.4390 O   0  0  0  0  0  0  0  0  0  0  0  0
  185.8210  178.3080  145.2070 C   0  0  1  0  0  0  0  0  0  0  0  0
  185.9260  179.3460  144.0980 C   0  0  0  0  0  2  0  0  0  0  0  0
  185.1220  178.9500  142.8660 C   0  0  0  0  0  2  0  0  0  0  0  0
  186.0090  178.9130  141.6620 C   0  0  0  0  0  3  0  0  0  0  0  0
  185.5160  179.0610  140.4840 N   0  0  0  0  0  2  0  0  0  0  0  0
  1 32  1  1  0  0  0
  3  2  2  0  0  0  0
  4  1  1  1  0  0  0
  4  2  1  0  0  0  0
  5  6  2  0  0  0  0
  5  4  1  0  0  0  0
  6  3  1  0  0  0  0
  8  1  1  0  0  0  0
  8  9  1  0  0  0  0
  9  7  2  0  0  0  0
 10 16  1  0  0  0  0
 11 27  1  0  0  0  0
 12 31  1  0  0  0  0
 12 18  1  1  0  0  0
 13 24  1  0  0  0  0
 17 30  1  0  0  0  0
 18 17  1  0  0  0  0
 20 30  1  6  0  0  0
 20 25  1  0  0  0  0
 21 28  2  0  0  0  0
 22 13  1  0  0  0  0
 23 26  1  0  0  0  0
 23 16  1  1  0  0  0
 23 29  1  0  0  0  0
 24 14  2  0  0  0  0
 25 13  2  0  0  0  0
 25 21  1  0  0  0  0
 26 19  1  1  0  0  0
 26 12  1  0  0  0  0
 27 15  1  6  0  0  0
 27 20  1  0  0  0  0
 27 22  1  0  0  0  0
 28 14  1  0  0  0  0
 29 16  1  1  0  0  0
 29 31  1  0  0  0  0
 31  9  1  1  0  0  0
 31 11  1  0  0  0  0
 33 32  1  1  0  0  0
 33 38  1  0  0  0  0
 35 37  1  0  0  0  0
 36 35  1  0  0  0  0
 36 37  1  0  0  0  0
 37 33  1  0  0  0  0
 37 34  1  1  0  0  0
 39 40  1  6  0  0  0
 39 42  1  0  0  0  0
 39 38  1  0  0  0  0
 41 40  2  0  0  0  0
 42 43  1  0  0  0  0
 43 44  1  0  0  0  0
 44 45  2  0  0  0  0
 45 46  1  0  0  0  0
 46 49  1  0  0  0  0
 47 54  1  0  0  0  0
 47 53  1  0  0  0  0
 48 53  2  0  0  0  0
 49 48  1  0  0  0  0
 51 49  2  0  0  0  0
 51 52  1  0  0  0  0
 52 47  1  0  0  0  0
 53 50  1  0  0  0  0
 54 57  1  0  0  0  0
 55 56  1  0  0  0  0
 57 58  1  6  0  0  0
 57 55  1  0  0  0  0
 57 56  1  0  0  0  0
 59 58  1  0  0  0  0
 60 59  1  0  0  0  0
 61 60  2  0  0  0  0
M  END
>  <MODEL>
3

>  <REMARK>
 VINA RESULT:      -7.1      2.413      4.236
  Name = 
  19 active torsions:
  status: ('A' for Active; 'I' for Inactive)
    1  A    between atoms: C_1  and  C_34
    2  A    between atoms: C_1  and  C_40
    3  A    between atoms: N_3  and  C_58
    4  A    between atoms: C_6  and  C_23
    5  A    between atoms: C_6  and  C_43
    6  A    between atoms: C_13  and  C_22
    7  A    between atoms: C_13  and  C_50
    8  A    between atoms: C_19  and  C_48
    9  A    between atoms: C_21  and  C_56
   10  A    between atoms: C_21  and  C_57
   11  A    between atoms: C_22  and  C_29
   12  A    between atoms: C_25  and  C_57
   13  A    between atoms: C_29  and  C_58
   14  A    between atoms: C_31  and  C_48
   15  A    between atoms: C_31  and  C_56
   16  A    between atoms: N_38  and  C_48
   17  A    between atoms: C_40  and  C_57
   18  A    between atoms: C_45  and  C_61
   19  A    between atoms: C_54  and  C_56
                            x       y       z     vdW  Elec       q    Type
                         _______ _______ _______ _____ _____    ______ ____

>  <TORSDO>
F 19

$$$$
=
 OpenBabel11062416363D

 61 69  0  0  1  0  0  0  0  0999 V2000
  188.0870  176.8820  135.7930 C   0  0  1  0  0  3  0  0  0  0  0  0
  188.0730  174.5490  134.8600 C   0  0  0  0  0  3  0  0  0  0  0  0
  189.0970  173.7100  134.8740 C   0  0  0  0  0  3  0  0  0  0  0  0
  188.5670  175.9470  134.6690 C   0  0  2  0  0  3  0  0  0  0  0  0
  190.0480  175.7510  134.6250 C   0  0  0  0  0  3  0  0  0  0  0  0
  190.3330  174.4620  134.7280 C   0  0  0  0  0  3  0  0  0  0  0  0
  185.6690  178.2590  136.7550 O   0  0  0  0  0  0  0  0  0  0  0  0
  186.9770  176.3280  136.5810 N   0  0  0  0  0  2  0  0  0  0  0  0
  185.7460  177.0030  136.8730 C   0  0  0  0  0  0  0  0  0  0  0  0
  184.2120  172.5110  137.5790 C   0  0  0  0  0  1  0  0  0  0  0  0
  184.0820  176.6280  138.6910 C   0  0  0  0  0  2  0  0  0  0  0  0
  183.3870  176.3390  136.2280 C   0  0  1  0  0  3  0  0  0  0  0  0
  181.6310  178.2790  140.5490 C   0  0  0  0  0  0  0  0  0  0  0  0
  180.2390  179.8670  141.6950 C   0  0  0  0  0  3  0  0  0  0  0  0
  181.8440  175.7410  138.6520 O   0  0  0  0  0  1  0  0  0  0  0  0
  183.7350  173.8190  137.1860 N   0  0  0  0  0  0  0  0  0  0  0  0
  181.8810  177.9370  135.6860 C   0  0  0  0  0  2  0  0  0  0  0  0
  183.2590  177.6370  135.7170 O   0  0  0  0  0  0  0  0  0  0  0  0
  182.4150  174.7280  134.5960 C   0  0  0  0  0  1  0  0  0  0  0  0
  182.0710  178.1630  138.2550 C   0  0  1  0  0  3  0  0  0  0  0  0
  180.5130  179.9910  139.2760 C   0  0  0  0  0  3  0  0  0  0  0  0
  182.4480  177.1390  140.4090 N   0  0  0  0  0  2  0  0  0  0  0  0
  184.4460  174.1790  135.9410 C   0  0  1  0  0  3  0  0  0  0  0  0
  181.0940  178.7520  141.7450 C   0  0  0  0  0  3  0  0  0  0  0  0
  181.3420  178.8670  139.3480 C   0  0  0  0  0  0  0  0  0  0  0  0
  183.6950  175.2840  135.1880 C   0  0  2  0  0  3  0  0  0  0  0  0
  182.6010  176.8750  138.9770 C   0  0  2  0  0  0  0  0  0  0  0  0
  179.9500  180.4870  140.4640 C   0  0  0  0  0  3  0  0  0  0  0  0
  184.8980  174.7250  137.2310 C   0  0  1  0  0  3  0  0  0  0  0  0
  181.1600  177.8740  137.0520 C   0  0  0  0  0  2  0  0  0  0  0  0
  184.5060  176.2130  137.2630 C   0  0  1  0  0  0  0  0  0  0  0  0
  189.2370  177.3720  136.6780 C   0  0  0  0  0  2  0  0  0  0  0  0
  189.0070  177.0340  138.1540 C   0  0  1  0  0  3  0  0  0  0  0  0
  190.3770  176.1230  140.0970 O   0  0  0  0  0  1  0  0  0  0  0  0
  190.7650  175.3340  137.9410 O   0  0  0  0  0  0  0  0  0  0  0  0
  191.5360  176.5180  137.9910 C   0  0  0  0  0  2  0  0  0  0  0  0
  190.2680  176.3840  138.7280 C   0  0  1  0  0  0  0  0  0  0  0  0
  188.5940  178.2930  138.9210 C   0  0  0  0  0  2  0  0  0  0  0  0
  187.9090  178.0330  140.2660 C   0  0  1  0  0  3  0  0  0  0  0  0
  188.4400  178.8820  141.3960 C   0  0  0  0  0  3  0  0  0  0  0  0
  188.9920  178.3270  142.4760 C   0  0  0  0  0  2  0  0  0  0  0  0
  186.3880  178.0630  140.1760 C   0  0  0  0  0  2  0  0  0  0  0  0
  185.8810  179.2580  140.9740 C   0  0  0  0  0  2  0  0  0  0  0  0
  185.5020  178.8700  142.3630 C   0  0  0  0  0  3  0  0  0  0  0  0
  184.4150  179.3800  142.9460 C   0  0  0  0  0  3  0  0  0  0  0  0
  184.0960  179.0610  144.3750 C   0  0  0  0  0  2  0  0  0  0  0  0
  187.4390  177.4800  146.5420 N   0  0  0  0  0  0  0  0  0  0  0  0
  185.6410  179.0550  146.4260 C   0  0  0  0  0  3  0  0  0  0  0  0
  185.3200  178.5660  145.0700 C   0  0  0  0  0  0  0  0  0  0  0  0
  186.9390  179.0190  148.3630 F   0  0  0  0  0  0  0  0  0  0  0  0
  186.0740  177.6080  144.5050 C   0  0  0  0  0  3  0  0  0  0  0  0
  187.1820  177.0630  145.2270 N   0  0  0  0  0  2  0  0  0  0  0  0
  186.6500  178.5350  147.1220 C   0  0  0  0  0  0  0  0  0  0  0  0
  188.4770  176.8250  147.3240 C   0  0  0  0  0  2  0  0  0  0  0  0
  190.0020  178.5820  148.4630 C   0  0  0  0  0  2  0  0  0  0  0  0
  190.5440  177.2780  148.4410 O   0  0  0  0  0  0  0  0  0  0  0  0
  189.7540  177.6500  147.3400 C   0  0  1  0  0  0  0  0  0  0  0  0
  190.6170  177.7480  146.0900 C   0  0  0  0  0  2  0  0  0  0  0  0
  191.1770  176.3950  145.6740 C   0  0  0  0  0  2  0  0  0  0  0  0
  191.5860  176.4260  144.2350 C   0  0  0  0  0  3  0  0  0  0  0  0
  191.8430  175.3350  143.6060 N   0  0  0  0  0  2  0  0  0  0  0  0
  1  8  1  0  0  0  0
  1 32  1  1  0  0  0
  2  3  2  0  0  0  0
  4  2  1  0  0  0  0
  4  1  1  1  0  0  0
  5  4  1  0  0  0  0
  5  6  2  0  0  0  0
  6  3  1  0  0  0  0
  7  9  2  0  0  0  0
  8  9  1  0  0  0  0
 11 27  1  0  0  0  0
 12 18  1  6  0  0  0
 12 31  1  0  0  0  0
 13 24  1  0  0  0  0
 14 24  2  0  0  0  0
 16 10  1  0  0  0  0
 17 18  1  0  0  0  0
 17 30  1  0  0  0  0
 20 30  1  6  0  0  0
 20 27  1  0  0  0  0
 20 25  1  0  0  0  0
 21 25  1  0  0  0  0
 21 28  2  0  0  0  0
 22 13  1  0  0  0  0
 23 16  1  1  0  0  0
 23 29  1  0  0  0  0
 25 13  2  0  0  0  0
 26 19  1  1  0  0  0
 26 23  1  0  0  0  0
 26 12  1  0  0  0  0
 27 15  1  6  0  0  0
 27 22  1  0  0  0  0
 28 14  1  0  0  0  0
 29 16  1  1  0  0  0
 29 31  1  0  0  0  0
 31  9  1  6  0  0  0
 31 11  1  0  0  0  0
 33 32  1  6  0  0  0
 33 37  1  0  0  0  0
 33 38  1  0  0  0  0
 35 36  1  0  0  0  0
 35 37  1  0  0  0  0
 36 37  1  0  0  0  0
 37 34  1  1  0  0  0
 39 38  1  6  0  0  0
 39 40  1  0  0  0  0
 40 41  2  0  0  0  0
 42 39  1  0  0  0  0
 42 43  1  0  0  0  0
 43 44  1  0  0  0  0
 44 45  2  0  0  0  0
 45 46  1  0  0  0  0
 46 49  1  0  0  0  0
 47 53  1  0  0  0  0
 47 54  1  0  0  0  0
 48 53  2  0  0  0  0
 49 48  1  0  0  0  0
 51 49  2  0  0  0  0
 51 52  1  0  0  0  0
 52 47  1  0  0  0  0
 53 50  1  0  0  0  0
 54 57  1  0  0  0  0
 56 55  1  0  0  0  0
 57 58  1  6  0  0  0
 57 56  1  0  0  0  0
 57 55  1  0  0  0  0
 59 58  1  0  0  0  0
 60 59  1  0  0  0  0
 61 60  2  0  0  0  0
M  END
>  <MODEL>
4

>  <REMARK>
 VINA RESULT:      -6.4      2.633      4.934
  Name = 
  19 active torsions:
  status: ('A' for Active; 'I' for Inactive)
    1  A    between atoms: C_1  and  C_34
    2  A    between atoms: C_1  and  C_40
    3  A    between atoms: N_3  and  C_58
    4  A    between atoms: C_6  and  C_23
    5  A    between atoms: C_6  and  C_43
    6  A    between atoms: C_13  and  C_22
    7  A    between atoms: C_13  and  C_50
    8  A    between atoms: C_19  and  C_48
    9  A    between atoms: C_21  and  C_56
   10  A    between atoms: C_21  and  C_57
   11  A    between atoms: C_22  and  C_29
   12  A    between atoms: C_25  and  C_57
   13  A    between atoms: C_29  and  C_58
   14  A    between atoms: C_31  and  C_48
   15  A    between atoms: C_31  and  C_56
   16  A    between atoms: N_38  and  C_48
   17  A    between atoms: C_40  and  C_57
   18  A    between atoms: C_45  and  C_61
   19  A    between atoms: C_54  and  C_56
                            x       y       z     vdW  Elec       q    Type
                         _______ _______ _______ _____ _____    ______ ____

>  <TORSDO>
F 19

$$$$
=
 OpenBabel11062416363D

 61 69  0  0  1  0  0  0  0  0999 V2000
  185.9100  178.4690  138.7600 C   0  0  1  0  0  3  0  0  0  0  0  0
  187.7790  177.1060  137.7790 C   0  0  0  0  0  3  0  0  0  0  0  0
  188.4320  177.3880  136.6630 C   0  0  0  0  0  3  0  0  0  0  0  0
  186.3450  177.5040  137.6420 C   0  0  2  0  0  3  0  0  0  0  0  0
  186.3180  178.1020  136.2720 C   0  0  0  0  0  3  0  0  0  0  0  0
  187.5180  178.0120  135.7190 C   0  0  0  0  0  3  0  0  0  0  0  0
  183.4990  176.8020  138.4870 O   0  0  0  0  0  0  0  0  0  0  0  0
  184.5100  178.9030  138.6460 N   0  0  0  0  0  2  0  0  0  0  0  0
  183.3660  178.0430  138.6880 C   0  0  0  0  0  0  0  0  0  0  0  0
  180.0640  177.9910  142.1710 C   0  0  0  0  0  1  0  0  0  0  0  0
  182.0800  180.1410  139.0860 C   0  0  0  0  0  2  0  0  0  0  0  0
  180.8980  178.0690  138.1140 C   0  0  1  0  0  3  0  0  0  0  0  0
  181.0680  183.0800  137.4970 C   0  0  0  0  0  0  0  0  0  0  0  0
  180.8140  185.0050  136.0830 C   0  0  0  0  0  3  0  0  0  0  0  0
  179.7220  180.6150  138.9790 O   0  0  0  0  0  1  0  0  0  0  0  0
  180.1930  178.1450  140.7380 N   0  0  0  0  0  0  0  0  0  0  0  0
  180.2440  178.5090  135.9940 C   0  0  0  0  0  2  0  0  0  0  0  0
  181.3010  177.9970  136.7740 O   0  0  0  0  0  0  0  0  0  0  0  0
  179.0070  176.4870  138.4740 C   0  0  0  0  0  1  0  0  0  0  0  0
  180.9790  180.8280  136.8700 C   0  0  1  0  0  3  0  0  0  0  0  0
  180.6710  182.7600  135.1420 C   0  0  0  0  0  3  0  0  0  0  0  0
  181.2150  182.3760  138.7090 N   0  0  0  0  0  2  0  0  0  0  0  0
  180.7510  176.8790  140.2180 C   0  0  1  0  0  3  0  0  0  0  0  0
  181.0410  184.4670  137.3620 C   0  0  0  0  0  3  0  0  0  0  0  0
  180.8750  182.2480  136.4280 C   0  0  0  0  0  0  0  0  0  0  0  0
  180.4820  176.7440  138.7150 C   0  0  2  0  0  3  0  0  0  0  0  0
  180.9650  180.9600  138.4330 C   0  0  2  0  0  0  0  0  0  0  0  0
  180.6310  184.1550  134.9750 C   0  0  0  0  0  3  0  0  0  0  0  0
  181.6310  178.0390  140.4280 C   0  0  1  0  0  3  0  0  0  0  0  0
  179.8380  179.9680  136.3060 C   0  0  0  0  0  2  0  0  0  0  0  0
  181.9940  178.5980  139.0400 C   0  0  1  0  0  0  0  0  0  0  0  0
  186.2390  177.9330  140.1560 C   0  0  0  0  0  2  0  0  0  0  0  0
  186.1600  179.0300  141.2220 C   0  0  1  0  0  3  0  0  0  0  0  0
  184.3270  177.5030  142.1080 O   0  0  0  0  0  1  0  0  0  0  0  0
  185.5720  178.7940  143.5940 O   0  0  0  0  0  0  0  0  0  0  0  0
  184.5710  179.6900  143.1520 C   0  0  0  0  0  2  0  0  0  0  0  0
  185.1190  178.6430  142.2740 C   0  0  1  0  0  0  0  0  0  0  0  0
  187.5450  179.2720  141.8280 C   0  0  0  0  0  2  0  0  0  0  0  0
  188.4270  178.0240  141.9390 C   0  0  1  0  0  3  0  0  0  0  0  0
  187.8260  176.9250  142.7810 C   0  0  0  0  0  3  0  0  0  0  0  0
  188.5060  176.3780  143.7910 C   0  0  0  0  0  2  0  0  0  0  0  0
  188.9220  177.5230  140.5870 C   0  0  0  0  0  2  0  0  0  0  0  0
  190.3140  176.9300  140.7730 C   0  0  0  0  0  2  0  0  0  0  0  0
  191.1680  177.1430  139.5700 C   0  0  0  0  0  3  0  0  0  0  0  0
  191.3560  176.1680  138.6790 C   0  0  0  0  0  3  0  0  0  0  0  0
  192.2930  176.3590  137.5250 C   0  0  0  0  0  2  0  0  0  0  0  0
  194.7470  172.8470  137.4020 N   0  0  0  0  0  0  0  0  0  0  0  0
  194.3070  174.9980  138.3530 C   0  0  0  0  0  3  0  0  0  0  0  0
  193.1930  175.1750  137.4010 C   0  0  0  0  0  0  0  0  0  0  0  0
  196.0800  173.7590  139.2240 F   0  0  0  0  0  0  0  0  0  0  0  0
  192.9320  174.2250  136.4870 C   0  0  0  0  0  3  0  0  0  0  0  0
  193.7350  173.0420  136.4480 N   0  0  0  0  0  2  0  0  0  0  0  0
  195.0440  173.8890  138.3490 C   0  0  0  0  0  0  0  0  0  0  0  0
  195.4680  171.5840  137.4490 C   0  0  0  0  0  2  0  0  0  0  0  0
  197.1280  170.2470  135.9770 C   0  0  0  0  0  2  0  0  0  0  0  0
  196.1320  170.9300  135.2450 O   0  0  0  0  0  0  0  0  0  0  0  0
  196.5870  171.5520  136.4200 C   0  0  1  0  0  0  0  0  0  0  0  0
  197.3450  172.8250  136.0740 C   0  0  0  0  0  2  0  0  0  0  0  0
  198.5150  173.0680  137.0180 C   0  0  0  0  0  2  0  0  0  0  0  0
  198.5390  174.5000  137.4520 C   0  0  0  0  0  3  0  0  0  0  0  0
  197.9430  175.4020  136.7560 N   0  0  0  0  0  2  0  0  0  0  0  0
  1 32  1  1  0  0  0
  3  2  2  0  0  0  0
  4  2  1  0  0  0  0
  4  1  1  1  0  0  0
  5  4  1  0  0  0  0
  6  5  2  0  0  0  0
  6  3  1  0  0  0  0
  7  9  2  0  0  0  0
  8  9  1  0  0  0  0
  8  1  1  0  0  0  0
 12 18  1  6  0  0  0
 12 26  1  0  0  0  0
 12 31  1  0  0  0  0
 13 22  1  0  0  0  0
 14 24  2  0  0  0  0
 16 10  1  0  0  0  0
 17 30  1  0  0  0  0
 17 18  1  0  0  0  0
 20 30  1  6  0  0  0
 20 27  1  0  0  0  0
 21 25  1  0  0  0  0
 23 29  1  0  0  0  0
 23 16  1  1  0  0  0
 24 13  1  0  0  0  0
 25 20  1  0  0  0  0
 25 13  2  0  0  0  0
 26 19  1  1  0  0  0
 26 23  1  0  0  0  0
 27 22  1  0  0  0  0
 27 15  1  1  0  0  0
 27 11  1  0  0  0  0
 28 21  2  0  0  0  0
 28 14  1  0  0  0  0
 29 16  1  1  0  0  0
 31  9  1  6  0  0  0
 31 11  1  0  0  0  0
 31 29  1  0  0  0  0
 33 32  1  6  0  0  0
 33 38  1  0  0  0  0
 33 37  1  0  0  0  0
 36 35  1  0  0  0  0
 37 34  1  6  0  0  0
 37 36  1  0  0  0  0
 37 35  1  0  0  0  0
 38 39  1  0  0  0  0
 39 42  1  6  0  0  0
 39 40  1  0  0  0  0
 40 41  2  0  0  0  0
 42 43  1  0  0  0  0
 44 43  1  0  0  0  0
 45 44  2  0  0  0  0
 46 45  1  0  0  0  0
 47 54  1  0  0  0  0
 47 53  1  0  0  0  0
 49 46  1  0  0  0  0
 49 48  1  0  0  0  0
 51 49  2  0  0  0  0
 52 51  1  0  0  0  0
 52 47  1  0  0  0  0
 53 48  2  0  0  0  0
 53 50  1  0  0  0  0
 55 57  1  0  0  0  0
 56 55  1  0  0  0  0
 56 57  1  0  0  0  0
 57 58  1  6  0  0  0
 57 54  1  0  0  0  0
 58 59  1  0  0  0  0
 59 60  1  0  0  0  0
 61 60  2  0  0  0  0
M  END
>  <MODEL>
5

>  <REMARK>
 VINA RESULT:      -6.0      4.612      7.588
  Name = 
  19 active torsions:
  status: ('A' for Active; 'I' for Inactive)
    1  A    between atoms: C_1  and  C_34
    2  A    between atoms: C_1  and  C_40
    3  A    between atoms: N_3  and  C_58
    4  A    between atoms: C_6  and  C_23
    5  A    between atoms: C_6  and  C_43
    6  A    between atoms: C_13  and  C_22
    7  A    between atoms: C_13  and  C_50
    8  A    between atoms: C_19  and  C_48
    9  A    between atoms: C_21  and  C_56
   10  A    between atoms: C_21  and  C_57
   11  A    between atoms: C_22  and  C_29
   12  A    between atoms: C_25  and  C_57
   13  A    between atoms: C_29  and  C_58
   14  A    between atoms: C_31  and  C_48
   15  A    between atoms: C_31  and  C_56
   16  A    between atoms: N_38  and  C_48
   17  A    between atoms: C_40  and  C_57
   18  A    between atoms: C_45  and  C_61
   19  A    between atoms: C_54  and  C_56
                            x       y       z     vdW  Elec       q    Type
                         _______ _______ _______ _____ _____    ______ ____

>  <TORSDO>
F 19

$$$$
=
 OpenBabel11062416363D

 61 69  0  0  1  0  0  0  0  0999 V2000
  185.8450  176.7080  136.3980 C   0  0  1  0  0  3  0  0  0  0  0  0
  185.2830  174.8710  134.7780 C   0  0  0  0  0  3  0  0  0  0  0  0
  184.4000  173.9070  134.9860 C   0  0  0  0  0  3  0  0  0  0  0  0
  185.9720  175.2120  136.0600 C   0  0  2  0  0  3  0  0  0  0  0  0
  185.2880  174.3040  137.0320 C   0  0  0  0  0  3  0  0  0  0  0  0
  184.4020  173.5530  136.3970 C   0  0  0  0  0  3  0  0  0  0  0  0
  183.7870  177.8350  134.6200 O   0  0  0  0  0  0  0  0  0  0  0  0
  184.4750  177.1180  136.7360 N   0  0  0  0  0  2  0  0  0  0  0  0
  183.4640  177.5000  135.7950 C   0  0  0  0  0  0  0  0  0  0  0  0
  179.5010  180.2020  135.9250 C   0  0  0  0  0  1  0  0  0  0  0  0
  181.2930  176.3820  135.2920 C   0  0  0  0  0  2  0  0  0  0  0  0
  181.7880  177.2250  137.6760 C   0  0  1  0  0  3  0  0  0  0  0  0
  179.7510  173.2510  135.3150 C   0  0  0  0  0  0  0  0  0  0  0  0
  179.2100  170.9100  135.2830 C   0  0  0  0  0  3  0  0  0  0  0  0
  179.2900  176.1170  136.6020 O   0  0  0  0  0  1  0  0  0  0  0  0
  180.1190  179.0710  136.5830 N   0  0  0  0  0  0  0  0  0  0  0  0
  181.9510  175.4540  139.0740 C   0  0  0  0  0  2  0  0  0  0  0  0
  182.6890  176.3030  138.2230 O   0  0  0  0  0  0  0  0  0  0  0  0
  180.9470  178.7090  139.4910 C   0  0  0  0  0  1  0  0  0  0  0  0
  181.0310  174.3980  136.9010 C   0  0  1  0  0  3  0  0  0  0  0  0
  180.5760  171.8340  137.0790 C   0  0  0  0  0  3  0  0  0  0  0  0
  179.7020  174.5950  134.8940 N   0  0  0  0  0  2  0  0  0  0  0  0
  181.3770  179.5610  137.1840 C   0  0  1  0  0  3  0  0  0  0  0  0
  179.1150  172.1800  134.6880 C   0  0  0  0  0  3  0  0  0  0  0  0
  180.4480  173.0920  136.4810 C   0  0  0  0  0  0  0  0  0  0  0  0
  181.8590  178.6080  138.2850 C   0  0  2  0  0  3  0  0  0  0  0  0
  180.3090  175.4120  135.9470 C   0  0  2  0  0  0  0  0  0  0  0  0
  179.9400  170.7360  136.4750 C   0  0  0  0  0  3  0  0  0  0  0  0
  181.4080  178.8390  135.9020 C   0  0  1  0  0  3  0  0  0  0  0  0
  180.8020  174.6740  138.3940 C   0  0  0  0  0  2  0  0  0  0  0  0
  181.9920  177.4410  136.1760 C   0  0  1  0  0  0  0  0  0  0  0  0
  186.8620  177.1590  137.4500 C   0  0  0  0  0  2  0  0  0  0  0  0
  188.1030  176.2620  137.4670 C   0  0  1  0  0  3  0  0  0  0  0  0
  189.2840  178.2900  136.4820 O   0  0  0  0  0  1  0  0  0  0  0  0
  190.4630  176.3060  136.7920 O   0  0  0  0  0  0  0  0  0  0  0  0
  189.8260  176.1080  135.5450 C   0  0  0  0  0  2  0  0  0  0  0  0
  189.2040  176.9010  136.6180 C   0  0  1  0  0  0  0  0  0  0  0  0
  188.5470  176.0090  138.9100 C   0  0  0  0  0  2  0  0  0  0  0  0
  189.4720  177.0790  139.4980 C   0  0  1  0  0  3  0  0  0  0  0  0
  188.7410  178.2570  140.0960 C   0  0  0  0  0  3  0  0  0  0  0  0
  187.7750  178.0830  141.0000 C   0  0  0  0  0  2  0  0  0  0  0  0
  190.5250  176.5040  140.4380 C   0  0  0  0  0  2  0  0  0  0  0  0
  191.5390  177.5990  140.7530 C   0  0  0  0  0  2  0  0  0  0  0  0
  191.6420  177.8470  142.2190 C   0  0  0  0  0  3  0  0  0  0  0  0
  191.6450  176.8360  143.0890 C   0  0  0  0  0  3  0  0  0  0  0  0
  191.6500  177.0980  144.5640 C   0  0  0  0  0  2  0  0  0  0  0  0
  187.6810  177.6300  146.0900 N   0  0  0  0  0  0  0  0  0  0  0  0
  189.9930  177.1940  146.5230 C   0  0  0  0  0  3  0  0  0  0  0  0
  190.2490  177.1880  145.0690 C   0  0  0  0  0  0  0  0  0  0  0  0
  188.5560  177.3840  148.3490 F   0  0  0  0  0  0  0  0  0  0  0  0
  189.2330  177.3590  144.2070 C   0  0  0  0  0  3  0  0  0  0  0  0
  187.9060  177.5540  144.7070 N   0  0  0  0  0  2  0  0  0  0  0  0
  188.7700  177.4040  147.0040 C   0  0  0  0  0  0  0  0  0  0  0  0
  186.3580  177.9680  146.5940 C   0  0  0  0  0  2  0  0  0  0  0  0
  183.9400  178.1570  145.6840 C   0  0  0  0  0  2  0  0  0  0  0  0
  184.6180  179.3920  145.7760 O   0  0  0  0  0  0  0  0  0  0  0  0
  185.3980  178.2690  145.4540 C   0  0  1  0  0  0  0  0  0  0  0  0
  185.9160  178.3870  144.0270 C   0  0  0  0  0  2  0  0  0  0  0  0
  185.0980  179.3720  143.2020 C   0  0  0  0  0  2  0  0  0  0  0  0
  184.4020  178.6570  142.0870 C   0  0  0  0  0  3  0  0  0  0  0  0
  183.3030  178.0270  142.3020 N   0  0  0  0  0  2  0  0  0  0  0  0
  1  8  1  0  0  0  0
  1 32  1  1  0  0  0
  2  3  2  0  0  0  0
  2  4  1  0  0  0  0
  3  6  1  0  0  0  0
  4  1  1  1  0  0  0
  4  5  1  0  0  0  0
  6  5  2  0  0  0  0
  7  9  2  0  0  0  0
  9  8  1  0  0  0  0
 10 16  1  0  0  0  0
 11 27  1  0  0  0  0
 11 31  1  0  0  0  0
 12 18  1  1  0  0  0
 12 26  1  0  0  0  0
 13 25  1  0  0  0  0
 14 28  2  0  0  0  0
 18 17  1  0  0  0  0
 20 30  1  1  0  0  0
 22 13  1  0  0  0  0
 22 27  1  0  0  0  0
 23 16  1  1  0  0  0
 23 26  1  0  0  0  0
 24 14  1  0  0  0  0
 24 13  2  0  0  0  0
 25 20  1  0  0  0  0
 25 21  2  0  0  0  0
 26 19  1  1  0  0  0
 27 15  1  1  0  0  0
 27 20  1  0  0  0  0
 28 21  1  0  0  0  0
 29 31  1  0  0  0  0
 29 16  1  1  0  0  0
 29 23  1  0  0  0  0
 30 17  1  0  0  0  0
 31  9  1  6  0  0  0
 31 12  1  0  0  0  0
 33 32  1  1  0  0  0
 33 38  1  0  0  0  0
 36 37  1  0  0  0  0
 36 35  1  0  0  0  0
 37 34  1  6  0  0  0
 37 35  1  0  0  0  0
 37 33  1  0  0  0  0
 39 38  1  1  0  0  0
 39 40  1  0  0  0  0
 39 42  1  0  0  0  0
 40 41  2  0  0  0  0
 42 43  1  0  0  0  0
 43 44  1  0  0  0  0
 44 45  2  0  0  0  0
 45 46  1  0  0  0  0
 46 49  1  0  0  0  0
 47 54  1  0  0  0  0
 47 53  1  0  0  0  0
 48 53  2  0  0  0  0
 49 48  1  0  0  0  0
 51 52  1  0  0  0  0
 51 49  2  0  0  0  0
 52 47  1  0  0  0  0
 53 50  1  0  0  0  0
 55 56  1  0  0  0  0
 57 58  1  6  0  0  0
 57 55  1  0  0  0  0
 57 56  1  0  0  0  0
 57 54  1  0  0  0  0
 59 58  1  0  0  0  0
 60 61  2  0  0  0  0
 60 59  1  0  0  0  0
M  END
>  <MODEL>
6

>  <REMARK>
 VINA RESULT:      -5.7      2.253      4.663
  Name = 
  19 active torsions:
  status: ('A' for Active; 'I' for Inactive)
    1  A    between atoms: C_1  and  C_34
    2  A    between atoms: C_1  and  C_40
    3  A    between atoms: N_3  and  C_58
    4  A    between atoms: C_6  and  C_23
    5  A    between atoms: C_6  and  C_43
    6  A    between atoms: C_13  and  C_22
    7  A    between atoms: C_13  and  C_50
    8  A    between atoms: C_19  and  C_48
    9  A    between atoms: C_21  and  C_56
   10  A    between atoms: C_21  and  C_57
   11  A    between atoms: C_22  and  C_29
   12  A    between atoms: C_25  and  C_57
   13  A    between atoms: C_29  and  C_58
   14  A    between atoms: C_31  and  C_48
   15  A    between atoms: C_31  and  C_56
   16  A    between atoms: N_38  and  C_48
   17  A    between atoms: C_40  and  C_57
   18  A    between atoms: C_45  and  C_61
   19  A    between atoms: C_54  and  C_56
                            x       y       z     vdW  Elec       q    Type
                         _______ _______ _______ _____ _____    ______ ____

>  <TORSDO>
F 19

$$$$
=
 OpenBabel11062416363D

 61 69  0  0  1  0  0  0  0  0999 V2000
  184.9920  179.1010  141.9470 C   0  0  1  0  0  3  0  0  0  0  0  0
  185.0550  179.3810  144.4440 C   0  0  0  0  0  3  0  0  0  0  0  0
  184.2560  178.7730  145.3050 C   0  0  0  0  0  3  0  0  0  0  0  0
  184.3040  179.6950  143.1900 C   0  0  2  0  0  3  0  0  0  0  0  0
  182.9570  179.1150  143.4800 C   0  0  0  0  0  3  0  0  0  0  0  0
  182.9420  178.6050  144.7030 C   0  0  0  0  0  3  0  0  0  0  0  0
  183.5680  176.9060  140.5980 O   0  0  0  0  0  0  0  0  0  0  0  0
  184.1650  179.1630  140.7340 N   0  0  0  0  0  2  0  0  0  0  0  0
  183.3580  178.0950  140.2220 C   0  0  0  0  0  0  0  0  0  0  0  0
  181.2150  181.7020  137.8910 C   0  0  0  0  0  1  0  0  0  0  0  0
  182.4360  177.6140  137.9570 C   0  0  0  0  0  2  0  0  0  0  0  0
  180.8420  178.1080  139.9190 C   0  0  1  0  0  3  0  0  0  0  0  0
  181.2760  174.9890  135.9690 C   0  0  0  0  0  0  0  0  0  0  0  0
  180.7980  172.8750  134.9330 C   0  0  0  0  0  3  0  0  0  0  0  0
  180.2010  177.7650  137.0750 O   0  0  0  0  0  1  0  0  0  0  0  0
  180.9370  180.4010  138.4620 N   0  0  0  0  0  0  0  0  0  0  0  0
  179.6450  176.2490  140.3940 C   0  0  0  0  0  2  0  0  0  0  0  0
  180.8320  176.9460  140.7000 O   0  0  0  0  0  0  0  0  0  0  0  0
  179.0030  179.6070  140.6770 C   0  0  0  0  0  1  0  0  0  0  0  0
  180.8070  175.6400  138.1660 C   0  0  1  0  0  3  0  0  0  0  0  0
  180.1880  173.2710  137.2600 C   0  0  0  0  0  3  0  0  0  0  0  0
  181.7040  176.3310  136.0320 N   0  0  0  0  0  2  0  0  0  0  0  0
  181.2040  180.5030  139.9120 C   0  0  1  0  0  3  0  0  0  0  0  0
  181.3360  174.1710  134.8420 C   0  0  0  0  0  3  0  0  0  0  0  0
  180.7080  174.5640  137.1380 C   0  0  0  0  0  0  0  0  0  0  0  0
  180.5010  179.3740  140.6740 C   0  0  2  0  0  3  0  0  0  0  0  0
  181.2590  176.8780  137.3160 C   0  0  2  0  0  0  0  0  0  0  0  0
  180.2260  172.4240  136.1390 C   0  0  0  0  0  3  0  0  0  0  0  0
  182.2080  179.9020  139.0200 C   0  0  1  0  0  3  0  0  0  0  0  0
  179.4800  175.8440  138.9100 C   0  0  0  0  0  2  0  0  0  0  0  0
  182.2020  178.3850  139.2770 C   0  0  1  0  0  0  0  0  0  0  0  0
  186.3930  179.6770  141.7230 C   0  0  0  0  0  2  0  0  0  0  0  0
  187.3360  178.6540  141.0820 C   0  0  1  0  0  3  0  0  0  0  0  0
  186.9840  177.0180  143.0010 O   0  0  0  0  0  1  0  0  0  0  0  0
  188.9300  176.9020  141.7260 O   0  0  0  0  0  0  0  0  0  0  0  0
  189.2300  177.9060  142.6760 C   0  0  0  0  0  2  0  0  0  0  0  0
  187.8640  177.7060  142.1600 C   0  0  1  0  0  0  0  0  0  0  0  0
  186.6150  177.9140  139.9520 C   0  0  0  0  0  2  0  0  0  0  0  0
  187.5230  177.4210  138.8220 C   0  0  1  0  0  3  0  0  0  0  0  0
  186.7940  177.1470  137.5280 C   0  0  0  0  0  3  0  0  0  0  0  0
  186.6500  178.0970  136.6030 C   0  0  0  0  0  2  0  0  0  0  0  0
  188.7570  178.2940  138.6250 C   0  0  0  0  0  2  0  0  0  0  0  0
  189.9960  177.4150  138.7620 C   0  0  0  0  0  2  0  0  0  0  0  0
  190.7270  177.2900  137.4700 C   0  0  0  0  0  3  0  0  0  0  0  0
  190.1700  176.6810  136.4210 C   0  0  0  0  0  3  0  0  0  0  0  0
  190.9480  176.4730  135.1580 C   0  0  0  0  0  2  0  0  0  0  0  0
  193.8270  173.3130  135.4730 N   0  0  0  0  0  0  0  0  0  0  0  0
  191.5390  174.0080  135.5690 C   0  0  0  0  0  3  0  0  0  0  0  0
  191.9710  175.4050  135.3610 C   0  0  0  0  0  0  0  0  0  0  0  0
  192.0040  171.7390  135.8350 F   0  0  0  0  0  0  0  0  0  0  0  0
  193.2780  175.6970  135.2600 C   0  0  0  0  0  3  0  0  0  0  0  0
  194.2460  174.6470  135.3480 N   0  0  0  0  0  2  0  0  0  0  0  0
  192.4260  173.0170  135.6210 C   0  0  0  0  0  0  0  0  0  0  0  0
  194.8040  172.2360  135.4200 C   0  0  0  0  0  2  0  0  0  0  0  0
  194.4080  170.2060  136.9790 C   0  0  0  0  0  2  0  0  0  0  0  0
  195.7640  170.4240  136.6520 O   0  0  0  0  0  0  0  0  0  0  0  0
  194.9550  171.5660  136.7760 C   0  0  1  0  0  0  0  0  0  0  0  0
  195.3860  172.3800  137.9880 C   0  0  0  0  0  2  0  0  0  0  0  0
  196.7140  173.0890  137.7570 C   0  0  0  0  0  2  0  0  0  0  0  0
  196.8530  174.2430  138.7000 C   0  0  0  0  0  3  0  0  0  0  0  0
  197.9330  174.9400  138.7230 N   0  0  0  0  0  2  0  0  0  0  0  0
  1 32  1  6  0  0  0
  2  3  2  0  0  0  0
  4  1  1  6  0  0  0
  4  5  1  0  0  0  0
  4  2  1  0  0  0  0
  5  6  2  0  0  0  0
  6  3  1  0  0  0  0
  8  1  1  0  0  0  0
  9  7  2  0  0  0  0
  9  8  1  0  0  0  0
 10 16  1  0  0  0  0
 11 31  1  0  0  0  0
 12 26  1  0  0  0  0
 12 18  1  1  0  0  0
 13 22  1  0  0  0  0
 13 25  1  0  0  0  0
 14 28  2  0  0  0  0
 17 18  1  0  0  0  0
 20 30  1  6  0  0  0
 22 27  1  0  0  0  0
 23 16  1  6  0  0  0
 23 26  1  0  0  0  0
 24 14  1  0  0  0  0
 24 13  2  0  0  0  0
 25 21  2  0  0  0  0
 25 20  1  0  0  0  0
 26 19  1  6  0  0  0
 27 15  1  6  0  0  0
 27 11  1  0  0  0  0
 27 20  1  0  0  0  0
 28 21  1  0  0  0  0
 29 16  1  6  0  0  0
 29 31  1  0  0  0  0
 29 23  1  0  0  0  0
 30 17  1  0  0  0  0
 31 12  1  0  0  0  0
 31  9  1  1  0  0  0
 33 38  1  6  0  0  0
 33 32  1  0  0  0  0
 33 37  1  0  0  0  0
 35 37  1  0  0  0  0
 35 36  1  0  0  0  0
 37 36  1  0  0  0  0
 37 34  1  1  0  0  0
 39 40  1  6  0  0  0
 39 38  1  0  0  0  0
 41 40  2  0  0  0  0
 42 43  1  0  0  0  0
 42 39  1  0  0  0  0
 44 43  1  0  0  0  0
 45 44  2  0  0  0  0
 46 49  1  0  0  0  0
 46 45  1  0  0  0  0
 47 53  1  0  0  0  0
 48 53  2  0  0  0  0
 49 48  1  0  0  0  0
 51 52  1  0  0  0  0
 51 49  2  0  0  0  0
 52 47  1  0  0  0  0
 53 50  1  0  0  0  0
 54 47  1  0  0  0  0
 56 57  1  0  0  0  0
 56 55  1  0  0  0  0
 57 54  1  6  0  0  0
 57 55  1  0  0  0  0
 57 58  1  0  0  0  0
 59 58  1  0  0  0  0
 59 60  1  0  0  0  0
 60 61  2  0  0  0  0
M  END
>  <MODEL>
7

>  <REMARK>
 VINA RESULT:      -5.5      4.678      8.776
  Name = 
  19 active torsions:
  status: ('A' for Active; 'I' for Inactive)
    1  A    between atoms: C_1  and  C_34
    2  A    between atoms: C_1  and  C_40
    3  A    between atoms: N_3  and  C_58
    4  A    between atoms: C_6  and  C_23
    5  A    between atoms: C_6  and  C_43
    6  A    between atoms: C_13  and  C_22
    7  A    between atoms: C_13  and  C_50
    8  A    between atoms: C_19  and  C_48
    9  A    between atoms: C_21  and  C_56
   10  A    between atoms: C_21  and  C_57
   11  A    between atoms: C_22  and  C_29
   12  A    between atoms: C_25  and  C_57
   13  A    between atoms: C_29  and  C_58
   14  A    between atoms: C_31  and  C_48
   15  A    between atoms: C_31  and  C_56
   16  A    between atoms: N_38  and  C_48
   17  A    between atoms: C_40  and  C_57
   18  A    between atoms: C_45  and  C_61
   19  A    between atoms: C_54  and  C_56
                            x       y       z     vdW  Elec       q    Type
                         _______ _______ _______ _____ _____    ______ ____

>  <TORSDO>
F 19

$$$$
=
 OpenBabel11062416363D

 61 69  0  0  1  0  0  0  0  0999 V2000
  185.0860  178.3860  141.7590 C   0  0  1  0  0  3  0  0  0  0  0  0
  184.0450  178.6040  144.0360 C   0  0  0  0  0  3  0  0  0  0  0  0
  184.6400  179.1030  145.1070 C   0  0  0  0  0  3  0  0  0  0  0  0
  185.0390  177.8590  143.2040 C   0  0  2  0  0  3  0  0  0  0  0  0
  186.3050  178.0670  143.9730 C   0  0  0  0  0  3  0  0  0  0  0  0
  186.0540  178.7670  145.0690 C   0  0  0  0  0  3  0  0  0  0  0  0
  183.6450  178.0120  139.2190 O   0  0  0  0  0  0  0  0  0  0  0  0
  183.8310  179.0140  141.3230 N   0  0  0  0  0  2  0  0  0  0  0  0
  183.0890  178.6640  140.1490 C   0  0  0  0  0  0  0  0  0  0  0  0
  179.0130  178.6480  142.6820 C   0  0  0  0  0  1  0  0  0  0  0  0
  181.4790  180.5250  139.7490 C   0  0  0  0  0  2  0  0  0  0  0  0
  180.8830  178.1270  139.0220 C   0  0  1  0  0  3  0  0  0  0  0  0
  180.5520  182.8800  137.3450 C   0  0  0  0  0  0  0  0  0  0  0  0
  180.4350  184.4300  135.5130 C   0  0  0  0  0  3  0  0  0  0  0  0
  179.1940  180.5280  138.9900 O   0  0  0  0  0  1  0  0  0  0  0  0
  179.4980  178.5560  141.3210 N   0  0  0  0  0  0  0  0  0  0  0  0
  180.7690  178.0380  136.7650 C   0  0  0  0  0  2  0  0  0  0  0  0
  181.6360  177.8840  137.8660 O   0  0  0  0  0  0  0  0  0  0  0  0
  179.1900  176.3170  139.2790 C   0  0  0  0  0  1  0  0  0  0  0  0
  180.9300  180.5750  137.2410 C   0  0  1  0  0  3  0  0  0  0  0  0
  180.8450  182.0630  135.0990 C   0  0  0  0  0  3  0  0  0  0  0  0
  180.4610  182.4530  138.6850 N   0  0  0  0  0  2  0  0  0  0  0  0
  180.3370  177.3410  141.2470 C   0  0  1  0  0  3  0  0  0  0  0  0
  180.3800  184.1890  136.8970 C   0  0  0  0  0  3  0  0  0  0  0  0
  180.7630  181.8440  136.4780 C   0  0  0  0  0  0  0  0  0  0  0  0
  180.5000  176.8830  139.7930 C   0  0  2  0  0  3  0  0  0  0  0  0
  180.4830  180.9880  138.6860 C   0  0  2  0  0  0  0  0  0  0  0  0
  180.6680  183.3710  134.6150 C   0  0  0  0  0  3  0  0  0  0  0  0
  180.9680  178.6620  141.3880 C   0  0  1  0  0  3  0  0  0  0  0  0
  180.1060  179.4290  136.6360 C   0  0  0  0  0  2  0  0  0  0  0  0
  181.6120  179.0110  140.0350 C   0  0  1  0  0  0  0  0  0  0  0  0
  186.3020  179.2810  141.5010 C   0  0  0  0  0  2  0  0  0  0  0  0
  187.2990  178.6260  140.5400 C   0  0  1  0  0  3  0  0  0  0  0  0
  188.1600  176.7580  142.0400 O   0  0  0  0  0  1  0  0  0  0  0  0
  189.6500  177.9350  140.6920 O   0  0  0  0  0  0  0  0  0  0  0  0
  189.5340  178.7590  141.8350 C   0  0  0  0  0  2  0  0  0  0  0  0
  188.4080  177.9450  141.3450 C   0  0  1  0  0  0  0  0  0  0  0  0
  186.5690  177.6550  139.6090 C   0  0  0  0  0  2  0  0  0  0  0  0
  187.2500  177.4210  138.2570 C   0  0  1  0  0  3  0  0  0  0  0  0
  186.3610  176.7610  137.2310 C   0  0  0  0  0  3  0  0  0  0  0  0
  185.9290  177.4300  136.1600 C   0  0  0  0  0  2  0  0  0  0  0  0
  187.9450  178.6660  137.7170 C   0  0  0  0  0  2  0  0  0  0  0  0
  189.4160  178.3380  137.4910 C   0  0  0  0  0  2  0  0  0  0  0  0
  189.5880  177.2330  136.5060 C   0  0  0  0  0  3  0  0  0  0  0  0
  190.4600  176.2460  136.7250 C   0  0  0  0  0  3  0  0  0  0  0  0
  190.6970  175.1930  135.6870 C   0  0  0  0  0  2  0  0  0  0  0  0
  194.9460  174.6810  135.4620 N   0  0  0  0  0  0  0  0  0  0  0  0
  193.0340  176.0690  135.0820 C   0  0  0  0  0  3  0  0  0  0  0  0
  192.1620  174.9620  135.5240 C   0  0  0  0  0  0  0  0  0  0  0  0
  195.1390  176.9590  134.6230 F   0  0  0  0  0  0  0  0  0  0  0  0
  192.6990  173.7790  135.8690 C   0  0  0  0  0  3  0  0  0  0  0  0
  194.1180  173.6040  135.8130 N   0  0  0  0  0  2  0  0  0  0  0  0
  194.3580  175.9290  135.0540 C   0  0  0  0  0  0  0  0  0  0  0  0
  196.3930  174.5420  135.5420 C   0  0  0  0  0  2  0  0  0  0  0  0
  196.9920  172.0260  135.4020 C   0  0  0  0  0  2  0  0  0  0  0  0
  198.0650  172.8510  135.8040 O   0  0  0  0  0  0  0  0  0  0  0  0
  196.7820  173.2400  136.2230 C   0  0  1  0  0  0  0  0  0  0  0  0
  196.6630  173.1010  137.7340 C   0  0  0  0  0  2  0  0  0  0  0  0
  196.5710  174.4540  138.4270 C   0  0  0  0  0  2  0  0  0  0  0  0
  197.9310  174.9110  138.8510 C   0  0  0  0  0  3  0  0  0  0  0  0
  198.1690  175.1970  140.0810 N   0  0  0  0  0  2  0  0  0  0  0  0
  1 32  1  1  0  0  0
  2  3  2  0  0  0  0
  4  1  1  6  0  0  0
  4  5  1  0  0  0  0
  4  2  1  0  0  0  0
  5  6  2  0  0  0  0
  6  3  1  0  0  0  0
  7  9  2  0  0  0  0
  8  1  1  0  0  0  0
  9  8  1  0  0  0  0
 11 31  1  0  0  0  0
 12 18  1  6  0  0  0
 12 26  1  0  0  0  0
 12 31  1  0  0  0  0
 13 22  1  0  0  0  0
 14 24  2  0  0  0  0
 16 10  1  0  0  0  0
 17 18  1  0  0  0  0
 20 30  1  6  0  0  0
 20 27  1  0  0  0  0
 21 25  1  0  0  0  0
 22 27  1  0  0  0  0
 23 16  1  6  0  0  0
 23 29  1  0  0  0  0
 24 13  1  0  0  0  0
 25 20  1  0  0  0  0
 25 13  2  0  0  0  0
 26 19  1  6  0  0  0
 26 23  1  0  0  0  0
 27 15  1  1  0  0  0
 27 11  1  0  0  0  0
 28 21  2  0  0  0  0
 28 14  1  0  0  0  0
 29 16  1  6  0  0  0
 30 17  1  0  0  0  0
 31  9  1  1  0  0  0
 31 29  1  0  0  0  0
 33 38  1  1  0  0  0
 33 37  1  0  0  0  0
 33 32  1  0  0  0  0
 35 37  1  0  0  0  0
 35 36  1  0  0  0  0
 37 36  1  0  0  0  0
 37 34  1  1  0  0  0
 39 40  1  6  0  0  0
 39 38  1  0  0  0  0
 41 40  2  0  0  0  0
 42 39  1  0  0  0  0
 43 42  1  0  0  0  0
 44 45  2  0  0  0  0
 44 43  1  0  0  0  0
 46 45  1  0  0  0  0
 47 54  1  0  0  0  0
 47 52  1  0  0  0  0
 48 49  1  0  0  0  0
 49 46  1  0  0  0  0
 49 51  2  0  0  0  0
 50 53  1  0  0  0  0
 52 51  1  0  0  0  0
 53 48  2  0  0  0  0
 53 47  1  0  0  0  0
 55 56  1  0  0  0  0
 55 57  1  0  0  0  0
 56 57  1  0  0  0  0
 57 54  1  6  0  0  0
 57 58  1  0  0  0  0
 58 59  1  0  0  0  0
 59 60  1  0  0  0  0
 60 61  2  0  0  0  0
M  END
>  <MODEL>
8

>  <REMARK>
 VINA RESULT:      -5.4      4.572      8.063
  Name = 
  19 active torsions:
  status: ('A' for Active; 'I' for Inactive)
    1  A    between atoms: C_1  and  C_34
    2  A    between atoms: C_1  and  C_40
    3  A    between atoms: N_3  and  C_58
    4  A    between atoms: C_6  and  C_23
    5  A    between atoms: C_6  and  C_43
    6  A    between atoms: C_13  and  C_22
    7  A    between atoms: C_13  and  C_50
    8  A    between atoms: C_19  and  C_48
    9  A    between atoms: C_21  and  C_56
   10  A    between atoms: C_21  and  C_57
   11  A    between atoms: C_22  and  C_29
   12  A    between atoms: C_25  and  C_57
   13  A    between atoms: C_29  and  C_58
   14  A    between atoms: C_31  and  C_48
   15  A    between atoms: C_31  and  C_56
   16  A    between atoms: N_38  and  C_48
   17  A    between atoms: C_40  and  C_57
   18  A    between atoms: C_45  and  C_61
   19  A    between atoms: C_54  and  C_56
                            x       y       z     vdW  Elec       q    Type
                         _______ _______ _______ _____ _____    ______ ____

>  <TORSDO>
F 19

$$$$
=
 OpenBabel11062416363D

 61 69  0  0  1  0  0  0  0  0999 V2000
  185.6790  178.0230  137.1990 C   0  0  1  0  0  3  0  0  0  0  0  0
  185.1820  176.0320  135.7490 C   0  0  0  0  0  3  0  0  0  0  0  0
  186.0860  175.2790  135.1430 C   0  0  0  0  0  3  0  0  0  0  0  0
  185.6400  177.4550  135.7690 C   0  0  2  0  0  3  0  0  0  0  0  0
  186.9780  177.3610  135.1100 C   0  0  0  0  0  3  0  0  0  0  0  0
  187.2110  176.1100  134.7440 C   0  0  0  0  0  3  0  0  0  0  0  0
  183.3620  176.7370  138.4790 O   0  0  0  0  0  0  0  0  0  0  0  0
  184.4130  178.6400  137.6200 N   0  0  0  0  0  2  0  0  0  0  0  0
  183.3910  177.9980  138.3920 C   0  0  0  0  0  0  0  0  0  0  0  0
  181.9540  178.9610  142.8680 C   0  0  0  0  0  1  0  0  0  0  0  0
  182.6300  180.3210  138.8810 C   0  0  0  0  0  2  0  0  0  0  0  0
  180.9370  178.3790  138.8950 C   0  0  1  0  0  3  0  0  0  0  0  0
  181.3330  183.1650  137.3280 C   0  0  0  0  0  0  0  0  0  0  0  0
  180.6870  184.9110  135.8090 C   0  0  0  0  0  3  0  0  0  0  0  0
  180.5240  181.1800  139.6700 O   0  0  0  0  0  1  0  0  0  0  0  0
  181.4590  178.9080  141.5090 N   0  0  0  0  0  0  0  0  0  0  0  0
  179.4730  178.6540  137.1920 C   0  0  0  0  0  2  0  0  0  0  0  0
  180.7060  178.0690  137.5480 O   0  0  0  0  0  0  0  0  0  0  0  0
  179.2420  177.2080  140.2950 C   0  0  0  0  0  1  0  0  0  0  0  0
  180.7490  180.9020  137.2320 C   0  0  1  0  0  3  0  0  0  0  0  0
  179.9190  182.6240  135.4540 C   0  0  0  0  0  3  0  0  0  0  0  0
  181.9220  182.6060  138.4800 N   0  0  0  0  0  2  0  0  0  0  0  0
  181.6020  177.5090  141.0550 C   0  0  1  0  0  3  0  0  0  0  0  0
  181.3920  184.5070  136.9560 C   0  0  0  0  0  3  0  0  0  0  0  0
  180.6090  182.2510  136.6120 C   0  0  0  0  0  0  0  0  0  0  0  0
  180.6920  177.2340  139.8520 C   0  0  2  0  0  3  0  0  0  0  0  0
  181.4330  181.2310  138.6050 C   0  0  2  0  0  0  0  0  0  0  0  0
  179.9520  183.9720  135.0580 C   0  0  0  0  0  3  0  0  0  0  0  0
  182.5990  178.5160  140.6590 C   0  0  1  0  0  3  0  0  0  0  0  0
  179.3960  180.1890  137.3630 C   0  0  0  0  0  2  0  0  0  0  0  0
  182.3750  178.8220  139.1670 C   0  0  1  0  0  0  0  0  0  0  0  0
  186.1950  177.0050  138.2200 C   0  0  0  0  0  2  0  0  0  0  0  0
  187.5560  177.4110  138.7950 C   0  0  1  0  0  3  0  0  0  0  0  0
  186.0590  178.4170  140.5910 O   0  0  0  0  0  1  0  0  0  0  0  0
  188.2350  177.7820  141.1250 O   0  0  0  0  0  0  0  0  0  0  0  0
  188.4040  179.0770  140.5820 C   0  0  0  0  0  2  0  0  0  0  0  0
  187.3470  178.1670  140.1080 C   0  0  1  0  0  0  0  0  0  0  0  0
  188.4430  176.1750  138.9630 C   0  0  0  0  0  2  0  0  0  0  0  0
  189.7290  176.1850  138.1310 C   0  0  1  0  0  3  0  0  0  0  0  0
  189.7310  175.1850  137.0000 C   0  0  0  0  0  3  0  0  0  0  0  0
  190.3430  174.0060  137.1230 C   0  0  0  0  0  2  0  0  0  0  0  0
  190.1330  177.5840  137.6770 C   0  0  0  0  0  2  0  0  0  0  0  0
  191.0720  178.1760  138.7220 C   0  0  0  0  0  2  0  0  0  0  0  0
  191.3360  177.2170  139.8310 C   0  0  0  0  0  3  0  0  0  0  0  0
  191.9760  177.6030  140.9370 C   0  0  0  0  0  3  0  0  0  0  0  0
  192.3230  176.6110  142.0030 C   0  0  0  0  0  2  0  0  0  0  0  0
  190.6380  177.7200  145.7850 N   0  0  0  0  0  0  0  0  0  0  0  0
  191.6870  176.0510  144.4280 C   0  0  0  0  0  3  0  0  0  0  0  0
  191.6450  176.9800  143.2810 C   0  0  0  0  0  0  0  0  0  0  0  0
  191.2370  175.5250  146.6540 F   0  0  0  0  0  0  0  0  0  0  0  0
  191.0820  178.1920  143.4170 C   0  0  0  0  0  3  0  0  0  0  0  0
  190.5320  178.5780  144.6800 N   0  0  0  0  0  2  0  0  0  0  0  0
  191.2060  176.4080  145.6170 C   0  0  0  0  0  0  0  0  0  0  0  0
  190.2050  178.1690  147.1000 C   0  0  0  0  0  2  0  0  0  0  0  0
  188.2170  177.1750  148.4300 C   0  0  0  0  0  2  0  0  0  0  0  0
  188.2910  178.5840  148.4740 O   0  0  0  0  0  0  0  0  0  0  0  0
  188.7090  177.9690  147.2820 C   0  0  1  0  0  0  0  0  0  0  0  0
  187.7470  178.3150  146.1540 C   0  0  0  0  0  2  0  0  0  0  0  0
  186.4820  177.4680  146.2010 C   0  0  0  0  0  2  0  0  0  0  0  0
  186.0660  177.0850  144.8160 C   0  0  0  0  0  3  0  0  0  0  0  0
  186.1630  177.9260  143.8490 N   0  0  0  0  0  2  0  0  0  0  0  0
  1  8  1  0  0  0  0
  1 32  1  1  0  0  0
  2  4  1  0  0  0  0
  3  2  2  0  0  0  0
  4  1  1  1  0  0  0
  5  4  1  0  0  0  0
  6  5  2  0  0  0  0
  6  3  1  0  0  0  0
  8  9  1  0  0  0  0
  9  7  2  0  0  0  0
 11 31  1  0  0  0  0
 12 18  1  6  0  0  0
 12 31  1  0  0  0  0
 12 26  1  0  0  0  0
 13 22  1  0  0  0  0
 14 24  2  0  0  0  0
 16 10  1  0  0  0  0
 17 30  1  0  0  0  0
 17 18  1  0  0  0  0
 20 30  1  1  0  0  0
 20 27  1  0  0  0  0
 21 25  1  0  0  0  0
 22 27  1  0  0  0  0
 23 16  1  1  0  0  0
 24 13  1  0  0  0  0
 25 20  1  0  0  0  0
 25 13  2  0  0  0  0
 26 19  1  1  0  0  0
 26 23  1  0  0  0  0
 27 11  1  0  0  0  0
 27 15  1  1  0  0  0
 28 21  2  0  0  0  0
 28 14  1  0  0  0  0
 29 23  1  0  0  0  0
 29 16  1  1  0  0  0
 31  9  1  6  0  0  0
 31 29  1  0  0  0  0
 33 32  1  1  0  0  0
 33 38  1  0  0  0  0
 33 37  1  0  0  0  0
 36 35  1  0  0  0  0
 37 36  1  0  0  0  0
 37 34  1  1  0  0  0
 37 35  1  0  0  0  0
 39 40  1  6  0  0  0
 39 38  1  0  0  0  0
 40 41  2  0  0  0  0
 42 39  1  0  0  0  0
 42 43  1  0  0  0  0
 43 44  1  0  0  0  0
 44 45  2  0  0  0  0
 45 46  1  0  0  0  0
 46 49  1  0  0  0  0
 47 54  1  0  0  0  0
 48 53  2  0  0  0  0
 49 51  2  0  0  0  0
 49 48  1  0  0  0  0
 51 52  1  0  0  0  0
 52 47  1  0  0  0  0
 53 47  1  0  0  0  0
 53 50  1  0  0  0  0
 54 57  1  0  0  0  0
 55 56  1  0  0  0  0
 57 58  1  6  0  0  0
 57 55  1  0  0  0  0
 57 56  1  0  0  0  0
 58 59  1  0  0  0  0
 60 59  1  0  0  0  0
 61 60  2  0  0  0  0
M  END
>  <MODEL>
9

>  <REMARK>
 VINA RESULT:      -4.9      1.774      2.638
  Name = 
  19 active torsions:
  status: ('A' for Active; 'I' for Inactive)
    1  A    between atoms: C_1  and  C_34
    2  A    between atoms: C_1  and  C_40
    3  A    between atoms: N_3  and  C_58
    4  A    between atoms: C_6  and  C_23
    5  A    between atoms: C_6  and  C_43
    6  A    between atoms: C_13  and  C_22
    7  A    between atoms: C_13  and  C_50
    8  A    between atoms: C_19  and  C_48
    9  A    between atoms: C_21  and  C_56
   10  A    between atoms: C_21  and  C_57
   11  A    between atoms: C_22  and  C_29
   12  A    between atoms: C_25  and  C_57
   13  A    between atoms: C_29  and  C_58
   14  A    between atoms: C_31  and  C_48
   15  A    between atoms: C_31  and  C_56
   16  A    between atoms: N_38  and  C_48
   17  A    between atoms: C_40  and  C_57
   18  A    between atoms: C_45  and  C_61
   19  A    between atoms: C_54  and  C_56
                            x       y       z     vdW  Elec       q    Type
                         _______ _______ _______ _____ _____    ______ ____

>  <TORSDO>
F 19

$$$$
