=
 OpenBabel11062414083D

 53 58  0  0  1  0  0  0  0  0999 V2000
  187.4800  177.7930  142.0710 N   0  0  0  0  0  0  0  0  0  0  0  0
  187.6960  176.6290  144.0080 N   0  0  0  0  0  0  0  0  0  0  0  0
  186.4660  178.2170  142.9250 N   0  0  0  0  0  0  0  0  0  0  0  0
  186.5740  177.5370  144.2050 C   0  0  0  0  0  3  0  0  0  0  0  0
  188.1480  176.8760  142.6810 C   0  0  0  0  0  0  0  0  0  0  0  0
  189.3390  176.2010  142.0870 C   0  0  0  0  0  2  0  0  0  0  0  0
  191.2790  177.3490  141.0840 C   0  0  0  0  0  3  0  0  0  0  0  0
  190.5480  177.0780  142.1740 C   0  0  0  0  0  0  0  0  0  0  0  0
  189.5380  177.2320  137.6710 C   0  0  1  0  0  3  0  0  0  0  0  0
  190.9340  176.8500  139.7170 C   0  0  2  0  0  3  0  0  0  0  0  0
  190.5520  176.2420  137.0780 C   0  0  0  0  0  2  0  0  0  0  0  0
  192.1660  176.5760  138.9620 N   0  0  0  0  0  2  0  0  0  0  0  0
  191.9820  176.5940  137.4990 C   0  0  0  0  0  2  0  0  0  0  0  0
  190.0330  177.8440  138.9890 C   0  0  0  0  0  2  0  0  0  0  0  0
  189.1940  178.3270  136.6670 C   0  0  2  0  0  3  0  0  0  0  0  0
  188.9480  179.5290  137.3370 O   0  0  0  0  0  1  0  0  0  0  0  0
  187.4950  176.7230  136.4770 C   0  0  0  0  0  1  0  0  0  0  0  0
  188.0110  177.9530  135.9050 N   0  0  0  0  0  2  0  0  0  0  0  0
  191.5450  176.7080  144.5070 C   0  0  0  0  0  0  0  0  0  0  0  0
  191.9760  175.5550  144.2530 O   0  0  0  0  0  0  0  0  0  0  0  0
  190.9680  177.5140  143.4720 N   0  0  0  0  0  2  0  0  0  0  0  0
  191.6380  177.1910  145.8150 O   0  0  0  0  0  0  0  0  0  0  0  0
  191.1510  176.4980  146.9640 C   0  0  1  0  0  3  0  0  0  0  0  0
  192.2930  175.9010  147.7630 C   0  0  0  0  0  1  0  0  0  0  0  0
  190.2830  177.3900  147.8480 C   0  0  0  0  0  2  0  0  0  0  0  0
  189.0460  177.8610  147.1060 C   0  0  0  0  0  2  0  0  0  0  0  0
  187.9070  177.2500  147.6280 O   0  0  0  0  0  0  0  0  0  0  0  0
  186.9720  178.2800  147.7370 C   0  0  0  0  0  1  0  0  0  0  0  0
  185.6110  179.3580  142.6300 C   0  0  0  0  0  2  0  0  0  0  0  0
  183.9820  177.7150  141.5910 C   0  0  0  0  0  2  0  0  0  0  0  0
  183.6180  179.0760  141.0430 C   0  0  1  0  0  3  0  0  0  0  0  0
  184.1470  178.9380  142.4770 C   0  0  2  0  0  3  0  0  0  0  0  0
  184.6390  179.4880  140.0850 N   0  0  0  0  0  2  0  0  0  0  0  0
  184.7690  178.9390  138.7680 C   0  0  0  0  0  0  0  0  0  0  0  0
  185.8400  179.1380  138.1370 O   0  0  0  0  0  0  0  0  0  0  0  0
  179.9310  177.0910  138.1780 C   0  0  0  0  0  0  0  0  0  0  0  0
  182.9930  176.3450  136.6810 C   0  0  0  0  0  0  0  0  0  0  0  0
  183.3300  175.3700  135.8870 C   0  0  0  0  0  0  0  0  0  0  0  0
  183.6710  174.3880  135.0960 C   0  0  0  0  0  3  0  0  0  0  0  0
  181.4230  177.2560  138.1020 C   0  0  1  0  0  3  0  0  0  0  0  0
  178.9330  177.8620  138.6100 C   0  0  0  0  0  2  0  0  0  0  0  0
  180.1420  175.9160  136.7680 S   0  0  0  0  0  0  0  0  0  0  0  0
  181.6180  176.9080  136.6900 C   0  0  2  0  0  3  0  0  0  0  0  0
  182.2330  178.4950  138.4290 C   0  0  0  0  0  2  0  0  0  0  0  0
  183.6970  178.1450  138.1310 C   0  0  0  0  0  0  0  0  0  0  0  0
  184.0030  177.1390  137.3400 N   0  0  0  0  0  0  0  0  0  0  0  0
  181.8320  171.2180  135.9420 C   0  0  0  0  0  0  0  0  0  0  0  0
  184.4740  172.0490  135.5490 C   0  0  0  0  0  3  0  0  0  0  0  0
  180.5200  170.8020  136.1310 O   0  0  0  0  0  1  0  0  0  0  0  0
  182.8790  170.2980  136.0580 C   0  0  0  0  0  3  0  0  0  0  0  0
  183.4250  172.9780  135.4310 C   0  0  0  0  0  0  0  0  0  0  0  0
  182.1050  172.5550  135.6300 C   0  0  0  0  0  3  0  0  0  0  0  0
  184.2000  170.7130  135.8620 C   0  0  0  0  0  3  0  0  0  0  0  0
  1  5  2  0  0  0  0
  1  3  1  0  0  0  0
  2  4  2  0  0  0  0
  3  4  1  0  0  0  0
  5  2  1  0  0  0  0
  6  8  1  0  0  0  0
  6  5  1  0  0  0  0
  7  8  2  0  0  0  0
  8 21  1  0  0  0  0
  9 15  1  6  0  0  0
  9 14  1  0  0  0  0
 10  7  1  1  0  0  0
 11 13  1  0  0  0  0
 11  9  1  0  0  0  0
 12 10  1  0  0  0  0
 13 12  1  0  0  0  0
 14 10  1  0  0  0  0
 15 16  1  1  0  0  0
 18 17  1  0  0  0  0
 18 15  1  0  0  0  0
 19 22  1  0  0  0  0
 20 19  2  0  0  0  0
 21 19  1  0  0  0  0
 22 23  1  0  0  0  0
 23 24  1  1  0  0  0
 23 25  1  0  0  0  0
 26 27  1  0  0  0  0
 26 25  1  0  0  0  0
 27 28  1  0  0  0  0
 29  3  1  0  0  0  0
 30 32  1  0  0  0  0
 31 33  1  6  0  0  0
 31 30  1  0  0  0  0
 31 32  1  0  0  0  0
 32 29  1  6  0  0  0
 34 33  1  0  0  0  0
 35 34  2  0  0  0  0
 36 41  2  0  0  0  0
 37 46  1  0  0  0  0
 38 37  2  0  0  0  0
 39 51  1  0  0  0  0
 39 38  2  0  0  0  0
 40 36  1  0  0  0  0
 40 44  1  6  0  0  0
 42 36  1  0  0  0  0
 43 37  1  1  0  0  0
 43 42  1  0  0  0  0
 43 40  1  0  0  0  0
 45 44  1  0  0  0  0
 45 34  1  0  0  0  0
 46 45  2  0  0  0  0
 47 50  1  0  0  0  0
 47 49  1  0  0  0  0
 48 53  1  0  0  0  0
 51 48  2  0  0  0  0
 51 52  1  0  0  0  0
 52 47  2  0  0  0  0
 53 50  2  0  0  0  0
M  END
>  <MODEL>
1

>  <REMARK>
 VINA RESULT:      -7.9      0.000      0.000
  Name = 
  16 active torsions:
  status: ('A' for Active; 'I' for Inactive)
    1  A    between atoms: C_2  and  C_3
    2  A    between atoms: C_3  and  N_14
    3  A    between atoms: C_4  and  O_30
    4  A    between atoms: C_5  and  C_46
    5  A    between atoms: C_5  and  C_53
    6  A    between atoms: C_7  and  C_50
    7  A    between atoms: C_18  and  C_19
    8  A    between atoms: C_18  and  C_32
    9  A    between atoms: C_19  and  O_30
   10  A    between atoms: C_20  and  N_27
   11  A    between atoms: C_21  and  C_34
   12  A    between atoms: C_23  and  C_25
   13  A    between atoms: C_23  and  N_38
   14  A    between atoms: O_26  and  C_32
   15  A    between atoms: C_42  and  C_45
   16  A    between atoms: N_43  and  C_53
                            x       y       z     vdW  Elec       q    Type
                         _______ _______ _______ _____ _____    ______ ____

>  <TORSDO>
F 16

$$$$
=
 OpenBabel11062414083D

 53 58  0  0  1  0  0  0  0  0999 V2000
  184.6920  177.8510  138.3750 N   0  0  0  0  0  0  0  0  0  0  0  0
  186.1010  178.8920  139.8190 N   0  0  0  0  0  0  0  0  0  0  0  0
  185.9850  177.4440  138.0590 N   0  0  0  0  0  0  0  0  0  0  0  0
  186.9370  178.0440  138.9790 C   0  0  0  0  0  3  0  0  0  0  0  0
  184.7730  178.6900  139.3490 C   0  0  0  0  0  0  0  0  0  0  0  0
  183.5790  179.3230  139.9830 C   0  0  0  0  0  2  0  0  0  0  0  0
  182.0380  178.4180  141.6840 C   0  0  0  0  0  3  0  0  0  0  0  0
  183.2930  178.7060  141.3160 C   0  0  0  0  0  0  0  0  0  0  0  0
  179.4920  180.3370  139.5560 C   0  0  1  0  0  3  0  0  0  0  0  0
  180.8500  178.6400  140.8020 C   0  0  2  0  0  3  0  0  0  0  0  0
  178.9540  179.0670  138.8780 C   0  0  0  0  0  2  0  0  0  0  0  0
  180.8670  177.6740  139.6930 N   0  0  0  0  0  2  0  0  0  0  0  0
  180.0920  178.1070  138.5160 C   0  0  0  0  0  2  0  0  0  0  0  0
  180.8110  180.0800  140.2980 C   0  0  0  0  0  2  0  0  0  0  0  0
  179.6580  181.4670  138.5430 C   0  0  2  0  0  3  0  0  0  0  0  0
  178.9320  181.1790  137.3850 O   0  0  0  0  0  1  0  0  0  0  0  0
  181.2480  182.9930  137.7440 C   0  0  0  0  0  1  0  0  0  0  0  0
  181.0640  181.6270  138.2000 N   0  0  0  0  0  2  0  0  0  0  0  0
  184.3340  178.6450  143.6580 C   0  0  0  0  0  0  0  0  0  0  0  0
  183.2300  178.6270  144.2610 O   0  0  0  0  0  0  0  0  0  0  0  0
  184.3850  178.5490  142.2300 N   0  0  0  0  0  2  0  0  0  0  0  0
  185.5090  178.7590  144.4060 O   0  0  0  0  0  0  0  0  0  0  0  0
  186.3030  177.6500  144.8280 C   0  0  1  0  0  3  0  0  0  0  0  0
  187.0090  177.0070  143.6490 C   0  0  0  0  0  1  0  0  0  0  0  0
  187.3080  178.0410  145.9090 C   0  0  0  0  0  2  0  0  0  0  0  0
  186.6430  178.1280  147.2700 C   0  0  0  0  0  2  0  0  0  0  0  0
  187.5730  177.8850  148.2790 O   0  0  0  0  0  0  0  0  0  0  0  0
  188.7030  177.4120  147.6110 C   0  0  0  0  0  1  0  0  0  0  0  0
  186.2670  176.3750  137.1120 C   0  0  0  0  0  2  0  0  0  0  0  0
  186.5900  176.2050  134.6020 C   0  0  0  0  0  2  0  0  0  0  0  0
  187.9180  175.8420  135.2260 C   0  0  1  0  0  3  0  0  0  0  0  0
  187.0200  176.8970  135.8840 C   0  0  2  0  0  3  0  0  0  0  0  0
  187.8080  174.5210  135.8360 N   0  0  0  0  0  2  0  0  0  0  0  0
  188.7960  173.9570  136.7080 C   0  0  0  0  0  0  0  0  0  0  0  0
  188.7550  172.7200  136.9400 O   0  0  0  0  0  0  0  0  0  0  0  0
  193.6980  175.3430  137.8070 C   0  0  0  0  0  0  0  0  0  0  0  0
  190.5830  176.3530  139.0100 C   0  0  0  0  0  0  0  0  0  0  0  0
  190.2730  177.1040  140.0270 C   0  0  0  0  0  0  0  0  0  0  0  0
  189.9600  177.8520  141.0520 C   0  0  0  0  0  3  0  0  0  0  0  0
  192.2060  175.1780  137.8700 C   0  0  1  0  0  3  0  0  0  0  0  0
  194.6260  175.0580  136.8930 C   0  0  0  0  0  2  0  0  0  0  0  0
  193.4430  176.7270  139.0050 S   0  0  0  0  0  0  0  0  0  0  0  0
  191.8420  176.5490  138.2470 C   0  0  2  0  0  3  0  0  0  0  0  0
  191.2820  174.7020  136.7660 C   0  0  0  0  0  2  0  0  0  0  0  0
  189.8580  174.7710  137.3330 C   0  0  0  0  0  0  0  0  0  0  0  0
  189.5840  175.5250  138.3760 N   0  0  0  0  0  0  0  0  0  0  0  0
  191.5480  176.0650  143.9560 C   0  0  0  0  0  0  0  0  0  0  0  0
  190.3810  178.5520  143.4300 C   0  0  0  0  0  3  0  0  0  0  0  0
  192.1330  174.8330  144.2170 O   0  0  0  0  0  1  0  0  0  0  0  0
  191.4630  177.0260  144.9680 C   0  0  0  0  0  3  0  0  0  0  0  0
  190.4640  177.5900  142.4080 C   0  0  0  0  0  0  0  0  0  0  0  0
  191.0490  176.3470  142.6790 C   0  0  0  0  0  3  0  0  0  0  0  0
  190.8790  178.2700  144.7060 C   0  0  0  0  0  3  0  0  0  0  0  0
  1  5  2  0  0  0  0
  3  1  1  0  0  0  0
  3  4  1  0  0  0  0
  4  2  2  0  0  0  0
  5  2  1  0  0  0  0
  5  6  1  0  0  0  0
  6  8  1  0  0  0  0
  8  7  2  0  0  0  0
  8 21  1  0  0  0  0
  9 15  1  6  0  0  0
  9 14  1  0  0  0  0
 10  7  1  6  0  0  0
 11  9  1  0  0  0  0
 12 10  1  0  0  0  0
 13 11  1  0  0  0  0
 13 12  1  0  0  0  0
 14 10  1  0  0  0  0
 15 16  1  6  0  0  0
 17 18  1  0  0  0  0
 18 15  1  0  0  0  0
 19 20  2  0  0  0  0
 19 22  1  0  0  0  0
 21 19  1  0  0  0  0
 22 23  1  0  0  0  0
 23 24  1  6  0  0  0
 23 25  1  0  0  0  0
 25 26  1  0  0  0  0
 26 27  1  0  0  0  0
 28 27  1  0  0  0  0
 29  3  1  0  0  0  0
 30 31  1  0  0  0  0
 30 32  1  0  0  0  0
 31 33  1  1  0  0  0
 31 32  1  0  0  0  0
 32 29  1  1  0  0  0
 33 34  1  0  0  0  0
 34 35  2  0  0  0  0
 34 45  1  0  0  0  0
 36 40  1  0  0  0  0
 36 42  1  0  0  0  0
 37 38  2  0  0  0  0
 38 39  2  0  0  0  0
 39 51  1  0  0  0  0
 40 44  1  6  0  0  0
 40 43  1  0  0  0  0
 41 36  2  0  0  0  0
 43 42  1  1  0  0  0
 43 37  1  0  0  0  0
 44 45  1  0  0  0  0
 45 46  2  0  0  0  0
 46 37  1  0  0  0  0
 47 49  1  0  0  0  0
 47 50  1  0  0  0  0
 48 53  1  0  0  0  0
 51 52  1  0  0  0  0
 51 48  2  0  0  0  0
 52 47  2  0  0  0  0
 53 50  2  0  0  0  0
M  END
>  <MODEL>
2

>  <REMARK>
 VINA RESULT:      -7.3      3.753      9.253
  Name = 
  16 active torsions:
  status: ('A' for Active; 'I' for Inactive)
    1  A    between atoms: C_2  and  C_3
    2  A    between atoms: C_3  and  N_14
    3  A    between atoms: C_4  and  O_30
    4  A    between atoms: C_5  and  C_46
    5  A    between atoms: C_5  and  C_53
    6  A    between atoms: C_7  and  C_50
    7  A    between atoms: C_18  and  C_19
    8  A    between atoms: C_18  and  C_32
    9  A    between atoms: C_19  and  O_30
   10  A    between atoms: C_20  and  N_27
   11  A    between atoms: C_21  and  C_34
   12  A    between atoms: C_23  and  C_25
   13  A    between atoms: C_23  and  N_38
   14  A    between atoms: O_26  and  C_32
   15  A    between atoms: C_42  and  C_45
   16  A    between atoms: N_43  and  C_53
                            x       y       z     vdW  Elec       q    Type
                         _______ _______ _______ _____ _____    ______ ____

>  <TORSDO>
F 16

$$$$
=
 OpenBabel11062414083D

 53 58  0  0  1  0  0  0  0  0999 V2000
  183.9920  178.4430  139.5490 N   0  0  0  0  0  0  0  0  0  0  0  0
  186.2360  178.5750  139.2320 N   0  0  0  0  0  0  0  0  0  0  0  0
  184.2690  177.8790  138.3070 N   0  0  0  0  0  0  0  0  0  0  0  0
  185.7010  177.8940  138.0600 C   0  0  0  0  0  3  0  0  0  0  0  0
  185.1050  178.8580  140.0470 C   0  0  0  0  0  0  0  0  0  0  0  0
  185.2100  179.4970  141.3930 C   0  0  0  0  0  2  0  0  0  0  0  0
  184.1140  178.2090  143.1900 C   0  0  0  0  0  3  0  0  0  0  0  0
  185.2180  178.4620  142.4740 C   0  0  0  0  0  0  0  0  0  0  0  0
  180.7830  179.0040  141.4690 C   0  0  1  0  0  3  0  0  0  0  0  0
  182.8030  178.8860  142.9470 C   0  0  2  0  0  3  0  0  0  0  0  0
  180.2340  179.7840  142.6750 C   0  0  0  0  0  2  0  0  0  0  0  0
  182.0290  178.9350  144.1980 N   0  0  0  0  0  2  0  0  0  0  0  0
  180.5770  179.0810  143.9920 C   0  0  0  0  0  2  0  0  0  0  0  0
  182.0310  178.1880  141.8300 C   0  0  0  0  0  2  0  0  0  0  0  0
  179.7090  178.1040  140.8670 C   0  0  2  0  0  3  0  0  0  0  0  0
  179.6090  176.9220  141.6050 O   0  0  0  0  0  1  0  0  0  0  0  0
  179.8800  176.3470  139.3240 C   0  0  0  0  0  1  0  0  0  0  0  0
  180.0440  177.7800  139.4880 N   0  0  0  0  0  2  0  0  0  0  0  0
  186.8840  177.3690  144.0870 C   0  0  0  0  0  0  0  0  0  0  0  0
  186.0500  177.2250  145.0150 O   0  0  0  0  0  0  0  0  0  0  0  0
  186.4680  177.8440  142.8000 N   0  0  0  0  0  2  0  0  0  0  0  0
  188.2250  177.0560  144.3300 O   0  0  0  0  0  0  0  0  0  0  0  0
  189.0690  177.7810  145.2230 C   0  0  1  0  0  3  0  0  0  0  0  0
  188.4320  177.9040  146.5940 C   0  0  0  0  0  1  0  0  0  0  0  0
  190.4610  177.1610  145.3290 C   0  0  0  0  0  2  0  0  0  0  0  0
  190.7610  176.7290  146.7520 C   0  0  0  0  0  2  0  0  0  0  0  0
  192.1280  176.8230  147.0080 O   0  0  0  0  0  0  0  0  0  0  0  0
  192.4480  175.6300  147.6580 C   0  0  0  0  0  1  0  0  0  0  0  0
  183.2720  177.1620  137.5250 C   0  0  0  0  0  2  0  0  0  0  0  0
  182.2890  177.0630  135.1890 C   0  0  0  0  0  2  0  0  0  0  0  0
  183.3370  175.9740  135.2550 C   0  0  1  0  0  3  0  0  0  0  0  0
  183.5400  177.2870  136.0230 C   0  0  2  0  0  3  0  0  0  0  0  0
  182.8350  174.8850  136.0880 N   0  0  0  0  0  2  0  0  0  0  0  0
  183.5680  173.6870  136.3670 C   0  0  0  0  0  0  0  0  0  0  0  0
  182.9470  172.6980  136.8370 O   0  0  0  0  0  0  0  0  0  0  0  0
  188.0900  171.1850  135.6900 C   0  0  0  0  0  0  0  0  0  0  0  0
  187.2290  174.5460  136.0580 C   0  0  0  0  0  0  0  0  0  0  0  0
  187.9780  175.5940  136.2400 C   0  0  0  0  0  0  0  0  0  0  0  0
  188.7280  176.6470  136.4300 C   0  0  0  0  0  3  0  0  0  0  0  0
  187.0690  172.2470  135.9830 C   0  0  1  0  0  3  0  0  0  0  0  0
  188.0290  169.9510  135.1880 C   0  0  0  0  0  2  0  0  0  0  0  0
  189.2820  172.5890  135.5340 S   0  0  0  0  0  0  0  0  0  0  0  0
  187.7030  173.3710  135.2830 C   0  0  2  0  0  3  0  0  0  0  0  0
  185.5900  172.2220  135.6510 C   0  0  0  0  0  2  0  0  0  0  0  0
  185.0200  173.5690  136.1140 C   0  0  0  0  0  0  0  0  0  0  0  0
  185.8080  174.6040  136.3080 N   0  0  0  0  0  0  0  0  0  0  0  0
  190.2210  177.1120  139.8510 C   0  0  0  0  0  0  0  0  0  0  0  0
  191.0940  176.4880  137.2680 C   0  0  0  0  0  3  0  0  0  0  0  0
  189.7880  177.4160  141.1350 O   0  0  0  0  0  1  0  0  0  0  0  0
  191.5770  176.8750  139.6100 C   0  0  0  0  0  3  0  0  0  0  0  0
  189.7280  176.7250  137.5050 C   0  0  0  0  0  0  0  0  0  0  0  0
  189.2990  177.0380  138.8000 C   0  0  0  0  0  3  0  0  0  0  0  0
  192.0150  176.5630  138.3180 C   0  0  0  0  0  3  0  0  0  0  0  0
  1  5  2  0  0  0  0
  2  5  1  0  0  0  0
  3  1  1  0  0  0  0
  4  3  1  0  0  0  0
  4  2  2  0  0  0  0
  5  6  1  0  0  0  0
  6  8  1  0  0  0  0
  8 21  1  0  0  0  0
  8  7  2  0  0  0  0
  9 15  1  1  0  0  0
  9 14  1  0  0  0  0
  9 11  1  0  0  0  0
 10  7  1  1  0  0  0
 10 12  1  0  0  0  0
 11 13  1  0  0  0  0
 13 12  1  0  0  0  0
 14 10  1  0  0  0  0
 15 16  1  1  0  0  0
 17 18  1  0  0  0  0
 18 15  1  0  0  0  0
 19 22  1  0  0  0  0
 19 20  2  0  0  0  0
 21 19  1  0  0  0  0
 22 23  1  0  0  0  0
 23 25  1  0  0  0  0
 23 24  1  1  0  0  0
 25 26  1  0  0  0  0
 26 27  1  0  0  0  0
 27 28  1  0  0  0  0
 29  3  1  0  0  0  0
 30 31  1  0  0  0  0
 30 32  1  0  0  0  0
 31 32  1  0  0  0  0
 31 33  1  1  0  0  0
 32 29  1  1  0  0  0
 33 34  1  0  0  0  0
 34 35  2  0  0  0  0
 36 40  1  0  0  0  0
 37 38  2  0  0  0  0
 37 46  1  0  0  0  0
 38 39  2  0  0  0  0
 39 51  1  0  0  0  0
 40 44  1  6  0  0  0
 41 36  2  0  0  0  0
 42 36  1  0  0  0  0
 43 42  1  1  0  0  0
 43 40  1  0  0  0  0
 43 37  1  0  0  0  0
 44 45  1  0  0  0  0
 45 46  2  0  0  0  0
 45 34  1  0  0  0  0
 47 49  1  0  0  0  0
 48 51  2  0  0  0  0
 48 53  1  0  0  0  0
 50 47  1  0  0  0  0
 51 52  1  0  0  0  0
 52 47  2  0  0  0  0
 53 50  2  0  0  0  0
M  END
>  <MODEL>
3

>  <REMARK>
 VINA RESULT:      -6.8      2.784      7.732
  Name = 
  16 active torsions:
  status: ('A' for Active; 'I' for Inactive)
    1  A    between atoms: C_2  and  C_3
    2  A    between atoms: C_3  and  N_14
    3  A    between atoms: C_4  and  O_30
    4  A    between atoms: C_5  and  C_46
    5  A    between atoms: C_5  and  C_53
    6  A    between atoms: C_7  and  C_50
    7  A    between atoms: C_18  and  C_19
    8  A    between atoms: C_18  and  C_32
    9  A    between atoms: C_19  and  O_30
   10  A    between atoms: C_20  and  N_27
   11  A    between atoms: C_21  and  C_34
   12  A    between atoms: C_23  and  C_25
   13  A    between atoms: C_23  and  N_38
   14  A    between atoms: O_26  and  C_32
   15  A    between atoms: C_42  and  C_45
   16  A    between atoms: N_43  and  C_53
                            x       y       z     vdW  Elec       q    Type
                         _______ _______ _______ _____ _____    ______ ____

>  <TORSDO>
F 16

$$$$
=
 OpenBabel11062414083D

 53 58  0  0  1  0  0  0  0  0999 V2000
  187.1670  177.8710  142.6100 N   0  0  0  0  0  0  0  0  0  0  0  0
  186.9900  177.0260  144.7100 N   0  0  0  0  0  0  0  0  0  0  0  0
  185.9910  178.3720  143.1610 N   0  0  0  0  0  0  0  0  0  0  0  0
  185.8380  177.9000  144.5270 C   0  0  0  0  0  3  0  0  0  0  0  0
  187.7050  177.0910  143.4810 C   0  0  0  0  0  0  0  0  0  0  0  0
  189.0040  176.3900  143.2580 C   0  0  0  0  0  2  0  0  0  0  0  0
  191.0800  177.7160  143.1040 C   0  0  0  0  0  3  0  0  0  0  0  0
  189.9630  177.2670  142.5150 C   0  0  0  0  0  0  0  0  0  0  0  0
  190.8420  177.4590  146.9210 C   0  0  1  0  0  3  0  0  0  0  0  0
  191.4770  177.3530  144.4990 C   0  0  2  0  0  3  0  0  0  0  0  0
  191.9300  176.3780  147.0140 C   0  0  0  0  0  2  0  0  0  0  0  0
  191.8780  175.9380  144.5510 N   0  0  0  0  0  2  0  0  0  0  0  0
  191.7800  175.3420  145.8960 C   0  0  0  0  0  2  0  0  0  0  0  0
  190.3490  177.6580  145.4820 C   0  0  0  0  0  2  0  0  0  0  0  0
  189.6740  177.1380  147.8480 C   0  0  2  0  0  3  0  0  0  0  0  0
  188.6760  176.4620  147.1420 O   0  0  0  0  0  1  0  0  0  0  0  0
  187.6980  178.3720  148.1130 C   0  0  0  0  0  1  0  0  0  0  0  0
  189.1210  178.3670  148.3990 N   0  0  0  0  0  2  0  0  0  0  0  0
  190.0340  177.1690  139.9550 C   0  0  0  0  0  0  0  0  0  0  0  0
  190.6160  176.0560  139.9100 O   0  0  0  0  0  0  0  0  0  0  0  0
  189.5890  177.7090  141.2050 N   0  0  0  0  0  2  0  0  0  0  0  0
  189.8250  177.8700  138.7630 O   0  0  0  0  0  0  0  0  0  0  0  0
  189.3480  177.2760  137.5560 C   0  0  1  0  0  3  0  0  0  0  0  0
  189.0150  178.3360  136.5240 C   0  0  0  0  0  1  0  0  0  0  0  0
  190.3350  176.2610  136.9850 C   0  0  0  0  0  2  0  0  0  0  0  0
  189.6770  174.9090  136.7850 C   0  0  0  0  0  2  0  0  0  0  0  0
  190.4240  173.9100  137.4070 O   0  0  0  0  0  0  0  0  0  0  0  0
  191.7530  174.2490  137.1460 C   0  0  0  0  0  1  0  0  0  0  0  0
  185.1990  179.4130  142.5210 C   0  0  0  0  0  2  0  0  0  0  0  0
  183.8250  177.6380  141.3410 C   0  0  0  0  0  2  0  0  0  0  0  0
  183.5000  178.9480  140.6600 C   0  0  1  0  0  3  0  0  0  0  0  0
  183.7960  178.9140  142.1650 C   0  0  2  0  0  3  0  0  0  0  0  0
  184.6440  179.3570  139.8510 N   0  0  0  0  0  2  0  0  0  0  0  0
  184.9440  178.8180  138.5580 C   0  0  0  0  0  0  0  0  0  0  0  0
  186.0930  179.0100  138.0790 O   0  0  0  0  0  0  0  0  0  0  0  0
  180.1940  177.1560  137.2040 C   0  0  0  0  0  0  0  0  0  0  0  0
  183.4260  176.2060  136.2970 C   0  0  0  0  0  0  0  0  0  0  0  0
  183.8450  175.1800  135.6140 C   0  0  0  0  0  0  0  0  0  0  0  0
  184.2680  174.1480  134.9350 C   0  0  0  0  0  3  0  0  0  0  0  0
  181.6820  177.2510  137.3840 C   0  0  1  0  0  3  0  0  0  0  0  0
  179.1770  177.9890  137.4230 C   0  0  0  0  0  2  0  0  0  0  0  0
  180.5860  175.9050  135.9000 S   0  0  0  0  0  0  0  0  0  0  0  0
  182.1010  176.8280  136.0420 C   0  0  2  0  0  3  0  0  0  0  0  0
  182.4860  178.4680  137.7980 C   0  0  0  0  0  2  0  0  0  0  0  0
  183.9600  178.0410  137.7760 C   0  0  0  0  0  0  0  0  0  0  0  0
  184.3460  176.9860  137.0910 N   0  0  0  0  0  0  0  0  0  0  0  0
  182.1780  171.1950  135.9670 C   0  0  0  0  0  0  0  0  0  0  0  0
  184.8290  171.7160  135.2410 C   0  0  0  0  0  3  0  0  0  0  0  0
  180.8610  170.9340  136.3210 O   0  0  0  0  0  1  0  0  0  0  0  0
  183.1100  170.1540  135.9290 C   0  0  0  0  0  3  0  0  0  0  0  0
  183.8960  172.7670  135.2770 C   0  0  0  0  0  0  0  0  0  0  0  0
  182.5710  172.4990  135.6430 C   0  0  0  0  0  3  0  0  0  0  0  0
  184.4360  170.4130  135.5660 C   0  0  0  0  0  3  0  0  0  0  0  0
  1  3  1  0  0  0  0
  1  5  2  0  0  0  0
  3  4  1  0  0  0  0
  4  2  2  0  0  0  0
  5  2  1  0  0  0  0
  6  5  1  0  0  0  0
  8  7  2  0  0  0  0
  8  6  1  0  0  0  0
  9 11  1  0  0  0  0
  9 15  1  1  0  0  0
 10  7  1  6  0  0  0
 10 12  1  0  0  0  0
 10 14  1  0  0  0  0
 12 13  1  0  0  0  0
 13 11  1  0  0  0  0
 14  9  1  0  0  0  0
 15 16  1  6  0  0  0
 15 18  1  0  0  0  0
 17 18  1  0  0  0  0
 19 21  1  0  0  0  0
 20 19  2  0  0  0  0
 21  8  1  0  0  0  0
 22 19  1  0  0  0  0
 23 24  1  6  0  0  0
 23 22  1  0  0  0  0
 25 23  1  0  0  0  0
 26 25  1  0  0  0  0
 26 27  1  0  0  0  0
 28 27  1  0  0  0  0
 29  3  1  0  0  0  0
 30 32  1  0  0  0  0
 31 33  1  6  0  0  0
 31 30  1  0  0  0  0
 31 32  1  0  0  0  0
 32 29  1  6  0  0  0
 34 33  1  0  0  0  0
 35 34  2  0  0  0  0
 36 40  1  0  0  0  0
 36 41  2  0  0  0  0
 37 46  1  0  0  0  0
 38 37  2  0  0  0  0
 39 51  1  0  0  0  0
 39 38  2  0  0  0  0
 40 44  1  6  0  0  0
 42 36  1  0  0  0  0
 43 42  1  1  0  0  0
 43 37  1  0  0  0  0
 43 40  1  0  0  0  0
 45 44  1  0  0  0  0
 45 34  1  0  0  0  0
 46 45  2  0  0  0  0
 47 49  1  0  0  0  0
 48 51  2  0  0  0  0
 48 53  1  0  0  0  0
 50 47  1  0  0  0  0
 51 52  1  0  0  0  0
 52 47  2  0  0  0  0
 53 50  2  0  0  0  0
M  END
>  <MODEL>
4

>  <REMARK>
 VINA RESULT:      -6.8      1.567      5.751
  Name = 
  16 active torsions:
  status: ('A' for Active; 'I' for Inactive)
    1  A    between atoms: C_2  and  C_3
    2  A    between atoms: C_3  and  N_14
    3  A    between atoms: C_4  and  O_30
    4  A    between atoms: C_5  and  C_46
    5  A    between atoms: C_5  and  C_53
    6  A    between atoms: C_7  and  C_50
    7  A    between atoms: C_18  and  C_19
    8  A    between atoms: C_18  and  C_32
    9  A    between atoms: C_19  and  O_30
   10  A    between atoms: C_20  and  N_27
   11  A    between atoms: C_21  and  C_34
   12  A    between atoms: C_23  and  C_25
   13  A    between atoms: C_23  and  N_38
   14  A    between atoms: O_26  and  C_32
   15  A    between atoms: C_42  and  C_45
   16  A    between atoms: N_43  and  C_53
                            x       y       z     vdW  Elec       q    Type
                         _______ _______ _______ _____ _____    ______ ____

>  <TORSDO>
F 16

$$$$
=
 OpenBabel11062414083D

 53 58  0  0  1  0  0  0  0  0999 V2000
  190.1850  177.4850  138.0030 N   0  0  0  0  0  0  0  0  0  0  0  0
  188.2080  178.5760  138.2360 N   0  0  0  0  0  0  0  0  0  0  0  0
  190.0360  177.7890  139.3530 N   0  0  0  0  0  0  0  0  0  0  0  0
  188.7640  178.4550  139.5770 C   0  0  0  0  0  3  0  0  0  0  0  0
  189.1630  177.9600  137.3790 C   0  0  0  0  0  0  0  0  0  0  0  0
  188.9560  177.8010  135.9090 C   0  0  0  0  0  2  0  0  0  0  0  0
  187.6970  175.7050  135.5760 C   0  0  0  0  0  3  0  0  0  0  0  0
  188.8680  176.3540  135.5370 C   0  0  0  0  0  0  0  0  0  0  0  0
  184.0800  176.9110  135.1790 C   0  0  1  0  0  3  0  0  0  0  0  0
  186.4040  176.3620  135.9400 C   0  0  2  0  0  3  0  0  0  0  0  0
  183.9010  177.1790  136.6820 C   0  0  0  0  0  2  0  0  0  0  0  0
  185.9820  175.9230  137.2790 N   0  0  0  0  0  2  0  0  0  0  0  0
  184.5350  176.0670  137.5230 C   0  0  0  0  0  2  0  0  0  0  0  0
  185.3350  176.0770  134.8880 C   0  0  0  0  0  2  0  0  0  0  0  0
  182.8410  176.2380  134.5940 C   0  0  2  0  0  3  0  0  0  0  0  0
  181.7070  176.6160  135.3180 O   0  0  0  0  0  1  0  0  0  0  0  0
  181.6840  174.2350  134.9750 C   0  0  0  0  0  1  0  0  0  0  0  0
  182.9860  174.7910  134.6510 N   0  0  0  0  0  2  0  0  0  0  0  0
  190.7620  174.7260  136.1130 C   0  0  0  0  0  0  0  0  0  0  0  0
  190.1770  174.2360  137.1120 O   0  0  0  0  0  0  0  0  0  0  0  0
  190.0890  175.6580  135.2590 N   0  0  0  0  0  2  0  0  0  0  0  0
  192.0810  174.3440  135.8500 O   0  0  0  0  0  0  0  0  0  0  0  0
  192.6780  173.1390  136.3270 C   0  0  1  0  0  3  0  0  0  0  0  0
  192.7060  172.0790  135.2420 C   0  0  0  0  0  1  0  0  0  0  0  0
  194.0800  173.3740  136.8860 C   0  0  0  0  0  2  0  0  0  0  0  0
  194.1740  174.7180  137.5820 C   0  0  0  0  0  2  0  0  0  0  0  0
  195.1170  175.5270  136.9470 O   0  0  0  0  0  0  0  0  0  0  0  0
  195.9660  174.6320  136.2940 C   0  0  0  0  0  1  0  0  0  0  0  0
  190.9240  177.2680  140.3820 C   0  0  0  0  0  2  0  0  0  0  0  0
  191.9440  177.7020  142.6640 C   0  0  0  0  0  2  0  0  0  0  0  0
  190.4440  177.7400  142.8550 C   0  0  1  0  0  3  0  0  0  0  0  0
  191.0680  178.2490  141.5490 C   0  0  2  0  0  3  0  0  0  0  0  0
  189.9220  176.3800  142.7590 N   0  0  0  0  0  2  0  0  0  0  0  0
  188.5730  176.0160  143.0770 C   0  0  0  0  0  0  0  0  0  0  0  0
  188.3040  174.7970  143.2480 O   0  0  0  0  0  0  0  0  0  0  0  0
  184.8750  178.6930  145.5910 C   0  0  0  0  0  0  0  0  0  0  0  0
  185.8260  178.4640  142.2420 C   0  0  0  0  0  0  0  0  0  0  0  0
  185.2450  178.9090  141.1660 C   0  0  0  0  0  0  0  0  0  0  0  0
  184.6590  179.3500  140.0850 C   0  0  0  0  0  3  0  0  0  0  0  0
  185.6990  178.0570  144.5080 C   0  0  1  0  0  3  0  0  0  0  0  0
  185.0370  178.8630  146.9030 C   0  0  0  0  0  2  0  0  0  0  0  0
  184.1580  179.7200  144.2310 S   0  0  0  0  0  0  0  0  0  0  0  0
  185.7040  179.1650  143.5450 C   0  0  2  0  0  3  0  0  0  0  0  0
  187.1000  177.4910  144.6260 C   0  0  0  0  0  2  0  0  0  0  0  0
  187.4950  177.0170  143.2210 C   0  0  0  0  0  0  0  0  0  0  0  0
  186.8720  177.4720  142.1560 N   0  0  0  0  0  0  0  0  0  0  0  0
  181.3920  177.4980  139.8680 C   0  0  0  0  0  0  0  0  0  0  0  0
  182.4310  179.9790  139.1020 C   0  0  0  0  0  3  0  0  0  0  0  0
  180.8740  176.2690  140.2530 O   0  0  0  0  0  1  0  0  0  0  0  0
  180.5790  178.4230  139.2070 C   0  0  0  0  0  3  0  0  0  0  0  0
  183.2550  179.0530  139.7670 C   0  0  0  0  0  0  0  0  0  0  0  0
  182.7280  177.8120  140.1460 C   0  0  0  0  0  3  0  0  0  0  0  0
  181.0970  179.6640  138.8230 C   0  0  0  0  0  3  0  0  0  0  0  0
  1  3  1  0  0  0  0
  2  4  2  0  0  0  0
  3  4  1  0  0  0  0
  3 29  1  0  0  0  0
  5  1  2  0  0  0  0
  5  2  1  0  0  0  0
  6  5  1  0  0  0  0
  8  7  2  0  0  0  0
  8  6  1  0  0  0  0
  9 15  1  1  0  0  0
  9 11  1  0  0  0  0
 10  7  1  6  0  0  0
 10 12  1  0  0  0  0
 11 13  1  0  0  0  0
 12 13  1  0  0  0  0
 14  9  1  0  0  0  0
 14 10  1  0  0  0  0
 15 18  1  0  0  0  0
 15 16  1  1  0  0  0
 18 17  1  0  0  0  0
 19 20  2  0  0  0  0
 21  8  1  0  0  0  0
 21 19  1  0  0  0  0
 22 19  1  0  0  0  0
 22 23  1  0  0  0  0
 23 24  1  6  0  0  0
 23 25  1  0  0  0  0
 25 26  1  0  0  0  0
 27 26  1  0  0  0  0
 28 27  1  0  0  0  0
 30 31  1  0  0  0  0
 31 33  1  6  0  0  0
 32 29  1  6  0  0  0
 32 30  1  0  0  0  0
 32 31  1  0  0  0  0
 33 34  1  0  0  0  0
 34 45  1  0  0  0  0
 34 35  2  0  0  0  0
 36 41  2  0  0  0  0
 38 37  2  0  0  0  0
 39 38  2  0  0  0  0
 40 44  1  1  0  0  0
 40 36  1  0  0  0  0
 42 36  1  0  0  0  0
 43 37  1  6  0  0  0
 43 42  1  0  0  0  0
 43 40  1  0  0  0  0
 45 44  1  0  0  0  0
 46 37  1  0  0  0  0
 46 45  2  0  0  0  0
 47 52  1  0  0  0  0
 47 49  1  0  0  0  0
 48 51  1  0  0  0  0
 50 47  2  0  0  0  0
 51 39  1  0  0  0  0
 51 52  2  0  0  0  0
 53 48  2  0  0  0  0
 53 50  1  0  0  0  0
M  END
>  <MODEL>
5

>  <REMARK>
 VINA RESULT:      -6.7      3.084      8.117
  Name = 
  16 active torsions:
  status: ('A' for Active; 'I' for Inactive)
    1  A    between atoms: C_2  and  C_3
    2  A    between atoms: C_3  and  N_14
    3  A    between atoms: C_4  and  O_30
    4  A    between atoms: C_5  and  C_46
    5  A    between atoms: C_5  and  C_53
    6  A    between atoms: C_7  and  C_50
    7  A    between atoms: C_18  and  C_19
    8  A    between atoms: C_18  and  C_32
    9  A    between atoms: C_19  and  O_30
   10  A    between atoms: C_20  and  N_27
   11  A    between atoms: C_21  and  C_34
   12  A    between atoms: C_23  and  C_25
   13  A    between atoms: C_23  and  N_38
   14  A    between atoms: O_26  and  C_32
   15  A    between atoms: C_42  and  C_45
   16  A    between atoms: N_43  and  C_53
                            x       y       z     vdW  Elec       q    Type
                         _______ _______ _______ _____ _____    ______ ____

>  <TORSDO>
F 16

$$$$
=
 OpenBabel11062414083D

 53 58  0  0  1  0  0  0  0  0999 V2000
  185.5890  178.2920  140.9970 N   0  0  0  0  0  0  0  0  0  0  0  0
  186.5440  178.4080  143.0530 N   0  0  0  0  0  0  0  0  0  0  0  0
  184.6260  177.9030  141.9240 N   0  0  0  0  0  0  0  0  0  0  0  0
  185.1630  177.9960  143.2710 C   0  0  0  0  0  3  0  0  0  0  0  0
  186.6740  178.5450  141.6430 C   0  0  0  0  0  0  0  0  0  0  0  0
  187.9250  179.0240  140.9830 C   0  0  0  0  0  2  0  0  0  0  0  0
  189.7550  177.4370  141.4520 C   0  0  0  0  0  3  0  0  0  0  0  0
  188.8060  177.8730  140.6120 C   0  0  0  0  0  0  0  0  0  0  0  0
  189.8260  177.6120  145.2800 C   0  0  1  0  0  3  0  0  0  0  0  0
  189.9800  178.0170  142.8120 C   0  0  2  0  0  3  0  0  0  0  0  0
  190.7390  178.8480  145.3050 C   0  0  0  0  0  2  0  0  0  0  0  0
  191.3200  178.6200  142.8810 N   0  0  0  0  0  2  0  0  0  0  0  0
  191.8470  178.7400  144.2530 C   0  0  0  0  0  2  0  0  0  0  0  0
  189.7790  176.9570  143.8930 C   0  0  0  0  0  2  0  0  0  0  0  0
  190.2540  176.5980  146.3370 C   0  0  2  0  0  3  0  0  0  0  0  0
  189.3720  176.6380  147.4200 O   0  0  0  0  0  1  0  0  0  0  0  0
  192.2500  175.6380  147.1060 C   0  0  0  0  0  1  0  0  0  0  0  0
  191.5990  176.9000  146.8040 N   0  0  0  0  0  2  0  0  0  0  0  0
  188.5660  178.0740  138.0680 C   0  0  0  0  0  0  0  0  0  0  0  0
  188.8190  179.3050  138.0380 O   0  0  0  0  0  0  0  0  0  0  0  0
  188.6860  177.3350  139.2900 N   0  0  0  0  0  2  0  0  0  0  0  0
  188.1660  177.4370  136.8890 O   0  0  0  0  0  0  0  0  0  0  0  0
  187.2860  176.3150  136.8420 C   0  0  1  0  0  3  0  0  0  0  0  0
  185.8720  176.7180  137.2160 C   0  0  0  0  0  1  0  0  0  0  0  0
  187.3070  175.6250  135.4800 C   0  0  0  0  0  2  0  0  0  0  0  0
  187.8270  174.2050  135.5930 C   0  0  0  0  0  2  0  0  0  0  0  0
  186.9890  173.4460  136.4090 O   0  0  0  0  0  0  0  0  0  0  0  0
  187.5590  172.1720  136.4120 C   0  0  0  0  0  1  0  0  0  0  0  0
  183.2290  177.6950  141.5710 C   0  0  0  0  0  2  0  0  0  0  0  0
  181.4180  179.1370  142.6070 C   0  0  0  0  0  2  0  0  0  0  0  0
  180.9700  178.8440  141.1930 C   0  0  1  0  0  3  0  0  0  0  0  0
  182.4610  179.0180  141.5090 C   0  0  2  0  0  3  0  0  0  0  0  0
  180.5520  177.4490  141.1100 N   0  0  0  0  0  2  0  0  0  0  0  0
  180.1330  176.8090  139.8980 C   0  0  0  0  0  0  0  0  0  0  0  0
  179.5190  175.7130  139.9780 O   0  0  0  0  0  0  0  0  0  0  0  0
  182.6690  177.4370  135.3880 C   0  0  0  0  0  0  0  0  0  0  0  0
  180.0630  179.1570  136.9450 C   0  0  0  0  0  0  0  0  0  0  0  0
  179.5060  180.2950  136.6490 C   0  0  0  0  0  0  0  0  0  0  0  0
  178.9510  181.4410  136.3570 C   0  0  0  0  0  3  0  0  0  0  0  0
  181.7870  177.6700  136.5820 C   0  0  1  0  0  3  0  0  0  0  0  0
  183.3310  176.3810  134.9150 C   0  0  0  0  0  2  0  0  0  0  0  0
  181.7320  178.8300  134.6150 S   0  0  0  0  0  0  0  0  0  0  0  0
  180.6340  178.2690  135.9000 C   0  0  2  0  0  3  0  0  0  0  0  0
  181.2970  176.6420  137.5830 C   0  0  0  0  0  2  0  0  0  0  0  0
  180.3880  177.3930  138.5650 C   0  0  0  0  0  0  0  0  0  0  0  0
  179.8590  178.5530  138.2410 N   0  0  0  0  0  0  0  0  0  0  0  0
  181.3660  184.2440  137.0380 C   0  0  0  0  0  0  0  0  0  0  0  0
  179.6270  183.4460  134.9970 C   0  0  0  0  0  3  0  0  0  0  0  0
  182.2340  184.6380  138.0480 O   0  0  0  0  0  1  0  0  0  0  0  0
  181.2600  185.0070  135.8710 C   0  0  0  0  0  3  0  0  0  0  0  0
  179.7300  182.6740  136.1680 C   0  0  0  0  0  0  0  0  0  0  0  0
  180.6020  183.0800  137.1860 C   0  0  0  0  0  3  0  0  0  0  0  0
  180.3910  184.6090  134.8500 C   0  0  0  0  0  3  0  0  0  0  0  0
  1  5  2  0  0  0  0
  1  3  1  0  0  0  0
  2  4  2  0  0  0  0
  3  4  1  0  0  0  0
  5  2  1  0  0  0  0
  6  5  1  0  0  0  0
  8  6  1  0  0  0  0
  8  7  2  0  0  0  0
  9 11  1  0  0  0  0
  9 15  1  1  0  0  0
 10  7  1  6  0  0  0
 10 12  1  0  0  0  0
 10 14  1  0  0  0  0
 12 13  1  0  0  0  0
 13 11  1  0  0  0  0
 14  9  1  0  0  0  0
 15 18  1  0  0  0  0
 15 16  1  1  0  0  0
 18 17  1  0  0  0  0
 19 21  1  0  0  0  0
 20 19  2  0  0  0  0
 21  8  1  0  0  0  0
 22 19  1  0  0  0  0
 23 22  1  0  0  0  0
 23 24  1  6  0  0  0
 25 26  1  0  0  0  0
 25 23  1  0  0  0  0
 26 27  1  0  0  0  0
 27 28  1  0  0  0  0
 29  3  1  0  0  0  0
 31 33  1  1  0  0  0
 31 32  1  0  0  0  0
 31 30  1  0  0  0  0
 32 29  1  1  0  0  0
 32 30  1  0  0  0  0
 34 35  2  0  0  0  0
 34 33  1  0  0  0  0
 36 40  1  0  0  0  0
 37 46  1  0  0  0  0
 38 37  2  0  0  0  0
 39 38  2  0  0  0  0
 40 44  1  6  0  0  0
 41 36  2  0  0  0  0
 42 36  1  0  0  0  0
 43 42  1  6  0  0  0
 43 40  1  0  0  0  0
 43 37  1  0  0  0  0
 44 45  1  0  0  0  0
 45 34  1  0  0  0  0
 46 45  2  0  0  0  0
 47 52  1  0  0  0  0
 47 49  1  0  0  0  0
 48 51  1  0  0  0  0
 50 47  2  0  0  0  0
 51 39  1  0  0  0  0
 51 52  2  0  0  0  0
 53 48  2  0  0  0  0
 53 50  1  0  0  0  0
M  END
>  <MODEL>
6

>  <REMARK>
 VINA RESULT:      -6.4      3.310      8.042
  Name = 
  16 active torsions:
  status: ('A' for Active; 'I' for Inactive)
    1  A    between atoms: C_2  and  C_3
    2  A    between atoms: C_3  and  N_14
    3  A    between atoms: C_4  and  O_30
    4  A    between atoms: C_5  and  C_46
    5  A    between atoms: C_5  and  C_53
    6  A    between atoms: C_7  and  C_50
    7  A    between atoms: C_18  and  C_19
    8  A    between atoms: C_18  and  C_32
    9  A    between atoms: C_19  and  O_30
   10  A    between atoms: C_20  and  N_27
   11  A    between atoms: C_21  and  C_34
   12  A    between atoms: C_23  and  C_25
   13  A    between atoms: C_23  and  N_38
   14  A    between atoms: O_26  and  C_32
   15  A    between atoms: C_42  and  C_45
   16  A    between atoms: N_43  and  C_53
                            x       y       z     vdW  Elec       q    Type
                         _______ _______ _______ _____ _____    ______ ____

>  <TORSDO>
F 16

$$$$
=
 OpenBabel11062414083D

 53 58  0  0  1  0  0  0  0  0999 V2000
  188.0340  177.9870  141.6750 N   0  0  0  0  0  0  0  0  0  0  0  0
  188.1880  176.3340  143.2240 N   0  0  0  0  0  0  0  0  0  0  0  0
  187.0020  178.1780  142.5890 N   0  0  0  0  0  0  0  0  0  0  0  0
  187.0690  177.1720  143.6360 C   0  0  0  0  0  3  0  0  0  0  0  0
  188.6780  176.9280  142.0270 C   0  0  0  0  0  0  0  0  0  0  0  0
  189.8780  176.4220  141.2980 C   0  0  0  0  0  2  0  0  0  0  0  0
  191.9130  177.6050  140.5600 C   0  0  0  0  0  3  0  0  0  0  0  0
  191.0640  177.2990  141.5500 C   0  0  0  0  0  0  0  0  0  0  0  0
  192.8880  176.4710  137.0300 C   0  0  1  0  0  3  0  0  0  0  0  0
  191.7310  177.1480  139.1480 C   0  0  2  0  0  3  0  0  0  0  0  0
  191.4850  175.9320  136.7100 C   0  0  0  0  0  2  0  0  0  0  0  0
  190.7620  176.0420  139.1040 N   0  0  0  0  0  2  0  0  0  0  0  0
  190.8900  175.1870  137.9090 C   0  0  0  0  0  2  0  0  0  0  0  0
  193.0690  176.7540  138.5280 C   0  0  0  0  0  2  0  0  0  0  0  0
  193.9670  175.5150  136.5310 C   0  0  2  0  0  3  0  0  0  0  0  0
  194.8910  175.2660  137.5480 O   0  0  0  0  0  1  0  0  0  0  0  0
  196.0510  175.6990  135.4740 C   0  0  0  0  0  1  0  0  0  0  0  0
  194.6570  176.0940  135.3880 N   0  0  0  0  0  2  0  0  0  0  0  0
  191.6460  176.8390  144.0030 C   0  0  0  0  0  0  0  0  0  0  0  0
  191.9760  175.6420  143.8080 O   0  0  0  0  0  0  0  0  0  0  0  0
  191.3290  177.6970  142.9000 N   0  0  0  0  0  2  0  0  0  0  0  0
  191.5950  177.3200  145.3150 O   0  0  0  0  0  0  0  0  0  0  0  0
  190.8060  176.7390  146.3530 C   0  0  1  0  0  3  0  0  0  0  0  0
  191.5670  176.7130  147.6650 C   0  0  0  0  0  1  0  0  0  0  0  0
  189.4650  177.4510  146.5220 C   0  0  0  0  0  2  0  0  0  0  0  0
  188.4870  176.5980  147.3060 C   0  0  0  0  0  2  0  0  0  0  0  0
  188.1440  177.2300  148.5010 O   0  0  0  0  0  0  0  0  0  0  0  0
  188.2160  178.5930  148.2120 C   0  0  0  0  0  1  0  0  0  0  0  0
  186.1650  179.3690  142.5980 C   0  0  0  0  0  2  0  0  0  0  0  0
  184.3900  177.7410  141.8020 C   0  0  0  0  0  2  0  0  0  0  0  0
  184.0420  179.0800  141.1920 C   0  0  1  0  0  3  0  0  0  0  0  0
  184.6770  179.0100  142.5870 C   0  0  2  0  0  3  0  0  0  0  0  0
  185.0000  179.3780  140.1320 N   0  0  0  0  0  2  0  0  0  0  0  0
  184.8660  178.9240  138.7790 C   0  0  0  0  0  0  0  0  0  0  0  0
  185.8730  178.9780  138.0250 O   0  0  0  0  0  0  0  0  0  0  0  0
  179.7210  178.1020  138.6820 C   0  0  0  0  0  0  0  0  0  0  0  0
  182.3970  176.8320  136.8390 C   0  0  0  0  0  0  0  0  0  0  0  0
  182.4470  175.8460  135.9900 C   0  0  0  0  0  0  0  0  0  0  0  0
  182.4990  174.8530  135.1430 C   0  0  0  0  0  3  0  0  0  0  0  0
  181.1990  177.9700  138.4460 C   0  0  1  0  0  3  0  0  0  0  0  0
  178.9490  179.0350  139.2390 C   0  0  0  0  0  2  0  0  0  0  0  0
  179.5430  176.9730  137.2290 S   0  0  0  0  0  0  0  0  0  0  0  0
  181.1730  177.6550  137.0130 C   0  0  2  0  0  3  0  0  0  0  0  0
  182.2720  179.0070  138.7110 C   0  0  0  0  0  2  0  0  0  0  0  0
  183.5970  178.3880  138.2460 C   0  0  0  0  0  0  0  0  0  0  0  0
  183.6090  177.3780  137.4020 N   0  0  0  0  0  0  0  0  0  0  0  0
  182.5090  171.2190  136.1120 C   0  0  0  0  0  0  0  0  0  0  0  0
  180.6370  173.1970  135.4770 C   0  0  0  0  0  3  0  0  0  0  0  0
  183.4380  170.2380  136.4340 O   0  0  0  0  0  1  0  0  0  0  0  0
  181.1450  170.9170  136.1180 C   0  0  0  0  0  3  0  0  0  0  0  0
  182.0090  173.5060  135.4690 C   0  0  0  0  0  0  0  0  0  0  0  0
  182.9400  172.5110  135.7870 C   0  0  0  0  0  3  0  0  0  0  0  0
  180.2070  171.9050  135.8000 C   0  0  0  0  0  3  0  0  0  0  0  0
  1  5  2  0  0  0  0
  1  3  1  0  0  0  0
  2  4  2  0  0  0  0
  3 29  1  0  0  0  0
  3  4  1  0  0  0  0
  5  2  1  0  0  0  0
  6  8  1  0  0  0  0
  6  5  1  0  0  0  0
  7  8  2  0  0  0  0
  8 21  1  0  0  0  0
  9 15  1  1  0  0  0
  9 14  1  0  0  0  0
 10  7  1  1  0  0  0
 11  9  1  0  0  0  0
 11 13  1  0  0  0  0
 12 10  1  0  0  0  0
 13 12  1  0  0  0  0
 14 10  1  0  0  0  0
 15 16  1  1  0  0  0
 18 17  1  0  0  0  0
 18 15  1  0  0  0  0
 19 22  1  0  0  0  0
 20 19  2  0  0  0  0
 21 19  1  0  0  0  0
 22 23  1  0  0  0  0
 23 25  1  0  0  0  0
 23 24  1  1  0  0  0
 25 26  1  0  0  0  0
 26 27  1  0  0  0  0
 28 27  1  0  0  0  0
 30 32  1  0  0  0  0
 31 33  1  6  0  0  0
 31 30  1  0  0  0  0
 31 32  1  0  0  0  0
 32 29  1  6  0  0  0
 34 33  1  0  0  0  0
 35 34  2  0  0  0  0
 36 41  2  0  0  0  0
 37 46  1  0  0  0  0
 38 37  2  0  0  0  0
 39 51  1  0  0  0  0
 39 38  2  0  0  0  0
 40 36  1  0  0  0  0
 40 44  1  6  0  0  0
 42 36  1  0  0  0  0
 43 37  1  1  0  0  0
 43 42  1  0  0  0  0
 43 40  1  0  0  0  0
 45 44  1  0  0  0  0
 45 34  1  0  0  0  0
 46 45  2  0  0  0  0
 47 50  1  0  0  0  0
 47 49  1  0  0  0  0
 48 53  1  0  0  0  0
 51 48  2  0  0  0  0
 51 52  1  0  0  0  0
 52 47  2  0  0  0  0
 53 50  2  0  0  0  0
M  END
>  <MODEL>
7

>  <REMARK>
 VINA RESULT:      -6.4      1.687      2.435
  Name = 
  16 active torsions:
  status: ('A' for Active; 'I' for Inactive)
    1  A    between atoms: C_2  and  C_3
    2  A    between atoms: C_3  and  N_14
    3  A    between atoms: C_4  and  O_30
    4  A    between atoms: C_5  and  C_46
    5  A    between atoms: C_5  and  C_53
    6  A    between atoms: C_7  and  C_50
    7  A    between atoms: C_18  and  C_19
    8  A    between atoms: C_18  and  C_32
    9  A    between atoms: C_19  and  O_30
   10  A    between atoms: C_20  and  N_27
   11  A    between atoms: C_21  and  C_34
   12  A    between atoms: C_23  and  C_25
   13  A    between atoms: C_23  and  N_38
   14  A    between atoms: O_26  and  C_32
   15  A    between atoms: C_42  and  C_45
   16  A    between atoms: N_43  and  C_53
                            x       y       z     vdW  Elec       q    Type
                         _______ _______ _______ _____ _____    ______ ____

>  <TORSDO>
F 16

$$$$
=
 OpenBabel11062414083D

 53 58  0  0  1  0  0  0  0  0999 V2000
  188.4520  178.0360  141.1690 N   0  0  0  0  0  0  0  0  0  0  0  0
  190.0780  177.0790  142.4310 N   0  0  0  0  0  0  0  0  0  0  0  0
  189.3400  177.4140  140.2970 N   0  0  0  0  0  0  0  0  0  0  0  0
  190.3890  176.7430  141.0470 C   0  0  0  0  0  3  0  0  0  0  0  0
  188.8940  177.8650  142.3670 C   0  0  0  0  0  0  0  0  0  0  0  0
  188.1840  178.3690  143.5800 C   0  0  0  0  0  2  0  0  0  0  0  0
  186.4650  177.1460  144.8600 C   0  0  0  0  0  3  0  0  0  0  0  0
  186.8370  177.7300  143.7130 C   0  0  0  0  0  0  0  0  0  0  0  0
  189.6540  176.9000  146.9720 C   0  0  1  0  0  3  0  0  0  0  0  0
  187.3200  177.1220  146.0860 C   0  0  2  0  0  3  0  0  0  0  0  0
  188.9810  177.4700  148.2310 C   0  0  0  0  0  2  0  0  0  0  0  0
  186.9790  178.2600  146.9540 N   0  0  0  0  0  2  0  0  0  0  0  0
  188.0570  178.6410  147.8840 C   0  0  0  0  0  2  0  0  0  0  0  0
  188.8010  177.1170  145.7150 C   0  0  0  0  0  2  0  0  0  0  0  0
  191.0470  177.4920  146.7840 C   0  0  2  0  0  3  0  0  0  0  0  0
  191.4140  177.4270  145.4370 O   0  0  0  0  0  1  0  0  0  0  0  0
  191.7970  175.3390  147.3300 C   0  0  0  0  0  1  0  0  0  0  0  0
  192.0160  176.7520  147.5800 N   0  0  0  0  0  2  0  0  0  0  0  0
  185.1810  178.6920  142.0090 C   0  0  0  0  0  0  0  0  0  0  0  0
  185.3090  179.8800  142.4000 O   0  0  0  0  0  0  0  0  0  0  0  0
  186.0130  177.6550  142.5440 N   0  0  0  0  0  2  0  0  0  0  0  0
  184.2140  178.4000  141.0420 O   0  0  0  0  0  0  0  0  0  0  0  0
  182.8180  178.2800  141.3140 C   0  0  1  0  0  3  0  0  0  0  0  0
  182.4920  178.7730  142.7110 C   0  0  0  0  0  1  0  0  0  0  0  0
  181.9650  179.0040  140.2750 C   0  0  0  0  0  2  0  0  0  0  0  0
  182.8040  179.4490  139.0920 C   0  0  0  0  0  2  0  0  0  0  0  0
  181.9910  180.0080  138.1060 O   0  0  0  0  0  0  0  0  0  0  0  0
  181.4100  181.1210  138.7170 C   0  0  0  0  0  1  0  0  0  0  0  0
  189.0760  177.2660  138.8730 C   0  0  0  0  0  2  0  0  0  0  0  0
  191.1130  176.7240  137.4620 C   0  0  0  0  0  2  0  0  0  0  0  0
  189.9210  176.1640  136.7190 C   0  0  1  0  0  3  0  0  0  0  0  0
  189.9420  176.1660  138.2530 C   0  0  2  0  0  3  0  0  0  0  0  0
  189.1580  177.2700  136.1470 N   0  0  0  0  0  2  0  0  0  0  0  0
  187.7990  177.1620  135.7060 C   0  0  0  0  0  0  0  0  0  0  0  0
  187.3340  178.0700  134.9670 O   0  0  0  0  0  0  0  0  0  0  0  0
  185.8330  172.3520  135.3100 C   0  0  0  0  0  0  0  0  0  0  0  0
  184.9940  175.1460  137.2250 C   0  0  0  0  0  0  0  0  0  0  0  0
  183.9540  175.3770  137.9720 C   0  0  0  0  0  0  0  0  0  0  0  0
  182.9080  175.6130  138.7170 C   0  0  0  0  0  3  0  0  0  0  0  0
  186.0110  173.8050  135.6490 C   0  0  1  0  0  3  0  0  0  0  0  0
  186.6260  171.4160  134.7900 C   0  0  0  0  0  2  0  0  0  0  0  0
  184.5330  172.3630  136.6250 S   0  0  0  0  0  0  0  0  0  0  0  0
  185.5350  173.7750  137.0370 C   0  0  2  0  0  3  0  0  0  0  0  0
  187.2870  174.6200  135.5760 C   0  0  0  0  0  2  0  0  0  0  0  0
  186.9330  176.0250  136.0800 C   0  0  0  0  0  0  0  0  0  0  0  0
  185.8620  176.2260  136.8170 N   0  0  0  0  0  0  0  0  0  0  0  0
  180.0310  174.7060  136.4690 C   0  0  0  0  0  0  0  0  0  0  0  0
  180.4230  175.9080  138.9640 C   0  0  0  0  0  3  0  0  0  0  0  0
  179.8350  174.1040  135.2330 O   0  0  0  0  0  1  0  0  0  0  0  0
  178.9320  175.1440  137.2140 C   0  0  0  0  0  3  0  0  0  0  0  0
  181.5320  175.4680  138.2200 C   0  0  0  0  0  0  0  0  0  0  0  0
  181.3280  174.8690  136.9710 C   0  0  0  0  0  3  0  0  0  0  0  0
  179.1270  175.7460  138.4620 C   0  0  0  0  0  3  0  0  0  0  0  0
  1  5  2  0  0  0  0
  3  4  1  0  0  0  0
  3  1  1  0  0  0  0
  4  2  2  0  0  0  0
  5  2  1  0  0  0  0
  5  6  1  0  0  0  0
  6  8  1  0  0  0  0
  8  7  2  0  0  0  0
  9 15  1  6  0  0  0
  9 11  1  0  0  0  0
 10  7  1  6  0  0  0
 10 12  1  0  0  0  0
 12 13  1  0  0  0  0
 13 11  1  0  0  0  0
 14 10  1  0  0  0  0
 14  9  1  0  0  0  0
 15 16  1  6  0  0  0
 15 18  1  0  0  0  0
 17 18  1  0  0  0  0
 19 20  2  0  0  0  0
 19 21  1  0  0  0  0
 21  8  1  0  0  0  0
 22 23  1  0  0  0  0
 22 19  1  0  0  0  0
 23 24  1  1  0  0  0
 25 23  1  0  0  0  0
 26 25  1  0  0  0  0
 27 28  1  0  0  0  0
 27 26  1  0  0  0  0
 29  3  1  0  0  0  0
 30 32  1  0  0  0  0
 31 33  1  1  0  0  0
 31 30  1  0  0  0  0
 31 32  1  0  0  0  0
 32 29  1  1  0  0  0
 34 45  1  0  0  0  0
 34 33  1  0  0  0  0
 35 34  2  0  0  0  0
 36 40  1  0  0  0  0
 36 42  1  0  0  0  0
 37 38  2  0  0  0  0
 38 39  2  0  0  0  0
 40 44  1  1  0  0  0
 40 43  1  0  0  0  0
 41 36  2  0  0  0  0
 43 42  1  6  0  0  0
 43 37  1  0  0  0  0
 44 45  1  0  0  0  0
 45 46  2  0  0  0  0
 46 37  1  0  0  0  0
 47 52  2  0  0  0  0
 47 50  1  0  0  0  0
 49 47  1  0  0  0  0
 50 53  2  0  0  0  0
 51 39  1  0  0  0  0
 51 48  2  0  0  0  0
 52 51  1  0  0  0  0
 53 48  1  0  0  0  0
M  END
>  <MODEL>
8

>  <REMARK>
 VINA RESULT:      -6.4      2.194      7.451
  Name = 
  16 active torsions:
  status: ('A' for Active; 'I' for Inactive)
    1  A    between atoms: C_2  and  C_3
    2  A    between atoms: C_3  and  N_14
    3  A    between atoms: C_4  and  O_30
    4  A    between atoms: C_5  and  C_46
    5  A    between atoms: C_5  and  C_53
    6  A    between atoms: C_7  and  C_50
    7  A    between atoms: C_18  and  C_19
    8  A    between atoms: C_18  and  C_32
    9  A    between atoms: C_19  and  O_30
   10  A    between atoms: C_20  and  N_27
   11  A    between atoms: C_21  and  C_34
   12  A    between atoms: C_23  and  C_25
   13  A    between atoms: C_23  and  N_38
   14  A    between atoms: O_26  and  C_32
   15  A    between atoms: C_42  and  C_45
   16  A    between atoms: N_43  and  C_53
                            x       y       z     vdW  Elec       q    Type
                         _______ _______ _______ _____ _____    ______ ____

>  <TORSDO>
F 16

$$$$
=
 OpenBabel11062414083D

 53 58  0  0  1  0  0  0  0  0999 V2000
  190.2780  176.2900  138.8970 N   0  0  0  0  0  0  0  0  0  0  0  0
  188.5720  177.7780  138.7300 N   0  0  0  0  0  0  0  0  0  0  0  0
  190.5280  177.3100  139.8100 N   0  0  0  0  0  0  0  0  0  0  0  0
  189.4450  178.2800  139.7830 C   0  0  0  0  0  3  0  0  0  0  0  0
  189.1890  176.5790  138.2740 C   0  0  0  0  0  0  0  0  0  0  0  0
  188.5830  175.6970  137.2330 C   0  0  0  0  0  2  0  0  0  0  0  0
  187.5810  176.5450  135.1450 C   0  0  0  0  0  3  0  0  0  0  0  0
  188.6800  176.3250  135.8790 C   0  0  0  0  0  0  0  0  0  0  0  0
  184.6450  174.4340  136.4170 C   0  0  1  0  0  3  0  0  0  0  0  0
  186.1980  176.2330  135.6200 C   0  0  2  0  0  3  0  0  0  0  0  0
  183.8340  175.6590  136.8710 C   0  0  0  0  0  2  0  0  0  0  0  0
  185.8000  177.1930  136.6610 N   0  0  0  0  0  2  0  0  0  0  0  0
  184.7310  176.6980  137.5480 C   0  0  0  0  0  2  0  0  0  0  0  0
  186.1070  174.7910  136.1140 C   0  0  0  0  0  2  0  0  0  0  0  0
  184.5690  173.3160  137.4530 C   0  0  2  0  0  3  0  0  0  0  0  0
  185.8420  173.0580  137.9690 O   0  0  0  0  0  1  0  0  0  0  0  0
  182.6700  171.9520  137.2820 C   0  0  0  0  0  1  0  0  0  0  0  0
  184.0450  172.1040  136.8410 N   0  0  0  0  0  2  0  0  0  0  0  0
  190.9410  175.5860  134.9240 C   0  0  0  0  0  0  0  0  0  0  0  0
  190.5940  174.3910  134.7510 O   0  0  0  0  0  0  0  0  0  0  0  0
  189.9860  176.5680  135.3440 N   0  0  0  0  0  2  0  0  0  0  0  0
  192.2740  175.9420  134.6980 O   0  0  0  0  0  0  0  0  0  0  0  0
  193.3210  175.7790  135.6540 C   0  0  1  0  0  3  0  0  0  0  0  0
  192.8070  175.1120  136.9150 C   0  0  0  0  0  1  0  0  0  0  0  0
  194.5070  175.0060  135.0820 C   0  0  0  0  0  2  0  0  0  0  0  0
  195.4010  174.4770  136.1870 C   0  0  0  0  0  2  0  0  0  0  0  0
  196.2430  175.4850  136.6530 O   0  0  0  0  0  0  0  0  0  0  0  0
  197.5090  174.8970  136.6940 C   0  0  0  0  0  1  0  0  0  0  0  0
  191.5910  177.2410  140.8020 C   0  0  0  0  0  2  0  0  0  0  0  0
  191.9650  177.8500  143.2350 C   0  0  0  0  0  2  0  0  0  0  0  0
  190.4680  177.8590  143.0210 C   0  0  1  0  0  3  0  0  0  0  0  0
  191.4110  178.2990  141.8930 C   0  0  2  0  0  3  0  0  0  0  0  0
  190.0030  176.4820  142.8860 N   0  0  0  0  0  2  0  0  0  0  0  0
  188.6640  176.0580  143.1720 C   0  0  0  0  0  0  0  0  0  0  0  0
  188.4420  174.8260  143.3100 O   0  0  0  0  0  0  0  0  0  0  0  0
  184.8170  178.5260  145.6750 C   0  0  0  0  0  0  0  0  0  0  0  0
  185.8370  178.4140  142.3400 C   0  0  0  0  0  0  0  0  0  0  0  0
  185.2580  178.8610  141.2640 C   0  0  0  0  0  0  0  0  0  0  0  0
  184.6750  179.3040  140.1820 C   0  0  0  0  0  3  0  0  0  0  0  0
  185.6850  177.9490  144.5930 C   0  0  1  0  0  3  0  0  0  0  0  0
  184.9490  178.6720  146.9930 C   0  0  0  0  0  2  0  0  0  0  0  0
  184.0840  179.5560  144.3250 S   0  0  0  0  0  0  0  0  0  0  0  0
  185.6640  179.0790  143.6570 C   0  0  2  0  0  3  0  0  0  0  0  0
  187.1060  177.4360  144.7250 C   0  0  0  0  0  2  0  0  0  0  0  0
  187.5450  177.0110  143.3180 C   0  0  0  0  0  0  0  0  0  0  0  0
  186.9240  177.4670  142.2510 N   0  0  0  0  0  0  0  0  0  0  0  0
  181.3120  179.4260  138.5010 C   0  0  0  0  0  0  0  0  0  0  0  0
  182.6190  177.8770  140.4280 C   0  0  0  0  0  3  0  0  0  0  0  0
  180.6640  180.1900  137.5390 O   0  0  0  0  0  1  0  0  0  0  0  0
  180.6510  178.3490  139.0980 C   0  0  0  0  0  3  0  0  0  0  0  0
  183.2900  178.9590  139.8300 C   0  0  0  0  0  0  0  0  0  0  0  0
  182.6290  179.7310  138.8670 C   0  0  0  0  0  3  0  0  0  0  0  0
  181.3030  177.5740  140.0620 C   0  0  0  0  0  3  0  0  0  0  0  0
  1  3  1  0  0  0  0
  2  4  2  0  0  0  0
  3 29  1  0  0  0  0
  4  3  1  0  0  0  0
  5  2  1  0  0  0  0
  5  1  2  0  0  0  0
  6  5  1  0  0  0  0
  7  8  2  0  0  0  0
  8  6  1  0  0  0  0
  9 11  1  0  0  0  0
  9 15  1  1  0  0  0
 10  7  1  1  0  0  0
 10 14  1  0  0  0  0
 10 12  1  0  0  0  0
 11 13  1  0  0  0  0
 12 13  1  0  0  0  0
 14  9  1  0  0  0  0
 15 16  1  6  0  0  0
 18 17  1  0  0  0  0
 18 15  1  0  0  0  0
 19 21  1  0  0  0  0
 20 19  2  0  0  0  0
 21  8  1  0  0  0  0
 22 19  1  0  0  0  0
 22 23  1  0  0  0  0
 23 24  1  1  0  0  0
 25 23  1  0  0  0  0
 25 26  1  0  0  0  0
 26 27  1  0  0  0  0
 27 28  1  0  0  0  0
 31 33  1  6  0  0  0
 31 30  1  0  0  0  0
 32 29  1  6  0  0  0
 32 31  1  0  0  0  0
 32 30  1  0  0  0  0
 33 34  1  0  0  0  0
 34 35  2  0  0  0  0
 34 45  1  0  0  0  0
 36 41  2  0  0  0  0
 38 37  2  0  0  0  0
 39 38  2  0  0  0  0
 40 44  1  1  0  0  0
 40 36  1  0  0  0  0
 42 36  1  0  0  0  0
 43 37  1  6  0  0  0
 43 42  1  0  0  0  0
 43 40  1  0  0  0  0
 45 44  1  0  0  0  0
 46 37  1  0  0  0  0
 46 45  2  0  0  0  0
 47 52  2  0  0  0  0
 47 50  1  0  0  0  0
 49 47  1  0  0  0  0
 50 53  2  0  0  0  0
 51 39  1  0  0  0  0
 51 48  2  0  0  0  0
 52 51  1  0  0  0  0
 53 48  1  0  0  0  0
M  END
>  <MODEL>
9

>  <REMARK>
 VINA RESULT:      -6.3      3.106      8.305
  Name = 
  16 active torsions:
  status: ('A' for Active; 'I' for Inactive)
    1  A    between atoms: C_2  and  C_3
    2  A    between atoms: C_3  and  N_14
    3  A    between atoms: C_4  and  O_30
    4  A    between atoms: C_5  and  C_46
    5  A    between atoms: C_5  and  C_53
    6  A    between atoms: C_7  and  C_50
    7  A    between atoms: C_18  and  C_19
    8  A    between atoms: C_18  and  C_32
    9  A    between atoms: C_19  and  O_30
   10  A    between atoms: C_20  and  N_27
   11  A    between atoms: C_21  and  C_34
   12  A    between atoms: C_23  and  C_25
   13  A    between atoms: C_23  and  N_38
   14  A    between atoms: O_26  and  C_32
   15  A    between atoms: C_42  and  C_45
   16  A    between atoms: N_43  and  C_53
                            x       y       z     vdW  Elec       q    Type
                         _______ _______ _______ _____ _____    ______ ____

>  <TORSDO>
F 16

$$$$
