=
 OpenBabel11062416553D

 56 63  0  0  1  0  0  0  0  0999 V2000
  182.1740  179.2110  140.0150 C   0  0  0  0  0  0  0  0  0  0  0  0
  186.0710  175.5140  136.1640 C   0  0  0  0  0  2  0  0  0  0  0  0
  184.6140  175.7250  136.5310 C   0  0  0  0  0  2  0  0  0  0  0  0
  187.8010  175.4680  137.7410 O   0  0  0  0  0  0  0  0  0  0  0  0
  180.5190  178.4400  137.1440 C   0  0  2  0  0  0  0  0  0  0  0  0
  180.2390  179.0260  142.2100 C   0  0  0  0  0  2  0  0  0  0  0  0
  181.7330  179.2190  142.4210 C   0  0  0  0  0  2  0  0  0  0  0  0
  186.8330  176.1370  137.2150 C   0  0  0  0  0  0  0  0  0  0  0  0
  178.9320  182.1560  137.4750 C   0  0  0  0  0  2  0  0  0  0  0  0
  179.7600  179.7960  137.6300 C   0  0  1  0  0  3  0  0  0  0  0  0
  179.8650  181.1230  135.5560 O   0  0  0  0  0  1  0  0  0  0  0  0
  185.2060  177.9580  137.6280 C   0  0  0  0  0  0  0  0  0  0  0  0
  182.5080  178.7340  141.2290 C   0  0  0  0  0  3  0  0  0  0  0  0
  179.6590  177.3090  137.7300 C   0  0  0  0  0  1  0  0  0  0  0  0
  182.9300  177.6460  136.4780 C   0  0  0  0  0  3  0  0  0  0  0  0
  180.5370  180.6500  138.5800 C   0  0  1  0  0  3  0  0  0  0  0  0
  187.8110  178.1440  137.8860 C   0  0  0  0  0  0  0  0  0  0  0  0
  186.6140  177.4880  137.7320 N   0  0  0  0  0  0  0  0  0  0  0  0
  182.0880  178.1330  137.6610 C   0  0  0  0  0  0  0  0  0  0  0  0
  184.5430  178.6860  138.6410 C   0  0  0  0  0  3  0  0  0  0  0  0
  179.7410  179.5380  140.8280 C   0  0  0  0  0  2  0  0  0  0  0  0
  188.5850  178.3320  136.8460 O   0  0  0  0  0  0  0  0  0  0  0  0
  180.0510  182.1140  138.5040 C   0  0  0  0  0  2  0  0  0  0  0  0
  180.8940  180.0810  139.9720 C   0  0  1  0  0  3  0  0  0  0  0  0
  182.9660  178.8460  138.7450 C   0  0  0  0  0  0  0  0  0  0  0  0
  184.3320  177.2200  136.6710 C   0  0  0  0  0  0  0  0  0  0  0  0
  179.0610  180.8560  136.6660 C   0  0  2  0  0  3  0  0  0  0  0  0
  190.2690  177.6370  140.6600 N   0  0  0  0  0  0  0  0  0  0  0  0
  190.4700  177.8350  138.3330 O   0  0  0  0  0  0  0  0  0  0  0  0
  188.4390  178.3580  139.3060 C   0  0  1  0  0  3  0  0  0  0  0  0
  189.1780  177.8290  141.5680 C   0  0  0  0  0  2  0  0  0  0  0  0
  187.9400  177.9100  140.7260 C   0  0  1  0  0  3  0  0  0  0  0  0
  189.7620  177.8540  139.3520 C   0  0  0  0  0  0  0  0  0  0  0  0
  191.3430  176.7040  140.8990 C   0  0  2  0  0  3  0  0  0  0  0  0
  192.2190  176.8600  142.2040 C   0  0  1  0  0  3  0  0  0  0  0  0
  192.6430  177.5060  140.8380 C   0  0  1  0  0  3  0  0  0  0  0  0
  191.2480  177.3540  143.3370 C   0  0  2  0  0  3  0  0  0  0  0  0
  190.9900  178.6220  145.6710 C   0  0  0  0  0  2  0  0  0  0  0  0
  191.4130  179.0740  143.9860 S   0  0  0  0  0  0  0  0  0  0  0  0
  190.7180  177.0990  145.7880 C   0  0  0  0  0  2  0  0  0  0  0  0
  191.3550  176.5210  144.5520 C   0  0  1  0  0  3  0  0  0  0  0  0
  191.4280  175.0860  144.1500 N   0  0  0  0  0  2  0  0  0  0  0  0
  192.2830  174.2170  144.9780 C   0  0  0  0  0  2  0  0  0  0  0  0
  192.6460  174.9790  146.2140 N   0  0  0  0  0  1  0  0  0  0  0  0
  193.1320  177.0410  138.3640 C   0  0  0  0  0  2  0  0  0  0  0  0
  194.5430  176.3070  140.0130 O   0  0  0  0  0  1  0  0  0  0  0  0
  193.4300  176.9650  139.6940 C   0  0  0  0  0  0  0  0  0  0  0  0
  186.2170  178.2010  142.8090 C   0  0  0  0  0  2  0  0  0  0  0  0
  186.8410  177.8180  141.7370 C   0  0  0  0  0  2  0  0  0  0  0  0
  185.6400  178.9250  143.9600 C   0  0  1  0  0  3  0  0  0  0  0  0
  184.8270  180.0740  143.6260 N   0  0  0  0  0  1  0  0  0  0  0  0
  183.8160  178.9160  145.5200 O   0  0  0  0  0  1  0  0  0  0  0  0
  184.8430  178.1200  145.0080 C   0  0  0  0  0  3  0  0  0  0  0  0
  185.6750  177.6840  146.0320 O   0  0  0  0  0  1  0  0  0  0  0  0
  179.8140  177.0530  134.8120 C   0  0  0  0  0  1  0  0  0  0  0  0
  180.3990  178.2970  135.5620 C   0  0  0  0  0  2  0  0  0  0  0  0
  1 13  2  0  0  0  0
  2  3  1  0  0  0  0
  2  8  1  0  0  0  0
  3 26  1  0  0  0  0
  5 10  1  0  0  0  0
  5 19  1  0  0  0  0
  5 14  1  1  0  0  0
  6  7  1  0  0  0  0
  8 18  1  0  0  0  0
  8  4  2  0  0  0  0
  9 23  1  0  0  0  0
 10 16  1  0  0  0  0
 11 27  1  0  0  0  0
 12 18  1  0  0  0  0
 12 20  1  0  0  0  0
 13  7  1  0  0  0  0
 15 26  1  0  0  0  0
 15 19  2  0  0  0  0
 16 24  1  0  0  0  0
 17 30  1  0  0  0  0
 18 17  1  0  0  0  0
 19 25  1  0  0  0  0
 20 25  2  0  0  0  0
 21  6  1  0  0  0  0
 22 17  2  0  0  0  0
 23 16  1  0  0  0  0
 24  1  1  0  0  0  0
 24 21  1  0  0  0  0
 25  1  1  0  0  0  0
 26 12  2  0  0  0  0
 27  9  1  0  0  0  0
 27 10  1  0  0  0  0
 28 34  1  0  0  0  0
 28 31  1  0  0  0  0
 29 33  2  0  0  0  0
 30 33  1  0  0  0  0
 30 32  1  0  0  0  0
 32 31  1  0  0  0  0
 32 49  1  0  0  0  0
 33 28  1  0  0  0  0
 34 35  1  0  0  0  0
 35 37  1  0  0  0  0
 36 34  1  0  0  0  0
 36 35  1  0  0  0  0
 37 39  1  0  0  0  0
 37 41  1  0  0  0  0
 38 40  1  0  0  0  0
 39 38  1  0  0  0  0
 41 40  1  0  0  0  0
 42 41  1  0  0  0  0
 42 43  1  0  0  0  0
 43 44  1  0  0  0  0
 45 47  2  0  0  0  0
 47 46  1  0  0  0  0
 47 36  1  0  0  0  0
 48 50  1  0  0  0  0
 49 48  1  0  0  0  0
 50 53  1  0  0  0  0
 51 50  1  0  0  0  0
 53 52  1  0  0  0  0
 53 54  1  0  0  0  0
 55 56  1  0  0  0  0
 56  5  1  0  0  0  0
M  END
>  <MODEL>
1

>  <REMARK>
 VINA RESULT:      -6.6      0.000      0.000
  Name = 
  10 active torsions:
  status: ('A' for Active; 'I' for Inactive)
    1  A    between atoms: C_3  and  C_32
    2  A    between atoms: C_8  and  C_35
    3  A    between atoms: N_9  and  C_17
    4  A    between atoms: N_13  and  C_28
    5  A    between atoms: N_13  and  C_41
    6  A    between atoms: CA_29  and  C_30
    7  A    between atoms: CA_29  and  C_38
    8  A    between atoms: C_34  and  C_37
    9  A    between atoms: C_40  and  C_42
   10  A    between atoms: C_53  and  C_55
                            x       y       z     vdW  Elec       q    Type
                         _______ _______ _______ _____ _____    ______ ____

>  <TORSDO>
F 10

$$$$
=
 OpenBabel11062416553D

 56 63  0  0  1  0  0  0  0  0999 V2000
  183.4540  177.7420  139.2580 C   0  0  0  0  0  0  0  0  0  0  0  0
  184.4600  172.5520  135.2920 C   0  0  0  0  0  2  0  0  0  0  0  0
  183.3540  173.3150  135.9960 C   0  0  0  0  0  2  0  0  0  0  0  0
  186.4980  172.0090  136.3070 O   0  0  0  0  0  0  0  0  0  0  0  0
  180.7940  177.3890  137.1650 C   0  0  2  0  0  0  0  0  0  0  0  0
  182.3940  178.4730  141.8930 C   0  0  0  0  0  2  0  0  0  0  0  0
  183.8530  178.1190  141.6410 C   0  0  0  0  0  2  0  0  0  0  0  0
  185.6820  172.9390  135.9470 C   0  0  0  0  0  0  0  0  0  0  0  0
  180.6920  181.4430  137.1810 C   0  0  0  0  0  2  0  0  0  0  0  0
  180.7170  178.9660  137.5640 C   0  0  1  0  0  3  0  0  0  0  0  0
  180.5580  179.9760  135.3220 O   0  0  0  0  0  1  0  0  0  0  0  0
  184.9590  175.2590  136.4240 C   0  0  0  0  0  0  0  0  0  0  0  0
  183.9930  177.2820  140.4030 C   0  0  0  0  0  3  0  0  0  0  0  0
  179.8580  176.7090  138.1770 C   0  0  0  0  0  1  0  0  0  0  0  0
  182.4600  175.7090  136.0310 C   0  0  0  0  0  3  0  0  0  0  0  0
  181.9930  179.5530  138.0750 C   0  0  1  0  0  3  0  0  0  0  0  0
  187.4180  174.4950  135.9130 C   0  0  0  0  0  0  0  0  0  0  0  0
  186.0920  174.3150  136.2280 N   0  0  0  0  0  0  0  0  0  0  0  0
  182.2580  176.5720  137.2800 C   0  0  0  0  0  0  0  0  0  0  0  0
  184.9370  176.2660  137.4170 C   0  0  0  0  0  3  0  0  0  0  0  0
  181.6650  179.0110  140.6290 C   0  0  0  0  0  2  0  0  0  0  0  0
  187.8250  174.2940  134.6850 O   0  0  0  0  0  0  0  0  0  0  0  0
  182.0090  181.0800  137.8490 C   0  0  0  0  0  2  0  0  0  0  0  0
  182.5830  179.0150  139.3990 C   0  0  1  0  0  3  0  0  0  0  0  0
  183.6230  177.0030  137.9180 C   0  0  0  0  0  0  0  0  0  0  0  0
  183.6320  174.8150  135.9110 C   0  0  0  0  0  0  0  0  0  0  0  0
  180.1220  180.1220  136.6400 C   0  0  2  0  0  3  0  0  0  0  0  0
  189.7320  176.1840  138.3190 N   0  0  0  0  0  0  0  0  0  0  0  0
  187.5250  176.5870  137.6380 O   0  0  0  0  0  0  0  0  0  0  0  0
  188.5100  174.5850  137.0340 C   0  0  1  0  0  3  0  0  0  0  0  0
  190.6430  175.1030  138.0920 C   0  0  0  0  0  2  0  0  0  0  0  0
  190.0490  174.2750  136.9930 C   0  0  1  0  0  3  0  0  0  0  0  0
  188.5470  175.8840  137.5970 C   0  0  0  0  0  0  0  0  0  0  0  0
  190.1560  177.5480  138.5230 C   0  0  2  0  0  3  0  0  0  0  0  0
  189.8080  178.2630  139.8870 C   0  0  1  0  0  3  0  0  0  0  0  0
  188.8860  178.3920  138.6250 C   0  0  1  0  0  3  0  0  0  0  0  0
  189.9020  177.1620  141.0050 C   0  0  2  0  0  3  0  0  0  0  0  0
  189.5340  176.5410  143.5740 C   0  0  0  0  0  2  0  0  0  0  0  0
  188.4870  176.9280  142.1670 S   0  0  0  0  0  0  0  0  0  0  0  0
  191.0350  176.5960  143.1840 C   0  0  0  0  0  2  0  0  0  0  0  0
  191.0490  177.3940  141.9080 C   0  0  1  0  0  3  0  0  0  0  0  0
  192.2330  177.7880  141.0920 N   0  0  0  0  0  2  0  0  0  0  0  0
  193.0080  176.6880  140.4890 C   0  0  0  0  0  2  0  0  0  0  0  0
  193.6440  177.2090  139.2390 N   0  0  0  0  0  1  0  0  0  0  0  0
  189.0470  180.7020  137.5220 C   0  0  0  0  0  2  0  0  0  0  0  0
  188.7480  178.8070  136.2720 O   0  0  0  0  0  1  0  0  0  0  0  0
  188.9090  179.3460  137.4790 C   0  0  0  0  0  0  0  0  0  0  0  0
  192.4240  173.0440  136.5100 C   0  0  0  0  0  2  0  0  0  0  0  0
  191.1690  173.3560  136.6230 C   0  0  0  0  0  2  0  0  0  0  0  0
  193.8900  172.8990  136.6300 C   0  0  1  0  0  3  0  0  0  0  0  0
  194.6550  173.3680  135.4960 N   0  0  0  0  0  1  0  0  0  0  0  0
  195.4170  174.5260  137.5150 O   0  0  0  0  0  1  0  0  0  0  0  0
  194.5820  173.4690  137.8860 C   0  0  0  0  0  3  0  0  0  0  0  0
  195.3110  172.4820  138.5380 O   0  0  0  0  0  1  0  0  0  0  0  0
  178.9470  176.1740  135.4420 C   0  0  0  0  0  1  0  0  0  0  0  0
  180.1230  177.1650  135.7380 C   0  0  0  0  0  2  0  0  0  0  0  0
  1 24  1  0  0  0  0
  1 13  2  0  0  0  0
  2  8  1  0  0  0  0
  2  3  1  0  0  0  0
  5 19  1  0  0  0  0
  5 10  1  0  0  0  0
  5 14  1  1  0  0  0
  7  6  1  0  0  0  0
  8 18  1  0  0  0  0
  8  4  2  0  0  0  0
  9 23  1  0  0  0  0
 10 16  1  0  0  0  0
 11 27  1  0  0  0  0
 12 20  1  0  0  0  0
 13  7  1  0  0  0  0
 15 19  2  0  0  0  0
 16 24  1  0  0  0  0
 17 18  1  0  0  0  0
 17 30  1  0  0  0  0
 18 12  1  0  0  0  0
 19 25  1  0  0  0  0
 20 25  2  0  0  0  0
 21  6  1  0  0  0  0
 22 17  2  0  0  0  0
 23 16  1  0  0  0  0
 24 21  1  0  0  0  0
 25  1  1  0  0  0  0
 26  3  1  0  0  0  0
 26 15  1  0  0  0  0
 26 12  2  0  0  0  0
 27  9  1  0  0  0  0
 27 10  1  0  0  0  0
 28 34  1  0  0  0  0
 30 33  1  0  0  0  0
 31 28  1  0  0  0  0
 32 30  1  0  0  0  0
 32 31  1  0  0  0  0
 33 29  2  0  0  0  0
 33 28  1  0  0  0  0
 34 36  1  0  0  0  0
 34 35  1  0  0  0  0
 35 37  1  0  0  0  0
 36 35  1  0  0  0  0
 37 41  1  0  0  0  0
 37 39  1  0  0  0  0
 39 38  1  0  0  0  0
 40 38  1  0  0  0  0
 41 40  1  0  0  0  0
 42 41  1  0  0  0  0
 43 42  1  0  0  0  0
 44 43  1  0  0  0  0
 46 47  1  0  0  0  0
 47 45  2  0  0  0  0
 47 36  1  0  0  0  0
 48 49  1  0  0  0  0
 48 50  1  0  0  0  0
 49 32  1  0  0  0  0
 50 53  1  0  0  0  0
 51 50  1  0  0  0  0
 52 53  1  0  0  0  0
 53 54  1  0  0  0  0
 55 56  1  0  0  0  0
 56  5  1  0  0  0  0
M  END
>  <MODEL>
2

>  <REMARK>
 VINA RESULT:      -4.7      2.867      5.489
  Name = 
  10 active torsions:
  status: ('A' for Active; 'I' for Inactive)
    1  A    between atoms: C_3  and  C_32
    2  A    between atoms: C_8  and  C_35
    3  A    between atoms: N_9  and  C_17
    4  A    between atoms: N_13  and  C_28
    5  A    between atoms: N_13  and  C_41
    6  A    between atoms: CA_29  and  C_30
    7  A    between atoms: CA_29  and  C_38
    8  A    between atoms: C_34  and  C_37
    9  A    between atoms: C_40  and  C_42
   10  A    between atoms: C_53  and  C_55
                            x       y       z     vdW  Elec       q    Type
                         _______ _______ _______ _____ _____    ______ ____

>  <TORSDO>
F 10

$$$$
