=
 OpenBabel11062413053D

 40 44  0  0  1  0  0  0  0  0999 V2000
  181.2170  177.5580  139.9440 C   0  0  2  0  0  3  0  0  0  0  0  0
  185.4630  179.0370  142.3920 C   0  0  0  0  0  2  0  0  0  0  0  0
  185.9270  178.5650  138.2230 S   0  0  0  0  0  0  0  0  0  0  0  0
  187.5330  174.0510  136.4680 O   0  0  0  0  0  0  0  0  0  0  0  0
  184.5960  178.0860  142.8570 O   0  0  0  0  0  0  0  0  0  0  0  0
  185.4760  175.2150  136.0960 C   0  0  0  0  0  2  0  0  0  0  0  0
  182.6870  175.3840  138.2660 C   0  0  2  0  0  3  0  0  0  0  0  0
  182.0460  178.5760  140.7040 C   0  0  0  0  0  2  0  0  0  0  0  0
  187.7900  177.6070  135.7720 C   0  0  1  0  0  3  0  0  0  0  0  0
  186.9420  175.3070  136.4760 C   0  0  2  0  0  3  0  0  0  0  0  0
  187.6910  176.1010  135.4550 C   0  0  2  0  0  3  0  0  0  0  0  0
  184.0300  178.9880  141.9070 C   0  0  2  0  0  0  0  0  0  0  0  0
  183.2210  174.8020  137.0180 C   0  0  2  0  0  3  0  0  0  0  0  0
  182.4850  174.0340  137.9370 O   0  0  0  0  0  0  0  0  0  0  0  0
  185.4500  178.0010  139.8770 C   0  0  0  0  0  2  0  0  0  0  0  0
  188.9400  175.5000  135.3170 O   0  0  0  0  0  0  0  0  0  0  0  0
  188.4370  178.0030  137.1280 C   0  0  1  0  0  0  0  0  0  0  0  0
  184.3250  178.8980  140.4150 C   0  0  1  0  0  3  0  0  0  0  0  0
  181.4800  176.1410  137.9760 N   0  0  0  0  0  2  0  0  0  0  0  0
  188.4280  178.3290  134.5940 C   0  0  0  0  0  1  0  0  0  0  0  0
  188.6480  179.3900  137.1480 O   0  0  0  0  0  1  0  0  0  0  0  0
  181.6900  177.4810  138.5010 C   0  0  0  0  0  2  0  0  0  0  0  0
  188.8490  174.2930  136.0370 C   0  0  0  0  0  2  0  0  0  0  0  0
  184.6970  174.5300  137.2030 C   0  0  0  0  0  2  0  0  0  0  0  0
  183.3550  178.0190  141.0020 N   0  0  2  0  0  0  0  0  0  0  0  0
  187.4970  177.6380  138.2860 C   0  0  0  0  0  2  0  0  0  0  0  0
  179.4690  178.0490  139.9860 S   0  0  0  0  0  0  0  0  0  0  0  0
  179.2580  178.1030  142.6520 N   0  0  0  0  0  2  0  0  0  0  0  0
  179.6260  178.7670  141.6190 C   0  0  0  0  0  3  0  0  0  0  0  0
  189.7220  177.3100  137.2830 N   0  0  0  0  0  2  0  0  0  0  0  0
  190.8100  175.5430  138.6140 C   0  0  0  0  0  1  0  0  0  0  0  0
  189.8520  176.7270  138.6220 C   0  0  1  0  0  3  0  0  0  0  0  0
  190.1830  177.6960  139.5980 O   0  0  0  0  0  0  0  0  0  0  0  0
  190.1510  177.1070  140.8760 C   0  0  2  0  0  3  0  0  0  0  0  0
  188.6260  178.8030  141.5630 O   0  0  0  0  0  0  0  0  0  0  0  0
  188.9560  177.5910  141.6280 C   0  0  0  0  0  0  0  0  0  0  0  0
  188.1950  176.7070  142.3850 O   0  0  0  0  0  1  0  0  0  0  0  0
  191.4100  177.4690  141.6460 C   0  0  0  0  0  2  0  0  0  0  0  0
  191.2560  177.1460  142.9940 O   0  0  0  0  0  0  0  0  0  0  0  0
  191.7040  178.2740  143.6780 C   0  0  0  0  0  1  0  0  0  0  0  0
  1 27  1  6  0  0  0
  1  8  1  0  0  0  0
  2  5  1  0  0  0  0
  3 26  1  0  0  0  0
  3 15  1  0  0  0  0
  4 10  1  0  0  0  0
  6 24  1  0  0  0  0
  7 14  1  1  0  0  0
  9 20  1  6  0  0  0
  9 17  1  0  0  0  0
 10  6  1  6  0  0  0
 11 16  1  1  0  0  0
 11  9  1  0  0  0  0
 11 10  1  0  0  0  0
 12  2  1  1  0  0  0
 12  5  1  0  0  0  0
 13 24  1  1  0  0  0
 13 14  1  0  0  0  0
 13  7  1  0  0  0  0
 16 23  1  0  0  0  0
 17 21  1  1  0  0  0
 17 30  1  0  0  0  0
 17 26  1  0  0  0  0
 18 15  1  1  0  0  0
 18 25  1  0  0  0  0
 18 12  1  0  0  0  0
 19  7  1  0  0  0  0
 19 22  1  0  0  0  0
 22  1  1  0  0  0  0
 23  4  1  0  0  0  0
 25  8  1  6  0  0  0
 25 12  1  0  0  0  0
 27 29  1  0  0  0  0
 29 28  2  0  0  0  0
 30 32  1  0  0  0  0
 32 31  1  6  0  0  0
 32 33  1  0  0  0  0
 33 34  1  0  0  0  0
 34 36  1  0  0  0  0
 34 38  1  1  0  0  0
 35 36  2  0  0  0  0
 36 37  1  0  0  0  0
 38 39  1  0  0  0  0
 39 40  1  0  0  0  0
M  END
>  <MODEL>
1

>  <REMARK>
 VINA RESULT:      -5.6      0.000      0.000
  Name = 
  9 active torsions:
  status: ('A' for Active; 'I' for Inactive)
    1  A    between atoms: C_1  and  S_5
    2  A    between atoms: O_2  and  C_17
    3  A    between atoms: S_5  and  C_35
    4  A    between atoms: C_6  and  C_17
    5  A    between atoms: C_6  and  C_21
    6  A    between atoms: C_6  and  O_27
    7  A    between atoms: C_19  and  O_27
    8  A    between atoms: C_19  and  N_32
    9  A    between atoms: C_28  and  N_32
                            x       y       z     vdW  Elec       q    Type
                         _______ _______ _______ _____ _____    ______ ____

>  <TORSDO>
F 9

$$$$
=
 OpenBabel11062413053D

 40 44  0  0  1  0  0  0  0  0999 V2000
  180.5930  178.2610  140.7790 C   0  0  2  0  0  3  0  0  0  0  0  0
  185.2660  178.9580  142.7530 C   0  0  0  0  0  2  0  0  0  0  0  0
  185.1840  178.5980  138.5480 S   0  0  0  0  0  0  0  0  0  0  0  0
  185.8480  173.9680  136.5090 O   0  0  0  0  0  0  0  0  0  0  0  0
  184.3160  178.1340  143.2920 O   0  0  0  0  0  0  0  0  0  0  0  0
  183.9740  175.4510  136.4070 C   0  0  0  0  0  2  0  0  0  0  0  0
  181.5040  175.9590  138.8900 C   0  0  2  0  0  3  0  0  0  0  0  0
  181.6530  179.1050  141.4630 C   0  0  0  0  0  2  0  0  0  0  0  0
  186.5880  177.4670  135.8750 C   0  0  1  0  0  3  0  0  0  0  0  0
  185.4680  175.2990  136.6160 C   0  0  2  0  0  3  0  0  0  0  0  0
  186.2160  176.0100  135.5350 C   0  0  2  0  0  3  0  0  0  0  0  0
  183.7980  179.1530  142.4370 C   0  0  2  0  0  0  0  0  0  0  0  0
  181.7980  175.3550  137.5740 C   0  0  2  0  0  3  0  0  0  0  0  0
  181.0550  174.6710  138.5530 O   0  0  0  0  0  0  0  0  0  0  0  0
  184.8100  178.0450  140.2320 C   0  0  0  0  0  2  0  0  0  0  0  0
  187.3310  175.2290  135.2380 O   0  0  0  0  0  0  0  0  0  0  0  0
  187.4360  177.7000  137.1550 C   0  0  1  0  0  0  0  0  0  0  0  0
  183.9080  179.0810  140.9190 C   0  0  1  0  0  3  0  0  0  0  0  0
  180.4090  176.9050  138.7600 N   0  0  0  0  0  2  0  0  0  0  0  0
  187.1980  178.1310  134.6480 C   0  0  0  0  0  1  0  0  0  0  0  0
  187.8660  179.0350  137.1850 O   0  0  0  0  0  1  0  0  0  0  0  0
  180.8860  178.1720  139.2890 C   0  0  0  0  0  2  0  0  0  0  0  0
  187.1290  174.0210  135.9340 C   0  0  0  0  0  2  0  0  0  0  0  0
  183.2230  174.8490  137.5790 C   0  0  0  0  0  2  0  0  0  0  0  0
  182.8820  178.3400  141.5920 N   0  0  2  0  0  0  0  0  0  0  0  0
  186.5830  177.4360  138.4060 C   0  0  0  0  0  2  0  0  0  0  0  0
  178.9610  179.0140  141.0360 S   0  0  0  0  0  0  0  0  0  0  0  0
  179.2970  178.2500  143.5770 N   0  0  0  0  0  2  0  0  0  0  0  0
  179.2590  179.2570  142.7860 C   0  0  0  0  0  3  0  0  0  0  0  0
  188.6040  176.8100  137.1440 N   0  0  0  0  0  2  0  0  0  0  0  0
  189.7790  177.1990  139.2760 C   0  0  0  0  0  1  0  0  0  0  0  0
  189.7640  177.4490  137.7730 C   0  0  1  0  0  3  0  0  0  0  0  0
  190.9790  177.0900  137.1440 O   0  0  0  0  0  0  0  0  0  0  0  0
  191.6990  176.2130  137.9770 C   0  0  2  0  0  3  0  0  0  0  0  0
  193.4050  177.1180  139.3710 O   0  0  0  0  0  1  0  0  0  0  0  0
  193.0700  176.7500  138.2150 C   0  0  0  0  0  0  0  0  0  0  0  0
  193.9850  176.8310  137.1720 O   0  0  0  0  0  0  0  0  0  0  0  0
  191.8010  174.8450  137.3230 C   0  0  0  0  0  2  0  0  0  0  0  0
  190.6510  174.1010  137.5860 O   0  0  0  0  0  0  0  0  0  0  0  0
  190.4980  173.2860  136.4670 C   0  0  0  0  0  1  0  0  0  0  0  0
  1 27  1  6  0  0  0
  1  8  1  0  0  0  0
  2  5  1  0  0  0  0
  3 15  1  0  0  0  0
  4 10  1  0  0  0  0
  6 24  1  0  0  0  0
  7 14  1  1  0  0  0
  9 20  1  6  0  0  0
  9 17  1  0  0  0  0
 10  6  1  6  0  0  0
 11 16  1  1  0  0  0
 11  9  1  0  0  0  0
 11 10  1  0  0  0  0
 12  2  1  1  0  0  0
 12  5  1  0  0  0  0
 13 24  1  1  0  0  0
 13 14  1  0  0  0  0
 13  7  1  0  0  0  0
 16 23  1  0  0  0  0
 17 21  1  1  0  0  0
 17 26  1  0  0  0  0
 18 15  1  1  0  0  0
 18 25  1  0  0  0  0
 18 12  1  0  0  0  0
 19  7  1  0  0  0  0
 19 22  1  0  0  0  0
 22  1  1  0  0  0  0
 23  4  1  0  0  0  0
 25  8  1  6  0  0  0
 25 12  1  0  0  0  0
 26  3  1  0  0  0  0
 27 29  1  0  0  0  0
 29 28  2  0  0  0  0
 30 17  1  0  0  0  0
 30 32  1  0  0  0  0
 32 31  1  1  0  0  0
 33 32  1  0  0  0  0
 33 34  1  0  0  0  0
 34 38  1  6  0  0  0
 34 36  1  0  0  0  0
 36 35  1  0  0  0  0
 37 36  2  0  0  0  0
 38 39  1  0  0  0  0
 40 39  1  0  0  0  0
M  END
>  <MODEL>
2

>  <REMARK>
 VINA RESULT:      -5.5      1.913      2.894
  Name = 
  9 active torsions:
  status: ('A' for Active; 'I' for Inactive)
    1  A    between atoms: C_1  and  S_5
    2  A    between atoms: O_2  and  C_17
    3  A    between atoms: S_5  and  C_35
    4  A    between atoms: C_6  and  C_17
    5  A    between atoms: C_6  and  C_21
    6  A    between atoms: C_6  and  O_27
    7  A    between atoms: C_19  and  O_27
    8  A    between atoms: C_19  and  N_32
    9  A    between atoms: C_28  and  N_32
                            x       y       z     vdW  Elec       q    Type
                         _______ _______ _______ _____ _____    ______ ____

>  <TORSDO>
F 9

$$$$
=
 OpenBabel11062413053D

 40 44  0  0  1  0  0  0  0  0999 V2000
  190.4220  176.0900  137.2040 C   0  0  2  0  0  3  0  0  0  0  0  0
  186.2560  173.3940  135.9450 C   0  0  0  0  0  2  0  0  0  0  0  0
  185.4580  177.3220  137.2690 S   0  0  0  0  0  0  0  0  0  0  0  0
  184.4880  178.0480  142.2250 O   0  0  0  0  0  0  0  0  0  0  0  0
  187.3170  172.8910  136.6470 O   0  0  0  0  0  0  0  0  0  0  0  0
  186.2630  178.8820  140.8570 C   0  0  0  0  0  2  0  0  0  0  0  0
  189.1870  177.1600  139.8550 C   0  0  2  0  0  3  0  0  0  0  0  0
  189.5120  175.4130  136.1970 C   0  0  0  0  0  2  0  0  0  0  0  0
  183.5500  179.3040  138.9490 C   0  0  1  0  0  3  0  0  0  0  0  0
  184.8500  178.3330  140.9160 C   0  0  2  0  0  3  0  0  0  0  0  0
  183.8750  179.3680  140.4550 C   0  0  2  0  0  3  0  0  0  0  0  0
  187.6190  174.0480  135.8680 C   0  0  2  0  0  0  0  0  0  0  0  0
  188.6370  178.2090  140.7390 C   0  0  2  0  0  3  0  0  0  0  0  0
  189.5850  177.2760  141.1980 O   0  0  0  0  0  0  0  0  0  0  0  0
  186.1920  175.6730  137.4280 C   0  0  0  0  0  2  0  0  0  0  0  0
  182.7410  179.2350  141.2530 O   0  0  0  0  0  0  0  0  0  0  0  0
  182.9850  177.9640  138.4040 C   0  0  1  0  0  0  0  0  0  0  0  0
  187.1930  175.4500  136.2850 C   0  0  1  0  0  3  0  0  0  0  0  0
  190.2090  177.7320  138.9950 N   0  0  0  0  0  2  0  0  0  0  0  0
  182.6800  180.4950  138.5710 C   0  0  0  0  0  1  0  0  0  0  0  0
  182.5400  178.1540  137.0870 O   0  0  0  0  0  1  0  0  0  0  0  0
  189.8250  177.4230  137.6270 C   0  0  0  0  0  2  0  0  0  0  0  0
  183.1130  178.3370  142.2720 C   0  0  0  0  0  2  0  0  0  0  0  0
  187.2580  177.7870  141.1920 C   0  0  0  0  0  2  0  0  0  0  0  0
  188.3560  174.8540  136.8780 N   0  0  2  0  0  0  0  0  0  0  0  0
  184.0880  176.8940  138.3940 C   0  0  0  0  0  2  0  0  0  0  0  0
  192.0540  176.3630  136.4550 S   0  0  0  0  0  0  0  0  0  0  0  0
  193.5400  176.7440  138.6460 N   0  0  0  0  0  2  0  0  0  0  0  0
  192.9120  175.8720  137.9490 C   0  0  0  0  0  3  0  0  0  0  0  0
  181.8620  177.5230  139.2410 N   0  0  0  0  0  2  0  0  0  0  0  0
  180.7860  175.6100  138.1190 C   0  0  0  0  0  1  0  0  0  0  0  0
  180.7220  177.1020  138.4200 C   0  0  1  0  0  3  0  0  0  0  0  0
  179.4850  177.4980  138.9800 O   0  0  0  0  0  0  0  0  0  0  0  0
  179.7150  178.2200  140.1670 C   0  0  2  0  0  3  0  0  0  0  0  0
  179.2170  177.9470  142.4800 O   0  0  0  0  0  1  0  0  0  0  0  0
  179.2880  177.4090  141.3450 C   0  0  0  0  0  0  0  0  0  0  0  0
  178.9510  176.0700  141.1920 O   0  0  0  0  0  0  0  0  0  0  0  0
  178.9310  179.5220  140.1420 C   0  0  0  0  0  2  0  0  0  0  0  0
  179.7450  180.5770  140.5540 O   0  0  0  0  0  0  0  0  0  0  0  0
  179.3630  181.6480  139.7490 C   0  0  0  0  0  1  0  0  0  0  0  0
  1 27  1  6  0  0  0
  1 22  1  0  0  0  0
  2  5  1  0  0  0  0
  3 15  1  0  0  0  0
  3 26  1  0  0  0  0
  4 23  1  0  0  0  0
  6 24  1  0  0  0  0
  7 19  1  6  0  0  0
  7 13  1  0  0  0  0
  7 14  1  0  0  0  0
  8  1  1  0  0  0  0
  9 20  1  1  0  0  0
  9 11  1  0  0  0  0
 10  6  1  1  0  0  0
 10  4  1  0  0  0  0
 11 10  1  0  0  0  0
 11 16  1  1  0  0  0
 12  2  1  6  0  0  0
 12 18  1  0  0  0  0
 12  5  1  0  0  0  0
 12 25  1  0  0  0  0
 13 24  1  1  0  0  0
 13 14  1  0  0  0  0
 16 23  1  0  0  0  0
 17 21  1  6  0  0  0
 17  9  1  0  0  0  0
 17 30  1  0  0  0  0
 18 25  1  0  0  0  0
 18 15  1  1  0  0  0
 22 19  1  0  0  0  0
 25  8  1  6  0  0  0
 26 17  1  0  0  0  0
 27 29  1  0  0  0  0
 29 28  2  0  0  0  0
 32 31  1  1  0  0  0
 32 33  1  0  0  0  0
 32 30  1  0  0  0  0
 33 34  1  0  0  0  0
 34 38  1  6  0  0  0
 34 36  1  0  0  0  0
 36 35  1  0  0  0  0
 37 36  2  0  0  0  0
 38 39  1  0  0  0  0
 40 39  1  0  0  0  0
M  END
>  <MODEL>
3

>  <REMARK>
 VINA RESULT:      -5.1      2.715      8.961
  Name = 
  9 active torsions:
  status: ('A' for Active; 'I' for Inactive)
    1  A    between atoms: C_1  and  S_5
    2  A    between atoms: O_2  and  C_17
    3  A    between atoms: S_5  and  C_35
    4  A    between atoms: C_6  and  C_17
    5  A    between atoms: C_6  and  C_21
    6  A    between atoms: C_6  and  O_27
    7  A    between atoms: C_19  and  O_27
    8  A    between atoms: C_19  and  N_32
    9  A    between atoms: C_28  and  N_32
                            x       y       z     vdW  Elec       q    Type
                         _______ _______ _______ _____ _____    ______ ____

>  <TORSDO>
F 9

$$$$
=
 OpenBabel11062413053D

 40 44  0  0  1  0  0  0  0  0999 V2000
  188.4950  176.7050  137.8780 C   0  0  2  0  0  3  0  0  0  0  0  0
  184.9320  173.2870  136.5220 C   0  0  0  0  0  2  0  0  0  0  0  0
  183.4640  177.2030  137.0970 S   0  0  0  0  0  0  0  0  0  0  0  0
  181.6720  178.4570  141.7070 O   0  0  0  0  0  0  0  0  0  0  0  0
  185.9290  173.0450  137.4270 O   0  0  0  0  0  0  0  0  0  0  0  0
  183.5180  179.3420  140.4700 C   0  0  0  0  0  2  0  0  0  0  0  0
  186.7500  177.9400  140.1430 C   0  0  2  0  0  3  0  0  0  0  0  0
  187.8380  175.7720  136.8790 C   0  0  0  0  0  2  0  0  0  0  0  0
  181.0930  179.1010  138.1800 C   0  0  1  0  0  3  0  0  0  0  0  0
  182.1910  178.6080  140.4290 C   0  0  2  0  0  3  0  0  0  0  0  0
  181.1760  179.4180  139.6870 C   0  0  2  0  0  3  0  0  0  0  0  0
  186.2000  174.1150  136.5230 C   0  0  2  0  0  0  0  0  0  0  0  0
  185.9470  179.0100  140.7720 C   0  0  2  0  0  3  0  0  0  0  0  0
  186.9230  178.2960  141.4910 O   0  0  0  0  0  0  0  0  0  0  0  0
  184.3630  175.7150  137.6080 C   0  0  0  0  0  2  0  0  0  0  0  0
  179.9600  179.2330  140.3400 O   0  0  0  0  0  0  0  0  0  0  0  0
  180.7880  177.6300  137.7820 C   0  0  1  0  0  0  0  0  0  0  0  0
  185.5460  175.4840  136.6560 C   0  0  1  0  0  3  0  0  0  0  0  0
  187.8120  178.5300  139.3450 N   0  0  0  0  0  2  0  0  0  0  0  0
  180.1500  180.0890  137.5090 C   0  0  0  0  0  1  0  0  0  0  0  0
  180.5270  177.5710  136.4050 O   0  0  0  0  0  1  0  0  0  0  0  0
  187.6800  177.9830  138.0040 C   0  0  0  0  0  2  0  0  0  0  0  0
  180.2810  178.5470  141.5270 C   0  0  0  0  0  2  0  0  0  0  0  0
  184.5780  178.4590  141.1000 C   0  0  0  0  0  2  0  0  0  0  0  0
  186.6700  175.1510  137.4820 N   0  0  2  0  0  0  0  0  0  0  0  0
  182.0030  176.7400  138.0860 C   0  0  0  0  0  2  0  0  0  0  0  0
  190.1750  177.1060  137.3170 S   0  0  0  0  0  0  0  0  0  0  0  0
  190.7120  176.4150  139.8440 N   0  0  0  0  0  2  0  0  0  0  0  0
  190.9290  176.1280  138.6140 C   0  0  0  0  0  3  0  0  0  0  0  0
  179.6140  177.1520  138.5240 N   0  0  0  0  0  2  0  0  0  0  0  0
  179.2880  175.3790  140.2060 C   0  0  0  0  0  1  0  0  0  0  0  0
  179.6980  175.7100  138.7760 C   0  0  1  0  0  3  0  0  0  0  0  0
  178.9880  174.9560  137.8120 O   0  0  0  0  0  0  0  0  0  0  0  0
  179.7730  173.8620  137.3990 C   0  0  2  0  0  3  0  0  0  0  0  0
  181.5350  173.9150  135.7960 O   0  0  0  0  0  1  0  0  0  0  0  0
  180.3150  174.1140  136.0310 C   0  0  0  0  0  0  0  0  0  0  0  0
  179.4780  174.5500  135.0120 O   0  0  0  0  0  0  0  0  0  0  0  0
  178.9310  172.5970  137.3800 C   0  0  0  0  0  2  0  0  0  0  0  0
  179.7510  171.4790  137.2300 O   0  0  0  0  0  0  0  0  0  0  0  0
  179.0770  170.6710  136.3170 C   0  0  0  0  0  1  0  0  0  0  0  0
  1 27  1  6  0  0  0
  1 22  1  0  0  0  0
  2  5  1  0  0  0  0
  3 15  1  0  0  0  0
  3 26  1  0  0  0  0
  6 24  1  0  0  0  0
  7 19  1  6  0  0  0
  7 13  1  0  0  0  0
  7 14  1  0  0  0  0
  8  1  1  0  0  0  0
  9 20  1  1  0  0  0
  9 11  1  0  0  0  0
 10  6  1  1  0  0  0
 10  4  1  0  0  0  0
 11 16  1  1  0  0  0
 11 10  1  0  0  0  0
 12  2  1  6  0  0  0
 12 18  1  0  0  0  0
 12  5  1  0  0  0  0
 12 25  1  0  0  0  0
 13 24  1  1  0  0  0
 13 14  1  0  0  0  0
 16 23  1  0  0  0  0
 17 21  1  6  0  0  0
 17 26  1  0  0  0  0
 17  9  1  0  0  0  0
 17 30  1  0  0  0  0
 18 25  1  0  0  0  0
 18 15  1  1  0  0  0
 22 19  1  0  0  0  0
 23  4  1  0  0  0  0
 25  8  1  6  0  0  0
 27 29  1  0  0  0  0
 29 28  2  0  0  0  0
 30 32  1  0  0  0  0
 32 31  1  1  0  0  0
 33 32  1  0  0  0  0
 34 38  1  6  0  0  0
 34 33  1  0  0  0  0
 35 36  1  0  0  0  0
 36 34  1  0  0  0  0
 37 36  2  0  0  0  0
 39 38  1  0  0  0  0
 40 39  1  0  0  0  0
M  END
>  <MODEL>
4

>  <REMARK>
 VINA RESULT:      -5.1      2.790      9.257
  Name = 
  9 active torsions:
  status: ('A' for Active; 'I' for Inactive)
    1  A    between atoms: C_1  and  S_5
    2  A    between atoms: O_2  and  C_17
    3  A    between atoms: S_5  and  C_35
    4  A    between atoms: C_6  and  C_17
    5  A    between atoms: C_6  and  C_21
    6  A    between atoms: C_6  and  O_27
    7  A    between atoms: C_19  and  O_27
    8  A    between atoms: C_19  and  N_32
    9  A    between atoms: C_28  and  N_32
                            x       y       z     vdW  Elec       q    Type
                         _______ _______ _______ _____ _____    ______ ____

>  <TORSDO>
F 9

$$$$
=
 OpenBabel11062413053D

 40 44  0  0  1  0  0  0  0  0999 V2000
  181.5360  178.2840  139.0190 C   0  0  2  0  0  3  0  0  0  0  0  0
  185.6940  179.2060  141.8600 C   0  0  0  0  0  2  0  0  0  0  0  0
  186.5170  178.1100  137.8670 S   0  0  0  0  0  0  0  0  0  0  0  0
  187.3190  173.1780  136.8350 O   0  0  0  0  0  0  0  0  0  0  0  0
  184.5990  178.5140  142.2980 O   0  0  0  0  0  0  0  0  0  0  0  0
  185.6100  174.6640  136.0630 C   0  0  0  0  0  2  0  0  0  0  0  0
  182.6930  175.6620  137.7980 C   0  0  2  0  0  3  0  0  0  0  0  0
  182.4700  179.2090  139.7750 C   0  0  0  0  0  2  0  0  0  0  0  0
  188.4000  176.4910  135.8110 C   0  0  1  0  0  3  0  0  0  0  0  0
  187.0100  174.5160  136.6300 C   0  0  2  0  0  3  0  0  0  0  0  0
  188.0210  175.0060  135.6440 C   0  0  2  0  0  3  0  0  0  0  0  0
  184.3470  179.3770  141.1900 C   0  0  2  0  0  0  0  0  0  0  0  0
  183.2300  174.8280  136.7030 C   0  0  2  0  0  3  0  0  0  0  0  0
  182.2480  174.3460  137.5880 O   0  0  0  0  0  0  0  0  0  0  0  0
  185.7470  177.8730  139.4900 C   0  0  0  0  0  2  0  0  0  0  0  0
  189.1220  174.1580  135.7430 O   0  0  0  0  0  0  0  0  0  0  0  0
  188.9580  176.9270  137.1940 C   0  0  1  0  0  0  0  0  0  0  0  0
  184.7840  179.0360  139.7710 C   0  0  1  0  0  3  0  0  0  0  0  0
  181.7150  176.5960  137.2660 N   0  0  0  0  0  2  0  0  0  0  0  0
  189.3060  176.9130  134.6630 C   0  0  0  0  0  1  0  0  0  0  0  0
  189.4550  178.2350  137.0980 O   0  0  0  0  0  1  0  0  0  0  0  0
  182.1430  177.9260  137.6710 C   0  0  0  0  0  2  0  0  0  0  0  0
  188.6960  173.0980  136.5660 C   0  0  0  0  0  2  0  0  0  0  0  0
  184.5840  174.2970  137.1170 C   0  0  0  0  0  2  0  0  0  0  0  0
  183.5900  178.4500  140.3070 N   0  0  2  0  0  0  0  0  0  0  0  0
  187.8370  176.9090  138.2430 C   0  0  0  0  0  2  0  0  0  0  0  0
  179.9380  179.1100  138.7680 S   0  0  0  0  0  0  0  0  0  0  0  0
  180.0590  181.1990  137.1030 N   0  0  0  0  0  2  0  0  0  0  0  0
  180.5490  180.0450  137.3690 C   0  0  0  0  0  3  0  0  0  0  0  0
  190.0410  176.0210  137.5970 N   0  0  0  0  0  2  0  0  0  0  0  0
  191.6990  176.8070  139.2440 C   0  0  0  0  0  1  0  0  0  0  0  0
  191.3020  176.7480  137.7740 C   0  0  1  0  0  3  0  0  0  0  0  0
  192.3320  176.2420  136.9460 O   0  0  0  0  0  0  0  0  0  0  0  0
  192.9650  175.1610  137.5890 C   0  0  2  0  0  3  0  0  0  0  0  0
  194.9360  175.9510  136.5090 O   0  0  0  0  0  0  0  0  0  0  0  0
  194.4460  175.2920  137.4630 C   0  0  0  0  0  0  0  0  0  0  0  0
  195.2870  174.7050  138.4010 O   0  0  0  0  0  1  0  0  0  0  0  0
  192.5200  173.8510  136.9600 C   0  0  0  0  0  2  0  0  0  0  0  0
  192.4250  173.9930  135.5760 O   0  0  0  0  0  0  0  0  0  0  0  0
  192.9970  172.8310  135.0640 C   0  0  0  0  0  1  0  0  0  0  0  0
  1 27  1  6  0  0  0
  1  8  1  0  0  0  0
  2  5  1  0  0  0  0
  3 26  1  0  0  0  0
  3 15  1  0  0  0  0
  6 24  1  0  0  0  0
  7 19  1  6  0  0  0
  9 20  1  6  0  0  0
  9 17  1  0  0  0  0
 10  6  1  6  0  0  0
 10  4  1  0  0  0  0
 11 16  1  1  0  0  0
 11  9  1  0  0  0  0
 11 10  1  0  0  0  0
 12  2  1  1  0  0  0
 12  5  1  0  0  0  0
 13 24  1  1  0  0  0
 13 14  1  0  0  0  0
 13  7  1  0  0  0  0
 14  7  1  0  0  0  0
 16 23  1  0  0  0  0
 17 21  1  6  0  0  0
 17 30  1  0  0  0  0
 17 26  1  0  0  0  0
 18 15  1  1  0  0  0
 18 25  1  0  0  0  0
 18 12  1  0  0  0  0
 19 22  1  0  0  0  0
 22  1  1  0  0  0  0
 23  4  1  0  0  0  0
 25  8  1  6  0  0  0
 25 12  1  0  0  0  0
 28 29  2  0  0  0  0
 29 27  1  0  0  0  0
 30 32  1  0  0  0  0
 32 31  1  1  0  0  0
 33 34  1  0  0  0  0
 33 32  1  0  0  0  0
 34 38  1  6  0  0  0
 35 36  2  0  0  0  0
 36 34  1  0  0  0  0
 36 37  1  0  0  0  0
 39 38  1  0  0  0  0
 40 39  1  0  0  0  0
M  END
>  <MODEL>
5

>  <REMARK>
 VINA RESULT:      -4.7      2.346      3.666
  Name = 
  9 active torsions:
  status: ('A' for Active; 'I' for Inactive)
    1  A    between atoms: C_1  and  S_5
    2  A    between atoms: O_2  and  C_17
    3  A    between atoms: S_5  and  C_35
    4  A    between atoms: C_6  and  C_17
    5  A    between atoms: C_6  and  C_21
    6  A    between atoms: C_6  and  O_27
    7  A    between atoms: C_19  and  O_27
    8  A    between atoms: C_19  and  N_32
    9  A    between atoms: C_28  and  N_32
                            x       y       z     vdW  Elec       q    Type
                         _______ _______ _______ _____ _____    ______ ____

>  <TORSDO>
F 9

$$$$
=
 OpenBabel11062413053D

 40 44  0  0  1  0  0  0  0  0999 V2000
  185.2220  178.7350  143.4020 C   0  0  2  0  0  3  0  0  0  0  0  0
  189.7420  176.4650  142.6090 C   0  0  0  0  0  2  0  0  0  0  0  0
  188.0380  178.2100  139.1640 S   0  0  0  0  0  0  0  0  0  0  0  0
  185.1250  175.2860  136.1660 O   0  0  0  0  0  0  0  0  0  0  0  0
  188.7450  175.9470  143.3890 O   0  0  0  0  0  0  0  0  0  0  0  0
  184.5770  177.2490  137.4170 C   0  0  0  0  0  2  0  0  0  0  0  0
  183.9030  177.4620  140.8840 C   0  0  2  0  0  3  0  0  0  0  0  0
  186.7280  178.6460  143.5590 C   0  0  0  0  0  2  0  0  0  0  0  0
  187.4990  178.0280  135.9910 C   0  0  1  0  0  3  0  0  0  0  0  0
  185.6600  176.4290  136.7420 C   0  0  2  0  0  3  0  0  0  0  0  0
  186.2580  177.1980  135.6080 C   0  0  2  0  0  3  0  0  0  0  0  0
  188.6680  177.3580  143.1920 C   0  0  2  0  0  0  0  0  0  0  0  0
  183.3170  177.4950  139.5280 C   0  0  2  0  0  3  0  0  0  0  0  0
  182.7040  176.7940  140.5820 O   0  0  0  0  0  0  0  0  0  0  0  0
  188.0130  177.1290  140.6170 C   0  0  0  0  0  2  0  0  0  0  0  0
  186.5210  176.2790  134.5940 O   0  0  0  0  0  0  0  0  0  0  0  0
  188.6960  177.2620  136.6180 C   0  0  1  0  0  0  0  0  0  0  0  0
  188.1900  177.9780  141.8850 C   0  0  1  0  0  3  0  0  0  0  0  0
  183.6050  178.7050  141.5760 N   0  0  0  0  0  2  0  0  0  0  0  0
  187.9180  178.8840  134.8040 C   0  0  0  0  0  1  0  0  0  0  0  0
  189.8040  178.1200  136.6910 O   0  0  0  0  0  1  0  0  0  0  0  0
  184.8780  179.2550  142.0140 C   0  0  0  0  0  2  0  0  0  0  0  0
  185.9040  175.0840  135.0130 C   0  0  0  0  0  2  0  0  0  0  0  0
  184.0720  176.5230  138.6500 C   0  0  0  0  0  2  0  0  0  0  0  0
  187.2300  177.4910  142.8330 N   0  0  2  0  0  0  0  0  0  0  0  0
  188.3410  176.8050  138.0410 C   0  0  0  0  0  2  0  0  0  0  0  0
  184.5480  179.8600  144.6590 S   0  0  0  0  0  0  0  0  0  0  0  0
  185.4840  179.0160  147.0180 N   0  0  0  0  0  2  0  0  0  0  0  0
  184.8170  178.6780  145.9770 C   0  0  0  0  0  3  0  0  0  0  0  0
  189.0320  176.1010  135.7840 N   0  0  0  0  0  2  0  0  0  0  0  0
  189.6790  173.7450  136.1180 C   0  0  0  0  0  1  0  0  0  0  0  0
  189.9570  175.2000  136.4780 C   0  0  1  0  0  3  0  0  0  0  0  0
  191.3090  175.5660  136.2800 O   0  0  0  0  0  0  0  0  0  0  0  0
  192.0710  175.1710  137.3970 C   0  0  2  0  0  3  0  0  0  0  0  0
  193.4800  177.0020  137.9780 O   0  0  0  0  0  0  0  0  0  0  0  0
  192.4220  176.3650  138.2200 C   0  0  0  0  0  0  0  0  0  0  0  0
  191.5780  176.7890  139.2400 O   0  0  0  0  0  1  0  0  0  0  0  0
  193.3470  174.4840  136.9370 C   0  0  0  0  0  2  0  0  0  0  0  0
  193.7770  173.5780  137.9050 O   0  0  0  0  0  0  0  0  0  0  0  0
  195.0840  173.2640  137.5350 C   0  0  0  0  0  1  0  0  0  0  0  0
  1  8  1  0  0  0  0
  1 27  1  1  0  0  0
  2  5  1  0  0  0  0
  3 15  1  0  0  0  0
  4 10  1  0  0  0  0
  6 24  1  0  0  0  0
  7 14  1  1  0  0  0
  7 19  1  0  0  0  0
  9 20  1  6  0  0  0
  9 17  1  0  0  0  0
 10  6  1  6  0  0  0
 11 16  1  6  0  0  0
 11  9  1  0  0  0  0
 11 10  1  0  0  0  0
 12  2  1  1  0  0  0
 12  5  1  0  0  0  0
 13 24  1  6  0  0  0
 13 14  1  0  0  0  0
 13  7  1  0  0  0  0
 16 23  1  0  0  0  0
 17 21  1  1  0  0  0
 17 26  1  0  0  0  0
 18 15  1  6  0  0  0
 18 25  1  0  0  0  0
 18 12  1  0  0  0  0
 19 22  1  0  0  0  0
 22  1  1  0  0  0  0
 23  4  1  0  0  0  0
 25 12  1  0  0  0  0
 25  8  1  1  0  0  0
 26  3  1  0  0  0  0
 27 29  1  0  0  0  0
 29 28  2  0  0  0  0
 30 32  1  0  0  0  0
 30 17  1  0  0  0  0
 32 31  1  6  0  0  0
 33 32  1  0  0  0  0
 33 34  1  0  0  0  0
 34 38  1  6  0  0  0
 34 36  1  0  0  0  0
 35 36  2  0  0  0  0
 36 37  1  0  0  0  0
 38 39  1  0  0  0  0
 40 39  1  0  0  0  0
M  END
>  <MODEL>
6

>  <REMARK>
 VINA RESULT:      -4.5      2.732      4.408
  Name = 
  9 active torsions:
  status: ('A' for Active; 'I' for Inactive)
    1  A    between atoms: C_1  and  S_5
    2  A    between atoms: O_2  and  C_17
    3  A    between atoms: S_5  and  C_35
    4  A    between atoms: C_6  and  C_17
    5  A    between atoms: C_6  and  C_21
    6  A    between atoms: C_6  and  O_27
    7  A    between atoms: C_19  and  O_27
    8  A    between atoms: C_19  and  N_32
    9  A    between atoms: C_28  and  N_32
                            x       y       z     vdW  Elec       q    Type
                         _______ _______ _______ _____ _____    ______ ____

>  <TORSDO>
F 9

$$$$
=
 OpenBabel11062413053D

 40 44  0  0  1  0  0  0  0  0999 V2000
  194.7020  174.0620  135.4440 C   0  0  2  0  0  3  0  0  0  0  0  0
  190.2830  171.5490  134.8380 C   0  0  0  0  0  2  0  0  0  0  0  0
  189.8560  175.6970  135.5000 S   0  0  0  0  0  0  0  0  0  0  0  0
  189.2140  177.3210  140.2940 O   0  0  0  0  0  0  0  0  0  0  0  0
  191.3400  171.0850  135.5710 O   0  0  0  0  0  0  0  0  0  0  0  0
  190.9700  177.7630  138.7320 C   0  0  0  0  0  2  0  0  0  0  0  0
  193.6980  175.6600  137.9210 C   0  0  2  0  0  3  0  0  0  0  0  0
  193.6900  173.3040  134.6060 C   0  0  0  0  0  2  0  0  0  0  0  0
  188.1960  178.0840  136.8920 C   0  0  1  0  0  3  0  0  0  0  0  0
  189.5250  177.3520  138.9420 C   0  0  2  0  0  3  0  0  0  0  0  0
  188.6070  178.3720  138.3510 C   0  0  2  0  0  3  0  0  0  0  0  0
  191.6850  172.0650  134.5940 C   0  0  2  0  0  0  0  0  0  0  0  0
  193.2770  176.8840  138.6340 C   0  0  2  0  0  3  0  0  0  0  0  0
  194.1750  175.9660  139.2060 O   0  0  0  0  0  0  0  0  0  0  0  0
  190.4710  174.0420  135.9090 C   0  0  0  0  0  2  0  0  0  0  0  0
  187.5110  178.4700  139.2060 O   0  0  0  0  0  0  0  0  0  0  0  0
  187.5030  176.7230  136.6080 C   0  0  1  0  0  0  0  0  0  0  0  0
  191.3890  173.5480  134.7820 C   0  0  1  0  0  3  0  0  0  0  0  0
  194.7110  175.9930  136.9340 N   0  0  0  0  0  2  0  0  0  0  0  0
  187.3980  179.2630  136.3520 C   0  0  0  0  0  1  0  0  0  0  0  0
  187.0030  176.7260  135.2980 O   0  0  0  0  0  1  0  0  0  0  0  0
  194.2300  175.4920  135.6560 C   0  0  0  0  0  2  0  0  0  0  0  0
  187.8690  177.7270  140.3470 C   0  0  0  0  0  2  0  0  0  0  0  0
  191.8960  176.6600  139.2080 C   0  0  0  0  0  2  0  0  0  0  0  0
  192.5340  172.9660  135.4200 N   0  0  2  0  0  0  0  0  0  0  0  0
  188.5200  175.5780  136.7370 C   0  0  0  0  0  2  0  0  0  0  0  0
  196.3070  174.0690  134.5940 S   0  0  0  0  0  0  0  0  0  0  0  0
  198.0210  175.1300  136.3510 N   0  0  0  0  0  2  0  0  0  0  0  0
  197.2150  174.1580  136.1350 C   0  0  0  0  0  3  0  0  0  0  0  0
  186.3980  176.5240  137.5540 N   0  0  0  0  0  2  0  0  0  0  0  0
  184.3470  175.1620  137.4240 C   0  0  0  0  0  1  0  0  0  0  0  0
  185.1250  176.3400  136.8500 C   0  0  1  0  0  3  0  0  0  0  0  0
  184.3630  177.5310  136.8020 O   0  0  0  0  0  0  0  0  0  0  0  0
  183.3950  177.5120  137.8250 C   0  0  2  0  0  3  0  0  0  0  0  0
  181.0410  177.1460  137.8180 O   0  0  0  0  0  1  0  0  0  0  0  0
  182.0310  177.6580  137.2360 C   0  0  0  0  0  0  0  0  0  0  0  0
  181.8470  178.3720  136.0580 O   0  0  0  0  0  0  0  0  0  0  0  0
  183.6470  178.6500  138.7990 C   0  0  0  0  0  2  0  0  0  0  0  0
  183.9110  178.1420  140.0710 O   0  0  0  0  0  0  0  0  0  0  0  0
  182.8660  178.6180  140.8610 C   0  0  0  0  0  1  0  0  0  0  0  0
  1 27  1  6  0  0  0
  1 22  1  0  0  0  0
  2  5  1  0  0  0  0
  3 15  1  0  0  0  0
  3 26  1  0  0  0  0
  4 23  1  0  0  0  0
  6 24  1  0  0  0  0
  7 19  1  6  0  0  0
  7 13  1  0  0  0  0
  7 14  1  0  0  0  0
  8  1  1  0  0  0  0
  9 20  1  1  0  0  0
  9 11  1  0  0  0  0
 10  6  1  1  0  0  0
 10  4  1  0  0  0  0
 11 10  1  0  0  0  0
 11 16  1  1  0  0  0
 12 18  1  0  0  0  0
 12  2  1  6  0  0  0
 12 25  1  0  0  0  0
 12  5  1  0  0  0  0
 13 14  1  0  0  0  0
 13 24  1  1  0  0  0
 16 23  1  0  0  0  0
 17 21  1  6  0  0  0
 17 26  1  0  0  0  0
 17  9  1  0  0  0  0
 17 30  1  0  0  0  0
 18 25  1  0  0  0  0
 18 15  1  1  0  0  0
 22 19  1  0  0  0  0
 25  8  1  6  0  0  0
 27 29  1  0  0  0  0
 29 28  2  0  0  0  0
 32 31  1  1  0  0  0
 32 30  1  0  0  0  0
 33 32  1  0  0  0  0
 33 34  1  0  0  0  0
 34 38  1  1  0  0  0
 36 35  1  0  0  0  0
 36 34  1  0  0  0  0
 37 36  2  0  0  0  0
 38 39  1  0  0  0  0
 39 40  1  0  0  0  0
M  END
>  <MODEL>
7

>  <REMARK>
 VINA RESULT:      -4.1      3.994      9.845
  Name = 
  9 active torsions:
  status: ('A' for Active; 'I' for Inactive)
    1  A    between atoms: C_1  and  S_5
    2  A    between atoms: O_2  and  C_17
    3  A    between atoms: S_5  and  C_35
    4  A    between atoms: C_6  and  C_17
    5  A    between atoms: C_6  and  C_21
    6  A    between atoms: C_6  and  O_27
    7  A    between atoms: C_19  and  O_27
    8  A    between atoms: C_19  and  N_32
    9  A    between atoms: C_28  and  N_32
                            x       y       z     vdW  Elec       q    Type
                         _______ _______ _______ _____ _____    ______ ____

>  <TORSDO>
F 9

$$$$
=
 OpenBabel11062413053D

 40 44  0  0  1  0  0  0  0  0999 V2000
  180.7920  177.9520  136.3940 C   0  0  2  0  0  3  0  0  0  0  0  0
  183.0800  179.0020  140.8520 C   0  0  0  0  0  2  0  0  0  0  0  0
  185.7350  178.4270  137.6200 S   0  0  0  0  0  0  0  0  0  0  0  0
  187.6010  173.7440  136.8350 O   0  0  0  0  0  0  0  0  0  0  0  0
  182.0140  178.1560  140.7130 O   0  0  0  0  0  0  0  0  0  0  0  0
  186.2220  175.1150  135.4430 C   0  0  0  0  0  2  0  0  0  0  0  0
  182.7290  175.6110  135.7100 C   0  0  2  0  0  3  0  0  0  0  0  0
  181.1520  178.8860  137.5340 C   0  0  0  0  0  2  0  0  0  0  0  0
  188.5430  177.2420  136.5690 C   0  0  1  0  0  3  0  0  0  0  0  0
  187.2300  175.0560  136.5750 C   0  0  2  0  0  3  0  0  0  0  0  0
  188.4920  175.7510  136.1790 C   0  0  2  0  0  3  0  0  0  0  0  0
  182.1610  179.1000  139.6530 C   0  0  2  0  0  0  0  0  0  0  0  0
  183.8080  174.9580  134.9400 C   0  0  2  0  0  3  0  0  0  0  0  0
  182.6150  174.2850  135.2600 O   0  0  0  0  0  0  0  0  0  0  0  0
  184.3670  177.9400  138.7040 C   0  0  0  0  0  2  0  0  0  0  0  0
  189.5430  175.0190  136.7270 O   0  0  0  0  0  0  0  0  0  0  0  0
  188.3620  177.5850  138.0730 C   0  0  1  0  0  0  0  0  0  0  0  0
  183.2250  178.9580  138.5720 C   0  0  1  0  0  3  0  0  0  0  0  0
  181.9660  176.4870  134.8370 N   0  0  0  0  0  2  0  0  0  0  0  0
  189.7940  177.8760  135.9770 C   0  0  0  0  0  1  0  0  0  0  0  0
  188.6580  178.9420  138.2740 O   0  0  0  0  0  1  0  0  0  0  0  0
  181.9770  177.8040  135.4530 C   0  0  0  0  0  2  0  0  0  0  0  0
  188.9510  173.8380  137.2170 C   0  0  0  0  0  2  0  0  0  0  0  0
  184.8970  174.5320  135.8980 C   0  0  0  0  0  2  0  0  0  0  0  0
  182.0140  178.1970  138.4800 N   0  0  2  0  0  0  0  0  0  0  0  0
  186.9060  177.3380  138.4980 C   0  0  0  0  0  2  0  0  0  0  0  0
  179.3720  178.6260  135.4850 S   0  0  0  0  0  0  0  0  0  0  0  0
  180.3490  180.9620  134.6260 N   0  0  0  0  0  2  0  0  0  0  0  0
  179.9580  180.3100  135.6570 C   0  0  0  0  0  3  0  0  0  0  0  0
  189.2700  176.7610  138.8810 N   0  0  0  0  0  2  0  0  0  0  0  0
  188.4560  178.2190  140.6960 C   0  0  0  0  0  1  0  0  0  0  0  0
  189.6370  177.4420  140.1270 C   0  0  1  0  0  3  0  0  0  0  0  0
  190.2190  176.5600  141.0670 O   0  0  0  0  0  0  0  0  0  0  0  0
  189.9480  177.0160  142.3710 C   0  0  2  0  0  3  0  0  0  0  0  0
  191.6570  178.3310  143.3840 O   0  0  0  0  0  0  0  0  0  0  0  0
  191.2240  177.1770  143.1280 C   0  0  0  0  0  0  0  0  0  0  0  0
  191.9270  176.0620  143.5670 O   0  0  0  0  0  1  0  0  0  0  0  0
  189.0560  176.0200  143.0940 C   0  0  0  0  0  2  0  0  0  0  0  0
  188.6890  176.5250  144.3410 O   0  0  0  0  0  0  0  0  0  0  0  0
  187.5890  177.3390  144.0790 C   0  0  0  0  0  1  0  0  0  0  0  0
  1 27  1  6  0  0  0
  1  8  1  0  0  0  0
  3 26  1  0  0  0  0
  3 15  1  0  0  0  0
  4 23  1  0  0  0  0
  5  2  1  0  0  0  0
  6 24  1  0  0  0  0
  7 19  1  6  0  0  0
  9 20  1  1  0  0  0
  9 17  1  0  0  0  0
 10  6  1  6  0  0  0
 10  4  1  0  0  0  0
 11  9  1  0  0  0  0
 11 10  1  0  0  0  0
 11 16  1  1  0  0  0
 12  5  1  0  0  0  0
 12  2  1  1  0  0  0
 13 14  1  0  0  0  0
 13  7  1  0  0  0  0
 13 24  1  1  0  0  0
 14  7  1  0  0  0  0
 16 23  1  0  0  0  0
 17 21  1  1  0  0  0
 17 26  1  0  0  0  0
 17 30  1  0  0  0  0
 18 15  1  1  0  0  0
 18 12  1  0  0  0  0
 19 22  1  0  0  0  0
 22  1  1  0  0  0  0
 25  8  1  6  0  0  0
 25 18  1  0  0  0  0
 25 12  1  0  0  0  0
 27 29  1  0  0  0  0
 28 29  2  0  0  0  0
 30 32  1  0  0  0  0
 32 31  1  1  0  0  0
 32 33  1  0  0  0  0
 33 34  1  0  0  0  0
 34 38  1  1  0  0  0
 34 36  1  0  0  0  0
 36 35  2  0  0  0  0
 36 37  1  0  0  0  0
 38 39  1  0  0  0  0
 40 39  1  0  0  0  0
M  END
>  <MODEL>
8

>  <REMARK>
 VINA RESULT:      -4.1      2.188      2.985
  Name = 
  9 active torsions:
  status: ('A' for Active; 'I' for Inactive)
    1  A    between atoms: C_1  and  S_5
    2  A    between atoms: O_2  and  C_17
    3  A    between atoms: S_5  and  C_35
    4  A    between atoms: C_6  and  C_17
    5  A    between atoms: C_6  and  C_21
    6  A    between atoms: C_6  and  O_27
    7  A    between atoms: C_19  and  O_27
    8  A    between atoms: C_19  and  N_32
    9  A    between atoms: C_28  and  N_32
                            x       y       z     vdW  Elec       q    Type
                         _______ _______ _______ _____ _____    ______ ____

>  <TORSDO>
F 9

$$$$
=
 OpenBabel11062413053D

 40 44  0  0  1  0  0  0  0  0999 V2000
  188.7280  176.7940  138.1990 C   0  0  2  0  0  3  0  0  0  0  0  0
  185.5200  173.2860  136.2970 C   0  0  0  0  0  2  0  0  0  0  0  0
  183.9090  177.1810  136.5290 S   0  0  0  0  0  0  0  0  0  0  0  0
  181.3060  178.4710  140.7230 O   0  0  0  0  0  0  0  0  0  0  0  0
  186.3440  173.0770  137.3690 O   0  0  0  0  0  0  0  0  0  0  0  0
  183.3270  179.3730  139.8160 C   0  0  0  0  0  2  0  0  0  0  0  0
  186.5880  178.0300  140.0950 C   0  0  2  0  0  3  0  0  0  0  0  0
  188.2740  175.8320  137.1170 C   0  0  0  0  0  2  0  0  0  0  0  0
  181.3520  179.0480  137.1370 C   0  0  1  0  0  3  0  0  0  0  0  0
  182.0400  178.6130  139.5540 C   0  0  2  0  0  3  0  0  0  0  0  0
  181.1610  179.3900  138.6290 C   0  0  2  0  0  3  0  0  0  0  0  0
  186.7540  174.1380  136.5070 C   0  0  2  0  0  0  0  0  0  0  0  0
  185.6690  179.0930  140.5510 C   0  0  2  0  0  3  0  0  0  0  0  0
  186.5130  178.4100  141.4450 O   0  0  0  0  0  0  0  0  0  0  0  0
  184.7270  175.7190  137.2190 C   0  0  0  0  0  2  0  0  0  0  0  0
  179.8500  179.1920  139.0600 O   0  0  0  0  0  0  0  0  0  0  0  0
  181.1460  177.5660  136.7200 C   0  0  1  0  0  0  0  0  0  0  0  0
  186.0640  175.4960  136.4960 C   0  0  1  0  0  3  0  0  0  0  0  0
  187.7650  178.6280  139.4870 N   0  0  0  0  0  2  0  0  0  0  0  0
  180.5270  180.0070  136.2910 C   0  0  0  0  0  1  0  0  0  0  0  0
  181.1350  177.4800  135.3200 O   0  0  0  0  0  1  0  0  0  0  0  0
  187.8820  178.0570  138.1540 C   0  0  0  0  0  2  0  0  0  0  0  0
  179.9670  178.5310  140.2980 C   0  0  0  0  0  2  0  0  0  0  0  0
  184.2720  178.5210  140.6410 C   0  0  0  0  0  2  0  0  0  0  0  0
  187.0280  175.1980  137.5150 N   0  0  2  0  0  0  0  0  0  0  0  0
  182.3020  176.7050  137.2510 C   0  0  0  0  0  2  0  0  0  0  0  0
  190.4740  177.2190  137.9370 S   0  0  0  0  0  0  0  0  0  0  0  0
  190.4530  176.3820  140.4770 N   0  0  0  0  0  2  0  0  0  0  0  0
  190.7930  177.3390  139.6950 C   0  0  0  0  0  3  0  0  0  0  0  0
  179.8680  177.0760  137.2500 N   0  0  0  0  0  2  0  0  0  0  0  0
  179.4700  175.7380  135.2170 C   0  0  0  0  0  1  0  0  0  0  0  0
  179.5600  175.7370  136.7390 C   0  0  1  0  0  3  0  0  0  0  0  0
  180.4490  174.7560  137.2360 O   0  0  0  0  0  0  0  0  0  0  0  0
  179.7350  173.8210  138.0090 C   0  0  2  0  0  3  0  0  0  0  0  0
  178.9350  173.7470  140.2520 O   0  0  0  0  0  1  0  0  0  0  0  0
  179.7880  174.2080  139.4500 C   0  0  0  0  0  0  0  0  0  0  0  0
  180.7820  175.0600  139.9130 O   0  0  0  0  0  0  0  0  0  0  0  0
  180.3380  172.4370  137.8380 C   0  0  0  0  0  2  0  0  0  0  0  0
  179.4210  171.5890  137.2170 O   0  0  0  0  0  0  0  0  0  0  0  0
  180.0630  171.1730  136.0520 C   0  0  0  0  0  1  0  0  0  0  0  0
  1 27  1  6  0  0  0
  2  5  1  0  0  0  0
  3 15  1  0  0  0  0
  3 26  1  0  0  0  0
  6 24  1  0  0  0  0
  7 19  1  6  0  0  0
  7 13  1  0  0  0  0
  7 14  1  0  0  0  0
  8  1  1  0  0  0  0
  9 20  1  6  0  0  0
  9 11  1  0  0  0  0
 10  6  1  1  0  0  0
 10  4  1  0  0  0  0
 11 16  1  1  0  0  0
 11 10  1  0  0  0  0
 12  2  1  6  0  0  0
 12  5  1  0  0  0  0
 12 25  1  0  0  0  0
 13 24  1  1  0  0  0
 13 14  1  0  0  0  0
 16 23  1  0  0  0  0
 17 21  1  6  0  0  0
 17  9  1  0  0  0  0
 17 30  1  0  0  0  0
 17 26  1  0  0  0  0
 18 12  1  0  0  0  0
 18 15  1  1  0  0  0
 18 25  1  0  0  0  0
 22  1  1  0  0  0  0
 22 19  1  0  0  0  0
 23  4  1  0  0  0  0
 25  8  1  6  0  0  0
 27 29  1  0  0  0  0
 29 28  2  0  0  0  0
 32 31  1  6  0  0  0
 32 33  1  0  0  0  0
 32 30  1  0  0  0  0
 33 34  1  0  0  0  0
 34 38  1  1  0  0  0
 34 36  1  0  0  0  0
 36 37  2  0  0  0  0
 36 35  1  0  0  0  0
 39 38  1  0  0  0  0
 40 39  1  0  0  0  0
M  END
>  <MODEL>
9

>  <REMARK>
 VINA RESULT:      -3.7      2.882      8.934
  Name = 
  9 active torsions:
  status: ('A' for Active; 'I' for Inactive)
    1  A    between atoms: C_1  and  S_5
    2  A    between atoms: O_2  and  C_17
    3  A    between atoms: S_5  and  C_35
    4  A    between atoms: C_6  and  C_17
    5  A    between atoms: C_6  and  C_21
    6  A    between atoms: C_6  and  O_27
    7  A    between atoms: C_19  and  O_27
    8  A    between atoms: C_19  and  N_32
    9  A    between atoms: C_28  and  N_32
                            x       y       z     vdW  Elec       q    Type
                         _______ _______ _______ _____ _____    ______ ____

>  <TORSDO>
F 9

$$$$
