=
 OpenBabel11062416443D

 57 64  0  0  1  0  0  0  0  0999 V2000
  182.5290  175.5100  137.6280 C   0  0  0  0  0  2  0  0  0  0  0  0
  183.8780  177.3100  138.6650 N   0  0  2  0  0  0  0  0  0  0  0  0
  182.7320  177.4700  139.6020 C   0  0  2  0  0  3  0  0  0  0  0  0
  183.0610  177.5400  136.2880 C   0  0  0  0  0  1  0  0  0  0  0  0
  181.2030  176.0950  138.1450 C   0  0  2  0  0  3  0  0  0  0  0  0
  186.5730  177.0410  137.7690 C   0  0  1  0  0  3  0  0  0  0  0  0
  181.3740  177.4150  138.9090 C   0  0  0  0  0  2  0  0  0  0  0  0
  184.6170  178.5560  138.4260 C   0  0  0  0  0  2  0  0  0  0  0  0
  184.8540  175.9170  136.8870 C   0  0  0  0  0  2  0  0  0  0  0  0
  183.5770  176.6000  137.3890 C   0  0  2  0  0  0  0  0  0  0  0  0
  186.1240  178.3120  138.4980 C   0  0  0  0  0  2  0  0  0  0  0  0
  185.8490  176.8620  136.5810 O   0  0  0  0  0  0  0  0  0  0  0  0
  190.1200  176.5020  136.9280 C   0  0  0  0  0  3  0  0  0  0  0  0
  191.2180  175.7180  136.5950 C   0  0  0  0  0  0  0  0  0  0  0  0
  190.2290  173.4050  136.5470 C   0  0  0  0  0  3  0  0  0  0  0  0
  188.7940  176.1550  137.1810 C   0  0  0  0  0  0  0  0  0  0  0  0
  193.4200  175.4650  136.0820 C   0  0  0  0  0  3  0  0  0  0  0  0
  192.8180  173.9000  136.0340 S   0  0  0  0  0  0  0  0  0  0  0  0
  188.9040  173.6420  136.8700 C   0  0  0  0  0  3  0  0  0  0  0  0
  188.0000  177.1460  137.4730 N   0  0  0  0  0  0  0  0  0  0  0  0
  192.4220  176.3240  136.4010 N   0  0  0  0  0  0  0  0  0  0  0  0
  191.2450  174.3350  136.4280 C   0  0  0  0  0  0  0  0  0  0  0  0
  188.2800  174.8520  137.1480 C   0  0  0  0  0  3  0  0  0  0  0  0
  180.6310  174.9890  140.1600 O   0  0  0  0  0  0  0  0  0  0  0  0
  180.4560  175.0790  138.9530 C   0  0  0  0  0  0  0  0  0  0  0  0
  179.4690  174.1870  138.2710 C   0  0  0  0  0  2  0  0  0  0  0  0
  179.9900  172.7580  138.2340 C   0  0  0  0  0  2  0  0  0  0  0  0
  180.8580  172.5440  137.0370 C   0  0  0  0  0  0  0  0  0  0  0  0
  182.0610  171.7930  137.1710 N   0  0  0  0  0  2  0  0  0  0  0  0
  180.5500  173.0660  135.9310 O   0  0  0  0  0  0  0  0  0  0  0  0
  184.6740  172.3520  137.4660 O   0  0  0  0  0  1  0  0  0  0  0  0
  182.9310  171.5050  136.0350 C   0  0  1  0  0  3  0  0  0  0  0  0
  184.2580  172.2490  136.1330 C   0  0  2  0  0  3  0  0  0  0  0  0
  184.6740  169.9690  135.3690 C   0  0  0  0  0  2  0  0  0  0  0  0
  183.2930  170.0340  135.9920 C   0  0  0  0  0  2  0  0  0  0  0  0
  185.2430  171.3780  135.3800 C   0  0  0  0  0  2  0  0  0  0  0  0
  182.8370  178.6450  140.4090 O   0  0  0  0  0  0  0  0  0  0  0  0
  184.5640  178.3210  142.1110 C   0  0  0  0  0  3  0  0  0  0  0  0
  183.2400  178.6130  141.7480 C   0  0  0  0  0  0  0  0  0  0  0  0
  184.0180  178.6630  144.4500 C   0  0  0  0  0  0  0  0  0  0  0  0
  184.9480  178.3430  143.4560 C   0  0  0  0  0  3  0  0  0  0  0  0
  182.3050  178.9060  142.7430 C   0  0  0  0  0  3  0  0  0  0  0  0
  182.6900  178.9380  144.0860 C   0  0  0  0  0  3  0  0  0  0  0  0
  184.4400  178.7180  145.7850 O   0  0  0  0  0  0  0  0  0  0  0  0
  185.7150  179.2190  146.1770 C   0  0  0  0  0  2  0  0  0  0  0  0
  186.4200  178.2270  147.0850 C   0  0  0  0  0  2  0  0  0  0  0  0
  190.0920  177.0250  145.2090 C   0  0  0  0  0  0  0  0  0  0  0  0
  190.1180  176.4170  142.4560 N   0  0  0  0  0  2  0  0  0  0  0  0
  187.7540  177.6780  145.0420 C   0  0  0  0  0  3  0  0  0  0  0  0
  187.6770  177.7580  146.4350 C   0  0  0  0  0  0  0  0  0  0  0  0
  189.0270  177.2770  142.9250 C   0  0  0  0  0  2  0  0  0  0  0  0
  190.0040  177.1030  146.6120 C   0  0  0  0  0  0  0  0  0  0  0  0
  188.9460  177.2920  144.4270 C   0  0  0  0  0  0  0  0  0  0  0  0
  191.3740  176.5810  144.5460 C   0  0  0  0  0  2  0  0  0  0  0  0
  188.8000  177.4720  147.2150 C   0  0  0  0  0  3  0  0  0  0  0  0
  191.3680  176.8940  143.0500 C   0  0  0  0  0  2  0  0  0  0  0  0
  191.3900  176.7500  147.6410 Cl  0  0  0  0  0  0  0  0  0  0  0  0
  1  5  1  0  0  0  0
  2  8  1  6  0  0  0
  2  3  1  0  0  0  0
  3 37  1  6  0  0  0
  5  7  1  0  0  0  0
  5 25  1  1  0  0  0
  6 20  1  6  0  0  0
  6 11  1  0  0  0  0
  7  3  1  0  0  0  0
  8 11  1  0  0  0  0
  9 10  1  0  0  0  0
 10  4  1  6  0  0  0
 10  1  1  0  0  0  0
 10  2  1  0  0  0  0
 12  9  1  0  0  0  0
 12  6  1  0  0  0  0
 13 16  1  0  0  0  0
 14 13  2  0  0  0  0
 15 19  1  0  0  0  0
 16 20  2  0  0  0  0
 17 21  2  0  0  0  0
 18 17  1  0  0  0  0
 18 22  1  0  0  0  0
 19 23  2  0  0  0  0
 21 14  1  0  0  0  0
 22 15  2  0  0  0  0
 22 14  1  0  0  0  0
 23 16  1  0  0  0  0
 25 24  2  0  0  0  0
 26 25  1  0  0  0  0
 27 26  1  0  0  0  0
 28 29  1  0  0  0  0
 28 27  1  0  0  0  0
 30 28  2  0  0  0  0
 32 33  1  0  0  0  0
 32 29  1  1  0  0  0
 33 31  1  1  0  0  0
 34 36  1  0  0  0  0
 34 35  1  0  0  0  0
 35 32  1  0  0  0  0
 36 33  1  0  0  0  0
 37 39  1  0  0  0  0
 38 41  1  0  0  0  0
 39 38  2  0  0  0  0
 39 42  1  0  0  0  0
 40 44  1  0  0  0  0
 41 40  2  0  0  0  0
 42 43  2  0  0  0  0
 43 40  1  0  0  0  0
 44 45  1  0  0  0  0
 45 46  1  0  0  0  0
 47 52  1  0  0  0  0
 48 51  1  0  0  0  0
 48 56  1  0  0  0  0
 49 50  2  0  0  0  0
 50 46  1  0  0  0  0
 50 55  1  0  0  0  0
 51 53  1  0  0  0  0
 52 55  2  0  0  0  0
 52 57  1  0  0  0  0
 53 49  1  0  0  0  0
 53 47  2  0  0  0  0
 54 47  1  0  0  0  0
 56 54  1  0  0  0  0
M  END
>  <MODEL>
1

>  <REMARK>
 VINA RESULT:     -10.1      0.000      0.000
  Name = 
  12 active torsions:
  status: ('A' for Active; 'I' for Inactive)
    1  A    between atoms: C_6  and  N_26
    2  A    between atoms: C_10  and  C_22
    3  A    between atoms: C_10  and  C_56
    4  A    between atoms: C_11  and  C_47
    5  A    between atoms: O_13  and  C_16
    6  A    between atoms: O_13  and  C_34
    7  A    between atoms: C_14  and  O_27
    8  A    between atoms: C_16  and  C_17
    9  A    between atoms: C_17  and  C_28
   10  A    between atoms: C_25  and  O_27
   11  A    between atoms: C_29  and  N_49
   12  A    between atoms: C_47  and  C_56
                            x       y       z     vdW  Elec       q    Type
                         _______ _______ _______ _____ _____    ______ ____

>  <TORSDO>
F 12

$$$$
=
 OpenBabel11062416443D

 57 64  0  0  1  0  0  0  0  0999 V2000
  185.4720  175.6500  135.8020 C   0  0  0  0  0  2  0  0  0  0  0  0
  186.7100  177.3290  137.1370 N   0  0  2  0  0  0  0  0  0  0  0  0
  185.4100  177.5710  137.8220 C   0  0  2  0  0  3  0  0  0  0  0  0
  186.4230  177.6420  134.6490 C   0  0  0  0  0  1  0  0  0  0  0  0
  184.1160  176.3340  136.0480 C   0  0  2  0  0  3  0  0  0  0  0  0
  189.5030  176.8540  136.8090 C   0  0  1  0  0  3  0  0  0  0  0  0
  184.2240  177.6310  136.8630 C   0  0  0  0  0  2  0  0  0  0  0  0
  187.5750  178.5150  137.0860 C   0  0  0  0  0  2  0  0  0  0  0  0
  187.9250  175.8770  135.5650 C   0  0  0  0  0  2  0  0  0  0  0  0
  186.6270  176.6550  135.8100 C   0  0  2  0  0  0  0  0  0  0  0  0
  189.0110  178.1510  137.4620 C   0  0  0  0  0  2  0  0  0  0  0  0
  189.0300  176.7420  135.4940 O   0  0  0  0  0  0  0  0  0  0  0  0
  193.0960  176.0410  136.7090 C   0  0  0  0  0  3  0  0  0  0  0  0
  194.1760  175.1750  136.5960 C   0  0  0  0  0  0  0  0  0  0  0  0
  193.0460  172.9460  136.3020 C   0  0  0  0  0  3  0  0  0  0  0  0
  191.7240  175.7990  136.6770 C   0  0  0  0  0  0  0  0  0  0  0  0
  196.4110  174.7510  136.5430 C   0  0  0  0  0  3  0  0  0  0  0  0
  195.7160  173.2380  136.3440 S   0  0  0  0  0  0  0  0  0  0  0  0
  191.7050  173.2860  136.3490 C   0  0  0  0  0  3  0  0  0  0  0  0
  190.9650  176.8480  136.8160 N   0  0  0  0  0  0  0  0  0  0  0  0
  195.4370  175.6850  136.6650 N   0  0  0  0  0  0  0  0  0  0  0  0
  194.1320  173.7940  136.4120 C   0  0  0  0  0  0  0  0  0  0  0  0
  191.1310  174.5400  136.5150 C   0  0  0  0  0  3  0  0  0  0  0  0
  183.4140  174.7850  137.6980 O   0  0  0  0  0  0  0  0  0  0  0  0
  183.1430  175.3740  136.6600 C   0  0  0  0  0  0  0  0  0  0  0  0
  181.8180  175.1580  136.0010 C   0  0  0  0  0  2  0  0  0  0  0  0
  180.6960  175.6520  136.9030 C   0  0  0  0  0  2  0  0  0  0  0  0
  180.5500  177.1350  136.7980 C   0  0  0  0  0  0  0  0  0  0  0  0
  180.3570  177.9040  137.9820 N   0  0  0  0  0  2  0  0  0  0  0  0
  180.5490  177.6930  135.6670 O   0  0  0  0  0  0  0  0  0  0  0  0
  180.1070  179.1450  140.3540 O   0  0  0  0  0  1  0  0  0  0  0  0
  180.2550  179.3600  137.9580 C   0  0  1  0  0  3  0  0  0  0  0  0
  179.6830  179.9100  139.2600 C   0  0  2  0  0  3  0  0  0  0  0  0
  181.5380  181.3240  138.5410 C   0  0  0  0  0  2  0  0  0  0  0  0
  181.6250  179.9940  137.8180 C   0  0  0  0  0  2  0  0  0  0  0  0
  180.2700  181.3020  139.3800 C   0  0  0  0  0  2  0  0  0  0  0  0
  185.4340  178.7280  138.6610 O   0  0  0  0  0  0  0  0  0  0  0  0
  186.0000  178.9470  141.0320 C   0  0  0  0  0  3  0  0  0  0  0  0
  185.0690  178.6940  140.0120 C   0  0  0  0  0  0  0  0  0  0  0  0
  184.2580  178.7120  142.7040 C   0  0  0  0  0  0  0  0  0  0  0  0
  185.5950  178.9520  142.3700 C   0  0  0  0  0  3  0  0  0  0  0  0
  183.7400  178.4280  140.3470 C   0  0  0  0  0  3  0  0  0  0  0  0
  183.3330  178.4420  141.6840 C   0  0  0  0  0  3  0  0  0  0  0  0
  183.8730  178.7640  144.0500 O   0  0  0  0  0  0  0  0  0  0  0  0
  184.6960  179.3180  145.0730 C   0  0  0  0  0  2  0  0  0  0  0  0
  185.0020  178.2730  146.1320 C   0  0  0  0  0  2  0  0  0  0  0  0
  189.2120  177.4340  145.9800 C   0  0  0  0  0  0  0  0  0  0  0  0
  190.2950  176.1380  143.7220 N   0  0  0  0  0  2  0  0  0  0  0  0
  187.0350  177.5020  144.8950 C   0  0  0  0  0  3  0  0  0  0  0  0
  186.4520  177.9300  146.0920 C   0  0  0  0  0  0  0  0  0  0  0  0
  189.0210  176.8360  143.5260 C   0  0  0  0  0  2  0  0  0  0  0  0
  188.6160  177.8590  147.1820 C   0  0  0  0  0  0  0  0  0  0  0  0
  188.4020  177.2320  144.8390 C   0  0  0  0  0  0  0  0  0  0  0  0
  190.6870  177.1160  145.9280 C   0  0  0  0  0  2  0  0  0  0  0  0
  187.2430  178.1080  147.2300 C   0  0  0  0  0  3  0  0  0  0  0  0
  191.1870  177.0110  144.4870 C   0  0  0  0  0  2  0  0  0  0  0  0
  189.5680  178.0980  148.6460 Cl  0  0  0  0  0  0  0  0  0  0  0  0
  1 10  1  0  0  0  0
  1  5  1  0  0  0  0
  2  8  1  6  0  0  0
  2  3  1  0  0  0  0
  3 37  1  6  0  0  0
  5 25  1  1  0  0  0
  5  7  1  0  0  0  0
  6 20  1  6  0  0  0
  6 11  1  0  0  0  0
  7  3  1  0  0  0  0
  8 11  1  0  0  0  0
  9 10  1  0  0  0  0
 10  4  1  6  0  0  0
 10  2  1  0  0  0  0
 12  9  1  0  0  0  0
 12  6  1  0  0  0  0
 14 21  1  0  0  0  0
 14 13  2  0  0  0  0
 15 19  1  0  0  0  0
 15 22  2  0  0  0  0
 16 13  1  0  0  0  0
 16 20  2  0  0  0  0
 17 21  2  0  0  0  0
 18 22  1  0  0  0  0
 18 17  1  0  0  0  0
 19 23  2  0  0  0  0
 22 14  1  0  0  0  0
 23 16  1  0  0  0  0
 25 24  2  0  0  0  0
 26 25  1  0  0  0  0
 26 27  1  0  0  0  0
 28 27  1  0  0  0  0
 28 29  1  0  0  0  0
 30 28  2  0  0  0  0
 32 29  1  1  0  0  0
 32 33  1  0  0  0  0
 33 36  1  0  0  0  0
 33 31  1  1  0  0  0
 34 36  1  0  0  0  0
 35 32  1  0  0  0  0
 35 34  1  0  0  0  0
 37 39  1  0  0  0  0
 38 41  1  0  0  0  0
 39 42  1  0  0  0  0
 39 38  2  0  0  0  0
 40 44  1  0  0  0  0
 41 40  2  0  0  0  0
 42 43  2  0  0  0  0
 43 40  1  0  0  0  0
 44 45  1  0  0  0  0
 45 46  1  0  0  0  0
 47 52  1  0  0  0  0
 48 56  1  0  0  0  0
 49 50  2  0  0  0  0
 50 46  1  0  0  0  0
 50 55  1  0  0  0  0
 51 48  1  0  0  0  0
 51 53  1  0  0  0  0
 52 55  2  0  0  0  0
 52 57  1  0  0  0  0
 53 49  1  0  0  0  0
 53 47  2  0  0  0  0
 54 47  1  0  0  0  0
 56 54  1  0  0  0  0
M  END
>  <MODEL>
2

>  <REMARK>
 VINA RESULT:      -9.9      2.358      4.329
  Name = 
  12 active torsions:
  status: ('A' for Active; 'I' for Inactive)
    1  A    between atoms: C_6  and  N_26
    2  A    between atoms: C_10  and  C_22
    3  A    between atoms: C_10  and  C_56
    4  A    between atoms: C_11  and  C_47
    5  A    between atoms: O_13  and  C_16
    6  A    between atoms: O_13  and  C_34
    7  A    between atoms: C_14  and  O_27
    8  A    between atoms: C_16  and  C_17
    9  A    between atoms: C_17  and  C_28
   10  A    between atoms: C_25  and  O_27
   11  A    between atoms: C_29  and  N_49
   12  A    between atoms: C_47  and  C_56
                            x       y       z     vdW  Elec       q    Type
                         _______ _______ _______ _____ _____    ______ ____

>  <TORSDO>
F 12

$$$$
=
 OpenBabel11062416443D

 57 64  0  0  1  0  0  0  0  0999 V2000
  185.6690  176.0300  136.4730 C   0  0  0  0  0  2  0  0  0  0  0  0
  188.0820  176.4370  136.8600 N   0  0  2  0  0  0  0  0  0  0  0  0
  187.6320  177.4820  137.8210 C   0  0  2  0  0  3  0  0  0  0  0  0
  187.0640  176.8800  134.5940 C   0  0  0  0  0  1  0  0  0  0  0  0
  185.2740  177.4440  136.9320 C   0  0  2  0  0  3  0  0  0  0  0  0
  189.5430  174.2150  135.8280 C   0  0  1  0  0  3  0  0  0  0  0  0
  186.4760  178.3280  137.2940 C   0  0  0  0  0  2  0  0  0  0  0  0
  189.3730  176.7370  136.2290 C   0  0  0  0  0  2  0  0  0  0  0  0
  187.3690  174.5570  135.4410 C   0  0  0  0  0  2  0  0  0  0  0  0
  187.0700  176.0020  135.8560 C   0  0  2  0  0  0  0  0  0  0  0  0
  190.2730  175.5020  136.2270 C   0  0  0  0  0  2  0  0  0  0  0  0
  188.6170  174.4590  134.8030 O   0  0  0  0  0  0  0  0  0  0  0  0
  192.4940  172.0750  135.2850 C   0  0  0  0  0  3  0  0  0  0  0  0
  193.7930  171.6540  135.5380 C   0  0  0  0  0  0  0  0  0  0  0  0
  194.5150  173.2220  137.3690 C   0  0  0  0  0  3  0  0  0  0  0  0
  191.7350  173.0930  135.8610 C   0  0  0  0  0  0  0  0  0  0  0  0
  195.5740  170.2930  135.1460 C   0  0  0  0  0  3  0  0  0  0  0  0
  196.1120  171.3080  136.3680 S   0  0  0  0  0  0  0  0  0  0  0  0
  193.3920  174.0110  137.5440 C   0  0  0  0  0  3  0  0  0  0  0  0
  190.5300  173.2310  135.3870 N   0  0  0  0  0  0  0  0  0  0  0  0
  194.3010  170.6170  134.8160 N   0  0  0  0  0  0  0  0  0  0  0  0
  194.6800  172.1800  136.4760 C   0  0  0  0  0  0  0  0  0  0  0  0
  192.1740  173.9490  136.8780 C   0  0  0  0  0  3  0  0  0  0  0  0
  183.5590  176.3980  138.1870 O   0  0  0  0  0  0  0  0  0  0  0  0
  184.2770  177.3790  138.0470 C   0  0  0  0  0  0  0  0  0  0  0  0
  184.1830  178.5190  139.0100 C   0  0  0  0  0  2  0  0  0  0  0  0
  183.0050  178.3160  139.9510 C   0  0  0  0  0  2  0  0  0  0  0  0
  181.8730  179.2190  139.5810 C   0  0  0  0  0  0  0  0  0  0  0  0
  181.8890  179.8810  138.3190 N   0  0  0  0  0  2  0  0  0  0  0  0
  180.9380  179.4300  140.4010 O   0  0  0  0  0  0  0  0  0  0  0  0
  182.3580  182.5270  138.2750 O   0  0  0  0  0  1  0  0  0  0  0  0
  180.7950  180.7370  137.8740 C   0  0  1  0  0  3  0  0  0  0  0  0
  180.9990  182.1860  138.3010 C   0  0  2  0  0  3  0  0  0  0  0  0
  180.1720  182.1390  136.0060 C   0  0  0  0  0  2  0  0  0  0  0  0
  180.7160  180.7680  136.3610 C   0  0  0  0  0  2  0  0  0  0  0  0
  180.2710  183.0030  137.2530 C   0  0  0  0  0  2  0  0  0  0  0  0
  188.7010  178.3180  138.2690 O   0  0  0  0  0  0  0  0  0  0  0  0
  188.9050  178.1120  140.6990 C   0  0  0  0  0  3  0  0  0  0  0  0
  189.4580  178.0350  139.4110 C   0  0  0  0  0  0  0  0  0  0  0  0
  190.9990  177.3560  141.6630 C   0  0  0  0  0  0  0  0  0  0  0  0
  189.6750  177.7780  141.8170 C   0  0  0  0  0  3  0  0  0  0  0  0
  190.7890  177.6390  139.2580 C   0  0  0  0  0  3  0  0  0  0  0  0
  191.5550  177.2950  140.3760 C   0  0  0  0  0  3  0  0  0  0  0  0
  191.7330  176.9880  142.7980 O   0  0  0  0  0  0  0  0  0  0  0  0
  191.5040  177.5500  144.0880 C   0  0  0  0  0  2  0  0  0  0  0  0
  190.8240  176.5380  144.9950 C   0  0  0  0  0  2  0  0  0  0  0  0
  187.1280  178.0590  146.5660 C   0  0  0  0  0  0  0  0  0  0  0  0
  185.1130  178.9290  144.7960 N   0  0  0  0  0  2  0  0  0  0  0  0
  188.4740  177.3330  144.6740 C   0  0  0  0  0  3  0  0  0  0  0  0
  189.5590  177.1160  145.5300 C   0  0  0  0  0  0  0  0  0  0  0  0
  186.0950  177.9860  144.2550 C   0  0  0  0  0  2  0  0  0  0  0  0
  188.2260  177.8440  147.4190 C   0  0  0  0  0  0  0  0  0  0  0  0
  187.2700  177.8230  145.1800 C   0  0  0  0  0  0  0  0  0  0  0  0
  185.8340  178.6150  147.1110 C   0  0  0  0  0  2  0  0  0  0  0  0
  189.4320  177.3700  146.8970 C   0  0  0  0  0  3  0  0  0  0  0  0
  184.6880  178.4480  146.1120 C   0  0  0  0  0  2  0  0  0  0  0  0
  188.1200  178.1500  149.1510 Cl  0  0  0  0  0  0  0  0  0  0  0  0
  1  5  1  0  0  0  0
  2  8  1  6  0  0  0
  2  3  1  0  0  0  0
  3 37  1  6  0  0  0
  5  7  1  0  0  0  0
  5 25  1  1  0  0  0
  6 20  1  6  0  0  0
  6 11  1  0  0  0  0
  7  3  1  0  0  0  0
  9 10  1  0  0  0  0
 10  4  1  6  0  0  0
 10  1  1  0  0  0  0
 10  2  1  0  0  0  0
 11  8  1  0  0  0  0
 12  9  1  0  0  0  0
 12  6  1  0  0  0  0
 13 14  2  0  0  0  0
 13 16  1  0  0  0  0
 14 22  1  0  0  0  0
 15 19  1  0  0  0  0
 16 23  1  0  0  0  0
 17 18  1  0  0  0  0
 18 22  1  0  0  0  0
 20 16  2  0  0  0  0
 21 17  2  0  0  0  0
 21 14  1  0  0  0  0
 22 15  2  0  0  0  0
 23 19  2  0  0  0  0
 25 24  2  0  0  0  0
 25 26  1  0  0  0  0
 26 27  1  0  0  0  0
 28 27  1  0  0  0  0
 28 30  2  0  0  0  0
 29 28  1  0  0  0  0
 32 33  1  0  0  0  0
 32 29  1  6  0  0  0
 33 31  1  6  0  0  0
 34 35  1  0  0  0  0
 34 36  1  0  0  0  0
 35 32  1  0  0  0  0
 36 33  1  0  0  0  0
 37 39  1  0  0  0  0
 38 41  1  0  0  0  0
 39 38  2  0  0  0  0
 40 41  2  0  0  0  0
 40 44  1  0  0  0  0
 42 39  1  0  0  0  0
 42 43  2  0  0  0  0
 43 40  1  0  0  0  0
 44 45  1  0  0  0  0
 45 46  1  0  0  0  0
 46 50  1  0  0  0  0
 47 54  1  0  0  0  0
 47 52  1  0  0  0  0
 48 56  1  0  0  0  0
 49 53  1  0  0  0  0
 49 50  2  0  0  0  0
 50 55  1  0  0  0  0
 51 48  1  0  0  0  0
 51 53  1  0  0  0  0
 52 57  1  0  0  0  0
 53 47  2  0  0  0  0
 55 52  2  0  0  0  0
 56 54  1  0  0  0  0
M  END
>  <MODEL>
3

>  <REMARK>
 VINA RESULT:      -8.7      3.254      6.309
  Name = 
  12 active torsions:
  status: ('A' for Active; 'I' for Inactive)
    1  A    between atoms: C_6  and  N_26
    2  A    between atoms: C_10  and  C_22
    3  A    between atoms: C_10  and  C_56
    4  A    between atoms: C_11  and  C_47
    5  A    between atoms: O_13  and  C_16
    6  A    between atoms: O_13  and  C_34
    7  A    between atoms: C_14  and  O_27
    8  A    between atoms: C_16  and  C_17
    9  A    between atoms: C_17  and  C_28
   10  A    between atoms: C_25  and  O_27
   11  A    between atoms: C_29  and  N_49
   12  A    between atoms: C_47  and  C_56
                            x       y       z     vdW  Elec       q    Type
                         _______ _______ _______ _____ _____    ______ ____

>  <TORSDO>
F 12

$$$$
=
 OpenBabel11062416443D

 57 64  0  0  1  0  0  0  0  0999 V2000
  184.9560  174.7510  136.1530 C   0  0  0  0  0  2  0  0  0  0  0  0
  186.0180  176.7500  137.1580 N   0  0  2  0  0  0  0  0  0  0  0  0
  184.6680  177.0450  137.7130 C   0  0  2  0  0  3  0  0  0  0  0  0
  185.8660  176.5140  134.6500 C   0  0  0  0  0  1  0  0  0  0  0  0
  183.5520  175.3810  136.1840 C   0  0  2  0  0  3  0  0  0  0  0  0
  188.8480  176.4010  137.0720 C   0  0  1  0  0  3  0  0  0  0  0  0
  183.5410  176.8240  136.7080 C   0  0  0  0  0  2  0  0  0  0  0  0
  186.8200  177.9520  136.8970 C   0  0  0  0  0  2  0  0  0  0  0  0
  187.4020  175.0830  135.9910 C   0  0  0  0  0  2  0  0  0  0  0  0
  186.0520  175.8080  136.0030 C   0  0  2  0  0  0  0  0  0  0  0  0
  188.2480  177.7700  137.4090 C   0  0  0  0  0  2  0  0  0  0  0  0
  188.4620  175.9850  135.7900 O   0  0  0  0  0  0  0  0  0  0  0  0
  192.4920  175.8530  137.0390 C   0  0  0  0  0  3  0  0  0  0  0  0
  193.6360  175.0850  136.8610 C   0  0  0  0  0  0  0  0  0  0  0  0
  192.6850  172.8490  136.2110 C   0  0  0  0  0  3  0  0  0  0  0  0
  191.1430  175.5260  136.9060 C   0  0  0  0  0  0  0  0  0  0  0  0
  195.8960  174.8250  136.8610 C   0  0  0  0  0  3  0  0  0  0  0  0
  195.3220  173.3110  136.4230 S   0  0  0  0  0  0  0  0  0  0  0  0
  191.3220  173.0870  136.2380 C   0  0  0  0  0  3  0  0  0  0  0  0
  190.3050  176.4920  137.1500 N   0  0  0  0  0  0  0  0  0  0  0  0
  194.8530  175.6640  137.0620 N   0  0  0  0  0  0  0  0  0  0  0  0
  193.7010  173.7440  136.4890 C   0  0  0  0  0  0  0  0  0  0  0  0
  190.6510  174.2650  136.5450 C   0  0  0  0  0  3  0  0  0  0  0  0
  182.9940  173.5140  137.5310 O   0  0  0  0  0  0  0  0  0  0  0  0
  182.5970  174.5090  136.9390 C   0  0  0  0  0  0  0  0  0  0  0  0
  181.1500  174.8800  136.9840 C   0  0  0  0  0  2  0  0  0  0  0  0
  180.5930  174.6520  138.3810 C   0  0  0  0  0  2  0  0  0  0  0  0
  180.9460  175.7900  139.2820 C   0  0  0  0  0  0  0  0  0  0  0  0
  180.0000  176.8360  139.4920 N   0  0  0  0  0  2  0  0  0  0  0  0
  182.0890  175.8470  139.8110 O   0  0  0  0  0  0  0  0  0  0  0  0
  179.2950  179.2840  138.6350 O   0  0  0  0  0  1  0  0  0  0  0  0
  180.2600  177.9520  140.3960 C   0  0  1  0  0  3  0  0  0  0  0  0
  180.2450  179.2890  139.6650 C   0  0  2  0  0  3  0  0  0  0  0  0
  179.0740  179.5280  141.7930 C   0  0  0  0  0  2  0  0  0  0  0  0
  179.1770  178.0540  141.4510 C   0  0  0  0  0  2  0  0  0  0  0  0
  179.8220  180.2970  140.7150 C   0  0  0  0  0  2  0  0  0  0  0  0
  184.5790  178.3510  138.2870 O   0  0  0  0  0  0  0  0  0  0  0  0
  183.6260  178.4630  140.5380 C   0  0  0  0  0  3  0  0  0  0  0  0
  184.7140  178.5880  139.6590 C   0  0  0  0  0  0  0  0  0  0  0  0
  185.0660  178.9770  142.4210 C   0  0  0  0  0  0  0  0  0  0  0  0
  183.8030  178.6610  141.9100 C   0  0  0  0  0  3  0  0  0  0  0  0
  185.9700  178.9300  140.1660 C   0  0  0  0  0  3  0  0  0  0  0  0
  186.1490  179.1170  141.5390 C   0  0  0  0  0  3  0  0  0  0  0  0
  185.2220  179.1290  143.8050 O   0  0  0  0  0  0  0  0  0  0  0  0
  184.8230  178.1350  144.7460 C   0  0  0  0  0  2  0  0  0  0  0  0
  185.6790  178.2150  145.9980 C   0  0  0  0  0  2  0  0  0  0  0  0
  189.6610  176.8820  145.0950 C   0  0  0  0  0  0  0  0  0  0  0  0
  191.6930  177.1470  147.0310 N   0  0  0  0  0  2  0  0  0  0  0  0
  188.0290  177.7170  146.6960 C   0  0  0  0  0  3  0  0  0  0  0  0
  187.0750  177.8040  145.6770 C   0  0  0  0  0  0  0  0  0  0  0  0
  190.3150  177.1320  147.5290 C   0  0  0  0  0  2  0  0  0  0  0  0
  188.6960  176.9780  144.0750 C   0  0  0  0  0  0  0  0  0  0  0  0
  189.3230  177.2810  146.4080 C   0  0  0  0  0  0  0  0  0  0  0  0
  191.0680  176.4350  144.7780 C   0  0  0  0  0  2  0  0  0  0  0  0
  187.4100  177.4340  144.3720 C   0  0  0  0  0  3  0  0  0  0  0  0
  191.8400  176.0740  146.0470 C   0  0  0  0  0  2  0  0  0  0  0  0
  189.0680  176.5250  142.4130 Cl  0  0  0  0  0  0  0  0  0  0  0  0
  1  5  1  0  0  0  0
  2  8  1  6  0  0  0
  2  3  1  0  0  0  0
  3 37  1  6  0  0  0
  5  7  1  0  0  0  0
  5 25  1  1  0  0  0
  6 20  1  6  0  0  0
  6 11  1  0  0  0  0
  7  3  1  0  0  0  0
  8 11  1  0  0  0  0
  9 10  1  0  0  0  0
 10  4  1  6  0  0  0
 10  1  1  0  0  0  0
 10  2  1  0  0  0  0
 12  9  1  0  0  0  0
 12  6  1  0  0  0  0
 14 13  2  0  0  0  0
 14 21  1  0  0  0  0
 15 19  1  0  0  0  0
 15 22  2  0  0  0  0
 16 13  1  0  0  0  0
 16 20  2  0  0  0  0
 17 21  2  0  0  0  0
 18 22  1  0  0  0  0
 18 17  1  0  0  0  0
 19 23  2  0  0  0  0
 22 14  1  0  0  0  0
 23 16  1  0  0  0  0
 25 26  1  0  0  0  0
 25 24  2  0  0  0  0
 26 27  1  0  0  0  0
 27 28  1  0  0  0  0
 28 29  1  0  0  0  0
 28 30  2  0  0  0  0
 32 29  1  6  0  0  0
 32 35  1  0  0  0  0
 33 31  1  6  0  0  0
 33 32  1  0  0  0  0
 33 36  1  0  0  0  0
 35 34  1  0  0  0  0
 36 34  1  0  0  0  0
 37 39  1  0  0  0  0
 38 41  1  0  0  0  0
 39 42  1  0  0  0  0
 39 38  2  0  0  0  0
 40 44  1  0  0  0  0
 41 40  2  0  0  0  0
 42 43  2  0  0  0  0
 43 40  1  0  0  0  0
 44 45  1  0  0  0  0
 45 46  1  0  0  0  0
 47 53  1  0  0  0  0
 48 51  1  0  0  0  0
 50 46  1  0  0  0  0
 50 49  1  0  0  0  0
 52 55  1  0  0  0  0
 52 47  2  0  0  0  0
 53 49  2  0  0  0  0
 53 51  1  0  0  0  0
 54 47  1  0  0  0  0
 54 56  1  0  0  0  0
 55 50  2  0  0  0  0
 56 48  1  0  0  0  0
 57 52  1  0  0  0  0
M  END
>  <MODEL>
4

>  <REMARK>
 VINA RESULT:      -8.6      2.240      4.406
  Name = 
  12 active torsions:
  status: ('A' for Active; 'I' for Inactive)
    1  A    between atoms: C_6  and  N_26
    2  A    between atoms: C_10  and  C_22
    3  A    between atoms: C_10  and  C_56
    4  A    between atoms: C_11  and  C_47
    5  A    between atoms: O_13  and  C_16
    6  A    between atoms: O_13  and  C_34
    7  A    between atoms: C_14  and  O_27
    8  A    between atoms: C_16  and  C_17
    9  A    between atoms: C_17  and  C_28
   10  A    between atoms: C_25  and  O_27
   11  A    between atoms: C_29  and  N_49
   12  A    between atoms: C_47  and  C_56
                            x       y       z     vdW  Elec       q    Type
                         _______ _______ _______ _____ _____    ______ ____

>  <TORSDO>
F 12

$$$$
=
 OpenBabel11062416443D

 57 64  0  0  1  0  0  0  0  0999 V2000
  184.8710  175.9570  136.8950 C   0  0  0  0  0  2  0  0  0  0  0  0
  187.2650  176.5400  137.1430 N   0  0  2  0  0  0  0  0  0  0  0  0
  186.8000  177.5320  138.1510 C   0  0  2  0  0  3  0  0  0  0  0  0
  186.0780  176.9420  134.9530 C   0  0  0  0  0  1  0  0  0  0  0  0
  184.4000  177.3290  137.4070 C   0  0  2  0  0  3  0  0  0  0  0  0
  188.8230  174.4540  135.9760 C   0  0  1  0  0  3  0  0  0  0  0  0
  185.5530  178.2950  137.7140 C   0  0  0  0  0  2  0  0  0  0  0  0
  188.4880  176.9490  136.4410 C   0  0  0  0  0  2  0  0  0  0  0  0
  186.6090  174.6350  135.7300 C   0  0  0  0  0  2  0  0  0  0  0  0
  186.2280  176.0460  136.1930 C   0  0  2  0  0  0  0  0  0  0  0  0
  189.4770  175.7860  136.3580 C   0  0  0  0  0  2  0  0  0  0  0  0
  187.8190  174.6440  135.0160 O   0  0  0  0  0  0  0  0  0  0  0  0
  191.8740  172.5260  135.2350 C   0  0  0  0  0  3  0  0  0  0  0  0
  193.2030  172.1700  135.4300 C   0  0  0  0  0  0  0  0  0  0  0  0
  193.8880  173.6780  137.3240 C   0  0  0  0  0  3  0  0  0  0  0  0
  191.0750  173.4640  135.8870 C   0  0  0  0  0  0  0  0  0  0  0  0
  195.0470  170.9410  134.9150 C   0  0  0  0  0  3  0  0  0  0  0  0
  195.5620  171.9190  136.1750 S   0  0  0  0  0  0  0  0  0  0  0  0
  192.7270  174.3880  137.5730 C   0  0  0  0  0  3  0  0  0  0  0  0
  189.8500  173.5550  135.4540 N   0  0  0  0  0  0  0  0  0  0  0  0
  193.7480  171.2060  134.6380 N   0  0  0  0  0  0  0  0  0  0  0  0
  194.0870  172.6970  136.3710 C   0  0  0  0  0  0  0  0  0  0  0  0
  191.4950  174.2900  136.9380 C   0  0  0  0  0  3  0  0  0  0  0  0
  183.4950  177.9780  139.4980 O   0  0  0  0  0  0  0  0  0  0  0  0
  183.4820  177.1690  138.5800 C   0  0  0  0  0  0  0  0  0  0  0  0
  182.5270  176.0200  138.6080 C   0  0  0  0  0  2  0  0  0  0  0  0
  181.1800  176.4430  138.0410 C   0  0  0  0  0  2  0  0  0  0  0  0
  180.6770  175.4290  137.0650 C   0  0  0  0  0  0  0  0  0  0  0  0
  180.9960  174.0540  137.2580 N   0  0  0  0  0  2  0  0  0  0  0  0
  180.0180  175.7970  136.0540 O   0  0  0  0  0  0  0  0  0  0  0  0
  182.5610  171.8930  136.9300 O   0  0  0  0  0  1  0  0  0  0  0  0
  180.4980  173.0060  136.3720 C   0  0  1  0  0  3  0  0  0  0  0  0
  181.6130  172.0730  135.9150 C   0  0  2  0  0  3  0  0  0  0  0  0
  179.6370  170.7500  136.4600 C   0  0  0  0  0  2  0  0  0  0  0  0
  179.4990  172.1220  137.0910 C   0  0  0  0  0  2  0  0  0  0  0  0
  180.9230  170.7500  135.6500 C   0  0  0  0  0  2  0  0  0  0  0  0
  187.8290  178.4390  138.5510 O   0  0  0  0  0  0  0  0  0  0  0  0
  188.3090  178.4780  140.9500 C   0  0  0  0  0  3  0  0  0  0  0  0
  188.6850  178.1890  139.6290 C   0  0  0  0  0  0  0  0  0  0  0  0
  190.4060  177.5700  141.7640 C   0  0  0  0  0  0  0  0  0  0  0  0
  189.1680  178.1730  142.0100 C   0  0  0  0  0  3  0  0  0  0  0  0
  189.9320  177.6110  139.3810 C   0  0  0  0  0  3  0  0  0  0  0  0
  190.7870  177.2970  140.4420 C   0  0  0  0  0  3  0  0  0  0  0  0
  191.2280  177.2380  142.8490 O   0  0  0  0  0  0  0  0  0  0  0  0
  190.9170  176.1950  143.7700 C   0  0  0  0  0  2  0  0  0  0  0  0
  191.0980  176.6770  145.1990 C   0  0  0  0  0  2  0  0  0  0  0  0
  187.3190  178.0240  146.7340 C   0  0  0  0  0  0  0  0  0  0  0  0
  185.2550  178.7200  144.9440 N   0  0  0  0  0  2  0  0  0  0  0  0
  188.7050  177.3220  144.8610 C   0  0  0  0  0  3  0  0  0  0  0  0
  189.8010  177.1950  145.7200 C   0  0  0  0  0  0  0  0  0  0  0  0
  186.2910  177.8200  144.4280 C   0  0  0  0  0  2  0  0  0  0  0  0
  188.4290  177.9000  147.5900 C   0  0  0  0  0  0  0  0  0  0  0  0
  187.4740  177.7550  145.3550 C   0  0  0  0  0  0  0  0  0  0  0  0
  185.9950  178.5190  147.2650 C   0  0  0  0  0  2  0  0  0  0  0  0
  189.6610  177.4830  147.0790 C   0  0  0  0  0  3  0  0  0  0  0  0
  184.8610  178.2540  146.2750 C   0  0  0  0  0  2  0  0  0  0  0  0
  188.3060  178.2520  149.3130 Cl  0  0  0  0  0  0  0  0  0  0  0  0
  1  5  1  0  0  0  0
  2  8  1  6  0  0  0
  2  3  1  0  0  0  0
  3 37  1  6  0  0  0
  5  7  1  0  0  0  0
  5 25  1  1  0  0  0
  6 20  1  6  0  0  0
  6 11  1  0  0  0  0
  7  3  1  0  0  0  0
  9 10  1  0  0  0  0
 10  4  1  6  0  0  0
 10  1  1  0  0  0  0
 10  2  1  0  0  0  0
 11  8  1  0  0  0  0
 12  9  1  0  0  0  0
 12  6  1  0  0  0  0
 13 14  2  0  0  0  0
 13 16  1  0  0  0  0
 14 22  1  0  0  0  0
 15 19  1  0  0  0  0
 16 23  1  0  0  0  0
 17 18  1  0  0  0  0
 18 22  1  0  0  0  0
 20 16  2  0  0  0  0
 21 17  2  0  0  0  0
 21 14  1  0  0  0  0
 22 15  2  0  0  0  0
 23 19  2  0  0  0  0
 25 26  1  0  0  0  0
 25 24  2  0  0  0  0
 27 26  1  0  0  0  0
 28 29  1  0  0  0  0
 28 27  1  0  0  0  0
 30 28  2  0  0  0  0
 32 35  1  0  0  0  0
 32 29  1  1  0  0  0
 33 32  1  0  0  0  0
 33 31  1  1  0  0  0
 34 35  1  0  0  0  0
 36 33  1  0  0  0  0
 36 34  1  0  0  0  0
 37 39  1  0  0  0  0
 38 41  1  0  0  0  0
 39 38  2  0  0  0  0
 40 41  2  0  0  0  0
 40 44  1  0  0  0  0
 42 39  1  0  0  0  0
 42 43  2  0  0  0  0
 43 40  1  0  0  0  0
 44 45  1  0  0  0  0
 45 46  1  0  0  0  0
 46 50  1  0  0  0  0
 47 54  1  0  0  0  0
 47 52  1  0  0  0  0
 48 56  1  0  0  0  0
 49 53  1  0  0  0  0
 49 50  2  0  0  0  0
 50 55  1  0  0  0  0
 51 48  1  0  0  0  0
 51 53  1  0  0  0  0
 52 57  1  0  0  0  0
 53 47  2  0  0  0  0
 55 52  2  0  0  0  0
 56 54  1  0  0  0  0
M  END
>  <MODEL>
5

>  <REMARK>
 VINA RESULT:      -8.1      2.461      4.461
  Name = 
  12 active torsions:
  status: ('A' for Active; 'I' for Inactive)
    1  A    between atoms: C_6  and  N_26
    2  A    between atoms: C_10  and  C_22
    3  A    between atoms: C_10  and  C_56
    4  A    between atoms: C_11  and  C_47
    5  A    between atoms: O_13  and  C_16
    6  A    between atoms: O_13  and  C_34
    7  A    between atoms: C_14  and  O_27
    8  A    between atoms: C_16  and  C_17
    9  A    between atoms: C_17  and  C_28
   10  A    between atoms: C_25  and  O_27
   11  A    between atoms: C_29  and  N_49
   12  A    between atoms: C_47  and  C_56
                            x       y       z     vdW  Elec       q    Type
                         _______ _______ _______ _____ _____    ______ ____

>  <TORSDO>
F 12

$$$$
=
 OpenBabel11062416443D

 57 64  0  0  1  0  0  0  0  0999 V2000
  184.8600  176.0950  136.8650 C   0  0  0  0  0  2  0  0  0  0  0  0
  187.2840  176.5530  137.0840 N   0  0  2  0  0  0  0  0  0  0  0  0
  186.8800  177.5970  138.0670 C   0  0  2  0  0  3  0  0  0  0  0  0
  186.1060  176.9590  134.8890 C   0  0  0  0  0  1  0  0  0  0  0  0
  184.4680  177.5040  137.3410 C   0  0  2  0  0  3  0  0  0  0  0  0
  188.7180  174.3540  135.9690 C   0  0  1  0  0  3  0  0  0  0  0  0
  185.6730  178.4150  137.6150 C   0  0  0  0  0  2  0  0  0  0  0  0
  188.5230  176.8750  136.3650 C   0  0  0  0  0  2  0  0  0  0  0  0
  186.5160  174.6490  135.7280 C   0  0  0  0  0  2  0  0  0  0  0  0
  186.2160  176.0900  136.1540 C   0  0  2  0  0  0  0  0  0  0  0  0
  189.4470  175.6580  136.3090 C   0  0  0  0  0  2  0  0  0  0  0  0
  187.7200  174.5720  135.0080 O   0  0  0  0  0  0  0  0  0  0  0  0
  191.6740  172.2830  135.2250 C   0  0  0  0  0  3  0  0  0  0  0  0
  193.0020  171.9040  135.3770 C   0  0  0  0  0  0  0  0  0  0  0  0
  193.8280  173.5330  137.1060 C   0  0  0  0  0  3  0  0  0  0  0  0
  190.9360  173.2930  135.8400 C   0  0  0  0  0  0  0  0  0  0  0  0
  194.7820  170.5820  134.8660 C   0  0  0  0  0  3  0  0  0  0  0  0
  195.3910  171.6410  136.0150 S   0  0  0  0  0  0  0  0  0  0  0  0
  192.7010  174.2960  137.3580 C   0  0  0  0  0  3  0  0  0  0  0  0
  189.6920  173.3870  135.4670 N   0  0  0  0  0  0  0  0  0  0  0  0
  193.4770  170.8640  134.6370 N   0  0  0  0  0  0  0  0  0  0  0  0
  193.9490  172.4750  136.2250 C   0  0  0  0  0  0  0  0  0  0  0  0
  191.4340  174.1850  136.7990 C   0  0  0  0  0  3  0  0  0  0  0  0
  183.7580  178.1050  139.5200 O   0  0  0  0  0  0  0  0  0  0  0  0
  183.5500  177.4270  138.5220 C   0  0  0  0  0  0  0  0  0  0  0  0
  182.3580  176.5280  138.4630 C   0  0  0  0  0  2  0  0  0  0  0  0
  181.3000  177.1190  137.5430 C   0  0  0  0  0  2  0  0  0  0  0  0
  180.2340  177.8030  138.3360 C   0  0  0  0  0  0  0  0  0  0  0  0
  180.4600  178.0840  139.7150 N   0  0  0  0  0  2  0  0  0  0  0  0
  179.1280  178.0840  137.8000 O   0  0  0  0  0  0  0  0  0  0  0  0
  181.0210  178.3280  142.3330 O   0  0  0  0  0  1  0  0  0  0  0  0
  179.4840  178.7920  140.5360 C   0  0  1  0  0  3  0  0  0  0  0  0
  179.6660  178.4920  142.0200 C   0  0  2  0  0  3  0  0  0  0  0  0
  179.2230  180.8740  141.7350 C   0  0  0  0  0  2  0  0  0  0  0  0
  179.6530  180.2920  140.4020 C   0  0  0  0  0  2  0  0  0  0  0  0
  179.1470  179.7260  142.7290 C   0  0  0  0  0  2  0  0  0  0  0  0
  187.9590  178.4570  138.4360 O   0  0  0  0  0  0  0  0  0  0  0  0
  188.4310  178.6180  140.8320 C   0  0  0  0  0  3  0  0  0  0  0  0
  188.7860  178.2080  139.5370 C   0  0  0  0  0  0  0  0  0  0  0  0
  190.4390  177.5910  141.7260 C   0  0  0  0  0  0  0  0  0  0  0  0
  189.2570  178.3130  141.9180 C   0  0  0  0  0  3  0  0  0  0  0  0
  189.9800  177.5100  139.3410 C   0  0  0  0  0  3  0  0  0  0  0  0
  190.8000  177.1960  140.4290 C   0  0  0  0  0  3  0  0  0  0  0  0
  191.2250  177.2640  142.8390 O   0  0  0  0  0  0  0  0  0  0  0  0
  190.9480  176.1520  143.6870 C   0  0  0  0  0  2  0  0  0  0  0  0
  191.0980  176.5470  145.1460 C   0  0  0  0  0  2  0  0  0  0  0  0
  187.3420  178.0030  146.6330 C   0  0  0  0  0  0  0  0  0  0  0  0
  185.3050  178.7160  144.8190 N   0  0  0  0  0  2  0  0  0  0  0  0
  188.7230  177.2400  144.7810 C   0  0  0  0  0  3  0  0  0  0  0  0
  189.8100  177.1030  145.6490 C   0  0  0  0  0  0  0  0  0  0  0  0
  186.3240  177.7850  144.3250 C   0  0  0  0  0  2  0  0  0  0  0  0
  188.4430  177.8690  147.4990 C   0  0  0  0  0  0  0  0  0  0  0  0
  187.4990  177.7090  145.2600 C   0  0  0  0  0  0  0  0  0  0  0  0
  186.0260  178.5370  147.1480 C   0  0  0  0  0  2  0  0  0  0  0  0
  189.6680  177.4160  147.0030 C   0  0  0  0  0  3  0  0  0  0  0  0
  184.8920  178.2810  146.1540 C   0  0  0  0  0  2  0  0  0  0  0  0
  188.3170  178.2510  149.2150 Cl  0  0  0  0  0  0  0  0  0  0  0  0
  1  5  1  0  0  0  0
  2  8  1  6  0  0  0
  2  3  1  0  0  0  0
  3 37  1  6  0  0  0
  5  7  1  0  0  0  0
  5 25  1  1  0  0  0
  6 20  1  6  0  0  0
  6 11  1  0  0  0  0
  7  3  1  0  0  0  0
  9 10  1  0  0  0  0
 10  4  1  6  0  0  0
 10  1  1  0  0  0  0
 10  2  1  0  0  0  0
 11  8  1  0  0  0  0
 12  9  1  0  0  0  0
 12  6  1  0  0  0  0
 13 14  2  0  0  0  0
 13 16  1  0  0  0  0
 14 22  1  0  0  0  0
 15 19  1  0  0  0  0
 16 23  1  0  0  0  0
 17 18  1  0  0  0  0
 18 22  1  0  0  0  0
 20 16  2  0  0  0  0
 21 17  2  0  0  0  0
 21 14  1  0  0  0  0
 22 15  2  0  0  0  0
 23 19  2  0  0  0  0
 25 24  2  0  0  0  0
 26 25  1  0  0  0  0
 27 28  1  0  0  0  0
 27 26  1  0  0  0  0
 28 29  1  0  0  0  0
 30 28  2  0  0  0  0
 32 29  1  6  0  0  0
 32 33  1  0  0  0  0
 33 31  1  6  0  0  0
 33 36  1  0  0  0  0
 34 36  1  0  0  0  0
 35 32  1  0  0  0  0
 35 34  1  0  0  0  0
 37 39  1  0  0  0  0
 38 41  1  0  0  0  0
 39 38  2  0  0  0  0
 40 41  2  0  0  0  0
 40 44  1  0  0  0  0
 42 39  1  0  0  0  0
 42 43  2  0  0  0  0
 43 40  1  0  0  0  0
 44 45  1  0  0  0  0
 45 46  1  0  0  0  0
 46 50  1  0  0  0  0
 47 54  1  0  0  0  0
 47 52  1  0  0  0  0
 48 56  1  0  0  0  0
 49 53  1  0  0  0  0
 49 50  2  0  0  0  0
 50 55  1  0  0  0  0
 51 48  1  0  0  0  0
 51 53  1  0  0  0  0
 52 57  1  0  0  0  0
 53 47  2  0  0  0  0
 55 52  2  0  0  0  0
 56 54  1  0  0  0  0
M  END
>  <MODEL>
6

>  <REMARK>
 VINA RESULT:      -8.0      2.914      5.781
  Name = 
  12 active torsions:
  status: ('A' for Active; 'I' for Inactive)
    1  A    between atoms: C_6  and  N_26
    2  A    between atoms: C_10  and  C_22
    3  A    between atoms: C_10  and  C_56
    4  A    between atoms: C_11  and  C_47
    5  A    between atoms: O_13  and  C_16
    6  A    between atoms: O_13  and  C_34
    7  A    between atoms: C_14  and  O_27
    8  A    between atoms: C_16  and  C_17
    9  A    between atoms: C_17  and  C_28
   10  A    between atoms: C_25  and  O_27
   11  A    between atoms: C_29  and  N_49
   12  A    between atoms: C_47  and  C_56
                            x       y       z     vdW  Elec       q    Type
                         _______ _______ _______ _____ _____    ______ ____

>  <TORSDO>
F 12

$$$$
=
 OpenBabel11062416443D

 57 64  0  0  1  0  0  0  0  0999 V2000
  183.9870  177.4230  137.3380 C   0  0  0  0  0  2  0  0  0  0  0  0
  186.0880  177.5690  138.6420 N   0  0  2  0  0  0  0  0  0  0  0  0
  185.2720  178.2960  139.6550 C   0  0  2  0  0  3  0  0  0  0  0  0
  185.8920  178.7310  136.4100 C   0  0  0  0  0  1  0  0  0  0  0  0
  183.3730  178.6500  138.0350 C   0  0  2  0  0  3  0  0  0  0  0  0
  187.9470  175.6940  137.5620 C   0  0  1  0  0  3  0  0  0  0  0  0
  184.3210  179.3190  139.0410 C   0  0  0  0  0  2  0  0  0  0  0  0
  187.4970  177.9810  138.6200 C   0  0  0  0  0  2  0  0  0  0  0  0
  186.0240  176.2480  136.5670 C   0  0  0  0  0  2  0  0  0  0  0  0
  185.5140  177.5120  137.2680 C   0  0  2  0  0  0  0  0  0  0  0  0
  188.4150  176.7600  138.5580 C   0  0  0  0  0  2  0  0  0  0  0  0
  187.4190  176.2850  136.4050 O   0  0  0  0  0  0  0  0  0  0  0  0
  191.2430  174.1330  137.0370 C   0  0  0  0  0  3  0  0  0  0  0  0
  192.6280  174.0830  137.1280 C   0  0  0  0  0  0  0  0  0  0  0  0
  193.1670  176.2550  138.2780 C   0  0  0  0  0  3  0  0  0  0  0  0
  190.3350  175.1040  137.4550 C   0  0  0  0  0  0  0  0  0  0  0  0
  194.6260  173.0560  136.7700 C   0  0  0  0  0  3  0  0  0  0  0  0
  195.0480  174.4880  137.5340 S   0  0  0  0  0  0  0  0  0  0  0  0
  191.9140  176.8150  138.4550 C   0  0  0  0  0  3  0  0  0  0  0  0
  189.0820  174.8410  137.2150 N   0  0  0  0  0  0  0  0  0  0  0  0
  193.2810  172.9970  136.6280 N   0  0  0  0  0  0  0  0  0  0  0  0
  193.4700  175.0420  137.6880 C   0  0  0  0  0  0  0  0  0  0  0  0
  190.6740  176.3050  138.0910 C   0  0  0  0  0  3  0  0  0  0  0  0
  181.9550  177.3280  139.3960 O   0  0  0  0  0  0  0  0  0  0  0  0
  182.0580  178.3000  138.6600 C   0  0  0  0  0  0  0  0  0  0  0  0
  180.8710  179.1690  138.3960 C   0  0  0  0  0  2  0  0  0  0  0  0
  180.7750  180.2620  139.4500 C   0  0  0  0  0  2  0  0  0  0  0  0
  180.2190  181.5170  138.8590 C   0  0  0  0  0  0  0  0  0  0  0  0
  180.7250  181.9860  137.6120 N   0  0  0  0  0  2  0  0  0  0  0  0
  179.3450  182.1770  139.4840 O   0  0  0  0  0  0  0  0  0  0  0  0
  182.2950  184.1690  137.5950 O   0  0  0  0  0  1  0  0  0  0  0  0
  180.1940  183.1760  136.9540 C   0  0  1  0  0  3  0  0  0  0  0  0
  180.9370  184.4380  137.3790 C   0  0  2  0  0  3  0  0  0  0  0  0
  180.5400  184.5160  134.9720 C   0  0  0  0  0  2  0  0  0  0  0  0
  180.3730  183.0870  135.4520 C   0  0  0  0  0  2  0  0  0  0  0  0
  180.8080  185.3770  136.1970 C   0  0  0  0  0  2  0  0  0  0  0  0
  186.0680  178.9000  140.6760 O   0  0  0  0  0  0  0  0  0  0  0  0
  186.1260  177.6270  142.7650 C   0  0  0  0  0  3  0  0  0  0  0  0
  185.7770  178.7760  142.0390 C   0  0  0  0  0  0  0  0  0  0  0  0
  185.2580  178.6250  144.7970 C   0  0  0  0  0  0  0  0  0  0  0  0
  185.8630  177.5520  144.1360 C   0  0  0  0  0  3  0  0  0  0  0  0
  185.1480  179.8370  142.6940 C   0  0  0  0  0  3  0  0  0  0  0  0
  184.8950  179.7670  144.0670 C   0  0  0  0  0  3  0  0  0  0  0  0
  185.0440  178.5390  146.1800 O   0  0  0  0  0  0  0  0  0  0  0  0
  185.8700  177.7660  147.0470 C   0  0  0  0  0  2  0  0  0  0  0  0
  187.1480  178.5180  147.3740 C   0  0  0  0  0  2  0  0  0  0  0  0
  190.5390  176.8240  145.3550 C   0  0  0  0  0  0  0  0  0  0  0  0
  190.5470  176.6570  142.5400 N   0  0  0  0  0  2  0  0  0  0  0  0
  188.4130  178.0050  145.2780 C   0  0  0  0  0  3  0  0  0  0  0  0
  188.2970  177.8840  146.6660 C   0  0  0  0  0  0  0  0  0  0  0  0
  189.6550  177.6580  143.1330 C   0  0  0  0  0  2  0  0  0  0  0  0
  190.4110  176.7020  146.7510 C   0  0  0  0  0  0  0  0  0  0  0  0
  189.5150  177.4600  144.6180 C   0  0  0  0  0  0  0  0  0  0  0  0
  191.7190  176.2100  144.6390 C   0  0  0  0  0  2  0  0  0  0  0  0
  189.2940  177.2360  147.3980 C   0  0  0  0  0  3  0  0  0  0  0  0
  191.8460  176.7420  143.2110 C   0  0  0  0  0  2  0  0  0  0  0  0
  191.6400  175.8920  147.7210 Cl  0  0  0  0  0  0  0  0  0  0  0  0
  1  5  1  0  0  0  0
  2  8  1  6  0  0  0
  2  3  1  0  0  0  0
  3 37  1  1  0  0  0
  5 25  1  1  0  0  0
  5  7  1  0  0  0  0
  6 20  1  6  0  0  0
  6 11  1  0  0  0  0
  7  3  1  0  0  0  0
  9 10  1  0  0  0  0
 10  4  1  6  0  0  0
 10  1  1  0  0  0  0
 10  2  1  0  0  0  0
 11  8  1  0  0  0  0
 12  9  1  0  0  0  0
 12  6  1  0  0  0  0
 13 14  2  0  0  0  0
 13 16  1  0  0  0  0
 14 22  1  0  0  0  0
 15 19  1  0  0  0  0
 16 23  1  0  0  0  0
 17 18  1  0  0  0  0
 18 22  1  0  0  0  0
 20 16  2  0  0  0  0
 21 17  2  0  0  0  0
 21 14  1  0  0  0  0
 22 15  2  0  0  0  0
 23 19  2  0  0  0  0
 25 24  2  0  0  0  0
 26 25  1  0  0  0  0
 26 27  1  0  0  0  0
 28 27  1  0  0  0  0
 28 30  2  0  0  0  0
 29 28  1  0  0  0  0
 32 33  1  0  0  0  0
 32 29  1  1  0  0  0
 33 31  1  6  0  0  0
 34 35  1  0  0  0  0
 34 36  1  0  0  0  0
 35 32  1  0  0  0  0
 36 33  1  0  0  0  0
 37 39  1  0  0  0  0
 38 41  1  0  0  0  0
 39 42  1  0  0  0  0
 39 38  2  0  0  0  0
 40 44  1  0  0  0  0
 41 40  2  0  0  0  0
 42 43  2  0  0  0  0
 43 40  1  0  0  0  0
 44 45  1  0  0  0  0
 45 46  1  0  0  0  0
 47 52  1  0  0  0  0
 48 51  1  0  0  0  0
 48 56  1  0  0  0  0
 49 50  2  0  0  0  0
 50 46  1  0  0  0  0
 50 55  1  0  0  0  0
 51 53  1  0  0  0  0
 52 55  2  0  0  0  0
 52 57  1  0  0  0  0
 53 49  1  0  0  0  0
 53 47  2  0  0  0  0
 54 47  1  0  0  0  0
 56 54  1  0  0  0  0
M  END
>  <MODEL>
7

>  <REMARK>
 VINA RESULT:      -7.8      2.953      5.465
  Name = 
  12 active torsions:
  status: ('A' for Active; 'I' for Inactive)
    1  A    between atoms: C_6  and  N_26
    2  A    between atoms: C_10  and  C_22
    3  A    between atoms: C_10  and  C_56
    4  A    between atoms: C_11  and  C_47
    5  A    between atoms: O_13  and  C_16
    6  A    between atoms: O_13  and  C_34
    7  A    between atoms: C_14  and  O_27
    8  A    between atoms: C_16  and  C_17
    9  A    between atoms: C_17  and  C_28
   10  A    between atoms: C_25  and  O_27
   11  A    between atoms: C_29  and  N_49
   12  A    between atoms: C_47  and  C_56
                            x       y       z     vdW  Elec       q    Type
                         _______ _______ _______ _____ _____    ______ ____

>  <TORSDO>
F 12

$$$$
=
 OpenBabel11062416443D

 57 64  0  0  1  0  0  0  0  0999 V2000
  189.8300  174.3220  135.1900 C   0  0  0  0  0  2  0  0  0  0  0  0
  188.6940  176.2170  136.3090 N   0  0  2  0  0  0  0  0  0  0  0  0
  190.0560  176.6120  136.7650 C   0  0  2  0  0  3  0  0  0  0  0  0
  188.2190  173.8450  137.0280 C   0  0  0  0  0  1  0  0  0  0  0  0
  191.0360  174.3740  136.1440 C   0  0  2  0  0  3  0  0  0  0  0  0
  186.0720  176.4660  135.2140 C   0  0  1  0  0  3  0  0  0  0  0  0
  190.8960  175.4330  137.2470 C   0  0  0  0  0  2  0  0  0  0  0  0
  187.6290  176.6070  137.2410 C   0  0  0  0  0  2  0  0  0  0  0  0
  187.4120  174.7170  134.8380 C   0  0  0  0  0  2  0  0  0  0  0  0
  188.5440  174.8010  135.8690 C   0  0  2  0  0  0  0  0  0  0  0  0
  186.4530  177.2290  136.4870 C   0  0  0  0  0  2  0  0  0  0  0  0
  186.1800  175.0810  135.4070 O   0  0  0  0  0  0  0  0  0  0  0  0
  182.4590  177.1760  135.0690 C   0  0  0  0  0  3  0  0  0  0  0  0
  181.1830  177.2690  135.6110 C   0  0  0  0  0  0  0  0  0  0  0  0
  181.5620  176.5550  137.9940 C   0  0  0  0  0  3  0  0  0  0  0  0
  183.6700  176.7940  135.6440 C   0  0  0  0  0  0  0  0  0  0  0  0
  178.9610  177.7280  135.4440 C   0  0  0  0  0  3  0  0  0  0  0  0
  179.1510  177.2610  137.0430 S   0  0  0  0  0  0  0  0  0  0  0  0
  182.9200  176.2920  138.0120 C   0  0  0  0  0  3  0  0  0  0  0  0
  184.7000  176.8140  134.8480 N   0  0  0  0  0  0  0  0  0  0  0  0
  180.1580  177.6750  134.8120 N   0  0  0  0  0  0  0  0  0  0  0  0
  180.8030  176.9880  136.9220 C   0  0  0  0  0  0  0  0  0  0  0  0
  183.8410  176.3980  136.9770 C   0  0  0  0  0  3  0  0  0  0  0  0
  192.7340  175.6510  135.0950 O   0  0  0  0  0  0  0  0  0  0  0  0
  192.3110  174.5370  135.3760 C   0  0  0  0  0  0  0  0  0  0  0  0
  193.0820  173.3210  134.9760 C   0  0  0  0  0  2  0  0  0  0  0  0
  193.1820  172.3530  136.1450 C   0  0  0  0  0  2  0  0  0  0  0  0
  194.5370  172.4220  136.7720 C   0  0  0  0  0  0  0  0  0  0  0  0
  194.8380  173.4860  137.6710 N   0  0  0  0  0  2  0  0  0  0  0  0
  195.4180  171.5730  136.4680 O   0  0  0  0  0  0  0  0  0  0  0  0
  196.6330  175.2020  136.6410 O   0  0  0  0  0  1  0  0  0  0  0  0
  196.1230  173.5870  138.3560 C   0  0  1  0  0  3  0  0  0  0  0  0
  197.1900  174.2180  137.4690 C   0  0  2  0  0  3  0  0  0  0  0  0
  197.3850  175.1290  139.7250 C   0  0  0  0  0  2  0  0  0  0  0  0
  196.0180  174.4900  139.5690 C   0  0  0  0  0  2  0  0  0  0  0  0
  198.1510  174.8810  138.4350 C   0  0  0  0  0  2  0  0  0  0  0  0
  190.0310  177.6470  137.7500 O   0  0  0  0  0  0  0  0  0  0  0  0
  191.8360  177.5150  139.3980 C   0  0  0  0  0  3  0  0  0  0  0  0
  190.4740  177.4550  139.0640 C   0  0  0  0  0  0  0  0  0  0  0  0
  191.2970  177.1620  141.7360 C   0  0  0  0  0  0  0  0  0  0  0  0
  192.2430  177.3660  140.7270 C   0  0  0  0  0  3  0  0  0  0  0  0
  189.5310  177.2250  140.0680 C   0  0  0  0  0  3  0  0  0  0  0  0
  189.9370  177.0860  141.3980 C   0  0  0  0  0  3  0  0  0  0  0  0
  191.7310  177.0580  143.0640 O   0  0  0  0  0  0  0  0  0  0  0  0
  191.2280  176.0800  143.9720 C   0  0  0  0  0  2  0  0  0  0  0  0
  191.2940  176.5970  145.3990 C   0  0  0  0  0  2  0  0  0  0  0  0
  187.4120  178.0010  146.5840 C   0  0  0  0  0  0  0  0  0  0  0  0
  185.5190  178.6960  144.6130 N   0  0  0  0  0  2  0  0  0  0  0  0
  188.9470  177.2610  144.8460 C   0  0  0  0  0  3  0  0  0  0  0  0
  189.9630  177.1350  145.7990 C   0  0  0  0  0  0  0  0  0  0  0  0
  186.5850  177.7790  144.2000 C   0  0  0  0  0  2  0  0  0  0  0  0
  188.4420  177.8770  147.5340 C   0  0  0  0  0  0  0  0  0  0  0  0
  187.6830  177.7130  145.2270 C   0  0  0  0  0  0  0  0  0  0  0  0
  186.0530  178.5170  146.9920 C   0  0  0  0  0  2  0  0  0  0  0  0
  189.7090  177.4410  147.1380 C   0  0  0  0  0  3  0  0  0  0  0  0
  185.0050  178.2510  145.9100 C   0  0  0  0  0  2  0  0  0  0  0  0
  188.1740  178.2520  149.2360 Cl  0  0  0  0  0  0  0  0  0  0  0  0
  1 10  1  0  0  0  0
  1  5  1  0  0  0  0
  2  3  1  0  0  0  0
  2  8  1  1  0  0  0
  3  7  1  0  0  0  0
  3 37  1  1  0  0  0
  5 25  1  6  0  0  0
  5  7  1  0  0  0  0
  6 20  1  1  0  0  0
  6 12  1  0  0  0  0
  6 11  1  0  0  0  0
  9 12  1  0  0  0  0
  9 10  1  0  0  0  0
 10  2  1  0  0  0  0
 10  4  1  1  0  0  0
 11  8  1  0  0  0  0
 13 14  2  0  0  0  0
 13 16  1  0  0  0  0
 14 22  1  0  0  0  0
 15 19  1  0  0  0  0
 16 23  1  0  0  0  0
 17 18  1  0  0  0  0
 20 16  2  0  0  0  0
 21 17  2  0  0  0  0
 21 14  1  0  0  0  0
 22 18  1  0  0  0  0
 22 15  2  0  0  0  0
 23 19  2  0  0  0  0
 24 25  2  0  0  0  0
 26 25  1  0  0  0  0
 26 27  1  0  0  0  0
 27 28  1  0  0  0  0
 28 29  1  0  0  0  0
 30 28  2  0  0  0  0
 32 29  1  6  0  0  0
 32 35  1  0  0  0  0
 33 31  1  6  0  0  0
 33 32  1  0  0  0  0
 33 36  1  0  0  0  0
 35 34  1  0  0  0  0
 36 34  1  0  0  0  0
 37 39  1  0  0  0  0
 38 41  1  0  0  0  0
 39 38  2  0  0  0  0
 39 42  1  0  0  0  0
 40 44  1  0  0  0  0
 41 40  2  0  0  0  0
 42 43  2  0  0  0  0
 43 40  1  0  0  0  0
 44 45  1  0  0  0  0
 45 46  1  0  0  0  0
 46 50  1  0  0  0  0
 47 54  1  0  0  0  0
 47 52  1  0  0  0  0
 48 56  1  0  0  0  0
 49 53  1  0  0  0  0
 49 50  2  0  0  0  0
 50 55  1  0  0  0  0
 51 48  1  0  0  0  0
 51 53  1  0  0  0  0
 52 57  1  0  0  0  0
 53 47  2  0  0  0  0
 55 52  2  0  0  0  0
 56 54  1  0  0  0  0
M  END
>  <MODEL>
8

>  <REMARK>
 VINA RESULT:      -7.7      3.993      9.016
  Name = 
  12 active torsions:
  status: ('A' for Active; 'I' for Inactive)
    1  A    between atoms: C_6  and  N_26
    2  A    between atoms: C_10  and  C_22
    3  A    between atoms: C_10  and  C_56
    4  A    between atoms: C_11  and  C_47
    5  A    between atoms: O_13  and  C_16
    6  A    between atoms: O_13  and  C_34
    7  A    between atoms: C_14  and  O_27
    8  A    between atoms: C_16  and  C_17
    9  A    between atoms: C_17  and  C_28
   10  A    between atoms: C_25  and  O_27
   11  A    between atoms: C_29  and  N_49
   12  A    between atoms: C_47  and  C_56
                            x       y       z     vdW  Elec       q    Type
                         _______ _______ _______ _____ _____    ______ ____

>  <TORSDO>
F 12

$$$$
=
 OpenBabel11062416443D

 57 64  0  0  1  0  0  0  0  0999 V2000
  182.7580  178.3640  144.1880 C   0  0  0  0  0  2  0  0  0  0  0  0
  183.4820  178.5710  141.8280 N   0  0  2  0  0  0  0  0  0  0  0  0
  184.8130  178.9340  142.3900 C   0  0  2  0  0  3  0  0  0  0  0  0
  181.7220  180.1210  142.7600 C   0  0  0  0  0  1  0  0  0  0  0  0
  183.8630  179.3070  144.6950 C   0  0  2  0  0  3  0  0  0  0  0  0
  181.5470  177.2790  140.1790 C   0  0  1  0  0  3  0  0  0  0  0  0
  184.7260  179.8970  143.5710 C   0  0  0  0  0  2  0  0  0  0  0  0
  183.2040  179.1980  140.5300 C   0  0  0  0  0  2  0  0  0  0  0  0
  181.2360  177.7120  142.3490 C   0  0  0  0  0  2  0  0  0  0  0  0
  182.3270  178.7080  142.7600 C   0  0  2  0  0  0  0  0  0  0  0  0
  182.6190  178.1770  139.5530 C   0  0  0  0  0  2  0  0  0  0  0  0
  180.7390  178.0030  141.0670 O   0  0  0  0  0  0  0  0  0  0  0  0
  180.1390  175.3850  137.3480 C   0  0  0  0  0  3  0  0  0  0  0  0
  180.1900  174.4390  136.3320 C   0  0  0  0  0  0  0  0  0  0  0  0
  182.5290  173.5390  136.5560 C   0  0  0  0  0  3  0  0  0  0  0  0
  181.1000  175.7760  138.2800 C   0  0  0  0  0  0  0  0  0  0  0  0
  179.2520  173.3100  134.5940 C   0  0  0  0  0  3  0  0  0  0  0  0
  180.7990  172.6700  134.6930 S   0  0  0  0  0  0  0  0  0  0  0  0
  183.0280  174.2710  137.6180 C   0  0  0  0  0  3  0  0  0  0  0  0
  180.7280  176.7080  139.1110 N   0  0  0  0  0  0  0  0  0  0  0  0
  179.0900  174.2540  135.5510 N   0  0  0  0  0  0  0  0  0  0  0  0
  181.2680  173.6230  135.9940 C   0  0  0  0  0  0  0  0  0  0  0  0
  182.3960  175.2530  138.3710 C   0  0  0  0  0  3  0  0  0  0  0  0
  184.2020  178.2750  146.8010 O   0  0  0  0  0  0  0  0  0  0  0  0
  184.6970  178.6320  145.7390 C   0  0  0  0  0  0  0  0  0  0  0  0
  186.1420  178.3720  145.4630 C   0  0  0  0  0  2  0  0  0  0  0  0
  186.8470  177.9190  146.7330 C   0  0  0  0  0  2  0  0  0  0  0  0
  188.2820  177.6070  146.4570 C   0  0  0  0  0  0  0  0  0  0  0  0
  188.8450  177.9620  145.1970 N   0  0  0  0  0  2  0  0  0  0  0  0
  188.9720  176.9910  147.3150 O   0  0  0  0  0  0  0  0  0  0  0  0
  189.3910  175.9740  143.4710 O   0  0  0  0  0  1  0  0  0  0  0  0
  190.2510  177.7310  144.8790 C   0  0  1  0  0  3  0  0  0  0  0  0
  190.4760  176.3500  144.2730 C   0  0  2  0  0  3  0  0  0  0  0  0
  191.8100  177.9870  143.0500 C   0  0  0  0  0  2  0  0  0  0  0  0
  190.7360  178.7160  143.8340 C   0  0  0  0  0  2  0  0  0  0  0  0
  191.7000  176.5100  143.3950 C   0  0  0  0  0  2  0  0  0  0  0  0
  185.7140  179.4340  141.4000 O   0  0  0  0  0  0  0  0  0  0  0  0
  186.5450  178.2240  139.4430 C   0  0  0  0  0  3  0  0  0  0  0  0
  186.6790  178.6350  140.7790 C   0  0  0  0  0  0  0  0  0  0  0  0
  188.6990  177.1130  139.5500 C   0  0  0  0  0  0  0  0  0  0  0  0
  187.5490  177.4640  138.8360 C   0  0  0  0  0  3  0  0  0  0  0  0
  187.8140  178.2610  141.5010 C   0  0  0  0  0  3  0  0  0  0  0  0
  188.8230  177.5100  140.8900 C   0  0  0  0  0  3  0  0  0  0  0  0
  189.7070  176.3870  138.9030 O   0  0  0  0  0  0  0  0  0  0  0  0
  190.9170  176.9800  138.4380 C   0  0  0  0  0  2  0  0  0  0  0  0
  191.2070  176.5450  137.0120 C   0  0  0  0  0  2  0  0  0  0  0  0
  195.1940  174.9960  136.6240 C   0  0  0  0  0  0  0  0  0  0  0  0
  196.1230  173.0600  138.4520 N   0  0  0  0  0  2  0  0  0  0  0  0
  192.9970  174.9240  137.6670 C   0  0  0  0  0  3  0  0  0  0  0  0
  192.6070  176.0390  136.9180 C   0  0  0  0  0  0  0  0  0  0  0  0
  194.6690  173.1750  138.3050 C   0  0  0  0  0  2  0  0  0  0  0  0
  194.7950  176.1210  135.8800 C   0  0  0  0  0  0  0  0  0  0  0  0
  194.2900  174.4150  137.5410 C   0  0  0  0  0  0  0  0  0  0  0  0
  196.6020  174.4620  136.5080 C   0  0  0  0  0  2  0  0  0  0  0  0
  193.5040  176.6330  136.0280 C   0  0  0  0  0  3  0  0  0  0  0  0
  196.7230  173.0650  137.1170 C   0  0  0  0  0  2  0  0  0  0  0  0
  195.8890  176.9090  134.7440 Cl  0  0  0  0  0  0  0  0  0  0  0  0
  1  5  1  0  0  0  0
  2  8  1  6  0  0  0
  2  3  1  0  0  0  0
  2 10  1  0  0  0  0
  3 37  1  6  0  0  0
  3  7  1  0  0  0  0
  5 25  1  1  0  0  0
  6 20  1  6  0  0  0
  6 12  1  0  0  0  0
  7  5  1  0  0  0  0
  9 10  1  0  0  0  0
 10  4  1  6  0  0  0
 10  1  1  0  0  0  0
 11  6  1  0  0  0  0
 11  8  1  0  0  0  0
 12  9  1  0  0  0  0
 13 16  1  0  0  0  0
 14 13  2  0  0  0  0
 15 19  1  0  0  0  0
 16 23  1  0  0  0  0
 16 20  2  0  0  0  0
 17 18  1  0  0  0  0
 17 21  2  0  0  0  0
 18 22  1  0  0  0  0
 19 23  2  0  0  0  0
 21 14  1  0  0  0  0
 22 14  1  0  0  0  0
 22 15  2  0  0  0  0
 25 24  2  0  0  0  0
 26 25  1  0  0  0  0
 26 27  1  0  0  0  0
 28 27  1  0  0  0  0
 28 30  2  0  0  0  0
 29 28  1  0  0  0  0
 32 29  1  6  0  0  0
 33 31  1  6  0  0  0
 33 32  1  0  0  0  0
 34 36  1  0  0  0  0
 34 35  1  0  0  0  0
 35 32  1  0  0  0  0
 36 33  1  0  0  0  0
 38 39  1  0  0  0  0
 39 37  1  0  0  0  0
 39 42  2  0  0  0  0
 40 43  2  0  0  0  0
 41 38  2  0  0  0  0
 41 40  1  0  0  0  0
 43 42  1  0  0  0  0
 44 40  1  0  0  0  0
 45 44  1  0  0  0  0
 46 45  1  0  0  0  0
 47 53  1  0  0  0  0
 50 46  1  0  0  0  0
 50 49  1  0  0  0  0
 51 48  1  0  0  0  0
 52 55  1  0  0  0  0
 52 47  2  0  0  0  0
 53 49  2  0  0  0  0
 53 51  1  0  0  0  0
 54 47  1  0  0  0  0
 54 56  1  0  0  0  0
 55 50  2  0  0  0  0
 56 48  1  0  0  0  0
 57 52  1  0  0  0  0
M  END
>  <MODEL>
9

>  <REMARK>
 VINA RESULT:      -7.4      3.617      9.354
  Name = 
  12 active torsions:
  status: ('A' for Active; 'I' for Inactive)
    1  A    between atoms: C_6  and  N_26
    2  A    between atoms: C_10  and  C_22
    3  A    between atoms: C_10  and  C_56
    4  A    between atoms: C_11  and  C_47
    5  A    between atoms: O_13  and  C_16
    6  A    between atoms: O_13  and  C_34
    7  A    between atoms: C_14  and  O_27
    8  A    between atoms: C_16  and  C_17
    9  A    between atoms: C_17  and  C_28
   10  A    between atoms: C_25  and  O_27
   11  A    between atoms: C_29  and  N_49
   12  A    between atoms: C_47  and  C_56
                            x       y       z     vdW  Elec       q    Type
                         _______ _______ _______ _____ _____    ______ ____

>  <TORSDO>
F 12

$$$$
