=
 OpenBabel11062416493D

 34 37  0  0  1  0  0  0  0  0999 V2000
  184.6620  178.0150  140.9740 C   0  0  1  0  0  3  0  0  0  0  0  0
  185.7200  178.0650  137.5290 C   0  0  0  0  0  3  0  0  0  0  0  0
  182.9750  179.3070  139.5070 C   0  0  0  0  0  0  0  0  0  0  0  0
  182.4130  178.7240  141.7700 C   0  0  0  0  0  3  0  0  0  0  0  0
  182.1580  179.3730  140.5160 N   0  0  0  0  0  0  0  0  0  0  0  0
  184.9770  178.3060  138.5740 C   0  0  0  0  0  0  0  0  0  0  0  0
  182.6360  179.9650  138.2900 N   0  0  0  0  0  1  0  0  0  0  0  0
  183.5570  178.0730  141.9980 C   0  0  0  0  0  3  0  0  0  0  0  0
  184.2340  178.5410  139.6250 C   0  0  0  0  0  0  0  0  0  0  0  0
  187.6300  175.4430  135.6450 C   0  0  0  0  0  2  0  0  0  0  0  0
  188.7340  175.7490  138.2150 C   0  0  0  0  0  2  0  0  0  0  0  0
  186.5020  176.7900  137.4150 C   0  0  2  0  0  3  0  0  0  0  0  0
  188.0010  176.9680  137.6450 C   0  0  2  0  0  0  0  0  0  0  0  0
  189.4780  175.0310  137.1310 C   0  0  0  0  0  0  0  0  0  0  0  0
  187.4570  176.8520  136.2200 C   0  0  1  0  0  3  0  0  0  0  0  0
  190.7560  174.4690  137.4030 N   0  0  0  0  0  1  0  0  0  0  0  0
  188.9580  174.9150  135.9480 N   0  0  0  0  0  0  0  0  0  0  0  0
  188.5380  178.3020  137.9630 C   0  0  0  0  0  0  0  0  0  0  0  0
  188.9600  179.3500  138.2100 N   0  0  0  0  0  0  0  0  0  0  0  0
  187.0940  178.1260  141.3850 C   0  0  0  0  0  3  0  0  0  0  0  0
  185.7660  179.9660  142.0570 O   0  0  0  0  0  1  0  0  0  0  0  0
  185.8960  178.7080  141.4800 C   0  0  0  0  0  0  0  0  0  0  0  0
  188.3490  178.7740  141.8710 C   0  0  0  0  0  2  0  0  0  0  0  0
  189.5060  177.7790  141.8410 C   0  0  0  0  0  2  0  0  0  0  0  0
  190.2390  177.6420  143.1800 C   0  0  1  0  0  0  0  0  0  0  0  0
  191.4350  176.9690  142.9390 O   0  0  0  0  0  1  0  0  0  0  0  0
  190.5830  179.0060  143.7630 C   0  0  0  0  0  1  0  0  0  0  0  0
  189.4310  176.8090  144.1820 C   0  0  0  0  0  2  0  0  0  0  0  0
  187.5400  177.9960  147.5610 C   0  0  0  0  0  2  0  0  0  0  0  0
  186.6890  178.1450  146.3010 C   0  0  0  0  0  2  0  0  0  0  0  0
  188.8370  177.6270  145.2300 N   0  0  0  0  0  0  0  0  0  0  0  0
  189.3530  177.1210  146.5180 C   0  0  0  0  0  2  0  0  0  0  0  0
  188.3360  176.8440  147.4630 O   0  0  0  0  0  0  0  0  0  0  0  0
  187.3850  177.4540  145.1310 C   0  0  0  0  0  2  0  0  0  0  0  0
  1 22  1  1  0  0  0
  1  8  1  0  0  0  0
  2  6  2  0  0  0  0
  3  9  1  0  0  0  0
  3  5  2  0  0  0  0
  4  8  2  0  0  0  0
  5  4  1  0  0  0  0
  6  9  2  0  0  0  0
  7  3  1  0  0  0  0
  9  1  1  0  0  0  0
 10 17  1  0  0  0  0
 12  2  1  6  0  0  0
 12 13  1  0  0  0  0
 13 18  1  1  0  0  0
 13 11  1  0  0  0  0
 14 16  1  0  0  0  0
 14 11  1  0  0  0  0
 15 10  1  1  0  0  0
 15 12  1  0  0  0  0
 15 13  1  0  0  0  0
 17 14  2  0  0  0  0
 18 19  3  0  0  0  0
 20 22  2  0  0  0  0
 20 23  1  0  0  0  0
 22 21  1  0  0  0  0
 24 23  1  0  0  0  0
 24 25  1  0  0  0  0
 25 27  1  1  0  0  0
 25 28  1  0  0  0  0
 26 25  1  0  0  0  0
 28 31  1  0  0  0  0
 30 29  1  0  0  0  0
 31 32  1  0  0  0  0
 32 33  1  0  0  0  0
 33 29  1  0  0  0  0
 34 31  1  0  0  0  0
 34 30  1  0  0  0  0
M  END
>  <MODEL>
1

>  <REMARK>
 VINA RESULT:      -7.1      0.000      0.000
  Name = 
  8 active torsions:
  status: ('A' for Active; 'I' for Inactive)
    1  A    between atoms: C_2  and  C_29
    2  A    between atoms: C_5  and  C_12
    3  A    between atoms: C_5  and  C_27
    4  A    between atoms: C_6  and  C_10
    5  A    between atoms: C_12  and  C_15
    6  A    between atoms: C_13  and  C_19
    7  A    between atoms: C_14  and  C_15
    8  A    between atoms: N_18  and  C_27
                            x       y       z     vdW  Elec       q    Type
                         _______ _______ _______ _____ _____    ______ ____

>  <TORSDO>
F 8

$$$$
=
 OpenBabel11062416493D

 34 37  0  0  1  0  0  0  0  0999 V2000
  186.8270  177.2170  143.2330 C   0  0  1  0  0  3  0  0  0  0  0  0
  183.7260  178.5890  142.0140 C   0  0  0  0  0  3  0  0  0  0  0  0
  185.7220  178.7260  145.0120 C   0  0  0  0  0  0  0  0  0  0  0  0
  187.5870  177.3280  145.6010 C   0  0  0  0  0  3  0  0  0  0  0  0
  186.6070  178.3380  145.8820 N   0  0  0  0  0  0  0  0  0  0  0  0
  184.7110  178.3610  142.8390 C   0  0  0  0  0  0  0  0  0  0  0  0
  184.7720  179.7210  145.3800 N   0  0  0  0  0  1  0  0  0  0  0  0
  187.6950  176.7810  144.3870 C   0  0  0  0  0  3  0  0  0  0  0  0
  185.6990  178.1240  143.6620 C   0  0  0  0  0  0  0  0  0  0  0  0
  181.1460  176.7940  139.9650 C   0  0  0  0  0  2  0  0  0  0  0  0
  183.5970  176.8260  138.5810 C   0  0  0  0  0  2  0  0  0  0  0  0
  183.2660  177.5380  141.0490 C   0  0  2  0  0  3  0  0  0  0  0  0
  183.3740  177.9610  139.5850 C   0  0  2  0  0  0  0  0  0  0  0  0
  182.3150  176.4830  137.8840 C   0  0  0  0  0  0  0  0  0  0  0  0
  182.0190  178.0090  140.2950 C   0  0  1  0  0  3  0  0  0  0  0  0
  182.3300  176.1430  136.5030 N   0  0  0  0  0  1  0  0  0  0  0  0
  181.1940  176.4900  138.5370 N   0  0  0  0  0  0  0  0  0  0  0  0
  183.9070  179.2910  139.2470 C   0  0  0  0  0  0  0  0  0  0  0  0
  184.3250  180.3370  138.9810 N   0  0  0  0  0  0  0  0  0  0  0  0
  188.8510  177.3240  141.8230 C   0  0  0  0  0  3  0  0  0  0  0  0
  187.1640  178.9470  141.4750 O   0  0  0  0  0  1  0  0  0  0  0  0
  187.6580  177.8320  142.1430 C   0  0  0  0  0  0  0  0  0  0  0  0
  189.7130  177.8970  140.7460 C   0  0  0  0  0  2  0  0  0  0  0  0
  189.5860  177.0730  139.4690 C   0  0  0  0  0  2  0  0  0  0  0  0
  188.9780  177.8440  138.2920 C   0  0  1  0  0  0  0  0  0  0  0  0
  188.9950  179.1980  138.6190 O   0  0  0  0  0  1  0  0  0  0  0  0
  189.8050  177.6610  137.0260 C   0  0  0  0  0  1  0  0  0  0  0  0
  187.5170  177.4420  138.0510 C   0  0  0  0  0  2  0  0  0  0  0  0
  185.8090  175.9610  134.6900 C   0  0  0  0  0  2  0  0  0  0  0  0
  186.3230  174.8810  135.6400 C   0  0  0  0  0  2  0  0  0  0  0  0
  187.3190  176.8370  136.7410 N   0  0  0  0  0  0  0  0  0  0  0  0
  186.4020  177.7200  135.9910 C   0  0  0  0  0  2  0  0  0  0  0  0
  185.2960  177.0390  135.4290 O   0  0  0  0  0  0  0  0  0  0  0  0
  186.7220  175.5190  136.9690 C   0  0  0  0  0  2  0  0  0  0  0  0
  1 22  1  6  0  0  0
  1  9  1  0  0  0  0
  1  8  1  0  0  0  0
  2  6  2  0  0  0  0
  3  7  1  0  0  0  0
  3  5  2  0  0  0  0
  4  5  1  0  0  0  0
  6  9  2  0  0  0  0
  8  4  2  0  0  0  0
  9  3  1  0  0  0  0
 11 13  1  0  0  0  0
 12  2  1  1  0  0  0
 13 18  1  6  0  0  0
 13 15  1  0  0  0  0
 13 12  1  0  0  0  0
 14 17  2  0  0  0  0
 14 11  1  0  0  0  0
 15 10  1  6  0  0  0
 15 12  1  0  0  0  0
 16 14  1  0  0  0  0
 17 10  1  0  0  0  0
 19 18  3  0  0  0  0
 20 22  2  0  0  0  0
 21 22  1  0  0  0  0
 23 20  1  0  0  0  0
 24 23  1  0  0  0  0
 25 27  1  6  0  0  0
 25 26  1  0  0  0  0
 25 24  1  0  0  0  0
 28 25  1  0  0  0  0
 29 33  1  0  0  0  0
 29 30  1  0  0  0  0
 30 34  1  0  0  0  0
 31 34  1  0  0  0  0
 31 28  1  0  0  0  0
 32 31  1  0  0  0  0
 33 32  1  0  0  0  0
M  END
>  <MODEL>
2

>  <REMARK>
 VINA RESULT:      -7.0      2.508      6.857
  Name = 
  8 active torsions:
  status: ('A' for Active; 'I' for Inactive)
    1  A    between atoms: C_2  and  C_29
    2  A    between atoms: C_5  and  C_12
    3  A    between atoms: C_5  and  C_27
    4  A    between atoms: C_6  and  C_10
    5  A    between atoms: C_12  and  C_15
    6  A    between atoms: C_13  and  C_19
    7  A    between atoms: C_14  and  C_15
    8  A    between atoms: N_18  and  C_27
                            x       y       z     vdW  Elec       q    Type
                         _______ _______ _______ _____ _____    ______ ____

>  <TORSDO>
F 8

$$$$
=
 OpenBabel11062416493D

 34 37  0  0  1  0  0  0  0  0999 V2000
  186.8870  177.2500  143.4860 C   0  0  1  0  0  3  0  0  0  0  0  0
  183.9010  178.6040  141.9900 C   0  0  0  0  0  3  0  0  0  0  0  0
  185.6490  178.8030  145.1360 C   0  0  0  0  0  0  0  0  0  0  0  0
  187.4530  177.4130  145.9040 C   0  0  0  0  0  3  0  0  0  0  0  0
  186.4590  178.4320  146.0820 N   0  0  0  0  0  0  0  0  0  0  0  0
  184.8150  178.3910  142.8960 C   0  0  0  0  0  0  0  0  0  0  0  0
  184.6770  179.8100  145.4030 N   0  0  0  0  0  1  0  0  0  0  0  0
  187.6560  176.8380  144.7160 C   0  0  0  0  0  3  0  0  0  0  0  0
  185.7320  178.1700  143.8020 C   0  0  0  0  0  0  0  0  0  0  0  0
  181.4440  176.6000  139.9850 C   0  0  0  0  0  2  0  0  0  0  0  0
  183.8270  176.9100  138.5200 C   0  0  0  0  0  2  0  0  0  0  0  0
  183.5150  177.5320  141.0140 C   0  0  2  0  0  3  0  0  0  0  0  0
  183.5270  177.9950  139.5590 C   0  0  2  0  0  0  0  0  0  0  0  0
  182.5620  176.4540  137.8590 C   0  0  0  0  0  0  0  0  0  0  0  0
  182.2010  177.8900  140.3160 C   0  0  1  0  0  3  0  0  0  0  0  0
  182.5610  176.1470  136.4700 N   0  0  0  0  0  1  0  0  0  0  0  0
  181.4700  176.3330  138.5480 N   0  0  0  0  0  0  0  0  0  0  0  0
  183.9100  179.3800  139.2360 C   0  0  0  0  0  0  0  0  0  0  0  0
  184.2140  180.4670  138.9830 N   0  0  0  0  0  0  0  0  0  0  0  0
  187.4260  177.9380  141.1770 C   0  0  0  0  0  3  0  0  0  0  0  0
  189.0670  178.2690  142.8500 O   0  0  0  0  0  1  0  0  0  0  0  0
  187.8060  177.8370  142.4530 C   0  0  0  0  0  0  0  0  0  0  0  0
  188.3020  178.5160  140.1140 C   0  0  0  0  0  2  0  0  0  0  0  0
  188.5180  177.5020  138.9950 C   0  0  0  0  0  2  0  0  0  0  0  0
  188.1450  178.0270  137.6030 C   0  0  1  0  0  0  0  0  0  0  0  0
  186.8660  178.5730  137.6860 O   0  0  0  0  0  1  0  0  0  0  0  0
  189.0950  179.1320  137.1590 C   0  0  0  0  0  1  0  0  0  0  0  0
  188.1020  176.8970  136.5680 C   0  0  0  0  0  2  0  0  0  0  0  0
  187.4360  172.9380  137.1040 C   0  0  0  0  0  2  0  0  0  0  0  0
  186.1720  173.7890  137.2120 C   0  0  0  0  0  2  0  0  0  0  0  0
  187.8290  175.6010  137.1740 N   0  0  0  0  0  0  0  0  0  0  0  0
  188.8410  174.6590  136.6550 C   0  0  0  0  0  2  0  0  0  0  0  0
  188.2850  173.4710  136.1220 O   0  0  0  0  0  0  0  0  0  0  0  0
  186.4780  175.2150  136.7600 C   0  0  0  0  0  2  0  0  0  0  0  0
  1 22  1  6  0  0  0
  1  9  1  0  0  0  0
  1  8  1  0  0  0  0
  2  6  2  0  0  0  0
  3  7  1  0  0  0  0
  3  5  2  0  0  0  0
  4  5  1  0  0  0  0
  6  9  2  0  0  0  0
  8  4  2  0  0  0  0
  9  3  1  0  0  0  0
 11 13  1  0  0  0  0
 12  2  1  1  0  0  0
 13 18  1  6  0  0  0
 13 15  1  0  0  0  0
 13 12  1  0  0  0  0
 14 11  1  0  0  0  0
 14 17  2  0  0  0  0
 15 10  1  6  0  0  0
 15 12  1  0  0  0  0
 16 14  1  0  0  0  0
 17 10  1  0  0  0  0
 19 18  3  0  0  0  0
 20 22  2  0  0  0  0
 22 21  1  0  0  0  0
 23 20  1  0  0  0  0
 24 23  1  0  0  0  0
 25 27  1  6  0  0  0
 25 26  1  0  0  0  0
 25 24  1  0  0  0  0
 28 31  1  0  0  0  0
 28 25  1  0  0  0  0
 29 30  1  0  0  0  0
 32 31  1  0  0  0  0
 33 32  1  0  0  0  0
 33 29  1  0  0  0  0
 34 31  1  0  0  0  0
 34 30  1  0  0  0  0
M  END
>  <MODEL>
3

>  <REMARK>
 VINA RESULT:      -7.0      2.635      6.752
  Name = 
  8 active torsions:
  status: ('A' for Active; 'I' for Inactive)
    1  A    between atoms: C_2  and  C_29
    2  A    between atoms: C_5  and  C_12
    3  A    between atoms: C_5  and  C_27
    4  A    between atoms: C_6  and  C_10
    5  A    between atoms: C_12  and  C_15
    6  A    between atoms: C_13  and  C_19
    7  A    between atoms: C_14  and  C_15
    8  A    between atoms: N_18  and  C_27
                            x       y       z     vdW  Elec       q    Type
                         _______ _______ _______ _____ _____    ______ ____

>  <TORSDO>
F 8

$$$$
=
 OpenBabel11062416493D

 34 37  0  0  1  0  0  0  0  0999 V2000
  187.0840  177.2320  143.1990 C   0  0  1  0  0  3  0  0  0  0  0  0
  183.9750  178.5200  141.9110 C   0  0  0  0  0  3  0  0  0  0  0  0
  185.8700  178.6600  144.9740 C   0  0  0  0  0  0  0  0  0  0  0  0
  187.7650  177.3170  145.5910 C   0  0  0  0  0  3  0  0  0  0  0  0
  186.7410  178.2840  145.8630 N   0  0  0  0  0  0  0  0  0  0  0  0
  184.9410  178.3080  142.7620 C   0  0  0  0  0  0  0  0  0  0  0  0
  184.8730  179.6120  145.3320 N   0  0  0  0  0  1  0  0  0  0  0  0
  187.9310  176.8010  144.3700 C   0  0  0  0  0  3  0  0  0  0  0  0
  185.9110  178.0880  143.6110 C   0  0  0  0  0  0  0  0  0  0  0  0
  181.5100  176.5980  139.8360 C   0  0  0  0  0  2  0  0  0  0  0  0
  183.9160  176.9000  138.4060 C   0  0  0  0  0  2  0  0  0  0  0  0
  183.5840  177.4750  140.9090 C   0  0  2  0  0  3  0  0  0  0  0  0
  183.6200  177.9680  139.4640 C   0  0  2  0  0  0  0  0  0  0  0  0
  182.6520  176.4790  137.7200 C   0  0  0  0  0  0  0  0  0  0  0  0
  182.2840  177.8680  140.2020 C   0  0  1  0  0  3  0  0  0  0  0  0
  182.6630  176.2010  136.3250 N   0  0  0  0  0  1  0  0  0  0  0  0
  181.5500  176.3610  138.3940 N   0  0  0  0  0  0  0  0  0  0  0  0
  184.0300  179.3530  139.1750 C   0  0  0  0  0  0  0  0  0  0  0  0
  184.3510  180.4410  138.9480 N   0  0  0  0  0  0  0  0  0  0  0  0
  187.5570  177.8900  140.8660 C   0  0  0  0  0  3  0  0  0  0  0  0
  189.1050  178.5290  142.5380 O   0  0  0  0  0  1  0  0  0  0  0  0
  187.9260  177.9010  142.1490 C   0  0  0  0  0  0  0  0  0  0  0  0
  188.3570  178.5420  139.7870 C   0  0  0  0  0  2  0  0  0  0  0  0
  187.7300  178.2700  138.4230 C   0  0  0  0  0  2  0  0  0  0  0  0
  188.4830  177.2250  137.5920 C   0  0  1  0  0  0  0  0  0  0  0  0
  187.5550  176.2800  137.1610 O   0  0  0  0  0  1  0  0  0  0  0  0
  189.1140  177.8540  136.3560 C   0  0  0  0  0  1  0  0  0  0  0  0
  189.5380  176.4930  138.4300 C   0  0  0  0  0  2  0  0  0  0  0  0
  193.0170  174.8530  137.1600 C   0  0  0  0  0  2  0  0  0  0  0  0
  193.1980  176.1920  137.8730 C   0  0  0  0  0  2  0  0  0  0  0  0
  190.7500  176.2140  137.6730 N   0  0  0  0  0  0  0  0  0  0  0  0
  190.7640  174.7630  137.3970 C   0  0  0  0  0  2  0  0  0  0  0  0
  191.9760  174.1310  137.7640 O   0  0  0  0  0  0  0  0  0  0  0  0
  191.8790  176.6070  138.5210 C   0  0  0  0  0  2  0  0  0  0  0  0
  1 22  1  6  0  0  0
  1  9  1  0  0  0  0
  1  8  1  0  0  0  0
  2  6  2  0  0  0  0
  3  7  1  0  0  0  0
  3  5  2  0  0  0  0
  4  5  1  0  0  0  0
  6  9  2  0  0  0  0
  8  4  2  0  0  0  0
  9  3  1  0  0  0  0
 11 13  1  0  0  0  0
 12  2  1  1  0  0  0
 13 18  1  6  0  0  0
 13 15  1  0  0  0  0
 13 12  1  0  0  0  0
 14 17  2  0  0  0  0
 14 11  1  0  0  0  0
 15 10  1  6  0  0  0
 15 12  1  0  0  0  0
 16 14  1  0  0  0  0
 17 10  1  0  0  0  0
 19 18  3  0  0  0  0
 20 22  2  0  0  0  0
 22 21  1  0  0  0  0
 23 20  1  0  0  0  0
 24 23  1  0  0  0  0
 25 27  1  6  0  0  0
 25 24  1  0  0  0  0
 25 28  1  0  0  0  0
 26 25  1  0  0  0  0
 29 33  1  0  0  0  0
 29 30  1  0  0  0  0
 30 34  1  0  0  0  0
 31 28  1  0  0  0  0
 31 34  1  0  0  0  0
 32 31  1  0  0  0  0
 32 33  1  0  0  0  0
M  END
>  <MODEL>
4

>  <REMARK>
 VINA RESULT:      -6.9      2.669      6.630
  Name = 
  8 active torsions:
  status: ('A' for Active; 'I' for Inactive)
    1  A    between atoms: C_2  and  C_29
    2  A    between atoms: C_5  and  C_12
    3  A    between atoms: C_5  and  C_27
    4  A    between atoms: C_6  and  C_10
    5  A    between atoms: C_12  and  C_15
    6  A    between atoms: C_13  and  C_19
    7  A    between atoms: C_14  and  C_15
    8  A    between atoms: N_18  and  C_27
                            x       y       z     vdW  Elec       q    Type
                         _______ _______ _______ _____ _____    ______ ____

>  <TORSDO>
F 8

$$$$
=
 OpenBabel11062416493D

 34 37  0  0  1  0  0  0  0  0999 V2000
  189.5300  176.0430  138.2810 C   0  0  1  0  0  3  0  0  0  0  0  0
  191.2700  177.2620  141.1930 C   0  0  0  0  0  3  0  0  0  0  0  0
  192.0570  176.2880  137.8130 C   0  0  0  0  0  0  0  0  0  0  0  0
  190.6430  175.1330  136.2490 C   0  0  0  0  0  3  0  0  0  0  0  0
  191.8970  175.6920  136.6690 N   0  0  0  0  0  0  0  0  0  0  0  0
  191.0970  176.8420  139.9690 C   0  0  0  0  0  0  0  0  0  0  0  0
  193.3410  176.7980  138.1600 N   0  0  0  0  0  1  0  0  0  0  0  0
  189.5390  175.2660  136.9890 C   0  0  0  0  0  3  0  0  0  0  0  0
  190.9170  176.4160  138.7460 C   0  0  0  0  0  0  0  0  0  0  0  0
  190.1550  177.0880  144.7710 C   0  0  0  0  0  2  0  0  0  0  0  0
  187.9450  176.6890  143.0730 C   0  0  0  0  0  2  0  0  0  0  0  0
  190.4210  176.7430  142.3150 C   0  0  2  0  0  3  0  0  0  0  0  0
  189.1070  177.5010  142.4900 C   0  0  2  0  0  0  0  0  0  0  0  0
  187.7620  177.0060  144.5260 C   0  0  0  0  0  0  0  0  0  0  0  0
  190.2870  177.7950  143.4180 C   0  0  1  0  0  3  0  0  0  0  0  0
  186.4510  177.0860  145.0730 N   0  0  0  0  0  1  0  0  0  0  0  0
  188.7930  177.2030  145.2880 N   0  0  0  0  0  0  0  0  0  0  0  0
  188.7790  178.6130  141.5840 C   0  0  0  0  0  0  0  0  0  0  0  0
  188.5200  179.4890  140.8730 N   0  0  0  0  0  0  0  0  0  0  0  0
  187.3090  177.1210  138.3260 C   0  0  0  0  0  3  0  0  0  0  0  0
  189.2010  178.4830  137.9170 O   0  0  0  0  0  1  0  0  0  0  0  0
  188.6310  177.2420  138.1770 C   0  0  0  0  0  0  0  0  0  0  0  0
  186.3740  178.2820  138.2340 C   0  0  0  0  0  2  0  0  0  0  0  0
  184.9350  177.7950  138.0940 C   0  0  0  0  0  2  0  0  0  0  0  0
  183.9310  178.5740  138.9510 C   0  0  1  0  0  0  0  0  0  0  0  0
  184.5130  179.7980  139.2750 O   0  0  0  0  0  1  0  0  0  0  0  0
  182.6500  178.8590  138.1770 C   0  0  0  0  0  1  0  0  0  0  0  0
  183.6240  177.8430  140.2630 C   0  0  0  0  0  2  0  0  0  0  0  0
  182.9950  179.3750  143.9590 C   0  0  0  0  0  2  0  0  0  0  0  0
  181.7310  179.3040  143.1050 C   0  0  0  0  0  2  0  0  0  0  0  0
  183.3760  178.7630  141.3640 N   0  0  0  0  0  0  0  0  0  0  0  0
  184.3770  178.4660  142.4090 C   0  0  0  0  0  2  0  0  0  0  0  0
  183.8120  178.2650  143.6910 O   0  0  0  0  0  0  0  0  0  0  0  0
  182.0150  178.5000  141.8390 C   0  0  0  0  0  2  0  0  0  0  0  0
  1 22  1  6  0  0  0
  1  9  1  0  0  0  0
  3  7  1  0  0  0  0
  3  9  1  0  0  0  0
  4  5  1  0  0  0  0
  4  8  2  0  0  0  0
  5  3  2  0  0  0  0
  6  2  2  0  0  0  0
  8  1  1  0  0  0  0
  9  6  2  0  0  0  0
 10 17  1  0  0  0  0
 11 14  1  0  0  0  0
 12  2  1  6  0  0  0
 12 13  1  0  0  0  0
 12 15  1  0  0  0  0
 13 18  1  6  0  0  0
 13 11  1  0  0  0  0
 13 15  1  0  0  0  0
 14 16  1  0  0  0  0
 14 17  2  0  0  0  0
 15 10  1  1  0  0  0
 19 18  3  0  0  0  0
 21 22  1  0  0  0  0
 22 20  2  0  0  0  0
 23 20  1  0  0  0  0
 24 23  1  0  0  0  0
 24 25  1  0  0  0  0
 25 27  1  6  0  0  0
 25 26  1  0  0  0  0
 25 28  1  0  0  0  0
 28 31  1  0  0  0  0
 30 29  1  0  0  0  0
 31 34  1  0  0  0  0
 31 32  1  0  0  0  0
 32 33  1  0  0  0  0
 33 29  1  0  0  0  0
 34 30  1  0  0  0  0
M  END
>  <MODEL>
5

>  <REMARK>
 VINA RESULT:      -6.7      2.199      7.316
  Name = 
  8 active torsions:
  status: ('A' for Active; 'I' for Inactive)
    1  A    between atoms: C_2  and  C_29
    2  A    between atoms: C_5  and  C_12
    3  A    between atoms: C_5  and  C_27
    4  A    between atoms: C_6  and  C_10
    5  A    between atoms: C_12  and  C_15
    6  A    between atoms: C_13  and  C_19
    7  A    between atoms: C_14  and  C_15
    8  A    between atoms: N_18  and  C_27
                            x       y       z     vdW  Elec       q    Type
                         _______ _______ _______ _____ _____    ______ ____

>  <TORSDO>
F 8

$$$$
=
 OpenBabel11062416493D

 34 37  0  0  1  0  0  0  0  0999 V2000
  187.5900  178.5640  138.1340 C   0  0  1  0  0  3  0  0  0  0  0  0
  184.2240  177.2980  137.9030 C   0  0  0  0  0  3  0  0  0  0  0  0
  187.4310  176.6800  136.3760 C   0  0  0  0  0  0  0  0  0  0  0  0
  189.4130  178.0310  136.5250 C   0  0  0  0  0  3  0  0  0  0  0  0
  188.6480  176.9360  136.0000 N   0  0  0  0  0  0  0  0  0  0  0  0
  185.4980  177.4110  137.6460 C   0  0  0  0  0  0  0  0  0  0  0  0
  186.7350  175.5850  135.7890 N   0  0  0  0  0  1  0  0  0  0  0  0
  188.9360  178.8100  137.5000 C   0  0  0  0  0  3  0  0  0  0  0  0
  186.7760  177.5330  137.3910 C   0  0  0  0  0  0  0  0  0  0  0  0
  181.5530  179.8720  137.3440 C   0  0  0  0  0  2  0  0  0  0  0  0
  181.6850  179.2290  140.0800 C   0  0  0  0  0  2  0  0  0  0  0  0
  183.4040  178.4920  138.2880 C   0  0  2  0  0  3  0  0  0  0  0  0
  182.1630  178.1450  139.1080 C   0  0  2  0  0  0  0  0  0  0  0  0
  180.5100  179.9620  139.5100 C   0  0  0  0  0  0  0  0  0  0  0  0
  182.0310  178.4420  137.6130 C   0  0  1  0  0  3  0  0  0  0  0  0
  179.4470  180.3670  140.3650 N   0  0  0  0  0  1  0  0  0  0  0  0
  180.4610  180.2350  138.2430 N   0  0  0  0  0  0  0  0  0  0  0  0
  181.8860  176.7410  139.4550 C   0  0  0  0  0  0  0  0  0  0  0  0
  181.6690  175.6390  139.7300 N   0  0  0  0  0  0  0  0  0  0  0  0
  188.7840  177.5040  140.0180 C   0  0  0  0  0  3  0  0  0  0  0  0
  186.7670  178.6520  140.4820 O   0  0  0  0  0  1  0  0  0  0  0  0
  187.7410  178.2180  139.5890 C   0  0  0  0  0  0  0  0  0  0  0  0
  188.9800  177.1370  141.4520 C   0  0  0  0  0  2  0  0  0  0  0  0
  189.5910  178.3050  142.2210 C   0  0  0  0  0  2  0  0  0  0  0  0
  190.6170  177.8820  143.2770 C   0  0  1  0  0  0  0  0  0  0  0  0
  191.6360  177.1920  142.6240 O   0  0  0  0  0  1  0  0  0  0  0  0
  191.2390  179.0940  143.9580 C   0  0  0  0  0  1  0  0  0  0  0  0
  190.0020  176.9320  144.3120 C   0  0  0  0  0  2  0  0  0  0  0  0
  187.8600  177.7910  147.6410 C   0  0  0  0  0  2  0  0  0  0  0  0
  187.0550  177.9150  146.3490 C   0  0  0  0  0  2  0  0  0  0  0  0
  189.2880  177.6460  145.3620 N   0  0  0  0  0  0  0  0  0  0  0  0
  189.7920  177.1340  146.6530 C   0  0  0  0  0  2  0  0  0  0  0  0
  188.7650  176.7230  147.5360 O   0  0  0  0  0  0  0  0  0  0  0  0
  187.8650  177.3440  145.1870 C   0  0  0  0  0  2  0  0  0  0  0  0
  1 22  1  1  0  0  0
  3  9  1  0  0  0  0
  4  8  2  0  0  0  0
  5  3  2  0  0  0  0
  5  4  1  0  0  0  0
  6  2  2  0  0  0  0
  7  3  1  0  0  0  0
  8  1  1  0  0  0  0
  9  6  2  0  0  0  0
  9  1  1  0  0  0  0
 10 17  1  0  0  0  0
 12  2  1  6  0  0  0
 12 13  1  0  0  0  0
 13 18  1  1  0  0  0
 13 11  1  0  0  0  0
 14 11  1  0  0  0  0
 14 16  1  0  0  0  0
 15 10  1  1  0  0  0
 15 12  1  0  0  0  0
 15 13  1  0  0  0  0
 17 14  2  0  0  0  0
 18 19  3  0  0  0  0
 20 23  1  0  0  0  0
 22 20  2  0  0  0  0
 22 21  1  0  0  0  0
 23 24  1  0  0  0  0
 24 25  1  0  0  0  0
 25 27  1  1  0  0  0
 25 28  1  0  0  0  0
 26 25  1  0  0  0  0
 28 31  1  0  0  0  0
 30 29  1  0  0  0  0
 31 32  1  0  0  0  0
 32 33  1  0  0  0  0
 33 29  1  0  0  0  0
 34 31  1  0  0  0  0
 34 30  1  0  0  0  0
M  END
>  <MODEL>
6

>  <REMARK>
 VINA RESULT:      -6.5      1.785      5.550
  Name = 
  8 active torsions:
  status: ('A' for Active; 'I' for Inactive)
    1  A    between atoms: C_2  and  C_29
    2  A    between atoms: C_5  and  C_12
    3  A    between atoms: C_5  and  C_27
    4  A    between atoms: C_6  and  C_10
    5  A    between atoms: C_12  and  C_15
    6  A    between atoms: C_13  and  C_19
    7  A    between atoms: C_14  and  C_15
    8  A    between atoms: N_18  and  C_27
                            x       y       z     vdW  Elec       q    Type
                         _______ _______ _______ _____ _____    ______ ____

>  <TORSDO>
F 8

$$$$
=
 OpenBabel11062416493D

 34 37  0  0  1  0  0  0  0  0999 V2000
  182.8400  178.2440  140.7090 C   0  0  1  0  0  3  0  0  0  0  0  0
  184.1200  177.8310  137.3650 C   0  0  0  0  0  3  0  0  0  0  0  0
  181.6170  179.8010  139.0520 C   0  0  0  0  0  0  0  0  0  0  0  0
  180.7730  179.5070  141.2840 C   0  0  0  0  0  3  0  0  0  0  0  0
  180.7700  180.1190  139.9850 N   0  0  0  0  0  0  0  0  0  0  0  0
  183.3840  178.3040  138.3330 C   0  0  0  0  0  0  0  0  0  0  0  0
  181.5320  180.4440  137.7840 N   0  0  0  0  0  1  0  0  0  0  0  0
  181.7110  178.6220  141.6340 C   0  0  0  0  0  3  0  0  0  0  0  0
  182.6460  178.7700  139.3070 C   0  0  0  0  0  0  0  0  0  0  0  0
  184.3310  174.3530  135.9750 C   0  0  0  0  0  2  0  0  0  0  0  0
  186.7660  175.0210  137.2180 C   0  0  0  0  0  2  0  0  0  0  0  0
  184.5810  176.4040  137.3720 C   0  0  2  0  0  3  0  0  0  0  0  0
  185.9320  176.1940  136.6910 C   0  0  2  0  0  0  0  0  0  0  0  0
  186.6620  173.8470  136.2930 C   0  0  0  0  0  0  0  0  0  0  0  0
  184.6410  175.8520  135.9450 C   0  0  1  0  0  3  0  0  0  0  0  0
  187.8050  173.0350  136.0500 N   0  0  0  0  0  1  0  0  0  0  0  0
  185.5340  173.5660  135.7170 N   0  0  0  0  0  0  0  0  0  0  0  0
  186.6520  177.3470  136.1240 C   0  0  0  0  0  0  0  0  0  0  0  0
  187.2160  178.2520  135.6780 N   0  0  0  0  0  0  0  0  0  0  0  0
  184.5350  178.2560  142.5040 C   0  0  0  0  0  3  0  0  0  0  0  0
  184.9960  179.4750  140.5280 O   0  0  0  0  0  1  0  0  0  0  0  0
  184.1640  178.6580  141.2860 C   0  0  0  0  0  0  0  0  0  0  0  0
  185.8410  178.6380  143.1200 C   0  0  0  0  0  2  0  0  0  0  0  0
  186.5480  177.4040  143.6730 C   0  0  0  0  0  2  0  0  0  0  0  0
  188.0400  177.3380  143.3280 C   0  0  1  0  0  0  0  0  0  0  0  0
  188.3930  175.9930  143.2380 O   0  0  0  0  0  1  0  0  0  0  0  0
  188.3220  177.9840  141.9770 C   0  0  0  0  0  1  0  0  0  0  0  0
  188.9010  177.9740  144.4260 C   0  0  0  0  0  2  0  0  0  0  0  0
  191.0550  176.1710  147.3440 C   0  0  0  0  0  2  0  0  0  0  0  0
  191.8360  176.3760  146.0470 C   0  0  0  0  0  2  0  0  0  0  0  0
  189.6020  176.9780  145.2250 N   0  0  0  0  0  0  0  0  0  0  0  0
  189.1370  177.1370  146.6180 C   0  0  0  0  0  2  0  0  0  0  0  0
  190.1910  177.2570  147.5540 O   0  0  0  0  0  0  0  0  0  0  0  0
  191.0330  177.2680  145.1040 C   0  0  0  0  0  2  0  0  0  0  0  0
  1 22  1  1  0  0  0
  1  8  1  0  0  0  0
  2  6  2  0  0  0  0
  3  9  1  0  0  0  0
  3  5  2  0  0  0  0
  4  8  2  0  0  0  0
  5  4  1  0  0  0  0
  6  9  2  0  0  0  0
  7  3  1  0  0  0  0
  9  1  1  0  0  0  0
 12  2  1  6  0  0  0
 13 18  1  6  0  0  0
 13 11  1  0  0  0  0
 13 12  1  0  0  0  0
 14 11  1  0  0  0  0
 15 10  1  1  0  0  0
 15 13  1  0  0  0  0
 15 12  1  0  0  0  0
 16 14  1  0  0  0  0
 17 10  1  0  0  0  0
 17 14  2  0  0  0  0
 19 18  3  0  0  0  0
 20 23  1  0  0  0  0
 21 22  1  0  0  0  0
 22 20  2  0  0  0  0
 23 24  1  0  0  0  0
 25 27  1  6  0  0  0
 25 24  1  0  0  0  0
 25 28  1  0  0  0  0
 26 25  1  0  0  0  0
 28 31  1  0  0  0  0
 29 33  1  0  0  0  0
 30 29  1  0  0  0  0
 31 32  1  0  0  0  0
 32 33  1  0  0  0  0
 34 31  1  0  0  0  0
 34 30  1  0  0  0  0
M  END
>  <MODEL>
7

>  <REMARK>
 VINA RESULT:      -6.4      1.914      2.659
  Name = 
  8 active torsions:
  status: ('A' for Active; 'I' for Inactive)
    1  A    between atoms: C_2  and  C_29
    2  A    between atoms: C_5  and  C_12
    3  A    between atoms: C_5  and  C_27
    4  A    between atoms: C_6  and  C_10
    5  A    between atoms: C_12  and  C_15
    6  A    between atoms: C_13  and  C_19
    7  A    between atoms: C_14  and  C_15
    8  A    between atoms: N_18  and  C_27
                            x       y       z     vdW  Elec       q    Type
                         _______ _______ _______ _____ _____    ______ ____

>  <TORSDO>
F 8

$$$$
=
 OpenBabel11062416493D

 34 37  0  0  1  0  0  0  0  0999 V2000
  186.6580  177.3870  137.1280 C   0  0  1  0  0  3  0  0  0  0  0  0
  183.1430  177.2630  137.9180 C   0  0  0  0  0  3  0  0  0  0  0  0
  185.7700  174.9660  137.0120 C   0  0  0  0  0  0  0  0  0  0  0  0
  187.9570  175.4940  136.1660 C   0  0  0  0  0  3  0  0  0  0  0  0
  186.9030  174.5810  136.5070 N   0  0  0  0  0  0  0  0  0  0  0  0
  184.3300  176.8290  137.5930 C   0  0  0  0  0  0  0  0  0  0  0  0
  184.7700  173.9940  137.3030 N   0  0  0  0  0  1  0  0  0  0  0  0
  187.8560  176.8010  136.4260 C   0  0  0  0  0  3  0  0  0  0  0  0
  185.5220  176.4020  137.2630 C   0  0  0  0  0  0  0  0  0  0  0  0
  180.7090  179.6100  136.2940 C   0  0  0  0  0  2  0  0  0  0  0  0
  181.9420  180.8900  138.4760 C   0  0  0  0  0  2  0  0  0  0  0  0
  182.6670  178.6140  137.4760 C   0  0  2  0  0  3  0  0  0  0  0  0
  181.8690  179.3610  138.5430 C   0  0  2  0  0  0  0  0  0  0  0  0
  180.7000  181.4470  137.8490 C   0  0  0  0  0  0  0  0  0  0  0  0
  181.1380  178.6470  137.4050 C   0  0  1  0  0  3  0  0  0  0  0  0
  180.1400  182.6570  138.3430 N   0  0  0  0  0  1  0  0  0  0  0  0
  180.1380  180.8320  136.8540 N   0  0  0  0  0  0  0  0  0  0  0  0
  181.6540  178.7420  139.8610 C   0  0  0  0  0  0  0  0  0  0  0  0
  181.4850  178.2540  140.8970 N   0  0  0  0  0  0  0  0  0  0  0  0
  188.2310  177.6910  139.0070 C   0  0  0  0  0  3  0  0  0  0  0  0
  186.1550  178.8240  139.0980 O   0  0  0  0  0  1  0  0  0  0  0  0
  187.0500  177.9770  138.4530 C   0  0  0  0  0  0  0  0  0  0  0  0
  188.6680  178.2530  140.3190 C   0  0  0  0  0  2  0  0  0  0  0  0
  188.6980  177.1590  141.3820 C   0  0  0  0  0  2  0  0  0  0  0  0
  190.0580  177.0030  142.0720 C   0  0  1  0  0  0  0  0  0  0  0  0
  190.1800  175.6730  142.4690 O   0  0  0  0  0  1  0  0  0  0  0  0
  191.2010  177.3090  141.1130 C   0  0  0  0  0  1  0  0  0  0  0  0
  190.1540  177.8740  143.3300 C   0  0  0  0  0  2  0  0  0  0  0  0
  189.8070  176.7790  147.2140 C   0  0  0  0  0  2  0  0  0  0  0  0
  191.2440  176.7470  146.6970 C   0  0  0  0  0  2  0  0  0  0  0  0
  190.0950  177.0870  144.5540 N   0  0  0  0  0  0  0  0  0  0  0  0
  188.8780  177.5070  145.2790 C   0  0  0  0  0  2  0  0  0  0  0  0
  189.1170  177.8530  146.6300 O   0  0  0  0  0  0  0  0  0  0  0  0
  191.3050  177.4000  145.3180 C   0  0  0  0  0  2  0  0  0  0  0  0
  1  9  1  0  0  0  0
  1 22  1  1  0  0  0
  3  9  1  0  0  0  0
  3  7  1  0  0  0  0
  4  8  2  0  0  0  0
  4  5  1  0  0  0  0
  5  3  2  0  0  0  0
  6  2  2  0  0  0  0
  8  1  1  0  0  0  0
  9  6  2  0  0  0  0
 10 17  1  0  0  0  0
 11 13  1  0  0  0  0
 12  2  1  1  0  0  0
 12 13  1  0  0  0  0
 13 18  1  1  0  0  0
 14 16  1  0  0  0  0
 14 11  1  0  0  0  0
 15 10  1  6  0  0  0
 15 12  1  0  0  0  0
 15 13  1  0  0  0  0
 17 14  2  0  0  0  0
 18 19  3  0  0  0  0
 20 23  1  0  0  0  0
 22 20  2  0  0  0  0
 22 21  1  0  0  0  0
 23 24  1  0  0  0  0
 24 25  1  0  0  0  0
 25 27  1  6  0  0  0
 25 26  1  0  0  0  0
 25 28  1  0  0  0  0
 28 31  1  0  0  0  0
 30 29  1  0  0  0  0
 31 32  1  0  0  0  0
 31 34  1  0  0  0  0
 32 33  1  0  0  0  0
 33 29  1  0  0  0  0
 34 30  1  0  0  0  0
M  END
>  <MODEL>
8

>  <REMARK>
 VINA RESULT:      -6.2      2.200      5.883
  Name = 
  8 active torsions:
  status: ('A' for Active; 'I' for Inactive)
    1  A    between atoms: C_2  and  C_29
    2  A    between atoms: C_5  and  C_12
    3  A    between atoms: C_5  and  C_27
    4  A    between atoms: C_6  and  C_10
    5  A    between atoms: C_12  and  C_15
    6  A    between atoms: C_13  and  C_19
    7  A    between atoms: C_14  and  C_15
    8  A    between atoms: N_18  and  C_27
                            x       y       z     vdW  Elec       q    Type
                         _______ _______ _______ _____ _____    ______ ____

>  <TORSDO>
F 8

$$$$
=
 OpenBabel11062416493D

 34 37  0  0  1  0  0  0  0  0999 V2000
  186.2440  177.5650  142.7670 C   0  0  1  0  0  3  0  0  0  0  0  0
  182.9500  178.5530  141.6890 C   0  0  0  0  0  3  0  0  0  0  0  0
  184.9560  178.7260  144.6790 C   0  0  0  0  0  0  0  0  0  0  0  0
  187.0200  177.5810  145.1320 C   0  0  0  0  0  3  0  0  0  0  0  0
  185.9040  178.4010  145.5070 N   0  0  0  0  0  0  0  0  0  0  0  0
  183.9720  178.4040  142.4860 C   0  0  0  0  0  0  0  0  0  0  0  0
  183.8730  179.5290  145.1390 N   0  0  0  0  0  1  0  0  0  0  0  0
  187.1880  177.1650  143.8730 C   0  0  0  0  0  3  0  0  0  0  0  0
  185.0000  178.2480  143.2810 C   0  0  0  0  0  0  0  0  0  0  0  0
  180.7780  176.9750  139.0680 C   0  0  0  0  0  2  0  0  0  0  0  0
  183.4810  176.7500  138.3150 C   0  0  0  0  0  2  0  0  0  0  0  0
  182.6370  177.5330  140.6350 C   0  0  2  0  0  3  0  0  0  0  0  0
  183.1330  177.9190  139.2430 C   0  0  2  0  0  0  0  0  0  0  0  0
  182.3780  176.5190  137.3280 C   0  0  0  0  0  0  0  0  0  0  0  0
  181.6590  178.1070  139.6070 C   0  0  1  0  0  3  0  0  0  0  0  0
  182.6910  176.1550  135.9890 N   0  0  0  0  0  1  0  0  0  0  0  0
  181.1380  176.6440  137.6910 N   0  0  0  0  0  0  0  0  0  0  0  0
  183.8580  179.1860  139.0510 C   0  0  0  0  0  0  0  0  0  0  0  0
  184.4260  180.1830  138.9010 N   0  0  0  0  0  0  0  0  0  0  0  0
  187.9360  177.8700  140.9940 C   0  0  0  0  0  3  0  0  0  0  0  0
  186.5710  179.7190  141.5620 O   0  0  0  0  0  1  0  0  0  0  0  0
  186.9530  178.3920  141.7330 C   0  0  0  0  0  0  0  0  0  0  0  0
  188.6690  178.6500  139.9530 C   0  0  0  0  0  2  0  0  0  0  0  0
  189.6150  177.7400  139.1750 C   0  0  0  0  0  2  0  0  0  0  0  0
  190.5500  176.9130  140.0650 C   0  0  1  0  0  0  0  0  0  0  0  0
  190.6670  175.6480  139.4930 O   0  0  0  0  0  1  0  0  0  0  0  0
  191.9420  177.5280  140.1240 C   0  0  0  0  0  1  0  0  0  0  0  0
  189.9730  176.7350  141.4750 C   0  0  0  0  0  2  0  0  0  0  0  0
  191.6980  177.4470  145.0700 C   0  0  0  0  0  2  0  0  0  0  0  0
  191.3420  178.7190  144.3010 C   0  0  0  0  0  2  0  0  0  0  0  0
  190.9320  177.0860  142.5130 N   0  0  0  0  0  0  0  0  0  0  0  0
  190.9000  176.0020  143.5160 C   0  0  0  0  0  2  0  0  0  0  0  0
  190.7210  176.4660  144.8420 O   0  0  0  0  0  0  0  0  0  0  0  0
  190.4880  178.3590  143.0880 C   0  0  0  0  0  2  0  0  0  0  0  0
  1 22  1  6  0  0  0
  1  9  1  0  0  0  0
  1  8  1  0  0  0  0
  2  6  2  0  0  0  0
  3  7  1  0  0  0  0
  3  5  2  0  0  0  0
  4  5  1  0  0  0  0
  6  9  2  0  0  0  0
  8  4  2  0  0  0  0
  9  3  1  0  0  0  0
 11 13  1  0  0  0  0
 12  2  1  1  0  0  0
 13 18  1  6  0  0  0
 13 15  1  0  0  0  0
 13 12  1  0  0  0  0
 14 17  2  0  0  0  0
 14 11  1  0  0  0  0
 15 10  1  6  0  0  0
 15 12  1  0  0  0  0
 16 14  1  0  0  0  0
 17 10  1  0  0  0  0
 19 18  3  0  0  0  0
 20 22  2  0  0  0  0
 21 22  1  0  0  0  0
 23 20  1  0  0  0  0
 24 23  1  0  0  0  0
 24 25  1  0  0  0  0
 25 27  1  1  0  0  0
 25 28  1  0  0  0  0
 26 25  1  0  0  0  0
 28 31  1  0  0  0  0
 30 29  1  0  0  0  0
 31 34  1  0  0  0  0
 31 32  1  0  0  0  0
 32 33  1  0  0  0  0
 33 29  1  0  0  0  0
 34 30  1  0  0  0  0
M  END
>  <MODEL>
9

>  <REMARK>
 VINA RESULT:      -6.1      2.693      4.918
  Name = 
  8 active torsions:
  status: ('A' for Active; 'I' for Inactive)
    1  A    between atoms: C_2  and  C_29
    2  A    between atoms: C_5  and  C_12
    3  A    between atoms: C_5  and  C_27
    4  A    between atoms: C_6  and  C_10
    5  A    between atoms: C_12  and  C_15
    6  A    between atoms: C_13  and  C_19
    7  A    between atoms: C_14  and  C_15
    8  A    between atoms: N_18  and  C_27
                            x       y       z     vdW  Elec       q    Type
                         _______ _______ _______ _____ _____    ______ ____

>  <TORSDO>
F 8

$$$$
