=
 OpenBabel11062416473D

 28 31  0  0  1  0  0  0  0  0999 V2000
  188.0360  177.2810  138.6200 C   0  0  0  0  0  0  0  0  0  0  0  0
  188.7620  176.1650  138.1230 N   0  0  0  0  0  0  0  0  0  0  0  0
  190.1240  177.0990  141.1110 C   0  0  0  0  0  2  0  0  0  0  0  0
  190.1190  177.4730  139.6420 C   0  0  1  0  0  3  0  0  0  0  0  0
  189.2800  178.1260  141.8810 C   0  0  1  0  0  3  0  0  0  0  0  0
  188.1640  179.0560  140.7500 S   0  0  0  0  0  0  0  0  0  0  0  0
  190.0210  176.2740  138.7690 C   0  0  0  0  0  0  0  0  0  0  0  0
  190.9510  175.4430  138.5980 O   0  0  0  0  0  0  0  0  0  0  0  0
  188.7750  178.0410  139.4320 C   0  0  2  0  0  3  0  0  0  0  0  0
  187.0110  177.7450  142.9830 C   0  0  0  0  0  2  0  0  0  0  0  0
  189.1740  177.8160  144.3750 C   0  0  0  0  0  2  0  0  0  0  0  0
  188.5270  177.4630  143.0340 C   0  0  2  0  0  3  0  0  0  0  0  0
  187.7110  178.0230  147.7150 C   0  0  0  0  0  2  0  0  0  0  0  0
  186.4770  178.3780  144.2690 C   0  0  0  0  0  2  0  0  0  0  0  0
  186.1390  176.3720  145.5280 O   0  0  0  0  0  1  0  0  0  0  0  0
  188.9190  177.7500  146.8470 C   0  0  0  0  0  2  0  0  0  0  0  0
  186.5930  178.3550  146.7520 C   0  0  0  0  0  2  0  0  0  0  0  0
  186.8790  177.5560  145.4960 C   0  0  2  0  0  0  0  0  0  0  0  0
  188.3790  177.2150  145.5360 C   0  0  1  0  0  3  0  0  0  0  0  0
  186.5630  177.4280  138.3650 C   0  0  2  0  0  3  0  0  0  0  0  0
  185.6580  175.4690  137.3190 O   0  0  0  0  0  1  0  0  0  0  0  0
  186.1250  176.6310  137.1780 C   0  0  0  0  0  0  0  0  0  0  0  0
  186.2000  177.1920  135.9100 O   0  0  0  0  0  0  0  0  0  0  0  0
  186.2020  178.7750  138.2300 O   0  0  0  0  0  0  0  0  0  0  0  0
  184.6870  178.9230  138.9830 P   0  0  2  0  0  0  0  0  0  0  0  0
  184.7100  178.1840  140.5050 O   0  0  0  0  0  1  0  0  0  0  0  0
  183.4340  178.1130  137.9550 C   0  0  0  0  0  1  0  0  0  0  0  0
  184.3330  180.3850  139.1360 O   0  0  0  0  0  0  0  0  0  0  0  0
  2  1  2  0  0  0  0
  2  7  1  0  0  0  0
  4  3  1  1  0  0  0
  5  3  1  6  0  0  0
  5 12  1  0  0  0  0
  6  5  1  0  0  0  0
  7  4  1  0  0  0  0
  8  7  2  0  0  0  0
  9  1  1  1  0  0  0
  9  4  1  0  0  0  0
  9  6  1  0  0  0  0
 10 14  1  0  0  0  0
 12 10  1  1  0  0  0
 12 11  1  0  0  0  0
 14 18  1  0  0  0  0
 16 13  1  0  0  0  0
 17 13  1  0  0  0  0
 18 15  1  1  0  0  0
 18 19  1  0  0  0  0
 18 17  1  0  0  0  0
 19 11  1  6  0  0  0
 19 16  1  0  0  0  0
 20 22  1  6  0  0  0
 20  1  1  0  0  0  0
 22 21  1  0  0  0  0
 23 22  2  0  0  0  0
 24 20  1  0  0  0  0
 24 25  1  0  0  0  0
 25 27  1  6  0  0  0
 25 28  2  0  0  0  0
 25 26  1  0  0  0  0
M  END
>  <MODEL>
1

>  <REMARK>
 VINA RESULT:      -6.9      0.000      0.000
  Name = 
  5 active torsions:
  status: ('A' for Active; 'I' for Inactive)
    1  A    between atoms: C_1  and  C_16
    2  A    between atoms: C_4  and  C_20
    3  A    between atoms: P_6  and  O_17
    4  A    between atoms: C_16  and  O_17
    5  A    between atoms: C_16  and  C_27
                            x       y       z     vdW  Elec       q    Type
                         _______ _______ _______ _____ _____    ______ ____

>  <TORSDO>
F 5

$$$$
=
 OpenBabel11062416473D

 28 31  0  0  1  0  0  0  0  0999 V2000
  189.2550  175.9780  136.3780 C   0  0  0  0  0  0  0  0  0  0  0  0
  190.0820  174.8800  136.0150 N   0  0  0  0  0  0  0  0  0  0  0  0
  191.4290  176.3850  138.7680 C   0  0  0  0  0  2  0  0  0  0  0  0
  191.3360  176.5330  137.2620 C   0  0  1  0  0  3  0  0  0  0  0  0
  190.5030  177.4250  139.4190 C   0  0  1  0  0  3  0  0  0  0  0  0
  189.2580  178.0560  138.2190 S   0  0  0  0  0  0  0  0  0  0  0  0
  191.3420  175.2140  136.5780 C   0  0  0  0  0  0  0  0  0  0  0  0
  192.3500  174.4650  136.4860 O   0  0  0  0  0  0  0  0  0  0  0  0
  189.9330  176.9230  137.0350 C   0  0  2  0  0  3  0  0  0  0  0  0
  188.5240  177.5590  141.0230 C   0  0  0  0  0  2  0  0  0  0  0  0
  190.8640  176.8770  141.8480 C   0  0  0  0  0  2  0  0  0  0  0  0
  189.8630  176.8680  140.6900 C   0  0  2  0  0  3  0  0  0  0  0  0
  190.3020  177.1010  145.4490 C   0  0  0  0  0  2  0  0  0  0  0  0
  188.4960  178.1650  142.4270 C   0  0  0  0  0  2  0  0  0  0  0  0
  187.8730  176.2000  143.6410 O   0  0  0  0  0  1  0  0  0  0  0  0
  191.1540  176.6060  144.3020 C   0  0  0  0  0  2  0  0  0  0  0  0
  189.1460  177.8320  144.8030 C   0  0  0  0  0  2  0  0  0  0  0  0
  188.9010  177.1320  143.4820 C   0  0  2  0  0  0  0  0  0  0  0  0
  190.2060  176.3910  143.1390 C   0  0  1  0  0  3  0  0  0  0  0  0
  187.7680  175.9340  136.1740 C   0  0  2  0  0  3  0  0  0  0  0  0
  187.6490  177.7720  134.6390 O   0  0  0  0  0  0  0  0  0  0  0  0
  187.2350  177.2520  135.7090 C   0  0  0  0  0  0  0  0  0  0  0  0
  186.2470  177.8900  136.4460 O   0  0  0  0  0  1  0  0  0  0  0  0
  187.1090  175.5030  137.3320 O   0  0  0  0  0  0  0  0  0  0  0  0
  186.0620  174.2630  136.8310 P   0  0  2  0  0  0  0  0  0  0  0  0
  186.0390  173.0140  137.9730 O   0  0  0  0  0  1  0  0  0  0  0  0
  186.6440  173.6000  135.2480 C   0  0  0  0  0  1  0  0  0  0  0  0
  184.6640  174.8130  136.6550 O   0  0  0  0  0  0  0  0  0  0  0  0
  2  1  2  0  0  0  0
  2  7  1  0  0  0  0
  4  3  1  1  0  0  0
  5  3  1  6  0  0  0
  5 12  1  0  0  0  0
  6  5  1  0  0  0  0
  7  4  1  0  0  0  0
  8  7  2  0  0  0  0
  9  1  1  1  0  0  0
  9  4  1  0  0  0  0
  9  6  1  0  0  0  0
 10 14  1  0  0  0  0
 12 10  1  1  0  0  0
 12 11  1  0  0  0  0
 14 18  1  0  0  0  0
 16 13  1  0  0  0  0
 17 13  1  0  0  0  0
 18 15  1  1  0  0  0
 18 17  1  0  0  0  0
 19 11  1  6  0  0  0
 19 18  1  0  0  0  0
 19 16  1  0  0  0  0
 20 22  1  1  0  0  0
 20  1  1  0  0  0  0
 20 24  1  0  0  0  0
 21 22  2  0  0  0  0
 22 23  1  0  0  0  0
 25 27  1  6  0  0  0
 25 24  1  0  0  0  0
 25 26  1  0  0  0  0
 28 25  2  0  0  0  0
M  END
>  <MODEL>
2

>  <REMARK>
 VINA RESULT:      -6.7      2.595      3.507
  Name = 
  5 active torsions:
  status: ('A' for Active; 'I' for Inactive)
    1  A    between atoms: C_1  and  C_16
    2  A    between atoms: C_4  and  C_20
    3  A    between atoms: P_6  and  O_17
    4  A    between atoms: C_16  and  O_17
    5  A    between atoms: C_16  and  C_27
                            x       y       z     vdW  Elec       q    Type
                         _______ _______ _______ _____ _____    ______ ____

>  <TORSDO>
F 5

$$$$
=
 OpenBabel11062416473D

 28 31  0  0  1  0  0  0  0  0999 V2000
  186.0600  176.4080  137.1340 C   0  0  0  0  0  0  0  0  0  0  0  0
  186.1610  174.9910  137.1880 N   0  0  0  0  0  0  0  0  0  0  0  0
  189.2590  176.3170  137.7340 C   0  0  0  0  0  2  0  0  0  0  0  0
  188.2910  175.9890  136.6150 C   0  0  1  0  0  3  0  0  0  0  0  0
  189.2500  177.8380  137.9590 C   0  0  1  0  0  3  0  0  0  0  0  0
  187.7470  178.6110  137.2310 S   0  0  0  0  0  0  0  0  0  0  0  0
  187.5270  174.7440  136.8950 C   0  0  0  0  0  0  0  0  0  0  0  0
  188.0210  173.5870  136.8660 O   0  0  0  0  0  0  0  0  0  0  0  0
  187.2140  176.9810  136.7820 C   0  0  2  0  0  3  0  0  0  0  0  0
  190.5750  177.3770  140.0890 C   0  0  0  0  0  2  0  0  0  0  0  0
  188.0940  178.0520  140.1820 C   0  0  0  0  0  2  0  0  0  0  0  0
  189.4260  178.1750  139.4380 C   0  0  2  0  0  3  0  0  0  0  0  0
  187.4140  177.2910  143.6890 C   0  0  0  0  0  2  0  0  0  0  0  0
  190.1300  176.5770  141.3130 C   0  0  0  0  0  2  0  0  0  0  0  0
  190.3090  178.3150  142.9470 O   0  0  0  0  0  1  0  0  0  0  0  0
  186.9970  177.9860  142.4120 C   0  0  0  0  0  2  0  0  0  0  0  0
  188.7200  176.6010  143.3610 C   0  0  0  0  0  2  0  0  0  0  0  0
  189.3940  177.4690  142.3170 C   0  0  2  0  0  0  0  0  0  0  0  0
  188.2800  178.3160  141.6770 C   0  0  1  0  0  3  0  0  0  0  0  0
  184.8240  177.1200  137.6030 C   0  0  2  0  0  3  0  0  0  0  0  0
  183.8000  177.4040  135.4530 O   0  0  0  0  0  0  0  0  0  0  0  0
  183.6970  176.9700  136.6320 C   0  0  0  0  0  0  0  0  0  0  0  0
  182.5390  176.3120  137.0220 O   0  0  0  0  0  1  0  0  0  0  0  0
  185.0850  178.4700  137.8690 O   0  0  0  0  0  0  0  0  0  0  0  0
  184.1550  178.8580  139.2370 P   0  0  2  0  0  0  0  0  0  0  0  0
  183.6300  177.4480  140.0120 O   0  0  0  0  0  0  0  0  0  0  0  0
  182.7070  179.8160  138.7160 C   0  0  0  0  0  1  0  0  0  0  0  0
  184.9790  179.6870  140.1970 O   0  0  0  0  0  1  0  0  0  0  0  0
  1  2  2  0  0  0  0
  1 20  1  0  0  0  0
  4  9  1  0  0  0  0
  4  7  1  0  0  0  0
  4  3  1  1  0  0  0
  5  3  1  1  0  0  0
  5 12  1  0  0  0  0
  6  5  1  0  0  0  0
  7  2  1  0  0  0  0
  8  7  2  0  0  0  0
  9  1  1  1  0  0  0
  9  6  1  0  0  0  0
 10 14  1  0  0  0  0
 12 10  1  1  0  0  0
 12 11  1  0  0  0  0
 14 18  1  0  0  0  0
 16 13  1  0  0  0  0
 17 13  1  0  0  0  0
 18 15  1  1  0  0  0
 18 17  1  0  0  0  0
 19 11  1  6  0  0  0
 19 18  1  0  0  0  0
 19 16  1  0  0  0  0
 20 22  1  6  0  0  0
 20 24  1  0  0  0  0
 21 22  2  0  0  0  0
 22 23  1  0  0  0  0
 24 25  1  0  0  0  0
 25 27  1  6  0  0  0
 25 26  2  0  0  0  0
 25 28  1  0  0  0  0
M  END
>  <MODEL>
3

>  <REMARK>
 VINA RESULT:      -6.7      2.331      3.558
  Name = 
  5 active torsions:
  status: ('A' for Active; 'I' for Inactive)
    1  A    between atoms: C_1  and  C_16
    2  A    between atoms: C_4  and  C_20
    3  A    between atoms: P_6  and  O_17
    4  A    between atoms: C_16  and  O_17
    5  A    between atoms: C_16  and  C_27
                            x       y       z     vdW  Elec       q    Type
                         _______ _______ _______ _____ _____    ______ ____

>  <TORSDO>
F 5

$$$$
=
 OpenBabel11062416473D

 28 31  0  0  1  0  0  0  0  0999 V2000
  190.3510  175.3270  136.8340 C   0  0  0  0  0  0  0  0  0  0  0  0
  191.4540  174.4310  136.7790 N   0  0  0  0  0  0  0  0  0  0  0  0
  191.9310  176.5740  139.3930 C   0  0  0  0  0  2  0  0  0  0  0  0
  192.0700  176.4930  137.8860 C   0  0  1  0  0  3  0  0  0  0  0  0
  190.6970  177.4270  139.7260 C   0  0  1  0  0  3  0  0  0  0  0  0
  189.5700  177.5650  138.2780 S   0  0  0  0  0  0  0  0  0  0  0  0
  192.4890  175.1380  137.4430 C   0  0  0  0  0  0  0  0  0  0  0  0
  193.6400  174.6570  137.6190 O   0  0  0  0  0  0  0  0  0  0  0  0
  190.6770  176.4890  137.4070 C   0  0  2  0  0  3  0  0  0  0  0  0
  188.6590  177.6380  141.2460 C   0  0  0  0  0  2  0  0  0  0  0  0
  190.9410  176.8910  142.1720 C   0  0  0  0  0  2  0  0  0  0  0  0
  189.9880  176.9030  140.9740 C   0  0  2  0  0  3  0  0  0  0  0  0
  190.2380  177.1650  145.7450 C   0  0  0  0  0  2  0  0  0  0  0  0
  188.5930  178.2570  142.6420 C   0  0  0  0  0  2  0  0  0  0  0  0
  187.8580  176.3250  143.8440 O   0  0  0  0  0  1  0  0  0  0  0  0
  191.1200  176.6330  144.6380 C   0  0  0  0  0  2  0  0  0  0  0  0
  189.1330  177.9260  145.0460 C   0  0  0  0  0  2  0  0  0  0  0  0
  188.9210  177.2220  143.7210 C   0  0  2  0  0  0  0  0  0  0  0  0
  190.2150  176.4380  143.4390 C   0  0  1  0  0  3  0  0  0  0  0  0
  188.9700  174.8890  136.4400 C   0  0  2  0  0  3  0  0  0  0  0  0
  188.4900  172.6600  137.1830 O   0  0  0  0  0  1  0  0  0  0  0  0
  188.8930  173.4070  136.2520 C   0  0  0  0  0  0  0  0  0  0  0  0
  189.2340  172.8530  135.0260 O   0  0  0  0  0  0  0  0  0  0  0  0
  188.5280  175.5670  135.2970 O   0  0  0  0  0  0  0  0  0  0  0  0
  186.9510  176.0870  135.6510 P   0  0  2  0  0  0  0  0  0  0  0  0
  185.8350  175.3180  134.6370 O   0  0  0  0  0  0  0  0  0  0  0  0
  186.8450  177.8770  135.3910 C   0  0  0  0  0  1  0  0  0  0  0  0
  186.6220  175.7750  137.0940 O   0  0  0  0  0  1  0  0  0  0  0  0
  2  1  2  0  0  0  0
  2  7  1  0  0  0  0
  4  3  1  1  0  0  0
  5  3  1  6  0  0  0
  5 12  1  0  0  0  0
  6  5  1  0  0  0  0
  7  8  2  0  0  0  0
  7  4  1  0  0  0  0
  9  1  1  1  0  0  0
  9  4  1  0  0  0  0
  9  6  1  0  0  0  0
 10 14  1  0  0  0  0
 12 10  1  1  0  0  0
 12 11  1  0  0  0  0
 14 18  1  0  0  0  0
 16 13  1  0  0  0  0
 17 13  1  0  0  0  0
 18 15  1  1  0  0  0
 18 17  1  0  0  0  0
 19 11  1  6  0  0  0
 19 18  1  0  0  0  0
 19 16  1  0  0  0  0
 20 24  1  6  0  0  0
 20  1  1  0  0  0  0
 22 20  1  0  0  0  0
 22 21  1  0  0  0  0
 23 22  2  0  0  0  0
 24 25  1  0  0  0  0
 25 27  1  6  0  0  0
 25 28  1  0  0  0  0
 26 25  2  0  0  0  0
M  END
>  <MODEL>
4

>  <REMARK>
 VINA RESULT:      -6.7      2.773      3.717
  Name = 
  5 active torsions:
  status: ('A' for Active; 'I' for Inactive)
    1  A    between atoms: C_1  and  C_16
    2  A    between atoms: C_4  and  C_20
    3  A    between atoms: P_6  and  O_17
    4  A    between atoms: C_16  and  O_17
    5  A    between atoms: C_16  and  C_27
                            x       y       z     vdW  Elec       q    Type
                         _______ _______ _______ _____ _____    ______ ____

>  <TORSDO>
F 5

$$$$
=
 OpenBabel11062416473D

 28 31  0  0  1  0  0  0  0  0999 V2000
  186.6350  178.2780  142.5010 C   0  0  0  0  0  0  0  0  0  0  0  0
  186.3570  177.9520  143.8560 N   0  0  0  0  0  0  0  0  0  0  0  0
  183.3920  178.3660  142.2140 C   0  0  0  0  0  2  0  0  0  0  0  0
  184.5100  179.1600  142.8610 C   0  0  1  0  0  3  0  0  0  0  0  0
  183.5400  178.4670  140.6880 C   0  0  1  0  0  3  0  0  0  0  0  0
  185.2360  179.0030  140.2150 S   0  0  0  0  0  0  0  0  0  0  0  0
  185.0520  178.4710  144.0610 C   0  0  0  0  0  0  0  0  0  0  0  0
  184.4380  178.3620  145.1550 O   0  0  0  0  0  0  0  0  0  0  0  0
  185.6450  178.9790  141.9390 C   0  0  2  0  0  3  0  0  0  0  0  0
  183.5660  177.1040  138.5320 C   0  0  0  0  0  2  0  0  0  0  0  0
  181.6340  176.8940  140.2180 C   0  0  0  0  0  2  0  0  0  0  0  0
  183.1260  177.1620  140.0090 C   0  0  2  0  0  3  0  0  0  0  0  0
  179.2650  175.0260  138.1610 C   0  0  0  0  0  2  0  0  0  0  0  0
  182.4040  176.8490  137.5710 C   0  0  0  0  0  2  0  0  0  0  0  0
  182.3430  174.4630  137.7260 O   0  0  0  0  0  1  0  0  0  0  0  0
  179.6920  175.5030  139.5310 C   0  0  0  0  0  2  0  0  0  0  0  0
  180.3060  175.5660  137.2060 C   0  0  0  0  0  2  0  0  0  0  0  0
  181.6010  175.6150  137.9920 C   0  0  2  0  0  0  0  0  0  0  0  0
  181.2010  175.6280  139.4780 C   0  0  1  0  0  3  0  0  0  0  0  0
  187.8340  177.7150  141.7940 C   0  0  2  0  0  3  0  0  0  0  0  0
  188.4550  175.6500  142.8440 O   0  0  0  0  0  0  0  0  0  0  0  0
  188.6750  176.8840  142.7100 C   0  0  0  0  0  0  0  0  0  0  0  0
  189.7330  177.4710  143.3910 O   0  0  0  0  0  1  0  0  0  0  0  0
  188.5920  178.7280  141.1930 O   0  0  0  0  0  0  0  0  0  0  0  0
  189.0390  178.1260  139.6690 P   0  0  2  0  0  0  0  0  0  0  0  0
  187.9540  176.9290  139.1660 O   0  0  0  0  0  1  0  0  0  0  0  0
  190.6980  177.4040  139.7820 C   0  0  0  0  0  1  0  0  0  0  0  0
  189.0550  179.2510  138.6590 O   0  0  0  0  0  0  0  0  0  0  0  0
  1  2  2  0  0  0  0
  2  7  1  0  0  0  0
  4  3  1  6  0  0  0
  4  7  1  0  0  0  0
  5  3  1  1  0  0  0
  6  5  1  0  0  0  0
  7  8  2  0  0  0  0
  9  6  1  6  0  0  0
  9  1  1  0  0  0  0
  9  4  1  0  0  0  0
 12 10  1  6  0  0  0
 12 11  1  0  0  0  0
 12  5  1  0  0  0  0
 13 16  1  0  0  0  0
 14 18  1  0  0  0  0
 14 10  1  0  0  0  0
 17 18  1  0  0  0  0
 17 13  1  0  0  0  0
 18 15  1  6  0  0  0
 18 19  1  0  0  0  0
 19 16  1  6  0  0  0
 19 11  1  0  0  0  0
 20 24  1  1  0  0  0
 20  1  1  0  0  0  0
 20 22  1  0  0  0  0
 22 21  2  0  0  0  0
 22 23  1  0  0  0  0
 25 27  1  1  0  0  0
 25 24  1  0  0  0  0
 26 25  1  0  0  0  0
 28 25  2  0  0  0  0
M  END
>  <MODEL>
5

>  <REMARK>
 VINA RESULT:      -6.6      3.270      7.491
  Name = 
  5 active torsions:
  status: ('A' for Active; 'I' for Inactive)
    1  A    between atoms: C_1  and  C_16
    2  A    between atoms: C_4  and  C_20
    3  A    between atoms: P_6  and  O_17
    4  A    between atoms: C_16  and  O_17
    5  A    between atoms: C_16  and  C_27
                            x       y       z     vdW  Elec       q    Type
                         _______ _______ _______ _____ _____    ______ ____

>  <TORSDO>
F 5

$$$$
=
 OpenBabel11062416473D

 28 31  0  0  1  0  0  0  0  0999 V2000
  187.9430  177.8110  145.4300 C   0  0  0  0  0  0  0  0  0  0  0  0
  188.9090  178.4110  146.2830 N   0  0  0  0  0  0  0  0  0  0  0  0
  190.5420  176.9150  143.6860 C   0  0  0  0  0  2  0  0  0  0  0  0
  189.8860  176.5960  145.0150 C   0  0  1  0  0  3  0  0  0  0  0  0
  189.6110  176.4500  142.5550 C   0  0  1  0  0  3  0  0  0  0  0  0
  187.8910  176.2080  143.1640 S   0  0  0  0  0  0  0  0  0  0  0  0
  190.0950  177.6830  146.0070 C   0  0  0  0  0  0  0  0  0  0  0  0
  191.1960  177.9350  146.5620 O   0  0  0  0  0  0  0  0  0  0  0  0
  188.4490  176.7800  144.7460 C   0  0  2  0  0  3  0  0  0  0  0  0
  188.3360  178.1010  141.0880 C   0  0  0  0  0  2  0  0  0  0  0  0
  190.2630  176.6850  140.1370 C   0  0  0  0  0  2  0  0  0  0  0  0
  189.6830  177.3990  141.3600 C   0  0  2  0  0  3  0  0  0  0  0  0
  189.7460  177.3130  136.5770 C   0  0  0  0  0  2  0  0  0  0  0  0
  187.8280  177.8880  139.6620 C   0  0  0  0  0  2  0  0  0  0  0  0
  189.0480  179.6440  138.5910 O   0  0  0  0  0  1  0  0  0  0  0  0
  190.6490  176.8190  137.6850 C   0  0  0  0  0  2  0  0  0  0  0  0
  188.4750  177.7610  137.2650 C   0  0  0  0  0  2  0  0  0  0  0  0
  188.9000  178.2570  138.6330 C   0  0  2  0  0  0  0  0  0  0  0  0
  190.2670  177.6100  138.9200 C   0  0  1  0  0  3  0  0  0  0  0  0
  186.5860  178.4230  145.2360 C   0  0  2  0  0  3  0  0  0  0  0  0
  185.3410  177.7210  147.1610 O   0  0  0  0  0  1  0  0  0  0  0  0
  185.8970  178.6660  146.5410 C   0  0  0  0  0  0  0  0  0  0  0  0
  185.9030  179.9400  147.0920 O   0  0  0  0  0  0  0  0  0  0  0  0
  185.7940  177.6450  144.3830 O   0  0  0  0  0  0  0  0  0  0  0  0
  184.6810  178.7180  143.6810 P   0  0  2  0  0  0  0  0  0  0  0  0
  183.1850  178.6130  144.4650 O   0  0  0  0  0  1  0  0  0  0  0  0
  184.4600  178.2830  141.9350 C   0  0  0  0  0  1  0  0  0  0  0  0
  185.2050  180.1330  143.7770 O   0  0  0  0  0  0  0  0  0  0  0  0
  1  2  2  0  0  0  0
  4  3  1  6  0  0  0
  4  7  1  0  0  0  0
  5  6  1  0  0  0  0
  5  3  1  1  0  0  0
  7  2  1  0  0  0  0
  7  8  2  0  0  0  0
  9  6  1  6  0  0  0
  9  4  1  0  0  0  0
  9  1  1  0  0  0  0
 10 12  1  0  0  0  0
 12 11  1  6  0  0  0
 12  5  1  0  0  0  0
 13 17  1  0  0  0  0
 13 16  1  0  0  0  0
 14 10  1  0  0  0  0
 17 18  1  0  0  0  0
 18 15  1  6  0  0  0
 18 19  1  0  0  0  0
 18 14  1  0  0  0  0
 19 16  1  6  0  0  0
 19 11  1  0  0  0  0
 20 24  1  6  0  0  0
 20  1  1  0  0  0  0
 20 22  1  0  0  0  0
 22 23  2  0  0  0  0
 22 21  1  0  0  0  0
 25 27  1  6  0  0  0
 25 28  2  0  0  0  0
 25 24  1  0  0  0  0
 25 26  1  0  0  0  0
M  END
>  <MODEL>
6

>  <REMARK>
 VINA RESULT:      -6.6      3.180      6.944
  Name = 
  5 active torsions:
  status: ('A' for Active; 'I' for Inactive)
    1  A    between atoms: C_1  and  C_16
    2  A    between atoms: C_4  and  C_20
    3  A    between atoms: P_6  and  O_17
    4  A    between atoms: C_16  and  O_17
    5  A    between atoms: C_16  and  C_27
                            x       y       z     vdW  Elec       q    Type
                         _______ _______ _______ _____ _____    ______ ____

>  <TORSDO>
F 5

$$$$
=
 OpenBabel11062416473D

 28 31  0  0  1  0  0  0  0  0999 V2000
  190.6630  176.8270  139.0210 C   0  0  0  0  0  0  0  0  0  0  0  0
  190.3960  176.4360  140.3610 N   0  0  0  0  0  0  0  0  0  0  0  0
  187.5820  177.8780  139.0750 C   0  0  0  0  0  2  0  0  0  0  0  0
  188.9270  178.2340  139.6770 C   0  0  1  0  0  3  0  0  0  0  0  0
  187.6460  178.1150  137.5580 C   0  0  1  0  0  3  0  0  0  0  0  0
  189.3880  178.1930  136.9680 S   0  0  0  0  0  0  0  0  0  0  0  0
  189.3210  177.2790  140.7460 C   0  0  0  0  0  0  0  0  0  0  0  0
  188.7800  177.2200  141.8810 O   0  0  0  0  0  0  0  0  0  0  0  0
  189.8900  177.8450  138.6320 C   0  0  2  0  0  3  0  0  0  0  0  0
  185.3100  177.4020  136.8230 C   0  0  0  0  0  2  0  0  0  0  0  0
  187.1480  175.6640  137.2950 C   0  0  0  0  0  2  0  0  0  0  0  0
  186.8180  177.0750  136.8050 C   0  0  2  0  0  3  0  0  0  0  0  0
  185.0970  172.6420  137.3310 C   0  0  0  0  0  2  0  0  0  0  0  0
  184.4590  176.2640  137.3870 C   0  0  0  0  0  2  0  0  0  0  0  0
  184.2330  174.9750  135.3840 O   0  0  0  0  0  1  0  0  0  0  0  0
  186.4690  173.2730  137.2460 C   0  0  0  0  0  2  0  0  0  0  0  0
  184.1300  173.8000  137.4440 C   0  0  0  0  0  2  0  0  0  0  0  0
  184.7630  174.9430  136.6750 C   0  0  2  0  0  0  0  0  0  0  0  0
  186.2670  174.6270  136.5960 C   0  0  1  0  0  3  0  0  0  0  0  0
  191.5890  176.0330  138.1460 C   0  0  2  0  0  3  0  0  0  0  0  0
  193.6760  176.6360  137.1300 O   0  0  0  0  0  0  0  0  0  0  0  0
  192.9830  176.5750  138.1810 C   0  0  0  0  0  0  0  0  0  0  0  0
  193.5030  177.0500  139.3760 O   0  0  0  0  0  1  0  0  0  0  0  0
  191.1090  175.9570  136.8330 O   0  0  0  0  0  0  0  0  0  0  0  0
  190.8970  174.3030  136.5140 P   0  0  2  0  0  0  0  0  0  0  0  0
  192.3970  173.5260  136.4080 O   0  0  0  0  0  0  0  0  0  0  0  0
  190.0230  174.1100  134.9390 C   0  0  0  0  0  1  0  0  0  0  0  0
  190.0770  173.6710  137.6170 O   0  0  0  0  0  1  0  0  0  0  0  0
  1  2  2  0  0  0  0
  2  7  1  0  0  0  0
  4  3  1  6  0  0  0
  4  7  1  0  0  0  0
  5  3  1  1  0  0  0
  6  5  1  0  0  0  0
  7  8  2  0  0  0  0
  9  6  1  6  0  0  0
  9  1  1  0  0  0  0
  9  4  1  0  0  0  0
 10 14  1  0  0  0  0
 12 10  1  1  0  0  0
 12 11  1  0  0  0  0
 12  5  1  0  0  0  0
 13 17  1  0  0  0  0
 16 13  1  0  0  0  0
 18 15  1  6  0  0  0
 18 14  1  0  0  0  0
 18 17  1  0  0  0  0
 19 18  1  0  0  0  0
 19 16  1  1  0  0  0
 19 11  1  0  0  0  0
 20 24  1  6  0  0  0
 20 22  1  0  0  0  0
 20  1  1  0  0  0  0
 21 22  2  0  0  0  0
 22 23  1  0  0  0  0
 25 27  1  6  0  0  0
 25 24  1  0  0  0  0
 25 28  1  0  0  0  0
 26 25  2  0  0  0  0
M  END
>  <MODEL>
7

>  <REMARK>
 VINA RESULT:      -6.5      4.053      7.335
  Name = 
  5 active torsions:
  status: ('A' for Active; 'I' for Inactive)
    1  A    between atoms: C_1  and  C_16
    2  A    between atoms: C_4  and  C_20
    3  A    between atoms: P_6  and  O_17
    4  A    between atoms: C_16  and  O_17
    5  A    between atoms: C_16  and  C_27
                            x       y       z     vdW  Elec       q    Type
                         _______ _______ _______ _____ _____    ______ ____

>  <TORSDO>
F 5

$$$$
=
 OpenBabel11062416473D

 28 31  0  0  1  0  0  0  0  0999 V2000
  187.8880  175.5750  136.9680 C   0  0  0  0  0  0  0  0  0  0  0  0
  188.7590  174.5410  136.5300 N   0  0  0  0  0  0  0  0  0  0  0  0
  190.4360  176.4880  138.7770 C   0  0  0  0  0  2  0  0  0  0  0  0
  190.0150  176.4530  137.3210 C   0  0  1  0  0  3  0  0  0  0  0  0
  189.5370  177.4870  139.5230 C   0  0  1  0  0  3  0  0  0  0  0  0
  187.9980  177.8360  138.5750 S   0  0  0  0  0  0  0  0  0  0  0  0
  190.0530  175.0720  136.7710 C   0  0  0  0  0  0  0  0  0  0  0  0
  191.1100  174.4340  136.5260 O   0  0  0  0  0  0  0  0  0  0  0  0
  188.5570  176.6570  137.3750 C   0  0  2  0  0  3  0  0  0  0  0  0
  188.4310  178.0380  141.7540 C   0  0  0  0  0  2  0  0  0  0  0  0
  190.5470  176.5780  141.6390 C   0  0  0  0  0  2  0  0  0  0  0  0
  189.2530  177.0120  140.9470 C   0  0  2  0  0  3  0  0  0  0  0  0
  191.4270  176.5480  145.1840 C   0  0  0  0  0  2  0  0  0  0  0  0
  189.1110  178.4570  143.0580 C   0  0  0  0  0  2  0  0  0  0  0  0
  188.3600  176.6530  144.4370 O   0  0  0  0  0  1  0  0  0  0  0  0
  191.5950  175.9510  143.8040 C   0  0  0  0  0  2  0  0  0  0  0  0
  190.4260  177.6690  145.0150 C   0  0  0  0  0  2  0  0  0  0  0  0
  189.5060  177.2350  143.8920 C   0  0  2  0  0  0  0  0  0  0  0  0
  190.2780  176.1730  143.0890 C   0  0  1  0  0  3  0  0  0  0  0  0
  186.4090  175.3440  137.1010 C   0  0  2  0  0  3  0  0  0  0  0  0
  186.0910  173.1070  137.9030 O   0  0  0  0  0  1  0  0  0  0  0  0
  186.0570  173.9020  136.9260 C   0  0  0  0  0  0  0  0  0  0  0  0
  185.6530  173.4420  135.6800 O   0  0  0  0  0  0  0  0  0  0  0  0
  185.6870  176.1520  136.2140 O   0  0  0  0  0  0  0  0  0  0  0  0
  184.3290  176.6880  137.0820 P   0  0  2  0  0  0  0  0  0  0  0  0
  183.7280  175.4470  138.0620 O   0  0  0  0  0  1  0  0  0  0  0  0
  183.0390  177.1900  135.9110 C   0  0  0  0  0  1  0  0  0  0  0  0
  184.7070  177.8740  137.9420 O   0  0  0  0  0  0  0  0  0  0  0  0
  1 20  1  0  0  0  0
  2  7  1  0  0  0  0
  2  1  2  0  0  0  0
  4  9  1  0  0  0  0
  4  3  1  1  0  0  0
  5  3  1  6  0  0  0
  5 12  1  0  0  0  0
  6  5  1  0  0  0  0
  7  4  1  0  0  0  0
  8  7  2  0  0  0  0
  9  1  1  1  0  0  0
  9  6  1  0  0  0  0
 10 14  1  0  0  0  0
 12 11  1  1  0  0  0
 12 10  1  0  0  0  0
 14 18  1  0  0  0  0
 16 13  1  0  0  0  0
 17 13  1  0  0  0  0
 18 15  1  1  0  0  0
 18 17  1  0  0  0  0
 19 11  1  6  0  0  0
 19 16  1  0  0  0  0
 19 18  1  0  0  0  0
 20 24  1  6  0  0  0
 22 20  1  0  0  0  0
 22 21  1  0  0  0  0
 23 22  2  0  0  0  0
 24 25  1  0  0  0  0
 25 27  1  6  0  0  0
 25 28  2  0  0  0  0
 25 26  1  0  0  0  0
M  END
>  <MODEL>
8

>  <REMARK>
 VINA RESULT:      -6.5      2.204      2.980
  Name = 
  5 active torsions:
  status: ('A' for Active; 'I' for Inactive)
    1  A    between atoms: C_1  and  C_16
    2  A    between atoms: C_4  and  C_20
    3  A    between atoms: P_6  and  O_17
    4  A    between atoms: C_16  and  O_17
    5  A    between atoms: C_16  and  C_27
                            x       y       z     vdW  Elec       q    Type
                         _______ _______ _______ _____ _____    ______ ____

>  <TORSDO>
F 5

$$$$
=
 OpenBabel11062416473D

 28 31  0  0  1  0  0  0  0  0999 V2000
  190.7340  176.5360  138.4610 C   0  0  0  0  0  0  0  0  0  0  0  0
  190.5340  176.2890  139.8470 N   0  0  0  0  0  0  0  0  0  0  0  0
  187.7710  177.8780  138.6210 C   0  0  0  0  0  2  0  0  0  0  0  0
  189.1840  178.1540  139.0970 C   0  0  1  0  0  3  0  0  0  0  0  0
  187.7430  177.9750  137.0880 C   0  0  1  0  0  3  0  0  0  0  0  0
  189.4350  177.8340  136.3790 S   0  0  0  0  0  0  0  0  0  0  0  0
  189.5710  177.2620  140.2210 C   0  0  0  0  0  0  0  0  0  0  0  0
  189.1130  177.3540  141.3900 O   0  0  0  0  0  0  0  0  0  0  0  0
  190.0280  177.5860  138.0310 C   0  0  2  0  0  3  0  0  0  0  0  0
  185.2990  177.3970  136.6390 C   0  0  0  0  0  2  0  0  0  0  0  0
  187.0520  175.5560  137.0400 C   0  0  0  0  0  2  0  0  0  0  0  0
  186.7710  176.9580  136.4920 C   0  0  2  0  0  3  0  0  0  0  0  0
  184.8130  172.7060  137.4810 C   0  0  0  0  0  2  0  0  0  0  0  0
  184.4350  176.3620  137.3590 C   0  0  0  0  0  2  0  0  0  0  0  0
  183.9140  174.9780  135.4790 O   0  0  0  0  0  1  0  0  0  0  0  0
  186.2080  173.2250  137.2180 C   0  0  0  0  0  2  0  0  0  0  0  0
  183.9450  173.9380  137.6130 C   0  0  0  0  0  2  0  0  0  0  0  0
  184.5720  174.9820  136.7100 C   0  0  2  0  0  0  0  0  0  0  0  0
  186.0340  174.5500  136.5030 C   0  0  1  0  0  3  0  0  0  0  0  0
  191.5170  175.5840  137.6040 C   0  0  2  0  0  3  0  0  0  0  0  0
  189.9690  173.7530  137.5930 O   0  0  0  0  0  1  0  0  0  0  0  0
  190.6270  174.5930  136.9240 C   0  0  0  0  0  0  0  0  0  0  0  0
  190.4980  174.6240  135.5420 O   0  0  0  0  0  0  0  0  0  0  0  0
  192.5180  174.9400  138.3440 O   0  0  0  0  0  0  0  0  0  0  0  0
  193.9690  175.2400  137.5130 P   0  0  2  0  0  0  0  0  0  0  0  0
  193.9300  176.7720  136.7940 O   0  0  0  0  0  0  0  0  0  0  0  0
  194.1800  173.9890  136.2200 C   0  0  0  0  0  1  0  0  0  0  0  0
  195.1330  175.1620  138.4750 O   0  0  0  0  0  1  0  0  0  0  0  0
  1  2  2  0  0  0  0
  2  7  1  0  0  0  0
  4  3  1  6  0  0  0
  4  7  1  0  0  0  0
  5  3  1  1  0  0  0
  6  5  1  0  0  0  0
  7  8  2  0  0  0  0
  9  6  1  6  0  0  0
  9  1  1  0  0  0  0
  9  4  1  0  0  0  0
 10 14  1  0  0  0  0
 12 10  1  1  0  0  0
 12 11  1  0  0  0  0
 12  5  1  0  0  0  0
 13 17  1  0  0  0  0
 16 13  1  0  0  0  0
 18 15  1  6  0  0  0
 18 14  1  0  0  0  0
 18 17  1  0  0  0  0
 19 18  1  0  0  0  0
 19 11  1  1  0  0  0
 19 16  1  0  0  0  0
 20 22  1  1  0  0  0
 20 24  1  0  0  0  0
 20  1  1  0  0  0  0
 22 21  1  0  0  0  0
 23 22  2  0  0  0  0
 25 27  1  6  0  0  0
 25 24  1  0  0  0  0
 25 28  1  0  0  0  0
 26 25  2  0  0  0  0
M  END
>  <MODEL>
9

>  <REMARK>
 VINA RESULT:      -6.4      4.472      7.574
  Name = 
  5 active torsions:
  status: ('A' for Active; 'I' for Inactive)
    1  A    between atoms: C_1  and  C_16
    2  A    between atoms: C_4  and  C_20
    3  A    between atoms: P_6  and  O_17
    4  A    between atoms: C_16  and  O_17
    5  A    between atoms: C_16  and  C_27
                            x       y       z     vdW  Elec       q    Type
                         _______ _______ _______ _____ _____    ______ ____

>  <TORSDO>
F 5

$$$$
