=
 OpenBabel11062414073D

 53 57  0  0  1  0  0  0  0  0999 V2000
  189.2790  176.9020  138.0970 C   0  0  2  0  0  3  0  0  0  0  0  0
  190.3150  174.8080  137.7400 O   0  0  0  0  0  0  0  0  0  0  0  0
  190.4180  175.9670  138.4750 C   0  0  1  0  0  3  0  0  0  0  0  0
  192.6120  175.8520  138.0820 C   0  0  0  0  0  2  0  0  0  0  0  0
  192.4770  174.7440  137.1310 C   0  0  0  0  0  2  0  0  0  0  0  0
  191.3020  175.7230  137.2870 C   0  0  0  0  0  0  0  0  0  0  0  0
  188.9990  179.0830  139.0050 O   0  0  0  0  0  0  0  0  0  0  0  0
  188.9860  177.8420  139.2220 C   0  0  0  0  0  0  0  0  0  0  0  0
  188.7320  177.3450  140.5040 O   0  0  0  0  0  0  0  0  0  0  0  0
  189.4790  177.7680  141.6370 C   0  0  0  0  0  2  0  0  0  0  0  0
  190.8840  177.4380  141.4570 N   0  0  0  0  0  2  0  0  0  0  0  0
  191.4890  177.4810  142.7200 N   0  0  0  0  0  2  0  0  0  0  0  0
  191.0460  176.2970  143.4340 C   0  0  0  0  0  2  0  0  0  0  0  0
  190.1220  177.2370  147.5870 C   0  0  0  0  0  3  0  0  0  0  0  0
  190.7560  176.6330  144.8560 C   0  0  0  0  0  0  0  0  0  0  0  0
  191.6980  176.4310  145.7800 C   0  0  0  0  0  3  0  0  0  0  0  0
  189.1570  177.4390  146.6820 C   0  0  0  0  0  0  0  0  0  0  0  0
  191.4360  176.7280  147.1900 C   0  0  0  0  0  0  0  0  0  0  0  0
  189.3800  177.1480  145.2110 C   0  0  0  0  0  2  0  0  0  0  0  0
  192.3310  176.5420  148.0530 O   0  0  0  0  0  0  0  0  0  0  0  0
  186.7120  177.8400  146.2480 N   0  0  0  0  0  2  0  0  0  0  0  0
  187.8440  177.9470  147.1180 C   0  0  0  0  0  0  0  0  0  0  0  0
  187.7150  178.4770  148.2560 O   0  0  0  0  0  0  0  0  0  0  0  0
  185.3780  178.2630  146.6430 C   0  0  0  0  0  2  0  0  0  0  0  0
  184.4900  178.3700  145.4180 C   0  0  0  0  0  2  0  0  0  0  0  0
  185.0130  179.4690  144.5060 C   0  0  0  0  0  2  0  0  0  0  0  0
  184.3750  179.4310  143.1150 C   0  0  2  0  0  3  0  0  0  0  0  0
  183.0790  178.9080  143.1680 O   0  0  0  0  0  1  0  0  0  0  0  0
  185.3860  179.5000  140.9350 O   0  0  0  0  0  1  0  0  0  0  0  0
  186.4630  178.3380  142.5800 O   0  0  0  0  0  1  0  0  0  0  0  0
  185.2160  178.6990  142.0660 C   0  0  0  0  0  3  0  0  0  0  0  0
  188.0470  176.0870  137.7240 C   0  0  0  0  0  2  0  0  0  0  0  0
  187.1400  177.7590  136.1170 C   0  0  0  0  0  1  0  0  0  0  0  0
  187.6500  176.3400  136.2750 C   0  0  2  0  0  3  0  0  0  0  0  0
  186.6290  175.4320  135.8810 O   0  0  0  0  0  0  0  0  0  0  0  0
  184.7080  176.0950  134.8240 O   0  0  0  0  0  0  0  0  0  0  0  0
  185.2700  175.7610  135.9000 C   0  0  0  0  0  0  0  0  0  0  0  0
  184.3290  177.9030  138.1450 F   0  0  0  0  0  0  0  0  0  0  0  0
  184.3460  173.2940  136.9060 O   0  0  0  0  0  1  0  0  0  0  0  0
  181.1670  174.3720  137.5340 C   0  0  1  0  0  3  0  0  0  0  0  0
  183.6260  174.4260  137.2950 C   0  0  1  0  0  3  0  0  0  0  0  0
  181.4750  175.7380  136.9220 C   0  0  2  0  0  0  0  0  0  0  0  0
  184.4710  175.7060  137.1740 C   0  0  2  0  0  3  0  0  0  0  0  0
  180.0750  173.7660  136.9100 O   0  0  0  0  0  1  0  0  0  0  0  0
  182.3050  174.5100  136.5330 C   0  0  2  0  0  3  0  0  0  0  0  0
  183.6590  176.9990  137.3450 C   0  0  1  0  0  3  0  0  0  0  0  0
  182.2000  176.7920  137.7940 C   0  0  2  0  0  3  0  0  0  0  0  0
  181.2640  177.2900  134.9520 C   0  0  0  0  0  1  0  0  0  0  0  0
  180.5680  176.2330  135.7900 C   0  0  0  0  0  3  0  0  0  0  0  0
  179.2740  176.7930  136.3470 C   0  0  0  0  0  1  0  0  0  0  0  0
  183.1540  176.7880  140.0290 O   0  0  0  0  0  1  0  0  0  0  0  0
  181.9700  176.6330  139.3060 C   0  0  1  0  0  3  0  0  0  0  0  0
  180.9340  177.6240  139.7980 C   0  0  0  0  0  1  0  0  0  0  0  0
  1 32  1  1  0  0  0
  1  8  1  0  0  0  0
  2  3  1  0  0  0  0
  3  1  1  6  0  0  0
  5  6  1  0  0  0  0
  5  4  1  0  0  0  0
  6  2  1  0  0  0  0
  6  4  1  0  0  0  0
  6  3  1  0  0  0  0
  7  8  2  0  0  0  0
  8  9  1  0  0  0  0
  9 10  1  0  0  0  0
 11 10  1  0  0  0  0
 11 12  1  0  0  0  0
 12 13  1  0  0  0  0
 13 15  1  0  0  0  0
 15 19  1  0  0  0  0
 15 16  2  0  0  0  0
 16 18  1  0  0  0  0
 17 22  1  0  0  0  0
 17 14  2  0  0  0  0
 18 14  1  0  0  0  0
 18 20  2  0  0  0  0
 19 17  1  0  0  0  0
 21 24  1  0  0  0  0
 21 22  1  0  0  0  0
 22 23  2  0  0  0  0
 25 24  1  0  0  0  0
 26 25  1  0  0  0  0
 27 28  1  1  0  0  0
 27 26  1  0  0  0  0
 29 31  1  0  0  0  0
 31 30  1  0  0  0  0
 31 27  1  0  0  0  0
 34 33  1  1  0  0  0
 34 32  1  0  0  0  0
 35 37  1  0  0  0  0
 35 34  1  0  0  0  0
 36 37  2  0  0  0  0
 40 44  1  6  0  0  0
 41 39  1  6  0  0  0
 42 49  1  6  0  0  0
 42 40  1  0  0  0  0
 42 47  1  0  0  0  0
 43 37  1  6  0  0  0
 43 41  1  0  0  0  0
 43 46  1  0  0  0  0
 45 42  1  0  0  0  0
 45 41  1  0  0  0  0
 45 40  1  0  0  0  0
 46 47  1  0  0  0  0
 46 38  1  0  0  0  0
 47 52  1  0  0  0  0
 48 49  1  0  0  0  0
 49 50  1  0  0  0  0
 52 53  1  0  0  0  0
 52 51  1  0  0  0  0
M  END
>  <MODEL>
1

>  <REMARK>
 VINA RESULT:      -7.6      0.000      0.000
  Name = 
  21 active torsions:
  status: ('A' for Active; 'I' for Inactive)
    1  A    between atoms: C_5  and  C_6
    2  A    between atoms: C_5  and  N_49
    3  A    between atoms: C_10  and  C_23
    4  A    between atoms: C_10  and  C_46
    5  A    between atoms: C_11  and  C_26
    6  A    between atoms: N_13  and  C_31
    7  A    between atoms: C_14  and  C_32
    8  A    between atoms: C_21  and  C_23
    9  A    between atoms: C_21  and  C_31
   10  A    between atoms: C_24  and  C_27
   11  A    between atoms: C_24  and  C_33
   12  A    between atoms: C_25  and  C_53
   13  A    between atoms: C_27  and  C_39
   14  A    between atoms: C_27  and  C_45
   15  A    between atoms: C_33  and  O_36
   16  A    between atoms: N_35  and  C_41
   17  A    between atoms: N_35  and  N_49
   18  A    between atoms: O_36  and  C_38
   19  A    between atoms: C_37  and  C_38
   20  A    between atoms: C_41  and  O_42
   21  A    between atoms: O_42  and  C_45
                            x       y       z     vdW  Elec       q    Type
                         _______ _______ _______ _____ _____    ______ ____

>  <TORSDO>
F 21

$$$$
=
 OpenBabel11062414073D

 53 57  0  0  1  0  0  0  0  0999 V2000
  189.4430  176.7010  136.9810 C   0  0  2  0  0  3  0  0  0  0  0  0
  190.6870  174.7120  137.2670 O   0  0  0  0  0  0  0  0  0  0  0  0
  190.5180  175.9780  137.7790 C   0  0  1  0  0  3  0  0  0  0  0  0
  192.7430  176.0580  137.9330 C   0  0  0  0  0  2  0  0  0  0  0  0
  192.9320  174.8030  137.1980 C   0  0  0  0  0  2  0  0  0  0  0  0
  191.6860  175.6510  136.8940 C   0  0  0  0  0  0  0  0  0  0  0  0
  189.0100  179.0160  136.6470 O   0  0  0  0  0  0  0  0  0  0  0  0
  189.2910  178.1050  137.4710 C   0  0  0  0  0  0  0  0  0  0  0  0
  189.4900  178.4030  138.8220 O   0  0  0  0  0  0  0  0  0  0  0  0
  188.4450  178.2970  139.7800 C   0  0  0  0  0  2  0  0  0  0  0  0
  188.9000  177.5310  140.9300 N   0  0  0  0  0  2  0  0  0  0  0  0
  188.1630  177.9630  142.0390 N   0  0  0  0  0  2  0  0  0  0  0  0
  186.8330  178.2870  141.5550 C   0  0  0  0  0  2  0  0  0  0  0  0
  184.1290  178.7450  144.9420 C   0  0  0  0  0  3  0  0  0  0  0  0
  185.8890  178.4250  142.6990 C   0  0  0  0  0  0  0  0  0  0  0  0
  184.6020  178.6860  142.4570 C   0  0  0  0  0  3  0  0  0  0  0  0
  185.4150  178.4950  145.2120 C   0  0  0  0  0  0  0  0  0  0  0  0
  183.6540  178.8520  143.5610 C   0  0  0  0  0  0  0  0  0  0  0  0
  186.4360  178.3140  144.1040 C   0  0  0  0  0  2  0  0  0  0  0  0
  182.4420  179.0900  143.3240 O   0  0  0  0  0  0  0  0  0  0  0  0
  187.1090  177.7760  146.9260 N   0  0  0  0  0  2  0  0  0  0  0  0
  185.8600  178.4000  146.6140 C   0  0  0  0  0  0  0  0  0  0  0  0
  185.1410  178.8670  147.5400 O   0  0  0  0  0  0  0  0  0  0  0  0
  187.6340  177.7080  148.2800 C   0  0  0  0  0  2  0  0  0  0  0  0
  189.1480  177.8060  148.2500 C   0  0  0  0  0  2  0  0  0  0  0  0
  189.6260  177.8250  146.8070 C   0  0  0  0  0  2  0  0  0  0  0  0
  190.8020  176.8730  146.5660 C   0  0  2  0  0  3  0  0  0  0  0  0
  191.7090  176.9130  147.6280 O   0  0  0  0  0  1  0  0  0  0  0  0
  191.8580  175.8690  144.6530 O   0  0  0  0  0  1  0  0  0  0  0  0
  190.7190  177.8240  144.3450 O   0  0  0  0  0  1  0  0  0  0  0  0
  191.5160  177.0940  145.2290 C   0  0  0  0  0  3  0  0  0  0  0  0
  188.1290  175.9370  137.0790 C   0  0  0  0  0  2  0  0  0  0  0  0
  187.5410  176.5420  134.7370 C   0  0  0  0  0  1  0  0  0  0  0  0
  187.7130  175.3980  135.7170 C   0  0  2  0  0  3  0  0  0  0  0  0
  186.4850  174.6890  135.8240 O   0  0  0  0  0  0  0  0  0  0  0  0
  184.4230  175.2510  134.9980 O   0  0  0  0  0  0  0  0  0  0  0  0
  185.2470  175.3270  135.9470 C   0  0  0  0  0  0  0  0  0  0  0  0
  185.7810  178.3110  137.0980 F   0  0  0  0  0  0  0  0  0  0  0  0
  183.8670  174.0430  138.0440 O   0  0  0  0  0  1  0  0  0  0  0  0
  181.5700  176.5300  138.4910 C   0  0  1  0  0  3  0  0  0  0  0  0
  183.7200  175.4300  137.9710 C   0  0  1  0  0  3  0  0  0  0  0  0
  182.1360  177.3100  137.3040 C   0  0  2  0  0  0  0  0  0  0  0  0
  184.8790  176.0830  137.1960 C   0  0  2  0  0  3  0  0  0  0  0  0
  180.2070  176.2760  138.3330 O   0  0  0  0  0  1  0  0  0  0  0  0
  182.3490  175.7960  137.4090 C   0  0  2  0  0  3  0  0  0  0  0  0
  184.6420  177.5640  136.8670 C   0  0  1  0  0  3  0  0  0  0  0  0
  183.3950  178.1820  137.5260 C   0  0  2  0  0  3  0  0  0  0  0  0
  181.9180  178.1220  134.9320 C   0  0  0  0  0  1  0  0  0  0  0  0
  181.1680  177.7040  136.1840 C   0  0  0  0  0  3  0  0  0  0  0  0
  180.2590  178.8300  136.6340 C   0  0  0  0  0  1  0  0  0  0  0  0
  184.6330  179.5900  139.0730 O   0  0  0  0  0  1  0  0  0  0  0  0
  183.5700  178.6920  138.9660 C   0  0  1  0  0  3  0  0  0  0  0  0
  182.2950  179.3450  139.4620 C   0  0  0  0  0  1  0  0  0  0  0  0
  1 32  1  1  0  0  0
  1  8  1  0  0  0  0
  2  3  1  0  0  0  0
  3  1  1  6  0  0  0
  5  4  1  0  0  0  0
  6  5  1  0  0  0  0
  6  2  1  0  0  0  0
  6  3  1  0  0  0  0
  6  4  1  0  0  0  0
  7  8  2  0  0  0  0
  8  9  1  0  0  0  0
  9 10  1  0  0  0  0
 10 11  1  0  0  0  0
 11 12  1  0  0  0  0
 13 12  1  0  0  0  0
 13 15  1  0  0  0  0
 14 17  2  0  0  0  0
 15 19  1  0  0  0  0
 16 15  2  0  0  0  0
 16 18  1  0  0  0  0
 17 22  1  0  0  0  0
 18 14  1  0  0  0  0
 19 17  1  0  0  0  0
 20 18  2  0  0  0  0
 21 24  1  0  0  0  0
 22 21  1  0  0  0  0
 22 23  2  0  0  0  0
 25 24  1  0  0  0  0
 26 25  1  0  0  0  0
 27 26  1  0  0  0  0
 27 28  1  1  0  0  0
 29 31  1  0  0  0  0
 30 31  1  0  0  0  0
 31 27  1  0  0  0  0
 34 33  1  6  0  0  0
 34 35  1  0  0  0  0
 34 32  1  0  0  0  0
 35 37  1  0  0  0  0
 36 37  2  0  0  0  0
 40 44  1  6  0  0  0
 41 39  1  6  0  0  0
 42 49  1  6  0  0  0
 42 45  1  0  0  0  0
 42 47  1  0  0  0  0
 42 40  1  0  0  0  0
 43 37  1  6  0  0  0
 43 41  1  0  0  0  0
 45 41  1  0  0  0  0
 45 40  1  0  0  0  0
 46 38  1  0  0  0  0
 46 43  1  0  0  0  0
 46 47  1  0  0  0  0
 47 52  1  0  0  0  0
 48 49  1  0  0  0  0
 49 50  1  0  0  0  0
 52 51  1  0  0  0  0
 52 53  1  0  0  0  0
M  END
>  <MODEL>
2

>  <REMARK>
 VINA RESULT:      -7.5      1.560      4.097
  Name = 
  21 active torsions:
  status: ('A' for Active; 'I' for Inactive)
    1  A    between atoms: C_5  and  C_6
    2  A    between atoms: C_5  and  N_49
    3  A    between atoms: C_10  and  C_23
    4  A    between atoms: C_10  and  C_46
    5  A    between atoms: C_11  and  C_26
    6  A    between atoms: N_13  and  C_31
    7  A    between atoms: C_14  and  C_32
    8  A    between atoms: C_21  and  C_23
    9  A    between atoms: C_21  and  C_31
   10  A    between atoms: C_24  and  C_27
   11  A    between atoms: C_24  and  C_33
   12  A    between atoms: C_25  and  C_53
   13  A    between atoms: C_27  and  C_39
   14  A    between atoms: C_27  and  C_45
   15  A    between atoms: C_33  and  O_36
   16  A    between atoms: N_35  and  C_41
   17  A    between atoms: N_35  and  N_49
   18  A    between atoms: O_36  and  C_38
   19  A    between atoms: C_37  and  C_38
   20  A    between atoms: C_41  and  O_42
   21  A    between atoms: O_42  and  C_45
                            x       y       z     vdW  Elec       q    Type
                         _______ _______ _______ _____ _____    ______ ____

>  <TORSDO>
F 21

$$$$
=
 OpenBabel11062414073D

 53 57  0  0  1  0  0  0  0  0999 V2000
  188.9870  176.7870  137.5510 C   0  0  2  0  0  3  0  0  0  0  0  0
  190.0490  175.2240  136.1340 O   0  0  0  0  0  0  0  0  0  0  0  0
  190.0300  175.6880  137.4290 C   0  0  1  0  0  3  0  0  0  0  0  0
  192.2580  175.5760  137.3500 C   0  0  0  0  0  2  0  0  0  0  0  0
  192.2840  175.2860  135.9130 C   0  0  0  0  0  2  0  0  0  0  0  0
  191.1100  176.1040  136.4730 C   0  0  0  0  0  0  0  0  0  0  0  0
  188.0330  177.9360  139.4040 O   0  0  0  0  0  0  0  0  0  0  0  0
  189.0720  177.4350  138.8960 C   0  0  0  0  0  0  0  0  0  0  0  0
  190.2980  177.5090  139.5640 O   0  0  0  0  0  0  0  0  0  0  0  0
  190.4760  176.9850  140.8730 C   0  0  0  0  0  2  0  0  0  0  0  0
  191.7450  177.4400  141.4210 N   0  0  0  0  0  2  0  0  0  0  0  0
  191.5360  177.7280  142.7760 N   0  0  0  0  0  2  0  0  0  0  0  0
  190.7630  176.6260  143.3220 C   0  0  0  0  0  2  0  0  0  0  0  0
  190.1380  177.1120  147.6070 C   0  0  0  0  0  3  0  0  0  0  0  0
  190.5750  176.8070  144.7890 C   0  0  0  0  0  0  0  0  0  0  0  0
  191.5850  176.5260  145.6160 C   0  0  0  0  0  3  0  0  0  0  0  0
  189.1070  177.3900  146.8010 C   0  0  0  0  0  0  0  0  0  0  0  0
  191.4240  176.6690  147.0640 C   0  0  0  0  0  0  0  0  0  0  0  0
  189.2240  177.2580  145.2940 C   0  0  0  0  0  2  0  0  0  0  0  0
  192.3820  176.4100  147.8360 O   0  0  0  0  0  0  0  0  0  0  0  0
  186.7230  178.1410  146.5240 N   0  0  0  0  0  2  0  0  0  0  0  0
  187.8250  177.8270  147.3810 C   0  0  0  0  0  0  0  0  0  0  0  0
  187.6970  177.9260  148.6330 O   0  0  0  0  0  0  0  0  0  0  0  0
  185.4150  178.5150  147.0360 C   0  0  0  0  0  2  0  0  0  0  0  0
  184.4280  178.6300  145.8890 C   0  0  0  0  0  2  0  0  0  0  0  0
  185.1730  178.9890  144.6130 C   0  0  0  0  0  2  0  0  0  0  0  0
  184.2280  179.3390  143.4600 C   0  0  2  0  0  3  0  0  0  0  0  0
  182.9380  178.8590  143.7020 O   0  0  0  0  0  1  0  0  0  0  0  0
  186.0800  178.5420  142.1510 O   0  0  0  0  0  1  0  0  0  0  0  0
  183.9880  177.8080  141.6060 O   0  0  0  0  0  1  0  0  0  0  0  0
  184.7300  178.8890  142.0860 C   0  0  0  0  0  3  0  0  0  0  0  0
  187.5990  176.2100  137.3050 C   0  0  0  0  0  2  0  0  0  0  0  0
  187.4020  178.0920  135.6880 C   0  0  0  0  0  1  0  0  0  0  0  0
  187.0710  176.6340  135.9410 C   0  0  2  0  0  3  0  0  0  0  0  0
  185.6600  176.4620  135.8860 O   0  0  0  0  0  0  0  0  0  0  0  0
  185.1820  177.9360  137.5740 O   0  0  0  0  0  0  0  0  0  0  0  0
  184.7920  176.9790  136.8530 C   0  0  0  0  0  0  0  0  0  0  0  0
  183.2830  175.1670  139.0780 F   0  0  0  0  0  0  0  0  0  0  0  0
  182.8410  177.3340  134.8480 O   0  0  0  0  0  1  0  0  0  0  0  0
  180.3610  178.3150  136.9820 C   0  0  1  0  0  3  0  0  0  0  0  0
  182.3610  177.1300  136.1440 C   0  0  1  0  0  3  0  0  0  0  0  0
  181.3230  178.2750  138.1690 C   0  0  2  0  0  0  0  0  0  0  0  0
  183.4040  176.4270  137.0320 C   0  0  2  0  0  3  0  0  0  0  0  0
  179.7650  179.5710  136.8490 O   0  0  0  0  0  1  0  0  0  0  0  0
  181.8600  178.4420  136.7430 C   0  0  2  0  0  3  0  0  0  0  0  0
  183.0310  176.4050  138.5220 C   0  0  1  0  0  3  0  0  0  0  0  0
  181.6110  176.9110  138.8400 C   0  0  2  0  0  3  0  0  0  0  0  0
  182.8990  180.0360  139.0350 C   0  0  0  0  0  1  0  0  0  0  0  0
  181.4640  179.5450  139.0160 C   0  0  0  0  0  3  0  0  0  0  0  0
  180.9900  179.2960  140.4340 C   0  0  0  0  0  1  0  0  0  0  0  0
  180.8140  174.8540  137.8200 O   0  0  0  0  0  1  0  0  0  0  0  0
  180.4770  175.8820  138.7030 C   0  0  1  0  0  3  0  0  0  0  0  0
  180.1140  175.2990  140.0540 C   0  0  0  0  0  1  0  0  0  0  0  0
  1 32  1  1  0  0  0
  1  8  1  0  0  0  0
  2  6  1  0  0  0  0
  2  3  1  0  0  0  0
  3  1  1  6  0  0  0
  5  6  1  0  0  0  0
  5  4  1  0  0  0  0
  6  4  1  0  0  0  0
  6  3  1  0  0  0  0
  8  7  2  0  0  0  0
  8  9  1  0  0  0  0
  9 10  1  0  0  0  0
 10 11  1  0  0  0  0
 11 12  1  0  0  0  0
 12 13  1  0  0  0  0
 13 15  1  0  0  0  0
 15 19  1  0  0  0  0
 15 16  2  0  0  0  0
 16 18  1  0  0  0  0
 17 22  1  0  0  0  0
 17 14  2  0  0  0  0
 18 14  1  0  0  0  0
 18 20  2  0  0  0  0
 19 17  1  0  0  0  0
 21 24  1  0  0  0  0
 21 22  1  0  0  0  0
 22 23  2  0  0  0  0
 25 24  1  0  0  0  0
 26 25  1  0  0  0  0
 27 28  1  1  0  0  0
 27 26  1  0  0  0  0
 30 31  1  0  0  0  0
 31 29  1  0  0  0  0
 31 27  1  0  0  0  0
 34 33  1  1  0  0  0
 34 32  1  0  0  0  0
 35 34  1  0  0  0  0
 35 37  1  0  0  0  0
 37 36  2  0  0  0  0
 40 44  1  1  0  0  0
 40 42  1  0  0  0  0
 41 39  1  6  0  0  0
 41 45  1  0  0  0  0
 41 43  1  0  0  0  0
 42 47  1  0  0  0  0
 42 49  1  1  0  0  0
 43 37  1  1  0  0  0
 43 46  1  0  0  0  0
 45 40  1  0  0  0  0
 45 42  1  0  0  0  0
 46 47  1  0  0  0  0
 46 38  1  0  0  0  0
 49 48  1  0  0  0  0
 49 50  1  0  0  0  0
 51 52  1  0  0  0  0
 52 47  1  0  0  0  0
 52 53  1  0  0  0  0
M  END
>  <MODEL>
3

>  <REMARK>
 VINA RESULT:      -7.5      1.561      2.245
  Name = 
  21 active torsions:
  status: ('A' for Active; 'I' for Inactive)
    1  A    between atoms: C_5  and  C_6
    2  A    between atoms: C_5  and  N_49
    3  A    between atoms: C_10  and  C_23
    4  A    between atoms: C_10  and  C_46
    5  A    between atoms: C_11  and  C_26
    6  A    between atoms: N_13  and  C_31
    7  A    between atoms: C_14  and  C_32
    8  A    between atoms: C_21  and  C_23
    9  A    between atoms: C_21  and  C_31
   10  A    between atoms: C_24  and  C_27
   11  A    between atoms: C_24  and  C_33
   12  A    between atoms: C_25  and  C_53
   13  A    between atoms: C_27  and  C_39
   14  A    between atoms: C_27  and  C_45
   15  A    between atoms: C_33  and  O_36
   16  A    between atoms: N_35  and  C_41
   17  A    between atoms: N_35  and  N_49
   18  A    between atoms: O_36  and  C_38
   19  A    between atoms: C_37  and  C_38
   20  A    between atoms: C_41  and  O_42
   21  A    between atoms: O_42  and  C_45
                            x       y       z     vdW  Elec       q    Type
                         _______ _______ _______ _____ _____    ______ ____

>  <TORSDO>
F 21

$$$$
=
 OpenBabel11062414073D

 53 57  0  0  1  0  0  0  0  0999 V2000
  188.4190  177.5600  136.9370 C   0  0  2  0  0  3  0  0  0  0  0  0
  188.4250  175.7400  135.4310 O   0  0  0  0  0  0  0  0  0  0  0  0
  188.4350  176.0480  136.7720 C   0  0  1  0  0  3  0  0  0  0  0  0
  189.9400  174.4150  136.9910 C   0  0  0  0  0  2  0  0  0  0  0  0
  190.0850  174.2290  135.5430 C   0  0  0  0  0  2  0  0  0  0  0  0
  189.6890  175.6180  136.0680 C   0  0  0  0  0  0  0  0  0  0  0  0
  190.3350  177.6360  138.3470 O   0  0  0  0  0  0  0  0  0  0  0  0
  189.1230  177.9500  138.1970 C   0  0  0  0  0  0  0  0  0  0  0  0
  188.4330  178.6250  139.2080 O   0  0  0  0  0  0  0  0  0  0  0  0
  188.3700  178.1300  140.5390 C   0  0  0  0  0  2  0  0  0  0  0  0
  187.8250  179.1490  141.4230 N   0  0  0  0  0  2  0  0  0  0  0  0
  186.4310  179.1140  141.2910 N   0  0  0  0  0  2  0  0  0  0  0  0
  185.9830  177.8830  141.9170 C   0  0  0  0  0  2  0  0  0  0  0  0
  185.3000  178.5900  146.1630 C   0  0  0  0  0  3  0  0  0  0  0  0
  185.7230  178.1100  143.3660 C   0  0  0  0  0  0  0  0  0  0  0  0
  184.5340  178.5800  143.7510 C   0  0  0  0  0  3  0  0  0  0  0  0
  186.5030  178.1290  145.8020 C   0  0  0  0  0  0  0  0  0  0  0  0
  184.2560  178.8370  145.1650 C   0  0  0  0  0  0  0  0  0  0  0  0
  186.8400  177.8460  144.3510 C   0  0  0  0  0  2  0  0  0  0  0  0
  183.1310  179.2720  145.5210 O   0  0  0  0  0  0  0  0  0  0  0  0
  188.7870  177.3130  146.4680 N   0  0  0  0  0  2  0  0  0  0  0  0
  187.5330  177.8980  146.8320 C   0  0  0  0  0  0  0  0  0  0  0  0
  187.3100  178.2120  148.0330 O   0  0  0  0  0  0  0  0  0  0  0  0
  189.8660  177.1180  147.4230 C   0  0  0  0  0  2  0  0  0  0  0  0
  190.9220  176.2060  146.8250 C   0  0  0  0  0  2  0  0  0  0  0  0
  191.7010  176.9610  145.7600 C   0  0  0  0  0  2  0  0  0  0  0  0
  191.3220  176.5300  144.3400 C   0  0  2  0  0  3  0  0  0  0  0  0
  191.9840  175.3540  143.9760 O   0  0  0  0  0  1  0  0  0  0  0  0
  191.4530  177.0770  142.0020 O   0  0  0  0  0  1  0  0  0  0  0  0
  190.5780  178.6380  143.4200 O   0  0  0  0  0  1  0  0  0  0  0  0
  191.5250  177.6210  143.2850 C   0  0  0  0  0  3  0  0  0  0  0  0
  186.9820  178.0630  136.9320 C   0  0  0  0  0  2  0  0  0  0  0  0
  185.3510  177.3970  135.1720 C   0  0  0  0  0  1  0  0  0  0  0  0
  186.0290  176.9730  136.4610 C   0  0  2  0  0  3  0  0  0  0  0  0
  185.0350  176.7280  137.4490 O   0  0  0  0  0  0  0  0  0  0  0  0
  184.6620  174.4930  137.1130 O   0  0  0  0  0  0  0  0  0  0  0  0
  184.1850  175.6190  137.4150 C   0  0  0  0  0  0  0  0  0  0  0  0
  182.4080  175.5240  140.1260 F   0  0  0  0  0  0  0  0  0  0  0  0
  182.2630  175.8730  135.3680 O   0  0  0  0  0  1  0  0  0  0  0  0
  180.5750  178.4570  136.8280 C   0  0  1  0  0  3  0  0  0  0  0  0
  181.9020  176.3840  136.6170 C   0  0  1  0  0  3  0  0  0  0  0  0
  181.5940  178.5230  137.9640 C   0  0  2  0  0  0  0  0  0  0  0  0
  182.7240  175.7450  137.7500 C   0  0  2  0  0  3  0  0  0  0  0  0
  180.4550  179.6860  136.1760 O   0  0  0  0  0  1  0  0  0  0  0  0
  181.9790  177.9090  136.6140 C   0  0  2  0  0  3  0  0  0  0  0  0
  182.5510  176.4450  139.1070 C   0  0  1  0  0  3  0  0  0  0  0  0
  181.4550  177.5270  139.1410 C   0  0  2  0  0  3  0  0  0  0  0  0
  183.5570  179.6840  139.0300 C   0  0  0  0  0  1  0  0  0  0  0  0
  182.2810  179.8680  138.2300 C   0  0  0  0  0  3  0  0  0  0  0  0
  181.3470  180.8080  138.9660 C   0  0  0  0  0  1  0  0  0  0  0  0
  179.9550  175.6410  139.4560 O   0  0  0  0  0  1  0  0  0  0  0  0
  180.0200  177.0340  139.3890 C   0  0  1  0  0  3  0  0  0  0  0  0
  179.4590  177.6350  140.6620 C   0  0  0  0  0  1  0  0  0  0  0  0
  1 32  1  1  0  0  0
  1  8  1  0  0  0  0
  2  6  1  0  0  0  0
  2  3  1  0  0  0  0
  3  1  1  6  0  0  0
  5  6  1  0  0  0  0
  5  4  1  0  0  0  0
  6  3  1  0  0  0  0
  6  4  1  0  0  0  0
  8  7  2  0  0  0  0
  8  9  1  0  0  0  0
  9 10  1  0  0  0  0
 10 11  1  0  0  0  0
 12 11  1  0  0  0  0
 12 13  1  0  0  0  0
 13 15  1  0  0  0  0
 15 16  2  0  0  0  0
 15 19  1  0  0  0  0
 16 18  1  0  0  0  0
 17 14  2  0  0  0  0
 17 22  1  0  0  0  0
 18 20  2  0  0  0  0
 18 14  1  0  0  0  0
 19 17  1  0  0  0  0
 21 22  1  0  0  0  0
 21 24  1  0  0  0  0
 22 23  2  0  0  0  0
 25 24  1  0  0  0  0
 26 25  1  0  0  0  0
 27 28  1  6  0  0  0
 27 26  1  0  0  0  0
 29 31  1  0  0  0  0
 31 30  1  0  0  0  0
 31 27  1  0  0  0  0
 34 33  1  6  0  0  0
 34 32  1  0  0  0  0
 34 35  1  0  0  0  0
 36 37  2  0  0  0  0
 37 35  1  0  0  0  0
 40 44  1  6  0  0  0
 40 42  1  0  0  0  0
 41 39  1  6  0  0  0
 41 43  1  0  0  0  0
 42 49  1  1  0  0  0
 42 47  1  0  0  0  0
 43 37  1  6  0  0  0
 43 46  1  0  0  0  0
 45 41  1  0  0  0  0
 45 40  1  0  0  0  0
 45 42  1  0  0  0  0
 46 47  1  0  0  0  0
 46 38  1  0  0  0  0
 47 52  1  0  0  0  0
 49 50  1  0  0  0  0
 49 48  1  0  0  0  0
 52 51  1  0  0  0  0
 52 53  1  0  0  0  0
M  END
>  <MODEL>
4

>  <REMARK>
 VINA RESULT:      -7.2      2.201      4.442
  Name = 
  21 active torsions:
  status: ('A' for Active; 'I' for Inactive)
    1  A    between atoms: C_5  and  C_6
    2  A    between atoms: C_5  and  N_49
    3  A    between atoms: C_10  and  C_23
    4  A    between atoms: C_10  and  C_46
    5  A    between atoms: C_11  and  C_26
    6  A    between atoms: N_13  and  C_31
    7  A    between atoms: C_14  and  C_32
    8  A    between atoms: C_21  and  C_23
    9  A    between atoms: C_21  and  C_31
   10  A    between atoms: C_24  and  C_27
   11  A    between atoms: C_24  and  C_33
   12  A    between atoms: C_25  and  C_53
   13  A    between atoms: C_27  and  C_39
   14  A    between atoms: C_27  and  C_45
   15  A    between atoms: C_33  and  O_36
   16  A    between atoms: N_35  and  C_41
   17  A    between atoms: N_35  and  N_49
   18  A    between atoms: O_36  and  C_38
   19  A    between atoms: C_37  and  C_38
   20  A    between atoms: C_41  and  O_42
   21  A    between atoms: O_42  and  C_45
                            x       y       z     vdW  Elec       q    Type
                         _______ _______ _______ _____ _____    ______ ____

>  <TORSDO>
F 21

$$$$
=
 OpenBabel11062414073D

 53 57  0  0  1  0  0  0  0  0999 V2000
  189.1470  176.9140  138.3280 C   0  0  2  0  0  3  0  0  0  0  0  0
  187.3360  178.2430  139.0590 O   0  0  0  0  0  0  0  0  0  0  0  0
  188.7100  178.1770  139.0530 C   0  0  1  0  0  3  0  0  0  0  0  0
  188.6100  178.8710  141.1720 C   0  0  0  0  0  2  0  0  0  0  0  0
  187.1520  178.7390  141.2430 C   0  0  0  0  0  2  0  0  0  0  0  0
  187.9240  177.8220  140.2810 C   0  0  0  0  0  0  0  0  0  0  0  0
  190.8790  175.3130  138.6400 O   0  0  0  0  0  0  0  0  0  0  0  0
  190.5200  176.5140  138.7660 C   0  0  0  0  0  0  0  0  0  0  0  0
  191.3780  177.4580  139.3380 O   0  0  0  0  0  0  0  0  0  0  0  0
  192.0260  177.2300  140.5830 C   0  0  0  0  0  2  0  0  0  0  0  0
  191.0750  176.7070  141.5500 N   0  0  0  0  0  2  0  0  0  0  0  0
  191.6960  176.7350  142.8060 N   0  0  0  0  0  2  0  0  0  0  0  0
  191.1920  177.9100  143.4940 C   0  0  0  0  0  2  0  0  0  0  0  0
  189.8700  176.8400  147.5060 C   0  0  0  0  0  3  0  0  0  0  0  0
  190.7670  177.5530  144.8760 C   0  0  0  0  0  0  0  0  0  0  0  0
  191.5670  176.7940  145.6300 C   0  0  0  0  0  3  0  0  0  0  0  0
  189.0450  177.5920  146.7670 C   0  0  0  0  0  0  0  0  0  0  0  0
  191.1660  176.4040  146.9830 C   0  0  0  0  0  0  0  0  0  0  0  0
  189.4140  178.0230  145.3610 C   0  0  0  0  0  2  0  0  0  0  0  0
  191.9280  175.6960  147.6890 O   0  0  0  0  0  0  0  0  0  0  0  0
  186.5890  178.0490  146.4800 N   0  0  0  0  0  2  0  0  0  0  0  0
  187.7450  178.0080  147.3220 C   0  0  0  0  0  0  0  0  0  0  0  0
  187.6480  178.3290  148.5390 O   0  0  0  0  0  0  0  0  0  0  0  0
  185.2670  178.3880  146.9800 C   0  0  0  0  0  2  0  0  0  0  0  0
  184.3360  178.6770  145.8170 C   0  0  0  0  0  2  0  0  0  0  0  0
  185.0650  178.4190  144.5080 C   0  0  0  0  0  2  0  0  0  0  0  0
  184.6250  179.3730  143.3940 C   0  0  2  0  0  3  0  0  0  0  0  0
  183.8980  180.4500  143.9090 O   0  0  0  0  0  1  0  0  0  0  0  0
  182.5340  178.4640  142.6310 O   0  0  0  0  0  1  0  0  0  0  0  0
  183.8960  179.4570  141.0910 O   0  0  0  0  0  1  0  0  0  0  0  0
  183.8590  178.6900  142.2570 C   0  0  0  0  0  3  0  0  0  0  0  0
  189.0950  177.1410  136.8220 C   0  0  0  0  0  2  0  0  0  0  0  0
  188.3000  175.7530  134.9140 C   0  0  0  0  0  1  0  0  0  0  0  0
  187.8960  176.4280  136.2100 C   0  0  2  0  0  3  0  0  0  0  0  0
  186.8550  177.3610  135.9430 O   0  0  0  0  0  0  0  0  0  0  0  0
  184.9930  176.9870  134.6630 O   0  0  0  0  0  0  0  0  0  0  0  0
  185.5150  176.9860  135.8090 C   0  0  0  0  0  0  0  0  0  0  0  0
  183.8670  178.5130  138.1470 F   0  0  0  0  0  0  0  0  0  0  0  0
  185.2990  174.2640  136.5120 O   0  0  0  0  0  1  0  0  0  0  0  0
  181.9140  174.3140  136.9630 C   0  0  1  0  0  3  0  0  0  0  0  0
  184.2590  175.0930  136.9370 C   0  0  1  0  0  3  0  0  0  0  0  0
  181.8420  175.7690  136.5010 C   0  0  2  0  0  0  0  0  0  0  0  0
  184.6980  176.5670  137.0010 C   0  0  2  0  0  3  0  0  0  0  0  0
  181.0830  173.4930  136.1980 O   0  0  0  0  0  1  0  0  0  0  0  0
  183.0160  174.8800  136.0770 C   0  0  2  0  0  3  0  0  0  0  0  0
  183.5350  177.5470  137.2160 C   0  0  1  0  0  3  0  0  0  0  0  0
  182.1780  176.8850  137.5210 C   0  0  2  0  0  3  0  0  0  0  0  0
  181.3530  177.3450  134.6010 C   0  0  0  0  0  1  0  0  0  0  0  0
  180.8940  176.1050  135.3450 C   0  0  0  0  0  3  0  0  0  0  0  0
  179.4810  176.3080  135.8540 C   0  0  0  0  0  1  0  0  0  0  0  0
  183.1060  176.4630  139.7270 O   0  0  0  0  0  1  0  0  0  0  0  0
  181.9220  176.5030  138.9880 C   0  0  1  0  0  3  0  0  0  0  0  0
  180.9480  177.4700  139.6310 C   0  0  0  0  0  1  0  0  0  0  0  0
  1 32  1  6  0  0  0
  1  8  1  0  0  0  0
  2  6  1  0  0  0  0
  3  1  1  6  0  0  0
  3  2  1  0  0  0  0
  3  6  1  0  0  0  0
  4  5  1  0  0  0  0
  6  4  1  0  0  0  0
  6  5  1  0  0  0  0
  7  8  2  0  0  0  0
  8  9  1  0  0  0  0
  9 10  1  0  0  0  0
 10 11  1  0  0  0  0
 11 12  1  0  0  0  0
 12 13  1  0  0  0  0
 13 15  1  0  0  0  0
 15 19  1  0  0  0  0
 15 16  2  0  0  0  0
 16 18  1  0  0  0  0
 17 22  1  0  0  0  0
 17 14  2  0  0  0  0
 18 14  1  0  0  0  0
 18 20  2  0  0  0  0
 19 17  1  0  0  0  0
 21 24  1  0  0  0  0
 21 22  1  0  0  0  0
 22 23  2  0  0  0  0
 25 24  1  0  0  0  0
 26 25  1  0  0  0  0
 27 28  1  1  0  0  0
 27 26  1  0  0  0  0
 30 31  1  0  0  0  0
 31 29  1  0  0  0  0
 31 27  1  0  0  0  0
 34 33  1  6  0  0  0
 34 32  1  0  0  0  0
 35 34  1  0  0  0  0
 36 37  2  0  0  0  0
 37 35  1  0  0  0  0
 40 44  1  6  0  0  0
 41 39  1  6  0  0  0
 41 43  1  0  0  0  0
 42 49  1  6  0  0  0
 42 40  1  0  0  0  0
 42 47  1  0  0  0  0
 43 37  1  6  0  0  0
 43 46  1  0  0  0  0
 45 42  1  0  0  0  0
 45 41  1  0  0  0  0
 45 40  1  0  0  0  0
 46 47  1  0  0  0  0
 46 38  1  0  0  0  0
 47 52  1  0  0  0  0
 48 49  1  0  0  0  0
 49 50  1  0  0  0  0
 52 53  1  0  0  0  0
 52 51  1  0  0  0  0
M  END
>  <MODEL>
5

>  <REMARK>
 VINA RESULT:      -7.2      1.187      2.182
  Name = 
  21 active torsions:
  status: ('A' for Active; 'I' for Inactive)
    1  A    between atoms: C_5  and  C_6
    2  A    between atoms: C_5  and  N_49
    3  A    between atoms: C_10  and  C_23
    4  A    between atoms: C_10  and  C_46
    5  A    between atoms: C_11  and  C_26
    6  A    between atoms: N_13  and  C_31
    7  A    between atoms: C_14  and  C_32
    8  A    between atoms: C_21  and  C_23
    9  A    between atoms: C_21  and  C_31
   10  A    between atoms: C_24  and  C_27
   11  A    between atoms: C_24  and  C_33
   12  A    between atoms: C_25  and  C_53
   13  A    between atoms: C_27  and  C_39
   14  A    between atoms: C_27  and  C_45
   15  A    between atoms: C_33  and  O_36
   16  A    between atoms: N_35  and  C_41
   17  A    between atoms: N_35  and  N_49
   18  A    between atoms: O_36  and  C_38
   19  A    between atoms: C_37  and  C_38
   20  A    between atoms: C_41  and  O_42
   21  A    between atoms: O_42  and  C_45
                            x       y       z     vdW  Elec       q    Type
                         _______ _______ _______ _____ _____    ______ ____

>  <TORSDO>
F 21

$$$$
=
 OpenBabel11062414073D

 53 57  0  0  1  0  0  0  0  0999 V2000
  185.1010  178.5820  144.3170 C   0  0  2  0  0  3  0  0  0  0  0  0
  184.9970  179.0030  146.6400 O   0  0  0  0  0  0  0  0  0  0  0  0
  185.8230  179.1150  145.5450 C   0  0  1  0  0  3  0  0  0  0  0  0
  187.4600  178.4110  146.8880 C   0  0  0  0  0  2  0  0  0  0  0  0
  186.5460  178.0930  147.9900 C   0  0  0  0  0  2  0  0  0  0  0  0
  186.0140  178.0160  146.5500 C   0  0  0  0  0  0  0  0  0  0  0  0
  185.7650  177.8890  142.1400 O   0  0  0  0  0  0  0  0  0  0  0  0
  186.0820  177.9910  143.3560 C   0  0  0  0  0  0  0  0  0  0  0  0
  187.3200  177.5270  143.8110 O   0  0  0  0  0  0  0  0  0  0  0  0
  187.9330  176.3630  143.2730 C   0  0  0  0  0  2  0  0  0  0  0  0
  189.3760  176.4420  143.4370 N   0  0  0  0  0  2  0  0  0  0  0  0
  189.9570  176.0480  142.2240 N   0  0  0  0  0  2  0  0  0  0  0  0
  190.6070  177.2230  141.6720 C   0  0  0  0  0  2  0  0  0  0  0  0
  189.8320  177.4210  137.3890 C   0  0  0  0  0  3  0  0  0  0  0  0
  190.3370  177.3200  140.2110 C   0  0  0  0  0  0  0  0  0  0  0  0
  189.2390  177.9540  139.7900 C   0  0  0  0  0  3  0  0  0  0  0  0
  190.9330  176.7720  137.7840 C   0  0  0  0  0  0  0  0  0  0  0  0
  188.9320  178.0450  138.3610 C   0  0  0  0  0  0  0  0  0  0  0  0
  191.2960  176.6510  139.2520 C   0  0  0  0  0  2  0  0  0  0  0  0
  187.9010  178.6500  137.9730 O   0  0  0  0  0  0  0  0  0  0  0  0
  193.2190  176.0470  137.0260 N   0  0  0  0  0  2  0  0  0  0  0  0
  191.8140  176.1510  136.7790 C   0  0  0  0  0  0  0  0  0  0  0  0
  191.3310  175.7120  135.6980 O   0  0  0  0  0  0  0  0  0  0  0  0
  194.1300  175.3880  136.1050 C   0  0  0  0  0  2  0  0  0  0  0  0
  194.4790  174.0070  136.6270 C   0  0  0  0  0  2  0  0  0  0  0  0
  195.8520  173.6020  136.1140 C   0  0  0  0  0  2  0  0  0  0  0  0
  196.9550  173.8240  137.1530 C   0  0  2  0  0  3  0  0  0  0  0  0
  196.4250  174.2810  138.3630 O   0  0  0  0  0  1  0  0  0  0  0  0
  197.5840  175.9960  136.3350 O   0  0  0  0  0  1  0  0  0  0  0  0
  199.0770  174.8710  137.6460 O   0  0  0  0  0  1  0  0  0  0  0  0
  198.0860  174.7380  136.6720 C   0  0  0  0  0  3  0  0  0  0  0  0
  184.2990  179.7010  143.6660 C   0  0  0  0  0  2  0  0  0  0  0  0
  182.5640  178.2630  144.7250 C   0  0  0  0  0  1  0  0  0  0  0  0
  182.8040  179.4500  143.8130 C   0  0  2  0  0  3  0  0  0  0  0  0
  182.2240  179.1840  142.5410 O   0  0  0  0  0  0  0  0  0  0  0  0
  180.2910  180.3260  142.9950 O   0  0  0  0  0  0  0  0  0  0  0  0
  180.9520  179.6340  142.1760 C   0  0  0  0  0  0  0  0  0  0  0  0
  180.5270  181.2600  139.4030 F   0  0  0  0  0  0  0  0  0  0  0  0
  179.7380  177.1380  141.6760 O   0  0  0  0  0  1  0  0  0  0  0  0
  181.3190  176.6000  138.6980 C   0  0  1  0  0  3  0  0  0  0  0  0
  180.2400  177.8120  140.5600 C   0  0  1  0  0  3  0  0  0  0  0  0
  182.1400  177.8780  138.8660 C   0  0  2  0  0  0  0  0  0  0  0  0
  180.3720  179.3230  140.8220 C   0  0  2  0  0  3  0  0  0  0  0  0
  182.1400  175.4840  138.5200 O   0  0  0  0  0  1  0  0  0  0  0  0
  181.5450  177.1740  140.0900 C   0  0  2  0  0  3  0  0  0  0  0  0
  181.1500  180.0720  139.7290 C   0  0  1  0  0  3  0  0  0  0  0  0
  181.4890  179.2300  138.4850 C   0  0  2  0  0  3  0  0  0  0  0  0
  184.3410  179.0110  139.3240 C   0  0  0  0  0  1  0  0  0  0  0  0
  183.6670  177.7610  138.7900 C   0  0  0  0  0  3  0  0  0  0  0  0
  184.1130  177.5090  137.3630 C   0  0  0  0  0  1  0  0  0  0  0  0
  179.1710  179.6240  137.8740 O   0  0  0  0  0  1  0  0  0  0  0  0
  180.3920  179.1270  137.4140 C   0  0  1  0  0  3  0  0  0  0  0  0
  180.8020  179.8620  136.1530 C   0  0  0  0  0  1  0  0  0  0  0  0
  1 32  1  6  0  0  0
  3  1  1  6  0  0  0
  3  6  1  0  0  0  0
  3  2  1  0  0  0  0
  4  5  1  0  0  0  0
  6  2  1  0  0  0  0
  6  4  1  0  0  0  0
  6  5  1  0  0  0  0
  7  8  2  0  0  0  0
  8  9  1  0  0  0  0
  8  1  1  0  0  0  0
 10 11  1  0  0  0  0
 10  9  1  0  0  0  0
 12 11  1  0  0  0  0
 13 12  1  0  0  0  0
 14 17  2  0  0  0  0
 14 18  1  0  0  0  0
 15 13  1  0  0  0  0
 16 15  2  0  0  0  0
 17 19  1  0  0  0  0
 18 16  1  0  0  0  0
 19 15  1  0  0  0  0
 20 18  2  0  0  0  0
 22 21  1  0  0  0  0
 22 17  1  0  0  0  0
 23 22  2  0  0  0  0
 24 25  1  0  0  0  0
 24 21  1  0  0  0  0
 26 25  1  0  0  0  0
 26 27  1  0  0  0  0
 27 28  1  1  0  0  0
 29 31  1  0  0  0  0
 31 27  1  0  0  0  0
 31 30  1  0  0  0  0
 32 34  1  0  0  0  0
 34 33  1  1  0  0  0
 35 34  1  0  0  0  0
 37 35  1  0  0  0  0
 37 36  2  0  0  0  0
 38 46  1  0  0  0  0
 40 44  1  1  0  0  0
 40 42  1  0  0  0  0
 40 45  1  0  0  0  0
 41 43  1  0  0  0  0
 41 39  1  1  0  0  0
 42 49  1  6  0  0  0
 42 45  1  0  0  0  0
 43 37  1  1  0  0  0
 45 41  1  0  0  0  0
 46 43  1  0  0  0  0
 47 42  1  0  0  0  0
 47 46  1  0  0  0  0
 49 48  1  0  0  0  0
 50 49  1  0  0  0  0
 52 51  1  0  0  0  0
 52 47  1  0  0  0  0
 53 52  1  0  0  0  0
M  END
>  <MODEL>
6

>  <REMARK>
 VINA RESULT:      -6.3      3.016      8.910
  Name = 
  21 active torsions:
  status: ('A' for Active; 'I' for Inactive)
    1  A    between atoms: C_5  and  C_6
    2  A    between atoms: C_5  and  N_49
    3  A    between atoms: C_10  and  C_23
    4  A    between atoms: C_10  and  C_46
    5  A    between atoms: C_11  and  C_26
    6  A    between atoms: N_13  and  C_31
    7  A    between atoms: C_14  and  C_32
    8  A    between atoms: C_21  and  C_23
    9  A    between atoms: C_21  and  C_31
   10  A    between atoms: C_24  and  C_27
   11  A    between atoms: C_24  and  C_33
   12  A    between atoms: C_25  and  C_53
   13  A    between atoms: C_27  and  C_39
   14  A    between atoms: C_27  and  C_45
   15  A    between atoms: C_33  and  O_36
   16  A    between atoms: N_35  and  C_41
   17  A    between atoms: N_35  and  N_49
   18  A    between atoms: O_36  and  C_38
   19  A    between atoms: C_37  and  C_38
   20  A    between atoms: C_41  and  O_42
   21  A    between atoms: O_42  and  C_45
                            x       y       z     vdW  Elec       q    Type
                         _______ _______ _______ _____ _____    ______ ____

>  <TORSDO>
F 21

$$$$
=
 OpenBabel11062414073D

 53 57  0  0  1  0  0  0  0  0999 V2000
  187.8900  177.0900  143.6770 C   0  0  2  0  0  3  0  0  0  0  0  0
  187.7100  177.1920  146.0300 O   0  0  0  0  0  0  0  0  0  0  0  0
  188.3150  177.7980  144.9530 C   0  0  1  0  0  3  0  0  0  0  0  0
  190.1530  177.8840  146.2170 C   0  0  0  0  0  2  0  0  0  0  0  0
  189.5730  177.0560  147.2790 C   0  0  0  0  0  2  0  0  0  0  0  0
  189.0760  176.8540  145.8390 C   0  0  0  0  0  0  0  0  0  0  0  0
  189.1060  178.8550  142.6440 O   0  0  0  0  0  0  0  0  0  0  0  0
  188.4800  177.7730  142.4850 C   0  0  0  0  0  0  0  0  0  0  0  0
  188.3080  177.2300  141.2080 O   0  0  0  0  0  0  0  0  0  0  0  0
  189.0790  177.6630  140.0950 C   0  0  0  0  0  2  0  0  0  0  0  0
  188.3210  178.6240  139.3090 N   0  0  0  0  0  2  0  0  0  0  0  0
  189.0930  178.9480  138.1850 N   0  0  0  0  0  2  0  0  0  0  0  0
  188.2360  178.7710  137.0260 C   0  0  0  0  0  2  0  0  0  0  0  0
  188.3350  174.5860  135.8150 C   0  0  0  0  0  3  0  0  0  0  0  0
  188.2500  177.3460  136.5900 C   0  0  0  0  0  0  0  0  0  0  0  0
  187.0930  176.7190  136.3680 C   0  0  0  0  0  3  0  0  0  0  0  0
  189.5090  175.1880  136.0420 C   0  0  0  0  0  0  0  0  0  0  0  0
  187.0720  175.3120  135.9640 C   0  0  0  0  0  0  0  0  0  0  0  0
  189.5830  176.6430  136.4620 C   0  0  0  0  0  2  0  0  0  0  0  0
  185.9780  174.7310  135.7490 O   0  0  0  0  0  0  0  0  0  0  0  0
  192.0180  175.0600  136.1350 N   0  0  0  0  0  2  0  0  0  0  0  0
  190.7600  174.4250  135.8900 C   0  0  0  0  0  0  0  0  0  0  0  0
  190.7250  173.2120  135.5410 O   0  0  0  0  0  0  0  0  0  0  0  0
  193.2830  174.3470  136.0660 C   0  0  0  0  0  2  0  0  0  0  0  0
  193.8060  174.0910  137.4670 C   0  0  0  0  0  2  0  0  0  0  0  0
  195.0880  174.8800  137.6830 C   0  0  0  0  0  2  0  0  0  0  0  0
  196.1580  174.0690  138.4200 C   0  0  2  0  0  3  0  0  0  0  0  0
  195.7010  172.7820  138.7170 O   0  0  0  0  0  1  0  0  0  0  0  0
  197.8730  175.4610  139.3700 O   0  0  0  0  0  1  0  0  0  0  0  0
  195.7630  175.6260  140.2260 O   0  0  0  0  0  1  0  0  0  0  0  0
  196.7060  174.7580  139.6730 C   0  0  0  0  0  3  0  0  0  0  0  0
  186.3690  177.0510  143.5920 C   0  0  0  0  0  2  0  0  0  0  0  0
  185.2190  179.1530  144.2700 C   0  0  0  0  0  1  0  0  0  0  0  0
  185.8210  178.3870  143.1080 C   0  0  2  0  0  3  0  0  0  0  0  0
  184.8170  178.1760  142.1210 O   0  0  0  0  0  0  0  0  0  0  0  0
  185.6650  179.3790  140.3650 O   0  0  0  0  0  0  0  0  0  0  0  0
  184.6490  179.0150  141.0160 C   0  0  0  0  0  0  0  0  0  0  0  0
  183.4780  180.9800  138.7180 F   0  0  0  0  0  0  0  0  0  0  0  0
  182.3560  178.2410  142.4620 O   0  0  0  0  0  1  0  0  0  0  0  0
  180.5270  177.3550  139.7170 C   0  0  1  0  0  3  0  0  0  0  0  0
  182.1530  178.5760  141.1210 C   0  0  1  0  0  3  0  0  0  0  0  0
  181.7160  177.6300  138.7970 C   0  0  2  0  0  0  0  0  0  0  0  0
  183.2830  179.4720  140.5830 C   0  0  2  0  0  3  0  0  0  0  0  0
  180.0550  176.0500  139.5680 O   0  0  0  0  0  1  0  0  0  0  0  0
  181.9410  177.3190  140.2800 C   0  0  2  0  0  3  0  0  0  0  0  0
  183.2460  179.6620  139.0590 C   0  0  1  0  0  3  0  0  0  0  0  0
  181.9950  179.0910  138.3660 C   0  0  2  0  0  3  0  0  0  0  0  0
  183.6490  176.6330  137.5330 C   0  0  0  0  0  1  0  0  0  0  0  0
  182.1760  176.5000  137.8700 C   0  0  0  0  0  3  0  0  0  0  0  0
  181.3580  176.4900  136.5930 C   0  0  0  0  0  1  0  0  0  0  0  0
  180.7710  180.9190  139.4000 O   0  0  0  0  0  1  0  0  0  0  0  0
  180.7530  179.9970  138.3510 C   0  0  1  0  0  3  0  0  0  0  0  0
  180.6390  180.7290  137.0280 C   0  0  0  0  0  1  0  0  0  0  0  0
  1 32  1  6  0  0  0
  3  1  1  6  0  0  0
  3  6  1  0  0  0  0
  3  2  1  0  0  0  0
  4  5  1  0  0  0  0
  6  2  1  0  0  0  0
  6  4  1  0  0  0  0
  6  5  1  0  0  0  0
  8  7  2  0  0  0  0
  8  1  1  0  0  0  0
  9  8  1  0  0  0  0
 10  9  1  0  0  0  0
 11 10  1  0  0  0  0
 12 11  1  0  0  0  0
 13 12  1  0  0  0  0
 14 18  1  0  0  0  0
 14 17  2  0  0  0  0
 15 13  1  0  0  0  0
 16 15  2  0  0  0  0
 17 19  1  0  0  0  0
 18 16  1  0  0  0  0
 19 15  1  0  0  0  0
 20 18  2  0  0  0  0
 22 17  1  0  0  0  0
 22 21  1  0  0  0  0
 23 22  2  0  0  0  0
 24 21  1  0  0  0  0
 24 25  1  0  0  0  0
 25 26  1  0  0  0  0
 26 27  1  0  0  0  0
 27 28  1  1  0  0  0
 27 31  1  0  0  0  0
 29 31  1  0  0  0  0
 31 30  1  0  0  0  0
 34 32  1  0  0  0  0
 34 33  1  1  0  0  0
 35 34  1  0  0  0  0
 36 37  2  0  0  0  0
 37 35  1  0  0  0  0
 38 46  1  0  0  0  0
 40 44  1  6  0  0  0
 40 45  1  0  0  0  0
 41 39  1  1  0  0  0
 42 49  1  6  0  0  0
 42 40  1  0  0  0  0
 42 45  1  0  0  0  0
 43 37  1  6  0  0  0
 43 41  1  0  0  0  0
 45 41  1  0  0  0  0
 46 43  1  0  0  0  0
 47 42  1  0  0  0  0
 47 46  1  0  0  0  0
 48 49  1  0  0  0  0
 50 49  1  0  0  0  0
 52 47  1  0  0  0  0
 52 51  1  0  0  0  0
 53 52  1  0  0  0  0
M  END
>  <MODEL>
7

>  <REMARK>
 VINA RESULT:      -6.3      2.784      8.523
  Name = 
  21 active torsions:
  status: ('A' for Active; 'I' for Inactive)
    1  A    between atoms: C_5  and  C_6
    2  A    between atoms: C_5  and  N_49
    3  A    between atoms: C_10  and  C_23
    4  A    between atoms: C_10  and  C_46
    5  A    between atoms: C_11  and  C_26
    6  A    between atoms: N_13  and  C_31
    7  A    between atoms: C_14  and  C_32
    8  A    between atoms: C_21  and  C_23
    9  A    between atoms: C_21  and  C_31
   10  A    between atoms: C_24  and  C_27
   11  A    between atoms: C_24  and  C_33
   12  A    between atoms: C_25  and  C_53
   13  A    between atoms: C_27  and  C_39
   14  A    between atoms: C_27  and  C_45
   15  A    between atoms: C_33  and  O_36
   16  A    between atoms: N_35  and  C_41
   17  A    between atoms: N_35  and  N_49
   18  A    between atoms: O_36  and  C_38
   19  A    between atoms: C_37  and  C_38
   20  A    between atoms: C_41  and  O_42
   21  A    between atoms: O_42  and  C_45
                            x       y       z     vdW  Elec       q    Type
                         _______ _______ _______ _____ _____    ______ ____

>  <TORSDO>
F 21

$$$$
=
 OpenBabel11062414073D

 53 57  0  0  1  0  0  0  0  0999 V2000
  188.9610  176.7800  136.3180 C   0  0  2  0  0  3  0  0  0  0  0  0
  188.6760  174.9460  134.8560 O   0  0  0  0  0  0  0  0  0  0  0  0
  188.3790  175.3890  136.1250 C   0  0  1  0  0  3  0  0  0  0  0  0
  188.8730  173.3220  136.8060 C   0  0  0  0  0  2  0  0  0  0  0  0
  189.3880  172.9130  135.4960 C   0  0  0  0  0  2  0  0  0  0  0  0
  189.4800  174.3960  135.8890 C   0  0  0  0  0  0  0  0  0  0  0  0
  188.8200  176.7980  138.6930 O   0  0  0  0  0  0  0  0  0  0  0  0
  189.5630  176.9040  137.6810 C   0  0  0  0  0  0  0  0  0  0  0  0
  190.9290  177.1680  137.8240 O   0  0  0  0  0  0  0  0  0  0  0  0
  191.8310  176.2070  138.3560 C   0  0  0  0  0  2  0  0  0  0  0  0
  192.8750  176.8740  139.1190 N   0  0  0  0  0  2  0  0  0  0  0  0
  192.2440  177.6710  140.0820 N   0  0  0  0  0  2  0  0  0  0  0  0
  192.5220  177.0650  141.3720 C   0  0  0  0  0  2  0  0  0  0  0  0
  189.1900  177.7700  144.0900 C   0  0  0  0  0  3  0  0  0  0  0  0
  191.3990  177.3270  142.3150 C   0  0  0  0  0  0  0  0  0  0  0  0
  191.6450  177.3690  143.6270 C   0  0  0  0  0  3  0  0  0  0  0  0
  188.9160  177.7230  142.7810 C   0  0  0  0  0  0  0  0  0  0  0  0
  190.5580  177.5990  144.5820 C   0  0  0  0  0  0  0  0  0  0  0  0
  190.0050  177.4880  141.7530 C   0  0  0  0  0  2  0  0  0  0  0  0
  190.7990  177.6440  145.8150 O   0  0  0  0  0  0  0  0  0  0  0  0
  186.4410  177.6500  143.2220 N   0  0  0  0  0  2  0  0  0  0  0  0
  187.5250  177.8920  142.3210 C   0  0  0  0  0  0  0  0  0  0  0  0
  187.2900  178.2470  141.1340 O   0  0  0  0  0  0  0  0  0  0  0  0
  185.0510  177.8610  142.8500 C   0  0  0  0  0  2  0  0  0  0  0  0
  184.7440  179.3470  142.8320 C   0  0  0  0  0  2  0  0  0  0  0  0
  184.9740  179.9300  144.2180 C   0  0  0  0  0  2  0  0  0  0  0  0
  184.8320  178.8820  145.3260 C   0  0  2  0  0  3  0  0  0  0  0  0
  183.5990  178.9970  145.9750 O   0  0  0  0  0  1  0  0  0  0  0  0
  185.6860  179.7250  147.4090 O   0  0  0  0  0  1  0  0  0  0  0  0
  186.2490  177.5970  146.8030 O   0  0  0  0  0  1  0  0  0  0  0  0
  185.9840  178.8850  146.3350 C   0  0  0  0  0  3  0  0  0  0  0  0
  187.8770  177.8270  136.0980 C   0  0  0  0  0  2  0  0  0  0  0  0
  185.6810  177.3980  135.0050 C   0  0  0  0  0  1  0  0  0  0  0  0
  186.4930  177.2160  136.2730 C   0  0  2  0  0  3  0  0  0  0  0  0
  185.8120  177.8430  137.3540 O   0  0  0  0  0  0  0  0  0  0  0  0
  184.2230  176.3540  138.0640 O   0  0  0  0  0  0  0  0  0  0  0  0
  184.4970  177.5310  137.7080 C   0  0  0  0  0  0  0  0  0  0  0  0
  181.8340  178.0820  135.9420 F   0  0  0  0  0  0  0  0  0  0  0  0
  184.6240  179.7580  139.4330 O   0  0  0  0  0  1  0  0  0  0  0  0
  181.3760  179.5520  140.4680 C   0  0  1  0  0  3  0  0  0  0  0  0
  183.3500  179.3960  138.9900 C   0  0  1  0  0  3  0  0  0  0  0  0
  181.1690  178.2680  139.6650 C   0  0  2  0  0  0  0  0  0  0  0  0
  183.4140  178.5760  137.6890 C   0  0  2  0  0  3  0  0  0  0  0  0
  181.0700  179.3670  141.8170 O   0  0  0  0  0  1  0  0  0  0  0  0
  182.5760  178.6900  140.1000 C   0  0  2  0  0  3  0  0  0  0  0  0
  182.0720  177.9390  137.2950 C   0  0  1  0  0  3  0  0  0  0  0  0
  180.8700  178.3840  138.1500 C   0  0  2  0  0  3  0  0  0  0  0  0
  180.7410  175.7910  139.5480 C   0  0  0  0  0  1  0  0  0  0  0  0
  180.6530  177.0340  140.4130 C   0  0  0  0  0  3  0  0  0  0  0  0
  179.2200  177.2430  140.8640 C   0  0  0  0  0  1  0  0  0  0  0  0
  181.1010  180.6030  137.1860 O   0  0  0  0  0  1  0  0  0  0  0  0
  180.1900  179.6980  137.7350 C   0  0  1  0  0  3  0  0  0  0  0  0
  179.0710  179.4350  136.7460 C   0  0  0  0  0  1  0  0  0  0  0  0
  1 32  1  1  0  0  0
  1  8  1  0  0  0  0
  2  6  1  0  0  0  0
  2  3  1  0  0  0  0
  3  1  1  6  0  0  0
  5  6  1  0  0  0  0
  5  4  1  0  0  0  0
  6  3  1  0  0  0  0
  6  4  1  0  0  0  0
  8  9  1  0  0  0  0
  8  7  2  0  0  0  0
  9 10  1  0  0  0  0
 10 11  1  0  0  0  0
 11 12  1  0  0  0  0
 12 13  1  0  0  0  0
 13 15  1  0  0  0  0
 14 18  1  0  0  0  0
 15 16  2  0  0  0  0
 16 18  1  0  0  0  0
 17 14  2  0  0  0  0
 18 20  2  0  0  0  0
 19 15  1  0  0  0  0
 19 17  1  0  0  0  0
 22 17  1  0  0  0  0
 22 21  1  0  0  0  0
 23 22  2  0  0  0  0
 24 21  1  0  0  0  0
 25 24  1  0  0  0  0
 25 26  1  0  0  0  0
 26 27  1  0  0  0  0
 27 28  1  1  0  0  0
 27 31  1  0  0  0  0
 31 30  1  0  0  0  0
 31 29  1  0  0  0  0
 32 34  1  0  0  0  0
 34 33  1  6  0  0  0
 34 35  1  0  0  0  0
 35 37  1  0  0  0  0
 37 36  2  0  0  0  0
 38 46  1  0  0  0  0
 40 44  1  1  0  0  0
 41 39  1  1  0  0  0
 41 45  1  0  0  0  0
 42 45  1  0  0  0  0
 42 49  1  1  0  0  0
 42 40  1  0  0  0  0
 43 37  1  1  0  0  0
 43 41  1  0  0  0  0
 45 40  1  0  0  0  0
 46 43  1  0  0  0  0
 46 47  1  0  0  0  0
 47 42  1  0  0  0  0
 48 49  1  0  0  0  0
 49 50  1  0  0  0  0
 51 52  1  0  0  0  0
 52 47  1  0  0  0  0
 53 52  1  0  0  0  0
M  END
>  <MODEL>
8

>  <REMARK>
 VINA RESULT:      -6.2      2.196      3.898
  Name = 
  21 active torsions:
  status: ('A' for Active; 'I' for Inactive)
    1  A    between atoms: C_5  and  C_6
    2  A    between atoms: C_5  and  N_49
    3  A    between atoms: C_10  and  C_23
    4  A    between atoms: C_10  and  C_46
    5  A    between atoms: C_11  and  C_26
    6  A    between atoms: N_13  and  C_31
    7  A    between atoms: C_14  and  C_32
    8  A    between atoms: C_21  and  C_23
    9  A    between atoms: C_21  and  C_31
   10  A    between atoms: C_24  and  C_27
   11  A    between atoms: C_24  and  C_33
   12  A    between atoms: C_25  and  C_53
   13  A    between atoms: C_27  and  C_39
   14  A    between atoms: C_27  and  C_45
   15  A    between atoms: C_33  and  O_36
   16  A    between atoms: N_35  and  C_41
   17  A    between atoms: N_35  and  N_49
   18  A    between atoms: O_36  and  C_38
   19  A    between atoms: C_37  and  C_38
   20  A    between atoms: C_41  and  O_42
   21  A    between atoms: O_42  and  C_45
                            x       y       z     vdW  Elec       q    Type
                         _______ _______ _______ _____ _____    ______ ____

>  <TORSDO>
F 21

$$$$
=
 OpenBabel11062414073D

 53 57  0  0  1  0  0  0  0  0999 V2000
  189.5460  175.8980  137.1690 C   0  0  2  0  0  3  0  0  0  0  0  0
  190.6480  173.8620  136.6990 O   0  0  0  0  0  0  0  0  0  0  0  0
  190.6110  174.9010  137.6000 C   0  0  1  0  0  3  0  0  0  0  0  0
  192.8410  174.8110  137.5780 C   0  0  0  0  0  2  0  0  0  0  0  0
  192.8840  173.8530  136.4690 C   0  0  0  0  0  2  0  0  0  0  0  0
  191.6900  174.8170  136.5590 C   0  0  0  0  0  0  0  0  0  0  0  0
  190.5710  177.2820  138.8110 O   0  0  0  0  0  0  0  0  0  0  0  0
  189.5820  177.1060  138.0490 C   0  0  0  0  0  0  0  0  0  0  0  0
  188.5150  178.0100  138.0460 O   0  0  0  0  0  0  0  0  0  0  0  0
  187.5520  178.0420  139.0910 C   0  0  0  0  0  2  0  0  0  0  0  0
  187.9670  178.9840  140.1200 N   0  0  0  0  0  2  0  0  0  0  0  0
  187.3450  178.5980  141.3150 N   0  0  0  0  0  2  0  0  0  0  0  0
  185.9140  178.6490  141.0750 C   0  0  0  0  0  2  0  0  0  0  0  0
  183.8190  178.7910  144.8940 C   0  0  0  0  0  3  0  0  0  0  0  0
  185.1780  178.6780  142.3700 C   0  0  0  0  0  0  0  0  0  0  0  0
  183.8520  178.8380  142.3650 C   0  0  0  0  0  3  0  0  0  0  0  0
  185.1490  178.6410  144.9280 C   0  0  0  0  0  0  0  0  0  0  0  0
  183.1030  178.8960  143.6210 C   0  0  0  0  0  0  0  0  0  0  0  0
  185.9700  178.5750  143.6540 C   0  0  0  0  0  2  0  0  0  0  0  0
  181.8540  179.0390  143.6070 O   0  0  0  0  0  0  0  0  0  0  0  0
  187.0190  177.7470  146.3520 N   0  0  0  0  0  2  0  0  0  0  0  0
  185.8390  178.5460  146.2270 C   0  0  0  0  0  0  0  0  0  0  0  0
  185.3890  179.1660  147.2300 O   0  0  0  0  0  0  0  0  0  0  0  0
  187.7810  177.6630  147.5870 C   0  0  0  0  0  2  0  0  0  0  0  0
  189.1350  177.0360  147.3130 C   0  0  0  0  0  2  0  0  0  0  0  0
  189.8410  177.8120  146.2120 C   0  0  0  0  0  2  0  0  0  0  0  0
  190.3960  176.9000  145.1150 C   0  0  2  0  0  3  0  0  0  0  0  0
  191.6210  176.3440  145.4930 O   0  0  0  0  0  1  0  0  0  0  0  0
  190.2980  178.9470  143.8580 O   0  0  0  0  0  1  0  0  0  0  0  0
  191.7420  177.3250  143.1530 O   0  0  0  0  0  1  0  0  0  0  0  0
  190.5010  177.5710  143.7430 C   0  0  0  0  0  3  0  0  0  0  0  0
  188.1760  175.2330  137.2040 C   0  0  0  0  0  2  0  0  0  0  0  0
  188.1710  176.0530  134.8530 C   0  0  0  0  0  1  0  0  0  0  0  0
  187.6640  174.9770  135.7930 C   0  0  2  0  0  3  0  0  0  0  0  0
  186.2410  174.9800  135.7790 O   0  0  0  0  0  0  0  0  0  0  0  0
  185.6310  177.1770  136.0080 O   0  0  0  0  0  0  0  0  0  0  0  0
  185.4770  175.9840  136.3820 C   0  0  0  0  0  0  0  0  0  0  0  0
  183.2670  177.6520  138.0680 F   0  0  0  0  0  0  0  0  0  0  0  0
  185.3380  173.3920  137.4850 O   0  0  0  0  0  1  0  0  0  0  0  0
  181.9400  173.1300  137.2680 C   0  0  1  0  0  3  0  0  0  0  0  0
  184.1700  174.1540  137.5570 C   0  0  1  0  0  3  0  0  0  0  0  0
  181.8490  174.4820  136.5600 C   0  0  2  0  0  0  0  0  0  0  0  0
  184.4680  175.6610  137.4510 C   0  0  2  0  0  3  0  0  0  0  0  0
  181.3520  172.1160  136.5110 O   0  0  0  0  0  1  0  0  0  0  0  0
  183.1520  173.6760  136.5250 C   0  0  2  0  0  3  0  0  0  0  0  0
  183.2120  176.5260  137.2700 C   0  0  1  0  0  3  0  0  0  0  0  0
  181.8790  175.7700  137.4200 C   0  0  2  0  0  3  0  0  0  0  0  0
  180.9570  175.9610  134.7300 C   0  0  0  0  0  1  0  0  0  0  0  0
  181.1370  174.5310  135.2050 C   0  0  0  0  0  3  0  0  0  0  0  0
  179.7860  173.8460  135.2850 C   0  0  0  0  0  1  0  0  0  0  0  0
  182.2550  176.0860  139.7990 O   0  0  0  0  0  1  0  0  0  0  0  0
  181.3570  175.5880  138.8540 C   0  0  1  0  0  3  0  0  0  0  0  0
  180.0090  176.2610  139.0240 C   0  0  0  0  0  1  0  0  0  0  0  0
  1 32  1  1  0  0  0
  1  8  1  0  0  0  0
  2  3  1  0  0  0  0
  3  1  1  6  0  0  0
  5  6  1  0  0  0  0
  5  4  1  0  0  0  0
  6  2  1  0  0  0  0
  6  4  1  0  0  0  0
  6  3  1  0  0  0  0
  8  7  2  0  0  0  0
  9  8  1  0  0  0  0
  9 10  1  0  0  0  0
 10 11  1  0  0  0  0
 11 12  1  0  0  0  0
 13 12  1  0  0  0  0
 13 15  1  0  0  0  0
 14 17  2  0  0  0  0
 15 19  1  0  0  0  0
 16 15  2  0  0  0  0
 16 18  1  0  0  0  0
 17 22  1  0  0  0  0
 18 14  1  0  0  0  0
 19 17  1  0  0  0  0
 20 18  2  0  0  0  0
 21 24  1  0  0  0  0
 22 21  1  0  0  0  0
 22 23  2  0  0  0  0
 25 24  1  0  0  0  0
 26 25  1  0  0  0  0
 27 28  1  1  0  0  0
 27 26  1  0  0  0  0
 30 31  1  0  0  0  0
 31 29  1  0  0  0  0
 31 27  1  0  0  0  0
 34 33  1  6  0  0  0
 34 32  1  0  0  0  0
 35 34  1  0  0  0  0
 35 37  1  0  0  0  0
 36 37  2  0  0  0  0
 40 44  1  6  0  0  0
 41 39  1  6  0  0  0
 42 49  1  6  0  0  0
 42 40  1  0  0  0  0
 42 47  1  0  0  0  0
 43 37  1  6  0  0  0
 43 41  1  0  0  0  0
 45 42  1  0  0  0  0
 45 40  1  0  0  0  0
 45 41  1  0  0  0  0
 46 47  1  0  0  0  0
 46 43  1  0  0  0  0
 46 38  1  0  0  0  0
 47 52  1  0  0  0  0
 48 49  1  0  0  0  0
 49 50  1  0  0  0  0
 52 53  1  0  0  0  0
 52 51  1  0  0  0  0
M  END
>  <MODEL>
9

>  <REMARK>
 VINA RESULT:      -6.2      1.761      4.087
  Name = 
  21 active torsions:
  status: ('A' for Active; 'I' for Inactive)
    1  A    between atoms: C_5  and  C_6
    2  A    between atoms: C_5  and  N_49
    3  A    between atoms: C_10  and  C_23
    4  A    between atoms: C_10  and  C_46
    5  A    between atoms: C_11  and  C_26
    6  A    between atoms: N_13  and  C_31
    7  A    between atoms: C_14  and  C_32
    8  A    between atoms: C_21  and  C_23
    9  A    between atoms: C_21  and  C_31
   10  A    between atoms: C_24  and  C_27
   11  A    between atoms: C_24  and  C_33
   12  A    between atoms: C_25  and  C_53
   13  A    between atoms: C_27  and  C_39
   14  A    between atoms: C_27  and  C_45
   15  A    between atoms: C_33  and  O_36
   16  A    between atoms: N_35  and  C_41
   17  A    between atoms: N_35  and  N_49
   18  A    between atoms: O_36  and  C_38
   19  A    between atoms: C_37  and  C_38
   20  A    between atoms: C_41  and  O_42
   21  A    between atoms: O_42  and  C_45
                            x       y       z     vdW  Elec       q    Type
                         _______ _______ _______ _____ _____    ______ ____

>  <TORSDO>
F 21

$$$$
