=
 OpenBabel11062417593D

 40 44  0  0  1  0  0  0  0  0999 V2000
  182.2440  179.0640  137.7070 C   0  0  2  0  0  3  0  0  0  0  0  0
  188.5160  178.1970  138.2630 C   0  0  0  0  0  2  0  0  0  0  0  0
  187.5960  175.5820  137.6090 C   0  0  0  0  0  2  0  0  0  0  0  0
  182.5110  178.8690  139.1690 C   0  0  1  0  0  3  0  0  0  0  0  0
  186.0700  177.7230  137.7240 C   0  0  2  0  0  3  0  0  0  0  0  0
  183.7830  176.1480  137.4430 N   0  0  0  0  0  2  0  0  0  0  0  0
  183.0730  177.0340  136.5680 C   0  0  0  0  0  0  0  0  0  0  0  0
  187.7470  177.8010  135.6510 C   0  0  0  0  0  2  0  0  0  0  0  0
  181.1250  179.9940  137.6300 N   0  0  0  0  0  2  0  0  0  0  0  0
  183.8980  179.2870  139.5410 C   0  0  0  0  0  0  0  0  0  0  0  0
  181.4950  179.7780  139.7950 C   0  0  2  0  0  3  0  0  0  0  0  0
  186.3040  176.3030  137.1770 C   0  0  2  0  0  0  0  0  0  0  0  0
  185.0210  175.4370  137.1070 C   0  0  2  0  0  3  0  0  0  0  0  0
  185.3380  173.1980  135.9390 C   0  0  2  0  0  3  0  0  0  0  0  0
  186.5880  173.1210  136.6110 O   0  0  0  0  0  0  0  0  0  0  0  0
  186.0360  178.7430  140.7720 C   0  0  1  0  0  3  0  0  0  0  0  0
  184.3960  180.3510  139.0790 O   0  0  0  0  0  0  0  0  0  0  0  0
  181.8590  177.7430  137.0610 C   0  0  0  0  0  2  0  0  0  0  0  0
  186.9290  177.8270  139.9430 C   0  0  0  0  0  2  0  0  0  0  0  0
  186.3570  177.5100  136.2170 C   0  0  1  0  0  3  0  0  0  0  0  0
  180.8980  179.1170  141.0210 C   0  0  0  0  0  1  0  0  0  0  0  0
  187.7320  173.6690  136.0390 C   0  0  0  0  0  3  0  0  0  0  0  0
  188.9650  179.2660  137.2750 C   0  0  0  0  0  2  0  0  0  0  0  0
  184.8840  174.6580  135.7970 C   0  0  0  0  0  2  0  0  0  0  0  0
  183.4720  177.2390  135.3910 O   0  0  0  0  0  0  0  0  0  0  0  0
  188.1640  179.2240  135.9800 C   0  0  0  0  0  2  0  0  0  0  0  0
  187.1030  178.3540  138.5970 N   0  0  1  0  0  0  0  0  0  0  0  0
  184.6410  178.4800  140.4560 N   0  0  0  0  0  2  0  0  0  0  0  0
  188.2360  174.8090  136.4960 C   0  0  0  0  0  3  0  0  0  0  0  0
  180.4930  179.9940  138.8390 O   0  0  0  0  0  0  0  0  0  0  0  0
  184.2970  172.3350  136.6490 C   0  0  0  0  0  0  0  0  0  0  0  0
  183.0210  172.8220  136.4220 F   0  0  0  0  0  0  0  0  0  0  0  0
  184.5460  172.3450  138.0090 F   0  0  0  0  0  0  0  0  0  0  0  0
  184.3750  171.0310  136.1920 F   0  0  0  0  0  0  0  0  0  0  0  0
  186.2640  178.4780  142.2510 C   0  0  0  0  0  2  0  0  0  0  0  0
  187.6580  177.9810  142.5020 C   0  0  0  0  0  0  0  0  0  0  0  0
  188.6070  178.5880  142.0330 O   0  0  0  0  0  0  0  0  0  0  0  0
  188.1860  177.1030  144.7560 C   0  0  0  0  0  1  0  0  0  0  0  0
  188.9810  176.0090  142.8000 O   0  0  0  0  0  1  0  0  0  0  0  0
  187.9060  176.7400  143.3110 C   0  0  2  0  0  3  0  0  0  0  0  0
  1 18  1  1  0  0  0
  1  4  1  0  0  0  0
  2 27  1  0  0  0  0
  4 10  1  6  0  0  0
  4 11  1  0  0  0  0
  5 27  1  0  0  0  0
  7 18  1  0  0  0  0
  7  6  1  0  0  0  0
  8 26  1  0  0  0  0
  8 20  1  0  0  0  0
  9  1  1  0  0  0  0
  9 30  1  0  0  0  0
 10 28  1  0  0  0  0
 11 21  1  0  0  0  0
 12  3  1  0  0  0  0
 12  5  1  0  0  0  0
 13 12  1  0  0  0  0
 13  6  1  0  0  0  0
 14 15  1  0  0  0  0
 14 31  1  0  0  0  0
 16 35  1  0  0  0  0
 17 10  2  0  0  0  0
 19 16  1  0  0  0  0
 20 12  1  0  0  0  0
 20  5  1  0  0  0  0
 22 29  2  0  0  0  0
 22 15  1  0  0  0  0
 23  2  1  0  0  0  0
 24 14  1  0  0  0  0
 24 13  1  0  0  0  0
 25  7  2  0  0  0  0
 26 23  1  0  0  0  0
 27 19  1  0  0  0  0
 28 16  1  0  0  0  0
 29  3  1  0  0  0  0
 30 11  1  0  0  0  0
 31 33  1  0  0  0  0
 32 31  1  0  0  0  0
 34 31  1  0  0  0  0
 35 36  1  0  0  0  0
 36 40  1  0  0  0  0
 37 36  2  0  0  0  0
 39 40  1  0  0  0  0
 40 38  1  0  0  0  0
M  END
>  <MODEL>
1

>  <REMARK>
 VINA RESULT:      -7.3      0.000      0.000
  Name = 
  4 active torsions:
  status: ('A' for Active; 'I' for Inactive)
    1  A    between atoms: C_6  and  C_7
    2  A    between atoms: C_6  and  C_22
    3  A    between atoms: C_7  and  C_21
    4  A    between atoms: C_13  and  C_19
                            x       y       z     vdW  Elec       q    Type
                         _______ _______ _______ _____ _____    ______ ____

>  <TORSDO>
F 4

$$$$
=
 OpenBabel11062417593D

 40 44  0  0  1  0  0  0  0  0999 V2000
  192.9990  174.9010  136.3400 C   0  0  2  0  0  3  0  0  0  0  0  0
  187.0250  177.0150  136.8390 C   0  0  0  0  0  2  0  0  0  0  0  0
  187.9310  177.1080  139.5370 C   0  0  0  0  0  2  0  0  0  0  0  0
  192.1290  173.6830  136.4170 C   0  0  1  0  0  3  0  0  0  0  0  0
  189.4280  176.4480  137.4760 C   0  0  2  0  0  3  0  0  0  0  0  0
  191.4940  175.6690  139.1840 N   0  0  0  0  0  2  0  0  0  0  0  0
  192.5700  176.1970  138.3990 C   0  0  0  0  0  0  0  0  0  0  0  0
  188.7850  179.0370  137.4570 C   0  0  0  0  0  2  0  0  0  0  0  0
  194.1150  174.5360  135.4780 N   0  0  0  0  0  2  0  0  0  0  0  0
  190.7510  173.9500  135.9020 C   0  0  0  0  0  0  0  0  0  0  0  0
  192.8560  172.7240  135.5210 C   0  0  2  0  0  3  0  0  0  0  0  0
  189.3360  176.9830  138.9170 C   0  0  2  0  0  0  0  0  0  0  0  0
  190.4600  176.4670  139.8510 C   0  0  2  0  0  3  0  0  0  0  0  0
  190.4910  177.5640  142.1470 C   0  0  2  0  0  3  0  0  0  0  0  0
  189.0720  177.4810  142.1120 O   0  0  0  0  0  0  0  0  0  0  0  0
  188.2590  173.7170  136.2470 C   0  0  1  0  0  3  0  0  0  0  0  0
  190.5760  174.6240  134.8500 O   0  0  0  0  0  0  0  0  0  0  0  0
  193.5160  175.2670  137.7220 C   0  0  0  0  0  2  0  0  0  0  0  0
  187.7280  174.8070  137.1710 C   0  0  0  0  0  2  0  0  0  0  0  0
  189.7830  177.9240  137.7790 C   0  0  1  0  0  3  0  0  0  0  0  0
  192.8310  171.3340  136.1240 C   0  0  0  0  0  1  0  0  0  0  0  0
  188.3200  178.5070  141.5470 C   0  0  0  0  0  3  0  0  0  0  0  0
  187.1160  178.1440  135.8200 C   0  0  0  0  0  2  0  0  0  0  0  0
  191.0730  177.5620  140.7270 C   0  0  0  0  0  2  0  0  0  0  0  0
  192.7190  177.4400  138.2570 O   0  0  0  0  0  0  0  0  0  0  0  0
  188.3800  178.9750  135.9950 C   0  0  0  0  0  2  0  0  0  0  0  0
  188.1760  176.1220  136.7320 N   0  0  1  0  0  0  0  0  0  0  0  0
  189.6340  173.4030  136.6030 N   0  0  0  0  0  2  0  0  0  0  0  0
  187.7590  178.3540  140.3520 C   0  0  0  0  0  3  0  0  0  0  0  0
  194.1800  173.1750  135.4250 O   0  0  0  0  0  0  0  0  0  0  0  0
  191.0690  176.4450  143.0120 C   0  0  0  0  0  0  0  0  0  0  0  0
  190.3740  175.2650  142.8110 F   0  0  0  0  0  0  0  0  0  0  0  0
  190.9720  176.8020  144.3440 F   0  0  0  0  0  0  0  0  0  0  0  0
  192.4020  176.2490  142.6990 F   0  0  0  0  0  0  0  0  0  0  0  0
  187.4120  172.4650  136.3950 C   0  0  0  0  0  2  0  0  0  0  0  0
  185.9570  172.7680  136.1900 C   0  0  0  0  0  0  0  0  0  0  0  0
  185.5740  173.1740  135.1030 O   0  0  0  0  0  0  0  0  0  0  0  0
  183.8330  171.6860  136.8580 C   0  0  0  0  0  1  0  0  0  0  0  0
  184.4380  173.8240  137.7070 O   0  0  0  0  0  1  0  0  0  0  0  0
  184.9630  172.5950  137.3020 C   0  0  2  0  0  3  0  0  0  0  0  0
  1  4  1  0  0  0  0
  1 18  1  1  0  0  0
  3 29  1  0  0  0  0
  4 10  1  6  0  0  0
  5 20  1  0  0  0  0
  5 12  1  0  0  0  0
  6 13  1  0  0  0  0
  7  6  1  0  0  0  0
  8 20  1  0  0  0  0
  9  1  1  0  0  0  0
 10 28  1  0  0  0  0
 11 21  1  0  0  0  0
 11  4  1  0  0  0  0
 12  3  1  0  0  0  0
 12 13  1  0  0  0  0
 13 24  1  0  0  0  0
 14 31  1  0  0  0  0
 15 14  1  0  0  0  0
 16 35  1  0  0  0  0
 16 28  1  0  0  0  0
 16 19  1  0  0  0  0
 17 10  2  0  0  0  0
 18  7  1  0  0  0  0
 20 12  1  0  0  0  0
 22 15  1  0  0  0  0
 23 26  1  0  0  0  0
 23  2  1  0  0  0  0
 24 14  1  0  0  0  0
 25  7  2  0  0  0  0
 26  8  1  0  0  0  0
 27  2  1  0  0  0  0
 27 19  1  0  0  0  0
 27  5  1  0  0  0  0
 29 22  2  0  0  0  0
 30  9  1  0  0  0  0
 30 11  1  0  0  0  0
 31 33  1  0  0  0  0
 32 31  1  0  0  0  0
 34 31  1  0  0  0  0
 36 35  1  0  0  0  0
 36 40  1  0  0  0  0
 37 36  2  0  0  0  0
 38 40  1  0  0  0  0
 40 39  1  0  0  0  0
M  END
>  <MODEL>
2

>  <REMARK>
 VINA RESULT:      -6.5      4.379      8.853
  Name = 
  4 active torsions:
  status: ('A' for Active; 'I' for Inactive)
    1  A    between atoms: C_6  and  C_7
    2  A    between atoms: C_6  and  C_22
    3  A    between atoms: C_7  and  C_21
    4  A    between atoms: C_13  and  C_19
                            x       y       z     vdW  Elec       q    Type
                         _______ _______ _______ _____ _____    ______ ____

>  <TORSDO>
F 4

$$$$
=
 OpenBabel11062417593D

 40 44  0  0  1  0  0  0  0  0999 V2000
  185.5930  177.7240  137.2370 C   0  0  2  0  0  3  0  0  0  0  0  0
  179.3940  177.5780  138.6340 C   0  0  0  0  0  2  0  0  0  0  0  0
  180.5810  178.0330  141.1820 C   0  0  0  0  0  2  0  0  0  0  0  0
  185.2330  176.2780  137.3920 C   0  0  1  0  0  3  0  0  0  0  0  0
  181.9050  177.9160  138.9110 C   0  0  2  0  0  3  0  0  0  0  0  0
  184.3330  177.9530  140.2880 N   0  0  0  0  0  2  0  0  0  0  0  0
  185.0290  178.8170  139.3810 C   0  0  0  0  0  0  0  0  0  0  0  0
  180.3900  180.1050  139.0730 C   0  0  0  0  0  2  0  0  0  0  0  0
  186.6310  177.7670  136.2170 N   0  0  0  0  0  2  0  0  0  0  0  0
  183.7910  176.0280  137.0830 C   0  0  0  0  0  0  0  0  0  0  0  0
  186.1170  175.6260  136.3700 C   0  0  2  0  0  3  0  0  0  0  0  0
  181.8350  178.4070  140.3690 C   0  0  2  0  0  0  0  0  0  0  0  0
  183.1900  178.3410  141.1190 C   0  0  2  0  0  3  0  0  0  0  0  0
  183.1550  179.4150  143.4270 C   0  0  2  0  0  3  0  0  0  0  0  0
  181.8690  178.8320  143.5850 O   0  0  0  0  0  0  0  0  0  0  0  0
  181.6210  174.9280  137.7610 C   0  0  1  0  0  3  0  0  0  0  0  0
  183.2400  176.5770  136.0880 O   0  0  0  0  0  0  0  0  0  0  0  0
  186.1370  178.2740  138.5460 C   0  0  0  0  0  2  0  0  0  0  0  0
  180.8740  175.7720  138.7870 C   0  0  0  0  0  2  0  0  0  0  0  0
  181.7530  179.4270  139.2140 C   0  0  1  0  0  3  0  0  0  0  0  0
  186.6730  174.3290  136.9210 C   0  0  0  0  0  1  0  0  0  0  0  0
  180.7290  179.5120  143.1670 C   0  0  0  0  0  3  0  0  0  0  0  0
  178.9320  178.6490  137.6530 C   0  0  0  0  0  2  0  0  0  0  0  0
  183.4920  179.5970  141.9400 C   0  0  0  0  0  2  0  0  0  0  0  0
  184.7050  180.0290  139.2630 O   0  0  0  0  0  0  0  0  0  0  0  0
  179.8290  179.8790  137.6800 C   0  0  0  0  0  2  0  0  0  0  0  0
  180.7590  177.1530  138.3370 N   0  0  1  0  0  0  0  0  0  0  0  0
  183.0530  175.1300  137.9120 N   0  0  0  0  0  2  0  0  0  0  0  0
  180.0960  179.1500  142.0570 C   0  0  0  0  0  3  0  0  0  0  0  0
  187.1670  176.5180  136.1080 O   0  0  0  0  0  0  0  0  0  0  0  0
  184.2090  178.5900  144.1620 C   0  0  0  0  0  0  0  0  0  0  0  0
  184.6460  177.5410  143.3730 F   0  0  0  0  0  0  0  0  0  0  0  0
  183.6590  178.0800  145.3240 F   0  0  0  0  0  0  0  0  0  0  0  0
  185.2860  179.3910  144.4950 F   0  0  0  0  0  0  0  0  0  0  0  0
  181.3030  173.4580  137.9810 C   0  0  0  0  0  2  0  0  0  0  0  0
  181.6350  172.6450  136.7640 C   0  0  0  0  0  0  0  0  0  0  0  0
  181.2000  172.9860  135.6750 O   0  0  0  0  0  0  0  0  0  0  0  0
  183.9510  171.7850  136.9360 C   0  0  0  0  0  1  0  0  0  0  0  0
  182.2740  170.5630  135.7720 O   0  0  0  0  0  1  0  0  0  0  0  0
  182.4830  171.4090  136.8630 C   0  0  2  0  0  3  0  0  0  0  0  0
  1  4  1  0  0  0  0
  1 18  1  1  0  0  0
  3 29  1  0  0  0  0
  4 10  1  6  0  0  0
  5 20  1  0  0  0  0
  5 12  1  0  0  0  0
  6 13  1  0  0  0  0
  7  6  1  0  0  0  0
  8 20  1  0  0  0  0
  9  1  1  0  0  0  0
 10 28  1  0  0  0  0
 11 21  1  0  0  0  0
 11  4  1  0  0  0  0
 12 13  1  0  0  0  0
 12  3  1  0  0  0  0
 13 24  1  0  0  0  0
 14 15  1  0  0  0  0
 14 31  1  0  0  0  0
 16 28  1  0  0  0  0
 16 35  1  0  0  0  0
 16 19  1  0  0  0  0
 17 10  2  0  0  0  0
 18  7  1  0  0  0  0
 20 12  1  0  0  0  0
 22 15  1  0  0  0  0
 23 26  1  0  0  0  0
 23  2  1  0  0  0  0
 24 14  1  0  0  0  0
 25  7  2  0  0  0  0
 26  8  1  0  0  0  0
 27  2  1  0  0  0  0
 27 19  1  0  0  0  0
 27  5  1  0  0  0  0
 29 22  2  0  0  0  0
 30  9  1  0  0  0  0
 30 11  1  0  0  0  0
 31 34  1  0  0  0  0
 31 33  1  0  0  0  0
 32 31  1  0  0  0  0
 36 40  1  0  0  0  0
 36 35  1  0  0  0  0
 37 36  2  0  0  0  0
 39 40  1  0  0  0  0
 40 38  1  0  0  0  0
M  END
>  <MODEL>
3

>  <REMARK>
 VINA RESULT:      -6.4      3.442      8.005
  Name = 
  4 active torsions:
  status: ('A' for Active; 'I' for Inactive)
    1  A    between atoms: C_6  and  C_7
    2  A    between atoms: C_6  and  C_22
    3  A    between atoms: C_7  and  C_21
    4  A    between atoms: C_13  and  C_19
                            x       y       z     vdW  Elec       q    Type
                         _______ _______ _______ _____ _____    ______ ____

>  <TORSDO>
F 4

$$$$
=
 OpenBabel11062417593D

 40 44  0  0  1  0  0  0  0  0999 V2000
  187.6190  176.9120  136.0490 C   0  0  2  0  0  3  0  0  0  0  0  0
  181.4040  175.7360  136.6760 C   0  0  0  0  0  2  0  0  0  0  0  0
  182.0460  176.9620  139.1650 C   0  0  0  0  0  2  0  0  0  0  0  0
  187.5070  175.4880  136.5020 C   0  0  1  0  0  3  0  0  0  0  0  0
  183.7310  176.6550  137.1670 C   0  0  2  0  0  3  0  0  0  0  0  0
  185.8470  177.5030  138.7790 N   0  0  0  0  0  2  0  0  0  0  0  0
  186.5160  178.2850  137.7820 C   0  0  0  0  0  0  0  0  0  0  0  0
  181.8380  178.4520  136.6120 C   0  0  0  0  0  2  0  0  0  0  0  0
  188.7880  176.9600  135.1820 N   0  0  0  0  0  2  0  0  0  0  0  0
  186.2060  174.8740  136.0890 C   0  0  0  0  0  0  0  0  0  0  0  0
  188.6530  174.8400  135.7810 C   0  0  2  0  0  3  0  0  0  0  0  0
  183.3300  177.4160  138.4440 C   0  0  2  0  0  0  0  0  0  0  0  0
  184.5290  177.8030  139.3470 C   0  0  2  0  0  3  0  0  0  0  0  0
  183.9140  179.3070  141.3070 C   0  0  2  0  0  3  0  0  0  0  0  0
  182.7470  178.5080  141.4430 O   0  0  0  0  0  0  0  0  0  0  0  0
  184.1880  173.5030  136.7430 C   0  0  1  0  0  3  0  0  0  0  0  0
  185.7400  175.0700  134.9330 O   0  0  0  0  0  0  0  0  0  0  0  0
  187.8280  177.8290  137.2430 C   0  0  0  0  0  2  0  0  0  0  0  0
  183.1410  174.3640  137.4380 C   0  0  0  0  0  2  0  0  0  0  0  0
  183.2580  178.1280  137.0770 C   0  0  1  0  0  3  0  0  0  0  0  0
  189.3340  173.8390  136.6920 C   0  0  0  0  0  1  0  0  0  0  0  0
  181.5890  178.8230  140.7390 C   0  0  0  0  0  3  0  0  0  0  0  0
  180.9270  176.4510  135.4180 C   0  0  0  0  0  2  0  0  0  0  0  0
  184.4560  179.2380  139.8730 C   0  0  0  0  0  2  0  0  0  0  0  0
  186.0020  179.3460  137.3380 O   0  0  0  0  0  0  0  0  0  0  0  0
  181.5690  177.8220  135.2570 C   0  0  0  0  0  2  0  0  0  0  0  0
  182.8540  175.5610  136.6590 N   0  0  1  0  0  0  0  0  0  0  0  0
  185.5140  174.0340  137.0140 N   0  0  0  0  0  2  0  0  0  0  0  0
  181.2270  178.1070  139.6800 C   0  0  0  0  0  3  0  0  0  0  0  0
  189.5520  175.8610  135.4420 O   0  0  0  0  0  0  0  0  0  0  0  0
  184.9620  178.9020  142.3420 C   0  0  0  0  0  0  0  0  0  0  0  0
  186.2390  179.0630  141.8340 F   0  0  0  0  0  0  0  0  0  0  0  0
  184.7780  177.5730  142.6810 F   0  0  0  0  0  0  0  0  0  0  0  0
  184.8220  179.6740  143.4800 F   0  0  0  0  0  0  0  0  0  0  0  0
  184.1110  172.0790  137.2700 C   0  0  0  0  0  2  0  0  0  0  0  0
  183.5040  171.1580  136.2520 C   0  0  0  0  0  0  0  0  0  0  0  0
  184.2330  170.5020  135.5240 O   0  0  0  0  0  0  0  0  0  0  0  0
  181.5380  171.8580  134.9200 C   0  0  0  0  0  1  0  0  0  0  0  0
  181.3540  171.4620  137.2580 O   0  0  0  0  0  1  0  0  0  0  0  0
  182.0150  171.0380  136.1030 C   0  0  2  0  0  3  0  0  0  0  0  0
  1  4  1  0  0  0  0
  1 18  1  1  0  0  0
  3 29  1  0  0  0  0
  4 10  1  6  0  0  0
  5 12  1  0  0  0  0
  6 13  1  0  0  0  0
  7  6  1  0  0  0  0
  8 20  1  0  0  0  0
  9 30  1  0  0  0  0
  9  1  1  0  0  0  0
 10 28  1  0  0  0  0
 11  4  1  0  0  0  0
 11 21  1  0  0  0  0
 12  3  1  0  0  0  0
 12 13  1  0  0  0  0
 13 24  1  0  0  0  0
 14 15  1  0  0  0  0
 14 31  1  0  0  0  0
 16 28  1  0  0  0  0
 16 35  1  0  0  0  0
 16 19  1  0  0  0  0
 17 10  2  0  0  0  0
 18  7  1  0  0  0  0
 20  5  1  0  0  0  0
 20 12  1  0  0  0  0
 22 15  1  0  0  0  0
 23  2  1  0  0  0  0
 24 14  1  0  0  0  0
 25  7  2  0  0  0  0
 26 23  1  0  0  0  0
 26  8  1  0  0  0  0
 27  2  1  0  0  0  0
 27  5  1  0  0  0  0
 27 19  1  0  0  0  0
 29 22  2  0  0  0  0
 30 11  1  0  0  0  0
 31 33  1  0  0  0  0
 31 34  1  0  0  0  0
 32 31  1  0  0  0  0
 36 35  1  0  0  0  0
 37 36  2  0  0  0  0
 38 40  1  0  0  0  0
 40 36  1  0  0  0  0
 40 39  1  0  0  0  0
M  END
>  <MODEL>
4

>  <REMARK>
 VINA RESULT:      -5.7      3.293      7.784
  Name = 
  4 active torsions:
  status: ('A' for Active; 'I' for Inactive)
    1  A    between atoms: C_6  and  C_7
    2  A    between atoms: C_6  and  C_22
    3  A    between atoms: C_7  and  C_21
    4  A    between atoms: C_13  and  C_19
                            x       y       z     vdW  Elec       q    Type
                         _______ _______ _______ _____ _____    ______ ____

>  <TORSDO>
F 4

$$$$
=
 OpenBabel11062417593D

 40 44  0  0  1  0  0  0  0  0999 V2000
  185.2730  178.7300  138.5370 C   0  0  2  0  0  3  0  0  0  0  0  0
  190.7380  176.0140  136.7600 C   0  0  0  0  0  2  0  0  0  0  0  0
  188.8660  173.8960  136.4160 C   0  0  0  0  0  2  0  0  0  0  0  0
  185.9370  178.2640  139.7960 C   0  0  1  0  0  3  0  0  0  0  0  0
  188.2380  176.3500  137.1320 C   0  0  2  0  0  3  0  0  0  0  0  0
  185.6130  175.5590  137.6570 N   0  0  0  0  0  2  0  0  0  0  0  0
  184.9750  176.7260  137.1220 C   0  0  0  0  0  0  0  0  0  0  0  0
  189.0540  176.2260  134.5950 C   0  0  0  0  0  2  0  0  0  0  0  0
  184.5530  179.9450  138.8940 N   0  0  0  0  0  2  0  0  0  0  0  0
  187.4250  178.2070  139.6520 C   0  0  0  0  0  0  0  0  0  0  0  0
  185.5380  179.3320  140.7720 C   0  0  2  0  0  3  0  0  0  0  0  0
  187.8080  175.0130  136.5000 C   0  0  2  0  0  0  0  0  0  0  0  0
  186.3690  174.5750  136.8770 C   0  0  2  0  0  3  0  0  0  0  0  0
  185.5410  172.5250  135.6150 C   0  0  2  0  0  3  0  0  0  0  0  0
  186.8500  171.9970  135.7870 O   0  0  0  0  0  0  0  0  0  0  0  0
  189.5570  176.9010  140.0100 C   0  0  1  0  0  3  0  0  0  0  0  0
  188.0520  179.1340  139.0690 O   0  0  0  0  0  0  0  0  0  0  0  0
  184.2920  177.6800  138.0400 C   0  0  0  0  0  2  0  0  0  0  0  0
  189.7770  175.8910  138.8910 C   0  0  0  0  0  2  0  0  0  0  0  0
  187.9190  176.2740  135.6180 C   0  0  1  0  0  3  0  0  0  0  0  0
  185.2090  178.7080  142.1130 C   0  0  0  0  0  1  0  0  0  0  0  0
  187.8460  172.2630  134.8530 C   0  0  0  0  0  3  0  0  0  0  0  0
  191.1460  177.0340  135.7050 C   0  0  0  0  0  2  0  0  0  0  0  0
  185.5600  174.0580  135.6860 C   0  0  0  0  0  2  0  0  0  0  0  0
  184.9990  176.9680  135.8860 O   0  0  0  0  0  0  0  0  0  0  0  0
  189.9890  177.4070  134.7880 C   0  0  0  0  0  2  0  0  0  0  0  0
  189.6480  176.5260  137.5870 N   0  0  1  0  0  0  0  0  0  0  0  0
  188.1310  177.1000  140.2140 N   0  0  0  0  0  2  0  0  0  0  0  0
  188.8120  173.1340  135.1260 C   0  0  0  0  0  3  0  0  0  0  0  0
  184.3980  179.9600  140.2490 O   0  0  0  0  0  0  0  0  0  0  0  0
  184.5810  171.9100  136.6310 C   0  0  0  0  0  0  0  0  0  0  0  0
  184.5550  170.5320  136.5070 F   0  0  0  0  0  0  0  0  0  0  0  0
  183.3070  172.4040  136.4110 F   0  0  0  0  0  0  0  0  0  0  0  0
  184.9730  172.2460  137.9140 F   0  0  0  0  0  0  0  0  0  0  0  0
  190.1710  176.3780  141.2980 C   0  0  0  0  0  2  0  0  0  0  0  0
  189.8790  177.2960  142.4490 C   0  0  0  0  0  0  0  0  0  0  0  0
  190.0920  178.4930  142.3320 O   0  0  0  0  0  0  0  0  0  0  0  0
  187.8850  176.3790  143.5950 C   0  0  0  0  0  1  0  0  0  0  0  0
  189.4660  177.7130  144.7680 O   0  0  0  0  0  1  0  0  0  0  0  0
  189.3430  176.7680  143.7480 C   0  0  2  0  0  3  0  0  0  0  0  0
  1 18  1  1  0  0  0
  1  9  1  0  0  0  0
  1  4  1  0  0  0  0
  2 27  1  0  0  0  0
  3 12  1  0  0  0  0
  4 10  1  6  0  0  0
  4 11  1  0  0  0  0
  5 27  1  0  0  0  0
  7  6  1  0  0  0  0
  7 18  1  0  0  0  0
  8 26  1  0  0  0  0
  8 20  1  0  0  0  0
  9 30  1  0  0  0  0
 10 28  1  0  0  0  0
 11 21  1  0  0  0  0
 12 13  1  0  0  0  0
 12  5  1  0  0  0  0
 13  6  1  0  0  0  0
 14 24  1  0  0  0  0
 14 15  1  0  0  0  0
 14 31  1  0  0  0  0
 16 28  1  0  0  0  0
 16 35  1  0  0  0  0
 17 10  2  0  0  0  0
 19 16  1  0  0  0  0
 20 12  1  0  0  0  0
 20  5  1  0  0  0  0
 22 29  2  0  0  0  0
 22 15  1  0  0  0  0
 23  2  1  0  0  0  0
 24 13  1  0  0  0  0
 25  7  2  0  0  0  0
 26 23  1  0  0  0  0
 27 19  1  0  0  0  0
 29  3  1  0  0  0  0
 30 11  1  0  0  0  0
 31 34  1  0  0  0  0
 32 31  1  0  0  0  0
 33 31  1  0  0  0  0
 35 36  1  0  0  0  0
 36 40  1  0  0  0  0
 37 36  2  0  0  0  0
 38 40  1  0  0  0  0
 40 39  1  0  0  0  0
M  END
>  <MODEL>
5

>  <REMARK>
 VINA RESULT:      -5.6      2.041      2.830
  Name = 
  4 active torsions:
  status: ('A' for Active; 'I' for Inactive)
    1  A    between atoms: C_6  and  C_7
    2  A    between atoms: C_6  and  C_22
    3  A    between atoms: C_7  and  C_21
    4  A    between atoms: C_13  and  C_19
                            x       y       z     vdW  Elec       q    Type
                         _______ _______ _______ _____ _____    ______ ____

>  <TORSDO>
F 4

$$$$
=
 OpenBabel11062417593D

 40 44  0  0  1  0  0  0  0  0999 V2000
  181.1620  180.5880  137.0630 C   0  0  2  0  0  3  0  0  0  0  0  0
  186.4280  177.2020  138.1610 C   0  0  0  0  0  2  0  0  0  0  0  0
  184.6030  175.2120  137.2540 C   0  0  0  0  0  2  0  0  0  0  0  0
  181.1580  180.2710  138.5270 C   0  0  1  0  0  3  0  0  0  0  0  0
  184.0800  177.7890  137.3600 C   0  0  2  0  0  3  0  0  0  0  0  0
  181.3980  177.3020  136.7590 N   0  0  0  0  0  2  0  0  0  0  0  0
  181.2160  178.4190  135.8800 C   0  0  0  0  0  0  0  0  0  0  0  0
  185.8680  177.2090  135.4680 C   0  0  0  0  0  2  0  0  0  0  0  0
  180.5360  181.8970  136.9380 N   0  0  0  0  0  2  0  0  0  0  0  0
  182.5420  180.0730  139.0580 C   0  0  0  0  0  0  0  0  0  0  0  0
  180.5360  181.5060  139.1110 C   0  0  2  0  0  3  0  0  0  0  0  0
  183.7760  176.4100  136.7470 C   0  0  2  0  0  0  0  0  0  0  0  0
  182.2680  176.1510  136.4980 C   0  0  2  0  0  3  0  0  0  0  0  0
  181.7770  174.0040  135.2240 C   0  0  2  0  0  3  0  0  0  0  0  0
  182.8010  173.4050  136.0070 O   0  0  0  0  0  0  0  0  0  0  0  0
  184.1170  178.6730  140.4500 C   0  0  1  0  0  3  0  0  0  0  0  0
  183.4800  180.8460  138.7150 O   0  0  0  0  0  0  0  0  0  0  0  0
  180.3490  179.5550  136.2990 C   0  0  0  0  0  2  0  0  0  0  0  0
  184.6470  177.4870  139.6540 C   0  0  0  0  0  2  0  0  0  0  0  0
  184.4260  177.5060  135.8770 C   0  0  1  0  0  3  0  0  0  0  0  0
  179.5860  181.1250  140.2290 C   0  0  0  0  0  1  0  0  0  0  0  0
  184.1260  173.4440  135.5830 C   0  0  0  0  0  3  0  0  0  0  0  0
  187.3830  178.0100  137.2920 C   0  0  0  0  0  2  0  0  0  0  0  0
  181.9770  175.5230  135.1340 C   0  0  0  0  0  2  0  0  0  0  0  0
  181.7950  178.4640  134.7620 O   0  0  0  0  0  0  0  0  0  0  0  0
  186.7880  178.3270  135.9260 C   0  0  0  0  0  2  0  0  0  0  0  0
  185.1730  177.9210  138.3670 N   0  0  1  0  0  0  0  0  0  0  0  0
  182.7820  179.0140  139.9850 N   0  0  0  0  0  2  0  0  0  0  0  0
  184.9960  174.2660  136.1600 C   0  0  0  0  0  3  0  0  0  0  0  0
  179.8250  182.1340  138.0790 O   0  0  0  0  0  0  0  0  0  0  0  0
  180.4010  173.6320  135.7730 C   0  0  0  0  0  0  0  0  0  0  0  0
  179.7740  172.7190  134.9430 F   0  0  0  0  0  0  0  0  0  0  0  0
  179.6210  174.7710  135.8570 F   0  0  0  0  0  0  0  0  0  0  0  0
  180.5290  173.0870  137.0370 F   0  0  0  0  0  0  0  0  0  0  0  0
  184.0470  178.3080  141.9240 C   0  0  0  0  0  2  0  0  0  0  0  0
  185.2670  178.7820  142.6570 C   0  0  0  0  0  0  0  0  0  0  0  0
  185.3120  179.9290  143.0750 O   0  0  0  0  0  0  0  0  0  0  0  0
  186.8260  177.8550  144.3430 C   0  0  0  0  0  1  0  0  0  0  0  0
  187.5430  178.2790  142.1150 O   0  0  0  0  0  1  0  0  0  0  0  0
  186.4440  177.8740  142.8750 C   0  0  2  0  0  3  0  0  0  0  0  0
  1 18  1  6  0  0  0
  1  4  1  0  0  0  0
  2 27  1  0  0  0  0
  4 10  1  1  0  0  0
  4 11  1  0  0  0  0
  5 27  1  0  0  0  0
  7 18  1  0  0  0  0
  7  6  1  0  0  0  0
  8 20  1  0  0  0  0
  8 26  1  0  0  0  0
  9  1  1  0  0  0  0
  9 30  1  0  0  0  0
 10 28  1  0  0  0  0
 11 21  1  0  0  0  0
 12  3  1  0  0  0  0
 12  5  1  0  0  0  0
 13 12  1  0  0  0  0
 13  6  1  0  0  0  0
 14 31  1  0  0  0  0
 14 15  1  0  0  0  0
 16 35  1  0  0  0  0
 17 10  2  0  0  0  0
 19 16  1  0  0  0  0
 20 12  1  0  0  0  0
 20  5  1  0  0  0  0
 22 15  1  0  0  0  0
 22 29  2  0  0  0  0
 23  2  1  0  0  0  0
 24 14  1  0  0  0  0
 24 13  1  0  0  0  0
 25  7  2  0  0  0  0
 26 23  1  0  0  0  0
 27 19  1  0  0  0  0
 28 16  1  0  0  0  0
 29  3  1  0  0  0  0
 30 11  1  0  0  0  0
 31 33  1  0  0  0  0
 31 34  1  0  0  0  0
 32 31  1  0  0  0  0
 35 36  1  0  0  0  0
 36 40  1  0  0  0  0
 36 37  2  0  0  0  0
 39 40  1  0  0  0  0
 40 38  1  0  0  0  0
M  END
>  <MODEL>
6

>  <REMARK>
 VINA RESULT:      -5.6      2.143      2.778
  Name = 
  4 active torsions:
  status: ('A' for Active; 'I' for Inactive)
    1  A    between atoms: C_6  and  C_7
    2  A    between atoms: C_6  and  C_22
    3  A    between atoms: C_7  and  C_21
    4  A    between atoms: C_13  and  C_19
                            x       y       z     vdW  Elec       q    Type
                         _______ _______ _______ _____ _____    ______ ____

>  <TORSDO>
F 4

$$$$
=
 OpenBabel11062417593D

 40 44  0  0  1  0  0  0  0  0999 V2000
  185.8460  177.8510  137.3840 C   0  0  2  0  0  3  0  0  0  0  0  0
  179.7320  178.5600  135.7980 C   0  0  0  0  0  2  0  0  0  0  0  0
  179.6430  178.7070  138.6410 C   0  0  0  0  0  2  0  0  0  0  0  0
  185.3000  176.4690  137.1950 C   0  0  1  0  0  3  0  0  0  0  0  0
  181.8480  178.5060  137.2180 C   0  0  2  0  0  3  0  0  0  0  0  0
  183.3490  178.1130  139.5390 N   0  0  0  0  0  2  0  0  0  0  0  0
  184.4760  178.9080  139.1480 C   0  0  0  0  0  0  0  0  0  0  0  0
  180.6800  180.8860  136.9220 C   0  0  0  0  0  2  0  0  0  0  0  0
  187.2370  177.7900  136.9560 N   0  0  0  0  0  2  0  0  0  0  0  0
  184.1480  176.4510  136.2410 C   0  0  0  0  0  0  0  0  0  0  0  0
  186.4800  175.7440  136.6180 C   0  0  2  0  0  3  0  0  0  0  0  0
  181.1650  178.9290  138.5310 C   0  0  2  0  0  0  0  0  0  0  0  0
  182.0000  178.6260  139.8010 C   0  0  2  0  0  3  0  0  0  0  0  0
  181.0170  179.5780  141.9470 C   0  0  2  0  0  3  0  0  0  0  0  0
  179.7490  179.1850  141.4390 O   0  0  0  0  0  0  0  0  0  0  0  0
  181.8050  175.6550  135.7350 C   0  0  1  0  0  3  0  0  0  0  0  0
  184.1850  177.1250  135.1740 O   0  0  0  0  0  0  0  0  0  0  0  0
  185.7770  178.2480  138.8500 C   0  0  0  0  0  2  0  0  0  0  0  0
  180.7650  176.5490  136.4010 C   0  0  0  0  0  2  0  0  0  0  0  0
  181.7380  180.0060  137.5870 C   0  0  1  0  0  3  0  0  0  0  0  0
  186.5710  174.3530  137.2120 C   0  0  0  0  0  1  0  0  0  0  0  0
  179.0150  180.0470  140.6300 C   0  0  0  0  0  3  0  0  0  0  0  0
  179.8970  179.7350  134.8420 C   0  0  0  0  0  2  0  0  0  0  0  0
  182.0220  179.7800  140.8050 C   0  0  0  0  0  2  0  0  0  0  0  0
  184.3770  180.1590  139.0340 O   0  0  0  0  0  0  0  0  0  0  0  0
  180.8080  180.8150  135.4100 C   0  0  0  0  0  2  0  0  0  0  0  0
  181.0230  177.9510  136.1060 N   0  0  1  0  0  0  0  0  0  0  0  0
  183.0160  175.6330  136.5400 N   0  0  0  0  0  2  0  0  0  0  0  0
  178.9330  179.8380  139.3210 C   0  0  0  0  0  3  0  0  0  0  0  0
  187.6220  176.4810  136.9610 O   0  0  0  0  0  0  0  0  0  0  0  0
  181.5130  178.5690  142.9820 C   0  0  0  0  0  0  0  0  0  0  0  0
  182.8830  178.4020  142.8840 F   0  0  0  0  0  0  0  0  0  0  0  0
  180.8940  177.3520  142.7640 F   0  0  0  0  0  0  0  0  0  0  0  0
  181.1970  179.0080  144.2550 F   0  0  0  0  0  0  0  0  0  0  0  0
  181.2630  174.2400  135.6210 C   0  0  0  0  0  2  0  0  0  0  0  0
  181.4890  173.4700  136.8890 C   0  0  0  0  0  0  0  0  0  0  0  0
  181.1820  173.9700  137.9600 O   0  0  0  0  0  0  0  0  0  0  0  0
  183.6120  172.1970  136.8530 C   0  0  0  0  0  1  0  0  0  0  0  0
  181.6720  171.3710  135.7530 O   0  0  0  0  0  1  0  0  0  0  0  0
  182.0990  172.0980  136.8670 C   0  0  2  0  0  3  0  0  0  0  0  0
  1 18  1  1  0  0  0
  2 27  1  0  0  0  0
  3 29  1  0  0  0  0
  4 10  1  6  0  0  0
  4  1  1  0  0  0  0
  5 20  1  0  0  0  0
  5 12  1  0  0  0  0
  6 13  1  0  0  0  0
  7  6  1  0  0  0  0
  8 20  1  0  0  0  0
  9 30  1  0  0  0  0
  9  1  1  0  0  0  0
 10 28  1  0  0  0  0
 11 30  1  0  0  0  0
 11  4  1  0  0  0  0
 11 21  1  0  0  0  0
 12  3  1  0  0  0  0
 12 13  1  0  0  0  0
 13 24  1  0  0  0  0
 14 31  1  0  0  0  0
 15 14  1  0  0  0  0
 16 19  1  0  0  0  0
 16 28  1  0  0  0  0
 17 10  2  0  0  0  0
 18  7  1  0  0  0  0
 20 12  1  0  0  0  0
 22 15  1  0  0  0  0
 23 26  1  0  0  0  0
 23  2  1  0  0  0  0
 24 14  1  0  0  0  0
 25  7  2  0  0  0  0
 26  8  1  0  0  0  0
 27 19  1  0  0  0  0
 27  5  1  0  0  0  0
 29 22  2  0  0  0  0
 31 34  1  0  0  0  0
 32 31  1  0  0  0  0
 33 31  1  0  0  0  0
 35 16  1  0  0  0  0
 35 36  1  0  0  0  0
 36 37  2  0  0  0  0
 38 40  1  0  0  0  0
 39 40  1  0  0  0  0
 40 36  1  0  0  0  0
M  END
>  <MODEL>
7

>  <REMARK>
 VINA RESULT:      -5.3      3.500      7.896
  Name = 
  4 active torsions:
  status: ('A' for Active; 'I' for Inactive)
    1  A    between atoms: C_6  and  C_7
    2  A    between atoms: C_6  and  C_22
    3  A    between atoms: C_7  and  C_21
    4  A    between atoms: C_13  and  C_19
                            x       y       z     vdW  Elec       q    Type
                         _______ _______ _______ _____ _____    ______ ____

>  <TORSDO>
F 4

$$$$
=
 OpenBabel11062417593D

 40 44  0  0  1  0  0  0  0  0999 V2000
  182.4970  178.4840  139.4230 C   0  0  2  0  0  3  0  0  0  0  0  0
  188.3910  178.0640  137.0820 C   0  0  0  0  0  2  0  0  0  0  0  0
  187.3910  175.4270  136.6890 C   0  0  0  0  0  2  0  0  0  0  0  0
  183.3950  178.2310  140.5950 C   0  0  1  0  0  3  0  0  0  0  0  0
  185.9840  177.4370  137.6410 C   0  0  2  0  0  3  0  0  0  0  0  0
  183.8820  175.7110  138.2690 N   0  0  0  0  0  2  0  0  0  0  0  0
  182.8190  176.5870  137.8730 C   0  0  0  0  0  0  0  0  0  0  0  0
  186.5580  177.7530  135.0540 C   0  0  0  0  0  2  0  0  0  0  0  0
  181.4210  179.3290  139.9240 N   0  0  0  0  0  2  0  0  0  0  0  0
  184.7830  178.7320  140.3510 C   0  0  0  0  0  0  0  0  0  0  0  0
  182.7260  179.0250  141.6780 C   0  0  2  0  0  3  0  0  0  0  0  0
  186.0120  176.0700  136.9320 C   0  0  2  0  0  0  0  0  0  0  0  0
  184.8700  175.1150  137.3640 C   0  0  2  0  0  3  0  0  0  0  0  0
  184.7310  172.9730  135.9960 C   0  0  2  0  0  3  0  0  0  0  0  0
  186.1520  172.9540  136.0400 O   0  0  0  0  0  0  0  0  0  0  0  0
  187.2660  178.2850  140.4630 C   0  0  1  0  0  3  0  0  0  0  0  0
  184.9760  179.8540  139.8050 O   0  0  0  0  0  0  0  0  0  0  0  0
  181.9230  177.1750  138.9070 C   0  0  0  0  0  2  0  0  0  0  0  0
  187.7360  177.4850  139.2530 C   0  0  0  0  0  2  0  0  0  0  0  0
  185.5790  177.3280  136.1500 C   0  0  1  0  0  3  0  0  0  0  0  0
  182.7670  178.2550  142.9830 C   0  0  0  0  0  1  0  0  0  0  0  0
  186.8960  173.6170  135.0680 C   0  0  0  0  0  3  0  0  0  0  0  0
  188.3050  179.2160  136.0890 C   0  0  0  0  0  2  0  0  0  0  0  0
  184.1990  174.3990  136.1900 C   0  0  0  0  0  2  0  0  0  0  0  0
  182.6430  176.8850  136.6620 O   0  0  0  0  0  0  0  0  0  0  0  0
  187.0150  179.1840  135.2810 C   0  0  0  0  0  2  0  0  0  0  0  0
  187.2680  178.0950  138.0160 N   0  0  1  0  0  0  0  0  0  0  0  0
  185.8900  177.9350  140.7740 N   0  0  0  0  0  2  0  0  0  0  0  0
  187.5010  174.7660  135.3480 C   0  0  0  0  0  3  0  0  0  0  0  0
  181.3940  179.2160  141.2830 O   0  0  0  0  0  0  0  0  0  0  0  0
  184.1540  171.9960  137.0190 C   0  0  0  0  0  0  0  0  0  0  0  0
  184.8910  172.0230  138.1900 F   0  0  0  0  0  0  0  0  0  0  0  0
  184.1880  170.7160  136.4970 F   0  0  0  0  0  0  0  0  0  0  0  0
  182.8410  172.3280  137.2990 F   0  0  0  0  0  0  0  0  0  0  0  0
  188.1410  177.9580  141.6620 C   0  0  0  0  0  2  0  0  0  0  0  0
  187.3230  177.8470  142.9150 C   0  0  0  0  0  0  0  0  0  0  0  0
  186.4220  178.6460  143.1180 O   0  0  0  0  0  0  0  0  0  0  0  0
  188.7100  177.2190  144.8670 C   0  0  0  0  0  1  0  0  0  0  0  0
  187.9620  175.5770  143.3180 O   0  0  0  0  0  1  0  0  0  0  0  0
  187.6010  176.7780  143.9320 C   0  0  2  0  0  3  0  0  0  0  0  0
  1 18  1  1  0  0  0
  1  9  1  0  0  0  0
  1  4  1  0  0  0  0
  2 27  1  0  0  0  0
  3 12  1  0  0  0  0
  4 10  1  6  0  0  0
  4 11  1  0  0  0  0
  5 27  1  0  0  0  0
  7  6  1  0  0  0  0
  7 18  1  0  0  0  0
  8 26  1  0  0  0  0
  8 20  1  0  0  0  0
  9 30  1  0  0  0  0
 10 28  1  0  0  0  0
 11 21  1  0  0  0  0
 12 13  1  0  0  0  0
 12  5  1  0  0  0  0
 13  6  1  0  0  0  0
 14 15  1  0  0  0  0
 14 24  1  0  0  0  0
 14 31  1  0  0  0  0
 16 28  1  0  0  0  0
 16 35  1  0  0  0  0
 17 10  2  0  0  0  0
 19 16  1  0  0  0  0
 20 12  1  0  0  0  0
 20  5  1  0  0  0  0
 22 29  2  0  0  0  0
 22 15  1  0  0  0  0
 23  2  1  0  0  0  0
 24 13  1  0  0  0  0
 25  7  2  0  0  0  0
 26 23  1  0  0  0  0
 27 19  1  0  0  0  0
 29  3  1  0  0  0  0
 30 11  1  0  0  0  0
 31 34  1  0  0  0  0
 31 32  1  0  0  0  0
 33 31  1  0  0  0  0
 35 36  1  0  0  0  0
 36 37  2  0  0  0  0
 36 40  1  0  0  0  0
 39 40  1  0  0  0  0
 40 38  1  0  0  0  0
M  END
>  <MODEL>
8

>  <REMARK>
 VINA RESULT:      -4.9      1.289      1.544
  Name = 
  4 active torsions:
  status: ('A' for Active; 'I' for Inactive)
    1  A    between atoms: C_6  and  C_7
    2  A    between atoms: C_6  and  C_22
    3  A    between atoms: C_7  and  C_21
    4  A    between atoms: C_13  and  C_19
                            x       y       z     vdW  Elec       q    Type
                         _______ _______ _______ _____ _____    ______ ____

>  <TORSDO>
F 4

$$$$
=
 OpenBabel11062417593D

 40 44  0  0  1  0  0  0  0  0999 V2000
  180.8920  178.2680  140.4530 C   0  0  2  0  0  3  0  0  0  0  0  0
  180.7490  175.8070  134.5940 C   0  0  0  0  0  2  0  0  0  0  0  0
  183.4940  176.5050  134.8940 C   0  0  0  0  0  2  0  0  0  0  0  0
  180.4580  179.3770  139.5440 C   0  0  1  0  0  3  0  0  0  0  0  0
  181.6720  176.7430  136.7790 C   0  0  2  0  0  3  0  0  0  0  0  0
  183.4780  178.1290  138.3940 N   0  0  0  0  0  2  0  0  0  0  0  0
  183.0990  177.5170  139.6340 C   0  0  0  0  0  0  0  0  0  0  0  0
  182.2360  174.1890  136.2490 C   0  0  0  0  0  2  0  0  0  0  0  0
  180.2040  178.4980  141.7160 N   0  0  0  0  0  2  0  0  0  0  0  0
  179.7710  178.8570  138.3200 C   0  0  0  0  0  0  0  0  0  0  0  0
  179.4960  180.1330  140.4130 C   0  0  2  0  0  3  0  0  0  0  0  0
  183.1560  176.5950  136.3950 C   0  0  2  0  0  0  0  0  0  0  0  0
  184.1180  177.4390  137.2700 C   0  0  2  0  0  3  0  0  0  0  0  0
  186.5850  176.9840  136.8400 C   0  0  2  0  0  3  0  0  0  0  0  0
  186.2460  176.9220  135.4610 O   0  0  0  0  0  0  0  0  0  0  0  0
  179.5340  178.9370  135.8070 C   0  0  1  0  0  3  0  0  0  0  0  0
  178.9310  177.9190  138.4030 O   0  0  0  0  0  0  0  0  0  0  0  0
  182.3950  178.3230  140.6700 C   0  0  0  0  0  2  0  0  0  0  0  0
  180.5970  178.0810  135.1280 C   0  0  0  0  0  2  0  0  0  0  0  0
  182.4330  175.4360  137.1120 C   0  0  1  0  0  3  0  0  0  0  0  0
  179.6780  181.6240  140.2070 C   0  0  0  0  0  1  0  0  0  0  0  0
  185.8460  175.7190  134.8870 C   0  0  0  0  0  3  0  0  0  0  0  0
  180.1180  174.4660  134.9450 C   0  0  0  0  0  2  0  0  0  0  0  0
  185.3640  176.6720  137.7160 C   0  0  0  0  0  2  0  0  0  0  0  0
  183.3360  176.3000  139.8550 O   0  0  0  0  0  0  0  0  0  0  0  0
  180.7630  173.8300  136.1690 C   0  0  0  0  0  2  0  0  0  0  0  0
  180.6340  176.7450  135.7080 N   0  0  1  0  0  0  0  0  0  0  0  0
  180.0580  179.4610  137.0590 N   0  0  0  0  0  2  0  0  0  0  0  0
  184.5680  175.5030  134.5940 C   0  0  0  0  0  3  0  0  0  0  0  0
  179.7940  179.7990  141.7410 O   0  0  0  0  0  0  0  0  0  0  0  0
  187.2070  178.3390  137.1750 C   0  0  0  0  0  0  0  0  0  0  0  0
  186.8550  179.2850  136.2290 F   0  0  0  0  0  0  0  0  0  0  0  0
  188.5840  178.2150  137.1970 F   0  0  0  0  0  0  0  0  0  0  0  0
  186.7780  178.7590  138.4210 F   0  0  0  0  0  0  0  0  0  0  0  0
  179.1610  180.1000  134.9030 C   0  0  0  0  0  2  0  0  0  0  0  0
  180.0800  181.2680  135.1160 C   0  0  0  0  0  0  0  0  0  0  0  0
  181.1840  181.2680  134.5950 O   0  0  0  0  0  0  0  0  0  0  0  0
  179.1800  183.5740  135.1030 C   0  0  0  0  0  1  0  0  0  0  0  0
  180.7320  182.8760  136.7640 O   0  0  0  0  0  1  0  0  0  0  0  0
  179.6710  182.4320  135.9720 C   0  0  2  0  0  3  0  0  0  0  0  0
  1 18  1  1  0  0  0
  1  9  1  0  0  0  0
  2 23  1  0  0  0  0
  2 27  1  0  0  0  0
  3 12  1  0  0  0  0
  4 10  1  6  0  0  0
  4 11  1  0  0  0  0
  4  1  1  0  0  0  0
  5 20  1  0  0  0  0
  6  7  1  0  0  0  0
  7 25  2  0  0  0  0
  7 18  1  0  0  0  0
  8 20  1  0  0  0  0
  9 30  1  0  0  0  0
 10 17  2  0  0  0  0
 11 30  1  0  0  0  0
 12  5  1  0  0  0  0
 12 20  1  0  0  0  0
 12 13  1  0  0  0  0
 13 24  1  0  0  0  0
 13  6  1  0  0  0  0
 14 31  1  0  0  0  0
 14 24  1  0  0  0  0
 15 14  1  0  0  0  0
 16 28  1  0  0  0  0
 19 27  1  0  0  0  0
 19 16  1  0  0  0  0
 21 11  1  0  0  0  0
 22 15  1  0  0  0  0
 23 26  1  0  0  0  0
 26  8  1  0  0  0  0
 27  5  1  0  0  0  0
 28 10  1  0  0  0  0
 29 22  2  0  0  0  0
 29  3  1  0  0  0  0
 31 33  1  0  0  0  0
 31 34  1  0  0  0  0
 32 31  1  0  0  0  0
 35 36  1  0  0  0  0
 35 16  1  0  0  0  0
 36 40  1  0  0  0  0
 37 36  2  0  0  0  0
 38 40  1  0  0  0  0
 40 39  1  0  0  0  0
M  END
>  <MODEL>
9

>  <REMARK>
 VINA RESULT:      -4.6      3.706      6.951
  Name = 
  4 active torsions:
  status: ('A' for Active; 'I' for Inactive)
    1  A    between atoms: C_6  and  C_7
    2  A    between atoms: C_6  and  C_22
    3  A    between atoms: C_7  and  C_21
    4  A    between atoms: C_13  and  C_19
                            x       y       z     vdW  Elec       q    Type
                         _______ _______ _______ _____ _____    ______ ____

>  <TORSDO>
F 4

$$$$
