=
 OpenBabel11062414323D

 31 36  0  0  1  0  0  0  0  0999 V2000
  188.1410  178.1330  141.0940 C   0  0  0  0  0  3  0  0  0  0  0  0
  189.8860  177.3300  143.1390 C   0  0  0  0  0  0  0  0  0  0  0  0
  188.5040  177.4890  143.4100 C   0  0  0  0  0  0  0  0  0  0  0  0
  184.5870  178.8130  144.5040 C   0  0  0  0  0  3  0  0  0  0  0  0
  187.9400  177.0540  144.7350 C   0  0  0  0  0  2  0  0  0  0  0  0
  185.8090  178.2500  144.1030 C   0  0  0  0  0  0  0  0  0  0  0  0
  186.3410  177.9000  146.4440 C   0  0  0  0  0  3  0  0  0  0  0  0
  190.3610  177.5660  141.8420 C   0  0  0  0  0  3  0  0  0  0  0  0
  187.6310  177.9230  142.3840 C   0  0  0  0  0  0  0  0  0  0  0  0
  186.1400  178.0750  142.6350 C   0  0  2  0  0  3  0  0  0  0  0  0
  184.2810  178.9300  145.8240 N   0  0  0  0  0  0  0  0  0  0  0  0
  189.4960  177.9610  140.8250 C   0  0  0  0  0  3  0  0  0  0  0  0
  186.6850  177.7780  145.0960 C   0  0  0  0  0  0  0  0  0  0  0  0
  185.1280  178.4920  146.7920 C   0  0  0  0  0  3  0  0  0  0  0  0
  191.1840  176.7570  146.5650 C   0  0  0  0  0  2  0  0  0  0  0  0
  191.6870  175.7560  143.9660 C   0  0  0  0  0  2  0  0  0  0  0  0
  190.8220  176.9230  144.1530 N   0  0  0  0  0  0  0  0  0  0  0  0
  190.9410  177.7020  145.3870 C   0  0  0  0  0  2  0  0  0  0  0  0
  191.8480  175.0220  145.2970 C   0  0  0  0  0  2  0  0  0  0  0  0
  192.2790  175.9210  146.2880 O   0  0  0  0  0  0  0  0  0  0  0  0
  185.5480  179.2110  141.7970 C   0  0  0  0  0  2  0  0  0  0  0  0
  181.2520  177.2420  140.4020 C   0  0  0  0  0  3  0  0  0  0  0  0
  180.4230  176.7500  139.3900 C   0  0  0  0  0  3  0  0  0  0  0  0
  185.0810  178.6270  139.4080 C   0  0  0  0  0  3  0  0  0  0  0  0
  184.2380  178.1300  138.4090 C   0  0  0  0  0  3  0  0  0  0  0  0
  183.3750  178.2010  141.0790 C   0  0  0  0  0  3  0  0  0  0  0  0
  182.9620  177.6670  138.7410 C   0  0  0  0  0  0  0  0  0  0  0  0
  180.8870  176.7280  138.0720 C   0  0  0  0  0  3  0  0  0  0  0  0
  184.6540  178.6590  140.7420 C   0  0  0  0  0  0  0  0  0  0  0  0
  182.1350  177.1830  137.7760 N   0  0  0  0  0  0  0  0  0  0  0  0
  182.5280  177.7040  140.0850 C   0  0  0  0  0  0  0  0  0  0  0  0
  1  9  1  0  0  0  0
  2  3  1  0  0  0  0
  2 17  1  0  0  0  0
  3  5  1  0  0  0  0
  4 11  1  0  0  0  0
  5 13  1  0  0  0  0
  6  4  2  0  0  0  0
  6 13  1  0  0  0  0
  7 14  1  0  0  0  0
  8  2  2  0  0  0  0
  9 10  1  0  0  0  0
  9  3  2  0  0  0  0
 10 21  1  6  0  0  0
 10  6  1  0  0  0  0
 11 14  2  0  0  0  0
 12  1  2  0  0  0  0
 12  8  1  0  0  0  0
 13  7  2  0  0  0  0
 16 17  1  0  0  0  0
 16 19  1  0  0  0  0
 17 18  1  0  0  0  0
 18 15  1  0  0  0  0
 19 20  1  0  0  0  0
 20 15  1  0  0  0  0
 23 22  2  0  0  0  0
 24 29  1  0  0  0  0
 25 27  1  0  0  0  0
 25 24  2  0  0  0  0
 27 31  2  0  0  0  0
 28 23  1  0  0  0  0
 29 26  2  0  0  0  0
 29 21  1  0  0  0  0
 30 28  2  0  0  0  0
 30 27  1  0  0  0  0
 31 22  1  0  0  0  0
 31 26  1  0  0  0  0
M  END
>  <MODEL>
1

>  <REMARK>
 VINA RESULT:      -9.9      0.000      0.000
  Name = 
  3 active torsions:
  status: ('A' for Active; 'I' for Inactive)
    1  A    between atoms: C_2  and  N_12
    2  A    between atoms: C_20  and  C_26
    3  A    between atoms: C_23  and  C_26
                            x       y       z     vdW  Elec       q    Type
                         _______ _______ _______ _____ _____    ______ ____

>  <TORSDO>
F 3

$$$$
=
 OpenBabel11062414323D

 31 36  0  0  1  0  0  0  0  0999 V2000
  187.0170  178.3170  140.8190 C   0  0  0  0  0  3  0  0  0  0  0  0
  189.1330  177.7190  142.5610 C   0  0  0  0  0  0  0  0  0  0  0  0
  187.8030  177.7550  143.0490 C   0  0  0  0  0  0  0  0  0  0  0  0
  184.0020  178.7290  144.7500 C   0  0  0  0  0  3  0  0  0  0  0  0
  187.5010  177.2950  144.4490 C   0  0  0  0  0  2  0  0  0  0  0  0
  185.1920  178.2750  144.1610 C   0  0  0  0  0  0  0  0  0  0  0  0
  186.1200  178.0220  146.3880 C   0  0  0  0  0  3  0  0  0  0  0  0
  189.3720  177.9730  141.2040 C   0  0  0  0  0  3  0  0  0  0  0  0
  186.7410  178.0850  142.1740 C   0  0  0  0  0  0  0  0  0  0  0  0
  185.3010  178.1020  142.6600 C   0  0  2  0  0  3  0  0  0  0  0  0
  183.8990  178.8430  146.1010 N   0  0  0  0  0  0  0  0  0  0  0  0
  188.3230  178.2660  140.3370 C   0  0  0  0  0  3  0  0  0  0  0  0
  186.2560  177.9060  145.0040 C   0  0  0  0  0  0  0  0  0  0  0  0
  184.9270  178.5060  146.9230 C   0  0  0  0  0  3  0  0  0  0  0  0
  190.9890  177.2780  145.7410 C   0  0  0  0  0  2  0  0  0  0  0  0
  191.2140  176.3720  143.0690 C   0  0  0  0  0  2  0  0  0  0  0  0
  190.2530  177.4210  143.4150 N   0  0  0  0  0  0  0  0  0  0  0  0
  190.4610  178.1970  144.6390 C   0  0  0  0  0  2  0  0  0  0  0  0
  191.6610  175.6500  144.3410 C   0  0  0  0  0  2  0  0  0  0  0  0
  192.1230  176.5860  145.2830 O   0  0  0  0  0  0  0  0  0  0  0  0
  184.4780  179.1620  141.9220 C   0  0  0  0  0  2  0  0  0  0  0  0
  182.4860  175.7870  138.9360 C   0  0  0  0  0  3  0  0  0  0  0  0
  181.3530  175.1990  138.3660 C   0  0  0  0  0  3  0  0  0  0  0  0
  182.0030  178.9990  141.5850 C   0  0  0  0  0  3  0  0  0  0  0  0
  180.8810  178.3990  141.0040 C   0  0  0  0  0  3  0  0  0  0  0  0
  183.4570  177.4600  140.4000 C   0  0  0  0  0  3  0  0  0  0  0  0
  181.0430  177.3290  140.1210 C   0  0  0  0  0  0  0  0  0  0  0  0
  180.0870  175.6940  138.6890 C   0  0  0  0  0  3  0  0  0  0  0  0
  183.2890  178.5350  141.2810 C   0  0  0  0  0  0  0  0  0  0  0  0
  179.9570  176.7400  139.5510 N   0  0  0  0  0  0  0  0  0  0  0  0
  182.3390  176.8570  139.8180 C   0  0  0  0  0  0  0  0  0  0  0  0
  1  9  1  0  0  0  0
  2  3  1  0  0  0  0
  2 17  1  0  0  0  0
  3  5  1  0  0  0  0
  4 11  1  0  0  0  0
  5 13  1  0  0  0  0
  6  4  2  0  0  0  0
  6 13  1  0  0  0  0
  7 14  1  0  0  0  0
  8  2  2  0  0  0  0
  9 10  1  0  0  0  0
  9  3  2  0  0  0  0
 10 21  1  6  0  0  0
 10  6  1  0  0  0  0
 11 14  2  0  0  0  0
 12  1  2  0  0  0  0
 12  8  1  0  0  0  0
 13  7  2  0  0  0  0
 16 17  1  0  0  0  0
 16 19  1  0  0  0  0
 17 18  1  0  0  0  0
 18 15  1  0  0  0  0
 19 20  1  0  0  0  0
 20 15  1  0  0  0  0
 22 31  1  0  0  0  0
 23 28  1  0  0  0  0
 23 22  2  0  0  0  0
 25 24  2  0  0  0  0
 26 29  2  0  0  0  0
 27 25  1  0  0  0  0
 28 30  2  0  0  0  0
 29 24  1  0  0  0  0
 29 21  1  0  0  0  0
 30 27  1  0  0  0  0
 31 27  2  0  0  0  0
 31 26  1  0  0  0  0
M  END
>  <MODEL>
2

>  <REMARK>
 VINA RESULT:      -9.9      1.134      1.613
  Name = 
  3 active torsions:
  status: ('A' for Active; 'I' for Inactive)
    1  A    between atoms: C_2  and  N_12
    2  A    between atoms: C_20  and  C_26
    3  A    between atoms: C_23  and  C_26
                            x       y       z     vdW  Elec       q    Type
                         _______ _______ _______ _____ _____    ______ ____

>  <TORSDO>
F 3

$$$$
=
 OpenBabel11062414323D

 31 36  0  0  1  0  0  0  0  0999 V2000
  185.5920  178.8020  141.5750 C   0  0  0  0  0  3  0  0  0  0  0  0
  188.2450  177.9110  141.7830 C   0  0  0  0  0  0  0  0  0  0  0  0
  187.3990  177.8850  142.9190 C   0  0  0  0  0  0  0  0  0  0  0  0
  185.2290  178.6240  146.5310 C   0  0  0  0  0  3  0  0  0  0  0  0
  187.8560  177.2130  144.1850 C   0  0  0  0  0  2  0  0  0  0  0  0
  185.8640  178.2540  145.3340 C   0  0  0  0  0  0  0  0  0  0  0  0
  187.8170  177.6410  146.6370 C   0  0  0  0  0  3  0  0  0  0  0  0
  187.7370  178.3740  140.5610 C   0  0  0  0  0  3  0  0  0  0  0  0
  186.0690  178.3620  142.8190 C   0  0  0  0  0  0  0  0  0  0  0  0
  185.1290  178.3200  144.0110 C   0  0  2  0  0  3  0  0  0  0  0  0
  185.8830  178.5240  147.7190 N   0  0  0  0  0  0  0  0  0  0  0  0
  186.4190  178.8120  140.4550 C   0  0  0  0  0  3  0  0  0  0  0  0
  187.1720  177.7440  145.4030 C   0  0  0  0  0  0  0  0  0  0  0  0
  187.1540  178.0480  147.7940 C   0  0  0  0  0  3  0  0  0  0  0  0
  191.7140  177.3670  140.5940 C   0  0  0  0  0  2  0  0  0  0  0  0
  190.3790  177.5180  143.0840 C   0  0  0  0  0  2  0  0  0  0  0  0
  189.6130  177.4680  141.8380 N   0  0  0  0  0  0  0  0  0  0  0  0
  190.2510  176.9280  140.6350 C   0  0  0  0  0  2  0  0  0  0  0  0
  191.8280  177.8940  142.7780 C   0  0  0  0  0  2  0  0  0  0  0  0
  192.3490  177.0270  141.8010 O   0  0  0  0  0  0  0  0  0  0  0  0
  184.1450  179.4930  143.9850 C   0  0  0  0  0  2  0  0  0  0  0  0
  181.1840  178.2890  140.2340 C   0  0  0  0  0  3  0  0  0  0  0  0
  179.9430  177.8420  139.7730 C   0  0  0  0  0  3  0  0  0  0  0  0
  181.7860  178.7420  144.3580 C   0  0  0  0  0  3  0  0  0  0  0  0
  180.5500  178.2970  143.8780 C   0  0  0  0  0  3  0  0  0  0  0  0
  182.6300  178.8900  142.0880 C   0  0  0  0  0  3  0  0  0  0  0  0
  180.3500  178.1470  142.5030 C   0  0  0  0  0  0  0  0  0  0  0  0
  178.9310  177.5580  140.6940 C   0  0  0  0  0  3  0  0  0  0  0  0
  182.8230  179.0420  143.4660 C   0  0  0  0  0  0  0  0  0  0  0  0
  179.1510  177.7150  142.0280 N   0  0  0  0  0  0  0  0  0  0  0  0
  181.3970  178.4450  141.6040 C   0  0  0  0  0  0  0  0  0  0  0  0
  1  9  1  0  0  0  0
  2 17  1  0  0  0  0
  2  3  1  0  0  0  0
  3  5  1  0  0  0  0
  4 11  1  0  0  0  0
  5 13  1  0  0  0  0
  6 13  1  0  0  0  0
  6  4  2  0  0  0  0
  7 14  1  0  0  0  0
  8  2  2  0  0  0  0
  9  3  2  0  0  0  0
  9 10  1  0  0  0  0
 10 21  1  1  0  0  0
 10  6  1  0  0  0  0
 11 14  2  0  0  0  0
 12  8  1  0  0  0  0
 12  1  2  0  0  0  0
 13  7  2  0  0  0  0
 15 18  1  0  0  0  0
 15 20  1  0  0  0  0
 17 16  1  0  0  0  0
 18 17  1  0  0  0  0
 19 16  1  0  0  0  0
 20 19  1  0  0  0  0
 22 31  1  0  0  0  0
 23 22  2  0  0  0  0
 23 28  1  0  0  0  0
 25 24  1  0  0  0  0
 26 29  1  0  0  0  0
 27 25  2  0  0  0  0
 28 30  2  0  0  0  0
 29 21  1  0  0  0  0
 29 24  2  0  0  0  0
 30 27  1  0  0  0  0
 31 26  2  0  0  0  0
 31 27  1  0  0  0  0
M  END
>  <MODEL>
3

>  <REMARK>
 VINA RESULT:      -9.3      2.123      3.281
  Name = 
  3 active torsions:
  status: ('A' for Active; 'I' for Inactive)
    1  A    between atoms: C_2  and  N_12
    2  A    between atoms: C_20  and  C_26
    3  A    between atoms: C_23  and  C_26
                            x       y       z     vdW  Elec       q    Type
                         _______ _______ _______ _____ _____    ______ ____

>  <TORSDO>
F 3

$$$$
=
 OpenBabel11062414323D

 31 36  0  0  1  0  0  0  0  0999 V2000
  182.0510  179.0050  143.5000 C   0  0  0  0  0  3  0  0  0  0  0  0
  180.6980  178.2790  141.1520 C   0  0  0  0  0  0  0  0  0  0  0  0
  182.1110  178.1960  141.2080 C   0  0  0  0  0  0  0  0  0  0  0  0
  186.3430  178.7860  140.9990 C   0  0  0  0  0  3  0  0  0  0  0  0
  182.8750  177.5480  140.0850 C   0  0  0  0  0  2  0  0  0  0  0  0
  184.9830  178.4600  141.1320 C   0  0  0  0  0  0  0  0  0  0  0  0
  184.9380  177.9630  138.7570 C   0  0  0  0  0  3  0  0  0  0  0  0
  179.9920  178.7140  142.2820 C   0  0  0  0  0  3  0  0  0  0  0  0
  182.7940  178.5910  142.3850 C   0  0  0  0  0  0  0  0  0  0  0  0
  184.3060  178.4860  142.4860 C   0  0  2  0  0  3  0  0  0  0  0  0
  186.9530  178.7220  139.7850 N   0  0  0  0  0  0  0  0  0  0  0  0
  180.6610  179.0710  143.4490 C   0  0  0  0  0  3  0  0  0  0  0  0
  184.2850  178.0320  139.9890 C   0  0  0  0  0  0  0  0  0  0  0  0
  186.2820  178.3250  138.6720 C   0  0  0  0  0  3  0  0  0  0  0  0
  179.8200  178.2250  137.5500 C   0  0  0  0  0  2  0  0  0  0  0  0
  179.3750  176.5870  139.8140 C   0  0  0  0  0  2  0  0  0  0  0  0
  179.9570  177.9210  139.9710 N   0  0  0  0  0  0  0  0  0  0  0  0
  179.7520  178.9120  138.9140 C   0  0  0  0  0  2  0  0  0  0  0  0
  179.4840  176.1510  138.3530 C   0  0  0  0  0  2  0  0  0  0  0  0
  178.9310  177.1380  137.5190 O   0  0  0  0  0  0  0  0  0  0  0  0
  184.8820  179.5960  143.3700 C   0  0  0  0  0  2  0  0  0  0  0  0
  188.8220  177.3750  145.3260 C   0  0  0  0  0  3  0  0  0  0  0  0
  189.4800  176.8490  146.4410 C   0  0  0  0  0  3  0  0  0  0  0  0
  184.9990  179.0260  145.8040 C   0  0  0  0  0  3  0  0  0  0  0  0
  185.6720  178.4930  146.9080 C   0  0  0  0  0  3  0  0  0  0  0  0
  186.8730  178.4590  144.3710 C   0  0  0  0  0  3  0  0  0  0  0  0
  186.9460  177.9420  146.7480 C   0  0  0  0  0  0  0  0  0  0  0  0
  188.8500  176.8820  147.6890 C   0  0  0  0  0  3  0  0  0  0  0  0
  185.5950  179.0050  144.5370 C   0  0  0  0  0  0  0  0  0  0  0  0
  187.6070  177.4220  147.8170 N   0  0  0  0  0  0  0  0  0  0  0  0
  187.5490  177.9260  145.4720 C   0  0  0  0  0  0  0  0  0  0  0  0
  2  3  2  0  0  0  0
  2  8  1  0  0  0  0
  3  9  1  0  0  0  0
  4  6  1  0  0  0  0
  5  3  1  0  0  0  0
  6 10  1  0  0  0  0
  7 13  1  0  0  0  0
  8 12  2  0  0  0  0
  9 10  1  0  0  0  0
  9  1  2  0  0  0  0
 10 21  1  1  0  0  0
 11  4  2  0  0  0  0
 12  1  1  0  0  0  0
 13  5  1  0  0  0  0
 13  6  2  0  0  0  0
 14  7  2  0  0  0  0
 14 11  1  0  0  0  0
 15 18  1  0  0  0  0
 16 17  1  0  0  0  0
 17  2  1  0  0  0  0
 18 17  1  0  0  0  0
 19 16  1  0  0  0  0
 20 15  1  0  0  0  0
 20 19  1  0  0  0  0
 21 29  1  0  0  0  0
 22 31  2  0  0  0  0
 22 23  1  0  0  0  0
 23 28  2  0  0  0  0
 24 25  2  0  0  0  0
 26 29  2  0  0  0  0
 26 31  1  0  0  0  0
 27 25  1  0  0  0  0
 27 30  2  0  0  0  0
 28 30  1  0  0  0  0
 29 24  1  0  0  0  0
 31 27  1  0  0  0  0
M  END
>  <MODEL>
4

>  <REMARK>
 VINA RESULT:      -9.2      3.595      9.186
  Name = 
  3 active torsions:
  status: ('A' for Active; 'I' for Inactive)
    1  A    between atoms: C_2  and  N_12
    2  A    between atoms: C_20  and  C_26
    3  A    between atoms: C_23  and  C_26
                            x       y       z     vdW  Elec       q    Type
                         _______ _______ _______ _____ _____    ______ ____

>  <TORSDO>
F 3

$$$$
=
 OpenBabel11062414323D

 31 36  0  0  1  0  0  0  0  0999 V2000
  190.6770  177.8680  142.4160 C   0  0  0  0  0  3  0  0  0  0  0  0
  189.4630  177.6220  144.9340 C   0  0  0  0  0  0  0  0  0  0  0  0
  188.6630  177.6850  143.7660 C   0  0  0  0  0  0  0  0  0  0  0  0
  186.2060  178.7740  140.4390 C   0  0  0  0  0  3  0  0  0  0  0  0
  187.1820  177.4360  143.8520 C   0  0  0  0  0  2  0  0  0  0  0  0
  187.0090  178.2770  141.4780 C   0  0  0  0  0  0  0  0  0  0  0  0
  185.0780  178.4040  142.9410 C   0  0  0  0  0  3  0  0  0  0  0  0
  190.8590  177.6720  144.8110 C   0  0  0  0  0  3  0  0  0  0  0  0
  189.2770  177.8380  142.4990 C   0  0  0  0  0  0  0  0  0  0  0  0
  188.4480  177.8790  141.2270 C   0  0  2  0  0  3  0  0  0  0  0  0
  184.9030  179.0920  140.6640 N   0  0  0  0  0  0  0  0  0  0  0  0
  191.4630  177.7900  143.5630 C   0  0  0  0  0  3  0  0  0  0  0  0
  186.4210  178.0820  142.7400 C   0  0  0  0  0  0  0  0  0  0  0  0
  184.3300  178.9220  141.8840 C   0  0  0  0  0  3  0  0  0  0  0  0
  189.2010  178.0610  148.6060 C   0  0  0  0  0  2  0  0  0  0  0  0
  187.4410  177.5420  146.4520 C   0  0  0  0  0  2  0  0  0  0  0  0
  188.8900  177.5000  146.2480 N   0  0  0  0  0  0  0  0  0  0  0  0
  189.7630  177.2980  147.4060 C   0  0  0  0  0  2  0  0  0  0  0  0
  187.1300  178.2780  147.7550 C   0  0  0  0  0  2  0  0  0  0  0  0
  187.8580  177.7040  148.8120 O   0  0  0  0  0  0  0  0  0  0  0  0
  189.0940  178.7820  140.1710 C   0  0  0  0  0  2  0  0  0  0  0  0
  191.2710  174.9860  137.9060 C   0  0  0  0  0  3  0  0  0  0  0  0
  191.5140  174.2560  136.7400 C   0  0  0  0  0  3  0  0  0  0  0  0
  188.8250  178.3850  137.7140 C   0  0  0  0  0  3  0  0  0  0  0  0
  189.0800  177.6420  136.5570 C   0  0  0  0  0  3  0  0  0  0  0  0
  190.2040  176.8650  139.0090 C   0  0  0  0  0  3  0  0  0  0  0  0
  189.8960  176.5100  136.6210 C   0  0  0  0  0  0  0  0  0  0  0  0
  190.9390  174.6740  135.5360 C   0  0  0  0  0  3  0  0  0  0  0  0
  189.3890  178.0010  138.9380 C   0  0  0  0  0  0  0  0  0  0  0  0
  190.1490  175.7830  135.5000 N   0  0  0  0  0  0  0  0  0  0  0  0
  190.4600  176.1190  137.8550 C   0  0  0  0  0  0  0  0  0  0  0  0
  1  9  2  0  0  0  0
  1 12  1  0  0  0  0
  2 17  1  0  0  0  0
  3  5  1  0  0  0  0
  3  2  2  0  0  0  0
  4 11  2  0  0  0  0
  4  6  1  0  0  0  0
  6 13  2  0  0  0  0
  8  2  1  0  0  0  0
  9  3  1  0  0  0  0
 10 21  1  6  0  0  0
 10  6  1  0  0  0  0
 10  9  1  0  0  0  0
 11 14  1  0  0  0  0
 12  8  2  0  0  0  0
 13  7  1  0  0  0  0
 13  5  1  0  0  0  0
 14  7  2  0  0  0  0
 15 20  1  0  0  0  0
 16 19  1  0  0  0  0
 17 16  1  0  0  0  0
 17 18  1  0  0  0  0
 18 15  1  0  0  0  0
 19 20  1  0  0  0  0
 23 22  2  0  0  0  0
 24 29  1  0  0  0  0
 25 27  1  0  0  0  0
 25 24  2  0  0  0  0
 27 31  2  0  0  0  0
 28 23  1  0  0  0  0
 29 26  2  0  0  0  0
 29 21  1  0  0  0  0
 30 28  2  0  0  0  0
 30 27  1  0  0  0  0
 31 22  1  0  0  0  0
 31 26  1  0  0  0  0
M  END
>  <MODEL>
5

>  <REMARK>
 VINA RESULT:      -9.0      3.255      5.554
  Name = 
  3 active torsions:
  status: ('A' for Active; 'I' for Inactive)
    1  A    between atoms: C_2  and  N_12
    2  A    between atoms: C_20  and  C_26
    3  A    between atoms: C_23  and  C_26
                            x       y       z     vdW  Elec       q    Type
                         _______ _______ _______ _____ _____    ______ ____

>  <TORSDO>
F 3

$$$$
=
 OpenBabel11062414323D

 31 36  0  0  1  0  0  0  0  0999 V2000
  190.8500  177.1270  142.5850 C   0  0  0  0  0  3  0  0  0  0  0  0
  189.6040  177.2550  145.0950 C   0  0  0  0  0  0  0  0  0  0  0  0
  188.8290  177.3720  143.9140 C   0  0  0  0  0  0  0  0  0  0  0  0
  186.6000  178.6280  140.4870 C   0  0  0  0  0  3  0  0  0  0  0  0
  187.3270  177.3780  143.9940 C   0  0  0  0  0  2  0  0  0  0  0  0
  187.3050  178.0750  141.5680 C   0  0  0  0  0  0  0  0  0  0  0  0
  185.4160  178.6180  142.9920 C   0  0  0  0  0  3  0  0  0  0  0  0
  190.9880  177.0650  144.9910 C   0  0  0  0  0  3  0  0  0  0  0  0
  189.4650  177.3350  142.6500 C   0  0  0  0  0  0  0  0  0  0  0  0
  188.6590  177.4280  141.3650 C   0  0  2  0  0  3  0  0  0  0  0  0
  185.3670  179.1710  140.6720 N   0  0  0  0  0  0  0  0  0  0  0  0
  191.6080  176.9970  143.7460 C   0  0  0  0  0  3  0  0  0  0  0  0
  186.6880  178.0650  142.8320 C   0  0  0  0  0  0  0  0  0  0  0  0
  184.7690  179.1810  141.8920 C   0  0  0  0  0  3  0  0  0  0  0  0
  189.2640  178.2530  148.6500 C   0  0  0  0  0  2  0  0  0  0  0  0
  187.5600  177.3340  146.5850 C   0  0  0  0  0  2  0  0  0  0  0  0
  189.0130  177.3170  146.4060 N   0  0  0  0  0  0  0  0  0  0  0  0
  189.8730  177.3350  147.5910 C   0  0  0  0  0  2  0  0  0  0  0  0
  187.2010  178.2530  147.7530 C   0  0  0  0  0  2  0  0  0  0  0  0
  187.9310  177.8800  148.8950 O   0  0  0  0  0  0  0  0  0  0  0  0
  189.4490  178.1390  140.2620 C   0  0  0  0  0  2  0  0  0  0  0  0
  188.0630  175.4410  136.3790 C   0  0  0  0  0  3  0  0  0  0  0  0
  188.3900  174.5660  135.3400 C   0  0  0  0  0  3  0  0  0  0  0  0
  191.0830  176.7460  138.9760 C   0  0  0  0  0  3  0  0  0  0  0  0
  191.3920  175.8690  137.9310 C   0  0  0  0  0  3  0  0  0  0  0  0
  188.7540  176.7570  138.2960 C   0  0  0  0  0  3  0  0  0  0  0  0
  190.3850  175.4330  137.0670 C   0  0  0  0  0  0  0  0  0  0  0  0
  189.7140  174.1430  135.1900 C   0  0  0  0  0  3  0  0  0  0  0  0
  189.7670  177.1860  139.1620 C   0  0  0  0  0  0  0  0  0  0  0  0
  190.6760  174.5810  136.0480 N   0  0  0  0  0  0  0  0  0  0  0  0
  189.0580  175.8810  137.2510 C   0  0  0  0  0  0  0  0  0  0  0  0
  1  9  2  0  0  0  0
  1 12  1  0  0  0  0
  2 17  1  0  0  0  0
  3  5  1  0  0  0  0
  3  2  2  0  0  0  0
  4 11  2  0  0  0  0
  4  6  1  0  0  0  0
  6 13  2  0  0  0  0
  8  2  1  0  0  0  0
  9  3  1  0  0  0  0
 10 21  1  6  0  0  0
 10  6  1  0  0  0  0
 10  9  1  0  0  0  0
 11 14  1  0  0  0  0
 12  8  2  0  0  0  0
 13  7  1  0  0  0  0
 13  5  1  0  0  0  0
 14  7  2  0  0  0  0
 15 20  1  0  0  0  0
 16 19  1  0  0  0  0
 17 16  1  0  0  0  0
 17 18  1  0  0  0  0
 18 15  1  0  0  0  0
 19 20  1  0  0  0  0
 22 31  1  0  0  0  0
 23 22  2  0  0  0  0
 24 29  1  0  0  0  0
 25 24  2  0  0  0  0
 26 29  2  0  0  0  0
 27 31  2  0  0  0  0
 27 25  1  0  0  0  0
 28 23  1  0  0  0  0
 28 30  2  0  0  0  0
 29 21  1  0  0  0  0
 30 27  1  0  0  0  0
 31 26  1  0  0  0  0
M  END
>  <MODEL>
6

>  <REMARK>
 VINA RESULT:      -8.8      3.358      5.384
  Name = 
  3 active torsions:
  status: ('A' for Active; 'I' for Inactive)
    1  A    between atoms: C_2  and  N_12
    2  A    between atoms: C_20  and  C_26
    3  A    between atoms: C_23  and  C_26
                            x       y       z     vdW  Elec       q    Type
                         _______ _______ _______ _____ _____    ______ ____

>  <TORSDO>
F 3

$$$$
=
 OpenBabel11062414323D

 31 36  0  0  1  0  0  0  0  0999 V2000
  187.8990  178.3700  141.2120 C   0  0  0  0  0  3  0  0  0  0  0  0
  187.2770  177.6240  138.5790 C   0  0  0  0  0  0  0  0  0  0  0  0
  188.5530  177.3220  139.1180 C   0  0  0  0  0  0  0  0  0  0  0  0
  192.6500  177.1970  140.3380 C   0  0  0  0  0  3  0  0  0  0  0  0
  189.5060  176.4430  138.3540 C   0  0  0  0  0  2  0  0  0  0  0  0
  191.2870  177.1110  140.0140 C   0  0  0  0  0  0  0  0  0  0  0  0
  191.9300  176.3770  137.7920 C   0  0  0  0  0  3  0  0  0  0  0  0
  186.3350  178.2850  139.3790 C   0  0  0  0  0  3  0  0  0  0  0  0
  188.8740  177.7250  140.4370 C   0  0  0  0  0  0  0  0  0  0  0  0
  190.2210  177.3890  141.0530 C   0  0  2  0  0  3  0  0  0  0  0  0
  193.6010  176.9060  139.4100 N   0  0  0  0  0  0  0  0  0  0  0  0
  186.6400  178.6530  140.6870 C   0  0  0  0  0  3  0  0  0  0  0  0
  190.9340  176.6800  138.7230 C   0  0  0  0  0  0  0  0  0  0  0  0
  193.2700  176.5060  138.1540 C   0  0  0  0  0  3  0  0  0  0  0  0
  187.6030  177.3860  134.8940 C   0  0  0  0  0  2  0  0  0  0  0  0
  186.2240  176.0060  136.9440 C   0  0  0  0  0  2  0  0  0  0  0  0
  186.9110  177.2650  137.2350 N   0  0  0  0  0  0  0  0  0  0  0  0
  187.2010  178.1850  136.1330 C   0  0  0  0  0  2  0  0  0  0  0  0
  186.7310  175.4420  135.6170 C   0  0  0  0  0  2  0  0  0  0  0  0
  186.6230  176.4180  134.6110 O   0  0  0  0  0  0  0  0  0  0  0  0
  190.6740  178.4810  142.0280 C   0  0  0  0  0  2  0  0  0  0  0  0
  187.7880  177.9490  145.9860 C   0  0  0  0  0  3  0  0  0  0  0  0
  187.6090  177.4990  147.2970 C   0  0  0  0  0  3  0  0  0  0  0  0
  191.5040  177.4000  144.1280 C   0  0  0  0  0  3  0  0  0  0  0  0
  191.3080  176.9570  145.4390 C   0  0  0  0  0  3  0  0  0  0  0  0
  189.2210  178.2160  144.0470 C   0  0  0  0  0  3  0  0  0  0  0  0
  190.0690  177.1410  146.0590 C   0  0  0  0  0  0  0  0  0  0  0  0
  188.6720  176.8770  147.9600 C   0  0  0  0  0  3  0  0  0  0  0  0
  190.4650  178.0330  143.4330 C   0  0  0  0  0  0  0  0  0  0  0  0
  189.8690  176.7120  147.3340 N   0  0  0  0  0  0  0  0  0  0  0  0
  189.0200  177.7730  145.3570 C   0  0  0  0  0  0  0  0  0  0  0  0
  2  3  2  0  0  0  0
  2  8  1  0  0  0  0
  3  9  1  0  0  0  0
  5 13  1  0  0  0  0
  5  3  1  0  0  0  0
  6  4  1  0  0  0  0
  6 10  1  0  0  0  0
  7 14  2  0  0  0  0
  7 13  1  0  0  0  0
  8 12  2  0  0  0  0
  9 10  1  0  0  0  0
  9  1  2  0  0  0  0
 10 21  1  6  0  0  0
 11  4  2  0  0  0  0
 12  1  1  0  0  0  0
 13  6  2  0  0  0  0
 14 11  1  0  0  0  0
 15 18  1  0  0  0  0
 16 17  1  0  0  0  0
 17  2  1  0  0  0  0
 18 17  1  0  0  0  0
 19 16  1  0  0  0  0
 20 15  1  0  0  0  0
 20 19  1  0  0  0  0
 21 29  1  0  0  0  0
 22 23  1  0  0  0  0
 23 28  2  0  0  0  0
 24 25  2  0  0  0  0
 25 27  1  0  0  0  0
 26 31  1  0  0  0  0
 27 30  2  0  0  0  0
 29 26  2  0  0  0  0
 29 24  1  0  0  0  0
 30 28  1  0  0  0  0
 31 22  2  0  0  0  0
 31 27  1  0  0  0  0
M  END
>  <MODEL>
7

>  <REMARK>
 VINA RESULT:      -8.8      3.777      8.716
  Name = 
  3 active torsions:
  status: ('A' for Active; 'I' for Inactive)
    1  A    between atoms: C_2  and  N_12
    2  A    between atoms: C_20  and  C_26
    3  A    between atoms: C_23  and  C_26
                            x       y       z     vdW  Elec       q    Type
                         _______ _______ _______ _____ _____    ______ ____

>  <TORSDO>
F 3

$$$$
=
 OpenBabel11062414323D

 31 36  0  0  1  0  0  0  0  0999 V2000
  185.8210  178.6810  144.5610 C   0  0  0  0  0  3  0  0  0  0  0  0
  183.1380  178.7420  143.7420 C   0  0  0  0  0  0  0  0  0  0  0  0
  184.1570  178.4340  142.8060 C   0  0  0  0  0  0  0  0  0  0  0  0
  187.1890  178.4030  139.7890 C   0  0  0  0  0  3  0  0  0  0  0  0
  183.7950  177.9590  141.4250 C   0  0  0  0  0  2  0  0  0  0  0  0
  186.2200  178.2670  140.7970 C   0  0  0  0  0  0  0  0  0  0  0  0
  184.5130  178.3550  139.0750 C   0  0  0  0  0  3  0  0  0  0  0  0
  183.4880  179.0020  145.0740 C   0  0  0  0  0  3  0  0  0  0  0  0
  185.5120  178.4320  143.2160 C   0  0  0  0  0  0  0  0  0  0  0  0
  186.6250  178.0770  142.2440 C   0  0  2  0  0  3  0  0  0  0  0  0
  186.8180  178.5340  138.4880 N   0  0  0  0  0  0  0  0  0  0  0  0
  184.8180  178.9680  145.4830 C   0  0  0  0  0  3  0  0  0  0  0  0
  184.8660  178.2310  140.4200 C   0  0  0  0  0  0  0  0  0  0  0  0
  185.5110  178.5170  138.1150 C   0  0  0  0  0  3  0  0  0  0  0  0
  179.4770  179.0670  144.2290 C   0  0  0  0  0  2  0  0  0  0  0  0
  181.3190  179.3840  142.1040 C   0  0  0  0  0  2  0  0  0  0  0  0
  181.7490  178.7890  143.3710 N   0  0  0  0  0  0  0  0  0  0  0  0
  180.7400  178.2060  144.2580 C   0  0  0  0  0  2  0  0  0  0  0  0
  179.9940  180.1180  142.3080 C   0  0  0  0  0  2  0  0  0  0  0  0
  179.0570  179.2540  142.9010 O   0  0  0  0  0  0  0  0  0  0  0  0
  187.9090  178.8470  142.5630 C   0  0  0  0  0  2  0  0  0  0  0  0
  190.6500  177.1300  146.2810 C   0  0  0  0  0  3  0  0  0  0  0  0
  191.6080  176.2320  146.7580 C   0  0  0  0  0  3  0  0  0  0  0  0
  189.5320  176.9680  142.2450 C   0  0  0  0  0  3  0  0  0  0  0  0
  190.4910  176.0780  142.7400 C   0  0  0  0  0  3  0  0  0  0  0  0
  189.3130  177.9750  144.4410 C   0  0  0  0  0  3  0  0  0  0  0  0
  190.8630  176.1330  144.0850 C   0  0  0  0  0  0  0  0  0  0  0  0
  192.1740  175.3020  145.8810 C   0  0  0  0  0  3  0  0  0  0  0  0
  188.9470  177.9180  143.0910 C   0  0  0  0  0  0  0  0  0  0  0  0
  191.7950  175.2710  144.5740 N   0  0  0  0  0  0  0  0  0  0  0  0
  190.2700  177.0870  144.9400 C   0  0  0  0  0  0  0  0  0  0  0  0
  1 12  1  0  0  0  0
  2  8  1  0  0  0  0
  3  9  1  0  0  0  0
  3  2  2  0  0  0  0
  4  6  1  0  0  0  0
  5  3  1  0  0  0  0
  6 10  1  0  0  0  0
  7 13  1  0  0  0  0
  8 12  2  0  0  0  0
  9  1  2  0  0  0  0
 10 21  1  1  0  0  0
 10  9  1  0  0  0  0
 11  4  2  0  0  0  0
 13  6  2  0  0  0  0
 13  5  1  0  0  0  0
 14 11  1  0  0  0  0
 14  7  2  0  0  0  0
 15 18  1  0  0  0  0
 16 19  1  0  0  0  0
 16 17  1  0  0  0  0
 17  2  1  0  0  0  0
 17 18  1  0  0  0  0
 19 20  1  0  0  0  0
 20 15  1  0  0  0  0
 21 29  1  0  0  0  0
 22 23  1  0  0  0  0
 24 25  2  0  0  0  0
 24 29  1  0  0  0  0
 25 27  1  0  0  0  0
 26 31  1  0  0  0  0
 27 30  2  0  0  0  0
 27 31  1  0  0  0  0
 28 23  2  0  0  0  0
 29 26  2  0  0  0  0
 30 28  1  0  0  0  0
 31 22  2  0  0  0  0
M  END
>  <MODEL>
8

>  <REMARK>
 VINA RESULT:      -8.6      3.226      8.622
  Name = 
  3 active torsions:
  status: ('A' for Active; 'I' for Inactive)
    1  A    between atoms: C_2  and  N_12
    2  A    between atoms: C_20  and  C_26
    3  A    between atoms: C_23  and  C_26
                            x       y       z     vdW  Elec       q    Type
                         _______ _______ _______ _____ _____    ______ ____

>  <TORSDO>
F 3

$$$$
=
 OpenBabel11062414323D

 31 36  0  0  1  0  0  0  0  0999 V2000
  188.4820  177.8730  141.4300 C   0  0  0  0  0  3  0  0  0  0  0  0
  189.4410  177.1340  143.9600 C   0  0  0  0  0  0  0  0  0  0  0  0
  188.0650  177.4190  143.7810 C   0  0  0  0  0  0  0  0  0  0  0  0
  184.1490  179.1200  143.5250 C   0  0  0  0  0  3  0  0  0  0  0  0
  187.0880  177.1490  144.8920 C   0  0  0  0  0  2  0  0  0  0  0  0
  185.3740  178.4350  143.5580 C   0  0  0  0  0  0  0  0  0  0  0  0
  185.1380  178.2620  145.9670 C   0  0  0  0  0  3  0  0  0  0  0  0
  190.3060  177.2160  142.8600 C   0  0  0  0  0  3  0  0  0  0  0  0
  187.5880  177.8190  142.5090 C   0  0  0  0  0  0  0  0  0  0  0  0
  186.1130  178.1020  142.2790 C   0  0  2  0  0  3  0  0  0  0  0  0
  183.4720  179.3790  144.6760 N   0  0  0  0  0  0  0  0  0  0  0  0
  189.8310  177.5780  141.6030 C   0  0  0  0  0  3  0  0  0  0  0  0
  185.8590  177.9930  144.8010 C   0  0  0  0  0  0  0  0  0  0  0  0
  183.9400  178.9720  145.8840 C   0  0  0  0  0  3  0  0  0  0  0  0
  192.0550  176.4040  146.4860 C   0  0  0  0  0  2  0  0  0  0  0  0
  189.3200  177.1300  146.4880 C   0  0  0  0  0  2  0  0  0  0  0  0
  189.9840  176.7540  145.2380 N   0  0  0  0  0  0  0  0  0  0  0  0
  191.2060  175.9510  145.2990 C   0  0  0  0  0  2  0  0  0  0  0  0
  190.3730  177.4560  147.5470 C   0  0  0  0  0  2  0  0  0  0  0  0
  191.2820  176.3890  147.6600 O   0  0  0  0  0  0  0  0  0  0  0  0
  185.9150  179.1980  141.2270 C   0  0  0  0  0  2  0  0  0  0  0  0
  186.2030  177.5760  136.5830 C   0  0  0  0  0  3  0  0  0  0  0  0
  185.5860  177.0190  135.4590 C   0  0  0  0  0  3  0  0  0  0  0  0
  183.9120  178.3130  140.0140 C   0  0  0  0  0  3  0  0  0  0  0  0
  183.3110  177.7580  138.8800 C   0  0  0  0  0  3  0  0  0  0  0  0
  186.0480  178.3820  138.8660 C   0  0  0  0  0  3  0  0  0  0  0  0
  184.0750  177.5130  137.7360 C   0  0  0  0  0  0  0  0  0  0  0  0
  184.2210  176.7230  135.5030 C   0  0  0  0  0  3  0  0  0  0  0  0
  185.2770  178.6290  140.0070 C   0  0  0  0  0  0  0  0  0  0  0  0
  183.4980  176.9730  136.6290 N   0  0  0  0  0  0  0  0  0  0  0  0
  185.4520  177.8270  137.7300 C   0  0  0  0  0  0  0  0  0  0  0  0
  1 12  2  0  0  0  0
  1  9  1  0  0  0  0
  2 17  1  0  0  0  0
  3  2  1  0  0  0  0
  3  5  1  0  0  0  0
  4  6  2  0  0  0  0
  4 11  1  0  0  0  0
  6 13  1  0  0  0  0
  8  2  2  0  0  0  0
  9  3  2  0  0  0  0
 10 21  1  6  0  0  0
 10  9  1  0  0  0  0
 10  6  1  0  0  0  0
 11 14  2  0  0  0  0
 12  8  1  0  0  0  0
 13  5  1  0  0  0  0
 13  7  2  0  0  0  0
 14  7  1  0  0  0  0
 15 20  1  0  0  0  0
 16 19  1  0  0  0  0
 17 18  1  0  0  0  0
 17 16  1  0  0  0  0
 18 15  1  0  0  0  0
 19 20  1  0  0  0  0
 22 31  1  0  0  0  0
 23 28  1  0  0  0  0
 23 22  2  0  0  0  0
 25 24  2  0  0  0  0
 26 29  2  0  0  0  0
 27 25  1  0  0  0  0
 28 30  2  0  0  0  0
 29 24  1  0  0  0  0
 29 21  1  0  0  0  0
 30 27  1  0  0  0  0
 31 27  2  0  0  0  0
 31 26  1  0  0  0  0
M  END
>  <MODEL>
9

>  <REMARK>
 VINA RESULT:      -8.5      1.422      2.441
  Name = 
  3 active torsions:
  status: ('A' for Active; 'I' for Inactive)
    1  A    between atoms: C_2  and  N_12
    2  A    between atoms: C_20  and  C_26
    3  A    between atoms: C_23  and  C_26
                            x       y       z     vdW  Elec       q    Type
                         _______ _______ _______ _____ _____    ______ ____

>  <TORSDO>
F 3

$$$$
