=
 OpenBabel11062414333D

 31 36  0  0  1  0  0  0  0  0999 V2000
  190.6860  177.3180  147.1980 C   0  0  2  0  0  3  0  0  0  0  0  0
  190.2890  178.0410  145.9840 C   0  0  2  0  0  0  0  0  0  0  0  0
  191.3780  176.4910  143.9570 C   0  0  0  0  0  0  0  0  0  0  0  0
  190.9970  176.9530  145.2050 C   0  0  0  0  0  0  0  0  0  0  0  0
  188.9310  178.6130  146.4610 C   0  0  2  0  0  3  0  0  0  0  0  0
  191.3130  176.2520  146.3890 C   0  0  0  0  0  0  0  0  0  0  0  0
  191.9990  175.0570  146.3750 C   0  0  0  0  0  3  0  0  0  0  0  0
  189.5620  176.8460  147.8880 O   0  0  0  0  0  0  0  0  0  0  0  0
  188.6480  177.8940  147.7680 C   0  0  2  0  0  3  0  0  0  0  0  0
  192.3580  174.5890  145.1350 N   0  0  0  0  0  0  0  0  0  0  0  0
  192.0760  175.2590  143.9590 C   0  0  0  0  0  3  0  0  0  0  0  0
  188.9070  177.6930  145.3480 C   0  0  0  0  0  2  0  0  0  0  0  0
  191.0190  177.3520  142.4720 S   0  0  0  0  0  0  0  0  0  0  0  0
  190.9960  178.8320  142.7450 O   0  0  0  0  0  0  0  0  0  0  0  0
  192.0890  177.0380  141.4630 O   0  0  0  0  0  0  0  0  0  0  0  0
  189.4710  176.8290  141.8890 N   0  0  0  0  0  2  0  0  0  0  0  0
  186.3090  178.8380  141.6900 C   0  0  1  0  0  3  0  0  0  0  0  0
  184.9780  178.1630  141.4220 C   0  0  0  0  0  1  0  0  0  0  0  0
  187.2180  177.8890  142.4720 C   0  0  0  0  0  2  0  0  0  0  0  0
  186.9880  179.0560  140.4640 O   0  0  0  0  0  0  0  0  0  0  0  0
  188.1740  178.3470  140.4140 C   0  0  0  0  0  0  0  0  0  0  0  0
  188.3500  177.6540  141.5320 C   0  0  0  0  0  0  0  0  0  0  0  0
  187.4220  176.9890  138.1610 N   0  0  0  0  0  1  0  0  0  0  0  0
  189.1140  178.4290  139.2410 C   0  0  1  0  0  3  0  0  0  0  0  0
  188.6900  177.6910  138.0090 C   0  0  2  0  0  3  0  0  0  0  0  0
  188.4820  179.0740  138.1610 O   0  0  0  0  0  0  0  0  0  0  0  0
  187.2890  177.3760  147.7920 N   0  0  0  0  0  2  0  0  0  0  0  0
  186.4130  178.4870  147.4510 C   0  0  0  0  0  2  0  0  0  0  0  0
  185.3460  178.0300  146.4700 C   0  0  0  0  0  2  0  0  0  0  0  0
  183.6970  179.0590  144.9050 C   0  0  0  0  0  1  0  0  0  0  0  0
  185.1470  179.0470  145.3550 C   0  0  0  0  0  2  0  0  0  0  0  0
  1  6  1  6  0  0  0
  1  8  1  0  0  0  0
  2 12  1  1  0  0  0
  2  5  1  0  0  0  0
  2  1  1  0  0  0  0
  3 11  2  0  0  0  0
  3  4  1  0  0  0  0
  4  2  1  0  0  0  0
  4  6  2  0  0  0  0
  5 12  1  6  0  0  0
  5  9  1  0  0  0  0
  7  6  1  0  0  0  0
  9 27  1  6  0  0  0
  9  8  1  0  0  0  0
 10  7  2  0  0  0  0
 11 10  1  0  0  0  0
 13 14  2  0  0  0  0
 13  3  1  0  0  0  0
 15 13  2  0  0  0  0
 16 13  1  0  0  0  0
 17 18  1  6  0  0  0
 17 19  1  0  0  0  0
 20 17  1  0  0  0  0
 21 20  1  0  0  0  0
 21 22  2  0  0  0  0
 22 16  1  0  0  0  0
 22 19  1  0  0  0  0
 24 21  1  1  0  0  0
 25 26  1  0  0  0  0
 25 23  1  1  0  0  0
 25 24  1  0  0  0  0
 26 24  1  0  0  0  0
 28 27  1  0  0  0  0
 29 28  1  0  0  0  0
 30 31  1  0  0  0  0
 31 29  1  0  0  0  0
M  END
>  <MODEL>
1

>  <REMARK>
 VINA RESULT:      -7.1      0.000      0.000
  Name = 
  8 active torsions:
  status: ('A' for Active; 'I' for Inactive)
    1  A    between atoms: C_5  and  S_15
    2  A    between atoms: C_6  and  C_8
    3  A    between atoms: C_6  and  N_25
    4  A    between atoms: C_8  and  C_27
    5  A    between atoms: S_15  and  N_29
    6  A    between atoms: C_17  and  C_24
    7  A    between atoms: C_23  and  N_25
    8  A    between atoms: N_29  and  C_31
                            x       y       z     vdW  Elec       q    Type
                         _______ _______ _______ _____ _____    ______ ____

>  <TORSDO>
F 8

$$$$
=
 OpenBabel11062414333D

 31 36  0  0  1  0  0  0  0  0999 V2000
  186.9740  177.2120  144.6470 C   0  0  2  0  0  3  0  0  0  0  0  0
  186.7210  177.2410  143.2030 C   0  0  2  0  0  0  0  0  0  0  0  0
  184.3680  178.6980  143.0140 C   0  0  0  0  0  0  0  0  0  0  0  0
  185.4910  178.0630  143.5180 C   0  0  0  0  0  0  0  0  0  0  0  0
  188.1830  177.2470  142.6890 C   0  0  2  0  0  3  0  0  0  0  0  0
  185.7930  178.0650  144.8970 C   0  0  0  0  0  0  0  0  0  0  0  0
  185.0050  178.7160  145.8220 C   0  0  0  0  0  3  0  0  0  0  0  0
  188.1660  177.8790  144.9600 O   0  0  0  0  0  0  0  0  0  0  0  0
  189.0250  177.5020  143.9260 C   0  0  2  0  0  3  0  0  0  0  0  0
  183.9040  179.3630  145.3180 N   0  0  0  0  0  0  0  0  0  0  0  0
  183.5730  179.3680  143.9760 C   0  0  0  0  0  3  0  0  0  0  0  0
  187.3650  178.3960  142.3730 C   0  0  0  0  0  2  0  0  0  0  0  0
  183.9550  178.6930  141.3100 S   0  0  0  0  0  0  0  0  0  0  0  0
  184.9100  179.5820  140.5600 O   0  0  0  0  0  0  0  0  0  0  0  0
  184.0600  177.2840  140.7940 O   0  0  0  0  0  0  0  0  0  0  0  0
  182.3320  179.2770  141.1320 N   0  0  0  0  0  2  0  0  0  0  0  0
  179.7260  176.7070  140.3080 C   0  0  1  0  0  3  0  0  0  0  0  0
  179.2070  176.5560  138.8920 C   0  0  0  0  0  1  0  0  0  0  0  0
  181.1870  177.1580  140.2750 C   0  0  0  0  0  2  0  0  0  0  0  0
  179.0400  177.7660  140.9570 O   0  0  0  0  0  0  0  0  0  0  0  0
  179.9040  178.7900  141.2990 C   0  0  0  0  0  0  0  0  0  0  0  0
  181.1430  178.4990  140.9220 C   0  0  0  0  0  0  0  0  0  0  0  0
  179.3670  178.4770  143.9630 N   0  0  0  0  0  1  0  0  0  0  0  0
  179.4460  180.0200  142.0350 C   0  0  1  0  0  3  0  0  0  0  0  0
  179.1640  179.8420  143.4950 C   0  0  2  0  0  3  0  0  0  0  0  0
  180.3840  180.3640  143.0280 O   0  0  0  0  0  0  0  0  0  0  0  0
  190.0020  178.5510  143.6820 N   0  0  0  0  0  2  0  0  0  0  0  0
  191.2000  178.1860  144.4230 C   0  0  0  0  0  2  0  0  0  0  0  0
  191.2020  176.6930  144.7100 C   0  0  0  0  0  2  0  0  0  0  0  0
  190.7590  176.7570  147.1640 C   0  0  0  0  0  1  0  0  0  0  0  0
  191.7690  176.3950  146.0910 C   0  0  0  0  0  2  0  0  0  0  0  0
  1  6  1  1  0  0  0
  1  8  1  0  0  0  0
  2 12  1  1  0  0  0
  2  4  1  0  0  0  0
  2  1  1  0  0  0  0
  3  4  2  0  0  0  0
  3 11  1  0  0  0  0
  4  6  1  0  0  0  0
  5 12  1  6  0  0  0
  5  2  1  0  0  0  0
  5  9  1  0  0  0  0
  6  7  2  0  0  0  0
  9 27  1  6  0  0  0
  9  8  1  0  0  0  0
 10  7  1  0  0  0  0
 11 10  2  0  0  0  0
 13  3  1  0  0  0  0
 14 13  2  0  0  0  0
 15 13  2  0  0  0  0
 16 13  1  0  0  0  0
 17 18  1  6  0  0  0
 17 20  1  0  0  0  0
 19 17  1  0  0  0  0
 19 22  1  0  0  0  0
 20 21  1  0  0  0  0
 22 16  1  0  0  0  0
 22 21  2  0  0  0  0
 24 21  1  6  0  0  0
 24 26  1  0  0  0  0
 24 25  1  0  0  0  0
 25 23  1  6  0  0  0
 26 25  1  0  0  0  0
 27 28  1  0  0  0  0
 28 29  1  0  0  0  0
 29 31  1  0  0  0  0
 31 30  1  0  0  0  0
M  END
>  <MODEL>
2

>  <REMARK>
 VINA RESULT:      -7.0      4.208      7.266
  Name = 
  8 active torsions:
  status: ('A' for Active; 'I' for Inactive)
    1  A    between atoms: C_5  and  S_15
    2  A    between atoms: C_6  and  C_8
    3  A    between atoms: C_6  and  N_25
    4  A    between atoms: C_8  and  C_27
    5  A    between atoms: S_15  and  N_29
    6  A    between atoms: C_17  and  C_24
    7  A    between atoms: C_23  and  N_25
    8  A    between atoms: N_29  and  C_31
                            x       y       z     vdW  Elec       q    Type
                         _______ _______ _______ _____ _____    ______ ____

>  <TORSDO>
F 8

$$$$
=
 OpenBabel11062414333D

 31 36  0  0  1  0  0  0  0  0999 V2000
  187.1000  176.9640  144.8980 C   0  0  2  0  0  3  0  0  0  0  0  0
  186.7810  177.0480  143.4680 C   0  0  2  0  0  0  0  0  0  0  0  0
  184.4830  178.6020  143.4360 C   0  0  0  0  0  0  0  0  0  0  0  0
  185.6010  177.9070  143.8670 C   0  0  0  0  0  0  0  0  0  0  0  0
  188.2160  177.0130  142.8860 C   0  0  2  0  0  3  0  0  0  0  0  0
  185.9680  177.8540  145.2290 C   0  0  0  0  0  0  0  0  0  0  0  0
  185.2510  178.5070  146.2090 C   0  0  0  0  0  3  0  0  0  0  0  0
  188.3310  177.5730  145.1720 O   0  0  0  0  0  0  0  0  0  0  0  0
  189.1250  177.1950  144.0870 C   0  0  2  0  0  3  0  0  0  0  0  0
  184.1550  179.2110  145.7780 N   0  0  0  0  0  0  0  0  0  0  0  0
  183.7610  179.2710  144.4550 C   0  0  0  0  0  3  0  0  0  0  0  0
  187.4320  178.2020  142.6430 C   0  0  0  0  0  2  0  0  0  0  0  0
  183.9910  178.6650  141.7540 S   0  0  0  0  0  0  0  0  0  0  0  0
  184.8910  179.6100  141.0040 O   0  0  0  0  0  0  0  0  0  0  0  0
  184.1000  177.2850  141.1680 O   0  0  0  0  0  0  0  0  0  0  0  0
  182.3490  179.2210  141.6790 N   0  0  0  0  0  2  0  0  0  0  0  0
  179.2120  177.5640  140.4590 C   0  0  1  0  0  3  0  0  0  0  0  0
  179.0980  176.0520  140.4250 C   0  0  0  0  0  1  0  0  0  0  0  0
  180.1120  177.9850  141.6220 C   0  0  0  0  0  2  0  0  0  0  0  0
  179.8910  178.0170  139.2990 O   0  0  0  0  0  0  0  0  0  0  0  0
  181.0830  178.6390  139.6250 C   0  0  0  0  0  0  0  0  0  0  0  0
  181.2640  178.6380  140.9400 C   0  0  0  0  0  0  0  0  0  0  0  0
  182.6400  176.9010  138.1960 N   0  0  0  0  0  1  0  0  0  0  0  0
  181.9840  179.2500  138.5870 C   0  0  1  0  0  3  0  0  0  0  0  0
  182.8250  178.2910  137.8020 C   0  0  2  0  0  3  0  0  0  0  0  0
  181.6130  178.8030  137.3030 O   0  0  0  0  0  0  0  0  0  0  0  0
  190.1310  178.2120  143.8270 N   0  0  0  0  0  2  0  0  0  0  0  0
  191.2010  177.9970  144.7900 C   0  0  0  0  0  2  0  0  0  0  0  0
  191.5740  176.5240  144.8350 C   0  0  0  0  0  2  0  0  0  0  0  0
  191.0530  176.7700  147.2630 C   0  0  0  0  0  1  0  0  0  0  0  0
  191.9500  176.0910  146.2450 C   0  0  0  0  0  2  0  0  0  0  0  0
  1  8  1  6  0  0  0
  1  6  1  0  0  0  0
  2 12  1  1  0  0  0
  2  4  1  0  0  0  0
  2  1  1  0  0  0  0
  3  4  2  0  0  0  0
  3 11  1  0  0  0  0
  4  6  1  0  0  0  0
  5 12  1  6  0  0  0
  5  2  1  0  0  0  0
  5  9  1  0  0  0  0
  6  7  2  0  0  0  0
  9 27  1  6  0  0  0
  9  8  1  0  0  0  0
 10  7  1  0  0  0  0
 11 10  2  0  0  0  0
 13  3  1  0  0  0  0
 14 13  2  0  0  0  0
 15 13  2  0  0  0  0
 16 13  1  0  0  0  0
 17 18  1  6  0  0  0
 17 19  1  0  0  0  0
 20 21  1  0  0  0  0
 20 17  1  0  0  0  0
 21 22  2  0  0  0  0
 22 19  1  0  0  0  0
 22 16  1  0  0  0  0
 24 21  1  1  0  0  0
 25 23  1  1  0  0  0
 25 24  1  0  0  0  0
 26 25  1  0  0  0  0
 26 24  1  0  0  0  0
 27 28  1  0  0  0  0
 28 29  1  0  0  0  0
 29 31  1  0  0  0  0
 31 30  1  0  0  0  0
M  END
>  <MODEL>
3

>  <REMARK>
 VINA RESULT:      -7.0      3.802      6.539
  Name = 
  8 active torsions:
  status: ('A' for Active; 'I' for Inactive)
    1  A    between atoms: C_5  and  S_15
    2  A    between atoms: C_6  and  C_8
    3  A    between atoms: C_6  and  N_25
    4  A    between atoms: C_8  and  C_27
    5  A    between atoms: S_15  and  N_29
    6  A    between atoms: C_17  and  C_24
    7  A    between atoms: C_23  and  N_25
    8  A    between atoms: N_29  and  C_31
                            x       y       z     vdW  Elec       q    Type
                         _______ _______ _______ _____ _____    ______ ____

>  <TORSDO>
F 8

$$$$
=
 OpenBabel11062414333D

 31 36  0  0  1  0  0  0  0  0999 V2000
  187.2140  177.2640  144.5770 C   0  0  2  0  0  3  0  0  0  0  0  0
  187.0570  177.1910  143.1210 C   0  0  2  0  0  0  0  0  0  0  0  0
  184.7770  178.7040  142.6650 C   0  0  0  0  0  0  0  0  0  0  0  0
  185.8400  178.0740  143.2900 C   0  0  0  0  0  0  0  0  0  0  0  0
  188.5490  177.1120  142.7090 C   0  0  2  0  0  3  0  0  0  0  0  0
  186.0510  178.1710  144.6830 C   0  0  0  0  0  0  0  0  0  0  0  0
  185.2290  178.9150  145.5000 C   0  0  0  0  0  3  0  0  0  0  0  0
  188.4060  177.9150  144.9210 O   0  0  0  0  0  0  0  0  0  0  0  0
  189.3170  177.4330  143.9790 C   0  0  2  0  0  3  0  0  0  0  0  0
  184.1870  179.5560  144.8760 N   0  0  0  0  0  0  0  0  0  0  0  0
  183.9450  179.4700  143.5180 C   0  0  0  0  0  3  0  0  0  0  0  0
  187.7960  178.2580  142.2540 C   0  0  0  0  0  2  0  0  0  0  0  0
  184.4770  178.5820  140.9410 S   0  0  0  0  0  0  0  0  0  0  0  0
  183.7890  177.2760  140.6450 O   0  0  0  0  0  0  0  0  0  0  0  0
  183.5960  179.7270  140.5240 O   0  0  0  0  0  0  0  0  0  0  0  0
  185.9960  178.6580  140.1080 N   0  0  0  0  0  2  0  0  0  0  0  0
  185.9420  177.5220  136.5330 C   0  0  1  0  0  3  0  0  0  0  0  0
  185.7850  176.0540  136.1890 C   0  0  0  0  0  1  0  0  0  0  0  0
  185.1890  177.8300  137.8280 C   0  0  0  0  0  2  0  0  0  0  0  0
  187.3000  177.7980  136.8350 O   0  0  0  0  0  0  0  0  0  0  0  0
  187.4490  178.2160  138.1450 C   0  0  0  0  0  0  0  0  0  0  0  0
  186.2740  178.2410  138.7620 C   0  0  0  0  0  0  0  0  0  0  0  0
  189.2170  176.1850  138.6300 N   0  0  0  0  0  1  0  0  0  0  0  0
  188.7820  178.6150  138.7170 C   0  0  1  0  0  3  0  0  0  0  0  0
  189.7470  177.4990  138.9700 C   0  0  2  0  0  3  0  0  0  0  0  0
  189.8120  178.2940  137.8120 O   0  0  0  0  0  0  0  0  0  0  0  0
  190.3460  178.4290  143.7250 N   0  0  0  0  0  2  0  0  0  0  0  0
  191.5310  177.9970  144.4490 C   0  0  0  0  0  2  0  0  0  0  0  0
  191.3960  176.5370  144.8510 C   0  0  0  0  0  2  0  0  0  0  0  0
  190.8340  176.7650  147.2710 C   0  0  0  0  0  1  0  0  0  0  0  0
  191.8820  176.3070  146.2740 C   0  0  0  0  0  2  0  0  0  0  0  0
  1  6  1  1  0  0  0
  1  8  1  0  0  0  0
  2 12  1  1  0  0  0
  2  4  1  0  0  0  0
  2  1  1  0  0  0  0
  3  4  2  0  0  0  0
  3 11  1  0  0  0  0
  4  6  1  0  0  0  0
  5 12  1  6  0  0  0
  5  2  1  0  0  0  0
  5  9  1  0  0  0  0
  6  7  2  0  0  0  0
  9 27  1  6  0  0  0
  9  8  1  0  0  0  0
 10  7  1  0  0  0  0
 11 10  2  0  0  0  0
 13  3  1  0  0  0  0
 14 13  2  0  0  0  0
 15 13  2  0  0  0  0
 16 13  1  0  0  0  0
 17 18  1  1  0  0  0
 17 20  1  0  0  0  0
 17 19  1  0  0  0  0
 19 22  1  0  0  0  0
 20 21  1  0  0  0  0
 21 22  2  0  0  0  0
 22 16  1  0  0  0  0
 24 21  1  6  0  0  0
 24 25  1  0  0  0  0
 25 23  1  6  0  0  0
 26 24  1  0  0  0  0
 26 25  1  0  0  0  0
 27 28  1  0  0  0  0
 28 29  1  0  0  0  0
 29 31  1  0  0  0  0
 31 30  1  0  0  0  0
M  END
>  <MODEL>
4

>  <REMARK>
 VINA RESULT:      -6.8      2.579      5.672
  Name = 
  8 active torsions:
  status: ('A' for Active; 'I' for Inactive)
    1  A    between atoms: C_5  and  S_15
    2  A    between atoms: C_6  and  C_8
    3  A    between atoms: C_6  and  N_25
    4  A    between atoms: C_8  and  C_27
    5  A    between atoms: S_15  and  N_29
    6  A    between atoms: C_17  and  C_24
    7  A    between atoms: C_23  and  N_25
    8  A    between atoms: N_29  and  C_31
                            x       y       z     vdW  Elec       q    Type
                         _______ _______ _______ _____ _____    ______ ____

>  <TORSDO>
F 8

$$$$
=
 OpenBabel11062414333D

 31 36  0  0  1  0  0  0  0  0999 V2000
  187.6180  176.7980  144.9000 C   0  0  2  0  0  3  0  0  0  0  0  0
  187.1200  176.9140  143.5250 C   0  0  2  0  0  0  0  0  0  0  0  0
  184.9820  178.6630  143.7860 C   0  0  0  0  0  0  0  0  0  0  0  0
  186.0830  177.8720  144.0700 C   0  0  0  0  0  0  0  0  0  0  0  0
  188.4560  176.7560  142.7570 C   0  0  2  0  0  3  0  0  0  0  0  0
  186.6220  177.7830  145.3710 C   0  0  0  0  0  0  0  0  0  0  0  0
  186.1020  178.4920  146.4330 C   0  0  0  0  0  3  0  0  0  0  0  0
  188.9230  177.2970  145.0030 O   0  0  0  0  0  0  0  0  0  0  0  0
  189.5290  176.8540  143.8250 C   0  0  2  0  0  3  0  0  0  0  0  0
  185.0230  179.2910  146.1460 N   0  0  0  0  0  0  0  0  0  0  0  0
  184.4640  179.3900  144.8860 C   0  0  0  0  0  3  0  0  0  0  0  0
  187.7530  178.0100  142.6110 C   0  0  0  0  0  2  0  0  0  0  0  0
  184.2770  178.7750  142.1840 S   0  0  0  0  0  0  0  0  0  0  0  0
  185.0670  179.7540  141.3570 O   0  0  0  0  0  0  0  0  0  0  0  0
  184.3220  177.4160  141.5430 O   0  0  0  0  0  0  0  0  0  0  0  0
  182.6360  179.3130  142.3380 N   0  0  0  0  0  2  0  0  0  0  0  0
  179.3820  178.0470  140.9670 C   0  0  1  0  0  3  0  0  0  0  0  0
  179.1620  176.5640  140.7370 C   0  0  0  0  0  1  0  0  0  0  0  0
  180.3180  178.2500  142.1590 C   0  0  0  0  0  2  0  0  0  0  0  0
  180.0810  178.6000  139.8640 O   0  0  0  0  0  0  0  0  0  0  0  0
  181.3160  179.0920  140.2470 C   0  0  0  0  0  0  0  0  0  0  0  0
  181.5070  178.9070  141.5480 C   0  0  0  0  0  0  0  0  0  0  0  0
  182.7790  177.4520  138.6170 N   0  0  0  0  0  1  0  0  0  0  0  0
  182.2490  179.7720  139.2830 C   0  0  1  0  0  3  0  0  0  0  0  0
  183.0380  178.8680  138.3870 C   0  0  2  0  0  3  0  0  0  0  0  0
  181.8560  179.4980  137.9580 O   0  0  0  0  0  0  0  0  0  0  0  0
  190.5770  177.7800  143.4250 N   0  0  0  0  0  2  0  0  0  0  0  0
  191.5200  177.0200  142.6190 C   0  0  0  0  0  2  0  0  0  0  0  0
  191.6750  177.6640  141.2510 C   0  0  0  0  0  2  0  0  0  0  0  0
  189.9100  177.7260  139.4880 C   0  0  0  0  0  1  0  0  0  0  0  0
  190.9520  176.8640  140.1770 C   0  0  0  0  0  2  0  0  0  0  0  0
  1  8  1  6  0  0  0
  1  6  1  0  0  0  0
  2 12  1  1  0  0  0
  2  4  1  0  0  0  0
  2  1  1  0  0  0  0
  3  4  2  0  0  0  0
  3 11  1  0  0  0  0
  4  6  1  0  0  0  0
  5 12  1  6  0  0  0
  5  2  1  0  0  0  0
  5  9  1  0  0  0  0
  6  7  2  0  0  0  0
  9 27  1  6  0  0  0
  9  8  1  0  0  0  0
 10  7  1  0  0  0  0
 11 10  2  0  0  0  0
 13 16  1  0  0  0  0
 13  3  1  0  0  0  0
 14 13  2  0  0  0  0
 15 13  2  0  0  0  0
 17 18  1  6  0  0  0
 17 19  1  0  0  0  0
 20 21  1  0  0  0  0
 20 17  1  0  0  0  0
 21 22  2  0  0  0  0
 22 19  1  0  0  0  0
 22 16  1  0  0  0  0
 24 21  1  1  0  0  0
 25 23  1  1  0  0  0
 25 24  1  0  0  0  0
 26 25  1  0  0  0  0
 26 24  1  0  0  0  0
 28 27  1  0  0  0  0
 29 28  1  0  0  0  0
 30 31  1  0  0  0  0
 31 29  1  0  0  0  0
M  END
>  <MODEL>
5

>  <REMARK>
 VINA RESULT:      -6.8      3.690      6.454
  Name = 
  8 active torsions:
  status: ('A' for Active; 'I' for Inactive)
    1  A    between atoms: C_5  and  S_15
    2  A    between atoms: C_6  and  C_8
    3  A    between atoms: C_6  and  N_25
    4  A    between atoms: C_8  and  C_27
    5  A    between atoms: S_15  and  N_29
    6  A    between atoms: C_17  and  C_24
    7  A    between atoms: C_23  and  N_25
    8  A    between atoms: N_29  and  C_31
                            x       y       z     vdW  Elec       q    Type
                         _______ _______ _______ _____ _____    ______ ____

>  <TORSDO>
F 8

$$$$
=
 OpenBabel11062414333D

 31 36  0  0  1  0  0  0  0  0999 V2000
  187.8060  176.6160  143.8030 C   0  0  2  0  0  3  0  0  0  0  0  0
  188.6020  176.6340  142.5710 C   0  0  2  0  0  0  0  0  0  0  0  0
  187.1090  178.2640  140.8930 C   0  0  0  0  0  0  0  0  0  0  0  0
  187.5450  177.5550  142.0000 C   0  0  0  0  0  0  0  0  0  0  0  0
  190.0200  176.5180  143.1830 C   0  0  2  0  0  3  0  0  0  0  0  0
  186.8320  177.5630  143.2190 C   0  0  0  0  0  0  0  0  0  0  0  0
  185.6750  178.2910  143.3900 C   0  0  0  0  0  3  0  0  0  0  0  0
  188.5140  177.1970  144.8640 O   0  0  0  0  0  0  0  0  0  0  0  0
  189.8170  176.7330  144.6710 C   0  0  2  0  0  3  0  0  0  0  0  0
  185.2560  179.0100  142.2970 N   0  0  0  0  0  0  0  0  0  0  0  0
  185.9220  179.0120  141.0870 C   0  0  0  0  0  3  0  0  0  0  0  0
  189.7170  177.7190  142.4380 C   0  0  0  0  0  2  0  0  0  0  0  0
  187.9610  178.2540  139.3600 S   0  0  0  0  0  0  0  0  0  0  0  0
  189.0540  179.2880  139.3880 O   0  0  0  0  0  0  0  0  0  0  0  0
  188.5570  176.8890  139.1500 O   0  0  0  0  0  0  0  0  0  0  0  0
  186.8290  178.6160  138.0960 N   0  0  0  0  0  2  0  0  0  0  0  0
  183.6450  176.8210  137.2540 C   0  0  1  0  0  3  0  0  0  0  0  0
  183.1150  175.7200  138.1530 C   0  0  0  0  0  1  0  0  0  0  0  0
  184.3870  177.8600  138.0960 C   0  0  0  0  0  2  0  0  0  0  0  0
  184.6330  176.2910  136.3860 O   0  0  0  0  0  0  0  0  0  0  0  0
  185.8670  176.8730  136.6150 C   0  0  0  0  0  0  0  0  0  0  0  0
  185.7860  177.7680  137.5910 C   0  0  0  0  0  0  0  0  0  0  0  0
  187.0870  174.4990  137.2180 N   0  0  0  0  0  1  0  0  0  0  0  0
  187.0860  176.5250  135.8040 C   0  0  1  0  0  3  0  0  0  0  0  0
  187.7420  175.2190  136.1340 C   0  0  2  0  0  3  0  0  0  0  0  0
  186.8490  175.3560  135.0550 O   0  0  0  0  0  0  0  0  0  0  0  0
  190.7720  177.6990  145.1910 N   0  0  0  0  0  2  0  0  0  0  0  0
  191.3170  177.1290  146.4140 C   0  0  0  0  0  2  0  0  0  0  0  0
  190.1910  176.7650  147.3680 C   0  0  0  0  0  2  0  0  0  0  0  0
  188.2190  177.7230  148.5600 C   0  0  0  0  0  1  0  0  0  0  0  0
  189.6220  178.0000  148.0510 C   0  0  0  0  0  2  0  0  0  0  0  0
  1  6  1  6  0  0  0
  1  8  1  0  0  0  0
  2 12  1  1  0  0  0
  2  5  1  0  0  0  0
  2  1  1  0  0  0  0
  3 11  2  0  0  0  0
  3  4  1  0  0  0  0
  4  2  1  0  0  0  0
  4  6  2  0  0  0  0
  5 12  1  6  0  0  0
  5  9  1  0  0  0  0
  6  7  1  0  0  0  0
  9  8  1  0  0  0  0
  9 27  1  6  0  0  0
 10  7  2  0  0  0  0
 11 10  1  0  0  0  0
 13 14  2  0  0  0  0
 13  3  1  0  0  0  0
 15 13  2  0  0  0  0
 16 13  1  0  0  0  0
 17 19  1  0  0  0  0
 17 18  1  1  0  0  0
 20 21  1  0  0  0  0
 20 17  1  0  0  0  0
 21 22  2  0  0  0  0
 22 16  1  0  0  0  0
 22 19  1  0  0  0  0
 24 25  1  0  0  0  0
 24 21  1  1  0  0  0
 25 23  1  1  0  0  0
 26 24  1  0  0  0  0
 26 25  1  0  0  0  0
 27 28  1  0  0  0  0
 28 29  1  0  0  0  0
 29 31  1  0  0  0  0
 31 30  1  0  0  0  0
M  END
>  <MODEL>
6

>  <REMARK>
 VINA RESULT:      -6.8      2.831      5.068
  Name = 
  8 active torsions:
  status: ('A' for Active; 'I' for Inactive)
    1  A    between atoms: C_5  and  S_15
    2  A    between atoms: C_6  and  C_8
    3  A    between atoms: C_6  and  N_25
    4  A    between atoms: C_8  and  C_27
    5  A    between atoms: S_15  and  N_29
    6  A    between atoms: C_17  and  C_24
    7  A    between atoms: C_23  and  N_25
    8  A    between atoms: N_29  and  C_31
                            x       y       z     vdW  Elec       q    Type
                         _______ _______ _______ _____ _____    ______ ____

>  <TORSDO>
F 8

$$$$
=
 OpenBabel11062414333D

 31 36  0  0  1  0  0  0  0  0999 V2000
  188.4420  176.3770  143.9290 C   0  0  2  0  0  3  0  0  0  0  0  0
  187.3320  177.0330  143.2290 C   0  0  2  0  0  0  0  0  0  0  0  0
  186.0010  178.3510  145.2740 C   0  0  0  0  0  0  0  0  0  0  0  0
  186.9240  177.5930  144.5740 C   0  0  0  0  0  0  0  0  0  0  0  0
  188.0200  177.3100  141.8680 C   0  0  2  0  0  3  0  0  0  0  0  0
  188.0350  176.9950  145.2080 C   0  0  0  0  0  0  0  0  0  0  0  0
  188.2810  177.1470  146.5560 C   0  0  0  0  0  3  0  0  0  0  0  0
  189.6760  176.8730  143.4880 O   0  0  0  0  0  0  0  0  0  0  0  0
  189.4890  177.0180  142.1120 C   0  0  2  0  0  3  0  0  0  0  0  0
  187.3760  177.9160  147.2450 N   0  0  0  0  0  0  0  0  0  0  0  0
  186.2720  178.5020  146.6570 C   0  0  0  0  0  3  0  0  0  0  0  0
  187.5840  178.4540  142.6350 C   0  0  0  0  0  2  0  0  0  0  0  0
  184.6000  179.0860  144.5170 S   0  0  0  0  0  0  0  0  0  0  0  0
  183.4340  179.0360  145.4670 O   0  0  0  0  0  0  0  0  0  0  0  0
  184.9270  180.5160  144.1870 O   0  0  0  0  0  0  0  0  0  0  0  0
  184.2280  178.2050  143.0700 N   0  0  0  0  0  2  0  0  0  0  0  0
  181.2710  179.1040  140.9430 C   0  0  1  0  0  3  0  0  0  0  0  0
  180.3860  178.0250  140.3510 C   0  0  0  0  0  1  0  0  0  0  0  0
  181.8320  178.6300  142.2840 C   0  0  0  0  0  2  0  0  0  0  0  0
  182.4130  179.2870  140.1220 O   0  0  0  0  0  0  0  0  0  0  0  0
  183.5760  178.9690  140.8000 C   0  0  0  0  0  0  0  0  0  0  0  0
  183.3010  178.5770  142.0370 C   0  0  0  0  0  0  0  0  0  0  0  0
  184.0340  177.5050  138.5350 N   0  0  0  0  0  1  0  0  0  0  0  0
  184.9380  179.1130  140.1770 C   0  0  1  0  0  3  0  0  0  0  0  0
  185.1770  178.3160  138.9320 C   0  0  2  0  0  3  0  0  0  0  0  0
  184.8240  179.6770  138.8920 O   0  0  0  0  0  0  0  0  0  0  0  0
  190.3240  178.0960  141.6060 N   0  0  0  0  0  2  0  0  0  0  0  0
  191.2380  177.5000  140.6440 C   0  0  0  0  0  2  0  0  0  0  0  0
  190.4680  176.6370  139.6570 C   0  0  0  0  0  2  0  0  0  0  0  0
  188.8680  177.7870  138.1260 C   0  0  0  0  0  1  0  0  0  0  0  0
  190.3060  177.3390  138.3170 C   0  0  0  0  0  2  0  0  0  0  0  0
  1  8  1  6  0  0  0
  1  6  1  0  0  0  0
  2 12  1  1  0  0  0
  2  1  1  0  0  0  0
  2  4  1  0  0  0  0
  3 11  1  0  0  0  0
  4  6  1  0  0  0  0
  4  3  2  0  0  0  0
  5  9  1  0  0  0  0
  5 12  1  1  0  0  0
  5  2  1  0  0  0  0
  6  7  2  0  0  0  0
  7 10  1  0  0  0  0
  9 27  1  1  0  0  0
  9  8  1  0  0  0  0
 11 10  2  0  0  0  0
 13  3  1  0  0  0  0
 13 14  2  0  0  0  0
 15 13  2  0  0  0  0
 16 13  1  0  0  0  0
 17 18  1  6  0  0  0
 17 19  1  0  0  0  0
 20 21  1  0  0  0  0
 20 17  1  0  0  0  0
 21 22  2  0  0  0  0
 22 19  1  0  0  0  0
 22 16  1  0  0  0  0
 24 21  1  6  0  0  0
 25 23  1  6  0  0  0
 25 24  1  0  0  0  0
 26 25  1  0  0  0  0
 26 24  1  0  0  0  0
 28 27  1  0  0  0  0
 29 28  1  0  0  0  0
 30 31  1  0  0  0  0
 31 29  1  0  0  0  0
M  END
>  <MODEL>
7

>  <REMARK>
 VINA RESULT:      -6.7      3.021      5.851
  Name = 
  8 active torsions:
  status: ('A' for Active; 'I' for Inactive)
    1  A    between atoms: C_5  and  S_15
    2  A    between atoms: C_6  and  C_8
    3  A    between atoms: C_6  and  N_25
    4  A    between atoms: C_8  and  C_27
    5  A    between atoms: S_15  and  N_29
    6  A    between atoms: C_17  and  C_24
    7  A    between atoms: C_23  and  N_25
    8  A    between atoms: N_29  and  C_31
                            x       y       z     vdW  Elec       q    Type
                         _______ _______ _______ _____ _____    ______ ____

>  <TORSDO>
F 8

$$$$
=
 OpenBabel11062414333D

 31 36  0  0  1  0  0  0  0  0999 V2000
  190.8750  176.8460  140.4060 C   0  0  2  0  0  3  0  0  0  0  0  0
  189.8930  177.8970  140.1180 C   0  0  2  0  0  0  0  0  0  0  0  0
  189.1440  177.3470  137.5040 C   0  0  0  0  0  0  0  0  0  0  0  0
  189.7470  177.2710  138.7480 C   0  0  0  0  0  0  0  0  0  0  0  0
  189.2830  178.0680  141.5310 C   0  0  2  0  0  3  0  0  0  0  0  0
  190.6540  176.2390  139.0770 C   0  0  0  0  0  0  0  0  0  0  0  0
  190.9760  175.2340  138.1900 C   0  0  0  0  0  3  0  0  0  0  0  0
  190.4240  176.0080  141.4350 O   0  0  0  0  0  0  0  0  0  0  0  0
  189.8220  176.8950  142.3290 C   0  0  2  0  0  3  0  0  0  0  0  0
  190.3610  175.2990  136.9640 N   0  0  0  0  0  0  0  0  0  0  0  0
  189.4810  176.3030  136.6070 C   0  0  0  0  0  3  0  0  0  0  0  0
  188.4000  177.6190  140.4800 C   0  0  0  0  0  2  0  0  0  0  0  0
  188.0340  178.6290  137.0600 S   0  0  0  0  0  0  0  0  0  0  0  0
  188.7090  179.9620  137.2430 O   0  0  0  0  0  0  0  0  0  0  0  0
  187.6430  178.4500  135.6190 O   0  0  0  0  0  0  0  0  0  0  0  0
  186.6340  178.5260  138.0800 N   0  0  0  0  0  2  0  0  0  0  0  0
  183.9990  176.0090  137.1860 C   0  0  1  0  0  3  0  0  0  0  0  0
  183.5050  175.8780  135.7590 C   0  0  0  0  0  1  0  0  0  0  0  0
  185.4690  176.4330  137.1850 C   0  0  0  0  0  2  0  0  0  0  0  0
  183.3190  177.0750  137.8300 O   0  0  0  0  0  0  0  0  0  0  0  0
  184.1950  178.0810  138.1960 C   0  0  0  0  0  0  0  0  0  0  0  0
  185.4350  177.7710  137.8410 C   0  0  0  0  0  0  0  0  0  0  0  0
  183.6230  177.7620  140.8530 N   0  0  0  0  0  1  0  0  0  0  0  0
  183.7450  179.3130  138.9340 C   0  0  1  0  0  3  0  0  0  0  0  0
  183.4440  179.1320  140.3890 C   0  0  2  0  0  3  0  0  0  0  0  0
  184.6760  179.6400  139.9390 O   0  0  0  0  0  0  0  0  0  0  0  0
  188.7530  176.2250  143.0530 N   0  0  0  0  0  2  0  0  0  0  0  0
  188.5740  176.9540  144.3000 C   0  0  0  0  0  2  0  0  0  0  0  0
  187.1110  177.3230  144.4830 C   0  0  0  0  0  2  0  0  0  0  0  0
  185.4760  178.3780  146.0460 C   0  0  0  0  0  1  0  0  0  0  0  0
  186.7970  177.6370  145.9390 C   0  0  0  0  0  2  0  0  0  0  0  0
  1  6  1  6  0  0  0
  1  8  1  0  0  0  0
  2  1  1  0  0  0  0
  2 12  1  1  0  0  0
  2  5  1  0  0  0  0
  3  4  1  0  0  0  0
  4  6  2  0  0  0  0
  4  2  1  0  0  0  0
  5 12  1  6  0  0  0
  5  9  1  0  0  0  0
  7  6  1  0  0  0  0
  8  9  1  0  0  0  0
  9 27  1  6  0  0  0
 10  7  2  0  0  0  0
 11 10  1  0  0  0  0
 11  3  2  0  0  0  0
 13 14  2  0  0  0  0
 13  3  1  0  0  0  0
 13 16  1  0  0  0  0
 15 13  2  0  0  0  0
 17 18  1  6  0  0  0
 17 20  1  0  0  0  0
 19 17  1  0  0  0  0
 19 22  1  0  0  0  0
 20 21  1  0  0  0  0
 22 16  1  0  0  0  0
 22 21  2  0  0  0  0
 24 21  1  6  0  0  0
 24 26  1  0  0  0  0
 24 25  1  0  0  0  0
 25 23  1  6  0  0  0
 26 25  1  0  0  0  0
 27 28  1  0  0  0  0
 28 29  1  0  0  0  0
 29 31  1  0  0  0  0
 31 30  1  0  0  0  0
M  END
>  <MODEL>
8

>  <REMARK>
 VINA RESULT:      -6.6      2.993      5.813
  Name = 
  8 active torsions:
  status: ('A' for Active; 'I' for Inactive)
    1  A    between atoms: C_5  and  S_15
    2  A    between atoms: C_6  and  C_8
    3  A    between atoms: C_6  and  N_25
    4  A    between atoms: C_8  and  C_27
    5  A    between atoms: S_15  and  N_29
    6  A    between atoms: C_17  and  C_24
    7  A    between atoms: C_23  and  N_25
    8  A    between atoms: N_29  and  C_31
                            x       y       z     vdW  Elec       q    Type
                         _______ _______ _______ _____ _____    ______ ____

>  <TORSDO>
F 8

$$$$
=
 OpenBabel11062414333D

 31 36  0  0  1  0  0  0  0  0999 V2000
  188.8600  177.9590  139.2200 C   0  0  2  0  0  3  0  0  0  0  0  0
  187.7440  178.6380  139.8870 C   0  0  2  0  0  0  0  0  0  0  0  0
  185.5470  177.8300  138.3990 C   0  0  0  0  0  0  0  0  0  0  0  0
  186.8400  177.9730  138.8720 C   0  0  0  0  0  0  0  0  0  0  0  0
  188.2780  178.6330  141.3420 C   0  0  2  0  0  3  0  0  0  0  0  0
  187.9280  177.2890  138.2880 C   0  0  0  0  0  0  0  0  0  0  0  0
  187.7680  176.4220  137.2280 C   0  0  0  0  0  3  0  0  0  0  0  0
  189.4750  177.0410  140.0810 O   0  0  0  0  0  0  0  0  0  0  0  0
  189.4800  177.7070  141.3080 C   0  0  2  0  0  3  0  0  0  0  0  0
  186.4820  176.2660  136.7740 N   0  0  0  0  0  0  0  0  0  0  0  0
  185.3990  176.9310  137.3140 C   0  0  0  0  0  3  0  0  0  0  0  0
  187.0560  177.9070  141.0820 C   0  0  0  0  0  2  0  0  0  0  0  0
  184.1800  178.6840  139.0900 S   0  0  0  0  0  0  0  0  0  0  0  0
  184.5660  180.1150  139.3550 O   0  0  0  0  0  0  0  0  0  0  0  0
  183.0390  178.6390  138.1110 O   0  0  0  0  0  0  0  0  0  0  0  0
  183.7310  177.9040  140.5720 N   0  0  0  0  0  2  0  0  0  0  0  0
  183.4870  179.4900  143.9630 C   0  0  1  0  0  3  0  0  0  0  0  0
  183.4320  178.6370  145.2150 C   0  0  0  0  0  1  0  0  0  0  0  0
  184.3270  178.7850  142.8970 C   0  0  0  0  0  2  0  0  0  0  0  0
  182.1910  179.5840  143.3940 O   0  0  0  0  0  0  0  0  0  0  0  0
  182.1530  179.0130  142.1340 C   0  0  0  0  0  0  0  0  0  0  0  0
  183.3450  178.5300  141.8060 C   0  0  0  0  0  0  0  0  0  0  0  0
  179.9820  177.7080  143.1690 N   0  0  0  0  0  1  0  0  0  0  0  0
  180.9100  179.0110  141.2870 C   0  0  1  0  0  3  0  0  0  0  0  0
  179.7230  178.3040  141.8650 C   0  0  2  0  0  3  0  0  0  0  0  0
  179.8740  179.7000  141.9480 O   0  0  0  0  0  0  0  0  0  0  0  0
  189.4250  176.7460  142.3980 N   0  0  0  0  0  2  0  0  0  0  0  0
  189.9890  177.4060  143.5650 C   0  0  0  0  0  2  0  0  0  0  0  0
  189.2230  177.0030  144.8150 C   0  0  0  0  0  2  0  0  0  0  0  0
  187.0880  177.8770  145.7640 C   0  0  0  0  0  1  0  0  0  0  0  0
  187.7210  177.1260  144.6070 C   0  0  0  0  0  2  0  0  0  0  0  0
  1  6  1  6  0  0  0
  1  2  1  0  0  0  0
  1  8  1  0  0  0  0
  2 12  1  1  0  0  0
  2  5  1  0  0  0  0
  3  4  1  0  0  0  0
  3 13  1  0  0  0  0
  4  2  1  0  0  0  0
  5 12  1  1  0  0  0
  6  4  2  0  0  0  0
  7  6  1  0  0  0  0
  8  9  1  0  0  0  0
  9  5  1  0  0  0  0
  9 27  1  1  0  0  0
 10  7  2  0  0  0  0
 10 11  1  0  0  0  0
 11  3  2  0  0  0  0
 13 14  2  0  0  0  0
 13 16  1  0  0  0  0
 15 13  2  0  0  0  0
 16 22  1  0  0  0  0
 17 18  1  1  0  0  0
 19 17  1  0  0  0  0
 20 17  1  0  0  0  0
 21 20  1  0  0  0  0
 22 21  2  0  0  0  0
 22 19  1  0  0  0  0
 24 25  1  0  0  0  0
 24 26  1  0  0  0  0
 24 21  1  1  0  0  0
 25 26  1  0  0  0  0
 25 23  1  1  0  0  0
 27 28  1  0  0  0  0
 28 29  1  0  0  0  0
 31 29  1  0  0  0  0
 31 30  1  0  0  0  0
M  END
>  <MODEL>
9

>  <REMARK>
 VINA RESULT:      -6.6      3.527      7.174
  Name = 
  8 active torsions:
  status: ('A' for Active; 'I' for Inactive)
    1  A    between atoms: C_5  and  S_15
    2  A    between atoms: C_6  and  C_8
    3  A    between atoms: C_6  and  N_25
    4  A    between atoms: C_8  and  C_27
    5  A    between atoms: S_15  and  N_29
    6  A    between atoms: C_17  and  C_24
    7  A    between atoms: C_23  and  N_25
    8  A    between atoms: N_29  and  C_31
                            x       y       z     vdW  Elec       q    Type
                         _______ _______ _______ _____ _____    ______ ____

>  <TORSDO>
F 8

$$$$
