=
 OpenBabel11062414093D

 53 60  0  0  1  0  0  0  0  0999 V2000
  183.1350  175.8270  138.1330 C   0  0  2  0  0  3  0  0  0  0  0  0
  182.7570  175.1630  136.8020 C   0  0  1  0  0  3  0  0  0  0  0  0
  184.0070  177.6100  139.0550 C   0  0  1  0  0  3  0  0  0  0  0  0
  184.0870  173.3970  135.2860 C   0  0  2  0  0  0  0  0  0  0  0  0
  182.0080  176.4430  138.7260 O   0  0  0  0  0  0  0  0  0  0  0  0
  185.4110  173.0530  134.5940 C   0  0  1  0  0  3  0  0  0  0  0  0
  188.3790  176.4680  135.7110 C   0  0  2  0  0  3  0  0  0  0  0  0
  182.5280  177.5780  139.3540 C   0  0  1  0  0  3  0  0  0  0  0  0
  185.5790  179.2700  137.9030 O   0  0  0  0  0  0  0  0  0  0  0  0
  185.6340  172.8460  137.1470 N   0  0  0  0  0  2  0  0  0  0  0  0
  188.8060  176.0330  137.1040 C   0  0  2  0  0  3  0  0  0  0  0  0
  187.2850  177.6460  138.4650 C   0  0  1  0  0  3  0  0  0  0  0  0
  183.9630  179.9840  139.3500 O   0  0  0  0  0  0  0  0  0  0  0  0
  184.1590  176.7700  137.9550 O   0  0  0  0  0  0  0  0  0  0  0  0
  183.6230  172.3120  136.0590 O   0  0  0  0  0  0  0  0  0  0  0  0
  186.4360  178.2660  137.3630 C   0  0  0  0  0  2  0  0  0  0  0  0
  184.0420  174.7530  136.0460 C   0  0  1  0  0  3  0  0  0  0  0  0
  187.0890  174.3960  136.0700 C   0  0  1  0  0  3  0  0  0  0  0  0
  188.4930  174.9860  136.0200 C   0  0  1  0  0  3  0  0  0  0  0  0
  184.3760  175.7970  135.1740 O   0  0  0  0  0  1  0  0  0  0  0  0
  186.5890  174.0540  134.6700 C   0  0  0  0  0  2  0  0  0  0  0  0
  184.4960  179.0100  138.7560 C   0  0  0  0  0  0  0  0  0  0  0  0
  185.0150  172.3580  135.9040 C   0  0  1  0  0  0  0  0  0  0  0  0
  187.6950  176.2000  138.1530 C   0  0  0  0  0  2  0  0  0  0  0  0
  187.0360  173.1630  136.9380 C   0  0  0  0  0  2  0  0  0  0  0  0
  182.2420  177.5610  140.8520 C   0  0  0  0  0  2  0  0  0  0  0  0
  181.3680  178.7230  141.2850 C   0  0  0  0  0  1  0  0  0  0  0  0
  189.0880  179.1100  138.0990 O   0  0  0  0  0  0  0  0  0  0  0  0
  188.3930  178.5510  138.9350 C   0  0  0  0  0  0  0  0  0  0  0  0
  188.7120  178.6940  140.3950 C   0  0  1  0  0  3  0  0  0  0  0  0
  187.5210  178.2640  141.2380 C   0  0  0  0  0  1  0  0  0  0  0  0
  190.8280  177.3180  139.8940 C   0  0  0  0  0  3  0  0  0  0  0  0
  191.5930  177.1510  141.9820 C   0  0  0  0  0  3  0  0  0  0  0  0
  190.4580  177.8790  142.0290 N   0  0  0  0  0  0  0  0  0  0  0  0
  191.8560  176.7960  140.6680 C   0  0  0  0  0  3  0  0  0  0  0  0
  189.9710  177.9580  140.7790 C   0  0  0  0  0  0  0  0  0  0  0  0
  189.8170  178.4010  143.2450 C   0  0  0  0  0  2  0  0  0  0  0  0
  189.2240  177.2890  144.0690 C   0  0  0  0  0  0  0  0  0  0  0  0
  189.2040  176.1270  143.5820 O   0  0  0  0  0  0  0  0  0  0  0  0
  189.4920  177.3650  146.5570 C   0  0  0  0  0  3  0  0  0  0  0  0
  186.8210  178.1210  146.8780 C   0  0  0  0  0  3  0  0  0  0  0  0
  187.6380  177.9640  148.0010 C   0  0  0  0  0  3  0  0  0  0  0  0
  188.6830  177.5220  145.4230 C   0  0  0  0  0  0  0  0  0  0  0  0
  187.3410  177.9000  145.5950 C   0  0  0  0  0  3  0  0  0  0  0  0
  188.9750  177.5860  147.8400 C   0  0  0  0  0  3  0  0  0  0  0  0
  189.5520  176.9440  134.8440 C   0  0  0  0  0  2  0  0  0  0  0  0
  190.7680  176.3400  135.1790 O   0  0  0  0  0  1  0  0  0  0  0  0
  181.7570  174.0400  137.0680 C   0  0  0  0  0  2  0  0  0  0  0  0
  179.8500  175.3350  136.2680 N   0  0  0  0  0  1  0  0  0  0  0  0
  180.5900  174.0940  136.0960 C   0  0  2  0  0  3  0  0  0  0  0  0
  179.2860  172.6260  137.6170 O   0  0  0  0  0  1  0  0  0  0  0  0
  179.6870  172.9340  136.3230 C   0  0  0  0  0  0  0  0  0  0  0  0
  179.2560  172.2590  135.3510 O   0  0  0  0  0  0  0  0  0  0  0  0
  1 14  1  6  0  0  0
  1  5  1  0  0  0  0
  2 48  1  1  0  0  0
  2  1  1  0  0  0  0
  3 14  1  6  0  0  0
  3  8  1  0  0  0  0
  4 23  1  0  0  0  0
  4 17  1  0  0  0  0
  4 15  1  6  0  0  0
  5  8  1  0  0  0  0
  6 21  1  1  0  0  0
  6  4  1  0  0  0  0
  6 23  1  0  0  0  0
  7 46  1  6  0  0  0
  7 19  1  0  0  0  0
  7 11  1  0  0  0  0
  8 26  1  1  0  0  0
  9 22  1  0  0  0  0
 11 24  1  1  0  0  0
 12 29  1  6  0  0  0
 16  9  1  0  0  0  0
 16 12  1  0  0  0  0
 17 20  1  6  0  0  0
 17  2  1  0  0  0  0
 18 21  1  6  0  0  0
 18 25  1  0  0  0  0
 19 18  1  0  0  0  0
 19 11  1  0  0  0  0
 22  3  1  0  0  0  0
 22 13  2  0  0  0  0
 23 15  1  0  0  0  0
 23 10  1  0  0  0  0
 24 12  1  0  0  0  0
 25 10  1  0  0  0  0
 26 27  1  0  0  0  0
 28 29  2  0  0  0  0
 29 30  1  0  0  0  0
 30 36  1  0  0  0  0
 30 31  1  0  0  0  0
 32 35  1  0  0  0  0
 32 36  2  0  0  0  0
 33 34  1  0  0  0  0
 34 37  1  0  0  0  0
 35 33  2  0  0  0  0
 36 34  1  0  0  0  0
 37 38  1  0  0  0  0
 38 43  1  0  0  0  0
 39 38  2  0  0  0  0
 40 45  1  0  0  0  0
 41 42  1  0  0  0  0
 43 44  1  0  0  0  0
 43 40  2  0  0  0  0
 44 41  2  0  0  0  0
 45 42  2  0  0  0  0
 46 47  1  0  0  0  0
 50 49  1  0  0  0  0
 50 52  1  0  0  0  0
 50 48  1  0  0  0  0
 52 51  1  0  0  0  0
 53 52  2  0  0  0  0
M  END
>  <MODEL>
1

>  <REMARK>
 VINA RESULT:      -7.8      0.000      0.000
  Name = 
  11 active torsions:
  status: ('A' for Active; 'I' for Inactive)
    1  A    between atoms: C_2  and  C_17
    2  A    between atoms: C_5  and  C_38
    3  A    between atoms: C_12  and  C_15
    4  A    between atoms: C_16  and  CA_44
    5  A    between atoms: N_21  and  C_39
    6  A    between atoms: C_25  and  C_50
    7  A    between atoms: C_27  and  C_28
    8  A    between atoms: C_28  and  C_39
    9  A    between atoms: C_29  and  C_31
   10  A    between atoms: C_29  and  C_50
   11  A    between atoms: C_38  and  CA_44
                            x       y       z     vdW  Elec       q    Type
                         _______ _______ _______ _____ _____    ______ ____

>  <TORSDO>
F 11

$$$$
=
 OpenBabel11062414093D

 53 60  0  0  1  0  0  0  0  0999 V2000
  186.2410  175.1800  135.9720 C   0  0  2  0  0  3  0  0  0  0  0  0
  186.3170  173.7040  136.3840 C   0  0  1  0  0  3  0  0  0  0  0  0
  185.8350  177.2110  136.6770 C   0  0  1  0  0  3  0  0  0  0  0  0
  184.5040  171.7380  136.1980 C   0  0  2  0  0  0  0  0  0  0  0  0
  187.5290  175.7670  135.9630 O   0  0  0  0  0  0  0  0  0  0  0  0
  183.0610  171.3030  136.4830 C   0  0  1  0  0  3  0  0  0  0  0  0
  180.9350  175.0130  138.3370 C   0  0  2  0  0  3  0  0  0  0  0  0
  187.3090  177.0810  136.3820 C   0  0  1  0  0  3  0  0  0  0  0  0
  184.4570  177.8270  138.7450 O   0  0  0  0  0  0  0  0  0  0  0  0
  183.1340  173.0470  134.5940 N   0  0  0  0  0  2  0  0  0  0  0  0
  180.6180  175.8180  137.0860 C   0  0  2  0  0  3  0  0  0  0  0  0
  182.5710  177.5280  137.2570 C   0  0  1  0  0  3  0  0  0  0  0  0
  186.3490  178.9840  138.2000 O   0  0  0  0  0  0  0  0  0  0  0  0
  185.3920  175.9000  136.8270 O   0  0  0  0  0  0  0  0  0  0  0  0
  184.8570  171.4730  134.8580 O   0  0  0  0  0  0  0  0  0  0  0  0
  183.3690  176.9620  138.4240 C   0  0  0  0  0  2  0  0  0  0  0  0
  184.8920  173.1710  136.6620 C   0  0  1  0  0  3  0  0  0  0  0  0
  181.8600  173.6170  136.5250 C   0  0  1  0  0  3  0  0  0  0  0  0
  180.5930  174.2790  137.0530 C   0  0  1  0  0  3  0  0  0  0  0  0
  184.6450  173.3090  138.0330 O   0  0  0  0  0  1  0  0  0  0  0  0
  182.1050  172.2780  137.2120 C   0  0  0  0  0  2  0  0  0  0  0  0
  185.5750  178.0300  137.9230 C   0  0  0  0  0  0  0  0  0  0  0  0
  183.4890  171.6970  135.0610 C   0  0  1  0  0  0  0  0  0  0  0  0
  181.8670  176.4380  136.4390 C   0  0  0  0  0  2  0  0  0  0  0  0
  181.7980  173.4120  135.0320 C   0  0  0  0  0  2  0  0  0  0  0  0
  187.7780  178.0820  135.3300 C   0  0  0  0  0  2  0  0  0  0  0  0
  189.1810  177.7830  134.8340 C   0  0  0  0  0  1  0  0  0  0  0  0
  180.9190  179.1460  136.8290 O   0  0  0  0  0  0  0  0  0  0  0  0
  181.7170  178.7060  137.6450 C   0  0  0  0  0  0  0  0  0  0  0  0
  181.9010  179.3990  138.9650 C   0  0  1  0  0  3  0  0  0  0  0  0
  181.9240  180.9070  138.7690 C   0  0  0  0  0  1  0  0  0  0  0  0
  179.4930  179.0810  139.8170 C   0  0  0  0  0  3  0  0  0  0  0  0
  179.9790  178.1510  141.7850 C   0  0  0  0  0  3  0  0  0  0  0  0
  181.1490  178.3860  141.1540 N   0  0  0  0  0  0  0  0  0  0  0  0
  178.9310  178.5620  140.9760 C   0  0  0  0  0  3  0  0  0  0  0  0
  180.8680  178.9770  139.9800 C   0  0  0  0  0  0  0  0  0  0  0  0
  182.4910  178.1350  141.7000 C   0  0  0  0  0  2  0  0  0  0  0  0
  182.7490  178.9800  142.9200 C   0  0  0  0  0  0  0  0  0  0  0  0
  181.9560  179.9260  143.1730 O   0  0  0  0  0  0  0  0  0  0  0  0
  185.1560  178.4120  143.3070 C   0  0  0  0  0  3  0  0  0  0  0  0
  184.7980  178.5350  146.0760 C   0  0  0  0  0  3  0  0  0  0  0  0
  186.0570  178.2280  145.5510 C   0  0  0  0  0  3  0  0  0  0  0  0
  183.8900  178.7230  143.8210 C   0  0  0  0  0  0  0  0  0  0  0  0
  183.7200  178.7810  145.2150 C   0  0  0  0  0  3  0  0  0  0  0  0
  186.2350  178.1670  144.1660 C   0  0  0  0  0  3  0  0  0  0  0  0
  179.7670  174.9620  139.3310 C   0  0  0  0  0  2  0  0  0  0  0  0
  180.1270  174.4500  140.5810 O   0  0  0  0  0  1  0  0  0  0  0  0
  187.1210  172.9330  135.3390 C   0  0  0  0  0  2  0  0  0  0  0  0
  187.8500  171.7080  137.3190 N   0  0  0  0  0  1  0  0  0  0  0  0
  188.2390  172.1280  135.9810 C   0  0  2  0  0  3  0  0  0  0  0  0
  189.7840  173.6220  137.2250 O   0  0  0  0  0  1  0  0  0  0  0  0
  189.4780  172.9470  136.0500 C   0  0  0  0  0  0  0  0  0  0  0  0
  190.2670  172.9990  135.0690 O   0  0  0  0  0  0  0  0  0  0  0  0
  1  5  1  1  0  0  0
  1  2  1  0  0  0  0
  1 14  1  0  0  0  0
  2 48  1  6  0  0  0
  2 17  1  0  0  0  0
  3 14  1  1  0  0  0
  3 22  1  0  0  0  0
  4 15  1  1  0  0  0
  4  6  1  0  0  0  0
  4 17  1  0  0  0  0
  5  8  1  0  0  0  0
  6 21  1  1  0  0  0
  7 46  1  1  0  0  0
  8 26  1  6  0  0  0
  8  3  1  0  0  0  0
 10 25  1  0  0  0  0
 10 23  1  0  0  0  0
 11 24  1  6  0  0  0
 11  7  1  0  0  0  0
 12 29  1  1  0  0  0
 12 16  1  0  0  0  0
 15 23  1  0  0  0  0
 16  9  1  0  0  0  0
 17 20  1  1  0  0  0
 18 25  1  6  0  0  0
 18 19  1  0  0  0  0
 18 21  1  0  0  0  0
 19 11  1  0  0  0  0
 19  7  1  0  0  0  0
 22 13  2  0  0  0  0
 22  9  1  0  0  0  0
 23  4  1  0  0  0  0
 23  6  1  0  0  0  0
 24 12  1  0  0  0  0
 27 26  1  0  0  0  0
 28 29  2  0  0  0  0
 29 30  1  0  0  0  0
 30 36  1  0  0  0  0
 31 30  1  0  0  0  0
 32 36  2  0  0  0  0
 32 35  1  0  0  0  0
 34 37  1  0  0  0  0
 34 33  1  0  0  0  0
 35 33  2  0  0  0  0
 36 34  1  0  0  0  0
 37 38  1  0  0  0  0
 38 39  2  0  0  0  0
 38 43  1  0  0  0  0
 40 43  2  0  0  0  0
 40 45  1  0  0  0  0
 42 41  1  0  0  0  0
 43 44  1  0  0  0  0
 44 41  2  0  0  0  0
 45 42  2  0  0  0  0
 46 47  1  0  0  0  0
 48 50  1  0  0  0  0
 50 52  1  0  0  0  0
 50 49  1  0  0  0  0
 52 51  1  0  0  0  0
 53 52  2  0  0  0  0
M  END
>  <MODEL>
2

>  <REMARK>
 VINA RESULT:      -7.6      3.095      6.958
  Name = 
  11 active torsions:
  status: ('A' for Active; 'I' for Inactive)
    1  A    between atoms: C_2  and  C_17
    2  A    between atoms: C_5  and  C_38
    3  A    between atoms: C_12  and  C_15
    4  A    between atoms: C_16  and  CA_44
    5  A    between atoms: N_21  and  C_39
    6  A    between atoms: C_25  and  C_50
    7  A    between atoms: C_27  and  C_28
    8  A    between atoms: C_28  and  C_39
    9  A    between atoms: C_29  and  C_31
   10  A    between atoms: C_29  and  C_50
   11  A    between atoms: C_38  and  CA_44
                            x       y       z     vdW  Elec       q    Type
                         _______ _______ _______ _____ _____    ______ ____

>  <TORSDO>
F 11

$$$$
=
 OpenBabel11062414093D

 53 60  0  0  1  0  0  0  0  0999 V2000
  182.9160  176.1810  138.5780 C   0  0  2  0  0  3  0  0  0  0  0  0
  182.2630  175.6900  137.2800 C   0  0  1  0  0  3  0  0  0  0  0  0
  184.2460  177.6850  139.4510 C   0  0  1  0  0  3  0  0  0  0  0  0
  183.0100  173.7740  135.5600 C   0  0  2  0  0  0  0  0  0  0  0  0
  182.0190  176.9860  139.3210 O   0  0  0  0  0  0  0  0  0  0  0  0
  184.1460  173.2000  134.7050 C   0  0  1  0  0  3  0  0  0  0  0  0
  187.8830  175.8450  135.5790 C   0  0  2  0  0  3  0  0  0  0  0  0
  182.8360  177.9470  139.9200 C   0  0  1  0  0  3  0  0  0  0  0  0
  186.0050  179.0410  138.1780 O   0  0  0  0  0  0  0  0  0  0  0  0
  184.5940  172.8040  137.2070 N   0  0  0  0  0  2  0  0  0  0  0  0
  188.3540  175.2500  136.8970 C   0  0  2  0  0  3  0  0  0  0  0  0
  187.3710  177.0660  138.4810 C   0  0  1  0  0  3  0  0  0  0  0  0
  184.7470  179.9940  139.8270 O   0  0  0  0  0  0  0  0  0  0  0  0
  184.0950  176.8970  138.3130 O   0  0  0  0  0  0  0  0  0  0  0  0
  182.4100  172.7680  136.3460 O   0  0  0  0  0  0  0  0  0  0  0  0
  186.5620  177.9130  137.5070 C   0  0  0  0  0  2  0  0  0  0  0  0
  183.3410  175.0640  136.3650 C   0  0  1  0  0  3  0  0  0  0  0  0
  186.2230  174.0730  136.0180 C   0  0  1  0  0  3  0  0  0  0  0  0
  187.7080  174.3570  135.8230 C   0  0  1  0  0  3  0  0  0  0  0  0
  183.7950  176.0620  135.4950 O   0  0  0  0  0  1  0  0  0  0  0  0
  185.5140  173.9250  134.6760 C   0  0  0  0  0  2  0  0  0  0  0  0
  184.9900  178.9660  139.1430 C   0  0  0  0  0  0  0  0  0  0  0  0
  183.7530  172.5290  136.0300 C   0  0  1  0  0  0  0  0  0  0  0  0
  187.4240  175.5870  138.0740 C   0  0  0  0  0  2  0  0  0  0  0  0
  186.0000  172.8300  136.8440 C   0  0  0  0  0  2  0  0  0  0  0  0
  182.7160  177.9040  141.4400 C   0  0  0  0  0  2  0  0  0  0  0  0
  181.8620  179.0350  141.9840 C   0  0  0  0  0  1  0  0  0  0  0  0
  188.8250  178.8980  138.7220 O   0  0  0  0  0  0  0  0  0  0  0  0
  188.6920  177.6890  138.8470 C   0  0  0  0  0  0  0  0  0  0  0  0
  189.8620  176.8430  139.2610 C   0  0  1  0  0  3  0  0  0  0  0  0
  190.9380  176.8720  138.1870 C   0  0  0  0  0  1  0  0  0  0  0  0
  191.7020  177.6550  140.8680 C   0  0  0  0  0  3  0  0  0  0  0  0
  190.4870  177.6930  142.7380 C   0  0  0  0  0  3  0  0  0  0  0  0
  189.6700  177.2970  141.7390 N   0  0  0  0  0  0  0  0  0  0  0  0
  191.7530  177.9340  142.2280 C   0  0  0  0  0  3  0  0  0  0  0  0
  190.4020  177.2380  140.6120 C   0  0  0  0  0  0  0  0  0  0  0  0
  188.2620  176.9000  141.8810 C   0  0  0  0  0  2  0  0  0  0  0  0
  187.4160  178.0550  142.3500 C   0  0  0  0  0  0  0  0  0  0  0  0
  187.2770  179.0470  141.5860 O   0  0  0  0  0  0  0  0  0  0  0  0
  185.4360  178.5340  143.8060 C   0  0  0  0  0  3  0  0  0  0  0  0
  186.7750  177.5430  146.0500 C   0  0  0  0  0  3  0  0  0  0  0  0
  185.4720  178.0300  146.1780 C   0  0  0  0  0  3  0  0  0  0  0  0
  186.7430  178.0460  143.6650 C   0  0  0  0  0  0  0  0  0  0  0  0
  187.4080  177.5520  144.7990 C   0  0  0  0  0  3  0  0  0  0  0  0
  184.8020  178.5260  145.0550 C   0  0  0  0  0  3  0  0  0  0  0  0
  189.0300  176.1140  134.5960 C   0  0  0  0  0  2  0  0  0  0  0  0
  189.8450  177.1850  134.9770 O   0  0  0  0  0  1  0  0  0  0  0  0
  181.0790  174.7890  137.6250 C   0  0  0  0  0  2  0  0  0  0  0  0
  179.6420  174.3670  135.6980 N   0  0  0  0  0  1  0  0  0  0  0  0
  179.8270  175.2060  136.8730 C   0  0  2  0  0  3  0  0  0  0  0  0
  180.4640  176.9430  135.2160 O   0  0  0  0  0  0  0  0  0  0  0  0
  179.9340  176.6310  136.4610 C   0  0  0  0  0  0  0  0  0  0  0  0
  179.5120  177.5490  137.2150 O   0  0  0  0  0  1  0  0  0  0  0  0
  1 14  1  6  0  0  0
  1  5  1  0  0  0  0
  2 48  1  1  0  0  0
  2  1  1  0  0  0  0
  3 14  1  6  0  0  0
  3  8  1  0  0  0  0
  4 23  1  0  0  0  0
  4 15  1  6  0  0  0
  4 17  1  0  0  0  0
  5  8  1  0  0  0  0
  6 21  1  1  0  0  0
  6  4  1  0  0  0  0
  6 23  1  0  0  0  0
  7 46  1  6  0  0  0
  7 19  1  0  0  0  0
  7 11  1  0  0  0  0
  8 26  1  1  0  0  0
  9 22  1  0  0  0  0
 11 24  1  1  0  0  0
 12 29  1  6  0  0  0
 16  9  1  0  0  0  0
 16 12  1  0  0  0  0
 17 20  1  6  0  0  0
 17  2  1  0  0  0  0
 18 21  1  6  0  0  0
 18 25  1  0  0  0  0
 19 18  1  0  0  0  0
 19 11  1  0  0  0  0
 22  3  1  0  0  0  0
 22 13  2  0  0  0  0
 23 15  1  0  0  0  0
 23 10  1  0  0  0  0
 24 12  1  0  0  0  0
 25 10  1  0  0  0  0
 26 27  1  0  0  0  0
 28 29  2  0  0  0  0
 29 30  1  0  0  0  0
 30 36  1  0  0  0  0
 31 30  1  0  0  0  0
 32 35  1  0  0  0  0
 34 37  1  0  0  0  0
 34 33  1  0  0  0  0
 35 33  2  0  0  0  0
 36 32  2  0  0  0  0
 36 34  1  0  0  0  0
 37 38  1  0  0  0  0
 38 43  1  0  0  0  0
 39 38  2  0  0  0  0
 40 45  1  0  0  0  0
 41 42  1  0  0  0  0
 43 40  2  0  0  0  0
 43 44  1  0  0  0  0
 44 41  2  0  0  0  0
 45 42  2  0  0  0  0
 46 47  1  0  0  0  0
 49 50  1  0  0  0  0
 50 48  1  0  0  0  0
 51 52  2  0  0  0  0
 52 50  1  0  0  0  0
 52 53  1  0  0  0  0
M  END
>  <MODEL>
3

>  <REMARK>
 VINA RESULT:      -7.5      1.442      2.117
  Name = 
  11 active torsions:
  status: ('A' for Active; 'I' for Inactive)
    1  A    between atoms: C_2  and  C_17
    2  A    between atoms: C_5  and  C_38
    3  A    between atoms: C_12  and  C_15
    4  A    between atoms: C_16  and  CA_44
    5  A    between atoms: N_21  and  C_39
    6  A    between atoms: C_25  and  C_50
    7  A    between atoms: C_27  and  C_28
    8  A    between atoms: C_28  and  C_39
    9  A    between atoms: C_29  and  C_31
   10  A    between atoms: C_29  and  C_50
   11  A    between atoms: C_38  and  CA_44
                            x       y       z     vdW  Elec       q    Type
                         _______ _______ _______ _____ _____    ______ ____

>  <TORSDO>
F 11

$$$$
=
 OpenBabel11062414093D

 53 60  0  0  1  0  0  0  0  0999 V2000
  182.5590  177.6820  140.5690 C   0  0  2  0  0  3  0  0  0  0  0  0
  181.4120  177.9320  139.5810 C   0  0  1  0  0  3  0  0  0  0  0  0
  184.5320  178.3660  141.2250 C   0  0  1  0  0  3  0  0  0  0  0  0
  180.8730  176.8120  137.2060 C   0  0  2  0  0  0  0  0  0  0  0  0
  182.2750  178.2650  141.8270 O   0  0  0  0  0  0  0  0  0  0  0  0
  181.4150  176.4300  135.8230 C   0  0  1  0  0  3  0  0  0  0  0  0
  185.9210  177.6210  135.8290 C   0  0  2  0  0  3  0  0  0  0  0  0
  183.5200  178.6920  142.2960 C   0  0  1  0  0  3  0  0  0  0  0  0
  186.1800  179.7340  139.8240 O   0  0  0  0  0  0  0  0  0  0  0  0
  182.4320  174.9320  137.6500 N   0  0  0  0  0  2  0  0  0  0  0  0
  186.5290  176.4420  136.5740 C   0  0  2  0  0  3  0  0  0  0  0  0
  186.7830  177.5800  138.8990 C   0  0  1  0  0  3  0  0  0  0  0  0
  185.9050  180.1410  142.0540 O   0  0  0  0  0  0  0  0  0  0  0  0
  183.7730  178.1820  140.0720 O   0  0  0  0  0  0  0  0  0  0  0  0
  180.2250  175.7170  137.8150 O   0  0  0  0  0  0  0  0  0  0  0  0
  186.0700  178.9060  138.6680 C   0  0  0  0  0  2  0  0  0  0  0  0
  181.8660  177.5420  138.1550 C   0  0  1  0  0  3  0  0  0  0  0  0
  183.9600  176.2160  136.3470 C   0  0  1  0  0  3  0  0  0  0  0  0
  185.3150  176.2400  135.6490 C   0  0  1  0  0  3  0  0  0  0  0  0
  182.3560  178.6960  137.5320 O   0  0  0  0  0  1  0  0  0  0  0  0
  182.8720  176.7990  135.4520 C   0  0  0  0  0  2  0  0  0  0  0  0
  185.5490  179.4720  141.0490 C   0  0  0  0  0  0  0  0  0  0  0  0
  181.2330  175.3610  136.9100 C   0  0  1  0  0  0  0  0  0  0  0  0
  186.1830  176.4350  138.0720 C   0  0  0  0  0  2  0  0  0  0  0  0
  183.5750  174.8170  136.7610 C   0  0  0  0  0  2  0  0  0  0  0  0
  183.8610  178.0370  143.6320 C   0  0  0  0  0  2  0  0  0  0  0  0
  183.3790  178.8550  144.8150 C   0  0  0  0  0  1  0  0  0  0  0  0
  188.7760  178.6970  138.3430 O   0  0  0  0  0  0  0  0  0  0  0  0
  188.2830  177.7010  138.8540 C   0  0  0  0  0  0  0  0  0  0  0  0
  189.1670  176.5850  139.3310 C   0  0  1  0  0  3  0  0  0  0  0  0
  189.8770  175.9370  138.1530 C   0  0  0  0  0  1  0  0  0  0  0  0
  191.5130  177.1310  140.2390 C   0  0  0  0  0  3  0  0  0  0  0  0
  190.9100  177.7990  142.2790 C   0  0  0  0  0  3  0  0  0  0  0  0
  189.7810  177.4760  141.6150 N   0  0  0  0  0  0  0  0  0  0  0  0
  192.0030  177.6070  141.4490 C   0  0  0  0  0  3  0  0  0  0  0  0
  190.1360  177.0400  140.3940 C   0  0  0  0  0  0  0  0  0  0  0  0
  188.4180  177.4980  142.1660 C   0  0  0  0  0  2  0  0  0  0  0  0
  188.2920  176.5680  143.3450 C   0  0  0  0  0  0  0  0  0  0  0  0
  188.3060  175.3260  143.1330 O   0  0  0  0  0  0  0  0  0  0  0  0
  189.2910  177.1850  145.5560 C   0  0  0  0  0  3  0  0  0  0  0  0
  186.7840  177.9200  146.5470 C   0  0  0  0  0  3  0  0  0  0  0  0
  187.9130  178.0300  147.3640 C   0  0  0  0  0  3  0  0  0  0  0  0
  188.1660  177.0720  144.7270 C   0  0  0  0  0  0  0  0  0  0  0  0
  186.9100  177.4430  145.2350 C   0  0  0  0  0  3  0  0  0  0  0  0
  189.1670  177.6620  146.8670 C   0  0  0  0  0  3  0  0  0  0  0  0
  186.7320  178.0340  134.5940 C   0  0  0  0  0  2  0  0  0  0  0  0
  188.0980  177.7580  134.7120 O   0  0  0  0  0  1  0  0  0  0  0  0
  180.1510  177.2370  140.0900 C   0  0  0  0  0  2  0  0  0  0  0  0
  179.0480  179.2270  139.2100 N   0  0  0  0  0  1  0  0  0  0  0  0
  179.0060  178.2200  140.2600 C   0  0  2  0  0  3  0  0  0  0  0  0
  179.2510  180.2560  141.6620 O   0  0  0  0  0  0  0  0  0  0  0  0
  179.0950  178.8770  141.5920 C   0  0  0  0  0  0  0  0  0  0  0  0
  178.9920  178.1990  142.6480 O   0  0  0  0  0  1  0  0  0  0  0  0
  1 14  1  6  0  0  0
  1  5  1  0  0  0  0
  2 48  1  1  0  0  0
  2  1  1  0  0  0  0
  3 14  1  6  0  0  0
  3  8  1  0  0  0  0
  4 15  1  1  0  0  0
  4 17  1  0  0  0  0
  5  8  1  0  0  0  0
  6 21  1  1  0  0  0
  6 23  1  0  0  0  0
  6  4  1  0  0  0  0
  7 46  1  6  0  0  0
  7 11  1  0  0  0  0
  8 26  1  1  0  0  0
  9 22  1  0  0  0  0
 11 24  1  1  0  0  0
 12 29  1  6  0  0  0
 16 12  1  0  0  0  0
 16  9  1  0  0  0  0
 17 20  1  6  0  0  0
 17  2  1  0  0  0  0
 18 21  1  6  0  0  0
 18 25  1  0  0  0  0
 19  7  1  0  0  0  0
 19 18  1  0  0  0  0
 19 11  1  0  0  0  0
 22  3  1  0  0  0  0
 22 13  2  0  0  0  0
 23  4  1  0  0  0  0
 23 10  1  0  0  0  0
 23 15  1  0  0  0  0
 24 12  1  0  0  0  0
 25 10  1  0  0  0  0
 26 27  1  0  0  0  0
 28 29  2  0  0  0  0
 29 30  1  0  0  0  0
 30 36  1  0  0  0  0
 31 30  1  0  0  0  0
 32 36  2  0  0  0  0
 32 35  1  0  0  0  0
 34 37  1  0  0  0  0
 34 33  1  0  0  0  0
 35 33  2  0  0  0  0
 36 34  1  0  0  0  0
 37 38  1  0  0  0  0
 38 43  1  0  0  0  0
 39 38  2  0  0  0  0
 40 45  1  0  0  0  0
 41 42  1  0  0  0  0
 43 44  1  0  0  0  0
 43 40  2  0  0  0  0
 44 41  2  0  0  0  0
 45 42  2  0  0  0  0
 46 47  1  0  0  0  0
 48 50  1  0  0  0  0
 49 50  1  0  0  0  0
 50 52  1  0  0  0  0
 52 51  2  0  0  0  0
 52 53  1  0  0  0  0
M  END
>  <MODEL>
4

>  <REMARK>
 VINA RESULT:      -7.4      2.239      3.683
  Name = 
  11 active torsions:
  status: ('A' for Active; 'I' for Inactive)
    1  A    between atoms: C_2  and  C_17
    2  A    between atoms: C_5  and  C_38
    3  A    between atoms: C_12  and  C_15
    4  A    between atoms: C_16  and  CA_44
    5  A    between atoms: N_21  and  C_39
    6  A    between atoms: C_25  and  C_50
    7  A    between atoms: C_27  and  C_28
    8  A    between atoms: C_28  and  C_39
    9  A    between atoms: C_29  and  C_31
   10  A    between atoms: C_29  and  C_50
   11  A    between atoms: C_38  and  CA_44
                            x       y       z     vdW  Elec       q    Type
                         _______ _______ _______ _____ _____    ______ ____

>  <TORSDO>
F 11

$$$$
=
 OpenBabel11062414093D

 53 60  0  0  1  0  0  0  0  0999 V2000
  184.2650  176.4470  137.1480 C   0  0  2  0  0  3  0  0  0  0  0  0
  183.5670  175.6150  136.0630 C   0  0  1  0  0  3  0  0  0  0  0  0
  185.9410  177.7900  137.5660 C   0  0  1  0  0  3  0  0  0  0  0  0
  183.7840  173.0180  135.4370 C   0  0  2  0  0  0  0  0  0  0  0  0
  183.6180  177.6940  137.3210 O   0  0  0  0  0  0  0  0  0  0  0  0
  184.7350  171.8590  135.1140 C   0  0  1  0  0  3  0  0  0  0  0  0
  189.0490  173.5770  135.5160 C   0  0  2  0  0  3  0  0  0  0  0  0
  184.6560  178.5800  137.6190 C   0  0  1  0  0  3  0  0  0  0  0  0
  188.1020  177.9510  136.2020 O   0  0  0  0  0  0  0  0  0  0  0  0
  184.8960  172.5090  137.5970 N   0  0  0  0  0  2  0  0  0  0  0  0
  189.2380  173.5280  137.0250 C   0  0  2  0  0  3  0  0  0  0  0  0
  188.7740  176.0390  137.5260 C   0  0  1  0  0  3  0  0  0  0  0  0
  187.1070  179.8180  137.0610 O   0  0  0  0  0  0  0  0  0  0  0  0
  185.6200  176.6480  136.8380 O   0  0  0  0  0  0  0  0  0  0  0  0
  182.8590  172.6510  136.4370 O   0  0  0  0  0  0  0  0  0  0  0  0
  188.3220  176.5420  136.1610 C   0  0  0  0  0  2  0  0  0  0  0  0
  184.4490  174.4000  135.6960 C   0  0  1  0  0  3  0  0  0  0  0  0
  186.9020  172.6650  136.3200 C   0  0  1  0  0  3  0  0  0  0  0  0
  188.4100  172.4480  136.3050 C   0  0  1  0  0  3  0  0  0  0  0  0
  185.2380  174.7600  134.5970 O   0  0  0  0  0  1  0  0  0  0  0  0
  186.2590  172.1250  135.0470 C   0  0  0  0  0  2  0  0  0  0  0  0
  187.0600  178.5690  136.9090 C   0  0  0  0  0  0  0  0  0  0  0  0
  184.0800  171.9660  136.4990 C   0  0  1  0  0  0  0  0  0  0  0  0
  188.3910  174.5720  137.7710 C   0  0  0  0  0  2  0  0  0  0  0  0
  186.2600  172.0170  137.5220 C   0  0  0  0  0  2  0  0  0  0  0  0
  184.4430  179.2440  138.9760 C   0  0  0  0  0  2  0  0  0  0  0  0
  182.9750  179.4880  139.2730 C   0  0  0  0  0  1  0  0  0  0  0  0
  190.9990  176.5060  136.9260 O   0  0  0  0  0  0  0  0  0  0  0  0
  190.1990  176.4030  137.8450 C   0  0  0  0  0  0  0  0  0  0  0  0
  190.6660  176.5420  139.2670 C   0  0  1  0  0  3  0  0  0  0  0  0
  192.0430  177.1850  139.3070 C   0  0  0  0  0  1  0  0  0  0  0  0
  188.7990  178.2660  139.6740 C   0  0  0  0  0  3  0  0  0  0  0  0
  188.4970  177.8890  141.8520 C   0  0  0  0  0  3  0  0  0  0  0  0
  189.4580  177.0400  141.4280 N   0  0  0  0  0  0  0  0  0  0  0  0
  188.0600  178.6560  140.7840 C   0  0  0  0  0  3  0  0  0  0  0  0
  189.6710  177.2830  140.1240 C   0  0  0  0  0  0  0  0  0  0  0  0
  190.2080  176.0960  142.2700 C   0  0  0  0  0  2  0  0  0  0  0  0
  191.0490  176.8220  143.2870 C   0  0  0  0  0  0  0  0  0  0  0  0
  192.0640  177.4510  142.8870 O   0  0  0  0  0  0  0  0  0  0  0  0
  189.4320  177.2100  145.1590 C   0  0  0  0  0  3  0  0  0  0  0  0
  191.3460  176.4440  147.0460 C   0  0  0  0  0  3  0  0  0  0  0  0
  190.0700  176.8290  147.4680 C   0  0  0  0  0  3  0  0  0  0  0  0
  190.7070  176.8240  144.7240 C   0  0  0  0  0  0  0  0  0  0  0  0
  191.6630  176.4420  145.6800 C   0  0  0  0  0  3  0  0  0  0  0  0
  189.1130  177.2120  146.5230 C   0  0  0  0  0  3  0  0  0  0  0  0
  190.2760  173.0850  134.7400 C   0  0  0  0  0  2  0  0  0  0  0  0
  191.2670  174.0620  134.5940 O   0  0  0  0  0  1  0  0  0  0  0  0
  182.1460  175.2910  136.5180 C   0  0  0  0  0  2  0  0  0  0  0  0
  181.0190  177.1290  135.3740 N   0  0  0  0  0  1  0  0  0  0  0  0
  181.1230  175.6800  135.4630 C   0  0  2  0  0  3  0  0  0  0  0  0
  179.3290  174.0020  135.0930 O   0  0  0  0  0  0  0  0  0  0  0  0
  179.7970  175.1000  135.8050 C   0  0  0  0  0  0  0  0  0  0  0  0
  179.1170  175.5720  136.7550 O   0  0  0  0  0  1  0  0  0  0  0  0
  1 14  1  6  0  0  0
  1  5  1  0  0  0  0
  2 48  1  1  0  0  0
  2  1  1  0  0  0  0
  3 14  1  6  0  0  0
  3  8  1  0  0  0  0
  4 17  1  0  0  0  0
  4 15  1  6  0  0  0
  4 23  1  0  0  0  0
  5  8  1  0  0  0  0
  6 21  1  1  0  0  0
  6  4  1  0  0  0  0
  6 23  1  0  0  0  0
  7 46  1  6  0  0  0
  7 19  1  0  0  0  0
  7 11  1  0  0  0  0
  8 26  1  1  0  0  0
  9 22  1  0  0  0  0
 11 24  1  1  0  0  0
 12 24  1  0  0  0  0
 12 29  1  6  0  0  0
 15 23  1  0  0  0  0
 16  9  1  0  0  0  0
 16 12  1  0  0  0  0
 17 20  1  6  0  0  0
 17  2  1  0  0  0  0
 18 21  1  6  0  0  0
 18 25  1  0  0  0  0
 19 18  1  0  0  0  0
 19 11  1  0  0  0  0
 22 13  2  0  0  0  0
 22  3  1  0  0  0  0
 23 10  1  0  0  0  0
 25 10  1  0  0  0  0
 26 27  1  0  0  0  0
 28 29  2  0  0  0  0
 29 30  1  0  0  0  0
 30 31  1  0  0  0  0
 30 36  1  0  0  0  0
 32 36  2  0  0  0  0
 32 35  1  0  0  0  0
 34 33  1  0  0  0  0
 34 37  1  0  0  0  0
 35 33  2  0  0  0  0
 36 34  1  0  0  0  0
 37 38  1  0  0  0  0
 38 43  1  0  0  0  0
 39 38  2  0  0  0  0
 40 45  1  0  0  0  0
 41 42  1  0  0  0  0
 43 40  2  0  0  0  0
 43 44  1  0  0  0  0
 44 41  2  0  0  0  0
 45 42  2  0  0  0  0
 47 46  1  0  0  0  0
 49 50  1  0  0  0  0
 50 52  1  0  0  0  0
 50 48  1  0  0  0  0
 51 52  2  0  0  0  0
 52 53  1  0  0  0  0
M  END
>  <MODEL>
5

>  <REMARK>
 VINA RESULT:      -7.3      1.675      2.644
  Name = 
  11 active torsions:
  status: ('A' for Active; 'I' for Inactive)
    1  A    between atoms: C_2  and  C_17
    2  A    between atoms: C_5  and  C_38
    3  A    between atoms: C_12  and  C_15
    4  A    between atoms: C_16  and  CA_44
    5  A    between atoms: N_21  and  C_39
    6  A    between atoms: C_25  and  C_50
    7  A    between atoms: C_27  and  C_28
    8  A    between atoms: C_28  and  C_39
    9  A    between atoms: C_29  and  C_31
   10  A    between atoms: C_29  and  C_50
   11  A    between atoms: C_38  and  CA_44
                            x       y       z     vdW  Elec       q    Type
                         _______ _______ _______ _____ _____    ______ ____

>  <TORSDO>
F 11

$$$$
=
 OpenBabel11062414093D

 53 60  0  0  1  0  0  0  0  0999 V2000
  182.6760  176.3460  138.0710 C   0  0  2  0  0  3  0  0  0  0  0  0
  182.0930  175.7650  136.7770 C   0  0  1  0  0  3  0  0  0  0  0  0
  184.0210  177.8600  138.9010 C   0  0  1  0  0  3  0  0  0  0  0  0
  182.8540  173.6600  135.3020 C   0  0  2  0  0  0  0  0  0  0  0  0
  181.7740  177.2600  138.6650 O   0  0  0  0  0  0  0  0  0  0  0  0
  184.0160  172.9520  134.5940 C   0  0  1  0  0  3  0  0  0  0  0  0
  187.8200  175.4850  135.5050 C   0  0  2  0  0  3  0  0  0  0  0  0
  182.5980  178.2340  139.2350 C   0  0  1  0  0  3  0  0  0  0  0  0
  185.9400  179.0020  137.6490 O   0  0  0  0  0  0  0  0  0  0  0  0
  184.2590  172.7760  137.1480 N   0  0  0  0  0  2  0  0  0  0  0  0
  188.1620  174.9970  136.9050 C   0  0  2  0  0  3  0  0  0  0  0  0
  187.1690  177.0010  138.2350 C   0  0  1  0  0  3  0  0  0  0  0  0
  184.6200  180.1680  139.1020 O   0  0  0  0  0  0  0  0  0  0  0  0
  183.9090  176.9760  137.8320 O   0  0  0  0  0  0  0  0  0  0  0  0
  182.1440  172.7630  136.1280 O   0  0  0  0  0  0  0  0  0  0  0  0
  186.4800  177.7890  137.1290 C   0  0  0  0  0  2  0  0  0  0  0  0
  183.1970  175.0030  136.0080 C   0  0  1  0  0  3  0  0  0  0  0  0
  186.0380  173.8450  135.9760 C   0  0  1  0  0  3  0  0  0  0  0  0
  187.5460  174.0380  135.8710 C   0  0  1  0  0  3  0  0  0  0  0  0
  183.7670  175.8900  135.0880 O   0  0  0  0  0  1  0  0  0  0  0  0
  185.4200  173.6050  134.6030 C   0  0  0  0  0  2  0  0  0  0  0  0
  184.8550  179.0680  138.5350 C   0  0  0  0  0  0  0  0  0  0  0  0
  183.4920  172.4310  135.9400 C   0  0  1  0  0  0  0  0  0  0  0  0
  187.1690  175.4890  137.9710 C   0  0  0  0  0  2  0  0  0  0  0  0
  185.6880  172.7000  136.8940 C   0  0  0  0  0  2  0  0  0  0  0  0
  182.3660  178.3420  140.7390 C   0  0  0  0  0  2  0  0  0  0  0  0
  183.6040  177.9830  141.5400 C   0  0  0  0  0  1  0  0  0  0  0  0
  189.0170  178.4190  137.9100 O   0  0  0  0  0  0  0  0  0  0  0  0
  188.4930  177.5920  138.6430 C   0  0  0  0  0  0  0  0  0  0  0  0
  189.2130  177.1120  139.8710 C   0  0  1  0  0  3  0  0  0  0  0  0
  190.6400  177.6370  139.8820 C   0  0  0  0  0  1  0  0  0  0  0  0
  187.3890  178.3230  141.2250 C   0  0  0  0  0  3  0  0  0  0  0  0
  187.8680  177.4660  143.2270 C   0  0  0  0  0  3  0  0  0  0  0  0
  188.7320  176.9230  142.3430 N   0  0  0  0  0  0  0  0  0  0  0  0
  187.0140  178.3310  142.5620 C   0  0  0  0  0  3  0  0  0  0  0  0
  188.4730  177.4580  141.1380 C   0  0  0  0  0  0  0  0  0  0  0  0
  189.8250  175.9940  142.6640 C   0  0  0  0  0  2  0  0  0  0  0  0
  190.9170  176.6840  143.4400 C   0  0  0  0  0  0  0  0  0  0  0  0
  191.7610  177.3710  142.8060 O   0  0  0  0  0  0  0  0  0  0  0  0
  192.0490  175.8610  145.5160 C   0  0  0  0  0  3  0  0  0  0  0  0
  190.1400  177.1190  147.1230 C   0  0  0  0  0  3  0  0  0  0  0  0
  191.1790  176.3970  147.7160 C   0  0  0  0  0  3  0  0  0  0  0  0
  191.0120  176.5850  144.9100 C   0  0  0  0  0  0  0  0  0  0  0  0
  190.0560  177.2120  145.7260 C   0  0  0  0  0  3  0  0  0  0  0  0
  192.1350  175.7690  146.9110 C   0  0  0  0  0  3  0  0  0  0  0  0
  189.0480  175.6030  134.5940 C   0  0  0  0  0  2  0  0  0  0  0  0
  190.0380  176.4480  135.1060 O   0  0  0  0  0  1  0  0  0  0  0  0
  180.8390  174.9590  137.1110 C   0  0  0  0  0  2  0  0  0  0  0  0
  180.5090  173.1060  138.6640 N   0  0  0  0  0  1  0  0  0  0  0  0
  180.8310  174.5220  138.5660 C   0  0  2  0  0  3  0  0  0  0  0  0
  179.9340  175.3880  140.7130 O   0  0  0  0  0  1  0  0  0  0  0  0
  179.8350  175.3190  139.3300 C   0  0  0  0  0  0  0  0  0  0  0  0
  178.9310  175.9580  138.7290 O   0  0  0  0  0  0  0  0  0  0  0  0
  1 14  1  6  0  0  0
  1  5  1  0  0  0  0
  2 48  1  1  0  0  0
  2  1  1  0  0  0  0
  3 14  1  6  0  0  0
  3  8  1  0  0  0  0
  4 23  1  0  0  0  0
  4 17  1  0  0  0  0
  4 15  1  6  0  0  0
  5  8  1  0  0  0  0
  6 21  1  1  0  0  0
  6  4  1  0  0  0  0
  6 23  1  0  0  0  0
  7 46  1  6  0  0  0
  7 19  1  0  0  0  0
  7 11  1  0  0  0  0
  8 26  1  1  0  0  0
  9 22  1  0  0  0  0
 11 24  1  1  0  0  0
 12 29  1  6  0  0  0
 16  9  1  0  0  0  0
 16 12  1  0  0  0  0
 17 20  1  6  0  0  0
 17  2  1  0  0  0  0
 18 21  1  6  0  0  0
 18 25  1  0  0  0  0
 19 18  1  0  0  0  0
 19 11  1  0  0  0  0
 22  3  1  0  0  0  0
 22 13  2  0  0  0  0
 23 15  1  0  0  0  0
 23 10  1  0  0  0  0
 24 12  1  0  0  0  0
 25 10  1  0  0  0  0
 26 27  1  0  0  0  0
 28 29  2  0  0  0  0
 29 30  1  0  0  0  0
 30 31  1  0  0  0  0
 30 36  1  0  0  0  0
 32 35  1  0  0  0  0
 34 37  1  0  0  0  0
 34 33  1  0  0  0  0
 35 33  2  0  0  0  0
 36 32  2  0  0  0  0
 36 34  1  0  0  0  0
 37 38  1  0  0  0  0
 38 43  1  0  0  0  0
 39 38  2  0  0  0  0
 40 45  1  0  0  0  0
 41 42  1  0  0  0  0
 43 40  2  0  0  0  0
 43 44  1  0  0  0  0
 44 41  2  0  0  0  0
 45 42  2  0  0  0  0
 46 47  1  0  0  0  0
 48 50  1  0  0  0  0
 50 49  1  0  0  0  0
 50 52  1  0  0  0  0
 52 51  1  0  0  0  0
 53 52  2  0  0  0  0
M  END
>  <MODEL>
6

>  <REMARK>
 VINA RESULT:      -6.9      1.578      2.293
  Name = 
  11 active torsions:
  status: ('A' for Active; 'I' for Inactive)
    1  A    between atoms: C_2  and  C_17
    2  A    between atoms: C_5  and  C_38
    3  A    between atoms: C_12  and  C_15
    4  A    between atoms: C_16  and  CA_44
    5  A    between atoms: N_21  and  C_39
    6  A    between atoms: C_25  and  C_50
    7  A    between atoms: C_27  and  C_28
    8  A    between atoms: C_28  and  C_39
    9  A    between atoms: C_29  and  C_31
   10  A    between atoms: C_29  and  C_50
   11  A    between atoms: C_38  and  CA_44
                            x       y       z     vdW  Elec       q    Type
                         _______ _______ _______ _____ _____    ______ ____

>  <TORSDO>
F 11

$$$$
=
 OpenBabel11062414093D

 53 60  0  0  1  0  0  0  0  0999 V2000
  185.5660  177.3020  137.9550 C   0  0  2  0  0  3  0  0  0  0  0  0
  185.8430  177.5120  136.4610 C   0  0  1  0  0  3  0  0  0  0  0  0
  186.0170  178.0220  139.9730 C   0  0  1  0  0  3  0  0  0  0  0  0
  187.5900  176.3150  134.8180 C   0  0  2  0  0  0  0  0  0  0  0  0
  184.3510  177.9220  138.3350 O   0  0  0  0  0  0  0  0  0  0  0  0
  189.0480  175.8940  134.5940 C   0  0  1  0  0  3  0  0  0  0  0  0
  191.3540  177.1220  138.4540 C   0  0  2  0  0  3  0  0  0  0  0  0
  184.5880  178.3720  139.6360 C   0  0  1  0  0  3  0  0  0  0  0  0
  188.0900  179.3600  140.6530 O   0  0  0  0  0  0  0  0  0  0  0  0
  187.9560  174.4620  136.4300 N   0  0  0  0  0  2  0  0  0  0  0  0
  190.9940  175.9710  139.3820 C   0  0  2  0  0  3  0  0  0  0  0  0
  189.1440  177.1830  140.7530 C   0  0  1  0  0  3  0  0  0  0  0  0
  186.0380  179.8330  141.5360 O   0  0  0  0  0  0  0  0  0  0  0  0
  186.6210  177.7960  138.7390 O   0  0  0  0  0  0  0  0  0  0  0  0
  186.7120  175.2340  134.5940 O   0  0  0  0  0  0  0  0  0  0  0  0
  189.0120  178.4950  139.9910 C   0  0  0  0  0  2  0  0  0  0  0  0
  187.2930  177.0810  136.1380 C   0  0  1  0  0  3  0  0  0  0  0  0
  189.8820  175.7170  137.0590 C   0  0  1  0  0  3  0  0  0  0  0  0
  191.1710  175.7320  137.8720 C   0  0  1  0  0  3  0  0  0  0  0  0
  188.1040  178.2200  136.2190 O   0  0  0  0  0  1  0  0  0  0  0  0
  190.1150  176.2640  135.6540 C   0  0  0  0  0  2  0  0  0  0  0  0
  186.7090  179.1300  140.7350 C   0  0  0  0  0  0  0  0  0  0  0  0
  187.9950  174.8580  135.0130 C   0  0  1  0  0  0  0  0  0  0  0  0
  189.5280  176.0080  139.8430 C   0  0  0  0  0  2  0  0  0  0  0  0
  189.2990  174.3290  136.9680 C   0  0  0  0  0  2  0  0  0  0  0  0
  183.5960  177.7620  140.6210 C   0  0  0  0  0  2  0  0  0  0  0  0
  182.5370  176.9240  139.9280 C   0  0  0  0  0  1  0  0  0  0  0  0
  191.1270  177.6220  141.9380 O   0  0  0  0  0  0  0  0  0  0  0  0
  189.9460  177.3150  142.0200 C   0  0  0  0  0  0  0  0  0  0  0  0
  189.3470  176.9830  143.3570 C   0  0  1  0  0  3  0  0  0  0  0  0
  188.2580  175.9340  143.1980 C   0  0  0  0  0  1  0  0  0  0  0  0
  191.3600  175.5930  144.1570 C   0  0  0  0  0  3  0  0  0  0  0  0
  191.5840  176.5040  146.1800 C   0  0  0  0  0  3  0  0  0  0  0  0
  190.5550  177.1310  145.5710 N   0  0  0  0  0  0  0  0  0  0  0  0
  192.1120  175.5510  145.3240 C   0  0  0  0  0  3  0  0  0  0  0  0
  190.3910  176.5660  144.3620 C   0  0  0  0  0  0  0  0  0  0  0  0
  189.7040  178.1720  146.1650 C   0  0  0  0  0  2  0  0  0  0  0  0
  188.4820  177.5720  146.8110 C   0  0  0  0  0  0  0  0  0  0  0  0
  188.6430  176.7480  147.7500 O   0  0  0  0  0  0  0  0  0  0  0  0
  186.7670  177.9430  145.0250 C   0  0  0  0  0  3  0  0  0  0  0  0
  184.8440  178.6250  146.9340 C   0  0  0  0  0  3  0  0  0  0  0  0
  184.5080  178.6290  145.5780 C   0  0  0  0  0  3  0  0  0  0  0  0
  187.1160  177.9330  146.3830 C   0  0  0  0  0  0  0  0  0  0  0  0
  186.1420  178.2790  147.3350 C   0  0  0  0  0  3  0  0  0  0  0  0
  185.4700  178.2870  144.6230 C   0  0  0  0  0  3  0  0  0  0  0  0
  192.8380  177.5030  138.5180 C   0  0  0  0  0  2  0  0  0  0  0  0
  193.5040  176.9520  139.6180 O   0  0  0  0  0  1  0  0  0  0  0  0
  184.7490  176.8220  135.6480 C   0  0  0  0  0  2  0  0  0  0  0  0
  184.3200  174.4990  136.2580 N   0  0  0  0  0  1  0  0  0  0  0  0
  183.9280  175.8780  136.5100 C   0  0  2  0  0  3  0  0  0  0  0  0
  181.5970  175.0230  136.5140 O   0  0  0  0  0  1  0  0  0  0  0  0
  182.4810  176.0520  136.2160 C   0  0  0  0  0  0  0  0  0  0  0  0
  182.0500  177.1350  135.7380 O   0  0  0  0  0  0  0  0  0  0  0  0
  1  5  1  1  0  0  0
  1 14  1  0  0  0  0
  2 48  1  6  0  0  0
  2  1  1  0  0  0  0
  3 14  1  6  0  0  0
  3 22  1  0  0  0  0
  4 15  1  6  0  0  0
  4 23  1  0  0  0  0
  4 17  1  0  0  0  0
  5  8  1  0  0  0  0
  6  4  1  0  0  0  0
  6 23  1  0  0  0  0
  6 21  1  1  0  0  0
  7 46  1  1  0  0  0
  7 11  1  0  0  0  0
  8  3  1  0  0  0  0
  8 26  1  1  0  0  0
  9 22  1  0  0  0  0
 10 25  1  0  0  0  0
 11 24  1  6  0  0  0
 12 29  1  1  0  0  0
 15 23  1  0  0  0  0
 16  9  1  0  0  0  0
 16 12  1  0  0  0  0
 17 20  1  6  0  0  0
 17  2  1  0  0  0  0
 18 21  1  6  0  0  0
 18 19  1  0  0  0  0
 19  7  1  0  0  0  0
 19 11  1  0  0  0  0
 22 13  2  0  0  0  0
 23 10  1  0  0  0  0
 24 12  1  0  0  0  0
 25 18  1  0  0  0  0
 27 26  1  0  0  0  0
 28 29  2  0  0  0  0
 29 30  1  0  0  0  0
 30 36  1  0  0  0  0
 31 30  1  0  0  0  0
 32 36  2  0  0  0  0
 32 35  1  0  0  0  0
 34 37  1  0  0  0  0
 34 33  1  0  0  0  0
 35 33  2  0  0  0  0
 36 34  1  0  0  0  0
 37 38  1  0  0  0  0
 38 39  2  0  0  0  0
 40 43  1  0  0  0  0
 41 44  1  0  0  0  0
 42 41  2  0  0  0  0
 43 38  1  0  0  0  0
 43 44  2  0  0  0  0
 45 40  2  0  0  0  0
 45 42  1  0  0  0  0
 46 47  1  0  0  0  0
 48 50  1  0  0  0  0
 49 50  1  0  0  0  0
 52 50  1  0  0  0  0
 52 51  1  0  0  0  0
 53 52  2  0  0  0  0
M  END
>  <MODEL>
7

>  <REMARK>
 VINA RESULT:      -6.6      2.195      3.702
  Name = 
  11 active torsions:
  status: ('A' for Active; 'I' for Inactive)
    1  A    between atoms: C_2  and  C_17
    2  A    between atoms: C_5  and  C_38
    3  A    between atoms: C_12  and  C_15
    4  A    between atoms: C_16  and  CA_44
    5  A    between atoms: N_21  and  C_39
    6  A    between atoms: C_25  and  C_50
    7  A    between atoms: C_27  and  C_28
    8  A    between atoms: C_28  and  C_39
    9  A    between atoms: C_29  and  C_31
   10  A    between atoms: C_29  and  C_50
   11  A    between atoms: C_38  and  CA_44
                            x       y       z     vdW  Elec       q    Type
                         _______ _______ _______ _____ _____    ______ ____

>  <TORSDO>
F 11

$$$$
=
 OpenBabel11062414093D

 53 60  0  0  1  0  0  0  0  0999 V2000
  184.7110  177.8670  141.9400 C   0  0  2  0  0  3  0  0  0  0  0  0
  183.3990  178.5820  141.5890 C   0  0  1  0  0  3  0  0  0  0  0  0
  186.8830  177.8910  141.6750 C   0  0  1  0  0  3  0  0  0  0  0  0
  181.6090  178.1050  139.6520 C   0  0  2  0  0  0  0  0  0  0  0  0
  185.1680  178.2540  143.2220 O   0  0  0  0  0  0  0  0  0  0  0  0
  181.3850  177.8670  138.1540 C   0  0  1  0  0  3  0  0  0  0  0  0
  185.6160  177.8530  136.1990 C   0  0  2  0  0  3  0  0  0  0  0  0
  186.5600  178.2550  143.1040 C   0  0  1  0  0  3  0  0  0  0  0  0
  188.1430  179.0370  139.7640 O   0  0  0  0  0  0  0  0  0  0  0  0
  182.5430  175.8430  139.2380 N   0  0  0  0  0  2  0  0  0  0  0  0
  186.0760  176.4400  136.5210 C   0  0  2  0  0  3  0  0  0  0  0  0
  187.6070  177.0150  138.5450 C   0  0  1  0  0  3  0  0  0  0  0  0
  188.9540  179.0710  141.8980 O   0  0  0  0  0  0  0  0  0  0  0  0
  185.7010  178.1270  140.9790 O   0  0  0  0  0  0  0  0  0  0  0  0
  180.9660  177.1150  140.4240 O   0  0  0  0  0  0  0  0  0  0  0  0
  187.3140  178.4970  138.7360 C   0  0  0  0  0  2  0  0  0  0  0  0
  183.0780  178.3660  140.0920 C   0  0  1  0  0  3  0  0  0  0  0  0
  183.7130  176.9190  137.4630 C   0  0  1  0  0  3  0  0  0  0  0  0
  184.5930  176.7310  136.2320 C   0  0  1  0  0  3  0  0  0  0  0  0
  183.5990  179.4550  139.3830 O   0  0  0  0  0  1  0  0  0  0  0  0
  182.5940  177.9180  137.1880 C   0  0  0  0  0  2  0  0  0  0  0  0
  188.0260  178.7160  141.1240 C   0  0  0  0  0  0  0  0  0  0  0  0
  181.3450  176.6930  139.1430 C   0  0  1  0  0  0  0  0  0  0  0  0
  186.3960  176.2370  138.0110 C   0  0  0  0  0  2  0  0  0  0  0  0
  183.1190  175.6110  137.9240 C   0  0  0  0  0  2  0  0  0  0  0  0
  187.2000  177.2950  144.1030 C   0  0  0  0  0  2  0  0  0  0  0  0
  187.7260  176.0370  143.4380 C   0  0  0  0  0  1  0  0  0  0  0  0
  189.3100  177.5830  137.0260 O   0  0  0  0  0  0  0  0  0  0  0  0
  188.9100  176.7590  137.8360 C   0  0  0  0  0  0  0  0  0  0  0  0
  189.6630  175.4750  138.0350 C   0  0  1  0  0  3  0  0  0  0  0  0
  189.2860  174.4720  136.9560 C   0  0  0  0  0  1  0  0  0  0  0  0
  192.0840  175.1840  137.2110 C   0  0  0  0  0  3  0  0  0  0  0  0
  193.0940  176.4210  138.7680 C   0  0  0  0  0  3  0  0  0  0  0  0
  191.7690  176.4630  139.0220 N   0  0  0  0  0  0  0  0  0  0  0  0
  193.3220  175.6440  137.6440 C   0  0  0  0  0  3  0  0  0  0  0  0
  191.1540  175.6920  138.1080 C   0  0  0  0  0  0  0  0  0  0  0  0
  191.1270  177.1430  140.1560 C   0  0  0  0  0  2  0  0  0  0  0  0
  192.1260  177.4550  141.2400 C   0  0  0  0  0  0  0  0  0  0  0  0
  193.3000  177.7650  140.9020 O   0  0  0  0  0  0  0  0  0  0  0  0
  191.5350  178.6020  143.3850 C   0  0  0  0  0  3  0  0  0  0  0  0
  191.3070  176.1470  144.7010 C   0  0  0  0  0  3  0  0  0  0  0  0
  191.0790  177.3350  145.4020 C   0  0  0  0  0  3  0  0  0  0  0  0
  191.7640  177.4180  142.6710 C   0  0  0  0  0  0  0  0  0  0  0  0
  191.6480  176.1890  143.3410 C   0  0  0  0  0  3  0  0  0  0  0  0
  191.1940  178.5630  144.7430 C   0  0  0  0  0  3  0  0  0  0  0  0
  185.9290  178.2730  134.7570 C   0  0  0  0  0  2  0  0  0  0  0  0
  187.2300  178.7600  134.5940 O   0  0  0  0  0  1  0  0  0  0  0  0
  182.3130  178.1460  142.5710 C   0  0  0  0  0  2  0  0  0  0  0  0
  182.2970  179.7080  144.4450 N   0  0  0  0  0  1  0  0  0  0  0  0
  181.6260  179.3430  143.2060 C   0  0  2  0  0  3  0  0  0  0  0  0
  179.8840  177.8580  144.1710 O   0  0  0  0  0  1  0  0  0  0  0  0
  180.2000  179.0220  143.4810 C   0  0  0  0  0  0  0  0  0  0  0  0
  179.2860  179.8140  143.1280 O   0  0  0  0  0  0  0  0  0  0  0  0
  1 14  1  6  0  0  0
  1  5  1  0  0  0  0
  2  1  1  0  0  0  0
  2 48  1  1  0  0  0
  3 14  1  6  0  0  0
  3  8  1  0  0  0  0
  4 17  1  0  0  0  0
  4 15  1  1  0  0  0
  6 21  1  6  0  0  0
  6 23  1  0  0  0  0
  6  4  1  0  0  0  0
  7 46  1  6  0  0  0
  7 19  1  0  0  0  0
  7 11  1  0  0  0  0
  8  5  1  0  0  0  0
  8 26  1  1  0  0  0
  9 22  1  0  0  0  0
 11 24  1  1  0  0  0
 12 29  1  6  0  0  0
 12 16  1  0  0  0  0
 16  9  1  0  0  0  0
 17 20  1  6  0  0  0
 17  2  1  0  0  0  0
 18 21  1  6  0  0  0
 18 25  1  0  0  0  0
 19 11  1  0  0  0  0
 19 18  1  0  0  0  0
 22  3  1  0  0  0  0
 22 13  2  0  0  0  0
 23 10  1  0  0  0  0
 23  4  1  0  0  0  0
 23 15  1  0  0  0  0
 24 12  1  0  0  0  0
 25 10  1  0  0  0  0
 27 26  1  0  0  0  0
 28 29  2  0  0  0  0
 29 30  1  0  0  0  0
 30 36  1  0  0  0  0
 31 30  1  0  0  0  0
 32 35  1  0  0  0  0
 32 36  2  0  0  0  0
 33 34  1  0  0  0  0
 34 37  1  0  0  0  0
 35 33  2  0  0  0  0
 36 34  1  0  0  0  0
 37 38  1  0  0  0  0
 38 43  1  0  0  0  0
 39 38  2  0  0  0  0
 40 45  1  0  0  0  0
 41 42  1  0  0  0  0
 43 44  1  0  0  0  0
 43 40  2  0  0  0  0
 44 41  2  0  0  0  0
 45 42  2  0  0  0  0
 47 46  1  0  0  0  0
 48 50  1  0  0  0  0
 50 52  1  0  0  0  0
 50 49  1  0  0  0  0
 52 51  1  0  0  0  0
 53 52  2  0  0  0  0
M  END
>  <MODEL>
8

>  <REMARK>
 VINA RESULT:      -6.0      2.910      5.369
  Name = 
  11 active torsions:
  status: ('A' for Active; 'I' for Inactive)
    1  A    between atoms: C_2  and  C_17
    2  A    between atoms: C_5  and  C_38
    3  A    between atoms: C_12  and  C_15
    4  A    between atoms: C_16  and  CA_44
    5  A    between atoms: N_21  and  C_39
    6  A    between atoms: C_25  and  C_50
    7  A    between atoms: C_27  and  C_28
    8  A    between atoms: C_28  and  C_39
    9  A    between atoms: C_29  and  C_31
   10  A    between atoms: C_29  and  C_50
   11  A    between atoms: C_38  and  CA_44
                            x       y       z     vdW  Elec       q    Type
                         _______ _______ _______ _____ _____    ______ ____

>  <TORSDO>
F 11

$$$$
=
 OpenBabel11062414093D

 53 60  0  0  1  0  0  0  0  0999 V2000
  184.9130  177.8570  141.7910 C   0  0  2  0  0  3  0  0  0  0  0  0
  183.6350  178.6020  141.3840 C   0  0  1  0  0  3  0  0  0  0  0  0
  187.0940  177.8210  141.6100 C   0  0  1  0  0  3  0  0  0  0  0  0
  181.9090  178.1550  139.3830 C   0  0  2  0  0  0  0  0  0  0  0  0
  185.3310  178.2440  143.0860 O   0  0  0  0  0  0  0  0  0  0  0  0
  181.7350  177.9090  137.8790 C   0  0  1  0  0  3  0  0  0  0  0  0
  186.0360  177.7640  136.0890 C   0  0  2  0  0  3  0  0  0  0  0  0
  186.7260  178.2060  143.0220 C   0  0  1  0  0  3  0  0  0  0  0  0
  188.4560  178.9150  139.7390 O   0  0  0  0  0  0  0  0  0  0  0  0
  182.7960  175.8650  139.0240 N   0  0  0  0  0  2  0  0  0  0  0  0
  186.4460  176.3420  136.4410 C   0  0  2  0  0  3  0  0  0  0  0  0
  187.9130  176.8960  138.5170 C   0  0  1  0  0  3  0  0  0  0  0  0
  189.1850  178.9470  141.9020 O   0  0  0  0  0  0  0  0  0  0  0  0
  185.9460  178.0810  140.8670 O   0  0  0  0  0  0  0  0  0  0  0  0
  181.2100  177.1900  140.1370 O   0  0  0  0  0  0  0  0  0  0  0  0
  187.6530  178.3880  138.6840 C   0  0  0  0  0  2  0  0  0  0  0  0
  183.3660  178.3820  139.8770 C   0  0  1  0  0  3  0  0  0  0  0  0
  184.0630  176.8930  137.2860 C   0  0  1  0  0  3  0  0  0  0  0  0
  184.9840  176.6710  136.0930 C   0  0  1  0  0  3  0  0  0  0  0  0
  183.9430  179.4490  139.1790 O   0  0  0  0  0  1  0  0  0  0  0  0
  182.9810  177.9180  136.9600 C   0  0  0  0  0  2  0  0  0  0  0  0
  188.2780  178.6100  141.0960 C   0  0  0  0  0  0  0  0  0  0  0  0
  181.6260  176.7460  138.8760 C   0  0  1  0  0  0  0  0  0  0  0  0
  186.7030  176.1460  137.9440 C   0  0  0  0  0  2  0  0  0  0  0  0
  183.4170  175.6060  137.7360 C   0  0  0  0  0  2  0  0  0  0  0  0
  187.3000  177.2390  144.0530 C   0  0  0  0  0  2  0  0  0  0  0  0
  186.9710  177.6510  145.4760 C   0  0  0  0  0  1  0  0  0  0  0  0
  190.2620  176.7930  138.4960 O   0  0  0  0  0  0  0  0  0  0  0  0
  189.2350  176.5990  137.8610 C   0  0  0  0  0  0  0  0  0  0  0  0
  189.3100  176.1690  136.4240 C   0  0  1  0  0  3  0  0  0  0  0  0
  189.8200  177.3110  135.5590 C   0  0  0  0  0  1  0  0  0  0  0  0
  191.4240  174.7290  136.7150 C   0  0  0  0  0  3  0  0  0  0  0  0
  190.6910  172.8890  135.6890 C   0  0  0  0  0  3  0  0  0  0  0  0
  189.6870  173.7910  135.6590 N   0  0  0  0  0  0  0  0  0  0  0  0
  191.7800  173.4370  136.3480 C   0  0  0  0  0  3  0  0  0  0  0  0
  190.1300  174.9160  136.2460 C   0  0  0  0  0  0  0  0  0  0  0  0
  188.3820  173.6080  135.0060 C   0  0  0  0  0  2  0  0  0  0  0  0
  187.7980  172.2570  135.3250 C   0  0  0  0  0  0  0  0  0  0  0  0
  188.5050  171.2350  135.1210 O   0  0  0  0  0  0  0  0  0  0  0  0
  186.0950  172.6670  137.1150 C   0  0  0  0  0  3  0  0  0  0  0  0
  184.1660  171.2360  135.6860 C   0  0  0  0  0  3  0  0  0  0  0  0
  183.8370  171.8030  136.9200 C   0  0  0  0  0  3  0  0  0  0  0  0
  186.4360  172.1050  135.8760 C   0  0  0  0  0  0  0  0  0  0  0  0
  185.4600  171.3860  135.1670 C   0  0  0  0  0  3  0  0  0  0  0  0
  184.8030  172.5190  137.6350 C   0  0  0  0  0  3  0  0  0  0  0  0
  186.4160  178.1620  134.6570 C   0  0  0  0  0  2  0  0  0  0  0  0
  187.1920  179.3250  134.5940 O   0  0  0  0  0  1  0  0  0  0  0  0
  182.5010  178.2040  142.3260 C   0  0  0  0  0  2  0  0  0  0  0  0
  182.1770  179.1480  144.5530 N   0  0  0  0  0  1  0  0  0  0  0  0
  182.0030  179.3950  143.1290 C   0  0  2  0  0  3  0  0  0  0  0  0
  179.6960  178.5630  142.7380 O   0  0  0  0  0  1  0  0  0  0  0  0
  180.5670  179.6410  142.8320 C   0  0  0  0  0  0  0  0  0  0  0  0
  180.1320  180.8170  142.7060 O   0  0  0  0  0  0  0  0  0  0  0  0
  1 14  1  6  0  0  0
  1  5  1  0  0  0  0
  2  1  1  0  0  0  0
  2 48  1  1  0  0  0
  3 14  1  6  0  0  0
  3  8  1  0  0  0  0
  4 17  1  0  0  0  0
  4 15  1  1  0  0  0
  6 21  1  6  0  0  0
  6 23  1  0  0  0  0
  6  4  1  0  0  0  0
  7 46  1  6  0  0  0
  7 19  1  0  0  0  0
  7 11  1  0  0  0  0
  8  5  1  0  0  0  0
  8 26  1  1  0  0  0
  9 22  1  0  0  0  0
 11 24  1  1  0  0  0
 12 29  1  6  0  0  0
 12 16  1  0  0  0  0
 16  9  1  0  0  0  0
 17 20  1  6  0  0  0
 17  2  1  0  0  0  0
 18 21  1  6  0  0  0
 18 25  1  0  0  0  0
 19 11  1  0  0  0  0
 19 18  1  0  0  0  0
 22  3  1  0  0  0  0
 22 13  2  0  0  0  0
 23 10  1  0  0  0  0
 23  4  1  0  0  0  0
 23 15  1  0  0  0  0
 24 12  1  0  0  0  0
 25 10  1  0  0  0  0
 26 27  1  0  0  0  0
 29 28  2  0  0  0  0
 30 29  1  0  0  0  0
 31 30  1  0  0  0  0
 33 35  2  0  0  0  0
 34 33  1  0  0  0  0
 34 36  1  0  0  0  0
 35 32  1  0  0  0  0
 36 30  1  0  0  0  0
 36 32  2  0  0  0  0
 37 38  1  0  0  0  0
 37 34  1  0  0  0  0
 38 43  1  0  0  0  0
 39 38  2  0  0  0  0
 40 45  1  0  0  0  0
 41 42  1  0  0  0  0
 42 45  2  0  0  0  0
 43 40  2  0  0  0  0
 44 41  2  0  0  0  0
 44 43  1  0  0  0  0
 47 46  1  0  0  0  0
 48 50  1  0  0  0  0
 50 49  1  0  0  0  0
 51 52  1  0  0  0  0
 52 50  1  0  0  0  0
 53 52  2  0  0  0  0
M  END
>  <MODEL>
9

>  <REMARK>
 VINA RESULT:      -5.9      2.835      7.072
  Name = 
  11 active torsions:
  status: ('A' for Active; 'I' for Inactive)
    1  A    between atoms: C_2  and  C_17
    2  A    between atoms: C_5  and  C_38
    3  A    between atoms: C_12  and  C_15
    4  A    between atoms: C_16  and  CA_44
    5  A    between atoms: N_21  and  C_39
    6  A    between atoms: C_25  and  C_50
    7  A    between atoms: C_27  and  C_28
    8  A    between atoms: C_28  and  C_39
    9  A    between atoms: C_29  and  C_31
   10  A    between atoms: C_29  and  C_50
   11  A    between atoms: C_38  and  CA_44
                            x       y       z     vdW  Elec       q    Type
                         _______ _______ _______ _____ _____    ______ ____

>  <TORSDO>
F 11

$$$$
