=
 OpenBabel11062417083D

 65 71  0  0  1  0  0  0  0  0999 V2000
  185.3850  177.6090  143.9520 N   0  0  0  0  0  2  0  0  0  0  0  0
  188.0580  175.6310  137.5850 C   0  0  0  0  0  2  0  0  0  0  0  0
  184.5570  179.5040  142.4830 C   0  0  0  0  0  2  0  0  0  0  0  0
  184.2380  179.4230  139.5010 C   0  0  0  0  0  2  0  0  0  0  0  0
  183.3500  179.8480  141.7360 N   0  0  0  0  0  2  0  0  0  0  0  0
  187.1540  177.9460  137.8000 C   0  0  0  0  0  0  0  0  0  0  0  0
  190.5340  175.2720  138.2190 C   0  0  2  0  0  3  0  0  0  0  0  0
  187.0300  177.4550  142.5120 C   0  0  0  0  0  2  0  0  0  0  0  0
  183.1440  178.2270  143.9460 O   0  0  0  0  0  0  0  0  0  0  0  0
  186.6800  177.9710  143.7650 O   0  0  0  0  0  0  0  0  0  0  0  0
  187.0100  176.5130  138.2570 C   0  0  0  0  0  2  0  0  0  0  0  0
  191.5420  175.9170  142.4290 N   0  0  0  0  0  0  0  0  0  0  0  0
  190.8060  176.5680  144.7140 C   0  0  0  0  0  2  0  0  0  0  0  0
  190.1270  175.9910  140.5440 N   0  0  0  0  0  2  0  0  0  0  0  0
  188.3830  177.9960  142.0420 C   0  0  2  0  0  0  0  0  0  0  0  0
  191.8520  176.1830  143.7740 N   0  0  0  0  0  2  0  0  0  0  0  0
  184.4310  178.2040  138.1510 S   0  0  0  0  0  0  0  0  0  0  0  0
  183.2130  178.9800  140.5620 C   0  0  1  0  0  3  0  0  0  0  0  0
  188.4920  178.4580  137.3200 C   0  0  0  0  0  2  0  0  0  0  0  0
  189.4310  176.2020  137.7940 C   0  0  0  0  0  0  0  0  0  0  0  0
  189.7280  177.3330  144.0080 C   0  0  0  0  0  3  0  0  0  0  0  0
  186.0840  178.7440  137.6920 C   0  0  0  0  0  3  0  0  0  0  0  0
  188.4120  177.8700  140.6680 F   0  0  0  0  0  0  0  0  0  0  0  0
  190.4310  176.3320  141.8980 C   0  0  0  0  0  0  0  0  0  0  0  0
  184.3010  178.4160  143.4820 C   0  0  0  0  0  0  0  0  0  0  0  0
  189.5060  177.1940  142.6910 C   0  0  0  0  0  0  0  0  0  0  0  0
  189.6250  177.5300  137.6890 C   0  0  0  0  0  3  0  0  0  0  0  0
  191.1520  175.6080  139.5860 C   0  0  0  0  0  2  0  0  0  0  0  0
  193.5120  176.2170  137.8960 C   0  0  0  0  0  2  0  0  0  0  0  0
  195.2040  174.7910  136.9140 C   0  0  1  0  0  3  0  0  0  0  0  0
  191.1220  173.8220  136.2530 C   0  0  0  0  0  0  0  0  0  0  0  0
  191.5470  175.0490  137.0720 C   0  0  2  0  0  3  0  0  0  0  0  0
  195.0230  176.0550  137.7430 C   0  0  0  0  0  2  0  0  0  0  0  0
  193.7920  174.4740  136.4840 C   0  0  1  0  0  3  0  0  0  0  0  0
  193.4980  173.0110  136.2120 C   0  0  0  0  0  2  0  0  0  0  0  0
  192.0400  172.9190  135.8310 C   0  0  0  0  0  3  0  0  0  0  0  0
  192.9340  174.9210  137.5650 N   0  0  1  0  0  0  0  0  0  0  0  0
  197.5430  175.3210  136.0100 C   0  0  0  0  0  2  0  0  0  0  0  0
  196.0850  175.0680  135.7040 C   0  0  0  0  0  0  0  0  0  0  0  0
  195.5830  175.7460  134.6070 F   0  0  0  0  0  0  0  0  0  0  0  0
  197.1040  174.0010  135.3870 C   0  0  0  0  0  2  0  0  0  0  0  0
  189.4130  174.6560  134.5940 C   0  0  0  0  0  1  0  0  0  0  0  0
  189.6970  173.7230  135.7620 C   0  0  1  0  0  3  0  0  0  0  0  0
  187.9440  171.7930  136.0220 C   0  0  0  0  0  1  0  0  0  0  0  0
  189.2320  172.3200  135.4760 C   0  0  0  0  0  0  0  0  0  0  0  0
  189.9490  171.5770  134.8200 O   0  0  0  0  0  0  0  0  0  0  0  0
  189.8210  179.7700  142.7810 F   0  0  0  0  0  0  0  0  0  0  0  0
  188.2610  180.2570  141.2300 F   0  0  0  0  0  0  0  0  0  0  0  0
  188.5340  179.4930  142.3530 C   0  0  0  0  0  3  0  0  0  0  0  0
  181.7500  179.0840  140.0660 C   0  0  1  0  0  3  0  0  0  0  0  0
  181.6010  179.6420  138.6540 C   0  0  0  0  0  1  0  0  0  0  0  0
  179.5890  176.3210  141.4930 O   0  0  0  0  0  0  0  0  0  0  0  0
  181.0530  177.7930  140.1720 N   0  0  0  0  0  0  0  0  0  0  0  0
  179.8070  178.5370  142.0110 O   0  0  0  0  0  1  0  0  0  0  0  0
  180.1430  177.5770  141.2680 C   0  0  0  0  0  0  0  0  0  0  0  0
  182.5180  175.9440  139.4670 C   0  0  0  0  0  3  0  0  0  0  0  0
  181.3600  176.7090  139.2670 C   0  0  0  0  0  0  0  0  0  0  0  0
  182.8280  174.8820  138.6150 C   0  0  0  0  0  3  0  0  0  0  0  0
  180.8440  175.3520  137.3140 C   0  0  0  0  0  3  0  0  0  0  0  0
  181.9840  174.5750  137.5400 C   0  0  0  0  0  0  0  0  0  0  0  0
  180.5270  176.4200  138.1650 C   0  0  0  0  0  0  0  0  0  0  0  0
  179.3240  177.2530  137.8560 C   0  0  0  0  0  2  0  0  0  0  0  0
  178.9390  177.0600  136.5290 O   0  0  0  0  0  1  0  0  0  0  0  0
  182.2620  173.5050  136.6890 O   0  0  0  0  0  0  0  0  0  0  0  0
  182.6470  173.7010  135.4180 O   0  0  0  0  0  1  0  0  0  0  0  0
  2 20  1  0  0  0  0
  2 11  1  0  0  0  0
  3 25  1  0  0  0  0
  4 18  1  0  0  0  0
  5  3  1  0  0  0  0
  6 11  1  0  0  0  0
  7 28  1  1  0  0  0
  8 10  1  0  0  0  0
 10  1  1  0  0  0  0
 12 16  1  0  0  0  0
 14 24  1  0  0  0  0
 15 23  1  6  0  0  0
 15 49  1  0  0  0  0
 15  8  1  0  0  0  0
 15 26  1  0  0  0  0
 16 13  1  0  0  0  0
 17  4  1  0  0  0  0
 18 50  1  6  0  0  0
 18  5  1  0  0  0  0
 19 27  1  0  0  0  0
 19  6  1  0  0  0  0
 20  7  1  0  0  0  0
 21 13  1  0  0  0  0
 22  6  2  0  0  0  0
 22 17  1  0  0  0  0
 24 12  2  0  0  0  0
 24 26  1  0  0  0  0
 25  9  2  0  0  0  0
 25  1  1  0  0  0  0
 26 21  2  0  0  0  0
 27 20  2  0  0  0  0
 28 14  1  0  0  0  0
 30 39  1  6  0  0  0
 30 33  1  0  0  0  0
 32 31  1  1  0  0  0
 32 37  1  0  0  0  0
 32  7  1  0  0  0  0
 33 29  1  0  0  0  0
 34 35  1  1  0  0  0
 34 30  1  0  0  0  0
 34 37  1  0  0  0  0
 36 35  1  0  0  0  0
 36 31  2  0  0  0  0
 37 29  1  6  0  0  0
 39 38  1  0  0  0  0
 40 39  1  0  0  0  0
 41 39  1  0  0  0  0
 41 38  1  0  0  0  0
 43 42  1  6  0  0  0
 43 31  1  0  0  0  0
 45 43  1  0  0  0  0
 45 44  1  0  0  0  0
 46 45  2  0  0  0  0
 48 49  1  0  0  0  0
 49 47  1  0  0  0  0
 50 51  1  6  0  0  0
 50 53  1  0  0  0  0
 53 55  1  0  0  0  0
 55 52  2  0  0  0  0
 55 54  1  0  0  0  0
 57 56  1  0  0  0  0
 57 53  1  0  0  0  0
 58 56  2  0  0  0  0
 59 60  2  0  0  0  0
 59 61  1  0  0  0  0
 60 58  1  0  0  0  0
 61 57  2  0  0  0  0
 62 61  1  0  0  0  0
 63 62  1  0  0  0  0
 64 60  1  0  0  0  0
 65 64  1  0  0  0  0
M  END
>  <MODEL>
1

>  <REMARK>
 VINA RESULT:      -2.8      0.000      0.000
  Name = 
  10 active torsions:
  status: ('A' for Active; 'I' for Inactive)
    1  A    between atoms: C_4  and  C_42
    2  A    between atoms: O_6  and  C_38
    3  A    between atoms: C_11  and  N_18
    4  A    between atoms: C_12  and  C_45
    5  A    between atoms: N_18  and  C_37
    6  A    between atoms: C_20  and  C_39
    7  A    between atoms: C_25  and  C_60
    8  A    between atoms: C_30  and  C_37
    9  A    between atoms: C_31  and  C_50
   10  A    between atoms: C_36  and  C_50
                            x       y       z     vdW  Elec       q    Type
                         _______ _______ _______ _____ _____    ______ ____

>  <TORSDO>
F 10

$$$$
=
 OpenBabel11062417083D

 65 71  0  0  1  0  0  0  0  0999 V2000
  190.2770  178.7140  144.0110 N   0  0  0  0  0  2  0  0  0  0  0  0
  185.4140  179.3920  138.7670 C   0  0  0  0  0  2  0  0  0  0  0  0
  191.0040  176.8530  142.4470 C   0  0  0  0  0  2  0  0  0  0  0  0
  190.3660  176.6460  139.5240 C   0  0  0  0  0  2  0  0  0  0  0  0
  191.9680  176.6600  141.3670 N   0  0  0  0  0  2  0  0  0  0  0  0
  186.8210  177.3330  138.7920 C   0  0  0  0  0  0  0  0  0  0  0  0
  183.2360  179.3450  140.1530 C   0  0  2  0  0  3  0  0  0  0  0  0
  188.2760  178.3840  143.1780 C   0  0  0  0  0  2  0  0  0  0  0  0
  192.4860  178.5370  143.3080 O   0  0  0  0  0  0  0  0  0  0  0  0
  189.0980  178.0930  144.2730 O   0  0  0  0  0  0  0  0  0  0  0  0
  186.7830  178.8100  139.1050 C   0  0  0  0  0  2  0  0  0  0  0  0
  183.7360  179.0150  144.4880 N   0  0  0  0  0  0  0  0  0  0  0  0
  185.2610  178.7870  146.4390 C   0  0  0  0  0  2  0  0  0  0  0  0
  184.4840  178.9920  142.2520 N   0  0  0  0  0  2  0  0  0  0  0  0
  186.9960  177.5440  143.2000 C   0  0  2  0  0  0  0  0  0  0  0  0
  183.9200  178.8530  145.8720 N   0  0  0  0  0  2  0  0  0  0  0  0
  189.5080  177.6400  138.2510 S   0  0  0  0  0  0  0  0  0  0  0  0
  191.5450  177.3960  140.1710 C   0  0  1  0  0  3  0  0  0  0  0  0
  185.5450  176.5230  138.7980 C   0  0  0  0  0  2  0  0  0  0  0  0
  184.3300  178.5990  139.4390 C   0  0  0  0  0  0  0  0  0  0  0  0
  186.2100  178.1640  145.4600 C   0  0  0  0  0  3  0  0  0  0  0  0
  187.9520  176.7460  138.3810 C   0  0  0  0  0  3  0  0  0  0  0  0
  186.5200  177.5010  141.9040 F   0  0  0  0  0  0  0  0  0  0  0  0
  184.6920  178.7600  143.6460 C   0  0  0  0  0  0  0  0  0  0  0  0
  191.3110  178.0790  143.2550 C   0  0  0  0  0  0  0  0  0  0  0  0
  185.9800  178.1880  144.1370 C   0  0  0  0  0  0  0  0  0  0  0  0
  184.4070  177.2560  139.4680 C   0  0  0  0  0  3  0  0  0  0  0  0
  183.1570  179.0590  141.6610 C   0  0  0  0  0  2  0  0  0  0  0  0
  182.6440  179.0710  137.0810 C   0  0  0  0  0  2  0  0  0  0  0  0
  180.8800  177.6390  136.2440 C   0  0  1  0  0  3  0  0  0  0  0  0
  180.8050  178.7400  140.3450 C   0  0  0  0  0  0  0  0  0  0  0  0
  181.8980  179.2370  139.3870 C   0  0  2  0  0  3  0  0  0  0  0  0
  182.1250  178.4020  135.8100 C   0  0  0  0  0  2  0  0  0  0  0  0
  180.6780  178.1190  137.6610 C   0  0  1  0  0  3  0  0  0  0  0  0
  179.9700  177.1510  138.5900 C   0  0  0  0  0  2  0  0  0  0  0  0
  179.9020  177.8120  139.9450 C   0  0  0  0  0  3  0  0  0  0  0  0
  182.0040  178.3770  138.1900 N   0  0  1  0  0  0  0  0  0  0  0  0
  178.9310  179.2470  135.8150 C   0  0  0  0  0  2  0  0  0  0  0  0
  179.6920  178.0190  135.3730 C   0  0  0  0  0  0  0  0  0  0  0  0
  178.9320  177.0430  134.7510 F   0  0  0  0  0  0  0  0  0  0  0  0
  179.8430  179.3040  134.5950 C   0  0  0  0  0  2  0  0  0  0  0  0
  179.7380  180.6610  141.5880 C   0  0  0  0  0  1  0  0  0  0  0  0
  180.6270  179.4300  141.6780 C   0  0  1  0  0  3  0  0  0  0  0  0
  179.8750  179.0470  144.1580 C   0  0  0  0  0  1  0  0  0  0  0  0
  180.2010  178.5190  142.7980 C   0  0  0  0  0  0  0  0  0  0  0  0
  180.1660  177.3120  142.6040 O   0  0  0  0  0  0  0  0  0  0  0  0
  188.2760  175.5490  142.8260 F   0  0  0  0  0  0  0  0  0  0  0  0
  187.6710  176.0290  144.9420 F   0  0  0  0  0  0  0  0  0  0  0  0
  187.2780  176.0920  143.6160 C   0  0  0  0  0  3  0  0  0  0  0  0
  192.7710  177.5150  139.2330 C   0  0  1  0  0  3  0  0  0  0  0  0
  193.9380  178.3080  139.8160 C   0  0  0  0  0  1  0  0  0  0  0  0
  195.0000  174.4800  138.8420 O   0  0  0  0  0  0  0  0  0  0  0  0
  193.2360  176.1940  138.7850 N   0  0  0  0  0  0  0  0  0  0  0  0
  194.9840  176.2030  140.3450 O   0  0  0  0  0  1  0  0  0  0  0  0
  194.4430  175.6480  139.3520 C   0  0  0  0  0  0  0  0  0  0  0  0
  191.5460  174.5860  137.9970 C   0  0  0  0  0  3  0  0  0  0  0  0
  192.5690  175.5000  137.7070 C   0  0  0  0  0  0  0  0  0  0  0  0
  190.8760  173.9150  136.9720 C   0  0  0  0  0  3  0  0  0  0  0  0
  192.2700  175.0280  135.3380 C   0  0  0  0  0  3  0  0  0  0  0  0
  191.2290  174.1430  135.6350 C   0  0  0  0  0  0  0  0  0  0  0  0
  192.9470  175.7050  136.3620 C   0  0  0  0  0  0  0  0  0  0  0  0
  194.0840  176.6060  135.9990 C   0  0  0  0  0  2  0  0  0  0  0  0
  195.0630  175.8840  135.3150 O   0  0  0  0  0  1  0  0  0  0  0  0
  190.5590  173.5010  134.5940 O   0  0  0  0  0  0  0  0  0  0  0  0
  189.6950  172.5000  134.8280 O   0  0  0  0  0  1  0  0  0  0  0  0
  1 10  1  0  0  0  0
  2 11  1  0  0  0  0
  2 20  1  0  0  0  0
  3 25  1  0  0  0  0
  4 18  1  0  0  0  0
  5  3  1  0  0  0  0
  6 19  1  0  0  0  0
  6 11  1  0  0  0  0
  7 28  1  1  0  0  0
  8 15  1  0  0  0  0
  8 10  1  0  0  0  0
 12 16  1  0  0  0  0
 14 24  1  0  0  0  0
 15 23  1  6  0  0  0
 15 49  1  0  0  0  0
 15 26  1  0  0  0  0
 16 13  1  0  0  0  0
 17 22  1  0  0  0  0
 17  4  1  0  0  0  0
 18 50  1  6  0  0  0
 18  5  1  0  0  0  0
 19 27  1  0  0  0  0
 20 27  2  0  0  0  0
 20  7  1  0  0  0  0
 21 13  1  0  0  0  0
 22  6  2  0  0  0  0
 24 26  1  0  0  0  0
 24 12  2  0  0  0  0
 25  9  2  0  0  0  0
 25  1  1  0  0  0  0
 26 21  2  0  0  0  0
 28 14  1  0  0  0  0
 30 39  1  6  0  0  0
 30 34  1  0  0  0  0
 31 43  1  0  0  0  0
 32  7  1  0  0  0  0
 32 31  1  1  0  0  0
 33 30  1  0  0  0  0
 33 29  1  0  0  0  0
 34 37  1  0  0  0  0
 34 35  1  1  0  0  0
 35 36  1  0  0  0  0
 36 31  2  0  0  0  0
 37 29  1  6  0  0  0
 37 32  1  0  0  0  0
 39 38  1  0  0  0  0
 40 39  1  0  0  0  0
 41 39  1  0  0  0  0
 41 38  1  0  0  0  0
 43 42  1  6  0  0  0
 43 45  1  0  0  0  0
 45 44  1  0  0  0  0
 46 45  2  0  0  0  0
 47 49  1  0  0  0  0
 49 48  1  0  0  0  0
 50 51  1  1  0  0  0
 52 55  2  0  0  0  0
 53 50  1  0  0  0  0
 53 55  1  0  0  0  0
 55 54  1  0  0  0  0
 57 56  1  0  0  0  0
 57 53  1  0  0  0  0
 58 56  2  0  0  0  0
 59 60  2  0  0  0  0
 59 61  1  0  0  0  0
 60 58  1  0  0  0  0
 61 57  2  0  0  0  0
 62 61  1  0  0  0  0
 63 62  1  0  0  0  0
 64 65  1  0  0  0  0
 64 60  1  0  0  0  0
M  END
>  <MODEL>
2

>  <REMARK>
 VINA RESULT:      -0.1      3.053     10.464
  Name = 
  10 active torsions:
  status: ('A' for Active; 'I' for Inactive)
    1  A    between atoms: C_4  and  C_42
    2  A    between atoms: O_6  and  C_38
    3  A    between atoms: C_11  and  N_18
    4  A    between atoms: C_12  and  C_45
    5  A    between atoms: N_18  and  C_37
    6  A    between atoms: C_20  and  C_39
    7  A    between atoms: C_25  and  C_60
    8  A    between atoms: C_30  and  C_37
    9  A    between atoms: C_31  and  C_50
   10  A    between atoms: C_36  and  C_50
                            x       y       z     vdW  Elec       q    Type
                         _______ _______ _______ _____ _____    ______ ____

>  <TORSDO>
F 10

$$$$
