=
 OpenBabel11062414483D

 33 37  0  0  1  0  0  0  0  0999 V2000
  192.0100  177.6130  145.4410 O   0  0  0  0  0  0  0  0  0  0  0  0
  184.3580  178.2580  144.4160 O   0  0  0  0  0  0  0  0  0  0  0  0
  190.2680  176.8780  140.7580 O   0  0  0  0  0  0  0  0  0  0  0  0
  189.5360  178.8170  138.8080 O   0  0  0  0  0  0  0  0  0  0  0  0
  188.6120  176.6890  142.5280 C   0  0  2  0  0  3  0  0  0  0  0  0
  189.9080  178.2290  144.1580 C   0  0  1  0  0  3  0  0  0  0  0  0
  185.1840  178.2150  143.5190 C   0  0  0  0  0  0  0  0  0  0  0  0
  186.9460  177.9560  141.2710 C   0  0  1  0  0  3  0  0  0  0  0  0
  187.7370  177.7610  145.3400 C   0  0  1  0  0  3  0  0  0  0  0  0
  191.3590  178.4190  144.5040 C   0  0  0  0  0  0  0  0  0  0  0  0
  189.6520  176.8040  143.6690 C   0  0  1  0  0  3  0  0  0  0  0  0
  189.1360  177.1800  141.2210 C   0  0  0  0  0  0  0  0  0  0  0  0
  191.4220  176.4200  145.9420 C   0  0  0  0  0  2  0  0  0  0  0  0
  186.2790  179.3120  141.4370 C   0  0  0  0  0  2  0  0  0  0  0  0
  188.1830  177.9690  140.5060 N   0  0  0  0  0  0  0  0  0  0  0  0
  191.9930  179.3600  143.9600 O   0  0  0  0  0  0  0  0  0  0  0  0
  189.1670  177.2420  145.0710 C   0  0  1  0  0  0  0  0  0  0  0  0
  186.2510  177.1330  143.5350 C   0  0  1  0  0  3  0  0  0  0  0  0
  187.3980  177.5820  142.6540 C   0  0  1  0  0  3  0  0  0  0  0  0
  185.0350  179.1790  142.3440 C   0  0  0  0  0  2  0  0  0  0  0  0
  188.3760  178.5020  139.1830 C   0  0  0  0  0  0  0  0  0  0  0  0
  186.7050  176.8130  144.8980 N   0  0  0  0  0  2  0  0  0  0  0  0
  189.9540  176.6610  146.2630 C   0  0  0  0  0  2  0  0  0  0  0  0
  187.3150  178.6930  138.2910 O   0  0  0  0  0  0  0  0  0  0  0  0
  185.1030  177.8340  137.9670 C   0  0  0  0  0  1  0  0  0  0  0  0
  186.5800  177.6250  137.7120 C   0  0  0  0  0  2  0  0  0  0  0  0
  187.5380  178.2070  146.7270 N   0  0  0  0  0  0  0  0  0  0  0  0
  187.9330  177.1850  147.6070 N   0  0  0  0  0  2  0  0  0  0  0  0
  188.0410  177.7770  148.9300 C   0  0  0  0  0  2  0  0  0  0  0  0
  189.3370  178.5530  149.0310 C   0  0  0  0  0  1  0  0  0  0  0  0
  186.1100  178.4190  146.9210 C   0  0  0  0  0  2  0  0  0  0  0  0
  186.2140  180.5020  148.0520 F   0  0  0  0  0  0  0  0  0  0  0  0
  185.7960  179.9030  146.8790 C   0  0  0  0  0  2  0  0  0  0  0  0
  1 13  1  0  0  0  0
  3 12  2  0  0  0  0
  4 21  2  0  0  0  0
  5 12  1  6  0  0  0
  5 19  1  0  0  0  0
  5 11  1  0  0  0  0
  6 10  1  1  0  0  0
  6 17  1  0  0  0  0
  7 18  1  0  0  0  0
  7  2  2  0  0  0  0
  8 14  1  1  0  0  0
  8 19  1  0  0  0  0
  9 27  1  1  0  0  0
 10  1  1  0  0  0  0
 11  6  1  0  0  0  0
 11 17  1  0  0  0  0
 13 23  1  0  0  0  0
 14 20  1  0  0  0  0
 15 12  1  0  0  0  0
 15  8  1  0  0  0  0
 16 10  2  0  0  0  0
 17  9  1  0  0  0  0
 17 23  1  0  0  0  0
 18 22  1  0  0  0  0
 19 18  1  0  0  0  0
 20  7  1  0  0  0  0
 21 15  1  0  0  0  0
 22  9  1  0  0  0  0
 24 21  1  0  0  0  0
 26 25  1  0  0  0  0
 26 24  1  0  0  0  0
 27 31  1  0  0  0  0
 27 28  1  0  0  0  0
 28 29  1  0  0  0  0
 29 30  1  0  0  0  0
 33 31  1  0  0  0  0
 33 32  1  0  0  0  0
M  END
>  <MODEL>
1

>  <REMARK>
 VINA RESULT:      -7.8      0.000      0.000
  Name = 
  7 active torsions:
  status: ('A' for Active; 'I' for Inactive)
    1  A    between atoms: N_1  and  C_8
    2  A    between atoms: N_1  and  N_29
    3  A    between atoms: C_11  and  C_12
    4  A    between atoms: C_11  and  N_29
    5  A    between atoms: C_15  and  N_29
    6  A    between atoms: O_24  and  C_30
    7  A    between atoms: O_24  and  C_31
                            x       y       z     vdW  Elec       q    Type
                         _______ _______ _______ _____ _____    ______ ____

>  <TORSDO>
F 7

$$$$
=
 OpenBabel11062414483D

 33 37  0  0  1  0  0  0  0  0999 V2000
  187.4400  176.7790  136.1310 O   0  0  0  0  0  0  0  0  0  0  0  0
  184.0710  179.1530  142.6910 O   0  0  0  0  0  0  0  0  0  0  0  0
  190.4530  177.4460  140.1280 O   0  0  0  0  0  0  0  0  0  0  0  0
  190.8920  175.7020  142.3340 O   0  0  0  0  0  0  0  0  0  0  0  0
  188.2930  178.5550  140.2540 C   0  0  2  0  0  3  0  0  0  0  0  0
  187.1350  176.8850  138.6490 C   0  0  1  0  0  3  0  0  0  0  0  0
  185.2090  178.7210  142.6040 C   0  0  0  0  0  0  0  0  0  0  0  0
  187.9560  177.9010  142.5830 C   0  0  1  0  0  3  0  0  0  0  0  0
  185.2680  178.3670  139.4560 C   0  0  1  0  0  3  0  0  0  0  0  0
  187.5430  176.1760  137.3870 C   0  0  0  0  0  0  0  0  0  0  0  0
  187.8980  178.2000  138.8000 C   0  0  1  0  0  3  0  0  0  0  0  0
  189.4020  177.7030  140.7730 C   0  0  0  0  0  0  0  0  0  0  0  0
  187.1790  178.1690  135.9840 C   0  0  0  0  0  2  0  0  0  0  0  0
  186.9950  176.9740  143.3090 C   0  0  0  0  0  2  0  0  0  0  0  0
  189.1820  177.2710  142.1180 N   0  0  0  0  0  0  0  0  0  0  0  0
  187.9520  174.9890  137.4650 O   0  0  0  0  0  0  0  0  0  0  0  0
  186.4000  178.2130  138.4160 C   0  0  1  0  0  0  0  0  0  0  0  0
  186.1350  179.2640  141.5290 C   0  0  1  0  0  3  0  0  0  0  0  0
  187.2480  178.2620  141.3080 C   0  0  1  0  0  3  0  0  0  0  0  0
  185.6970  177.7360  143.6640 C   0  0  0  0  0  2  0  0  0  0  0  0
  190.1180  176.5130  142.9070 C   0  0  0  0  0  0  0  0  0  0  0  0
  185.4250  179.5740  140.2790 N   0  0  0  0  0  2  0  0  0  0  0  0
  186.0880  178.5960  136.9550 C   0  0  0  0  0  2  0  0  0  0  0  0
  190.1970  176.6380  144.2980 O   0  0  0  0  0  0  0  0  0  0  0  0
  191.6380  176.5450  146.2100 C   0  0  0  0  0  1  0  0  0  0  0  0
  191.2560  177.3130  144.9630 C   0  0  0  0  0  2  0  0  0  0  0  0
  183.9260  178.2540  138.8660 N   0  0  0  0  0  0  0  0  0  0  0  0
  183.2030  179.4310  139.1220 N   0  0  0  0  0  2  0  0  0  0  0  0
  182.1300  179.4970  138.1430 C   0  0  0  0  0  2  0  0  0  0  0  0
  181.5800  180.9060  138.0920 C   0  0  0  0  0  1  0  0  0  0  0  0
  183.2370  177.1650  139.5460 C   0  0  0  0  0  2  0  0  0  0  0  0
  183.8770  176.1700  137.4890 F   0  0  0  0  0  0  0  0  0  0  0  0
  183.0890  175.9800  138.6090 C   0  0  0  0  0  2  0  0  0  0  0  0
  1 10  1  0  0  0  0
  3 12  2  0  0  0  0
  4 21  2  0  0  0  0
  5 12  1  1  0  0  0
  5 19  1  0  0  0  0
  6 10  1  6  0  0  0
  6 11  1  0  0  0  0
  7  2  2  0  0  0  0
  7 20  1  0  0  0  0
  8 14  1  1  0  0  0
  9 27  1  6  0  0  0
  9 22  1  0  0  0  0
 10 16  2  0  0  0  0
 11  5  1  0  0  0  0
 12 15  1  0  0  0  0
 13  1  1  0  0  0  0
 13 23  1  0  0  0  0
 14 20  1  0  0  0  0
 15  8  1  0  0  0  0
 15 21  1  0  0  0  0
 17  6  1  0  0  0  0
 17 11  1  0  0  0  0
 17  9  1  0  0  0  0
 18  7  1  0  0  0  0
 19 18  1  0  0  0  0
 19  8  1  0  0  0  0
 21 24  1  0  0  0  0
 22 18  1  0  0  0  0
 23 17  1  0  0  0  0
 24 26  1  0  0  0  0
 26 25  1  0  0  0  0
 27 28  1  0  0  0  0
 27 31  1  0  0  0  0
 29 28  1  0  0  0  0
 30 29  1  0  0  0  0
 32 33  1  0  0  0  0
 33 31  1  0  0  0  0
M  END
>  <MODEL>
2

>  <REMARK>
 VINA RESULT:      -7.6      3.190      7.399
  Name = 
  7 active torsions:
  status: ('A' for Active; 'I' for Inactive)
    1  A    between atoms: N_1  and  C_8
    2  A    between atoms: N_1  and  N_29
    3  A    between atoms: C_11  and  C_12
    4  A    between atoms: C_11  and  N_29
    5  A    between atoms: C_15  and  N_29
    6  A    between atoms: O_24  and  C_30
    7  A    between atoms: O_24  and  C_31
                            x       y       z     vdW  Elec       q    Type
                         _______ _______ _______ _____ _____    ______ ____

>  <TORSDO>
F 7

$$$$
=
 OpenBabel11062414483D

 33 37  0  0  1  0  0  0  0  0999 V2000
  183.8790  179.2990  142.6190 O   0  0  0  0  0  0  0  0  0  0  0  0
  191.1280  177.2540  140.8050 O   0  0  0  0  0  0  0  0  0  0  0  0
  186.6160  177.1300  146.2670 O   0  0  0  0  0  0  0  0  0  0  0  0
  188.5890  178.3050  147.9480 O   0  0  0  0  0  0  0  0  0  0  0  0
  187.4320  176.7800  144.0040 C   0  0  2  0  0  3  0  0  0  0  0  0
  186.3500  178.9440  143.0820 C   0  0  1  0  0  3  0  0  0  0  0  0
  190.6750  177.2990  141.9370 C   0  0  0  0  0  0  0  0  0  0  0  0
  189.7540  177.1720  144.6500 C   0  0  1  0  0  3  0  0  0  0  0  0
  187.7000  178.0540  141.1530 C   0  0  1  0  0  3  0  0  0  0  0  0
  185.0430  179.6520  143.3070 C   0  0  0  0  0  0  0  0  0  0  0  0
  186.2040  177.4460  143.3360 C   0  0  1  0  0  3  0  0  0  0  0  0
  187.5690  177.1410  145.4440 C   0  0  0  0  0  0  0  0  0  0  0  0
  183.7950  178.1070  141.8510 C   0  0  0  0  0  2  0  0  0  0  0  0
  190.7830  178.2490  144.3500 C   0  0  0  0  0  2  0  0  0  0  0  0
  188.9200  177.4270  145.8140 N   0  0  0  0  0  0  0  0  0  0  0  0
  185.0090  180.6180  144.1130 O   0  0  0  0  0  0  0  0  0  0  0  0
  186.3440  177.9760  141.8900 C   0  0  1  0  0  0  0  0  0  0  0  0
  189.3390  176.6400  142.2350 C   0  0  1  0  0  3  0  0  0  0  0  0
  188.7820  177.2450  143.5060 C   0  0  1  0  0  3  0  0  0  0  0  0
  191.5340  177.9100  143.0420 C   0  0  0  0  0  2  0  0  0  0  0  0
  189.3670  177.7180  147.1510 C   0  0  0  0  0  0  0  0  0  0  0  0
  188.3920  176.7590  141.1150 N   0  0  0  0  0  2  0  0  0  0  0  0
  185.0640  177.9260  141.0320 C   0  0  0  0  0  2  0  0  0  0  0  0
  190.6480  177.3790  147.6020 O   0  0  0  0  0  0  0  0  0  0  0  0
  192.2690  175.8000  146.8170 C   0  0  0  0  0  1  0  0  0  0  0  0
  191.0960  176.0390  147.7440 C   0  0  0  0  0  2  0  0  0  0  0  0
  187.5980  178.6810  139.8270 N   0  0  0  0  0  0  0  0  0  0  0  0
  187.2330  177.7110  138.8790 N   0  0  0  0  0  2  0  0  0  0  0  0
  186.1690  178.2810  138.0690 C   0  0  0  0  0  2  0  0  0  0  0  0
  185.8100  177.3180  136.9580 C   0  0  0  0  0  1  0  0  0  0  0  0
  188.9240  179.1640  139.4650 C   0  0  0  0  0  2  0  0  0  0  0  0
  189.2380  179.6090  137.1560 F   0  0  0  0  0  0  0  0  0  0  0  0
  189.3250  178.6120  138.1100 C   0  0  0  0  0  2  0  0  0  0  0  0
  1 10  1  0  0  0  0
  2  7  2  0  0  0  0
  5 12  1  1  0  0  0
  6 10  1  6  0  0  0
  6 11  1  0  0  0  0
  7 18  1  0  0  0  0
  7 20  1  0  0  0  0
  8 14  1  6  0  0  0
  8 15  1  0  0  0  0
  9 27  1  6  0  0  0
  9 17  1  0  0  0  0
 10 16  2  0  0  0  0
 11  5  1  0  0  0  0
 12 15  1  0  0  0  0
 12  3  2  0  0  0  0
 13  1  1  0  0  0  0
 15 21  1  0  0  0  0
 17  6  1  0  0  0  0
 17 11  1  0  0  0  0
 18 19  1  0  0  0  0
 19  5  1  0  0  0  0
 19  8  1  0  0  0  0
 20 14  1  0  0  0  0
 21 24  1  0  0  0  0
 21  4  2  0  0  0  0
 22  9  1  0  0  0  0
 22 18  1  0  0  0  0
 23 13  1  0  0  0  0
 23 17  1  0  0  0  0
 24 26  1  0  0  0  0
 25 26  1  0  0  0  0
 28 27  1  0  0  0  0
 29 28  1  0  0  0  0
 30 29  1  0  0  0  0
 31 27  1  0  0  0  0
 32 33  1  0  0  0  0
 33 31  1  0  0  0  0
M  END
>  <MODEL>
3

>  <REMARK>
 VINA RESULT:      -6.7      2.753      7.540
  Name = 
  7 active torsions:
  status: ('A' for Active; 'I' for Inactive)
    1  A    between atoms: N_1  and  C_8
    2  A    between atoms: N_1  and  N_29
    3  A    between atoms: C_11  and  C_12
    4  A    between atoms: C_11  and  N_29
    5  A    between atoms: C_15  and  N_29
    6  A    between atoms: O_24  and  C_30
    7  A    between atoms: O_24  and  C_31
                            x       y       z     vdW  Elec       q    Type
                         _______ _______ _______ _____ _____    ______ ____

>  <TORSDO>
F 7

$$$$
=
 OpenBabel11062414483D

 33 37  0  0  1  0  0  0  0  0999 V2000
  190.7290  176.5850  142.7640 O   0  0  0  0  0  0  0  0  0  0  0  0
  188.5130  176.8760  135.3460 O   0  0  0  0  0  0  0  0  0  0  0  0
  186.5130  179.1720  141.7440 O   0  0  0  0  0  0  0  0  0  0  0  0
  183.8830  178.1810  141.2980 O   0  0  0  0  0  0  0  0  0  0  0  0
  187.9760  178.7730  139.8440 C   0  0  2  0  0  3  0  0  0  0  0  0
  189.0360  176.6460  140.8720 C   0  0  1  0  0  3  0  0  0  0  0  0
  187.8240  177.2070  136.2970 C   0  0  0  0  0  0  0  0  0  0  0  0
  186.1130  178.1960  138.3750 C   0  0  1  0  0  3  0  0  0  0  0  0
  190.0040  176.7620  138.5520 C   0  0  1  0  0  3  0  0  0  0  0  0
  189.4730  176.2440  142.2540 C   0  0  0  0  0  0  0  0  0  0  0  0
  189.1110  178.1610  140.7010 C   0  0  1  0  0  3  0  0  0  0  0  0
  186.6650  178.7890  140.5540 C   0  0  0  0  0  0  0  0  0  0  0  0
  191.5700  177.5290  142.1160 C   0  0  0  0  0  2  0  0  0  0  0  0
  185.6470  176.9260  137.6820 C   0  0  0  0  0  2  0  0  0  0  0  0
  185.5780  178.3970  139.7130 N   0  0  0  0  0  0  0  0  0  0  0  0
  188.6960  175.5450  142.9550 O   0  0  0  0  0  0  0  0  0  0  0  0
  190.1530  177.2520  140.0100 C   0  0  1  0  0  0  0  0  0  0  0  0
  188.4030  178.1280  137.3570 C   0  0  1  0  0  3  0  0  0  0  0  0
  187.5800  177.9800  138.6190 C   0  0  1  0  0  3  0  0  0  0  0  0
  186.3580  176.7800  136.3170 C   0  0  0  0  0  2  0  0  0  0  0  0
  184.1910  178.4020  140.0970 C   0  0  0  0  0  0  0  0  0  0  0  0
  189.8310  177.8720  137.6040 N   0  0  0  0  0  2  0  0  0  0  0  0
  191.5710  177.2790  140.6150 C   0  0  0  0  0  2  0  0  0  0  0  0
  183.1610  178.6370  139.1790 O   0  0  0  0  0  0  0  0  0  0  0  0
  181.4610  179.8520  138.0080 C   0  0  0  0  0  1  0  0  0  0  0  0
  182.7760  179.9360  138.7530 C   0  0  0  0  0  2  0  0  0  0  0  0
  191.0670  175.8310  138.1470 N   0  0  0  0  0  0  0  0  0  0  0  0
  191.7830  176.3810  137.0690 N   0  0  0  0  0  2  0  0  0  0  0  0
  193.1770  176.4560  137.4750 C   0  0  0  0  0  2  0  0  0  0  0  0
  194.0650  176.1910  136.2780 C   0  0  0  0  0  1  0  0  0  0  0  0
  190.4270  174.6140  137.6650 C   0  0  0  0  0  2  0  0  0  0  0  0
  191.6940  173.2660  136.1800 F   0  0  0  0  0  0  0  0  0  0  0  0
  190.8340  174.3480  136.2280 C   0  0  0  0  0  2  0  0  0  0  0  0
  2  7  2  0  0  0  0
  5 12  1  1  0  0  0
  5 11  1  0  0  0  0
  6 10  1  1  0  0  0
  7 20  1  0  0  0  0
  7 18  1  0  0  0  0
  8 14  1  1  0  0  0
  8 19  1  0  0  0  0
  8 15  1  0  0  0  0
  9 27  1  6  0  0  0
  9 17  1  0  0  0  0
 10  1  1  0  0  0  0
 10 16  2  0  0  0  0
 11  6  1  0  0  0  0
 12  3  2  0  0  0  0
 13  1  1  0  0  0  0
 15 21  1  0  0  0  0
 15 12  1  0  0  0  0
 17 23  1  0  0  0  0
 17 11  1  0  0  0  0
 17  6  1  0  0  0  0
 18 22  1  0  0  0  0
 18 19  1  0  0  0  0
 19  5  1  0  0  0  0
 20 14  1  0  0  0  0
 21  4  2  0  0  0  0
 22  9  1  0  0  0  0
 23 13  1  0  0  0  0
 24 21  1  0  0  0  0
 25 26  1  0  0  0  0
 26 24  1  0  0  0  0
 28 29  1  0  0  0  0
 28 27  1  0  0  0  0
 30 29  1  0  0  0  0
 31 27  1  0  0  0  0
 32 33  1  0  0  0  0
 33 31  1  0  0  0  0
M  END
>  <MODEL>
4

>  <REMARK>
 VINA RESULT:      -6.5      4.746      7.397
  Name = 
  7 active torsions:
  status: ('A' for Active; 'I' for Inactive)
    1  A    between atoms: N_1  and  C_8
    2  A    between atoms: N_1  and  N_29
    3  A    between atoms: C_11  and  C_12
    4  A    between atoms: C_11  and  N_29
    5  A    between atoms: C_15  and  N_29
    6  A    between atoms: O_24  and  C_30
    7  A    between atoms: O_24  and  C_31
                            x       y       z     vdW  Elec       q    Type
                         _______ _______ _______ _____ _____    ______ ____

>  <TORSDO>
F 7

$$$$
=
 OpenBabel11062414483D

 33 37  0  0  1  0  0  0  0  0999 V2000
  192.0520  177.3290  145.8670 O   0  0  0  0  0  0  0  0  0  0  0  0
  184.6420  178.4820  143.9230 O   0  0  0  0  0  0  0  0  0  0  0  0
  190.7710  176.3430  141.0830 O   0  0  0  0  0  0  0  0  0  0  0  0
  190.4260  178.1640  138.9230 O   0  0  0  0  0  0  0  0  0  0  0  0
  188.9230  176.4330  142.6600 C   0  0  2  0  0  3  0  0  0  0  0  0
  190.1640  177.9980  144.3080 C   0  0  1  0  0  3  0  0  0  0  0  0
  185.5540  178.3000  143.1330 C   0  0  0  0  0  0  0  0  0  0  0  0
  187.5190  177.7170  141.1280 C   0  0  1  0  0  3  0  0  0  0  0  0
  187.8440  177.8020  145.2640 C   0  0  1  0  0  3  0  0  0  0  0  0
  191.5800  178.1030  144.8040 C   0  0  0  0  0  0  0  0  0  0  0  0
  189.8390  176.5620  143.9010 C   0  0  1  0  0  3  0  0  0  0  0  0
  189.6260  176.7710  141.3890 C   0  0  0  0  0  0  0  0  0  0  0  0
  191.3120  176.2320  146.3840 C   0  0  0  0  0  2  0  0  0  0  0  0
  186.9590  179.1290  141.1150 C   0  0  0  0  0  2  0  0  0  0  0  0
  188.8290  177.5690  140.5120 N   0  0  0  0  0  0  0  0  0  0  0  0
  192.3480  178.9430  144.2670 O   0  0  0  0  0  0  0  0  0  0  0  0
  189.2450  177.1520  145.2010 C   0  0  1  0  0  0  0  0  0  0  0  0
  186.5150  177.1430  143.3530 C   0  0  1  0  0  3  0  0  0  0  0  0
  187.7850  177.4250  142.5780 C   0  0  1  0  0  3  0  0  0  0  0  0
  185.6170  179.1710  141.8810 C   0  0  0  0  0  2  0  0  0  0  0  0
  189.2100  177.9730  139.1840 C   0  0  0  0  0  0  0  0  0  0  0  0
  186.7880  176.9030  144.7780 N   0  0  0  0  0  2  0  0  0  0  0  0
  189.8450  176.6130  146.5150 C   0  0  0  0  0  2  0  0  0  0  0  0
  188.2720  178.1710  138.1640 O   0  0  0  0  0  0  0  0  0  0  0  0
  187.9720  177.3420  135.9370 C   0  0  0  0  0  1  0  0  0  0  0  0
  187.7050  177.1100  137.4080 C   0  0  0  0  0  2  0  0  0  0  0  0
  187.5370  178.3770  146.5820 N   0  0  0  0  0  0  0  0  0  0  0  0
  187.4040  177.3420  147.5240 N   0  0  0  0  0  2  0  0  0  0  0  0
  187.7430  177.8980  148.8230 C   0  0  0  0  0  2  0  0  0  0  0  0
  189.1570  178.4380  148.7870 C   0  0  0  0  0  1  0  0  0  0  0  0
  186.2430  179.0400  146.4820 C   0  0  0  0  0  2  0  0  0  0  0  0
  184.4360  178.3860  147.8740 F   0  0  0  0  0  0  0  0  0  0  0  0
  185.1280  178.0410  146.7270 C   0  0  0  0  0  2  0  0  0  0  0  0
  1 13  1  0  0  0  0
  3 12  2  0  0  0  0
  4 21  2  0  0  0  0
  5 12  1  6  0  0  0
  5 11  1  0  0  0  0
  6 10  1  1  0  0  0
  6 17  1  0  0  0  0
  7 18  1  0  0  0  0
  7  2  2  0  0  0  0
  8 14  1  1  0  0  0
  8 19  1  0  0  0  0
  9 27  1  1  0  0  0
 10  1  1  0  0  0  0
 11  6  1  0  0  0  0
 11 17  1  0  0  0  0
 13 23  1  0  0  0  0
 14 20  1  0  0  0  0
 15  8  1  0  0  0  0
 15 12  1  0  0  0  0
 16 10  2  0  0  0  0
 17  9  1  0  0  0  0
 17 23  1  0  0  0  0
 18 22  1  0  0  0  0
 19  5  1  0  0  0  0
 19 18  1  0  0  0  0
 20  7  1  0  0  0  0
 21 15  1  0  0  0  0
 22  9  1  0  0  0  0
 24 21  1  0  0  0  0
 25 26  1  0  0  0  0
 26 24  1  0  0  0  0
 27 28  1  0  0  0  0
 28 29  1  0  0  0  0
 30 29  1  0  0  0  0
 31 27  1  0  0  0  0
 31 33  1  0  0  0  0
 33 32  1  0  0  0  0
M  END
>  <MODEL>
5

>  <REMARK>
 VINA RESULT:      -6.4      0.930      1.050
  Name = 
  7 active torsions:
  status: ('A' for Active; 'I' for Inactive)
    1  A    between atoms: N_1  and  C_8
    2  A    between atoms: N_1  and  N_29
    3  A    between atoms: C_11  and  C_12
    4  A    between atoms: C_11  and  N_29
    5  A    between atoms: C_15  and  N_29
    6  A    between atoms: O_24  and  C_30
    7  A    between atoms: O_24  and  C_31
                            x       y       z     vdW  Elec       q    Type
                         _______ _______ _______ _____ _____    ______ ____

>  <TORSDO>
F 7

$$$$
=
 OpenBabel11062414483D

 33 37  0  0  1  0  0  0  0  0999 V2000
  181.5550  179.5910  139.9700 O   0  0  0  0  0  0  0  0  0  0  0  0
  187.7930  175.9490  137.1690 O   0  0  0  0  0  0  0  0  0  0  0  0
  180.7240  175.8390  136.6930 O   0  0  0  0  0  0  0  0  0  0  0  0
  180.7170  173.0330  137.1670 O   0  0  0  0  0  0  0  0  0  0  0  0
  182.9740  176.7590  136.6750 C   0  0  2  0  0  3  0  0  0  0  0  0
  182.8560  177.5800  139.1290 C   0  0  1  0  0  3  0  0  0  0  0  0
  186.6430  175.5550  137.0600 C   0  0  0  0  0  0  0  0  0  0  0  0
  184.0070  174.5510  136.5440 C   0  0  1  0  0  3  0  0  0  0  0  0
  185.2320  178.0360  138.4350 C   0  0  1  0  0  3  0  0  0  0  0  0
  181.7920  178.2140  139.9820 C   0  0  0  0  0  0  0  0  0  0  0  0
  182.6340  177.9090  137.6540 C   0  0  1  0  0  3  0  0  0  0  0  0
  181.9700  175.6570  136.7130 C   0  0  0  0  0  0  0  0  0  0  0  0
  182.1260  180.4420  138.9860 C   0  0  0  0  0  2  0  0  0  0  0  0
  184.8650  173.7100  137.4750 C   0  0  0  0  0  2  0  0  0  0  0  0
  182.5730  174.3610  136.6920 N   0  0  0  0  0  0  0  0  0  0  0  0
  181.1240  177.4830  140.7580 O   0  0  0  0  0  0  0  0  0  0  0  0
  183.7870  178.5840  138.4330 C   0  0  1  0  0  0  0  0  0  0  0  0
  185.5660  176.5140  136.5830 C   0  0  1  0  0  3  0  0  0  0  0  0
  184.2190  175.9660  137.0040 C   0  0  1  0  0  3  0  0  0  0  0  0
  186.3560  174.0730  137.2880 C   0  0  0  0  0  2  0  0  0  0  0  0
  181.8540  173.1150  136.6320 C   0  0  0  0  0  0  0  0  0  0  0  0
  185.7740  177.8840  137.0780 N   0  0  0  0  0  2  0  0  0  0  0  0
  183.5860  180.0760  138.7670 C   0  0  0  0  0  2  0  0  0  0  0  0
  182.3770  171.9800  136.0040 O   0  0  0  0  0  0  0  0  0  0  0  0
  183.9670  170.1930  135.8750 C   0  0  0  0  0  1  0  0  0  0  0  0
  182.9050  170.8680  136.7150 C   0  0  0  0  0  2  0  0  0  0  0  0
  186.1300  178.7870  139.3240 N   0  0  0  0  0  0  0  0  0  0  0  0
  187.4510  178.6720  138.8580 N   0  0  0  0  0  2  0  0  0  0  0  0
  188.2400  178.1060  139.9400 C   0  0  0  0  0  2  0  0  0  0  0  0
  189.6600  177.8820  139.4660 C   0  0  0  0  0  1  0  0  0  0  0  0
  186.0780  178.1580  140.6370 C   0  0  0  0  0  2  0  0  0  0  0  0
  184.2940  178.3820  142.1850 F   0  0  0  0  0  0  0  0  0  0  0  0
  185.3540  179.0630  141.6160 C   0  0  0  0  0  2  0  0  0  0  0  0
  1 10  1  0  0  0  0
  3 12  2  0  0  0  0
  5 12  1  1  0  0  0
  5 19  1  0  0  0  0
  5 11  1  0  0  0  0
  6 10  1  1  0  0  0
  7  2  2  0  0  0  0
  7 20  1  0  0  0  0
  8 15  1  0  0  0  0
  8 19  1  0  0  0  0
  8 14  1  1  0  0  0
  9 27  1  1  0  0  0
 10 16  2  0  0  0  0
 11 17  1  0  0  0  0
 11  6  1  0  0  0  0
 13  1  1  0  0  0  0
 15 12  1  0  0  0  0
 17  9  1  0  0  0  0
 17 23  1  0  0  0  0
 17  6  1  0  0  0  0
 18 19  1  0  0  0  0
 18  7  1  0  0  0  0
 18 22  1  0  0  0  0
 20 14  1  0  0  0  0
 21 15  1  0  0  0  0
 21  4  2  0  0  0  0
 22  9  1  0  0  0  0
 23 13  1  0  0  0  0
 24 21  1  0  0  0  0
 24 26  1  0  0  0  0
 25 26  1  0  0  0  0
 27 31  1  0  0  0  0
 28 27  1  0  0  0  0
 28 29  1  0  0  0  0
 30 29  1  0  0  0  0
 31 33  1  0  0  0  0
 33 32  1  0  0  0  0
M  END
>  <MODEL>
6

>  <REMARK>
 VINA RESULT:      -6.3      5.168      8.666
  Name = 
  7 active torsions:
  status: ('A' for Active; 'I' for Inactive)
    1  A    between atoms: N_1  and  C_8
    2  A    between atoms: N_1  and  N_29
    3  A    between atoms: C_11  and  C_12
    4  A    between atoms: C_11  and  N_29
    5  A    between atoms: C_15  and  N_29
    6  A    between atoms: O_24  and  C_30
    7  A    between atoms: O_24  and  C_31
                            x       y       z     vdW  Elec       q    Type
                         _______ _______ _______ _____ _____    ______ ____

>  <TORSDO>
F 7

$$$$
=
 OpenBabel11062414483D

 33 37  0  0  1  0  0  0  0  0999 V2000
  180.4020  177.4930  140.0260 O   0  0  0  0  0  0  0  0  0  0  0  0
  187.9710  178.5740  138.7790 O   0  0  0  0  0  0  0  0  0  0  0  0
  182.2920  175.6340  135.7270 O   0  0  0  0  0  0  0  0  0  0  0  0
  183.7390  173.2180  135.3190 O   0  0  0  0  0  0  0  0  0  0  0  0
  183.6450  177.3400  136.8090 C   0  0  2  0  0  3  0  0  0  0  0  0
  182.7040  176.8490  139.1720 C   0  0  1  0  0  3  0  0  0  0  0  0
  187.2580  177.8150  138.1440 C   0  0  0  0  0  0  0  0  0  0  0  0
  185.7200  176.1110  136.4250 C   0  0  1  0  0  3  0  0  0  0  0  0
  184.5220  178.5430  139.5670 C   0  0  1  0  0  3  0  0  0  0  0  0
  181.3450  176.5090  139.7190 C   0  0  0  0  0  0  0  0  0  0  0  0
  182.5800  177.6630  137.8860 C   0  0  1  0  0  3  0  0  0  0  0  0
  183.4130  176.0220  136.1500 C   0  0  0  0  0  0  0  0  0  0  0  0
  180.5660  178.8440  139.6170 C   0  0  0  0  0  2  0  0  0  0  0  0
  186.7330  175.4110  137.3160 C   0  0  0  0  0  2  0  0  0  0  0  0
  184.6190  175.2750  135.9730 N   0  0  0  0  0  0  0  0  0  0  0  0
  181.0680  175.3020  139.9440 O   0  0  0  0  0  0  0  0  0  0  0  0
  183.0350  178.3480  139.1950 C   0  0  1  0  0  0  0  0  0  0  0  0
  185.9250  178.3110  137.6090 C   0  0  1  0  0  3  0  0  0  0  0  0
  185.0490  177.1110  137.3240 C   0  0  1  0  0  3  0  0  0  0  0  0
  187.7930  176.4250  137.8050 C   0  0  0  0  0  2  0  0  0  0  0  0
  184.7160  174.0110  135.2900 C   0  0  0  0  0  0  0  0  0  0  0  0
  185.2710  179.2590  138.5240 N   0  0  0  0  0  2  0  0  0  0  0  0
  182.0030  179.2850  139.8540 C   0  0  0  0  0  2  0  0  0  0  0  0
  185.8670  173.6240  134.5950 O   0  0  0  0  0  0  0  0  0  0  0  0
  187.9100  172.5500  135.2370 C   0  0  0  0  0  1  0  0  0  0  0  0
  186.4880  172.3560  134.7580 C   0  0  0  0  0  2  0  0  0  0  0  0
  184.7090  179.1300  140.9020 N   0  0  0  0  0  0  0  0  0  0  0  0
  186.0720  179.4050  141.1050 N   0  0  0  0  0  2  0  0  0  0  0  0
  186.5820  178.3940  142.0160 C   0  0  0  0  0  2  0  0  0  0  0  0
  188.0950  178.3860  141.9640 C   0  0  0  0  0  1  0  0  0  0  0  0
  184.3190  178.1260  141.8830 C   0  0  0  0  0  2  0  0  0  0  0  0
  183.8110  178.2650  144.1960 F   0  0  0  0  0  0  0  0  0  0  0  0
  183.4510  178.7580  142.9550 C   0  0  0  0  0  2  0  0  0  0  0  0
  3 12  2  0  0  0  0
  5 12  1  1  0  0  0
  5 19  1  0  0  0  0
  5 11  1  0  0  0  0
  6 17  1  0  0  0  0
  6 10  1  1  0  0  0
  7  2  2  0  0  0  0
  8 14  1  1  0  0  0
  8 19  1  0  0  0  0
  9 27  1  1  0  0  0
 10 16  2  0  0  0  0
 10  1  1  0  0  0  0
 11  6  1  0  0  0  0
 11 17  1  0  0  0  0
 13 23  1  0  0  0  0
 13  1  1  0  0  0  0
 14 20  1  0  0  0  0
 15 12  1  0  0  0  0
 15  8  1  0  0  0  0
 17  9  1  0  0  0  0
 17 23  1  0  0  0  0
 18  7  1  0  0  0  0
 18 22  1  0  0  0  0
 19 18  1  0  0  0  0
 20  7  1  0  0  0  0
 21  4  2  0  0  0  0
 21 15  1  0  0  0  0
 22  9  1  0  0  0  0
 24 26  1  0  0  0  0
 24 21  1  0  0  0  0
 26 25  1  0  0  0  0
 27 28  1  0  0  0  0
 27 31  1  0  0  0  0
 28 29  1  0  0  0  0
 30 29  1  0  0  0  0
 31 33  1  0  0  0  0
 33 32  1  0  0  0  0
M  END
>  <MODEL>
7

>  <REMARK>
 VINA RESULT:      -6.3      4.186      7.901
  Name = 
  7 active torsions:
  status: ('A' for Active; 'I' for Inactive)
    1  A    between atoms: N_1  and  C_8
    2  A    between atoms: N_1  and  N_29
    3  A    between atoms: C_11  and  C_12
    4  A    between atoms: C_11  and  N_29
    5  A    between atoms: C_15  and  N_29
    6  A    between atoms: O_24  and  C_30
    7  A    between atoms: O_24  and  C_31
                            x       y       z     vdW  Elec       q    Type
                         _______ _______ _______ _____ _____    ______ ____

>  <TORSDO>
F 7

$$$$
=
 OpenBabel11062414483D

 33 37  0  0  1  0  0  0  0  0999 V2000
  188.9710  179.0940  138.6080 O   0  0  0  0  0  0  0  0  0  0  0  0
  186.5810  172.7630  134.8370 O   0  0  0  0  0  0  0  0  0  0  0  0
  183.9880  178.2950  138.4270 O   0  0  0  0  0  0  0  0  0  0  0  0
  182.4090  176.5440  140.0210 O   0  0  0  0  0  0  0  0  0  0  0  0
  185.2970  177.0920  136.7690 C   0  0  2  0  0  3  0  0  0  0  0  0
  187.4560  177.0990  138.1990 C   0  0  1  0  0  3  0  0  0  0  0  0
  185.8840  173.4490  135.5660 C   0  0  0  0  0  0  0  0  0  0  0  0
  184.0400  175.0240  137.0970 C   0  0  1  0  0  3  0  0  0  0  0  0
  188.0390  175.6830  136.2030 C   0  0  1  0  0  3  0  0  0  0  0  0
  188.1230  178.1000  139.1020 C   0  0  0  0  0  0  0  0  0  0  0  0
  186.6230  177.8050  137.1320 C   0  0  1  0  0  3  0  0  0  0  0  0
  184.2660  177.2160  137.8390 C   0  0  0  0  0  0  0  0  0  0  0  0
  189.0650  179.3780  137.2190 C   0  0  0  0  0  2  0  0  0  0  0  0
  184.3630  173.6510  137.6610 C   0  0  0  0  0  2  0  0  0  0  0  0
  183.5650  175.9930  138.0740 N   0  0  0  0  0  0  0  0  0  0  0  0
  187.9410  178.0100  140.3440 O   0  0  0  0  0  0  0  0  0  0  0  0
  187.9580  177.1260  136.7490 C   0  0  1  0  0  0  0  0  0  0  0  0
  185.8770  174.9590  135.3920 C   0  0  1  0  0  3  0  0  0  0  0  0
  185.3690  175.5840  136.6730 C   0  0  1  0  0  3  0  0  0  0  0  0
  184.9460  172.7490  136.5480 C   0  0  0  0  0  2  0  0  0  0  0  0
  182.4600  175.8330  138.9820 C   0  0  0  0  0  0  0  0  0  0  0  0
  187.1970  175.4860  135.0140 N   0  0  0  0  0  2  0  0  0  0  0  0
  189.1260  178.0800  136.4270 C   0  0  0  0  0  2  0  0  0  0  0  0
  181.4370  174.9060  138.7600 O   0  0  0  0  0  0  0  0  0  0  0  0
  179.1790  175.7080  138.7610 C   0  0  0  0  0  1  0  0  0  0  0  0
  180.2210  174.8930  139.4960 C   0  0  0  0  0  2  0  0  0  0  0  0
  189.4200  175.2210  136.0010 N   0  0  0  0  0  0  0  0  0  0  0  0
  189.4540  174.2980  134.9420 N   0  0  0  0  0  2  0  0  0  0  0  0
  190.4260  173.2760  135.2940 C   0  0  0  0  0  2  0  0  0  0  0  0
  190.0730  171.9810  134.5940 C   0  0  0  0  0  1  0  0  0  0  0  0
  189.8270  174.5110  137.2070 C   0  0  0  0  0  2  0  0  0  0  0  0
  190.5170  175.9640  138.9500 F   0  0  0  0  0  0  0  0  0  0  0  0
  190.9830  175.2370  137.8710 C   0  0  0  0  0  2  0  0  0  0  0  0
  1 10  1  0  0  0  0
  2  7  2  0  0  0  0
  5 11  1  0  0  0  0
  5 12  1  1  0  0  0
  6 10  1  1  0  0  0
  7 20  1  0  0  0  0
  8 14  1  1  0  0  0
  8 15  1  0  0  0  0
  9 27  1  6  0  0  0
  9 17  1  0  0  0  0
 10 16  2  0  0  0  0
 11  6  1  0  0  0  0
 12 15  1  0  0  0  0
 12  3  2  0  0  0  0
 13  1  1  0  0  0  0
 15 21  1  0  0  0  0
 17 11  1  0  0  0  0
 17  6  1  0  0  0  0
 18  7  1  0  0  0  0
 18 19  1  0  0  0  0
 19  5  1  0  0  0  0
 19  8  1  0  0  0  0
 20 14  1  0  0  0  0
 21  4  2  0  0  0  0
 22 18  1  0  0  0  0
 22  9  1  0  0  0  0
 23 17  1  0  0  0  0
 23 13  1  0  0  0  0
 24 21  1  0  0  0  0
 24 26  1  0  0  0  0
 25 26  1  0  0  0  0
 27 31  1  0  0  0  0
 28 29  1  0  0  0  0
 28 27  1  0  0  0  0
 30 29  1  0  0  0  0
 31 33  1  0  0  0  0
 33 32  1  0  0  0  0
M  END
>  <MODEL>
8

>  <REMARK>
 VINA RESULT:      -6.2      6.203      9.039
  Name = 
  7 active torsions:
  status: ('A' for Active; 'I' for Inactive)
    1  A    between atoms: N_1  and  C_8
    2  A    between atoms: N_1  and  N_29
    3  A    between atoms: C_11  and  C_12
    4  A    between atoms: C_11  and  N_29
    5  A    between atoms: C_15  and  N_29
    6  A    between atoms: O_24  and  C_30
    7  A    between atoms: O_24  and  C_31
                            x       y       z     vdW  Elec       q    Type
                         _______ _______ _______ _____ _____    ______ ____

>  <TORSDO>
F 7

$$$$
=
 OpenBabel11062414483D

 33 37  0  0  1  0  0  0  0  0999 V2000
  179.1010  178.4700  141.6110 O   0  0  0  0  0  0  0  0  0  0  0  0
  185.8110  177.5380  137.8530 O   0  0  0  0  0  0  0  0  0  0  0  0
  179.0040  175.6120  137.4480 O   0  0  0  0  0  0  0  0  0  0  0  0
  179.7730  172.8890  137.1420 O   0  0  0  0  0  0  0  0  0  0  0  0
  180.9250  177.0890  137.6550 C   0  0  2  0  0  3  0  0  0  0  0  0
  180.8060  177.1830  140.2400 C   0  0  1  0  0  3  0  0  0  0  0  0
  184.8000  176.8850  137.6550 C   0  0  0  0  0  0  0  0  0  0  0  0
  182.4850  175.3620  136.9160 C   0  0  1  0  0  3  0  0  0  0  0  0
  182.9110  178.4390  139.6680 C   0  0  1  0  0  3  0  0  0  0  0  0
  179.6900  177.2580  141.2450 C   0  0  0  0  0  0  0  0  0  0  0  0
  180.3800  177.8080  138.9130 C   0  0  1  0  0  3  0  0  0  0  0  0
  180.2510  175.7820  137.4040 C   0  0  0  0  0  0  0  0  0  0  0  0
  179.3420  179.6700  140.8880 C   0  0  0  0  0  2  0  0  0  0  0  0
  183.6100  174.5790  137.5740 C   0  0  0  0  0  2  0  0  0  0  0  0
  181.1680  174.7530  137.0250 N   0  0  0  0  0  0  0  0  0  0  0  0
  179.3060  176.1960  141.8020 O   0  0  0  0  0  0  0  0  0  0  0  0
  181.3790  178.5490  139.8320 C   0  0  1  0  0  0  0  0  0  0  0  0
  183.4720  177.5990  137.4690 C   0  0  1  0  0  3  0  0  0  0  0  0
  182.3570  176.6120  137.7410 C   0  0  1  0  0  3  0  0  0  0  0  0
  184.9320  175.3740  137.4750 C   0  0  0  0  0  2  0  0  0  0  0  0
  180.7990  173.4170  136.6370 C   0  0  0  0  0  0  0  0  0  0  0  0
  183.3560  178.7980  138.3150 N   0  0  0  0  0  2  0  0  0  0  0  0
  180.8230  179.7890  140.5620 C   0  0  0  0  0  2  0  0  0  0  0  0
  181.5450  172.6710  135.7180 O   0  0  0  0  0  0  0  0  0  0  0  0
  183.0560  171.1270  136.7550 C   0  0  0  0  0  1  0  0  0  0  0  0
  181.8300  171.2890  135.8820 C   0  0  0  0  0  2  0  0  0  0  0  0
  183.6540  179.1530  140.7170 N   0  0  0  0  0  0  0  0  0  0  0  0
  184.9720  179.3780  140.2840 N   0  0  0  0  0  2  0  0  0  0  0  0
  185.8560  178.8670  141.3190 C   0  0  0  0  0  2  0  0  0  0  0  0
  187.2320  178.6280  140.7340 C   0  0  0  0  0  1  0  0  0  0  0  0
  183.7240  178.2780  141.8800 C   0  0  0  0  0  2  0  0  0  0  0  0
  181.8880  178.6250  143.3430 F   0  0  0  0  0  0  0  0  0  0  0  0
  183.1970  179.0020  143.1050 C   0  0  0  0  0  2  0  0  0  0  0  0
  5 12  1  1  0  0  0
  5 19  1  0  0  0  0
  5 11  1  0  0  0  0
  6 10  1  1  0  0  0
  7  2  2  0  0  0  0
  8 15  1  0  0  0  0
  8 14  1  1  0  0  0
  8 19  1  0  0  0  0
  9 17  1  0  0  0  0
  9 27  1  1  0  0  0
 10  1  1  0  0  0  0
 10 16  2  0  0  0  0
 11 17  1  0  0  0  0
 11  6  1  0  0  0  0
 12  3  2  0  0  0  0
 13  1  1  0  0  0  0
 15 12  1  0  0  0  0
 17  6  1  0  0  0  0
 17 23  1  0  0  0  0
 18  7  1  0  0  0  0
 18 19  1  0  0  0  0
 18 22  1  0  0  0  0
 20 14  1  0  0  0  0
 20  7  1  0  0  0  0
 21 15  1  0  0  0  0
 21  4  2  0  0  0  0
 22  9  1  0  0  0  0
 23 13  1  0  0  0  0
 24 26  1  0  0  0  0
 24 21  1  0  0  0  0
 26 25  1  0  0  0  0
 27 31  1  0  0  0  0
 28 27  1  0  0  0  0
 28 29  1  0  0  0  0
 30 29  1  0  0  0  0
 31 33  1  0  0  0  0
 33 32  1  0  0  0  0
M  END
>  <MODEL>
9

>  <REMARK>
 VINA RESULT:      -6.0      5.263      9.031
  Name = 
  7 active torsions:
  status: ('A' for Active; 'I' for Inactive)
    1  A    between atoms: N_1  and  C_8
    2  A    between atoms: N_1  and  N_29
    3  A    between atoms: C_11  and  C_12
    4  A    between atoms: C_11  and  N_29
    5  A    between atoms: C_15  and  N_29
    6  A    between atoms: O_24  and  C_30
    7  A    between atoms: O_24  and  C_31
                            x       y       z     vdW  Elec       q    Type
                         _______ _______ _______ _____ _____    ______ ____

>  <TORSDO>
F 7

$$$$
