=
 OpenBabel11062413013D

 38 44  0  0  1  0  0  0  0  0999 V2000
  184.0360  176.7550  138.9570 C   0  0  0  0  0  2  0  0  0  0  0  0
  180.5710  177.6470  137.3480 C   0  0  0  0  0  2  0  0  0  0  0  0
  183.0270  177.1870  140.0330 C   0  0  1  0  0  3  0  0  0  0  0  0
  181.1800  176.7080  136.3250 C   0  0  0  0  0  2  0  0  0  0  0  0
  183.3640  178.4200  140.9020 C   0  0  2  0  0  3  0  0  0  0  0  0
  182.1340  179.1380  140.3260 C   0  0  1  0  0  3  0  0  0  0  0  0
  184.1610  177.7680  137.9190 N   0  0  0  0  0  0  0  0  0  0  0  0
  182.9150  177.8390  137.1460 C   0  0  1  0  0  3  0  0  0  0  0  0
  182.5660  176.6000  136.5660 O   0  0  0  0  0  0  0  0  0  0  0  0
  181.7480  178.3170  137.9990 C   0  0  2  0  0  3  0  0  0  0  0  0
  181.7820  177.9140  139.4900 C   0  0  1  0  0  3  0  0  0  0  0  0
  181.0270  179.4310  141.3150 C   0  0  0  0  0  0  0  0  0  0  0  0
  180.1960  179.0970  143.5660 C   0  0  0  0  0  3  0  0  0  0  0  0
  179.0810  180.6280  142.1300 C   0  0  0  0  0  3  0  0  0  0  0  0
  181.1250  178.8070  142.5620 C   0  0  0  0  0  3  0  0  0  0  0  0
  179.1990  179.9910  143.3320 N   0  0  0  0  0  0  0  0  0  0  0  0
  179.9910  180.3730  141.0990 C   0  0  0  0  0  0  0  0  0  0  0  0
  179.8540  181.0630  139.8970 O   0  0  0  0  0  1  0  0  0  0  0  0
  184.8870  179.7770  139.4010 O   0  0  0  0  0  1  0  0  0  0  0  0
  184.7150  179.1270  140.6250 C   0  0  1  0  0  0  0  0  0  0  0  0
  185.2560  179.8480  141.7100 O   0  0  0  0  0  0  0  0  0  0  0  0
  185.9760  178.7080  141.2830 C   0  0  2  0  0  0  0  0  0  0  0  0
  187.1710  179.0660  140.6920 F   0  0  0  0  0  0  0  0  0  0  0  0
  185.9760  177.5980  142.3190 C   0  0  0  0  0  2  0  0  0  0  0  0
  187.2610  177.5210  142.9210 O   0  0  0  0  0  0  0  0  0  0  0  0
  187.8950  177.7060  147.0770 C   0  0  0  0  0  3  0  0  0  0  0  0
  188.9530  177.4170  146.2100 C   0  0  0  0  0  3  0  0  0  0  0  0
  186.6160  177.9410  146.5630 C   0  0  0  0  0  3  0  0  0  0  0  0
  188.7340  177.3550  144.8280 C   0  0  0  0  0  3  0  0  0  0  0  0
  187.4570  177.5890  144.3050 C   0  0  0  0  0  0  0  0  0  0  0  0
  186.3980  177.8850  145.1830 C   0  0  0  0  0  3  0  0  0  0  0  0
  185.2460  177.3740  137.0340 C   0  0  0  0  0  2  0  0  0  0  0  0
  186.5140  177.4990  137.7350 N   0  0  0  0  0  0  0  0  0  0  0  0
  187.2230  176.2140  137.5740 C   0  0  0  0  0  2  0  0  0  0  0  0
  189.4260  177.3890  137.3350 C   0  0  0  0  0  2  0  0  0  0  0  0
  188.6680  178.6980  137.6190 C   0  0  0  0  0  2  0  0  0  0  0  0
  188.5180  176.3060  136.7540 C   0  0  0  0  0  2  0  0  0  0  0  0
  187.2180  178.6370  137.1330 C   0  0  0  0  0  2  0  0  0  0  0  0
  3  1  1  6  0  0  0
  3  5  1  0  0  0  0
  4  9  1  0  0  0  0
  4  2  1  0  0  0  0
  5 20  1  6  0  0  0
  6  5  1  0  0  0  0
  6 12  1  1  0  0  0
  7  1  1  0  0  0  0
  8  9  1  1  0  0  0
  8  7  1  0  0  0  0
  8 10  1  0  0  0  0
 10  2  1  6  0  0  0
 10 11  1  0  0  0  0
 11  3  1  0  0  0  0
 11  6  1  0  0  0  0
 12 15  1  0  0  0  0
 14 16  2  0  0  0  0
 15 13  2  0  0  0  0
 16 13  1  0  0  0  0
 17 12  2  0  0  0  0
 17 14  1  0  0  0  0
 18 17  1  0  0  0  0
 19 20  1  0  0  0  0
 20 22  1  0  0  0  0
 20 21  1  0  0  0  0
 22 21  1  0  0  0  0
 22 24  1  0  0  0  0
 23 22  1  0  0  0  0
 24 25  1  0  0  0  0
 25 30  1  0  0  0  0
 27 26  2  0  0  0  0
 28 26  1  0  0  0  0
 29 27  1  0  0  0  0
 30 29  2  0  0  0  0
 30 31  1  0  0  0  0
 31 28  2  0  0  0  0
 32 33  1  0  0  0  0
 32  7  1  0  0  0  0
 34 33  1  0  0  0  0
 35 36  1  0  0  0  0
 37 35  1  0  0  0  0
 37 34  1  0  0  0  0
 38 36  1  0  0  0  0
 38 33  1  0  0  0  0
M  END
>  <MODEL>
1

>  <REMARK>
 VINA RESULT:      -7.8      0.000      0.000
  Name = 
  7 active torsions:
  status: ('A' for Active; 'I' for Inactive)
    1  A    between atoms: C_3  and  C_25
    2  A    between atoms: N_8  and  C_37
    3  A    between atoms: C_16  and  O_17
    4  A    between atoms: C_16  and  C_21
    5  A    between atoms: O_17  and  C_31
    6  A    between atoms: C_19  and  C_23
    7  A    between atoms: N_29  and  C_37
                            x       y       z     vdW  Elec       q    Type
                         _______ _______ _______ _____ _____    ______ ____

>  <TORSDO>
F 7

$$$$
=
 OpenBabel11062413013D

 38 44  0  0  1  0  0  0  0  0999 V2000
  186.1120  177.3870  143.1050 C   0  0  0  0  0  2  0  0  0  0  0  0
  185.9330  178.2210  146.9350 C   0  0  0  0  0  2  0  0  0  0  0  0
  187.3260  176.8080  143.8500 C   0  0  1  0  0  3  0  0  0  0  0  0
  184.4790  178.2920  146.5110 C   0  0  0  0  0  2  0  0  0  0  0  0
  188.7370  177.2780  143.4310 C   0  0  2  0  0  3  0  0  0  0  0  0
  188.9310  177.8790  144.8320 C   0  0  1  0  0  3  0  0  0  0  0  0
  185.9830  178.8170  143.3470 N   0  0  0  0  0  0  0  0  0  0  0  0
  185.6100  179.0490  144.7470 C   0  0  1  0  0  3  0  0  0  0  0  0
  184.4120  178.3940  145.1050 O   0  0  0  0  0  0  0  0  0  0  0  0
  186.7070  178.6040  145.7050 C   0  0  2  0  0  3  0  0  0  0  0  0
  187.5530  177.3910  145.2580 C   0  0  1  0  0  3  0  0  0  0  0  0
  190.0020  177.2260  145.6780 C   0  0  0  0  0  0  0  0  0  0  0  0
  192.0540  175.9380  145.6900 C   0  0  0  0  0  3  0  0  0  0  0  0
  191.2300  176.8300  147.7330 C   0  0  0  0  0  3  0  0  0  0  0  0
  190.9780  176.4940  144.9930 C   0  0  0  0  0  3  0  0  0  0  0  0
  192.1580  176.1120  147.0340 N   0  0  0  0  0  0  0  0  0  0  0  0
  190.1390  177.4090  147.0760 C   0  0  0  0  0  0  0  0  0  0  0  0
  189.2290  178.1580  147.8190 O   0  0  0  0  0  1  0  0  0  0  0  0
  188.1910  179.5390  142.4270 O   0  0  0  0  0  1  0  0  0  0  0  0
  188.8200  178.3020  142.2700 C   0  0  1  0  0  0  0  0  0  0  0  0
  190.0790  178.4030  141.6400 O   0  0  0  0  0  0  0  0  0  0  0  0
  189.0170  177.8860  140.8610 C   0  0  2  0  0  0  0  0  0  0  0  0
  188.6560  178.7670  139.8630 F   0  0  0  0  0  0  0  0  0  0  0  0
  189.2150  176.4220  140.5080 C   0  0  0  0  0  2  0  0  0  0  0  0
  190.5450  176.2290  140.0460 O   0  0  0  0  0  0  0  0  0  0  0  0
  191.4810  175.9560  135.9510 C   0  0  0  0  0  3  0  0  0  0  0  0
  190.1550  175.8650  136.3840 C   0  0  0  0  0  3  0  0  0  0  0  0
  192.5070  176.1440  136.8820 C   0  0  0  0  0  3  0  0  0  0  0  0
  189.8510  175.9540  137.7490 C   0  0  0  0  0  3  0  0  0  0  0  0
  190.8720  176.1430  138.6870 C   0  0  0  0  0  0  0  0  0  0  0  0
  192.2040  176.2400  138.2440 C   0  0  0  0  0  3  0  0  0  0  0  0
  184.9270  179.3250  142.4850 C   0  0  0  0  0  2  0  0  0  0  0  0
  184.7440  178.4230  141.3590 N   0  0  0  0  0  0  0  0  0  0  0  0
  183.2910  178.2140  141.2070 C   0  0  0  0  0  2  0  0  0  0  0  0
  183.4890  178.2220  138.7070 C   0  0  0  0  0  2  0  0  0  0  0  0
  185.0120  178.3260  138.9070 C   0  0  0  0  0  2  0  0  0  0  0  0
  182.7070  178.7690  139.8990 C   0  0  0  0  0  2  0  0  0  0  0  0
  185.3700  179.0670  140.1970 C   0  0  0  0  0  2  0  0  0  0  0  0
  1  7  1  0  0  0  0
  3  1  1  6  0  0  0
  3 11  1  0  0  0  0
  4  2  1  0  0  0  0
  5 20  1  6  0  0  0
  5  3  1  0  0  0  0
  5  6  1  0  0  0  0
  6 11  1  0  0  0  0
  6 12  1  1  0  0  0
  7  8  1  0  0  0  0
  8  9  1  1  0  0  0
  8 10  1  0  0  0  0
  9  4  1  0  0  0  0
 10  2  1  1  0  0  0
 11 10  1  0  0  0  0
 12 17  1  0  0  0  0
 13 16  2  0  0  0  0
 15 12  2  0  0  0  0
 15 13  1  0  0  0  0
 16 14  1  0  0  0  0
 17 14  2  0  0  0  0
 17 18  1  0  0  0  0
 20 19  1  0  0  0  0
 21 20  1  0  0  0  0
 22 21  1  0  0  0  0
 22 20  1  0  0  0  0
 23 22  1  0  0  0  0
 24 22  1  0  0  0  0
 25 24  1  0  0  0  0
 26 27  2  0  0  0  0
 26 28  1  0  0  0  0
 27 29  1  0  0  0  0
 28 31  2  0  0  0  0
 29 30  2  0  0  0  0
 30 25  1  0  0  0  0
 31 30  1  0  0  0  0
 32  7  1  0  0  0  0
 33 32  1  0  0  0  0
 34 33  1  0  0  0  0
 35 36  1  0  0  0  0
 35 37  1  0  0  0  0
 36 38  1  0  0  0  0
 37 34  1  0  0  0  0
 38 33  1  0  0  0  0
M  END
>  <MODEL>
2

>  <REMARK>
 VINA RESULT:      -7.4      3.152      8.370
  Name = 
  7 active torsions:
  status: ('A' for Active; 'I' for Inactive)
    1  A    between atoms: C_3  and  C_25
    2  A    between atoms: N_8  and  C_37
    3  A    between atoms: C_16  and  O_17
    4  A    between atoms: C_16  and  C_21
    5  A    between atoms: O_17  and  C_31
    6  A    between atoms: C_19  and  C_23
    7  A    between atoms: N_29  and  C_37
                            x       y       z     vdW  Elec       q    Type
                         _______ _______ _______ _____ _____    ______ ____

>  <TORSDO>
F 7

$$$$
=
 OpenBabel11062413013D

 38 44  0  0  1  0  0  0  0  0999 V2000
  188.1690  179.0040  138.7590 C   0  0  0  0  0  2  0  0  0  0  0  0
  190.6730  175.9890  138.5830 C   0  0  0  0  0  2  0  0  0  0  0  0
  189.0540  178.9530  140.0150 C   0  0  1  0  0  3  0  0  0  0  0  0
  190.3650  176.2510  137.1220 C   0  0  0  0  0  2  0  0  0  0  0  0
  188.3680  178.7890  141.3900 C   0  0  2  0  0  3  0  0  0  0  0  0
  189.0900  177.4450  141.5680 C   0  0  1  0  0  3  0  0  0  0  0  0
  187.4840  177.7370  138.5500 N   0  0  0  0  0  0  0  0  0  0  0  0
  188.4580  176.7030  138.1820 C   0  0  1  0  0  3  0  0  0  0  0  0
  189.2000  177.0420  137.0310 O   0  0  0  0  0  0  0  0  0  0  0  0
  189.4330  176.4190  139.3170 C   0  0  2  0  0  3  0  0  0  0  0  0
  189.7900  177.6160  140.2270 C   0  0  1  0  0  3  0  0  0  0  0  0
  190.1070  177.3930  142.6870 C   0  0  0  0  0  0  0  0  0  0  0  0
  191.3750  178.6610  144.3160 C   0  0  0  0  0  3  0  0  0  0  0  0
  191.4380  176.2860  144.3860 C   0  0  0  0  0  3  0  0  0  0  0  0
  190.5100  178.6230  143.2180 C   0  0  0  0  0  3  0  0  0  0  0  0
  191.8210  177.5030  144.8720 N   0  0  0  0  0  0  0  0  0  0  0  0
  190.5700  176.2000  143.2930 C   0  0  0  0  0  0  0  0  0  0  0  0
  190.1800  174.9400  142.8430 O   0  0  0  0  0  1  0  0  0  0  0  0
  186.0970  179.6240  140.6410 O   0  0  0  0  0  1  0  0  0  0  0  0
  186.8210  178.6990  141.3970 C   0  0  1  0  0  0  0  0  0  0  0  0
  186.2890  177.3940  141.3240 O   0  0  0  0  0  0  0  0  0  0  0  0
  186.0690  178.1040  142.5280 C   0  0  2  0  0  0  0  0  0  0  0  0
  184.7380  178.4370  142.6740 F   0  0  0  0  0  0  0  0  0  0  0  0
  186.8030  177.4900  143.7070 C   0  0  0  0  0  2  0  0  0  0  0  0
  186.3980  178.1450  144.9010 O   0  0  0  0  0  0  0  0  0  0  0  0
  188.6310  177.8970  148.4600 C   0  0  0  0  0  3  0  0  0  0  0  0
  189.1250  177.3480  147.2730 C   0  0  0  0  0  3  0  0  0  0  0  0
  187.3890  178.5380  148.4690 C   0  0  0  0  0  3  0  0  0  0  0  0
  188.3750  177.4320  146.0920 C   0  0  0  0  0  3  0  0  0  0  0  0
  187.1300  178.0730  146.0920 C   0  0  0  0  0  0  0  0  0  0  0  0
  186.6430  178.6280  147.2900 C   0  0  0  0  0  3  0  0  0  0  0  0
  186.5430  177.9110  137.4530 C   0  0  0  0  0  2  0  0  0  0  0  0
  185.4470  176.9660  137.5990 N   0  0  0  0  0  0  0  0  0  0  0  0
  184.3660  177.6670  138.3190 C   0  0  0  0  0  2  0  0  0  0  0  0
  182.6180  176.5440  136.9160 C   0  0  0  0  0  2  0  0  0  0  0  0
  183.7640  175.7480  136.2660 C   0  0  0  0  0  2  0  0  0  0  0  0
  183.0900  177.8770  137.4930 C   0  0  0  0  0  2  0  0  0  0  0  0
  185.0720  176.5430  136.2450 C   0  0  0  0  0  2  0  0  0  0  0  0
  3  1  1  6  0  0  0
  3 11  1  0  0  0  0
  3  5  1  0  0  0  0
  4  2  1  0  0  0  0
  5 20  1  6  0  0  0
  5  6  1  0  0  0  0
  6 12  1  1  0  0  0
  7  1  1  0  0  0  0
  8  9  1  6  0  0  0
  8  7  1  0  0  0  0
  8 10  1  0  0  0  0
  9  4  1  0  0  0  0
 10  2  1  6  0  0  0
 10 11  1  0  0  0  0
 11  6  1  0  0  0  0
 12 15  2  0  0  0  0
 12 17  1  0  0  0  0
 13 16  2  0  0  0  0
 14 16  1  0  0  0  0
 15 13  1  0  0  0  0
 17 14  2  0  0  0  0
 18 17  1  0  0  0  0
 19 20  1  0  0  0  0
 20 22  1  0  0  0  0
 21 20  1  0  0  0  0
 21 22  1  0  0  0  0
 22 23  1  0  0  0  0
 22 24  1  0  0  0  0
 24 25  1  0  0  0  0
 25 30  1  0  0  0  0
 26 28  1  0  0  0  0
 27 26  2  0  0  0  0
 29 27  1  0  0  0  0
 30 29  2  0  0  0  0
 30 31  1  0  0  0  0
 31 28  2  0  0  0  0
 32 33  1  0  0  0  0
 32  7  1  0  0  0  0
 33 34  1  0  0  0  0
 35 37  1  0  0  0  0
 36 35  1  0  0  0  0
 37 34  1  0  0  0  0
 38 36  1  0  0  0  0
 38 33  1  0  0  0  0
M  END
>  <MODEL>
3

>  <REMARK>
 VINA RESULT:      -7.3      3.257      6.641
  Name = 
  7 active torsions:
  status: ('A' for Active; 'I' for Inactive)
    1  A    between atoms: C_3  and  C_25
    2  A    between atoms: N_8  and  C_37
    3  A    between atoms: C_16  and  O_17
    4  A    between atoms: C_16  and  C_21
    5  A    between atoms: O_17  and  C_31
    6  A    between atoms: C_19  and  C_23
    7  A    between atoms: N_29  and  C_37
                            x       y       z     vdW  Elec       q    Type
                         _______ _______ _______ _____ _____    ______ ____

>  <TORSDO>
F 7

$$$$
=
 OpenBabel11062413013D

 38 44  0  0  1  0  0  0  0  0999 V2000
  183.0590  175.8870  139.0620 C   0  0  0  0  0  2  0  0  0  0  0  0
  179.1770  175.3170  139.0830 C   0  0  0  0  0  2  0  0  0  0  0  0
  182.3920  176.6980  140.1850 C   0  0  1  0  0  3  0  0  0  0  0  0
  179.6940  174.0630  138.4060 C   0  0  0  0  0  2  0  0  0  0  0  0
  182.5440  178.2360  140.1690 C   0  0  2  0  0  3  0  0  0  0  0  0
  181.0220  178.3650  140.0020 C   0  0  1  0  0  3  0  0  0  0  0  0
  182.4560  176.1870  137.7710 N   0  0  0  0  0  0  0  0  0  0  0  0
  181.0840  175.6690  137.7350 C   0  0  1  0  0  3  0  0  0  0  0  0
  181.0220  174.2810  137.9810 O   0  0  0  0  0  0  0  0  0  0  0  0
  180.1870  176.3780  138.7410 C   0  0  2  0  0  3  0  0  0  0  0  0
  180.8650  176.8510  140.0460 C   0  0  1  0  0  3  0  0  0  0  0  0
  180.2900  179.0010  141.1640 C   0  0  0  0  0  0  0  0  0  0  0  0
  179.5950  178.7750  143.4730 C   0  0  0  0  0  3  0  0  0  0  0  0
  179.2560  180.8450  142.3540 C   0  0  0  0  0  3  0  0  0  0  0  0
  180.1740  178.2290  142.3240 C   0  0  0  0  0  3  0  0  0  0  0  0
  179.1490  180.0590  143.4660 N   0  0  0  0  0  0  0  0  0  0  0  0
  179.8340  180.3420  141.1830 C   0  0  0  0  0  0  0  0  0  0  0  0
  179.9520  181.1820  140.0790 O   0  0  0  0  0  1  0  0  0  0  0  0
  182.8260  178.8600  137.7310 O   0  0  0  0  0  1  0  0  0  0  0  0
  183.3770  178.8480  139.0150 C   0  0  1  0  0  0  0  0  0  0  0  0
  184.0640  180.0400  139.3280 O   0  0  0  0  0  0  0  0  0  0  0  0
  184.8580  178.9030  139.0510 C   0  0  2  0  0  0  0  0  0  0  0  0
  185.5350  179.0470  137.8570 F   0  0  0  0  0  0  0  0  0  0  0  0
  185.6210  178.4150  140.2700 C   0  0  0  0  0  2  0  0  0  0  0  0
  185.5190  179.3850  141.3030 O   0  0  0  0  0  0  0  0  0  0  0  0
  184.7910  178.3990  145.3300 C   0  0  0  0  0  3  0  0  0  0  0  0
  183.8530  179.1350  144.5980 C   0  0  0  0  0  3  0  0  0  0  0  0
  185.9780  177.9820  144.7210 C   0  0  0  0  0  3  0  0  0  0  0  0
  184.1040  179.4620  143.2590 C   0  0  0  0  0  3  0  0  0  0  0  0
  185.2900  179.0470  142.6420 C   0  0  0  0  0  0  0  0  0  0  0  0
  186.2260  178.3010  143.3820 C   0  0  0  0  0  3  0  0  0  0  0  0
  183.2410  175.5210  136.7430 C   0  0  0  0  0  2  0  0  0  0  0  0
  184.5600  176.1290  136.6680 N   0  0  0  0  0  0  0  0  0  0  0  0
  185.5450  175.0320  136.7270 C   0  0  0  0  0  2  0  0  0  0  0  0
  187.0210  176.1830  135.0590 C   0  0  0  0  0  2  0  0  0  0  0  0
  186.0280  177.3580  135.1090 C   0  0  0  0  0  2  0  0  0  0  0  0
  186.3720  174.8560  135.4450 C   0  0  0  0  0  2  0  0  0  0  0  0
  184.6030  176.8900  135.4130 C   0  0  0  0  0  2  0  0  0  0  0  0
  3  1  1  6  0  0  0
  4  2  1  0  0  0  0
  5 20  1  6  0  0  0
  5  3  1  0  0  0  0
  6 11  1  0  0  0  0
  6  5  1  0  0  0  0
  6 12  1  1  0  0  0
  7  1  1  0  0  0  0
  8  7  1  0  0  0  0
  8  9  1  1  0  0  0
  8 10  1  0  0  0  0
  9  4  1  0  0  0  0
 10  2  1  1  0  0  0
 10 11  1  0  0  0  0
 11  3  1  0  0  0  0
 12 17  2  0  0  0  0
 12 15  1  0  0  0  0
 14 16  2  0  0  0  0
 15 13  2  0  0  0  0
 16 13  1  0  0  0  0
 17 14  1  0  0  0  0
 18 17  1  0  0  0  0
 19 20  1  0  0  0  0
 20 22  1  0  0  0  0
 20 21  1  0  0  0  0
 22 21  1  0  0  0  0
 22 24  1  0  0  0  0
 23 22  1  0  0  0  0
 24 25  1  0  0  0  0
 25 30  1  0  0  0  0
 27 26  2  0  0  0  0
 28 26  1  0  0  0  0
 29 27  1  0  0  0  0
 30 29  2  0  0  0  0
 30 31  1  0  0  0  0
 31 28  2  0  0  0  0
 32  7  1  0  0  0  0
 33 34  1  0  0  0  0
 33 32  1  0  0  0  0
 35 36  1  0  0  0  0
 35 37  1  0  0  0  0
 36 38  1  0  0  0  0
 37 34  1  0  0  0  0
 38 33  1  0  0  0  0
M  END
>  <MODEL>
4

>  <REMARK>
 VINA RESULT:      -7.3      1.990      2.682
  Name = 
  7 active torsions:
  status: ('A' for Active; 'I' for Inactive)
    1  A    between atoms: C_3  and  C_25
    2  A    between atoms: N_8  and  C_37
    3  A    between atoms: C_16  and  O_17
    4  A    between atoms: C_16  and  C_21
    5  A    between atoms: O_17  and  C_31
    6  A    between atoms: C_19  and  C_23
    7  A    between atoms: N_29  and  C_37
                            x       y       z     vdW  Elec       q    Type
                         _______ _______ _______ _____ _____    ______ ____

>  <TORSDO>
F 7

$$$$
=
 OpenBabel11062413013D

 38 44  0  0  1  0  0  0  0  0999 V2000
  187.5970  178.3030  136.6970 C   0  0  0  0  0  2  0  0  0  0  0  0
  187.8080  174.6690  135.2340 C   0  0  0  0  0  2  0  0  0  0  0  0
  189.0450  177.7870  136.7170 C   0  0  1  0  0  3  0  0  0  0  0  0
  186.5450  175.2130  134.5940 C   0  0  0  0  0  2  0  0  0  0  0  0
  189.7690  177.6850  138.0790 C   0  0  2  0  0  3  0  0  0  0  0  0
  189.8730  176.1640  137.8860 C   0  0  1  0  0  3  0  0  0  0  0  0
  186.7040  177.3840  137.3880 N   0  0  0  0  0  0  0  0  0  0  0  0
  186.5860  176.1400  136.6190 C   0  0  1  0  0  3  0  0  0  0  0  0
  186.1240  176.3570  135.3040 O   0  0  0  0  0  0  0  0  0  0  0  0
  187.9110  175.3930  136.5480 C   0  0  2  0  0  3  0  0  0  0  0  0
  189.1860  176.2650  136.5310 C   0  0  1  0  0  3  0  0  0  0  0  0
  191.2760  175.6210  137.7230 C   0  0  0  0  0  0  0  0  0  0  0  0
  193.6460  176.0650  137.9530 C   0  0  0  0  0  3  0  0  0  0  0  0
  192.9220  173.8660  137.4140 C   0  0  0  0  0  3  0  0  0  0  0  0
  192.3220  176.5110  137.9890 C   0  0  0  0  0  3  0  0  0  0  0  0
  193.9190  174.7650  137.6660 N   0  0  0  0  0  0  0  0  0  0  0  0
  191.5820  174.2670  137.4440 C   0  0  0  0  0  0  0  0  0  0  0  0
  190.5920  173.3160  137.2090 O   0  0  0  0  0  1  0  0  0  0  0  0
  188.1730  179.2680  139.2460 O   0  0  0  0  0  1  0  0  0  0  0  0
  188.9720  178.1260  139.3330 C   0  0  1  0  0  0  0  0  0  0  0  0
  188.3610  177.0820  140.0610 O   0  0  0  0  0  0  0  0  0  0  0  0
  189.4080  177.7810  140.7080 C   0  0  2  0  0  0  0  0  0  0  0  0
  188.9270  178.5410  141.7540 F   0  0  0  0  0  0  0  0  0  0  0  0
  190.6330  176.9130  140.9360 C   0  0  0  0  0  2  0  0  0  0  0  0
  190.3620  175.9900  141.9820 O   0  0  0  0  0  0  0  0  0  0  0  0
  190.3810  177.0720  146.0490 C   0  0  0  0  0  3  0  0  0  0  0  0
  191.5790  176.7940  145.3830 C   0  0  0  0  0  3  0  0  0  0  0  0
  189.1670  176.9960  145.3610 C   0  0  0  0  0  3  0  0  0  0  0  0
  191.5640  176.4310  144.0290 C   0  0  0  0  0  3  0  0  0  0  0  0
  190.3520  176.3540  143.3330 C   0  0  0  0  0  0  0  0  0  0  0  0
  189.1520  176.6420  144.0080 C   0  0  0  0  0  3  0  0  0  0  0  0
  185.3950  178.0120  137.4770 C   0  0  0  0  0  2  0  0  0  0  0  0
  184.8030  177.7190  138.7730 N   0  0  0  0  0  0  0  0  0  0  0  0
  184.5910  179.0120  139.4520 C   0  0  0  0  0  2  0  0  0  0  0  0
  182.4190  178.2180  140.4200 C   0  0  0  0  0  2  0  0  0  0  0  0
  182.7300  176.8490  139.7910 C   0  0  0  0  0  2  0  0  0  0  0  0
  183.1160  179.3650  139.6920 C   0  0  0  0  0  2  0  0  0  0  0  0
  183.5610  176.9820  138.5130 C   0  0  0  0  0  2  0  0  0  0  0  0
  1  7  1  0  0  0  0
  3  1  1  1  0  0  0
  3  5  1  0  0  0  0
  4  2  1  0  0  0  0
  4  9  1  0  0  0  0
  5 20  1  1  0  0  0
  6 12  1  6  0  0  0
  6  5  1  0  0  0  0
  7 32  1  0  0  0  0
  8  9  1  6  0  0  0
  8  7  1  0  0  0  0
 10  2  1  6  0  0  0
 10  8  1  0  0  0  0
 11 10  1  0  0  0  0
 11  3  1  0  0  0  0
 11  6  1  0  0  0  0
 12 15  1  0  0  0  0
 13 15  2  0  0  0  0
 14 17  1  0  0  0  0
 14 16  2  0  0  0  0
 16 13  1  0  0  0  0
 17 12  2  0  0  0  0
 18 17  1  0  0  0  0
 19 20  1  0  0  0  0
 20 21  1  0  0  0  0
 20 22  1  0  0  0  0
 21 22  1  0  0  0  0
 22 24  1  0  0  0  0
 22 23  1  0  0  0  0
 24 25  1  0  0  0  0
 25 30  1  0  0  0  0
 27 26  1  0  0  0  0
 28 26  2  0  0  0  0
 29 27  2  0  0  0  0
 30 31  2  0  0  0  0
 30 29  1  0  0  0  0
 31 28  1  0  0  0  0
 32 33  1  0  0  0  0
 33 34  1  0  0  0  0
 34 37  1  0  0  0  0
 36 35  1  0  0  0  0
 37 35  1  0  0  0  0
 38 33  1  0  0  0  0
 38 36  1  0  0  0  0
M  END
>  <MODEL>
5

>  <REMARK>
 VINA RESULT:      -7.3      2.973      7.619
  Name = 
  7 active torsions:
  status: ('A' for Active; 'I' for Inactive)
    1  A    between atoms: C_3  and  C_25
    2  A    between atoms: N_8  and  C_37
    3  A    between atoms: C_16  and  O_17
    4  A    between atoms: C_16  and  C_21
    5  A    between atoms: O_17  and  C_31
    6  A    between atoms: C_19  and  C_23
    7  A    between atoms: N_29  and  C_37
                            x       y       z     vdW  Elec       q    Type
                         _______ _______ _______ _____ _____    ______ ____

>  <TORSDO>
F 7

$$$$
=
 OpenBabel11062413013D

 38 44  0  0  1  0  0  0  0  0999 V2000
  182.1540  176.6420  139.5230 C   0  0  0  0  0  2  0  0  0  0  0  0
  179.3230  176.6460  136.8070 C   0  0  0  0  0  2  0  0  0  0  0  0
  181.4640  178.0150  139.4530 C   0  0  1  0  0  3  0  0  0  0  0  0
  179.4400  175.1770  137.1630 C   0  0  0  0  0  2  0  0  0  0  0  0
  182.3220  179.2500  139.1000 C   0  0  2  0  0  3  0  0  0  0  0  0
  181.4850  179.4430  137.8260 C   0  0  1  0  0  3  0  0  0  0  0  0
  182.6510  176.2390  138.2160 N   0  0  0  0  0  0  0  0  0  0  0  0
  181.5210  175.9560  137.3240 C   0  0  1  0  0  3  0  0  0  0  0  0
  180.6620  174.9610  137.8360 O   0  0  0  0  0  0  0  0  0  0  0  0
  180.6980  177.2060  137.0420 C   0  0  2  0  0  3  0  0  0  0  0  0
  180.6190  178.2430  138.1850 C   0  0  1  0  0  3  0  0  0  0  0  0
  180.6440  180.7000  137.7810 C   0  0  0  0  0  0  0  0  0  0  0  0
  179.4650  182.3810  139.0660 C   0  0  0  0  0  3  0  0  0  0  0  0
  179.7050  182.6690  136.7190 C   0  0  0  0  0  3  0  0  0  0  0  0
  180.1690  181.1750  139.0070 C   0  0  0  0  0  3  0  0  0  0  0  0
  179.2450  183.0970  137.9310 N   0  0  0  0  0  0  0  0  0  0  0  0
  180.4200  181.4710  136.6140 C   0  0  0  0  0  0  0  0  0  0  0  0
  180.8970  181.0810  135.3650 O   0  0  0  0  0  1  0  0  0  0  0  0
  184.2230  178.4110  137.6520 O   0  0  0  0  0  1  0  0  0  0  0  0
  183.8320  179.0090  138.8520 C   0  0  1  0  0  0  0  0  0  0  0  0
  184.6870  180.0620  139.2440 O   0  0  0  0  0  0  0  0  0  0  0  0
  184.8000  178.8490  139.9640 C   0  0  2  0  0  0  0  0  0  0  0  0
  186.0010  178.2230  139.6990 F   0  0  0  0  0  0  0  0  0  0  0  0
  184.3490  178.9850  141.4080 C   0  0  0  0  0  2  0  0  0  0  0  0
  184.9590  177.9640  142.1860 O   0  0  0  0  0  0  0  0  0  0  0  0
  185.9380  178.4240  146.2530 C   0  0  0  0  0  3  0  0  0  0  0  0
  186.8480  177.8420  145.3660 C   0  0  0  0  0  3  0  0  0  0  0  0
  184.6950  178.8630  145.7890 C   0  0  0  0  0  3  0  0  0  0  0  0
  186.5150  177.6890  144.0130 C   0  0  0  0  0  3  0  0  0  0  0  0
  185.2720  178.1270  143.5410 C   0  0  0  0  0  0  0  0  0  0  0  0
  184.3640  178.7180  144.4380 C   0  0  0  0  0  3  0  0  0  0  0  0
  183.4340  175.0250  138.3880 C   0  0  0  0  0  2  0  0  0  0  0  0
  184.0090  174.6330  137.1110 N   0  0  0  0  0  0  0  0  0  0  0  0
  185.3880  175.1600  137.0800 C   0  0  0  0  0  2  0  0  0  0  0  0
  186.2150  173.1000  135.9140 C   0  0  0  0  0  2  0  0  0  0  0  0
  184.7490  172.6350  135.8650 C   0  0  0  0  0  2  0  0  0  0  0  0
  186.4770  174.0780  137.0580 C   0  0  0  0  0  2  0  0  0  0  0  0
  183.9400  173.1680  137.0490 C   0  0  0  0  0  2  0  0  0  0  0  0
  2  4  1  0  0  0  0
  3  1  1  6  0  0  0
  4  9  1  0  0  0  0
  5 20  1  6  0  0  0
  5  3  1  0  0  0  0
  6 12  1  1  0  0  0
  6 11  1  0  0  0  0
  6  5  1  0  0  0  0
  7 32  1  0  0  0  0
  7  1  1  0  0  0  0
  8  9  1  1  0  0  0
  8  7  1  0  0  0  0
 10  2  1  1  0  0  0
 10  8  1  0  0  0  0
 10 11  1  0  0  0  0
 11  3  1  0  0  0  0
 12 15  1  0  0  0  0
 14 16  2  0  0  0  0
 15 13  2  0  0  0  0
 16 13  1  0  0  0  0
 17 14  1  0  0  0  0
 17 12  2  0  0  0  0
 18 17  1  0  0  0  0
 19 20  1  0  0  0  0
 20 21  1  0  0  0  0
 20 22  1  0  0  0  0
 21 22  1  0  0  0  0
 22 24  1  0  0  0  0
 23 22  1  0  0  0  0
 24 25  1  0  0  0  0
 25 30  1  0  0  0  0
 27 26  2  0  0  0  0
 28 26  1  0  0  0  0
 29 27  1  0  0  0  0
 30 29  2  0  0  0  0
 30 31  1  0  0  0  0
 31 28  2  0  0  0  0
 33 32  1  0  0  0  0
 34 33  1  0  0  0  0
 35 37  1  0  0  0  0
 36 35  1  0  0  0  0
 36 38  1  0  0  0  0
 37 34  1  0  0  0  0
 38 33  1  0  0  0  0
M  END
>  <MODEL>
6

>  <REMARK>
 VINA RESULT:      -7.2      2.620      3.498
  Name = 
  7 active torsions:
  status: ('A' for Active; 'I' for Inactive)
    1  A    between atoms: C_3  and  C_25
    2  A    between atoms: N_8  and  C_37
    3  A    between atoms: C_16  and  O_17
    4  A    between atoms: C_16  and  C_21
    5  A    between atoms: O_17  and  C_31
    6  A    between atoms: C_19  and  C_23
    7  A    between atoms: N_29  and  C_37
                            x       y       z     vdW  Elec       q    Type
                         _______ _______ _______ _____ _____    ______ ____

>  <TORSDO>
F 7

$$$$
=
 OpenBabel11062413013D

 38 44  0  0  1  0  0  0  0  0999 V2000
  182.0940  177.5880  139.9150 C   0  0  0  0  0  2  0  0  0  0  0  0
  180.8060  178.8900  143.3850 C   0  0  0  0  0  2  0  0  0  0  0  0
  183.1340  177.3320  141.0180 C   0  0  1  0  0  3  0  0  0  0  0  0
  179.5180  178.6520  142.6200 C   0  0  0  0  0  2  0  0  0  0  0  0
  184.5310  177.9760  140.8720 C   0  0  2  0  0  3  0  0  0  0  0  0
  184.2700  178.7840  142.1520 C   0  0  1  0  0  3  0  0  0  0  0  0
  181.7200  178.9950  139.8660 N   0  0  0  0  0  0  0  0  0  0  0  0
  180.9640  179.3470  141.0740 C   0  0  1  0  0  3  0  0  0  0  0  0
  179.8110  178.5510  141.2440 O   0  0  0  0  0  0  0  0  0  0  0  0
  181.8190  179.2300  142.3280 C   0  0  2  0  0  3  0  0  0  0  0  0
  182.9050  178.1300  142.3150 C   0  0  1  0  0  3  0  0  0  0  0  0
  185.1570  178.4440  143.3310 C   0  0  0  0  0  0  0  0  0  0  0  0
  187.2650  177.5000  144.0590 C   0  0  0  0  0  3  0  0  0  0  0  0
  185.8610  178.5740  145.6490 C   0  0  0  0  0  3  0  0  0  0  0  0
  186.3460  177.7680  143.0410 C   0  0  0  0  0  3  0  0  0  0  0  0
  187.0070  177.9010  145.3320 N   0  0  0  0  0  0  0  0  0  0  0  0
  184.9160  178.8690  144.6610 C   0  0  0  0  0  0  0  0  0  0  0  0
  183.7730  179.5810  145.0170 O   0  0  0  0  0  1  0  0  0  0  0  0
  184.2300  180.1140  139.5480 O   0  0  0  0  0  1  0  0  0  0  0  0
  184.7820  178.8320  139.6060 C   0  0  1  0  0  0  0  0  0  0  0  0
  186.0930  178.7760  139.0850 O   0  0  0  0  0  0  0  0  0  0  0  0
  185.0660  178.2240  138.2830 C   0  0  2  0  0  0  0  0  0  0  0  0
  184.8500  178.9870  137.1540 F   0  0  0  0  0  0  0  0  0  0  0  0
  185.1890  176.7180  138.1350 C   0  0  0  0  0  2  0  0  0  0  0  0
  184.0360  176.2170  137.4740 O   0  0  0  0  0  0  0  0  0  0  0  0
  183.2980  172.0940  137.0590 C   0  0  0  0  0  3  0  0  0  0  0  0
  184.5800  172.5580  137.3720 C   0  0  0  0  0  3  0  0  0  0  0  0
  182.2500  173.0030  136.8870 C   0  0  0  0  0  3  0  0  0  0  0  0
  184.8180  173.9320  137.5060 C   0  0  0  0  0  3  0  0  0  0  0  0
  183.7740  174.8480  137.3360 C   0  0  0  0  0  0  0  0  0  0  0  0
  182.4860  174.3740  137.0270 C   0  0  0  0  0  3  0  0  0  0  0  0
  180.8700  179.1930  138.7020 C   0  0  0  0  0  2  0  0  0  0  0  0
  181.3780  180.3060  137.9150 N   0  0  0  0  0  0  0  0  0  0  0  0
  181.0010  180.0470  136.5110 C   0  0  0  0  0  2  0  0  0  0  0  0
  180.5320  182.4800  136.1240 C   0  0  0  0  0  2  0  0  0  0  0  0
  181.0390  182.7240  137.5570 C   0  0  0  0  0  2  0  0  0  0  0  0
  180.0040  181.0600  135.9280 C   0  0  0  0  0  2  0  0  0  0  0  0
  180.7760  181.5250  138.4690 C   0  0  0  0  0  2  0  0  0  0  0  0
  3  1  1  6  0  0  0
  3 11  1  0  0  0  0
  4  2  1  0  0  0  0
  5 20  1  6  0  0  0
  5  3  1  0  0  0  0
  5  6  1  0  0  0  0
  6 11  1  0  0  0  0
  6 12  1  1  0  0  0
  7  1  1  0  0  0  0
  7  8  1  0  0  0  0
  8  9  1  1  0  0  0
  8 10  1  0  0  0  0
  9  4  1  0  0  0  0
 10  2  1  1  0  0  0
 11 10  1  0  0  0  0
 12 17  1  0  0  0  0
 13 16  2  0  0  0  0
 15 12  2  0  0  0  0
 15 13  1  0  0  0  0
 16 14  1  0  0  0  0
 17 18  1  0  0  0  0
 17 14  2  0  0  0  0
 19 20  1  0  0  0  0
 21 20  1  0  0  0  0
 22 21  1  0  0  0  0
 22 20  1  0  0  0  0
 23 22  1  0  0  0  0
 24 22  1  0  0  0  0
 25 24  1  0  0  0  0
 26 27  1  0  0  0  0
 27 29  2  0  0  0  0
 28 31  1  0  0  0  0
 28 26  2  0  0  0  0
 30 25  1  0  0  0  0
 30 29  1  0  0  0  0
 31 30  2  0  0  0  0
 32  7  1  0  0  0  0
 33 38  1  0  0  0  0
 33 32  1  0  0  0  0
 34 33  1  0  0  0  0
 35 36  1  0  0  0  0
 36 38  1  0  0  0  0
 37 35  1  0  0  0  0
 37 34  1  0  0  0  0
M  END
>  <MODEL>
7

>  <REMARK>
 VINA RESULT:      -6.8      2.858      6.709
  Name = 
  7 active torsions:
  status: ('A' for Active; 'I' for Inactive)
    1  A    between atoms: C_3  and  C_25
    2  A    between atoms: N_8  and  C_37
    3  A    between atoms: C_16  and  O_17
    4  A    between atoms: C_16  and  C_21
    5  A    between atoms: O_17  and  C_31
    6  A    between atoms: C_19  and  C_23
    7  A    between atoms: N_29  and  C_37
                            x       y       z     vdW  Elec       q    Type
                         _______ _______ _______ _____ _____    ______ ____

>  <TORSDO>
F 7

$$$$
=
 OpenBabel11062413013D

 38 44  0  0  1  0  0  0  0  0999 V2000
  187.6670  175.0730  136.9010 C   0  0  0  0  0  2  0  0  0  0  0  0
  184.6610  173.7550  134.7510 C   0  0  0  0  0  2  0  0  0  0  0  0
  186.3420  175.6940  137.3730 C   0  0  1  0  0  3  0  0  0  0  0  0
  185.6900  172.6530  134.5950 C   0  0  0  0  0  2  0  0  0  0  0  0
  186.1920  177.2310  137.3220 C   0  0  2  0  0  3  0  0  0  0  0  0
  185.0510  177.0660  136.3070 C   0  0  1  0  0  3  0  0  0  0  0  0
  187.8730  175.3000  135.4780 N   0  0  0  0  0  0  0  0  0  0  0  0
  186.8930  174.5250  134.7080 C   0  0  1  0  0  3  0  0  0  0  0  0
  186.9540  173.1430  134.9860 O   0  0  0  0  0  0  0  0  0  0  0  0
  185.4700  175.0050  134.9610 C   0  0  2  0  0  3  0  0  0  0  0  0
  185.1760  175.5510  136.3770 C   0  0  1  0  0  3  0  0  0  0  0  0
  183.6830  177.5010  136.7870 C   0  0  0  0  0  0  0  0  0  0  0  0
  182.4100  178.5460  138.5640 C   0  0  0  0  0  3  0  0  0  0  0  0
  181.3320  178.0300  136.5090 C   0  0  0  0  0  3  0  0  0  0  0  0
  183.6170  178.0340  138.0790 C   0  0  0  0  0  3  0  0  0  0  0  0
  181.3000  178.5320  137.7790 N   0  0  0  0  0  0  0  0  0  0  0  0
  182.5190  177.5130  135.9800 C   0  0  0  0  0  0  0  0  0  0  0  0
  182.5180  177.0370  134.6710 O   0  0  0  0  0  1  0  0  0  0  0  0
  187.6550  178.0610  135.4280 O   0  0  0  0  0  1  0  0  0  0  0  0
  187.4090  178.0390  136.8030 C   0  0  1  0  0  0  0  0  0  0  0  0
  187.6110  179.2930  137.4170 O   0  0  0  0  0  0  0  0  0  0  0  0
  188.5980  178.3060  137.6460 C   0  0  2  0  0  0  0  0  0  0  0  0
  189.7830  178.6320  137.0190 F   0  0  0  0  0  0  0  0  0  0  0  0
  188.6390  177.8490  139.0940 C   0  0  0  0  0  2  0  0  0  0  0  0
  188.0230  178.8350  139.9120 O   0  0  0  0  0  0  0  0  0  0  0  0
  186.1500  177.8830  143.5590 C   0  0  0  0  0  3  0  0  0  0  0  0
  187.4620  177.4700  143.3060 C   0  0  0  0  0  3  0  0  0  0  0  0
  185.4540  178.6220  142.5980 C   0  0  0  0  0  3  0  0  0  0  0  0
  188.0780  177.7890  142.0890 C   0  0  0  0  0  3  0  0  0  0  0  0
  187.3880  178.5290  141.1210 C   0  0  0  0  0  0  0  0  0  0  0  0
  186.0700  178.9460  141.3850 C   0  0  0  0  0  3  0  0  0  0  0  0
  189.2110  174.8400  135.1390 C   0  0  0  0  0  2  0  0  0  0  0  0
  190.0600  174.9060  136.3180 N   0  0  0  0  0  0  0  0  0  0  0  0
  190.6160  173.5540  136.5250 C   0  0  0  0  0  2  0  0  0  0  0  0
  192.8270  174.5050  137.2320 C   0  0  0  0  0  2  0  0  0  0  0  0
  192.1770  175.8950  137.1130 C   0  0  0  0  0  2  0  0  0  0  0  0
  192.1390  173.4650  136.3490 C   0  0  0  0  0  2  0  0  0  0  0  0
  191.0810  175.9260  136.0470 C   0  0  0  0  0  2  0  0  0  0  0  0
  3  1  1  6  0  0  0
  4  2  1  0  0  0  0
  4  9  1  0  0  0  0
  5 20  1  6  0  0  0
  5  3  1  0  0  0  0
  6 11  1  0  0  0  0
  6 12  1  1  0  0  0
  6  5  1  0  0  0  0
  7  1  1  0  0  0  0
  8 10  1  0  0  0  0
  8  9  1  1  0  0  0
  8  7  1  0  0  0  0
 10  2  1  1  0  0  0
 10 11  1  0  0  0  0
 11  3  1  0  0  0  0
 12 15  1  0  0  0  0
 14 16  2  0  0  0  0
 15 13  2  0  0  0  0
 16 13  1  0  0  0  0
 17 14  1  0  0  0  0
 17 12  2  0  0  0  0
 18 17  1  0  0  0  0
 19 20  1  0  0  0  0
 20 21  1  0  0  0  0
 20 22  1  0  0  0  0
 21 22  1  0  0  0  0
 22 24  1  0  0  0  0
 23 22  1  0  0  0  0
 24 25  1  0  0  0  0
 25 30  1  0  0  0  0
 27 26  1  0  0  0  0
 28 26  2  0  0  0  0
 29 27  2  0  0  0  0
 30 31  2  0  0  0  0
 30 29  1  0  0  0  0
 31 28  1  0  0  0  0
 32  7  1  0  0  0  0
 32 33  1  0  0  0  0
 33 34  1  0  0  0  0
 36 35  1  0  0  0  0
 37 34  1  0  0  0  0
 37 35  1  0  0  0  0
 38 33  1  0  0  0  0
 38 36  1  0  0  0  0
M  END
>  <MODEL>
8

>  <REMARK>
 VINA RESULT:      -6.8      3.006      5.020
  Name = 
  7 active torsions:
  status: ('A' for Active; 'I' for Inactive)
    1  A    between atoms: C_3  and  C_25
    2  A    between atoms: N_8  and  C_37
    3  A    between atoms: C_16  and  O_17
    4  A    between atoms: C_16  and  C_21
    5  A    between atoms: O_17  and  C_31
    6  A    between atoms: C_19  and  C_23
    7  A    between atoms: N_29  and  C_37
                            x       y       z     vdW  Elec       q    Type
                         _______ _______ _______ _____ _____    ______ ____

>  <TORSDO>
F 7

$$$$
=
 OpenBabel11062413013D

 38 44  0  0  1  0  0  0  0  0999 V2000
  182.0000  177.6140  139.9950 C   0  0  0  0  0  2  0  0  0  0  0  0
  180.8070  178.8750  143.5140 C   0  0  0  0  0  2  0  0  0  0  0  0
  183.0710  177.3470  141.0650 C   0  0  1  0  0  3  0  0  0  0  0  0
  179.4990  178.6440  142.7820 C   0  0  0  0  0  2  0  0  0  0  0  0
  184.4630  177.9940  140.8880 C   0  0  2  0  0  3  0  0  0  0  0  0
  184.2360  178.7880  142.1840 C   0  0  1  0  0  3  0  0  0  0  0  0
  181.6230  179.0200  139.9720 N   0  0  0  0  0  0  0  0  0  0  0  0
  180.9010  179.3570  141.2040 C   0  0  1  0  0  3  0  0  0  0  0  0
  179.7540  178.5570  141.3970 O   0  0  0  0  0  0  0  0  0  0  0  0
  181.7910  179.2280  142.4330 C   0  0  2  0  0  3  0  0  0  0  0  0
  182.8770  178.1310  142.3770 C   0  0  1  0  0  3  0  0  0  0  0  0
  185.1560  178.4370  143.3340 C   0  0  0  0  0  0  0  0  0  0  0  0
  187.2920  177.5050  143.9910 C   0  0  0  0  0  3  0  0  0  0  0  0
  185.9160  178.5320  145.6350 C   0  0  0  0  0  3  0  0  0  0  0  0
  186.3450  177.7810  143.0010 C   0  0  0  0  0  3  0  0  0  0  0  0
  187.0610  177.8790  145.2780 N   0  0  0  0  0  0  0  0  0  0  0  0
  184.9430  178.8330  144.6770 C   0  0  0  0  0  0  0  0  0  0  0  0
  183.8010  179.5250  145.0750 O   0  0  0  0  0  1  0  0  0  0  0  0
  184.1950  180.1760  139.6290 O   0  0  0  0  0  1  0  0  0  0  0  0
  184.6770  178.8650  139.6240 C   0  0  1  0  0  0  0  0  0  0  0  0
  185.9450  178.7490  139.0160 O   0  0  0  0  0  0  0  0  0  0  0  0
  184.8380  178.2730  138.2740 C   0  0  2  0  0  0  0  0  0  0  0  0
  184.5920  179.0730  137.1770 F   0  0  0  0  0  0  0  0  0  0  0  0
  184.8670  176.7660  138.0890 C   0  0  0  0  0  2  0  0  0  0  0  0
  185.4960  176.4600  136.8520 O   0  0  0  0  0  0  0  0  0  0  0  0
  189.6340  176.9340  136.2470 C   0  0  0  0  0  3  0  0  0  0  0  0
  189.1560  176.0470  137.2160 C   0  0  0  0  0  3  0  0  0  0  0  0
  188.7340  177.6670  135.4680 C   0  0  0  0  0  3  0  0  0  0  0  0
  187.7770  175.8960  137.4140 C   0  0  0  0  0  3  0  0  0  0  0  0
  186.8700  176.6260  136.6370 C   0  0  0  0  0  0  0  0  0  0  0  0
  187.3580  177.5130  135.6600 C   0  0  0  0  0  3  0  0  0  0  0  0
  180.7410  179.2300  138.8340 C   0  0  0  0  0  2  0  0  0  0  0  0
  181.2860  180.2760  137.9830 N   0  0  0  0  0  0  0  0  0  0  0  0
  181.1300  179.8210  136.5880 C   0  0  0  0  0  2  0  0  0  0  0  0
  180.5720  182.1450  135.8280 C   0  0  0  0  0  2  0  0  0  0  0  0
  180.8540  182.5990  137.2710 C   0  0  0  0  0  2  0  0  0  0  0  0
  180.1670  180.6740  135.7500 C   0  0  0  0  0  2  0  0  0  0  0  0
  180.5380  181.5010  138.2890 C   0  0  0  0  0  2  0  0  0  0  0  0
  3  1  1  6  0  0  0
  3 11  1  0  0  0  0
  4  2  1  0  0  0  0
  5 20  1  6  0  0  0
  5  3  1  0  0  0  0
  5  6  1  0  0  0  0
  6 11  1  0  0  0  0
  6 12  1  1  0  0  0
  7  1  1  0  0  0  0
  7  8  1  0  0  0  0
  8  9  1  1  0  0  0
  8 10  1  0  0  0  0
  9  4  1  0  0  0  0
 10  2  1  1  0  0  0
 11 10  1  0  0  0  0
 12 17  1  0  0  0  0
 13 16  2  0  0  0  0
 15 12  2  0  0  0  0
 15 13  1  0  0  0  0
 16 14  1  0  0  0  0
 17 18  1  0  0  0  0
 17 14  2  0  0  0  0
 20 19  1  0  0  0  0
 21 20  1  0  0  0  0
 22 21  1  0  0  0  0
 22 20  1  0  0  0  0
 23 22  1  0  0  0  0
 24 22  1  0  0  0  0
 25 24  1  0  0  0  0
 26 27  1  0  0  0  0
 27 29  2  0  0  0  0
 28 31  1  0  0  0  0
 28 26  2  0  0  0  0
 30 25  1  0  0  0  0
 30 29  1  0  0  0  0
 31 30  2  0  0  0  0
 32  7  1  0  0  0  0
 33 38  1  0  0  0  0
 33 32  1  0  0  0  0
 34 33  1  0  0  0  0
 35 36  1  0  0  0  0
 36 38  1  0  0  0  0
 37 35  1  0  0  0  0
 37 34  1  0  0  0  0
M  END
>  <MODEL>
9

>  <REMARK>
 VINA RESULT:      -6.7      2.509      6.500
  Name = 
  7 active torsions:
  status: ('A' for Active; 'I' for Inactive)
    1  A    between atoms: C_3  and  C_25
    2  A    between atoms: N_8  and  C_37
    3  A    between atoms: C_16  and  O_17
    4  A    between atoms: C_16  and  C_21
    5  A    between atoms: O_17  and  C_31
    6  A    between atoms: C_19  and  C_23
    7  A    between atoms: N_29  and  C_37
                            x       y       z     vdW  Elec       q    Type
                         _______ _______ _______ _____ _____    ______ ____

>  <TORSDO>
F 7

$$$$
