=
 OpenBabel11062413123D

 42 45  0  0  1  0  0  0  0  0999 V2000
  186.9950  178.4010  139.2190 N   0  0  0  0  0  2  0  0  0  0  0  0
  187.3680  177.9580  138.0620 C   0  0  0  0  0  0  0  0  0  0  0  0
  186.3500  177.5530  137.0750 C   0  0  0  0  0  0  0  0  0  0  0  0
  186.3890  178.0440  135.8780 N   0  0  0  0  0  2  0  0  0  0  0  0
  184.1410  176.6280  137.6540 C   0  0  0  0  0  0  0  0  0  0  0  0
  183.3530  175.3990  137.9310 C   0  0  0  0  0  1  0  0  0  0  0  0
  185.4170  176.5130  137.4180 N   0  0  0  0  0  0  0  0  0  0  0  0
  183.4260  177.9470  137.6990 C   0  0  0  0  0  2  0  0  0  0  0  0
  183.4460  178.5280  139.1060 C   0  0  0  0  0  2  0  0  0  0  0  0
  180.5120  180.1350  142.0840 O   0  0  0  0  0  0  0  0  0  0  0  0
  182.1920  178.7350  141.1850 N   0  0  0  0  0  0  0  0  0  0  0  0
  180.9340  179.3840  141.1650 C   0  0  0  0  0  0  0  0  0  0  0  0
  180.1780  179.0950  140.0090 N   0  0  0  0  0  0  0  0  0  0  0  0
  180.9730  178.1730  139.2030 C   0  0  0  0  0  3  0  0  0  0  0  0
  182.3080  177.9690  139.9490 C   0  0  1  0  0  3  0  0  0  0  0  0
  184.4280  178.2190  142.0800 C   0  0  0  0  0  3  0  0  0  0  0  0
  184.9350  178.5450  144.4250 C   0  0  0  0  0  3  0  0  0  0  0  0
  182.7250  179.0600  143.5790 C   0  0  0  0  0  3  0  0  0  0  0  0
  183.6320  178.9990  144.6420 C   0  0  0  0  0  3  0  0  0  0  0  0
  185.3330  178.1520  143.1440 C   0  0  0  0  0  0  0  0  0  0  0  0
  186.5920  177.7010  142.9350 F   0  0  0  0  0  0  0  0  0  0  0  0
  183.1150  178.6700  142.2880 C   0  0  0  0  0  0  0  0  0  0  0  0
  188.8190  178.0220  137.6710 C   0  0  0  0  0  2  0  0  0  0  0  0
  189.5870  176.6820  137.7030 C   0  0  2  0  0  0  0  0  0  0  0  0
  190.5580  176.5790  136.5350 C   0  0  0  0  0  1  0  0  0  0  0  0
  188.6480  175.6810  137.5310 F   0  0  0  0  0  0  0  0  0  0  0  0
  191.7920  177.4810  139.9170 C   0  0  0  0  0  2  0  0  0  0  0  0
  190.3320  176.3800  139.0220 C   0  0  2  0  0  3  0  0  0  0  0  0
  190.3330  177.5240  139.9260 N   0  0  0  0  0  0  0  0  0  0  0  0
  191.8430  176.3350  138.9280 C   0  0  0  0  0  2  0  0  0  0  0  0
  189.8890  177.0340  141.2230 C   0  0  0  0  0  2  0  0  0  0  0  0
  190.8530  177.5050  142.3050 C   0  0  0  0  0  2  0  0  0  0  0  0
  190.4280  175.2580  143.0540 O   0  0  0  0  0  1  0  0  0  0  0  0
  190.9540  176.4900  143.4500 C   0  0  2  0  0  3  0  0  0  0  0  0
  190.1860  176.7350  147.2420 C   0  0  0  0  0  2  0  0  0  0  0  0
  189.1740  177.8550  144.6870 C   0  0  0  0  0  2  0  0  0  0  0  0
  188.2810  177.7290  148.2800 O   0  0  0  0  0  1  0  0  0  0  0  0
  190.3230  176.9400  144.7010 N   0  0  0  0  0  0  0  0  0  0  0  0
  190.9560  176.6320  145.9590 C   0  0  0  0  0  0  0  0  0  0  0  0
  192.1390  176.1990  145.9910 O   0  0  0  0  0  0  0  0  0  0  0  0
  188.2780  177.6320  145.8990 C   0  0  0  0  0  2  0  0  0  0  0  0
  189.1100  177.8120  147.1600 C   0  0  2  0  0  3  0  0  0  0  0  0
  2  1  2  0  0  0  0
  3  7  1  0  0  0  0
  3  2  1  0  0  0  0
  4  3  2  0  0  0  0
  5  8  1  0  0  0  0
  5  6  1  0  0  0  0
  7  5  2  0  0  0  0
  8  9  1  0  0  0  0
 11 22  1  0  0  0  0
 12 11  1  0  0  0  0
 12 10  2  0  0  0  0
 13 12  1  0  0  0  0
 14 15  1  0  0  0  0
 14 13  2  0  0  0  0
 15  9  1  6  0  0  0
 15 11  1  0  0  0  0
 16 22  2  0  0  0  0
 16 20  1  0  0  0  0
 17 19  1  0  0  0  0
 18 19  2  0  0  0  0
 20 17  2  0  0  0  0
 21 20  1  0  0  0  0
 22 18  1  0  0  0  0
 23 24  1  0  0  0  0
 23  2  1  0  0  0  0
 24 25  1  6  0  0  0
 26 24  1  0  0  0  0
 27 29  1  0  0  0  0
 28 24  1  6  0  0  0
 28 29  1  0  0  0  0
 29 31  1  0  0  0  0
 30 28  1  0  0  0  0
 30 27  1  0  0  0  0
 31 32  1  0  0  0  0
 32 34  1  0  0  0  0
 34 33  1  6  0  0  0
 34 38  1  0  0  0  0
 36 38  1  0  0  0  0
 36 41  1  0  0  0  0
 38 39  1  0  0  0  0
 39 40  2  0  0  0  0
 39 35  1  0  0  0  0
 41 42  1  0  0  0  0
 42 35  1  0  0  0  0
 42 37  1  1  0  0  0
M  END
>  <MODEL>
1

>  <REMARK>
 VINA RESULT:      -8.4      0.000      0.000
  Name = 
  13 active torsions:
  status: ('A' for Active; 'I' for Inactive)
    1  A    between atoms: C_4  and  C_25
    2  A    between atoms: C_5  and  C_12
    3  A    between atoms: C_5  and  C_30
    4  A    between atoms: C_6  and  C_32
    5  A    between atoms: C_6  and  C_41
    6  A    between atoms: C_13  and  C_25
    7  A    between atoms: C_13  and  C_42
    8  A    between atoms: N_15  and  C_38
    9  A    between atoms: N_19  and  C_41
   10  A    between atoms: N_21  and  C_22
   11  A    between atoms: C_22  and  C_23
   12  A    between atoms: C_23  and  C_30
   13  A    between atoms: N_27  and  C_32
                            x       y       z     vdW  Elec       q    Type
                         _______ _______ _______ _____ _____    ______ ____

>  <TORSDO>
F 13

$$$$
=
 OpenBabel11062413123D

 42 45  0  0  1  0  0  0  0  0999 V2000
  183.5500  178.6990  145.6500 N   0  0  0  0  0  2  0  0  0  0  0  0
  184.5240  179.0580  144.8800 C   0  0  0  0  0  0  0  0  0  0  0  0
  184.2450  179.4440  143.4840 C   0  0  0  0  0  0  0  0  0  0  0  0
  185.2190  179.8150  142.7160 N   0  0  0  0  0  2  0  0  0  0  0  0
  182.5510  178.5570  141.9300 C   0  0  0  0  0  0  0  0  0  0  0  0
  181.1050  178.4640  141.6050 C   0  0  0  0  0  1  0  0  0  0  0  0
  182.9170  179.2650  142.9610 N   0  0  0  0  0  0  0  0  0  0  0  0
  183.5220  177.8540  141.0260 C   0  0  0  0  0  2  0  0  0  0  0  0
  182.8120  177.2830  139.8060 C   0  0  0  0  0  2  0  0  0  0  0  0
  182.2660  176.6440  135.4070 O   0  0  0  0  0  0  0  0  0  0  0  0
  183.3920  176.9380  137.4650 N   0  0  0  0  0  0  0  0  0  0  0  0
  182.4560  177.3000  136.4660 C   0  0  0  0  0  0  0  0  0  0  0  0
  181.7560  178.4870  136.7640 N   0  0  0  0  0  0  0  0  0  0  0  0
  182.2680  178.9710  138.0420 C   0  0  0  0  0  3  0  0  0  0  0  0
  183.3080  177.9370  138.5240 C   0  0  1  0  0  3  0  0  0  0  0  0
  184.0300  174.5660  137.6410 C   0  0  0  0  0  3  0  0  0  0  0  0
  186.3070  173.8560  137.2240 C   0  0  0  0  0  3  0  0  0  0  0  0
  185.7150  176.1970  137.0450 C   0  0  0  0  0  3  0  0  0  0  0  0
  186.6710  175.1800  136.9630 C   0  0  0  0  0  3  0  0  0  0  0  0
  184.9880  173.5490  137.5650 C   0  0  0  0  0  0  0  0  0  0  0  0
  184.6370  172.2680  137.8300 F   0  0  0  0  0  0  0  0  0  0  0  0
  184.3860  175.8990  137.3850 C   0  0  0  0  0  0  0  0  0  0  0  0
  185.9010  179.2460  145.4570 C   0  0  0  0  0  2  0  0  0  0  0  0
  186.7580  177.9670  145.5910 C   0  0  2  0  0  0  0  0  0  0  0  0
  186.6390  177.0950  144.3500 C   0  0  0  0  0  1  0  0  0  0  0  0
  186.2270  177.2420  146.6420 F   0  0  0  0  0  0  0  0  0  0  0  0
  189.6830  176.8150  146.3130 C   0  0  0  0  0  2  0  0  0  0  0  0
  188.2490  178.2050  145.9150 C   0  0  2  0  0  3  0  0  0  0  0  0
  189.1280  177.3860  145.0890 N   0  0  0  0  0  0  0  0  0  0  0  0
  188.7460  177.5970  147.2110 C   0  0  0  0  0  2  0  0  0  0  0  0
  190.1320  178.2790  144.5300 C   0  0  0  0  0  2  0  0  0  0  0  0
  190.8500  177.5860  143.3800 C   0  0  0  0  0  2  0  0  0  0  0  0
  190.2700  175.3610  142.6680 O   0  0  0  0  0  1  0  0  0  0  0  0
  189.8940  176.7040  142.5680 C   0  0  2  0  0  3  0  0  0  0  0  0
  188.3410  178.1490  139.3240 C   0  0  0  0  0  2  0  0  0  0  0  0
  190.8080  176.7380  140.1740 C   0  0  0  0  0  2  0  0  0  0  0  0
  189.0780  177.8100  137.0790 O   0  0  0  0  0  1  0  0  0  0  0  0
  189.7750  177.0990  141.1550 N   0  0  0  0  0  0  0  0  0  0  0  0
  188.7300  178.0120  140.7650 C   0  0  0  0  0  0  0  0  0  0  0  0
  188.0790  178.6490  141.6360 O   0  0  0  0  0  0  0  0  0  0  0  0
  190.2140  176.5870  138.7800 C   0  0  0  0  0  2  0  0  0  0  0  0
  189.5260  177.8890  138.3990 C   0  0  2  0  0  3  0  0  0  0  0  0
  2 23  1  0  0  0  0
  2  1  2  0  0  0  0
  3  2  1  0  0  0  0
  4  3  2  0  0  0  0
  5  7  2  0  0  0  0
  6  5  1  0  0  0  0
  7  3  1  0  0  0  0
  8  5  1  0  0  0  0
  9  8  1  0  0  0  0
 10 12  2  0  0  0  0
 11 15  1  0  0  0  0
 12 13  1  0  0  0  0
 12 11  1  0  0  0  0
 13 14  2  0  0  0  0
 14 15  1  0  0  0  0
 15  9  1  1  0  0  0
 17 20  2  0  0  0  0
 18 22  1  0  0  0  0
 19 18  2  0  0  0  0
 19 17  1  0  0  0  0
 20 16  1  0  0  0  0
 20 21  1  0  0  0  0
 22 11  1  0  0  0  0
 22 16  2  0  0  0  0
 23 24  1  0  0  0  0
 24 25  1  6  0  0  0
 24 26  1  0  0  0  0
 27 30  1  0  0  0  0
 28 24  1  6  0  0  0
 28 30  1  0  0  0  0
 29 28  1  0  0  0  0
 29 27  1  0  0  0  0
 31 29  1  0  0  0  0
 32 31  1  0  0  0  0
 34 33  1  6  0  0  0
 34 32  1  0  0  0  0
 35 39  1  0  0  0  0
 36 38  1  0  0  0  0
 38 34  1  0  0  0  0
 39 38  1  0  0  0  0
 39 40  2  0  0  0  0
 41 36  1  0  0  0  0
 42 37  1  6  0  0  0
 42 41  1  0  0  0  0
 42 35  1  0  0  0  0
M  END
>  <MODEL>
2

>  <REMARK>
 VINA RESULT:      -8.2      2.620      6.580
  Name = 
  13 active torsions:
  status: ('A' for Active; 'I' for Inactive)
    1  A    between atoms: C_4  and  C_25
    2  A    between atoms: C_5  and  C_12
    3  A    between atoms: C_5  and  C_30
    4  A    between atoms: C_6  and  C_32
    5  A    between atoms: C_6  and  C_41
    6  A    between atoms: C_13  and  C_25
    7  A    between atoms: C_13  and  C_42
    8  A    between atoms: N_15  and  C_38
    9  A    between atoms: N_19  and  C_41
   10  A    between atoms: N_21  and  C_22
   11  A    between atoms: C_22  and  C_23
   12  A    between atoms: C_23  and  C_30
   13  A    between atoms: N_27  and  C_32
                            x       y       z     vdW  Elec       q    Type
                         _______ _______ _______ _____ _____    ______ ____

>  <TORSDO>
F 13

$$$$
=
 OpenBabel11062413123D

 42 45  0  0  1  0  0  0  0  0999 V2000
  187.4050  178.7700  136.8650 N   0  0  0  0  0  2  0  0  0  0  0  0
  187.2020  177.5080  137.0650 C   0  0  0  0  0  0  0  0  0  0  0  0
  186.1360  176.8140  136.3200 C   0  0  0  0  0  0  0  0  0  0  0  0
  185.6850  177.3270  135.2210 N   0  0  0  0  0  2  0  0  0  0  0  0
  184.5580  175.1600  137.2410 C   0  0  0  0  0  0  0  0  0  0  0  0
  184.3220  173.7300  137.5670 C   0  0  0  0  0  1  0  0  0  0  0  0
  185.7160  175.5080  136.7540 N   0  0  0  0  0  0  0  0  0  0  0  0
  183.4560  176.1380  137.5260 C   0  0  0  0  0  2  0  0  0  0  0  0
  183.2590  176.3120  139.0260 C   0  0  0  0  0  2  0  0  0  0  0  0
  183.2230  180.7900  139.0380 O   0  0  0  0  0  0  0  0  0  0  0  0
  182.9360  178.5850  139.8410 N   0  0  0  0  0  0  0  0  0  0  0  0
  182.7510  179.6300  138.9030 C   0  0  0  0  0  0  0  0  0  0  0  0
  181.9670  179.2500  137.7940 N   0  0  0  0  0  0  0  0  0  0  0  0
  181.5790  177.8590  138.0070 C   0  0  0  0  0  3  0  0  0  0  0  0
  182.2460  177.4090  139.3240 C   0  0  1  0  0  3  0  0  0  0  0  0
  182.6980  178.6740  142.2900 C   0  0  0  0  0  3  0  0  0  0  0  0
  184.6390  178.8870  143.7220 C   0  0  0  0  0  3  0  0  0  0  0  0
  184.9090  178.8060  141.3170 C   0  0  0  0  0  3  0  0  0  0  0  0
  185.4660  178.9010  142.5960 C   0  0  0  0  0  3  0  0  0  0  0  0
  183.2540  178.7750  143.5700 C   0  0  0  0  0  0  0  0  0  0  0  0
  182.4510  178.7730  144.6600 F   0  0  0  0  0  0  0  0  0  0  0  0
  183.5190  178.6920  141.1520 C   0  0  0  0  0  0  0  0  0  0  0  0
  188.1620  176.7260  137.9190 C   0  0  0  0  0  2  0  0  0  0  0  0
  189.1000  177.5600  138.8200 C   0  0  2  0  0  0  0  0  0  0  0  0
  188.3080  178.3570  139.8470 C   0  0  0  0  0  1  0  0  0  0  0  0
  189.7270  178.4780  137.9980 F   0  0  0  0  0  0  0  0  0  0  0  0
  192.1570  177.2900  139.8100 C   0  0  0  0  0  2  0  0  0  0  0  0
  190.2110  176.7590  139.5340 C   0  0  2  0  0  3  0  0  0  0  0  0
  190.9150  177.5610  140.5270 N   0  0  0  0  0  0  0  0  0  0  0  0
  191.4620  176.5020  138.7190 C   0  0  0  0  0  2  0  0  0  0  0  0
  190.9400  176.7810  141.7560 C   0  0  0  0  0  2  0  0  0  0  0  0
  190.1730  177.5190  142.8460 C   0  0  0  0  0  2  0  0  0  0  0  0
  188.1780  176.1930  143.0790 O   0  0  0  0  0  1  0  0  0  0  0  0
  189.3670  176.5510  143.7210 C   0  0  2  0  0  3  0  0  0  0  0  0
  189.7300  177.0990  147.5410 C   0  0  0  0  0  2  0  0  0  0  0  0
  187.8880  177.8680  145.3470 C   0  0  0  0  0  2  0  0  0  0  0  0
  188.1160  178.0170  149.0410 O   0  0  0  0  0  1  0  0  0  0  0  0
  189.0870  177.0640  145.0720 N   0  0  0  0  0  0  0  0  0  0  0  0
  190.0930  176.9390  146.0950 C   0  0  0  0  0  0  0  0  0  0  0  0
  191.2750  176.6190  145.7950 O   0  0  0  0  0  0  0  0  0  0  0  0
  187.4210  177.6860  146.7850 C   0  0  0  0  0  2  0  0  0  0  0  0
  188.5620  178.0630  147.7180 C   0  0  2  0  0  3  0  0  0  0  0  0
  1  2  2  0  0  0  0
  2 23  1  0  0  0  0
  3  7  1  0  0  0  0
  3  2  1  0  0  0  0
  4  3  2  0  0  0  0
  5  8  1  0  0  0  0
  5  6  1  0  0  0  0
  7  5  2  0  0  0  0
  8  9  1  0  0  0  0
 11 22  1  0  0  0  0
 12 10  2  0  0  0  0
 12 11  1  0  0  0  0
 13 14  2  0  0  0  0
 13 12  1  0  0  0  0
 14 15  1  0  0  0  0
 15  9  1  6  0  0  0
 15 11  1  0  0  0  0
 16 20  1  0  0  0  0
 18 19  2  0  0  0  0
 19 17  1  0  0  0  0
 20 17  2  0  0  0  0
 20 21  1  0  0  0  0
 22 18  1  0  0  0  0
 22 16  2  0  0  0  0
 23 24  1  0  0  0  0
 24 25  1  1  0  0  0
 26 24  1  0  0  0  0
 27 29  1  0  0  0  0
 28 24  1  6  0  0  0
 28 29  1  0  0  0  0
 29 31  1  0  0  0  0
 30 28  1  0  0  0  0
 30 27  1  0  0  0  0
 31 32  1  0  0  0  0
 32 34  1  0  0  0  0
 34 33  1  6  0  0  0
 34 38  1  0  0  0  0
 35 42  1  0  0  0  0
 36 41  1  0  0  0  0
 38 36  1  0  0  0  0
 38 39  1  0  0  0  0
 39 35  1  0  0  0  0
 40 39  2  0  0  0  0
 41 42  1  0  0  0  0
 42 37  1  1  0  0  0
M  END
>  <MODEL>
3

>  <REMARK>
 VINA RESULT:      -8.2      1.662      1.997
  Name = 
  13 active torsions:
  status: ('A' for Active; 'I' for Inactive)
    1  A    between atoms: C_4  and  C_25
    2  A    between atoms: C_5  and  C_12
    3  A    between atoms: C_5  and  C_30
    4  A    between atoms: C_6  and  C_32
    5  A    between atoms: C_6  and  C_41
    6  A    between atoms: C_13  and  C_25
    7  A    between atoms: C_13  and  C_42
    8  A    between atoms: N_15  and  C_38
    9  A    between atoms: N_19  and  C_41
   10  A    between atoms: N_21  and  C_22
   11  A    between atoms: C_22  and  C_23
   12  A    between atoms: C_23  and  C_30
   13  A    between atoms: N_27  and  C_32
                            x       y       z     vdW  Elec       q    Type
                         _______ _______ _______ _____ _____    ______ ____

>  <TORSDO>
F 13

$$$$
=
 OpenBabel11062413123D

 42 45  0  0  1  0  0  0  0  0999 V2000
  184.1490  178.6440  146.5450 N   0  0  0  0  0  2  0  0  0  0  0  0
  184.7150  178.7690  145.3900 C   0  0  0  0  0  0  0  0  0  0  0  0
  183.8850  178.8160  144.1720 C   0  0  0  0  0  0  0  0  0  0  0  0
  184.4540  178.8390  143.0100 N   0  0  0  0  0  2  0  0  0  0  0  0
  181.5570  178.8440  143.3640 C   0  0  0  0  0  0  0  0  0  0  0  0
  180.1310  178.6050  143.7040 C   0  0  0  0  0  1  0  0  0  0  0  0
  182.4560  178.6920  144.2940 N   0  0  0  0  0  0  0  0  0  0  0  0
  181.8820  179.2870  141.9670 C   0  0  0  0  0  2  0  0  0  0  0  0
  181.1220  178.4550  140.9430 C   0  0  0  0  0  2  0  0  0  0  0  0
  184.5750  180.2900  138.7600 O   0  0  0  0  0  0  0  0  0  0  0  0
  182.4600  179.2850  139.0830 N   0  0  0  0  0  0  0  0  0  0  0  0
  183.8660  179.3610  139.2310 C   0  0  0  0  0  0  0  0  0  0  0  0
  184.4090  178.2780  139.9530 N   0  0  0  0  0  0  0  0  0  0  0  0
  183.2960  177.4000  140.2990 C   0  0  0  0  0  3  0  0  0  0  0  0
  182.0140  178.0770  139.7680 C   0  0  1  0  0  3  0  0  0  0  0  0
  181.3970  181.4570  138.6130 C   0  0  0  0  0  3  0  0  0  0  0  0
  180.0210  181.7690  136.6460 C   0  0  0  0  0  3  0  0  0  0  0  0
  181.0490  179.6190  137.0780 C   0  0  0  0  0  3  0  0  0  0  0  0
  180.2500  180.4400  136.2770 C   0  0  0  0  0  3  0  0  0  0  0  0
  180.5930  182.2770  137.8150 C   0  0  0  0  0  0  0  0  0  0  0  0
  180.3620  183.5600  138.1790 F   0  0  0  0  0  0  0  0  0  0  0  0
  181.6300  180.1200  138.2550 C   0  0  0  0  0  0  0  0  0  0  0  0
  186.1930  179.0400  145.3090 C   0  0  0  0  0  2  0  0  0  0  0  0
  187.1170  177.8230  145.5400 C   0  0  2  0  0  0  0  0  0  0  0  0
  187.0450  176.8510  144.3710 C   0  0  0  0  0  1  0  0  0  0  0  0
  186.6240  177.1550  146.6460 F   0  0  0  0  0  0  0  0  0  0  0  0
  190.1210  176.8790  146.2380 C   0  0  0  0  0  2  0  0  0  0  0  0
  188.5930  178.1640  145.8390 C   0  0  2  0  0  3  0  0  0  0  0  0
  189.5140  177.3920  145.0130 N   0  0  0  0  0  0  0  0  0  0  0  0
  189.1460  177.6110  147.1370 C   0  0  0  0  0  2  0  0  0  0  0  0
  190.4490  178.3410  144.4270 C   0  0  0  0  0  2  0  0  0  0  0  0
  191.0390  177.7560  143.1510 C   0  0  0  0  0  2  0  0  0  0  0  0
  190.3840  175.5360  142.4900 O   0  0  0  0  0  1  0  0  0  0  0  0
  190.0210  176.8830  142.4070 C   0  0  2  0  0  3  0  0  0  0  0  0
  188.2150  178.1640  139.2250 C   0  0  0  0  0  2  0  0  0  0  0  0
  190.8540  177.0460  139.9900 C   0  0  0  0  0  2  0  0  0  0  0  0
  188.9210  177.9340  136.9570 O   0  0  0  0  0  1  0  0  0  0  0  0
  189.8150  177.2740  141.0030 N   0  0  0  0  0  0  0  0  0  0  0  0
  188.6600  178.0610  140.6530 C   0  0  0  0  0  0  0  0  0  0  0  0
  187.9640  178.6100  141.5500 O   0  0  0  0  0  0  0  0  0  0  0  0
  190.2420  176.8380  138.6100 C   0  0  0  0  0  2  0  0  0  0  0  0
  189.3950  178.0530  138.2650 C   0  0  2  0  0  3  0  0  0  0  0  0
  2  1  2  0  0  0  0
  3  7  1  0  0  0  0
  3  2  1  0  0  0  0
  4  3  2  0  0  0  0
  5  6  1  0  0  0  0
  5  7  2  0  0  0  0
  8  5  1  0  0  0  0
  9  8  1  0  0  0  0
 10 12  2  0  0  0  0
 11 12  1  0  0  0  0
 11 15  1  0  0  0  0
 12 13  1  0  0  0  0
 13 14  2  0  0  0  0
 15 14  1  0  0  0  0
 15  9  1  1  0  0  0
 17 20  1  0  0  0  0
 18 22  2  0  0  0  0
 19 17  2  0  0  0  0
 19 18  1  0  0  0  0
 20 21  1  0  0  0  0
 20 16  2  0  0  0  0
 22 16  1  0  0  0  0
 22 11  1  0  0  0  0
 23  2  1  0  0  0  0
 23 24  1  0  0  0  0
 24 25  1  6  0  0  0
 24 26  1  0  0  0  0
 27 30  1  0  0  0  0
 28 24  1  6  0  0  0
 28 30  1  0  0  0  0
 29 28  1  0  0  0  0
 29 27  1  0  0  0  0
 31 29  1  0  0  0  0
 32 31  1  0  0  0  0
 34 33  1  6  0  0  0
 34 32  1  0  0  0  0
 35 39  1  0  0  0  0
 36 38  1  0  0  0  0
 38 34  1  0  0  0  0
 39 38  1  0  0  0  0
 39 40  2  0  0  0  0
 41 36  1  0  0  0  0
 42 37  1  6  0  0  0
 42 41  1  0  0  0  0
 42 35  1  0  0  0  0
M  END
>  <MODEL>
4

>  <REMARK>
 VINA RESULT:      -8.1      3.010      6.732
  Name = 
  13 active torsions:
  status: ('A' for Active; 'I' for Inactive)
    1  A    between atoms: C_4  and  C_25
    2  A    between atoms: C_5  and  C_12
    3  A    between atoms: C_5  and  C_30
    4  A    between atoms: C_6  and  C_32
    5  A    between atoms: C_6  and  C_41
    6  A    between atoms: C_13  and  C_25
    7  A    between atoms: C_13  and  C_42
    8  A    between atoms: N_15  and  C_38
    9  A    between atoms: N_19  and  C_41
   10  A    between atoms: N_21  and  C_22
   11  A    between atoms: C_22  and  C_23
   12  A    between atoms: C_23  and  C_30
   13  A    between atoms: N_27  and  C_32
                            x       y       z     vdW  Elec       q    Type
                         _______ _______ _______ _____ _____    ______ ____

>  <TORSDO>
F 13

$$$$
=
 OpenBabel11062413123D

 42 45  0  0  1  0  0  0  0  0999 V2000
  190.8140  175.7510  138.3270 N   0  0  0  0  0  2  0  0  0  0  0  0
  189.7200  176.4040  138.5490 C   0  0  0  0  0  0  0  0  0  0  0  0
  189.7650  177.6620  139.3150 C   0  0  0  0  0  0  0  0  0  0  0  0
  189.0010  178.6480  138.9730 N   0  0  0  0  0  2  0  0  0  0  0  0
  190.2120  177.3520  141.7190 C   0  0  0  0  0  0  0  0  0  0  0  0
  191.2190  177.4470  142.8080 C   0  0  0  0  0  1  0  0  0  0  0  0
  190.5550  177.7210  140.5170 N   0  0  0  0  0  0  0  0  0  0  0  0
  188.8360  176.8680  142.0730 C   0  0  0  0  0  2  0  0  0  0  0  0
  188.0130  177.9840  142.7010 C   0  0  0  0  0  2  0  0  0  0  0  0
  185.2870  179.4800  145.9240 O   0  0  0  0  0  0  0  0  0  0  0  0
  186.8370  178.0670  144.8340 N   0  0  0  0  0  0  0  0  0  0  0  0
  185.6270  178.7980  144.9210 C   0  0  0  0  0  0  0  0  0  0  0  0
  184.8210  178.6780  143.7700 N   0  0  0  0  0  0  0  0  0  0  0  0
  185.5240  177.7890  142.8510 C   0  0  0  0  0  3  0  0  0  0  0  0
  186.8630  177.4220  143.5260 C   0  0  1  0  0  3  0  0  0  0  0  0
  187.4280  178.0880  147.2240 C   0  0  0  0  0  3  0  0  0  0  0  0
  189.6140  177.3630  147.9720 C   0  0  0  0  0  3  0  0  0  0  0  0
  189.0670  177.3320  145.6130 C   0  0  0  0  0  3  0  0  0  0  0  0
  189.9770  177.0980  146.6480 C   0  0  0  0  0  3  0  0  0  0  0  0
  188.3400  177.8600  148.2600 C   0  0  0  0  0  0  0  0  0  0  0  0
  187.9920  178.1270  149.5410 F   0  0  0  0  0  0  0  0  0  0  0  0
  187.7840  177.8300  145.8910 C   0  0  0  0  0  0  0  0  0  0  0  0
  188.4440  175.9700  137.8800 C   0  0  0  0  0  2  0  0  0  0  0  0
  188.2130  176.5080  136.4500 C   0  0  2  0  0  0  0  0  0  0  0  0
  188.1580  175.3720  135.4390 C   0  0  0  0  0  1  0  0  0  0  0  0
  189.3190  177.2730  136.1310 F   0  0  0  0  0  0  0  0  0  0  0  0
  185.0210  176.8520  136.1400 C   0  0  0  0  0  2  0  0  0  0  0  0
  186.9730  177.4130  136.2790 C   0  0  2  0  0  3  0  0  0  0  0  0
  185.9310  177.1080  137.2520 N   0  0  0  0  0  0  0  0  0  0  0  0
  186.0880  177.0980  135.0920 C   0  0  0  0  0  2  0  0  0  0  0  0
  185.5380  178.3720  137.8570 C   0  0  0  0  0  2  0  0  0  0  0  0
  184.3500  178.1480  138.7840 C   0  0  0  0  0  2  0  0  0  0  0  0
  184.1740  180.5330  139.0550 O   0  0  0  0  0  1  0  0  0  0  0  0
  183.4290  179.3730  138.8260 C   0  0  2  0  0  3  0  0  0  0  0  0
  180.1140  180.1730  140.6700 C   0  0  0  0  0  2  0  0  0  0  0  0
  182.4150  178.3180  140.9300 C   0  0  0  0  0  2  0  0  0  0  0  0
  179.4250  179.4110  142.8240 O   0  0  0  0  0  1  0  0  0  0  0  0
  182.3370  179.2630  139.8070 N   0  0  0  0  0  0  0  0  0  0  0  0
  181.0950  179.9500  139.5580 C   0  0  0  0  0  0  0  0  0  0  0  0
  180.8510  180.4400  138.4230 O   0  0  0  0  0  0  0  0  0  0  0  0
  181.6300  178.8260  142.1320 C   0  0  0  0  0  2  0  0  0  0  0  0
  180.1870  179.0580  141.7080 C   0  0  2  0  0  3  0  0  0  0  0  0
  1  2  2  0  0  0  0
  2  3  1  0  0  0  0
  3  7  1  0  0  0  0
  4  3  2  0  0  0  0
  5  8  1  0  0  0  0
  5  6  1  0  0  0  0
  7  5  2  0  0  0  0
  8  9  1  0  0  0  0
 11 12  1  0  0  0  0
 11 22  1  0  0  0  0
 12 10  2  0  0  0  0
 13 12  1  0  0  0  0
 14 15  1  0  0  0  0
 14 13  2  0  0  0  0
 15  9  1  6  0  0  0
 15 11  1  0  0  0  0
 16 20  1  0  0  0  0
 17 20  2  0  0  0  0
 18 22  1  0  0  0  0
 18 19  2  0  0  0  0
 19 17  1  0  0  0  0
 20 21  1  0  0  0  0
 22 16  2  0  0  0  0
 23  2  1  0  0  0  0
 24 25  1  6  0  0  0
 24 23  1  0  0  0  0
 26 24  1  0  0  0  0
 27 29  1  0  0  0  0
 28 24  1  1  0  0  0
 28 29  1  0  0  0  0
 29 31  1  0  0  0  0
 30 27  1  0  0  0  0
 30 28  1  0  0  0  0
 31 32  1  0  0  0  0
 32 34  1  0  0  0  0
 34 33  1  1  0  0  0
 34 38  1  0  0  0  0
 35 42  1  0  0  0  0
 36 41  1  0  0  0  0
 38 36  1  0  0  0  0
 39 38  1  0  0  0  0
 39 35  1  0  0  0  0
 40 39  2  0  0  0  0
 42 41  1  0  0  0  0
 42 37  1  1  0  0  0
M  END
>  <MODEL>
5

>  <REMARK>
 VINA RESULT:      -8.0      2.546      7.241
  Name = 
  13 active torsions:
  status: ('A' for Active; 'I' for Inactive)
    1  A    between atoms: C_4  and  C_25
    2  A    between atoms: C_5  and  C_12
    3  A    between atoms: C_5  and  C_30
    4  A    between atoms: C_6  and  C_32
    5  A    between atoms: C_6  and  C_41
    6  A    between atoms: C_13  and  C_25
    7  A    between atoms: C_13  and  C_42
    8  A    between atoms: N_15  and  C_38
    9  A    between atoms: N_19  and  C_41
   10  A    between atoms: N_21  and  C_22
   11  A    between atoms: C_22  and  C_23
   12  A    between atoms: C_23  and  C_30
   13  A    between atoms: N_27  and  C_32
                            x       y       z     vdW  Elec       q    Type
                         _______ _______ _______ _____ _____    ______ ____

>  <TORSDO>
F 13

$$$$
=
 OpenBabel11062413123D

 42 45  0  0  1  0  0  0  0  0999 V2000
  183.9390  178.8520  146.1860 N   0  0  0  0  0  2  0  0  0  0  0  0
  184.4020  178.8350  144.9790 C   0  0  0  0  0  0  0  0  0  0  0  0
  183.4670  178.8550  143.8390 C   0  0  0  0  0  0  0  0  0  0  0  0
  183.9070  178.6160  142.6460 N   0  0  0  0  0  2  0  0  0  0  0  0
  181.0690  178.7490  143.2810 C   0  0  0  0  0  0  0  0  0  0  0  0
  179.6790  178.9130  143.7800 C   0  0  0  0  0  1  0  0  0  0  0  0
  182.0580  178.9990  144.0930 N   0  0  0  0  0  0  0  0  0  0  0  0
  181.2590  178.3400  141.8500 C   0  0  0  0  0  2  0  0  0  0  0  0
  180.2010  178.9750  140.9580 C   0  0  0  0  0  2  0  0  0  0  0  0
  180.4430  180.6520  136.8130 O   0  0  0  0  0  0  0  0  0  0  0  0
  181.1720  179.9630  138.9530 N   0  0  0  0  0  0  0  0  0  0  0  0
  180.3320  180.6800  138.0670 C   0  0  0  0  0  0  0  0  0  0  0  0
  179.3540  181.4510  138.7300 N   0  0  0  0  0  0  0  0  0  0  0  0
  179.5600  181.2570  140.1610 C   0  0  0  0  0  3  0  0  0  0  0  0
  180.7210  180.2510  140.3100 C   0  0  1  0  0  3  0  0  0  0  0  0
  182.3010  178.1280  137.7610 C   0  0  0  0  0  3  0  0  0  0  0  0
  184.6960  177.8170  137.9360 C   0  0  0  0  0  3  0  0  0  0  0  0
  183.6170  179.6310  139.1250 C   0  0  0  0  0  3  0  0  0  0  0  0
  184.7750  178.9250  138.7850 C   0  0  0  0  0  3  0  0  0  0  0  0
  183.4580  177.4170  137.4250 C   0  0  0  0  0  0  0  0  0  0  0  0
  183.3790  176.3380  136.6120 F   0  0  0  0  0  0  0  0  0  0  0  0
  182.3690  179.2380  138.6160 C   0  0  0  0  0  0  0  0  0  0  0  0
  185.8820  178.9690  144.7470 C   0  0  0  0  0  2  0  0  0  0  0  0
  186.7460  177.7590  145.1670 C   0  0  2  0  0  0  0  0  0  0  0  0
  186.8510  176.7430  144.0380 C   0  0  0  0  0  1  0  0  0  0  0  0
  186.0780  177.1360  146.2040 F   0  0  0  0  0  0  0  0  0  0  0  0
  189.6130  176.8270  146.3140 C   0  0  0  0  0  2  0  0  0  0  0  0
  188.1590  178.1060  145.6840 C   0  0  2  0  0  3  0  0  0  0  0  0
  189.1960  177.3330  145.0100 N   0  0  0  0  0  0  0  0  0  0  0  0
  188.5110  177.5600  147.0520 C   0  0  0  0  0  2  0  0  0  0  0  0
  190.2060  178.2820  144.5660 C   0  0  0  0  0  2  0  0  0  0  0  0
  190.9030  177.7450  143.3230 C   0  0  0  0  0  2  0  0  0  0  0  0
  190.3790  175.5160  142.5820 O   0  0  0  0  0  1  0  0  0  0  0  0
  189.9710  176.8500  142.4970 C   0  0  2  0  0  3  0  0  0  0  0  0
  188.3560  178.1890  139.2370 C   0  0  0  0  0  2  0  0  0  0  0  0
  190.9380  177.0350  140.1310 C   0  0  0  0  0  2  0  0  0  0  0  0
  189.1840  177.9800  137.0090 O   0  0  0  0  0  1  0  0  0  0  0  0
  189.8470  177.2600  141.0890 N   0  0  0  0  0  0  0  0  0  0  0  0
  188.7200  178.0630  140.6860 C   0  0  0  0  0  0  0  0  0  0  0  0
  187.9810  178.6080  141.5500 O   0  0  0  0  0  0  0  0  0  0  0  0
  190.4010  176.8500  138.7180 C   0  0  0  0  0  2  0  0  0  0  0  0
  189.5860  178.0780  138.3420 C   0  0  2  0  0  3  0  0  0  0  0  0
  2  1  2  0  0  0  0
  3  7  1  0  0  0  0
  3  2  1  0  0  0  0
  4  3  2  0  0  0  0
  5  6  1  0  0  0  0
  5  7  2  0  0  0  0
  8  5  1  0  0  0  0
  9  8  1  0  0  0  0
 10 12  2  0  0  0  0
 11 15  1  0  0  0  0
 12 13  1  0  0  0  0
 12 11  1  0  0  0  0
 13 14  2  0  0  0  0
 14 15  1  0  0  0  0
 15  9  1  6  0  0  0
 16 22  1  0  0  0  0
 17 19  2  0  0  0  0
 19 18  1  0  0  0  0
 20 16  2  0  0  0  0
 20 17  1  0  0  0  0
 21 20  1  0  0  0  0
 22 11  1  0  0  0  0
 22 18  2  0  0  0  0
 23  2  1  0  0  0  0
 23 24  1  0  0  0  0
 24 25  1  6  0  0  0
 24 26  1  0  0  0  0
 27 30  1  0  0  0  0
 28 24  1  6  0  0  0
 28 30  1  0  0  0  0
 29 28  1  0  0  0  0
 29 27  1  0  0  0  0
 31 29  1  0  0  0  0
 32 31  1  0  0  0  0
 34 33  1  6  0  0  0
 34 32  1  0  0  0  0
 35 39  1  0  0  0  0
 36 38  1  0  0  0  0
 38 34  1  0  0  0  0
 39 38  1  0  0  0  0
 39 40  2  0  0  0  0
 41 36  1  0  0  0  0
 42 37  1  6  0  0  0
 42 41  1  0  0  0  0
 42 35  1  0  0  0  0
M  END
>  <MODEL>
6

>  <REMARK>
 VINA RESULT:      -8.0      2.562      6.315
  Name = 
  13 active torsions:
  status: ('A' for Active; 'I' for Inactive)
    1  A    between atoms: C_4  and  C_25
    2  A    between atoms: C_5  and  C_12
    3  A    between atoms: C_5  and  C_30
    4  A    between atoms: C_6  and  C_32
    5  A    between atoms: C_6  and  C_41
    6  A    between atoms: C_13  and  C_25
    7  A    between atoms: C_13  and  C_42
    8  A    between atoms: N_15  and  C_38
    9  A    between atoms: N_19  and  C_41
   10  A    between atoms: N_21  and  C_22
   11  A    between atoms: C_22  and  C_23
   12  A    between atoms: C_23  and  C_30
   13  A    between atoms: N_27  and  C_32
                            x       y       z     vdW  Elec       q    Type
                         _______ _______ _______ _____ _____    ______ ____

>  <TORSDO>
F 13

$$$$
=
 OpenBabel11062413123D

 42 45  0  0  1  0  0  0  0  0999 V2000
  186.6740  178.6640  141.4040 N   0  0  0  0  0  2  0  0  0  0  0  0
  185.4000  178.6680  141.6270 C   0  0  0  0  0  0  0  0  0  0  0  0
  184.4750  179.0740  140.5530 C   0  0  0  0  0  0  0  0  0  0  0  0
  184.9210  179.7530  139.5460 N   0  0  0  0  0  2  0  0  0  0  0  0
  182.6340  177.5500  139.9500 C   0  0  0  0  0  0  0  0  0  0  0  0
  181.2090  177.1920  140.1680 C   0  0  0  0  0  1  0  0  0  0  0  0
  183.1210  178.5850  140.5740 N   0  0  0  0  0  0  0  0  0  0  0  0
  183.4300  176.7160  138.9890 C   0  0  0  0  0  2  0  0  0  0  0  0
  183.3660  177.2980  137.5830 C   0  0  0  0  0  2  0  0  0  0  0  0
  186.2290  173.8540  137.5650 O   0  0  0  0  0  0  0  0  0  0  0  0
  185.2570  175.9110  136.9220 N   0  0  0  0  0  0  0  0  0  0  0  0
  185.2240  174.5250  137.2090 C   0  0  0  0  0  0  0  0  0  0  0  0
  183.9450  173.9530  137.0430 N   0  0  0  0  0  0  0  0  0  0  0  0
  183.0590  175.0220  136.5940 C   0  0  0  0  0  3  0  0  0  0  0  0
  183.9040  176.3130  136.5550 C   0  0  1  0  0  3  0  0  0  0  0  0
  187.0440  177.2400  137.9730 C   0  0  0  0  0  3  0  0  0  0  0  0
  188.7120  178.3670  136.6270 C   0  0  0  0  0  3  0  0  0  0  0  0
  186.9670  177.0700  135.5610 C   0  0  0  0  0  3  0  0  0  0  0  0
  188.1060  177.8750  135.4680 C   0  0  0  0  0  3  0  0  0  0  0  0
  188.1800  178.0510  137.8800 C   0  0  0  0  0  0  0  0  0  0  0  0
  188.7600  178.5360  139.0040 F   0  0  0  0  0  0  0  0  0  0  0  0
  186.4250  176.7450  136.8140 C   0  0  0  0  0  0  0  0  0  0  0  0
  184.8650  178.0970  142.9120 C   0  0  0  0  0  2  0  0  0  0  0  0
  184.7080  179.0960  144.0810 C   0  0  2  0  0  0  0  0  0  0  0  0
  183.3330  178.9740  144.7240 C   0  0  0  0  0  1  0  0  0  0  0  0
  184.7820  180.3630  143.5330 F   0  0  0  0  0  0  0  0  0  0  0  0
  186.2350  177.4370  146.3870 C   0  0  0  0  0  2  0  0  0  0  0  0
  185.7980  179.0100  145.1710 C   0  0  2  0  0  3  0  0  0  0  0  0
  186.6230  177.8150  145.0320 N   0  0  0  0  0  0  0  0  0  0  0  0
  185.3150  178.6290  146.5550 C   0  0  0  0  0  2  0  0  0  0  0  0
  188.0100  178.2540  145.0810 C   0  0  0  0  0  2  0  0  0  0  0  0
  188.7580  177.4660  146.1470 C   0  0  0  0  0  2  0  0  0  0  0  0
  191.0080  176.6330  146.3430 O   0  0  0  0  0  1  0  0  0  0  0  0
  189.8670  176.6010  145.5360 C   0  0  2  0  0  3  0  0  0  0  0  0
  190.0670  176.3780  141.6710 C   0  0  0  0  0  2  0  0  0  0  0  0
  191.0990  178.0960  143.8580 C   0  0  0  0  0  2  0  0  0  0  0  0
  191.5330  177.5750  140.2160 O   0  0  0  0  0  1  0  0  0  0  0  0
  190.2090  176.9640  144.1510 N   0  0  0  0  0  0  0  0  0  0  0  0
  189.5140  176.3240  143.0630 C   0  0  0  0  0  0  0  0  0  0  0  0
  188.4730  175.6460  143.2800 O   0  0  0  0  0  0  0  0  0  0  0  0
  191.8610  177.8750  142.5580 C   0  0  0  0  0  2  0  0  0  0  0  0
  190.8570  177.6610  141.4350 C   0  0  2  0  0  3  0  0  0  0  0  0
  1  2  2  0  0  0  0
  2 23  1  0  0  0  0
  3  7  1  0  0  0  0
  3  2  1  0  0  0  0
  4  3  2  0  0  0  0
  5  6  1  0  0  0  0
  5  7  2  0  0  0  0
  8  5  1  0  0  0  0
  9  8  1  0  0  0  0
 11 12  1  0  0  0  0
 12 10  2  0  0  0  0
 13 12  1  0  0  0  0
 14 13  2  0  0  0  0
 15 14  1  0  0  0  0
 15 11  1  0  0  0  0
 15  9  1  1  0  0  0
 17 20  2  0  0  0  0
 18 22  1  0  0  0  0
 19 18  2  0  0  0  0
 19 17  1  0  0  0  0
 20 16  1  0  0  0  0
 20 21  1  0  0  0  0
 22 11  1  0  0  0  0
 22 16  2  0  0  0  0
 23 24  1  0  0  0  0
 24 25  1  1  0  0  0
 26 24  1  0  0  0  0
 27 30  1  0  0  0  0
 28 24  1  6  0  0  0
 28 30  1  0  0  0  0
 29 31  1  0  0  0  0
 29 28  1  0  0  0  0
 29 27  1  0  0  0  0
 31 32  1  0  0  0  0
 34 32  1  0  0  0  0
 34 33  1  1  0  0  0
 35 39  1  0  0  0  0
 36 38  1  0  0  0  0
 38 34  1  0  0  0  0
 39 40  2  0  0  0  0
 39 38  1  0  0  0  0
 41 36  1  0  0  0  0
 42 37  1  6  0  0  0
 42 35  1  0  0  0  0
 42 41  1  0  0  0  0
M  END
>  <MODEL>
7

>  <REMARK>
 VINA RESULT:      -8.0      2.332      6.226
  Name = 
  13 active torsions:
  status: ('A' for Active; 'I' for Inactive)
    1  A    between atoms: C_4  and  C_25
    2  A    between atoms: C_5  and  C_12
    3  A    between atoms: C_5  and  C_30
    4  A    between atoms: C_6  and  C_32
    5  A    between atoms: C_6  and  C_41
    6  A    between atoms: C_13  and  C_25
    7  A    between atoms: C_13  and  C_42
    8  A    between atoms: N_15  and  C_38
    9  A    between atoms: N_19  and  C_41
   10  A    between atoms: N_21  and  C_22
   11  A    between atoms: C_22  and  C_23
   12  A    between atoms: C_23  and  C_30
   13  A    between atoms: N_27  and  C_32
                            x       y       z     vdW  Elec       q    Type
                         _______ _______ _______ _____ _____    ______ ____

>  <TORSDO>
F 13

$$$$
=
 OpenBabel11062413123D

 42 45  0  0  1  0  0  0  0  0999 V2000
  186.3640  179.2860  141.1700 N   0  0  0  0  0  2  0  0  0  0  0  0
  185.1240  179.0320  141.4310 C   0  0  0  0  0  0  0  0  0  0  0  0
  184.0920  179.3170  140.4170 C   0  0  0  0  0  0  0  0  0  0  0  0
  184.4420  179.7840  139.2620 N   0  0  0  0  0  2  0  0  0  0  0  0
  182.1660  177.7800  140.4650 C   0  0  0  0  0  0  0  0  0  0  0  0
  180.7500  177.5910  140.8720 C   0  0  0  0  0  1  0  0  0  0  0  0
  182.7290  178.9350  140.6780 N   0  0  0  0  0  0  0  0  0  0  0  0
  182.8640  176.6340  139.7920 C   0  0  0  0  0  2  0  0  0  0  0  0
  181.8590  175.6170  139.2690 C   0  0  0  0  0  2  0  0  0  0  0  0
  181.7710  172.6330  135.9310 O   0  0  0  0  0  0  0  0  0  0  0  0
  182.4710  174.5100  137.1860 N   0  0  0  0  0  0  0  0  0  0  0  0
  181.5060  173.7110  136.5260 C   0  0  0  0  0  0  0  0  0  0  0  0
  180.2030  174.2500  136.5840 N   0  0  0  0  0  0  0  0  0  0  0  0
  180.2990  175.5080  137.3170 C   0  0  0  0  0  3  0  0  0  0  0  0
  181.7730  175.6600  137.7500 C   0  0  1  0  0  3  0  0  0  0  0  0
  184.7170  175.3810  136.6800 C   0  0  0  0  0  3  0  0  0  0  0  0
  186.6930  174.0450  137.0980 C   0  0  0  0  0  3  0  0  0  0  0  0
  184.4990  173.1560  137.6050 C   0  0  0  0  0  3  0  0  0  0  0  0
  185.8880  173.0080  137.5770 C   0  0  0  0  0  3  0  0  0  0  0  0
  186.1080  175.2310  136.6470 C   0  0  0  0  0  0  0  0  0  0  0  0
  186.8860  176.2320  136.1720 F   0  0  0  0  0  0  0  0  0  0  0  0
  183.9000  174.3440  137.1560 C   0  0  0  0  0  0  0  0  0  0  0  0
  184.7630  178.2920  142.6900 C   0  0  0  0  0  2  0  0  0  0  0  0
  184.7280  179.1360  143.9840 C   0  0  2  0  0  0  0  0  0  0  0  0
  183.4160  178.9410  144.7310 C   0  0  0  0  0  1  0  0  0  0  0  0
  184.7730  180.4620  143.5950 F   0  0  0  0  0  0  0  0  0  0  0  0
  185.9180  177.8760  146.7050 C   0  0  0  0  0  2  0  0  0  0  0  0
  185.9120  178.9090  144.9500 C   0  0  2  0  0  3  0  0  0  0  0  0
  186.0730  177.5030  145.3020 N   0  0  0  0  0  0  0  0  0  0  0  0
  185.6820  179.3380  146.3850 C   0  0  0  0  0  2  0  0  0  0  0  0
  187.4740  177.1740  145.0890 C   0  0  0  0  0  2  0  0  0  0  0  0
  187.9810  177.8770  143.8370 C   0  0  0  0  0  2  0  0  0  0  0  0
  188.2710  175.5700  143.2150 O   0  0  0  0  0  1  0  0  0  0  0  0
  188.3060  176.8770  142.7210 C   0  0  2  0  0  3  0  0  0  0  0  0
  190.9520  177.0140  139.8910 C   0  0  0  0  0  2  0  0  0  0  0  0
  190.7660  177.5910  142.7960 C   0  0  0  0  0  2  0  0  0  0  0  0
  193.3070  177.3280  140.1140 O   0  0  0  0  0  1  0  0  0  0  0  0
  189.5870  177.1350  142.0450 N   0  0  0  0  0  0  0  0  0  0  0  0
  189.6380  177.1270  140.6050 C   0  0  0  0  0  0  0  0  0  0  0  0
  188.5750  177.1370  139.9270 O   0  0  0  0  0  0  0  0  0  0  0  0
  192.0550  177.1250  142.1320 C   0  0  0  0  0  2  0  0  0  0  0  0
  192.0810  177.6430  140.7020 C   0  0  2  0  0  3  0  0  0  0  0  0
  1  2  2  0  0  0  0
  2 23  1  0  0  0  0
  3  7  1  0  0  0  0
  3  2  1  0  0  0  0
  4  3  2  0  0  0  0
  5  7  2  0  0  0  0
  5  6  1  0  0  0  0
  8  5  1  0  0  0  0
  9  8  1  0  0  0  0
 10 12  2  0  0  0  0
 11 15  1  0  0  0  0
 12 13  1  0  0  0  0
 12 11  1  0  0  0  0
 13 14  2  0  0  0  0
 14 15  1  0  0  0  0
 15  9  1  1  0  0  0
 16 22  1  0  0  0  0
 17 19  2  0  0  0  0
 19 18  1  0  0  0  0
 20 16  2  0  0  0  0
 20 17  1  0  0  0  0
 21 20  1  0  0  0  0
 22 11  1  0  0  0  0
 22 18  2  0  0  0  0
 23 24  1  0  0  0  0
 24 25  1  1  0  0  0
 26 24  1  0  0  0  0
 28 24  1  6  0  0  0
 28 29  1  0  0  0  0
 28 30  1  0  0  0  0
 29 27  1  0  0  0  0
 30 27  1  0  0  0  0
 31 29  1  0  0  0  0
 32 31  1  0  0  0  0
 34 33  1  1  0  0  0
 34 32  1  0  0  0  0
 35 39  1  0  0  0  0
 35 42  1  0  0  0  0
 38 34  1  0  0  0  0
 38 36  1  0  0  0  0
 39 38  1  0  0  0  0
 40 39  2  0  0  0  0
 41 36  1  0  0  0  0
 42 37  1  6  0  0  0
 42 41  1  0  0  0  0
M  END
>  <MODEL>
8

>  <REMARK>
 VINA RESULT:      -7.9      2.850      6.482
  Name = 
  13 active torsions:
  status: ('A' for Active; 'I' for Inactive)
    1  A    between atoms: C_4  and  C_25
    2  A    between atoms: C_5  and  C_12
    3  A    between atoms: C_5  and  C_30
    4  A    between atoms: C_6  and  C_32
    5  A    between atoms: C_6  and  C_41
    6  A    between atoms: C_13  and  C_25
    7  A    between atoms: C_13  and  C_42
    8  A    between atoms: N_15  and  C_38
    9  A    between atoms: N_19  and  C_41
   10  A    between atoms: N_21  and  C_22
   11  A    between atoms: C_22  and  C_23
   12  A    between atoms: C_23  and  C_30
   13  A    between atoms: N_27  and  C_32
                            x       y       z     vdW  Elec       q    Type
                         _______ _______ _______ _____ _____    ______ ____

>  <TORSDO>
F 13

$$$$
=
 OpenBabel11062413123D

 42 45  0  0  1  0  0  0  0  0999 V2000
  185.0770  177.5660  137.9960 N   0  0  0  0  0  2  0  0  0  0  0  0
  183.9960  177.9930  138.5630 C   0  0  0  0  0  0  0  0  0  0  0  0
  184.0610  179.1390  139.4880 C   0  0  0  0  0  0  0  0  0  0  0  0
  184.1800  180.3380  139.0140 N   0  0  0  0  0  2  0  0  0  0  0  0
  184.7460  178.8010  141.8310 C   0  0  0  0  0  0  0  0  0  0  0  0
  184.2930  178.6360  143.2360 C   0  0  0  0  0  1  0  0  0  0  0  0
  183.8480  178.9170  140.8940 N   0  0  0  0  0  0  0  0  0  0  0  0
  186.2230  178.7880  141.5620 C   0  0  0  0  0  2  0  0  0  0  0  0
  186.9390  177.8350  142.5100 C   0  0  0  0  0  2  0  0  0  0  0  0
  190.6680  175.4520  143.1950 O   0  0  0  0  0  0  0  0  0  0  0  0
  189.0860  177.1880  143.4630 N   0  0  0  0  0  0  0  0  0  0  0  0
  189.9530  176.3660  142.7040 C   0  0  0  0  0  0  0  0  0  0  0  0
  189.9520  176.6780  141.3280 N   0  0  0  0  0  0  0  0  0  0  0  0
  189.0370  177.8000  141.1490 C   0  0  0  0  0  3  0  0  0  0  0  0
  188.4360  178.1090  142.5370 C   0  0  1  0  0  3  0  0  0  0  0  0
  190.1410  177.0910  145.6860 C   0  0  0  0  0  3  0  0  0  0  0  0
  188.8310  177.3930  147.7000 C   0  0  0  0  0  3  0  0  0  0  0  0
  187.7600  177.4920  145.5300 C   0  0  0  0  0  3  0  0  0  0  0  0
  187.6810  177.5620  146.9240 C   0  0  0  0  0  3  0  0  0  0  0  0
  190.0620  177.1560  147.0810 C   0  0  0  0  0  0  0  0  0  0  0  0
  191.1740  176.9810  147.8320 F   0  0  0  0  0  0  0  0  0  0  0  0
  188.9910  177.2550  144.8980 C   0  0  0  0  0  0  0  0  0  0  0  0
  182.6640  177.4330  138.1440 C   0  0  0  0  0  2  0  0  0  0  0  0
  182.0970  176.3010  139.0300 C   0  0  2  0  0  0  0  0  0  0  0  0
  180.8410  176.7530  139.7610 C   0  0  0  0  0  1  0  0  0  0  0  0
  183.0500  176.0390  139.9970 F   0  0  0  0  0  0  0  0  0  0  0  0
  181.0860  174.7010  136.4190 C   0  0  0  0  0  2  0  0  0  0  0  0
  181.8190  174.9690  138.2990 C   0  0  2  0  0  3  0  0  0  0  0  0
  182.4170  174.9360  136.9690 N   0  0  0  0  0  0  0  0  0  0  0  0
  180.4100  174.7910  137.7720 C   0  0  0  0  0  2  0  0  0  0  0  0
  183.1580  173.6870  136.8720 C   0  0  0  0  0  2  0  0  0  0  0  0
  184.5300  173.9520  136.2680 C   0  0  0  0  0  2  0  0  0  0  0  0
  185.3020  172.9970  138.3380 O   0  0  0  0  0  1  0  0  0  0  0  0
  185.6260  173.1570  136.9880 C   0  0  2  0  0  3  0  0  0  0  0  0
  189.4960  173.3830  136.9680 C   0  0  0  0  0  2  0  0  0  0  0  0
  187.1590  175.1780  136.6260 C   0  0  0  0  0  2  0  0  0  0  0  0
  190.8400  175.3550  136.9990 O   0  0  0  0  0  1  0  0  0  0  0  0
  186.9710  173.7380  136.8490 N   0  0  0  0  0  0  0  0  0  0  0  0
  188.1090  172.8610  136.7390 C   0  0  0  0  0  0  0  0  0  0  0  0
  187.9490  171.6290  136.5260 O   0  0  0  0  0  0  0  0  0  0  0  0
  188.4850  175.6570  137.2030 C   0  0  0  0  0  2  0  0  0  0  0  0
  189.6100  174.8510  136.5710 C   0  0  2  0  0  3  0  0  0  0  0  0
  1  2  2  0  0  0  0
  2  3  1  0  0  0  0
  3  7  1  0  0  0  0
  4  3  2  0  0  0  0
  5  6  1  0  0  0  0
  7  5  2  0  0  0  0
  8  5  1  0  0  0  0
  8  9  1  0  0  0  0
 11 22  1  0  0  0  0
 12 10  2  0  0  0  0
 12 11  1  0  0  0  0
 13 12  1  0  0  0  0
 14 13  2  0  0  0  0
 14 15  1  0  0  0  0
 15  9  1  6  0  0  0
 15 11  1  0  0  0  0
 16 20  1  0  0  0  0
 18 19  2  0  0  0  0
 19 17  1  0  0  0  0
 20 17  2  0  0  0  0
 20 21  1  0  0  0  0
 22 18  1  0  0  0  0
 22 16  2  0  0  0  0
 23  2  1  0  0  0  0
 23 24  1  0  0  0  0
 24 25  1  1  0  0  0
 24 26  1  0  0  0  0
 27 29  1  0  0  0  0
 27 30  1  0  0  0  0
 28 24  1  6  0  0  0
 29 28  1  0  0  0  0
 30 28  1  0  0  0  0
 31 29  1  0  0  0  0
 32 31  1  0  0  0  0
 32 34  1  0  0  0  0
 34 33  1  1  0  0  0
 36 38  1  0  0  0  0
 36 41  1  0  0  0  0
 38 34  1  0  0  0  0
 39 38  1  0  0  0  0
 39 35  1  0  0  0  0
 40 39  2  0  0  0  0
 42 35  1  0  0  0  0
 42 37  1  1  0  0  0
 42 41  1  0  0  0  0
M  END
>  <MODEL>
9

>  <REMARK>
 VINA RESULT:      -7.9      3.000      8.079
  Name = 
  13 active torsions:
  status: ('A' for Active; 'I' for Inactive)
    1  A    between atoms: C_4  and  C_25
    2  A    between atoms: C_5  and  C_12
    3  A    between atoms: C_5  and  C_30
    4  A    between atoms: C_6  and  C_32
    5  A    between atoms: C_6  and  C_41
    6  A    between atoms: C_13  and  C_25
    7  A    between atoms: C_13  and  C_42
    8  A    between atoms: N_15  and  C_38
    9  A    between atoms: N_19  and  C_41
   10  A    between atoms: N_21  and  C_22
   11  A    between atoms: C_22  and  C_23
   12  A    between atoms: C_23  and  C_30
   13  A    between atoms: N_27  and  C_32
                            x       y       z     vdW  Elec       q    Type
                         _______ _______ _______ _____ _____    ______ ____

>  <TORSDO>
F 13

$$$$
