=
 OpenBabel11062415173D

 41 44  0  0  1  0  0  0  0  0999 V2000
  190.5250  177.1900  140.2370 C   0  0  1  0  0  3  0  0  0  0  0  0
  188.6670  177.2070  138.5590 C   0  0  1  0  0  3  0  0  0  0  0  0
  183.1570  175.7600  136.8340 O   0  0  0  0  0  0  0  0  0  0  0  0
  190.3780  175.5000  137.9690 C   0  0  0  0  0  2  0  0  0  0  0  0
  185.4270  173.4270  135.4210 C   0  0  0  0  0  2  0  0  0  0  0  0
  187.2090  174.1630  136.9320 C   0  0  0  0  0  3  0  0  0  0  0  0
  185.9250  176.7050  137.2070 C   0  0  0  0  0  2  0  0  0  0  0  0
  189.9170  176.9410  137.7420 C   0  0  2  0  0  3  0  0  0  0  0  0
  188.4980  174.3550  136.9290 C   0  0  0  0  0  0  0  0  0  0  0  0
  184.1550  175.1480  136.3660 C   0  0  0  0  0  0  0  0  0  0  0  0
  185.4520  175.7930  136.0750 C   0  0  2  0  0  3  0  0  0  0  0  0
  189.7850  174.5790  136.9520 C   0  0  0  0  0  3  0  0  0  0  0  0
  186.3730  174.5880  135.7620 C   0  0  2  0  0  3  0  0  0  0  0  0
  189.9740  177.8510  138.9730 C   0  0  2  0  0  3  0  0  0  0  0  0
  187.7970  178.2380  137.8580 C   0  0  0  0  0  2  0  0  0  0  0  0
  184.1360  173.7790  135.9910 N   0  0  0  0  0  0  0  0  0  0  0  0
  187.0390  177.6080  136.6990 C   0  0  0  0  0  2  0  0  0  0  0  0
  181.8290  173.0200  135.2400 C   0  0  0  0  0  1  0  0  0  0  0  0
  183.0650  171.8410  136.9520 C   0  0  0  0  0  2  0  0  0  0  0  0
  183.0340  172.8590  136.1010 C   0  0  0  0  0  0  0  0  0  0  0  0
  193.0180  176.4570  139.0290 O   0  0  0  0  0  0  0  0  0  0  0  0
  193.0340  177.3340  139.9310 C   0  0  0  0  0  3  0  0  0  0  0  0
  191.8240  177.7630  140.5590 N   0  0  0  0  0  2  0  0  0  0  0  0
  189.5770  177.3590  141.3920 C   0  0  0  0  0  0  0  0  0  0  0  0
  188.9660  178.4080  141.5120 O   0  0  0  0  0  0  0  0  0  0  0  0
  189.3930  176.2760  142.4120 C   0  0  0  0  0  2  0  0  0  0  0  0
  186.7910  177.5520  144.8660 C   0  0  0  0  0  0  0  0  0  0  0  0
  189.5600  177.1220  144.7640 C   0  0  0  0  0  3  0  0  0  0  0  0
  187.3840  177.0280  143.7090 C   0  0  0  0  0  3  0  0  0  0  0  0
  187.5960  177.8600  145.9690 C   0  0  0  0  0  3  0  0  0  0  0  0
  188.7640  176.8150  143.6540 C   0  0  0  0  0  0  0  0  0  0  0  0
  188.9770  177.6440  145.9200 C   0  0  0  0  0  3  0  0  0  0  0  0
  185.4110  177.7740  144.9510 O   0  0  0  0  0  0  0  0  0  0  0  0
  184.5130  178.6060  143.7390 P   0  0  1  0  0  0  0  0  0  0  0  0
  183.0370  178.4700  144.0350 O   0  0  0  0  0  1  0  0  0  0  0  0
  184.9400  180.2420  143.7500 O   0  0  0  0  0  0  0  0  0  0  0  0
  184.8790  177.8740  142.1150 C   0  0  0  0  0  2  0  0  0  0  0  0
  184.6380  179.7480  139.9480 O   0  0  0  0  0  1  0  0  0  0  0  0
  183.8010  178.5700  140.8270 P   0  0  0  0  0  0  0  0  0  0  0  0
  183.3250  177.3300  139.7810 O   0  0  0  0  0  0  0  0  0  0  0  0
  182.5750  179.1870  141.4580 O   0  0  0  0  0  1  0  0  0  0  0  0
  1 23  1  1  0  0  0
  1 24  1  0  0  0  0
  2 15  1  6  0  0  0
  2 14  1  0  0  0  0
  5 16  1  0  0  0  0
  8  4  1  1  0  0  0
  8  2  1  0  0  0  0
  8 14  1  0  0  0  0
  9  6  2  0  0  0  0
  9 12  2  0  0  0  0
 10  3  2  0  0  0  0
 11 10  1  0  0  0  0
 11  7  1  1  0  0  0
 12  4  1  0  0  0  0
 13  5  1  1  0  0  0
 13 11  1  0  0  0  0
 13  6  1  0  0  0  0
 14  1  1  1  0  0  0
 16 20  1  0  0  0  0
 16 10  1  0  0  0  0
 17  7  1  0  0  0  0
 17 15  1  0  0  0  0
 18 20  1  0  0  0  0
 20 19  2  0  0  0  0
 21 22  2  0  0  0  0
 22 23  1  0  0  0  0
 24 25  2  0  0  0  0
 24 26  1  0  0  0  0
 26 31  1  0  0  0  0
 27 33  1  0  0  0  0
 27 30  1  0  0  0  0
 28 32  1  0  0  0  0
 29 27  2  0  0  0  0
 31 29  1  0  0  0  0
 31 28  2  0  0  0  0
 32 30  2  0  0  0  0
 34 36  2  6  0  0  0
 34 35  1  0  0  0  0
 34 33  1  0  0  0  0
 37 34  1  0  0  0  0
 38 39  1  0  0  0  0
 39 41  1  0  0  0  0
 39 37  1  0  0  0  0
 40 39  2  0  0  0  0
M  END
>  <MODEL>
1

>  <REMARK>
 VINA RESULT:      -7.8      0.000      0.000
  Name = 
  10 active torsions:
  status: ('A' for Active; 'I' for Inactive)
    1  A    between atoms: P_1  and  C_37
    2  A    between atoms: P_1  and  O_40
    3  A    between atoms: C_7  and  O_40
    4  A    between atoms: C_11  and  C_24
    5  A    between atoms: C_11  and  C_39
    6  A    between atoms: C_19  and  N_32
    7  A    between atoms: C_24  and  C_29
    8  A    between atoms: C_28  and  C_39
    9  A    between atoms: P_30  and  C_37
   10  A    between atoms: N_36  and  C_39
                            x       y       z     vdW  Elec       q    Type
                         _______ _______ _______ _____ _____    ______ ____

>  <TORSDO>
F 10

$$$$
=
 OpenBabel11062415173D

 41 44  0  0  1  0  0  0  0  0999 V2000
  181.6040  177.1460  140.0860 C   0  0  1  0  0  3  0  0  0  0  0  0
  183.6740  178.0910  141.1290 C   0  0  1  0  0  3  0  0  0  0  0  0
  188.6330  177.5200  144.3710 O   0  0  0  0  0  0  0  0  0  0  0  0
  181.6620  178.6650  142.4760 C   0  0  0  0  0  2  0  0  0  0  0  0
  186.0750  178.8320  146.4510 C   0  0  0  0  0  2  0  0  0  0  0  0
  184.3580  178.2320  144.8100 C   0  0  0  0  0  3  0  0  0  0  0  0
  186.3180  178.3180  142.7280 C   0  0  0  0  0  2  0  0  0  0  0  0
  182.6090  179.1440  141.3730 C   0  0  2  0  0  3  0  0  0  0  0  0
  183.2350  178.6910  144.3330 C   0  0  0  0  0  0  0  0  0  0  0  0
  187.6130  178.0780  144.8560 C   0  0  0  0  0  0  0  0  0  0  0  0
  186.6920  178.9320  144.0760 C   0  0  2  0  0  3  0  0  0  0  0  0
  182.1200  179.1360  143.8190 C   0  0  0  0  0  3  0  0  0  0  0  0
  185.5150  179.1540  145.0570 C   0  0  2  0  0  3  0  0  0  0  0  0
  182.5950  178.3100  140.0870 C   0  0  2  0  0  3  0  0  0  0  0  0
  184.9620  178.7540  140.6660 C   0  0  0  0  0  2  0  0  0  0  0  0
  187.2590  178.0160  146.2310 N   0  0  0  0  0  0  0  0  0  0  0  0
  185.6980  179.3850  141.8390 C   0  0  0  0  0  2  0  0  0  0  0  0
  189.2340  176.6130  146.9980 C   0  0  0  0  0  1  0  0  0  0  0  0
  187.4680  177.2660  148.5150 C   0  0  0  0  0  2  0  0  0  0  0  0
  187.9460  177.3070  147.2780 C   0  0  0  0  0  0  0  0  0  0  0  0
  179.1140  176.2840  141.2140 O   0  0  0  0  0  0  0  0  0  0  0  0
  179.0810  177.1410  140.2930 C   0  0  0  0  0  3  0  0  0  0  0  0
  180.2850  177.6320  139.7030 N   0  0  0  0  0  2  0  0  0  0  0  0
  182.0520  176.0560  139.1530 C   0  0  0  0  0  0  0  0  0  0  0  0
  182.1300  174.9110  139.5680 O   0  0  0  0  0  0  0  0  0  0  0  0
  182.4300  176.3540  137.7330 C   0  0  0  0  0  2  0  0  0  0  0  0
  186.1470  176.9270  137.2050 C   0  0  0  0  0  0  0  0  0  0  0  0
  184.3430  174.7840  137.3410 C   0  0  0  0  0  3  0  0  0  0  0  0
  184.7840  177.1620  137.4380 C   0  0  0  0  0  3  0  0  0  0  0  0
  186.5970  175.6120  137.0400 C   0  0  0  0  0  3  0  0  0  0  0  0
  183.8820  176.0970  137.5040 C   0  0  0  0  0  0  0  0  0  0  0  0
  185.6980  174.5420  137.1090 C   0  0  0  0  0  3  0  0  0  0  0  0
  187.0730  177.9740  137.1370 O   0  0  0  0  0  0  0  0  0  0  0  0
  188.5450  177.9920  138.0310 P   0  0  1  0  0  0  0  0  0  0  0  0
  188.9360  179.4240  138.3160 O   0  0  0  0  0  0  0  0  0  0  0  0
  188.3240  177.1690  139.4910 O   0  0  0  0  0  1  0  0  0  0  0  0
  189.8500  177.1880  137.0510 C   0  0  0  0  0  2  0  0  0  0  0  0
  192.6230  176.4910  137.3510 O   0  0  0  0  0  0  0  0  0  0  0  0
  191.1200  176.4600  138.1280 P   0  0  0  0  0  0  0  0  0  0  0  0
  191.2130  177.3620  139.5540 O   0  0  0  0  0  1  0  0  0  0  0  0
  190.7560  175.0340  138.4640 O   0  0  0  0  0  1  0  0  0  0  0  0
  1 24  1  6  0  0  0
  2 15  1  6  0  0  0
  2  8  1  0  0  0  0
  3 10  2  0  0  0  0
  4 12  1  0  0  0  0
  8  4  1  1  0  0  0
  9  6  2  0  0  0  0
 10 16  1  0  0  0  0
 11  7  1  6  0  0  0
 11 10  1  0  0  0  0
 11 13  1  0  0  0  0
 12  9  2  0  0  0  0
 13  6  1  6  0  0  0
 13  5  1  0  0  0  0
 14  1  1  1  0  0  0
 14  2  1  0  0  0  0
 14  8  1  0  0  0  0
 15 17  1  0  0  0  0
 16  5  1  0  0  0  0
 16 20  1  0  0  0  0
 17  7  1  0  0  0  0
 18 20  1  0  0  0  0
 20 19  2  0  0  0  0
 22 21  2  0  0  0  0
 23  1  1  0  0  0  0
 23 22  1  0  0  0  0
 24 25  2  0  0  0  0
 26 24  1  0  0  0  0
 27 29  1  0  0  0  0
 28 31  1  0  0  0  0
 29 31  2  0  0  0  0
 30 32  1  0  0  0  0
 30 27  2  0  0  0  0
 31 26  1  0  0  0  0
 32 28  2  0  0  0  0
 33 27  1  0  0  0  0
 33 34  1  0  0  0  0
 34 35  2  1  0  0  0
 34 36  1  0  0  0  0
 37 34  1  0  0  0  0
 37 39  1  0  0  0  0
 38 39  2  0  0  0  0
 39 41  1  0  0  0  0
 39 40  1  0  0  0  0
M  END
>  <MODEL>
2

>  <REMARK>
 VINA RESULT:      -7.8      3.307      9.479
  Name = 
  10 active torsions:
  status: ('A' for Active; 'I' for Inactive)
    1  A    between atoms: P_1  and  C_37
    2  A    between atoms: P_1  and  O_40
    3  A    between atoms: C_7  and  O_40
    4  A    between atoms: C_11  and  C_24
    5  A    between atoms: C_11  and  C_39
    6  A    between atoms: C_19  and  N_32
    7  A    between atoms: C_24  and  C_29
    8  A    between atoms: C_28  and  C_39
    9  A    between atoms: P_30  and  C_37
   10  A    between atoms: N_36  and  C_39
                            x       y       z     vdW  Elec       q    Type
                         _______ _______ _______ _____ _____    ______ ____

>  <TORSDO>
F 10

$$$$
=
 OpenBabel11062415173D

 41 44  0  0  1  0  0  0  0  0999 V2000
  180.8130  179.3580  141.5280 C   0  0  1  0  0  3  0  0  0  0  0  0
  181.2810  177.3560  140.1000 C   0  0  1  0  0  3  0  0  0  0  0  0
  184.9940  173.2890  137.8420 O   0  0  0  0  0  0  0  0  0  0  0  0
  181.0840  179.4090  138.7100 C   0  0  0  0  0  2  0  0  0  0  0  0
  184.5170  175.8430  135.4240 C   0  0  0  0  0  2  0  0  0  0  0  0
  183.5330  177.3260  137.1070 C   0  0  0  0  0  3  0  0  0  0  0  0
  182.7810  175.0530  138.6710 C   0  0  0  0  0  2  0  0  0  0  0  0
  180.3310  178.2010  139.2730 C   0  0  2  0  0  3  0  0  0  0  0  0
  182.5930  178.2240  137.2120 C   0  0  0  0  0  0  0  0  0  0  0  0
  184.5750  174.2390  137.1280 C   0  0  0  0  0  0  0  0  0  0  0  0
  183.2130  174.8040  137.2270 C   0  0  2  0  0  3  0  0  0  0  0  0
  181.6440  179.1100  137.3560 C   0  0  0  0  0  3  0  0  0  0  0  0
  183.2980  176.0640  136.3310 C   0  0  2  0  0  3  0  0  0  0  0  0
  180.2030  178.1600  140.7990 C   0  0  2  0  0  3  0  0  0  0  0  0
  180.8600  175.8960  140.0430 C   0  0  0  0  0  2  0  0  0  0  0  0
  185.3340  174.8380  136.0870 N   0  0  0  0  0  0  0  0  0  0  0  0
  181.2760  175.2650  138.7220 C   0  0  0  0  0  2  0  0  0  0  0  0
  187.8360  174.9530  136.5200 C   0  0  0  0  0  1  0  0  0  0  0  0
  186.9270  173.8070  134.5950 C   0  0  0  0  0  2  0  0  0  0  0  0
  186.6800  174.5130  135.6900 C   0  0  0  0  0  0  0  0  0  0  0  0
  179.1580  181.5230  140.6380 O   0  0  0  0  0  0  0  0  0  0  0  0
  179.0090  181.1110  141.8180 C   0  0  0  0  0  3  0  0  0  0  0  0
  179.7830  180.0200  142.3180 N   0  0  0  0  0  2  0  0  0  0  0  0
  181.9550  178.9320  142.4080 C   0  0  0  0  0  0  0  0  0  0  0  0
  181.7150  178.3840  143.4720 O   0  0  0  0  0  0  0  0  0  0  0  0
  183.3780  179.1920  142.0150 C   0  0  0  0  0  2  0  0  0  0  0  0
  186.1440  177.4640  143.9600 C   0  0  0  0  0  0  0  0  0  0  0  0
  184.2110  179.4550  144.3630 C   0  0  0  0  0  3  0  0  0  0  0  0
  185.2770  177.8300  142.9210 C   0  0  0  0  0  3  0  0  0  0  0  0
  186.0330  178.1020  145.2020 C   0  0  0  0  0  3  0  0  0  0  0  0
  184.3110  178.8200  143.1190 C   0  0  0  0  0  0  0  0  0  0  0  0
  185.0710  179.0960  145.4030 C   0  0  0  0  0  3  0  0  0  0  0  0
  187.1230  176.4780  143.7900 O   0  0  0  0  0  0  0  0  0  0  0  0
  188.8010  176.8310  143.6330 P   0  0  1  0  0  0  0  0  0  0  0  0
  189.4810  175.6970  142.9010 O   0  0  0  0  0  1  0  0  0  0  0  0
  188.9930  178.2620  142.7540 O   0  0  0  0  0  0  0  0  0  0  0  0
  189.5320  177.0110  145.2890 C   0  0  0  0  0  2  0  0  0  0  0  0
  192.0000  176.9720  146.7630 O   0  0  0  0  0  1  0  0  0  0  0  0
  191.3480  177.0300  145.2030 P   0  0  0  0  0  0  0  0  0  0  0  0
  191.8690  175.6780  144.3320 O   0  0  0  0  0  0  0  0  0  0  0  0
  191.8190  178.2830  144.5050 O   0  0  0  0  0  1  0  0  0  0  0  0
  1 23  1  1  0  0  0
  1 24  1  0  0  0  0
  2 15  1  6  0  0  0
  2 14  1  0  0  0  0
  5 16  1  0  0  0  0
  6  9  2  0  0  0  0
  7 17  1  0  0  0  0
  8  4  1  1  0  0  0
  8  2  1  0  0  0  0
  8 14  1  0  0  0  0
  9 12  2  0  0  0  0
 10 11  1  0  0  0  0
 10  3  2  0  0  0  0
 11  7  1  1  0  0  0
 12  4  1  0  0  0  0
 13  5  1  6  0  0  0
 13  6  1  0  0  0  0
 13 11  1  0  0  0  0
 14  1  1  1  0  0  0
 16 10  1  0  0  0  0
 17 15  1  0  0  0  0
 19 20  2  0  0  0  0
 20 16  1  0  0  0  0
 20 18  1  0  0  0  0
 21 22  2  0  0  0  0
 22 23  1  0  0  0  0
 24 25  2  0  0  0  0
 26 24  1  0  0  0  0
 26 31  1  0  0  0  0
 27 30  1  0  0  0  0
 28 32  1  0  0  0  0
 29 31  1  0  0  0  0
 29 27  2  0  0  0  0
 30 32  2  0  0  0  0
 31 28  2  0  0  0  0
 33 27  1  0  0  0  0
 34 36  2  6  0  0  0
 34 33  1  0  0  0  0
 34 37  1  0  0  0  0
 35 34  1  0  0  0  0
 39 37  1  0  0  0  0
 39 38  1  0  0  0  0
 40 39  2  0  0  0  0
 41 39  1  0  0  0  0
M  END
>  <MODEL>
3

>  <REMARK>
 VINA RESULT:      -7.7      3.800      7.327
  Name = 
  10 active torsions:
  status: ('A' for Active; 'I' for Inactive)
    1  A    between atoms: P_1  and  C_37
    2  A    between atoms: P_1  and  O_40
    3  A    between atoms: C_7  and  O_40
    4  A    between atoms: C_11  and  C_24
    5  A    between atoms: C_11  and  C_39
    6  A    between atoms: C_19  and  N_32
    7  A    between atoms: C_24  and  C_29
    8  A    between atoms: C_28  and  C_39
    9  A    between atoms: P_30  and  C_37
   10  A    between atoms: N_36  and  C_39
                            x       y       z     vdW  Elec       q    Type
                         _______ _______ _______ _____ _____    ______ ____

>  <TORSDO>
F 10

$$$$
=
 OpenBabel11062415173D

 41 44  0  0  1  0  0  0  0  0999 V2000
  181.2240  179.2680  142.0800 C   0  0  1  0  0  3  0  0  0  0  0  0
  181.6220  177.4360  140.4200 C   0  0  1  0  0  3  0  0  0  0  0  0
  185.2130  173.6360  137.5760 O   0  0  0  0  0  0  0  0  0  0  0  0
  181.3860  179.6330  139.2760 C   0  0  0  0  0  2  0  0  0  0  0  0
  184.6630  176.4460  135.4800 C   0  0  0  0  0  2  0  0  0  0  0  0
  183.7550  177.7350  137.3550 C   0  0  0  0  0  3  0  0  0  0  0  0
  183.0480  175.3030  138.6840 C   0  0  0  0  0  2  0  0  0  0  0  0
  180.6470  178.3720  139.7300 C   0  0  2  0  0  3  0  0  0  0  0  0
  182.8270  178.6180  137.5970 C   0  0  0  0  0  0  0  0  0  0  0  0
  184.7740  174.6610  136.9900 C   0  0  0  0  0  0  0  0  0  0  0  0
  183.4210  175.2160  137.2050 C   0  0  2  0  0  3  0  0  0  0  0  0
  181.8920  179.4850  137.8770 C   0  0  0  0  0  3  0  0  0  0  0  0
  183.4810  176.5680  136.4530 C   0  0  2  0  0  3  0  0  0  0  0  0
  180.5780  178.1610  141.2460 C   0  0  2  0  0  3  0  0  0  0  0  0
  181.1880  175.9930  140.2160 C   0  0  0  0  0  2  0  0  0  0  0  0
  185.4970  175.3700  135.9940 N   0  0  0  0  0  0  0  0  0  0  0  0
  181.5470  175.5130  138.8170 C   0  0  0  0  0  2  0  0  0  0  0  0
  187.9940  175.8420  136.0390 C   0  0  0  0  0  1  0  0  0  0  0  0
  187.0430  174.1470  134.6010 C   0  0  0  0  0  2  0  0  0  0  0  0
  186.8230  175.0880  135.5100 C   0  0  0  0  0  0  0  0  0  0  0  0
  179.3730  181.3800  141.5110 O   0  0  0  0  0  0  0  0  0  0  0  0
  179.3640  180.8810  142.6660 C   0  0  0  0  0  3  0  0  0  0  0  0
  180.2440  179.8100  143.0100 N   0  0  0  0  0  2  0  0  0  0  0  0
  182.4240  178.7530  142.8250 C   0  0  0  0  0  0  0  0  0  0  0  0
  182.2730  178.2640  143.9320 O   0  0  0  0  0  0  0  0  0  0  0  0
  183.8030  178.8550  142.2440 C   0  0  0  0  0  2  0  0  0  0  0  0
  186.8260  177.3750  144.0020 C   0  0  0  0  0  0  0  0  0  0  0  0
  184.7810  179.2230  144.5210 C   0  0  0  0  0  3  0  0  0  0  0  0
  185.8610  177.6560  143.0250 C   0  0  0  0  0  3  0  0  0  0  0  0
  186.7570  178.0260  145.2400 C   0  0  0  0  0  3  0  0  0  0  0  0
  184.8390  178.5750  143.2810 C   0  0  0  0  0  0  0  0  0  0  0  0
  185.7390  178.9490  145.4990 C   0  0  0  0  0  3  0  0  0  0  0  0
  187.8620  176.4620  143.7730 O   0  0  0  0  0  0  0  0  0  0  0  0
  189.2690  176.8420  142.8570 P   0  0  1  0  0  0  0  0  0  0  0  0
  190.0550  177.9150  143.5750 O   0  0  0  0  0  1  0  0  0  0  0  0
  190.2260  175.4570  142.6980 O   0  0  0  0  0  0  0  0  0  0  0  0
  188.7700  177.4480  141.2160 C   0  0  0  0  0  2  0  0  0  0  0  0
  190.2310  175.7850  139.3820 O   0  0  0  0  0  1  0  0  0  0  0  0
  190.1460  177.3440  140.0340 P   0  0  0  0  0  0  0  0  0  0  0  0
  189.8830  178.4540  138.7860 O   0  0  0  0  0  0  0  0  0  0  0  0
  191.4470  177.6730  140.7250 O   0  0  0  0  0  1  0  0  0  0  0  0
  1 24  1  1  0  0  0
  1 23  1  0  0  0  0
  2 15  1  6  0  0  0
  2 14  1  0  0  0  0
  5 16  1  0  0  0  0
  6  9  2  0  0  0  0
  7 17  1  0  0  0  0
  8  4  1  1  0  0  0
  8  2  1  0  0  0  0
  8 14  1  0  0  0  0
  9 12  2  0  0  0  0
 10 11  1  0  0  0  0
 10  3  2  0  0  0  0
 11  7  1  1  0  0  0
 12  4  1  0  0  0  0
 13  5  1  6  0  0  0
 13 11  1  0  0  0  0
 13  6  1  0  0  0  0
 14  1  1  1  0  0  0
 16 10  1  0  0  0  0
 17 15  1  0  0  0  0
 19 20  2  0  0  0  0
 20 16  1  0  0  0  0
 20 18  1  0  0  0  0
 21 22  2  0  0  0  0
 22 23  1  0  0  0  0
 24 25  2  0  0  0  0
 26 24  1  0  0  0  0
 26 31  1  0  0  0  0
 27 30  1  0  0  0  0
 28 32  1  0  0  0  0
 29 31  1  0  0  0  0
 29 27  2  0  0  0  0
 30 32  2  0  0  0  0
 31 28  2  0  0  0  0
 33 27  1  0  0  0  0
 34 36  2  6  0  0  0
 34 35  1  0  0  0  0
 34 33  1  0  0  0  0
 37 34  1  0  0  0  0
 38 39  1  0  0  0  0
 39 41  1  0  0  0  0
 39 37  1  0  0  0  0
 40 39  2  0  0  0  0
M  END
>  <MODEL>
4

>  <REMARK>
 VINA RESULT:      -7.7      3.511      6.953
  Name = 
  10 active torsions:
  status: ('A' for Active; 'I' for Inactive)
    1  A    between atoms: P_1  and  C_37
    2  A    between atoms: P_1  and  O_40
    3  A    between atoms: C_7  and  O_40
    4  A    between atoms: C_11  and  C_24
    5  A    between atoms: C_11  and  C_39
    6  A    between atoms: C_19  and  N_32
    7  A    between atoms: C_24  and  C_29
    8  A    between atoms: C_28  and  C_39
    9  A    between atoms: P_30  and  C_37
   10  A    between atoms: N_36  and  C_39
                            x       y       z     vdW  Elec       q    Type
                         _______ _______ _______ _____ _____    ______ ____

>  <TORSDO>
F 10

$$$$
=
 OpenBabel11062415173D

 41 44  0  0  1  0  0  0  0  0999 V2000
  188.4970  177.7420  139.5840 C   0  0  1  0  0  3  0  0  0  0  0  0
  186.5880  177.3380  138.0150 C   0  0  1  0  0  3  0  0  0  0  0  0
  181.1830  175.1640  136.7960 O   0  0  0  0  0  0  0  0  0  0  0  0
  188.4310  175.7180  137.6030 C   0  0  0  0  0  2  0  0  0  0  0  0
  183.6120  172.8520  135.6370 C   0  0  0  0  0  2  0  0  0  0  0  0
  185.3680  173.9650  136.9330 C   0  0  0  0  0  3  0  0  0  0  0  0
  183.8600  176.3950  136.8880 C   0  0  0  0  0  2  0  0  0  0  0  0
  187.8280  177.0620  137.1850 C   0  0  2  0  0  3  0  0  0  0  0  0
  186.6330  174.2670  136.8380 C   0  0  0  0  0  0  0  0  0  0  0  0
  182.2160  174.5790  136.3760 C   0  0  0  0  0  0  0  0  0  0  0  0
  183.4360  175.2830  135.9290 C   0  0  2  0  0  3  0  0  0  0  0  0
  187.8920  174.6040  136.7640 C   0  0  0  0  0  3  0  0  0  0  0  0
  184.4550  174.1310  135.7550 C   0  0  2  0  0  3  0  0  0  0  0  0
  187.8420  178.1510  138.2630 C   0  0  2  0  0  3  0  0  0  0  0  0
  185.6010  178.1690  137.2110 C   0  0  0  0  0  2  0  0  0  0  0  0
  182.3140  173.1720  136.2110 N   0  0  0  0  0  0  0  0  0  0  0  0
  184.8650  177.3050  136.1970 C   0  0  0  0  0  2  0  0  0  0  0  0
  180.7960  172.0320  137.9010 C   0  0  0  0  0  1  0  0  0  0  0  0
  180.8020  171.4040  135.5660 C   0  0  0  0  0  2  0  0  0  0  0  0
  181.3080  172.1860  136.5110 C   0  0  0  0  0  0  0  0  0  0  0  0
  190.5500  176.0380  140.6300 O   0  0  0  0  0  0  0  0  0  0  0  0
  190.8990  177.1150  140.0800 C   0  0  0  0  0  3  0  0  0  0  0  0
  189.9290  177.9990  139.5160 N   0  0  0  0  0  2  0  0  0  0  0  0
  187.8860  178.4810  140.7410 C   0  0  0  0  0  0  0  0  0  0  0  0
  188.6150  179.0630  141.5270 O   0  0  0  0  0  0  0  0  0  0  0  0
  186.4030  178.4920  140.9620 C   0  0  0  0  0  2  0  0  0  0  0  0
  186.5600  177.5880  144.6470 C   0  0  0  0  0  0  0  0  0  0  0  0
  184.9790  179.1330  142.9210 C   0  0  0  0  0  3  0  0  0  0  0  0
  186.8680  177.6640  143.2810 C   0  0  0  0  0  3  0  0  0  0  0  0
  185.4530  178.2910  145.1390 C   0  0  0  0  0  3  0  0  0  0  0  0
  186.0810  178.4310  142.4180 C   0  0  0  0  0  0  0  0  0  0  0  0
  184.6650  179.0630  144.2800 C   0  0  0  0  0  3  0  0  0  0  0  0
  187.3310  176.8300  145.5350 O   0  0  0  0  0  0  0  0  0  0  0  0
  188.6080  177.4950  146.4800 P   0  0  1  0  0  0  0  0  0  0  0  0
  188.0320  178.4880  147.4640 O   0  0  0  0  0  1  0  0  0  0  0  0
  189.3840  176.2530  147.3260 O   0  0  0  0  0  0  0  0  0  0  0  0
  189.7880  178.3380  145.3840 C   0  0  0  0  0  2  0  0  0  0  0  0
  191.8530  176.3500  145.6170 O   0  0  0  0  0  1  0  0  0  0  0  0
  190.8420  177.1400  144.5130 P   0  0  0  0  0  0  0  0  0  0  0  0
  189.8570  175.9990  143.7470 O   0  0  0  0  0  1  0  0  0  0  0  0
  191.6820  177.8470  143.4770 O   0  0  0  0  0  0  0  0  0  0  0  0
  1 23  1  6  0  0  0
  1 24  1  0  0  0  0
  2 15  1  6  0  0  0
  2 14  1  0  0  0  0
  5 16  1  0  0  0  0
  8  4  1  1  0  0  0
  8  2  1  0  0  0  0
  8 14  1  0  0  0  0
  9  6  2  0  0  0  0
 10  3  2  0  0  0  0
 11 10  1  0  0  0  0
 11  7  1  1  0  0  0
 12  9  2  0  0  0  0
 12  4  1  0  0  0  0
 13  5  1  1  0  0  0
 13 11  1  0  0  0  0
 13  6  1  0  0  0  0
 14  1  1  1  0  0  0
 16 10  1  0  0  0  0
 16 20  1  0  0  0  0
 17  7  1  0  0  0  0
 17 15  1  0  0  0  0
 19 20  2  0  0  0  0
 20 18  1  0  0  0  0
 22 21  2  0  0  0  0
 23 22  1  0  0  0  0
 24 26  1  0  0  0  0
 24 25  2  0  0  0  0
 26 31  1  0  0  0  0
 27 30  1  0  0  0  0
 27 33  1  0  0  0  0
 28 32  1  0  0  0  0
 29 27  2  0  0  0  0
 31 28  2  0  0  0  0
 31 29  1  0  0  0  0
 32 30  2  0  0  0  0
 33 34  1  0  0  0  0
 34 36  2  1  0  0  0
 34 35  1  0  0  0  0
 37 34  1  0  0  0  0
 39 37  1  0  0  0  0
 39 38  1  0  0  0  0
 40 39  1  0  0  0  0
 41 39  2  0  0  0  0
M  END
>  <MODEL>
5

>  <REMARK>
 VINA RESULT:      -7.5      2.646      4.018
  Name = 
  10 active torsions:
  status: ('A' for Active; 'I' for Inactive)
    1  A    between atoms: P_1  and  C_37
    2  A    between atoms: P_1  and  O_40
    3  A    between atoms: C_7  and  O_40
    4  A    between atoms: C_11  and  C_24
    5  A    between atoms: C_11  and  C_39
    6  A    between atoms: C_19  and  N_32
    7  A    between atoms: C_24  and  C_29
    8  A    between atoms: C_28  and  C_39
    9  A    between atoms: P_30  and  C_37
   10  A    between atoms: N_36  and  C_39
                            x       y       z     vdW  Elec       q    Type
                         _______ _______ _______ _____ _____    ______ ____

>  <TORSDO>
F 10

$$$$
=
 OpenBabel11062415173D

 41 44  0  0  1  0  0  0  0  0999 V2000
  190.8530  176.9750  140.0610 C   0  0  1  0  0  3  0  0  0  0  0  0
  189.0240  176.9660  138.3510 C   0  0  1  0  0  3  0  0  0  0  0  0
  183.5090  175.5840  136.5910 O   0  0  0  0  0  0  0  0  0  0  0  0
  190.7000  175.1940  137.8640 C   0  0  0  0  0  2  0  0  0  0  0  0
  185.7420  173.1380  135.3180 C   0  0  0  0  0  2  0  0  0  0  0  0
  187.5160  173.8930  136.8280 C   0  0  0  0  0  3  0  0  0  0  0  0
  186.2940  176.4750  136.9720 C   0  0  0  0  0  2  0  0  0  0  0  0
  190.2810  176.6350  137.5680 C   0  0  2  0  0  3  0  0  0  0  0  0
  188.8100  174.0530  136.8400 C   0  0  0  0  0  0  0  0  0  0  0  0
  184.4980  174.9290  136.1670 C   0  0  0  0  0  0  0  0  0  0  0  0
  185.8160  175.5280  135.8720 C   0  0  2  0  0  3  0  0  0  0  0  0
  190.1010  174.2450  136.8760 C   0  0  0  0  0  3  0  0  0  0  0  0
  186.7110  174.2890  135.6260 C   0  0  2  0  0  3  0  0  0  0  0  0
  190.3400  177.5950  138.7600 C   0  0  2  0  0  3  0  0  0  0  0  0
  188.1930  177.9880  137.5920 C   0  0  0  0  0  2  0  0  0  0  0  0
  184.4500  173.5450  135.8490 N   0  0  0  0  0  0  0  0  0  0  0  0
  187.4380  177.3280  136.4470 C   0  0  0  0  0  2  0  0  0  0  0  0
  183.3230  171.5880  137.0150 C   0  0  0  0  0  1  0  0  0  0  0  0
  182.2570  172.7760  135.1980 C   0  0  0  0  0  2  0  0  0  0  0  0
  183.3240  172.6580  135.9790 C   0  0  0  0  0  0  0  0  0  0  0  0
  193.4400  176.6390  138.8750 O   0  0  0  0  0  0  0  0  0  0  0  0
  193.3350  177.4230  139.8530 C   0  0  0  0  0  3  0  0  0  0  0  0
  192.0710  177.6550  140.4770 N   0  0  0  0  0  2  0  0  0  0  0  0
  189.8130  177.0540  141.1440 C   0  0  0  0  0  0  0  0  0  0  0  0
  189.3330  176.0230  141.5860 O   0  0  0  0  0  0  0  0  0  0  0  0
  189.3360  178.3750  141.6690 C   0  0  0  0  0  2  0  0  0  0  0  0
  185.5720  178.8510  141.8320 C   0  0  0  0  0  0  0  0  0  0  0  0
  187.6020  177.5800  143.2920 C   0  0  0  0  0  3  0  0  0  0  0  0
  186.9040  178.9160  141.3980 C   0  0  0  0  0  3  0  0  0  0  0  0
  185.2670  178.1460  143.0030 C   0  0  0  0  0  3  0  0  0  0  0  0
  187.9180  178.2860  142.1250 C   0  0  0  0  0  0  0  0  0  0  0  0
  186.2770  177.5110  143.7300 C   0  0  0  0  0  3  0  0  0  0  0  0
  184.5360  179.4700  141.1230 O   0  0  0  0  0  0  0  0  0  0  0  0
  184.1160  179.0490  139.5070 P   0  0  1  0  0  0  0  0  0  0  0  0
  185.3100  179.2780  138.6090 O   0  0  0  0  0  0  0  0  0  0  0  0
  183.6740  177.4190  139.4490 O   0  0  0  0  0  1  0  0  0  0  0  0
  182.7320  180.0930  138.9570 C   0  0  0  0  0  2  0  0  0  0  0  0
  180.5850  178.1980  138.7070 O   0  0  0  0  0  0  0  0  0  0  0  0
  181.1540  179.4950  139.6320 P   0  0  0  0  0  0  0  0  0  0  0  0
  181.3990  178.9770  141.2230 O   0  0  0  0  0  1  0  0  0  0  0  0
  180.1330  180.6070  139.6230 O   0  0  0  0  0  1  0  0  0  0  0  0
  1 23  1  1  0  0  0
  1 24  1  0  0  0  0
  2 15  1  6  0  0  0
  2 14  1  0  0  0  0
  5 16  1  0  0  0  0
  6  9  2  0  0  0  0
  8  4  1  1  0  0  0
  8  2  1  0  0  0  0
  8 14  1  0  0  0  0
  9 12  2  0  0  0  0
 10  3  2  0  0  0  0
 11 10  1  0  0  0  0
 11  7  1  1  0  0  0
 12  4  1  0  0  0  0
 13  5  1  1  0  0  0
 13 11  1  0  0  0  0
 13  6  1  0  0  0  0
 14  1  1  1  0  0  0
 16 20  1  0  0  0  0
 16 10  1  0  0  0  0
 17  7  1  0  0  0  0
 17 15  1  0  0  0  0
 19 20  2  0  0  0  0
 20 18  1  0  0  0  0
 21 22  2  0  0  0  0
 22 23  1  0  0  0  0
 24 25  2  0  0  0  0
 24 26  1  0  0  0  0
 26 31  1  0  0  0  0
 27 30  1  0  0  0  0
 28 32  1  0  0  0  0
 29 27  2  0  0  0  0
 29 31  1  0  0  0  0
 30 32  2  0  0  0  0
 31 28  2  0  0  0  0
 33 27  1  0  0  0  0
 34 35  2  6  0  0  0
 34 33  1  0  0  0  0
 36 34  1  0  0  0  0
 37 34  1  0  0  0  0
 37 39  1  0  0  0  0
 38 39  2  0  0  0  0
 39 40  1  0  0  0  0
 41 39  1  0  0  0  0
M  END
>  <MODEL>
6

>  <REMARK>
 VINA RESULT:      -7.4      1.566      2.497
  Name = 
  10 active torsions:
  status: ('A' for Active; 'I' for Inactive)
    1  A    between atoms: P_1  and  C_37
    2  A    between atoms: P_1  and  O_40
    3  A    between atoms: C_7  and  O_40
    4  A    between atoms: C_11  and  C_24
    5  A    between atoms: C_11  and  C_39
    6  A    between atoms: C_19  and  N_32
    7  A    between atoms: C_24  and  C_29
    8  A    between atoms: C_28  and  C_39
    9  A    between atoms: P_30  and  C_37
   10  A    between atoms: N_36  and  C_39
                            x       y       z     vdW  Elec       q    Type
                         _______ _______ _______ _____ _____    ______ ____

>  <TORSDO>
F 10

$$$$
=
 OpenBabel11062415173D

 41 44  0  0  1  0  0  0  0  0999 V2000
  189.4690  176.8700  138.0570 C   0  0  1  0  0  3  0  0  0  0  0  0
  187.1940  176.8390  137.0110 C   0  0  1  0  0  3  0  0  0  0  0  0
  181.2550  176.9490  137.3910 O   0  0  0  0  0  0  0  0  0  0  0  0
  188.1570  174.5470  137.1040 C   0  0  0  0  0  2  0  0  0  0  0  0
  182.2960  173.5760  137.0290 C   0  0  0  0  0  2  0  0  0  0  0  0
  184.6120  174.1790  137.5520 C   0  0  0  0  0  3  0  0  0  0  0  0
  184.1140  176.8550  136.6760 C   0  0  0  0  0  2  0  0  0  0  0  0
  187.9830  175.7980  136.2390 C   0  0  2  0  0  3  0  0  0  0  0  0
  185.8260  173.8540  137.2050 C   0  0  0  0  0  0  0  0  0  0  0  0
  181.8600  175.8730  137.1400 C   0  0  0  0  0  0  0  0  0  0  0  0
  183.0810  175.7900  136.3120 C   0  0  2  0  0  3  0  0  0  0  0  0
  187.0530  173.5680  136.8620 C   0  0  0  0  0  3  0  0  0  0  0  0
  183.5370  174.3240  136.5170 C   0  0  2  0  0  3  0  0  0  0  0  0
  188.6730  177.0610  136.7650 C   0  0  2  0  0  3  0  0  0  0  0  0
  186.3890  177.6980  136.0490 C   0  0  0  0  0  2  0  0  0  0  0  0
  181.4020  174.5950  137.5580 N   0  0  0  0  0  0  0  0  0  0  0  0
  185.1510  176.9570  135.5680 C   0  0  0  0  0  2  0  0  0  0  0  0
  179.0130  173.7410  137.7000 C   0  0  0  0  0  1  0  0  0  0  0  0
  180.2120  174.5020  139.6560 C   0  0  0  0  0  2  0  0  0  0  0  0
  180.2330  174.3010  138.3450 C   0  0  0  0  0  0  0  0  0  0  0  0
  191.0820  174.5030  137.9680 O   0  0  0  0  0  0  0  0  0  0  0  0
  191.6410  175.6080  137.7430 C   0  0  0  0  0  3  0  0  0  0  0  0
  190.8910  176.8240  137.7480 N   0  0  0  0  0  2  0  0  0  0  0  0
  189.1810  177.9720  139.0370 C   0  0  0  0  0  0  0  0  0  0  0  0
  188.6630  179.0030  138.6390 O   0  0  0  0  0  0  0  0  0  0  0  0
  189.5430  177.8390  140.4860 C   0  0  0  0  0  2  0  0  0  0  0  0
  186.0580  178.6720  141.7420 C   0  0  0  0  0  0  0  0  0  0  0  0
  188.3130  177.2310  142.5810 C   0  0  0  0  0  3  0  0  0  0  0  0
  187.1990  178.6050  140.9300 C   0  0  0  0  0  3  0  0  0  0  0  0
  186.0570  178.0120  142.9780 C   0  0  0  0  0  3  0  0  0  0  0  0
  188.3250  177.8900  141.3460 C   0  0  0  0  0  0  0  0  0  0  0  0
  187.1800  177.2920  143.3960 C   0  0  0  0  0  3  0  0  0  0  0  0
  184.9150  179.3780  141.3500 O   0  0  0  0  0  0  0  0  0  0  0  0
  183.9790  178.9650  139.9640 P   0  0  1  0  0  0  0  0  0  0  0  0
  184.7290  179.3790  138.7190 O   0  0  0  0  0  0  0  0  0  0  0  0
  183.7260  177.2930  139.9370 O   0  0  0  0  0  1  0  0  0  0  0  0
  182.3860  179.8380  140.0360 C   0  0  0  0  0  2  0  0  0  0  0  0
  180.1470  180.2340  141.7960 O   0  0  0  0  0  1  0  0  0  0  0  0
  181.2910  179.0970  141.2840 P   0  0  0  0  0  0  0  0  0  0  0  0
  180.4910  177.7760  140.5960 O   0  0  0  0  0  0  0  0  0  0  0  0
  182.1000  178.6270  142.4680 O   0  0  0  0  0  1  0  0  0  0  0  0
  1 23  1  6  0  0  0
  1 24  1  0  0  0  0
  2 15  1  6  0  0  0
  5 16  1  0  0  0  0
  8 14  1  0  0  0  0
  8  2  1  0  0  0  0
  8  4  1  1  0  0  0
  9  6  2  0  0  0  0
 10  3  2  0  0  0  0
 10 16  1  0  0  0  0
 11 13  1  0  0  0  0
 11  7  1  1  0  0  0
 11 10  1  0  0  0  0
 12  4  1  0  0  0  0
 12  9  2  0  0  0  0
 13  5  1  1  0  0  0
 13  6  1  0  0  0  0
 14  2  1  0  0  0  0
 14  1  1  1  0  0  0
 16 20  1  0  0  0  0
 17 15  1  0  0  0  0
 17  7  1  0  0  0  0
 18 20  1  0  0  0  0
 20 19  2  0  0  0  0
 22 23  1  0  0  0  0
 22 21  2  0  0  0  0
 24 26  1  0  0  0  0
 25 24  2  0  0  0  0
 26 31  1  0  0  0  0
 27 30  1  0  0  0  0
 28 32  1  0  0  0  0
 29 31  1  0  0  0  0
 29 27  2  0  0  0  0
 30 32  2  0  0  0  0
 31 28  2  0  0  0  0
 33 27  1  0  0  0  0
 34 35  2  6  0  0  0
 34 37  1  0  0  0  0
 34 33  1  0  0  0  0
 36 34  1  0  0  0  0
 37 39  1  0  0  0  0
 39 38  1  0  0  0  0
 39 41  1  0  0  0  0
 40 39  2  0  0  0  0
M  END
>  <MODEL>
7

>  <REMARK>
 VINA RESULT:      -7.4      2.109      3.192
  Name = 
  10 active torsions:
  status: ('A' for Active; 'I' for Inactive)
    1  A    between atoms: P_1  and  C_37
    2  A    between atoms: P_1  and  O_40
    3  A    between atoms: C_7  and  O_40
    4  A    between atoms: C_11  and  C_24
    5  A    between atoms: C_11  and  C_39
    6  A    between atoms: C_19  and  N_32
    7  A    between atoms: C_24  and  C_29
    8  A    between atoms: C_28  and  C_39
    9  A    between atoms: P_30  and  C_37
   10  A    between atoms: N_36  and  C_39
                            x       y       z     vdW  Elec       q    Type
                         _______ _______ _______ _____ _____    ______ ____

>  <TORSDO>
F 10

$$$$
=
 OpenBabel11062415173D

 41 44  0  0  1  0  0  0  0  0999 V2000
  188.4160  173.4340  135.8340 C   0  0  1  0  0  3  0  0  0  0  0  0
  186.8030  175.3390  136.0380 C   0  0  1  0  0  3  0  0  0  0  0  0
  184.2320  179.7110  139.1520 O   0  0  0  0  0  0  0  0  0  0  0  0
  185.6240  173.1560  136.2220 C   0  0  0  0  0  2  0  0  0  0  0  0
  182.0770  176.8920  139.1810 C   0  0  0  0  0  2  0  0  0  0  0  0
  183.8770  175.4400  138.3750 C   0  0  0  0  0  3  0  0  0  0  0  0
  185.1830  177.7030  137.2130 C   0  0  0  0  0  2  0  0  0  0  0  0
  186.0430  174.2750  135.2670 C   0  0  2  0  0  3  0  0  0  0  0  0
  184.0510  174.4180  137.5850 C   0  0  0  0  0  0  0  0  0  0  0  0
  183.6080  178.6420  138.9170 C   0  0  0  0  0  0  0  0  0  0  0  0
  183.7320  177.8770  137.6580 C   0  0  2  0  0  3  0  0  0  0  0  0
  184.2610  173.4090  136.7830 C   0  0  0  0  0  3  0  0  0  0  0  0
  182.9710  176.5670  137.9760 C   0  0  2  0  0  3  0  0  0  0  0  0
  187.5530  174.4430  135.0730 C   0  0  2  0  0  3  0  0  0  0  0  0
  186.5870  176.7000  135.3960 C   0  0  0  0  0  2  0  0  0  0  0  0
  182.6530  178.0750  139.8020 N   0  0  0  0  0  0  0  0  0  0  0  0
  185.2180  177.2580  135.7590 C   0  0  0  0  0  2  0  0  0  0  0  0
  183.2410  178.6280  142.2120 C   0  0  0  0  0  1  0  0  0  0  0  0
  181.0240  179.0040  141.3220 C   0  0  0  0  0  2  0  0  0  0  0  0
  182.2580  178.5720  141.0940 C   0  0  0  0  0  0  0  0  0  0  0  0
  187.7900  170.6380  135.8090 O   0  0  0  0  0  0  0  0  0  0  0  0
  188.6140  171.0670  134.9600 C   0  0  0  0  0  3  0  0  0  0  0  0
  188.9520  172.4530  134.9010 N   0  0  0  0  0  2  0  0  0  0  0  0
  189.5320  174.1230  136.5690 C   0  0  0  0  0  0  0  0  0  0  0  0
  189.9690  173.6230  137.5920 O   0  0  0  0  0  0  0  0  0  0  0  0
  190.0960  175.4250  136.0830 C   0  0  0  0  0  2  0  0  0  0  0  0
  189.1730  177.3400  139.2300 C   0  0  0  0  0  0  0  0  0  0  0  0
  189.5510  177.8350  136.4950 C   0  0  0  0  0  3  0  0  0  0  0  0
  189.5390  176.2990  138.3650 C   0  0  0  0  0  3  0  0  0  0  0  0
  188.9970  178.6300  138.7120 C   0  0  0  0  0  3  0  0  0  0  0  0
  189.7260  176.5410  137.0010 C   0  0  0  0  0  0  0  0  0  0  0  0
  189.1870  178.8780  137.3500 C   0  0  0  0  0  3  0  0  0  0  0  0
  188.9820  177.1270  140.6000 O   0  0  0  0  0  0  0  0  0  0  0  0
  190.2700  177.1270  141.7430 P   0  0  1  0  0  0  0  0  0  0  0  0
  190.5530  175.7060  142.1720 O   0  0  0  0  0  1  0  0  0  0  0  0
  191.6540  177.7840  141.0280 O   0  0  0  0  0  0  0  0  0  0  0  0
  189.7850  178.1160  143.1900 C   0  0  0  0  0  2  0  0  0  0  0  0
  188.0000  175.8670  143.3460 O   0  0  0  0  0  0  0  0  0  0  0  0
  188.4110  177.3320  144.0860 P   0  0  0  0  0  0  0  0  0  0  0  0
  188.8940  177.0340  145.6790 O   0  0  0  0  0  1  0  0  0  0  0  0
  187.2110  178.2480  144.0940 O   0  0  0  0  0  1  0  0  0  0  0  0
  1 23  1  6  0  0  0
  1 24  1  0  0  0  0
  2 15  1  6  0  0  0
  4 12  1  0  0  0  0
  5 16  1  0  0  0  0
  8  2  1  0  0  0  0
  8  4  1  1  0  0  0
  9  6  2  0  0  0  0
 10  3  2  0  0  0  0
 10 16  1  0  0  0  0
 11  7  1  1  0  0  0
 11 13  1  0  0  0  0
 11 10  1  0  0  0  0
 12  9  2  0  0  0  0
 13  6  1  1  0  0  0
 13  5  1  0  0  0  0
 14  8  1  0  0  0  0
 14  1  1  1  0  0  0
 14  2  1  0  0  0  0
 15 17  1  0  0  0  0
 16 20  1  0  0  0  0
 17  7  1  0  0  0  0
 20 19  2  0  0  0  0
 20 18  1  0  0  0  0
 22 21  2  0  0  0  0
 23 22  1  0  0  0  0
 24 25  2  0  0  0  0
 26 24  1  0  0  0  0
 26 31  1  0  0  0  0
 27 33  1  0  0  0  0
 28 31  2  0  0  0  0
 28 32  1  0  0  0  0
 29 27  2  0  0  0  0
 30 27  1  0  0  0  0
 31 29  1  0  0  0  0
 32 30  2  0  0  0  0
 33 34  1  0  0  0  0
 34 36  2  6  0  0  0
 34 35  1  0  0  0  0
 34 37  1  0  0  0  0
 37 39  1  0  0  0  0
 38 39  2  0  0  0  0
 39 41  1  0  0  0  0
 39 40  1  0  0  0  0
M  END
>  <MODEL>
8

>  <REMARK>
 VINA RESULT:      -7.3      2.934      6.300
  Name = 
  10 active torsions:
  status: ('A' for Active; 'I' for Inactive)
    1  A    between atoms: P_1  and  C_37
    2  A    between atoms: P_1  and  O_40
    3  A    between atoms: C_7  and  O_40
    4  A    between atoms: C_11  and  C_24
    5  A    between atoms: C_11  and  C_39
    6  A    between atoms: C_19  and  N_32
    7  A    between atoms: C_24  and  C_29
    8  A    between atoms: C_28  and  C_39
    9  A    between atoms: P_30  and  C_37
   10  A    between atoms: N_36  and  C_39
                            x       y       z     vdW  Elec       q    Type
                         _______ _______ _______ _____ _____    ______ ____

>  <TORSDO>
F 10

$$$$
=
 OpenBabel11062415173D

 41 44  0  0  1  0  0  0  0  0999 V2000
  189.5970  176.4490  138.2650 C   0  0  1  0  0  3  0  0  0  0  0  0
  187.2330  176.8380  137.5380 C   0  0  1  0  0  3  0  0  0  0  0  0
  181.3870  177.0530  138.6340 O   0  0  0  0  0  0  0  0  0  0  0  0
  188.0290  174.5990  136.8010 C   0  0  0  0  0  2  0  0  0  0  0  0
  182.1340  173.9300  137.1230 C   0  0  0  0  0  2  0  0  0  0  0  0
  184.5290  174.2460  137.5290 C   0  0  0  0  0  3  0  0  0  0  0  0
  184.1450  177.0790  137.5920 C   0  0  0  0  0  2  0  0  0  0  0  0
  187.8620  176.0650  136.3940 C   0  0  2  0  0  3  0  0  0  0  0  0
  185.6750  174.0010  136.9580 C   0  0  0  0  0  0  0  0  0  0  0  0
  181.8820  176.0890  137.9910 C   0  0  0  0  0  0  0  0  0  0  0  0
  183.0050  176.2240  137.0400 C   0  0  2  0  0  3  0  0  0  0  0  0
  186.8370  173.7910  136.4000 C   0  0  0  0  0  3  0  0  0  0  0  0
  183.3690  174.7520  136.7260 C   0  0  2  0  0  3  0  0  0  0  0  0
  188.6920  177.0690  137.2000 C   0  0  2  0  0  3  0  0  0  0  0  0
  186.4020  177.9880  136.9930 C   0  0  0  0  0  2  0  0  0  0  0  0
  181.3750  174.7630  138.0440 N   0  0  0  0  0  0  0  0  0  0  0  0
  185.0700  177.4860  136.4550 C   0  0  0  0  0  2  0  0  0  0  0  0
  179.2500  173.3800  138.2290 C   0  0  0  0  0  1  0  0  0  0  0  0
  180.1420  174.6060  140.1130 C   0  0  0  0  0  2  0  0  0  0  0  0
  180.2720  174.2800  138.8330 C   0  0  0  0  0  0  0  0  0  0  0  0
  191.2920  174.1750  137.8520 O   0  0  0  0  0  0  0  0  0  0  0  0
  191.7770  175.3180  137.6490 C   0  0  0  0  0  3  0  0  0  0  0  0
  190.9810  176.4930  137.8120 N   0  0  0  0  0  2  0  0  0  0  0  0
  189.4530  177.1630  139.5800 C   0  0  0  0  0  0  0  0  0  0  0  0
  189.9680  176.6850  140.5770 O   0  0  0  0  0  0  0  0  0  0  0  0
  188.6670  178.4350  139.6920 C   0  0  0  0  0  2  0  0  0  0  0  0
  187.2720  177.9410  143.1890 C   0  0  0  0  0  0  0  0  0  0  0  0
  186.3570  178.6530  140.6360 C   0  0  0  0  0  3  0  0  0  0  0  0
  188.1670  178.0190  142.1120 C   0  0  0  0  0  3  0  0  0  0  0  0
  185.9170  178.2200  142.9760 C   0  0  0  0  0  3  0  0  0  0  0  0
  187.7130  178.3720  140.8380 C   0  0  0  0  0  0  0  0  0  0  0  0
  185.4600  178.5770  141.7040 C   0  0  0  0  0  3  0  0  0  0  0  0
  187.6980  177.5930  144.4760 O   0  0  0  0  0  0  0  0  0  0  0  0
  189.3560  177.4030  144.9030 P   0  0  1  0  0  0  0  0  0  0  0  0
  189.9490  176.2700  144.0970 O   0  0  0  0  0  0  0  0  0  0  0  0
  190.1900  178.8330  144.5580 O   0  0  0  0  0  1  0  0  0  0  0  0
  189.4780  177.0190  146.6760 C   0  0  0  0  0  2  0  0  0  0  0  0
  191.6290  177.6010  148.4930 O   0  0  0  0  0  1  0  0  0  0  0  0
  191.1970  176.6660  147.1510 P   0  0  0  0  0  0  0  0  0  0  0  0
  191.3290  175.0280  147.5500 O   0  0  0  0  0  1  0  0  0  0  0  0
  192.1240  176.9740  146.0010 O   0  0  0  0  0  0  0  0  0  0  0  0
  1 23  1  6  0  0  0
  1 24  1  0  0  0  0
  2 15  1  6  0  0  0
  5 16  1  0  0  0  0
  8  4  1  1  0  0  0
  8 14  1  0  0  0  0
  8  2  1  0  0  0  0
  9  6  2  0  0  0  0
 10 16  1  0  0  0  0
 10  3  2  0  0  0  0
 11  7  1  1  0  0  0
 11 10  1  0  0  0  0
 12  4  1  0  0  0  0
 12  9  2  0  0  0  0
 13 11  1  0  0  0  0
 13  5  1  1  0  0  0
 13  6  1  0  0  0  0
 14  2  1  0  0  0  0
 14  1  1  1  0  0  0
 16 20  1  0  0  0  0
 17 15  1  0  0  0  0
 17  7  1  0  0  0  0
 18 20  1  0  0  0  0
 20 19  2  0  0  0  0
 22 23  1  0  0  0  0
 22 21  2  0  0  0  0
 24 26  1  0  0  0  0
 24 25  2  0  0  0  0
 26 31  1  0  0  0  0
 27 33  1  0  0  0  0
 28 31  2  0  0  0  0
 28 32  1  0  0  0  0
 29 27  2  0  0  0  0
 30 27  1  0  0  0  0
 31 29  1  0  0  0  0
 32 30  2  0  0  0  0
 33 34  1  0  0  0  0
 34 35  2  6  0  0  0
 34 37  1  0  0  0  0
 36 34  1  0  0  0  0
 37 39  1  0  0  0  0
 39 40  1  0  0  0  0
 39 38  1  0  0  0  0
 41 39  2  0  0  0  0
M  END
>  <MODEL>
9

>  <REMARK>
 VINA RESULT:      -7.3      3.148      4.825
  Name = 
  10 active torsions:
  status: ('A' for Active; 'I' for Inactive)
    1  A    between atoms: P_1  and  C_37
    2  A    between atoms: P_1  and  O_40
    3  A    between atoms: C_7  and  O_40
    4  A    between atoms: C_11  and  C_24
    5  A    between atoms: C_11  and  C_39
    6  A    between atoms: C_19  and  N_32
    7  A    between atoms: C_24  and  C_29
    8  A    between atoms: C_28  and  C_39
    9  A    between atoms: P_30  and  C_37
   10  A    between atoms: N_36  and  C_39
                            x       y       z     vdW  Elec       q    Type
                         _______ _______ _______ _____ _____    ______ ____

>  <TORSDO>
F 10

$$$$
