=
 OpenBabel11062413083D

 40 43  0  0  1  0  0  0  0  0999 V2000
  188.7390  177.1270  142.2380 C   0  0  0  0  0  0  0  0  0  0  0  0
  189.7210  176.2560  142.4530 C   0  0  0  0  0  2  0  0  0  0  0  0
  184.5270  178.6470  142.5640 C   0  0  0  0  0  3  0  0  0  0  0  0
  185.5790  178.5590  143.4820 C   0  0  0  0  0  0  0  0  0  0  0  0
  186.8750  178.4210  142.9860 O   0  0  0  0  0  0  0  0  0  0  0  0
  185.3100  178.6060  144.8670 C   0  0  0  0  0  0  0  0  0  0  0  0
  186.4470  178.6260  145.8680 C   0  0  2  0  0  3  0  0  0  0  0  0
  188.3040  177.4380  144.7010 C   0  0  0  0  0  2  0  0  0  0  0  0
  183.2070  178.7400  143.0040 C   0  0  0  0  0  0  0  0  0  0  0  0
  182.9260  178.7400  144.3700 C   0  0  0  0  0  3  0  0  0  0  0  0
  187.6940  177.3020  143.3090 C   0  0  2  0  0  3  0  0  0  0  0  0
  187.2570  177.3190  145.8040 C   0  0  1  0  0  3  0  0  0  0  0  0
  182.1450  178.8210  142.0600 N   0  0  0  0  0  1  0  0  0  0  0  0
  183.9710  178.6770  145.2940 C   0  0  0  0  0  3  0  0  0  0  0  0
  186.0120  179.0180  147.2590 C   0  0  0  0  0  3  0  0  0  0  0  0
  186.0270  180.1890  147.6040 O   0  0  0  0  0  0  0  0  0  0  0  0
  187.9250  176.9240  147.1320 C   0  0  2  0  0  3  0  0  0  0  0  0
  187.0840  177.1710  148.2220 O   0  0  0  0  0  1  0  0  0  0  0  0
  189.3230  178.6510  148.0200 O   0  0  0  0  0  0  0  0  0  0  0  0
  189.2410  177.6110  147.3090 C   0  0  0  0  0  0  0  0  0  0  0  0
  191.4110  176.4530  147.3310 C   0  0  0  0  0  1  0  0  0  0  0  0
  190.3610  177.1140  146.6430 O   0  0  0  0  0  0  0  0  0  0  0  0
  188.8370  178.0160  141.0290 C   0  0  0  0  0  2  0  0  0  0  0  0
  189.7460  177.4340  139.9530 C   0  0  0  0  0  2  0  0  0  0  0  0
  189.3390  177.8970  138.5620 C   0  0  0  0  0  2  0  0  0  0  0  0
  185.7720  173.1790  137.3650 C   0  0  0  0  0  1  0  0  0  0  0  0
  187.5270  178.8930  136.6020 C   0  0  0  0  0  1  0  0  0  0  0  0
  186.5820  176.6190  136.4020 C   0  0  2  0  0  3  0  0  0  0  0  0
  189.6430  174.9310  137.4890 C   0  0  0  0  0  1  0  0  0  0  0  0
  188.3650  176.9700  137.9620 N   0  0  0  0  0  0  0  0  0  0  0  0
  185.6280  175.6300  137.0190 C   0  0  2  0  0  3  0  0  0  0  0  0
  187.7500  175.7380  135.9830 C   0  0  1  0  0  3  0  0  0  0  0  0
  186.0290  174.3060  136.3860 C   0  0  0  0  0  0  0  0  0  0  0  0
  184.1750  176.0370  136.8010 C   0  0  0  0  0  1  0  0  0  0  0  0
  189.9360  176.8850  136.0070 C   0  0  0  0  0  1  0  0  0  0  0  0
  188.9310  176.1350  136.8850 C   0  0  0  0  0  0  0  0  0  0  0  0
  187.1760  177.6300  137.3900 C   0  0  0  0  0  0  0  0  0  0  0  0
  185.2840  174.0050  135.0870 C   0  0  0  0  0  1  0  0  0  0  0  0
  187.4040  174.3700  136.1110 O   0  0  0  0  0  0  0  0  0  0  0  0
  186.1980  178.0320  138.4900 C   0  0  0  0  0  1  0  0  0  0  0  0
  1  2  2  0  0  0  0
  3  9  2  0  0  0  0
  3  4  1  0  0  0  0
  4  6  2  0  0  0  0
  5 11  1  0  0  0  0
  5  4  1  0  0  0  0
  6 14  1  0  0  0  0
  6  7  1  0  0  0  0
  7 15  1  1  0  0  0
  8 12  1  0  0  0  0
  9 10  1  0  0  0  0
 10 14  2  0  0  0  0
 11  1  1  6  0  0  0
 11  8  1  0  0  0  0
 12  7  1  0  0  0  0
 12 17  1  1  0  0  0
 13  9  1  0  0  0  0
 15 16  2  0  0  0  0
 17 20  1  0  0  0  0
 17 18  1  1  0  0  0
 20 19  2  0  0  0  0
 22 20  1  0  0  0  0
 22 21  1  0  0  0  0
 23  1  1  0  0  0  0
 24 23  1  0  0  0  0
 25 24  1  0  0  0  0
 27 37  1  0  0  0  0
 28 31  1  0  0  0  0
 28 37  1  1  0  0  0
 30 25  1  0  0  0  0
 31 34  1  6  0  0  0
 32 39  1  1  0  0  0
 32 28  1  0  0  0  0
 32 36  1  0  0  0  0
 33 31  1  0  0  0  0
 33 26  1  0  0  0  0
 35 36  1  0  0  0  0
 36 29  1  0  0  0  0
 36 30  1  0  0  0  0
 37 30  1  0  0  0  0
 37 40  1  0  0  0  0
 38 33  1  0  0  0  0
 39 33  1  0  0  0  0
M  END
>  <MODEL>
1

>  <REMARK>
 VINA RESULT:      -9.0      0.000      0.000
  Name = 
  9 active torsions:
  status: ('A' for Active; 'I' for Inactive)
    1  A    between atoms: C_3  and  C_20
    2  A    between atoms: C_3  and  C_24
    3  A    between atoms: C_7  and  C_11
    4  A    between atoms: O_10  and  C_31
    5  A    between atoms: N_16  and  C_38
    6  A    between atoms: C_19  and  C_27
    7  A    between atoms: C_19  and  C_31
    8  A    between atoms: C_20  and  C_22
    9  A    between atoms: C_22  and  C_38
                            x       y       z     vdW  Elec       q    Type
                         _______ _______ _______ _____ _____    ______ ____

>  <TORSDO>
F 9

$$$$
=
 OpenBabel11062413083D

 40 43  0  0  1  0  0  0  0  0999 V2000
  185.4510  178.6790  143.7150 C   0  0  0  0  0  0  0  0  0  0  0  0
  185.0140  178.3520  144.9270 C   0  0  0  0  0  2  0  0  0  0  0  0
  187.9480  178.3230  140.0000 C   0  0  0  0  0  3  0  0  0  0  0  0
  188.0300  177.7230  141.2600 C   0  0  0  0  0  0  0  0  0  0  0  0
  186.8910  177.7220  142.0650 O   0  0  0  0  0  0  0  0  0  0  0  0
  189.2460  177.1460  141.6870 C   0  0  0  0  0  0  0  0  0  0  0  0
  189.3180  176.3940  143.0000 C   0  0  2  0  0  3  0  0  0  0  0  0
  187.5400  177.4450  144.4000 C   0  0  0  0  0  2  0  0  0  0  0  0
  189.0690  178.3940  139.1730 C   0  0  0  0  0  0  0  0  0  0  0  0
  190.2870  177.8680  139.6030 C   0  0  0  0  0  3  0  0  0  0  0  0
  186.8720  178.3310  143.3520 C   0  0  2  0  0  3  0  0  0  0  0  0
  189.0460  177.3360  144.1870 C   0  0  1  0  0  3  0  0  0  0  0  0
  188.9740  179.0140  137.8960 N   0  0  0  0  0  1  0  0  0  0  0  0
  190.3720  177.2460  140.8500 C   0  0  0  0  0  3  0  0  0  0  0  0
  190.5680  175.5610  143.1450 C   0  0  0  0  0  3  0  0  0  0  0  0
  190.4970  174.3430  143.1810 O   0  0  0  0  0  0  0  0  0  0  0  0
  189.7400  176.9200  145.4960 C   0  0  2  0  0  3  0  0  0  0  0  0
  188.9630  177.2420  146.6130 O   0  0  0  0  0  1  0  0  0  0  0  0
  191.4760  178.4080  144.7930 O   0  0  0  0  0  0  0  0  0  0  0  0
  191.1050  177.5180  145.6060 C   0  0  0  0  0  0  0  0  0  0  0  0
  192.1010  175.6620  146.8760 C   0  0  0  0  0  1  0  0  0  0  0  0
  191.9750  177.0460  146.5890 O   0  0  0  0  0  0  0  0  0  0  0  0
  184.4510  179.2010  142.7200 C   0  0  0  0  0  2  0  0  0  0  0  0
  183.6650  178.0820  142.0480 C   0  0  0  0  0  2  0  0  0  0  0  0
  182.5870  178.6290  141.1240 C   0  0  0  0  0  2  0  0  0  0  0  0
  184.0570  175.2120  136.3710 C   0  0  0  0  0  1  0  0  0  0  0  0
  180.1660  178.4590  139.6310 C   0  0  0  0  0  1  0  0  0  0  0  0
  181.4000  177.2360  137.8750 C   0  0  2  0  0  3  0  0  0  0  0  0
  184.6440  178.7090  138.7150 C   0  0  0  0  0  1  0  0  0  0  0  0
  182.6010  177.9320  139.8270 N   0  0  0  0  0  0  0  0  0  0  0  0
  181.9390  175.8900  137.4670 C   0  0  2  0  0  3  0  0  0  0  0  0
  182.5040  178.1850  137.4320 C   0  0  1  0  0  3  0  0  0  0  0  0
  182.9280  176.2220  136.3610 C   0  0  0  0  0  0  0  0  0  0  0  0
  180.8210  174.9340  137.0670 C   0  0  0  0  0  1  0  0  0  0  0  0
  182.6960  180.2230  138.8100 C   0  0  0  0  0  1  0  0  0  0  0  0
  183.1220  178.7570  138.7190 C   0  0  0  0  0  0  0  0  0  0  0  0
  181.2810  177.4400  139.3900 C   0  0  0  0  0  0  0  0  0  0  0  0
  182.2990  176.2390  134.9690 C   0  0  0  0  0  1  0  0  0  0  0  0
  183.4510  177.4970  136.6340 O   0  0  0  0  0  0  0  0  0  0  0  0
  180.9050  176.1630  140.1340 C   0  0  0  0  0  1  0  0  0  0  0  0
  1  2  2  0  0  0  0
  3  4  1  0  0  0  0
  4  6  2  0  0  0  0
  4  5  1  0  0  0  0
  5 11  1  0  0  0  0
  6  7  1  0  0  0  0
  7 15  1  1  0  0  0
  7 12  1  0  0  0  0
  9 10  1  0  0  0  0
  9  3  2  0  0  0  0
 10 14  2  0  0  0  0
 11  1  1  1  0  0  0
 11  8  1  0  0  0  0
 12  8  1  0  0  0  0
 12 17  1  1  0  0  0
 13  9  1  0  0  0  0
 14  6  1  0  0  0  0
 15 16  2  0  0  0  0
 17 20  1  0  0  0  0
 17 18  1  1  0  0  0
 19 20  2  0  0  0  0
 20 22  1  0  0  0  0
 22 21  1  0  0  0  0
 23  1  1  0  0  0  0
 24 23  1  0  0  0  0
 25 24  1  0  0  0  0
 28 37  1  1  0  0  0
 29 36  1  0  0  0  0
 30 25  1  0  0  0  0
 31 34  1  6  0  0  0
 31 28  1  0  0  0  0
 32 39  1  1  0  0  0
 32 28  1  0  0  0  0
 32 36  1  0  0  0  0
 33 26  1  0  0  0  0
 33 39  1  0  0  0  0
 33 31  1  0  0  0  0
 36 35  1  0  0  0  0
 36 30  1  0  0  0  0
 37 27  1  0  0  0  0
 37 30  1  0  0  0  0
 37 40  1  0  0  0  0
 38 33  1  0  0  0  0
M  END
>  <MODEL>
2

>  <REMARK>
 VINA RESULT:      -8.9      2.385      5.367
  Name = 
  9 active torsions:
  status: ('A' for Active; 'I' for Inactive)
    1  A    between atoms: C_3  and  C_20
    2  A    between atoms: C_3  and  C_24
    3  A    between atoms: C_7  and  C_11
    4  A    between atoms: O_10  and  C_31
    5  A    between atoms: N_16  and  C_38
    6  A    between atoms: C_19  and  C_27
    7  A    between atoms: C_19  and  C_31
    8  A    between atoms: C_20  and  C_22
    9  A    between atoms: C_22  and  C_38
                            x       y       z     vdW  Elec       q    Type
                         _______ _______ _______ _____ _____    ______ ____

>  <TORSDO>
F 9

$$$$
=
 OpenBabel11062413083D

 40 43  0  0  1  0  0  0  0  0999 V2000
  189.0850  176.8740  142.0140 C   0  0  0  0  0  0  0  0  0  0  0  0
  190.1890  176.1420  142.1250 C   0  0  0  0  0  2  0  0  0  0  0  0
  190.0650  177.0700  146.3920 C   0  0  0  0  0  3  0  0  0  0  0  0
  188.8580  177.1090  145.6860 C   0  0  0  0  0  0  0  0  0  0  0  0
  188.8440  176.6230  144.3780 O   0  0  0  0  0  0  0  0  0  0  0  0
  187.7010  177.6350  146.2990 C   0  0  0  0  0  0  0  0  0  0  0  0
  186.3640  177.5780  145.5890 C   0  0  2  0  0  3  0  0  0  0  0  0
  186.9620  177.5940  143.1670 C   0  0  0  0  0  2  0  0  0  0  0  0
  190.1480  177.5850  147.6850 C   0  0  0  0  0  0  0  0  0  0  0  0
  189.0210  178.1480  148.2840 C   0  0  0  0  0  3  0  0  0  0  0  0
  188.4760  177.4410  143.2710 C   0  0  2  0  0  3  0  0  0  0  0  0
  186.3880  178.4290  144.3070 C   0  0  1  0  0  3  0  0  0  0  0  0
  191.3840  177.5470  148.3890 N   0  0  0  0  0  1  0  0  0  0  0  0
  187.8070  178.1700  147.5970 C   0  0  0  0  0  3  0  0  0  0  0  0
  185.1920  177.8590  146.4970 C   0  0  0  0  0  3  0  0  0  0  0  0
  185.1530  178.8870  147.1550 O   0  0  0  0  0  0  0  0  0  0  0  0
  185.0200  179.0070  143.9060 C   0  0  2  0  0  3  0  0  0  0  0  0
  183.9690  178.2690  144.4600 O   0  0  0  0  0  1  0  0  0  0  0  0
  185.6230  179.8790  141.7620 O   0  0  0  0  0  0  0  0  0  0  0  0
  184.8790  179.1030  142.4220 C   0  0  0  0  0  0  0  0  0  0  0  0
  183.2820  178.7940  140.5770 C   0  0  0  0  0  1  0  0  0  0  0  0
  183.8850  178.3590  141.7850 O   0  0  0  0  0  0  0  0  0  0  0  0
  188.6210  177.2490  140.6330 C   0  0  0  0  0  2  0  0  0  0  0  0
  189.7720  177.6880  139.7350 C   0  0  0  0  0  2  0  0  0  0  0  0
  189.2870  178.0670  138.3440 C   0  0  0  0  0  2  0  0  0  0  0  0
  185.8660  173.1610  137.5420 C   0  0  0  0  0  1  0  0  0  0  0  0
  187.4130  178.8620  136.3500 C   0  0  0  0  0  1  0  0  0  0  0  0
  186.5430  176.5490  136.3260 C   0  0  2  0  0  3  0  0  0  0  0  0
  189.6760  175.0440  137.4770 C   0  0  0  0  0  1  0  0  0  0  0  0
  188.3360  177.0690  137.8270 N   0  0  0  0  0  0  0  0  0  0  0  0
  185.6340  175.5750  137.0270 C   0  0  2  0  0  3  0  0  0  0  0  0
  187.7350  175.6810  135.9500 C   0  0  1  0  0  3  0  0  0  0  0  0
  186.0700  174.2240  136.4820 C   0  0  0  0  0  0  0  0  0  0  0  0
  184.1640  175.9170  136.8060 C   0  0  0  0  0  1  0  0  0  0  0  0
  189.8800  176.8980  135.8570 C   0  0  0  0  0  1  0  0  0  0  0  0
  188.9150  176.1790  136.8010 C   0  0  0  0  0  0  0  0  0  0  0  0
  187.1170  177.6470  137.2310 C   0  0  0  0  0  0  0  0  0  0  0  0
  185.3160  173.8080  135.2190 C   0  0  0  0  0  1  0  0  0  0  0  0
  187.4380  174.3140  136.1790 O   0  0  0  0  0  0  0  0  0  0  0  0
  186.1420  178.0920  138.3160 C   0  0  0  0  0  1  0  0  0  0  0  0
  1  2  2  0  0  0  0
  3  9  1  0  0  0  0
  4  6  1  0  0  0  0
  4  3  2  0  0  0  0
  5  4  1  0  0  0  0
  6 14  2  0  0  0  0
  7  6  1  0  0  0  0
  7 15  1  1  0  0  0
  8 11  1  0  0  0  0
  8 12  1  0  0  0  0
  9 10  2  0  0  0  0
  9 13  1  0  0  0  0
 11  1  1  6  0  0  0
 11  5  1  0  0  0  0
 12 17  1  6  0  0  0
 12  7  1  0  0  0  0
 14 10  1  0  0  0  0
 15 16  2  0  0  0  0
 17 18  1  6  0  0  0
 19 20  2  0  0  0  0
 20 17  1  0  0  0  0
 21 22  1  0  0  0  0
 22 20  1  0  0  0  0
 23  1  1  0  0  0  0
 24 23  1  0  0  0  0
 25 24  1  0  0  0  0
 27 37  1  0  0  0  0
 28 31  1  0  0  0  0
 28 37  1  1  0  0  0
 30 25  1  0  0  0  0
 31 34  1  6  0  0  0
 32 39  1  1  0  0  0
 32 28  1  0  0  0  0
 32 36  1  0  0  0  0
 33 31  1  0  0  0  0
 33 26  1  0  0  0  0
 35 36  1  0  0  0  0
 36 29  1  0  0  0  0
 36 30  1  0  0  0  0
 37 30  1  0  0  0  0
 37 40  1  0  0  0  0
 38 33  1  0  0  0  0
 39 33  1  0  0  0  0
M  END
>  <MODEL>
3

>  <REMARK>
 VINA RESULT:      -8.8      2.104      4.196
  Name = 
  9 active torsions:
  status: ('A' for Active; 'I' for Inactive)
    1  A    between atoms: C_3  and  C_20
    2  A    between atoms: C_3  and  C_24
    3  A    between atoms: C_7  and  C_11
    4  A    between atoms: O_10  and  C_31
    5  A    between atoms: N_16  and  C_38
    6  A    between atoms: C_19  and  C_27
    7  A    between atoms: C_19  and  C_31
    8  A    between atoms: C_20  and  C_22
    9  A    between atoms: C_22  and  C_38
                            x       y       z     vdW  Elec       q    Type
                         _______ _______ _______ _____ _____    ______ ____

>  <TORSDO>
F 9

$$$$
=
 OpenBabel11062413083D

 40 43  0  0  1  0  0  0  0  0999 V2000
  184.6920  178.3740  143.2840 C   0  0  0  0  0  0  0  0  0  0  0  0
  183.8970  178.7350  144.2860 C   0  0  0  0  0  2  0  0  0  0  0  0
  187.2090  177.6660  146.9350 C   0  0  0  0  0  3  0  0  0  0  0  0
  187.5170  178.0780  145.6340 C   0  0  0  0  0  0  0  0  0  0  0  0
  186.4880  178.5930  144.8450 O   0  0  0  0  0  0  0  0  0  0  0  0
  188.8390  177.9620  145.1530 C   0  0  0  0  0  0  0  0  0  0  0  0
  189.2090  178.5080  143.7900 C   0  0  2  0  0  3  0  0  0  0  0  0
  187.0840  178.3870  142.4890 C   0  0  0  0  0  2  0  0  0  0  0  0
  188.1890  177.1010  147.7510 C   0  0  0  0  0  0  0  0  0  0  0  0
  189.4880  176.9390  147.2700 C   0  0  0  0  0  3  0  0  0  0  0  0
  186.1170  178.0010  143.6040 C   0  0  2  0  0  3  0  0  0  0  0  0
  188.4600  177.7570  142.6750 C   0  0  1  0  0  3  0  0  0  0  0  0
  187.8600  176.6780  149.0690 N   0  0  0  0  0  1  0  0  0  0  0  0
  189.8100  177.3690  145.9810 C   0  0  0  0  0  3  0  0  0  0  0  0
  190.6990  178.6140  143.5720 C   0  0  0  0  0  3  0  0  0  0  0  0
  191.3030  179.6190  143.9110 O   0  0  0  0  0  0  0  0  0  0  0  0
  189.2090  177.7070  141.3320 C   0  0  2  0  0  3  0  0  0  0  0  0
  188.3390  177.8930  140.2530 O   0  0  0  0  0  1  0  0  0  0  0  0
  190.1600  175.6800  142.1770 O   0  0  0  0  0  0  0  0  0  0  0  0
  189.9800  176.4350  141.1820 C   0  0  0  0  0  0  0  0  0  0  0  0
  191.4600  176.9790  139.2940 C   0  0  0  0  0  1  0  0  0  0  0  0
  190.5330  176.1200  139.9410 O   0  0  0  0  0  0  0  0  0  0  0  0
  184.0730  178.1750  141.9270 C   0  0  0  0  0  2  0  0  0  0  0  0
  182.5520  178.2660  141.9660 C   0  0  0  0  0  2  0  0  0  0  0  0
  181.9840  178.7530  140.6410 C   0  0  0  0  0  2  0  0  0  0  0  0
  185.3550  175.3560  136.9640 C   0  0  0  0  0  1  0  0  0  0  0  0
  180.1040  177.6860  138.7850 C   0  0  0  0  0  1  0  0  0  0  0  0
  181.9870  176.6740  137.5470 C   0  0  2  0  0  3  0  0  0  0  0  0
  184.4460  179.1360  138.6820 C   0  0  0  0  0  1  0  0  0  0  0  0
  182.4800  177.9340  139.5220 N   0  0  0  0  0  0  0  0  0  0  0  0
  182.9390  175.5080  137.5030 C   0  0  2  0  0  3  0  0  0  0  0  0
  182.8740  177.8430  137.1460 C   0  0  1  0  0  3  0  0  0  0  0  0
  184.0330  175.9770  136.5570 C   0  0  0  0  0  0  0  0  0  0  0  0
  182.2350  174.2210  137.0890 C   0  0  0  0  0  1  0  0  0  0  0  0
  182.2000  180.0040  138.1310 C   0  0  0  0  0  1  0  0  0  0  0  0
  183.0050  178.7300  138.3950 C   0  0  0  0  0  0  0  0  0  0  0  0
  181.4720  177.0230  138.9490 C   0  0  0  0  0  0  0  0  0  0  0  0
  183.7600  175.6310  135.0940 C   0  0  0  0  0  1  0  0  0  0  0  0
  184.1260  177.3730  136.6790 O   0  0  0  0  0  0  0  0  0  0  0  0
  181.2850  175.7960  139.8350 C   0  0  0  0  0  1  0  0  0  0  0  0
  1  2  2  0  0  0  0
  3  9  1  0  0  0  0
  4  3  2  0  0  0  0
  5  4  1  0  0  0  0
  6  4  1  0  0  0  0
  6 14  2  0  0  0  0
  7 15  1  6  0  0  0
  7  6  1  0  0  0  0
  8 12  1  0  0  0  0
  8 11  1  0  0  0  0
  9 13  1  0  0  0  0
 10  9  2  0  0  0  0
 11  1  1  6  0  0  0
 11  5  1  0  0  0  0
 12 17  1  6  0  0  0
 12  7  1  0  0  0  0
 14 10  1  0  0  0  0
 15 16  2  0  0  0  0
 17 18  1  6  0  0  0
 20 17  1  0  0  0  0
 20 19  2  0  0  0  0
 21 22  1  0  0  0  0
 22 20  1  0  0  0  0
 23 24  1  0  0  0  0
 23  1  1  0  0  0  0
 25 24  1  0  0  0  0
 27 37  1  0  0  0  0
 28 37  1  1  0  0  0
 30 25  1  0  0  0  0
 31 34  1  6  0  0  0
 31 28  1  0  0  0  0
 32 39  1  1  0  0  0
 32 28  1  0  0  0  0
 32 36  1  0  0  0  0
 33 39  1  0  0  0  0
 33 26  1  0  0  0  0
 33 31  1  0  0  0  0
 35 36  1  0  0  0  0
 36 29  1  0  0  0  0
 36 30  1  0  0  0  0
 37 30  1  0  0  0  0
 37 40  1  0  0  0  0
 38 33  1  0  0  0  0
M  END
>  <MODEL>
4

>  <REMARK>
 VINA RESULT:      -8.8      2.905      5.748
  Name = 
  9 active torsions:
  status: ('A' for Active; 'I' for Inactive)
    1  A    between atoms: C_3  and  C_20
    2  A    between atoms: C_3  and  C_24
    3  A    between atoms: C_7  and  C_11
    4  A    between atoms: O_10  and  C_31
    5  A    between atoms: N_16  and  C_38
    6  A    between atoms: C_19  and  C_27
    7  A    between atoms: C_19  and  C_31
    8  A    between atoms: C_20  and  C_22
    9  A    between atoms: C_22  and  C_38
                            x       y       z     vdW  Elec       q    Type
                         _______ _______ _______ _____ _____    ______ ____

>  <TORSDO>
F 9

$$$$
=
 OpenBabel11062413083D

 40 43  0  0  1  0  0  0  0  0999 V2000
  185.1520  178.6650  143.4670 C   0  0  0  0  0  0  0  0  0  0  0  0
  184.8680  179.4240  144.5200 C   0  0  0  0  0  2  0  0  0  0  0  0
  187.8580  178.3350  139.8990 C   0  0  0  0  0  3  0  0  0  0  0  0
  187.8850  177.7480  141.1680 C   0  0  0  0  0  0  0  0  0  0  0  0
  186.7030  177.7270  141.9090 O   0  0  0  0  0  0  0  0  0  0  0  0
  189.0870  177.2040  141.6680 C   0  0  0  0  0  0  0  0  0  0  0  0
  189.1040  176.4660  142.9900 C   0  0  2  0  0  3  0  0  0  0  0  0
  187.2270  177.4870  144.2780 C   0  0  0  0  0  2  0  0  0  0  0  0
  189.0210  178.4250  139.1340 C   0  0  0  0  0  0  0  0  0  0  0  0
  190.2250  177.9320  139.6370 C   0  0  0  0  0  3  0  0  0  0  0  0
  186.5980  178.3470  143.1870 C   0  0  2  0  0  3  0  0  0  0  0  0
  188.7460  177.4110  144.1500 C   0  0  1  0  0  3  0  0  0  0  0  0
  188.9830  179.0310  137.8480 N   0  0  0  0  0  1  0  0  0  0  0  0
  190.2560  177.3230  140.8930 C   0  0  0  0  0  3  0  0  0  0  0  0
  190.3630  175.6640  143.2120 C   0  0  0  0  0  3  0  0  0  0  0  0
  190.3240  174.4440  143.2210 O   0  0  0  0  0  0  0  0  0  0  0  0
  189.3750  177.0240  145.4990 C   0  0  2  0  0  3  0  0  0  0  0  0
  188.5320  177.3420  146.5690 O   0  0  0  0  0  1  0  0  0  0  0  0
  191.5970  177.0830  146.3840 O   0  0  0  0  0  0  0  0  0  0  0  0
  190.7200  177.6520  145.6770 C   0  0  0  0  0  0  0  0  0  0  0  0
  191.8210  179.0280  143.9620 C   0  0  0  0  0  1  0  0  0  0  0  0
  190.9720  178.8920  145.0910 O   0  0  0  0  0  0  0  0  0  0  0  0
  184.0090  178.0160  142.7340 C   0  0  0  0  0  2  0  0  0  0  0  0
  183.1170  179.0350  142.0350 C   0  0  0  0  0  2  0  0  0  0  0  0
  181.7410  178.4620  141.7310 C   0  0  0  0  0  2  0  0  0  0  0  0
  180.4220  181.6400  136.7720 C   0  0  0  0  0  1  0  0  0  0  0  0
  181.1110  176.4710  139.7920 C   0  0  0  0  0  1  0  0  0  0  0  0
  180.5010  178.2760  138.2190 C   0  0  2  0  0  3  0  0  0  0  0  0
  179.6640  180.6850  140.8440 C   0  0  0  0  0  1  0  0  0  0  0  0
  181.2750  178.8900  140.4010 N   0  0  0  0  0  0  0  0  0  0  0  0
  181.0450  179.2870  137.2450 C   0  0  2  0  0  3  0  0  0  0  0  0
  179.3860  179.0460  138.9110 C   0  0  1  0  0  3  0  0  0  0  0  0
  179.8850  180.2500  137.0460 C   0  0  0  0  0  0  0  0  0  0  0  0
  181.5580  178.6230  135.9710 C   0  0  0  0  0  1  0  0  0  0  0  0
  178.9740  178.3470  141.2420 C   0  0  0  0  0  1  0  0  0  0  0  0
  179.8440  179.2500  140.3650 C   0  0  0  0  0  0  0  0  0  0  0  0
  181.4740  177.8860  139.3390 C   0  0  0  0  0  0  0  0  0  0  0  0
  178.9540  179.8510  135.9020 C   0  0  0  0  0  1  0  0  0  0  0  0
  179.1460  180.2710  138.2400 O   0  0  0  0  0  0  0  0  0  0  0  0
  182.9290  177.8630  138.8820 C   0  0  0  0  0  1  0  0  0  0  0  0
  1  2  2  0  0  0  0
  3  4  1  0  0  0  0
  4  6  2  0  0  0  0
  4  5  1  0  0  0  0
  5 11  1  0  0  0  0
  6  7  1  0  0  0  0
  7 15  1  1  0  0  0
  7 12  1  0  0  0  0
  9 10  1  0  0  0  0
  9  3  2  0  0  0  0
 10 14  2  0  0  0  0
 11  1  1  1  0  0  0
 11  8  1  0  0  0  0
 12  8  1  0  0  0  0
 12 17  1  1  0  0  0
 13  9  1  0  0  0  0
 14  6  1  0  0  0  0
 15 16  2  0  0  0  0
 17 20  1  0  0  0  0
 17 18  1  1  0  0  0
 20 19  2  0  0  0  0
 21 22  1  0  0  0  0
 22 20  1  0  0  0  0
 23  1  1  0  0  0  0
 24 23  1  0  0  0  0
 25 24  1  0  0  0  0
 26 33  1  0  0  0  0
 28 32  1  0  0  0  0
 28 37  1  1  0  0  0
 30 25  1  0  0  0  0
 31 34  1  6  0  0  0
 31 28  1  0  0  0  0
 32 39  1  6  0  0  0
 32 36  1  0  0  0  0
 33 31  1  0  0  0  0
 33 39  1  0  0  0  0
 36 30  1  0  0  0  0
 36 29  1  0  0  0  0
 36 35  1  0  0  0  0
 37 27  1  0  0  0  0
 37 30  1  0  0  0  0
 38 33  1  0  0  0  0
 40 37  1  0  0  0  0
M  END
>  <MODEL>
5

>  <REMARK>
 VINA RESULT:      -8.1      3.467      6.713
  Name = 
  9 active torsions:
  status: ('A' for Active; 'I' for Inactive)
    1  A    between atoms: C_3  and  C_20
    2  A    between atoms: C_3  and  C_24
    3  A    between atoms: C_7  and  C_11
    4  A    between atoms: O_10  and  C_31
    5  A    between atoms: N_16  and  C_38
    6  A    between atoms: C_19  and  C_27
    7  A    between atoms: C_19  and  C_31
    8  A    between atoms: C_20  and  C_22
    9  A    between atoms: C_22  and  C_38
                            x       y       z     vdW  Elec       q    Type
                         _______ _______ _______ _____ _____    ______ ____

>  <TORSDO>
F 9

$$$$
=
 OpenBabel11062413083D

 40 43  0  0  1  0  0  0  0  0999 V2000
  187.4530  177.4140  137.2940 C   0  0  0  0  0  0  0  0  0  0  0  0
  187.4160  178.6710  136.8660 C   0  0  0  0  0  2  0  0  0  0  0  0
  188.0460  177.8660  141.7220 C   0  0  0  0  0  3  0  0  0  0  0  0
  188.9380  177.7280  140.6530 C   0  0  0  0  0  0  0  0  0  0  0  0
  188.4760  178.0140  139.3680 O   0  0  0  0  0  0  0  0  0  0  0  0
  190.2630  177.3050  140.8920 C   0  0  0  0  0  0  0  0  0  0  0  0
  191.2700  177.2610  139.7610 C   0  0  2  0  0  3  0  0  0  0  0  0
  189.8790  176.8830  137.7250 C   0  0  0  0  0  2  0  0  0  0  0  0
  188.4410  177.5490  143.0210 C   0  0  0  0  0  0  0  0  0  0  0  0
  189.7350  177.0870  143.2630 C   0  0  0  0  0  3  0  0  0  0  0  0
  188.4860  177.0430  138.3260 C   0  0  2  0  0  3  0  0  0  0  0  0
  190.8560  176.2290  138.6980 C   0  0  1  0  0  3  0  0  0  0  0  0
  187.5220  177.6860  144.0980 N   0  0  0  0  0  1  0  0  0  0  0  0
  190.6390  176.9680  142.2060 C   0  0  0  0  0  3  0  0  0  0  0  0
  192.6970  177.1240  140.2350 C   0  0  0  0  0  3  0  0  0  0  0  0
  193.5550  177.8980  139.8430 O   0  0  0  0  0  0  0  0  0  0  0  0
  192.0340  175.6040  137.9310 C   0  0  2  0  0  3  0  0  0  0  0  0
  192.5140  176.4650  136.9390 O   0  0  0  0  0  1  0  0  0  0  0  0
  192.4850  173.6570  136.6160 O   0  0  0  0  0  0  0  0  0  0  0  0
  191.6670  174.2760  137.3500 C   0  0  0  0  0  0  0  0  0  0  0  0
  189.5450  173.3330  136.5390 C   0  0  0  0  0  1  0  0  0  0  0  0
  190.3950  173.7580  137.5930 O   0  0  0  0  0  0  0  0  0  0  0  0
  186.3470  176.4890  136.8670 C   0  0  0  0  0  2  0  0  0  0  0  0
  185.0590  177.2370  136.5440 C   0  0  0  0  0  2  0  0  0  0  0  0
  183.9370  176.8630  137.5010 C   0  0  0  0  0  2  0  0  0  0  0  0
  181.5560  182.3880  137.9710 C   0  0  0  0  0  1  0  0  0  0  0  0
  181.1400  176.3810  137.7550 C   0  0  0  0  0  1  0  0  0  0  0  0
  180.8110  178.8040  138.1030 C   0  0  2  0  0  3  0  0  0  0  0  0
  184.1790  179.3730  139.4190 C   0  0  0  0  0  1  0  0  0  0  0  0
  183.0390  178.0060  137.7320 N   0  0  0  0  0  0  0  0  0  0  0  0
  180.6850  180.1350  137.4100 C   0  0  2  0  0  3  0  0  0  0  0  0
  181.6410  179.1460  139.3320 C   0  0  1  0  0  3  0  0  0  0  0  0
  180.9010  181.1420  138.5300 C   0  0  0  0  0  0  0  0  0  0  0  0
  179.3570  180.2640  136.6730 C   0  0  0  0  0  1  0  0  0  0  0  0
  183.0590  177.2930  140.1370 C   0  0  0  0  0  1  0  0  0  0  0  0
  182.9990  178.4510  139.1390 C   0  0  0  0  0  0  0  0  0  0  0  0
  181.6380  177.7650  137.3370 C   0  0  0  0  0  0  0  0  0  0  0  0
  179.6090  181.5450  139.2400 C   0  0  0  0  0  1  0  0  0  0  0  0
  181.7640  180.5510  139.4670 O   0  0  0  0  0  0  0  0  0  0  0  0
  181.4760  177.8740  135.8240 C   0  0  0  0  0  1  0  0  0  0  0  0
  2  1  2  0  0  0  0
  3  9  1  0  0  0  0
  4  6  1  0  0  0  0
  4  3  2  0  0  0  0
  5  4  1  0  0  0  0
  6 14  2  0  0  0  0
  7 15  1  1  0  0  0
  7  6  1  0  0  0  0
  8 11  1  0  0  0  0
  8 12  1  0  0  0  0
  9 10  2  0  0  0  0
  9 13  1  0  0  0  0
 11  1  1  6  0  0  0
 11  5  1  0  0  0  0
 12 17  1  6  0  0  0
 12  7  1  0  0  0  0
 14 10  1  0  0  0  0
 16 15  2  0  0  0  0
 17 18  1  6  0  0  0
 19 20  2  0  0  0  0
 20 22  1  0  0  0  0
 20 17  1  0  0  0  0
 21 22  1  0  0  0  0
 23  1  1  0  0  0  0
 24 23  1  0  0  0  0
 24 25  1  0  0  0  0
 25 30  1  0  0  0  0
 26 33  1  0  0  0  0
 28 37  1  6  0  0  0
 28 32  1  0  0  0  0
 30 36  1  0  0  0  0
 31 34  1  1  0  0  0
 31 28  1  0  0  0  0
 31 33  1  0  0  0  0
 32 39  1  6  0  0  0
 33 38  1  0  0  0  0
 33 39  1  0  0  0  0
 36 32  1  0  0  0  0
 36 29  1  0  0  0  0
 36 35  1  0  0  0  0
 37 30  1  0  0  0  0
 37 27  1  0  0  0  0
 40 37  1  0  0  0  0
M  END
>  <MODEL>
6

>  <REMARK>
 VINA RESULT:      -7.9      3.927      7.853
  Name = 
  9 active torsions:
  status: ('A' for Active; 'I' for Inactive)
    1  A    between atoms: C_3  and  C_20
    2  A    between atoms: C_3  and  C_24
    3  A    between atoms: C_7  and  C_11
    4  A    between atoms: O_10  and  C_31
    5  A    between atoms: N_16  and  C_38
    6  A    between atoms: C_19  and  C_27
    7  A    between atoms: C_19  and  C_31
    8  A    between atoms: C_20  and  C_22
    9  A    between atoms: C_22  and  C_38
                            x       y       z     vdW  Elec       q    Type
                         _______ _______ _______ _____ _____    ______ ____

>  <TORSDO>
F 9

$$$$
=
 OpenBabel11062413083D

 40 43  0  0  1  0  0  0  0  0999 V2000
  188.1040  178.1500  140.5220 C   0  0  0  0  0  0  0  0  0  0  0  0
  188.9150  177.5020  141.3520 C   0  0  0  0  0  2  0  0  0  0  0  0
  185.9430  178.5480  144.4380 C   0  0  0  0  0  3  0  0  0  0  0  0
  185.5120  178.2450  143.1420 C   0  0  0  0  0  0  0  0  0  0  0  0
  186.4600  177.7990  142.2210 O   0  0  0  0  0  0  0  0  0  0  0  0
  184.1520  178.3990  142.7980 C   0  0  0  0  0  0  0  0  0  0  0  0
  183.6520  177.9670  141.4350 C   0  0  2  0  0  3  0  0  0  0  0  0
  185.6480  178.2000  139.9560 C   0  0  0  0  0  2  0  0  0  0  0  0
  185.0470  179.0410  145.3870 C   0  0  0  0  0  0  0  0  0  0  0  0
  183.7100  179.2410  145.0440 C   0  0  0  0  0  3  0  0  0  0  0  0
  186.7170  178.4930  141.0040 C   0  0  2  0  0  3  0  0  0  0  0  0
  184.2990  178.8110  140.3220 C   0  0  1  0  0  3  0  0  0  0  0  0
  185.4990  179.3530  146.6990 N   0  0  0  0  0  1  0  0  0  0  0  0
  183.2660  178.9190  143.7600 C   0  0  0  0  0  3  0  0  0  0  0  0
  182.1480  177.8790  141.3500 C   0  0  0  0  0  3  0  0  0  0  0  0
  181.6180  177.1230  140.5500 O   0  0  0  0  0  0  0  0  0  0  0  0
  183.4280  178.9710  139.0640 C   0  0  2  0  0  3  0  0  0  0  0  0
  183.9660  178.2760  137.9760 O   0  0  0  0  0  1  0  0  0  0  0  0
  184.1940  181.2110  138.7180 O   0  0  0  0  0  0  0  0  0  0  0  0
  183.2180  180.4120  138.7230 C   0  0  0  0  0  0  0  0  0  0  0  0
  181.6280  182.2460  138.3260 C   0  0  0  0  0  1  0  0  0  0  0  0
  181.9260  180.8640  138.4570 O   0  0  0  0  0  0  0  0  0  0  0  0
  188.6790  178.6670  139.2320 C   0  0  0  0  0  2  0  0  0  0  0  0
  189.8310  177.8080  138.7270 C   0  0  0  0  0  2  0  0  0  0  0  0
  189.7950  177.6530  137.2130 C   0  0  0  0  0  2  0  0  0  0  0  0
  187.5920  172.0340  137.2160 C   0  0  0  0  0  1  0  0  0  0  0  0
  188.4470  177.4490  134.7120 C   0  0  0  0  0  1  0  0  0  0  0  0
  188.0120  175.0670  135.2050 C   0  0  2  0  0  3  0  0  0  0  0  0
  190.9040  174.6910  137.4170 C   0  0  0  0  0  1  0  0  0  0  0  0
  189.2050  176.3600  136.8300 N   0  0  0  0  0  0  0  0  0  0  0  0
  187.1170  174.1140  135.9520 C   0  0  2  0  0  3  0  0  0  0  0  0
  189.3870  174.4410  135.3820 C   0  0  1  0  0  3  0  0  0  0  0  0
  187.9040  172.8130  135.9540 C   0  0  0  0  0  0  0  0  0  0  0  0
  185.7320  174.0300  135.3190 C   0  0  0  0  0  1  0  0  0  0  0  0
  191.2420  176.0690  135.3950 C   0  0  0  0  0  1  0  0  0  0  0  0
  190.1850  175.4030  136.2780 C   0  0  0  0  0  0  0  0  0  0  0  0
  188.1220  176.4610  135.8340 C   0  0  0  0  0  0  0  0  0  0  0  0
  187.6120  171.9240  134.7450 C   0  0  0  0  0  1  0  0  0  0  0  0
  189.2680  173.1470  135.9460 O   0  0  0  0  0  0  0  0  0  0  0  0
  186.8240  176.9210  136.4900 C   0  0  0  0  0  1  0  0  0  0  0  0
  1  2  2  0  0  0  0
  3  9  1  0  0  0  0
  4  3  2  0  0  0  0
  5  4  1  0  0  0  0
  6  4  1  0  0  0  0
  6 14  2  0  0  0  0
  7 15  1  1  0  0  0
  7  6  1  0  0  0  0
  8 12  1  0  0  0  0
  8 11  1  0  0  0  0
  9 13  1  0  0  0  0
 10  9  2  0  0  0  0
 11  1  1  6  0  0  0
 11  5  1  0  0  0  0
 12 17  1  6  0  0  0
 12  7  1  0  0  0  0
 14 10  1  0  0  0  0
 16 15  2  0  0  0  0
 17 18  1  6  0  0  0
 19 20  2  0  0  0  0
 20 17  1  0  0  0  0
 21 22  1  0  0  0  0
 22 20  1  0  0  0  0
 23  1  1  0  0  0  0
 24 23  1  0  0  0  0
 25 24  1  0  0  0  0
 27 37  1  0  0  0  0
 28 32  1  0  0  0  0
 28 37  1  1  0  0  0
 28 31  1  0  0  0  0
 30 25  1  0  0  0  0
 31 34  1  6  0  0  0
 31 33  1  0  0  0  0
 32 39  1  1  0  0  0
 32 36  1  0  0  0  0
 33 26  1  0  0  0  0
 35 36  1  0  0  0  0
 36 30  1  0  0  0  0
 36 29  1  0  0  0  0
 37 40  1  0  0  0  0
 37 30  1  0  0  0  0
 38 33  1  0  0  0  0
 39 33  1  0  0  0  0
M  END
>  <MODEL>
7

>  <REMARK>
 VINA RESULT:      -7.8      2.886      5.460
  Name = 
  9 active torsions:
  status: ('A' for Active; 'I' for Inactive)
    1  A    between atoms: C_3  and  C_20
    2  A    between atoms: C_3  and  C_24
    3  A    between atoms: C_7  and  C_11
    4  A    between atoms: O_10  and  C_31
    5  A    between atoms: N_16  and  C_38
    6  A    between atoms: C_19  and  C_27
    7  A    between atoms: C_19  and  C_31
    8  A    between atoms: C_20  and  C_22
    9  A    between atoms: C_22  and  C_38
                            x       y       z     vdW  Elec       q    Type
                         _______ _______ _______ _____ _____    ______ ____

>  <TORSDO>
F 9

$$$$
=
 OpenBabel11062413083D

 40 43  0  0  1  0  0  0  0  0999 V2000
  186.5580  178.2280  137.8820 C   0  0  0  0  0  0  0  0  0  0  0  0
  186.7620  178.5230  136.6020 C   0  0  0  0  0  2  0  0  0  0  0  0
  187.7660  177.6890  142.1730 C   0  0  0  0  0  3  0  0  0  0  0  0
  188.4950  177.7360  140.9800 C   0  0  0  0  0  0  0  0  0  0  0  0
  187.8930  178.3150  139.8630 O   0  0  0  0  0  0  0  0  0  0  0  0
  189.8000  177.2010  140.9310 C   0  0  0  0  0  0  0  0  0  0  0  0
  190.6420  177.3480  139.6800 C   0  0  2  0  0  3  0  0  0  0  0  0
  188.9680  177.4890  137.8350 C   0  0  0  0  0  2  0  0  0  0  0  0
  188.3020  177.0800  143.3080 C   0  0  0  0  0  0  0  0  0  0  0  0
  189.5730  176.5080  143.2580 C   0  0  0  0  0  3  0  0  0  0  0  0
  187.6850  177.5900  138.6540 C   0  0  2  0  0  3  0  0  0  0  0  0
  190.0070  176.5910  138.5000 C   0  0  1  0  0  3  0  0  0  0  0  0
  187.5470  177.0320  144.5130 N   0  0  0  0  0  1  0  0  0  0  0  0
  190.3170  176.5720  142.0780 C   0  0  0  0  0  3  0  0  0  0  0  0
  192.1020  177.0360  139.9010 C   0  0  0  0  0  3  0  0  0  0  0  0
  192.8480  177.8790  140.3730 O   0  0  0  0  0  0  0  0  0  0  0  0
  191.0170  176.0830  137.4570 C   0  0  2  0  0  3  0  0  0  0  0  0
  190.6590  176.4750  136.1630 O   0  0  0  0  0  1  0  0  0  0  0  0
  190.1770  173.8470  137.5930 O   0  0  0  0  0  0  0  0  0  0  0  0
  191.1880  174.6000  137.5360 C   0  0  0  0  0  0  0  0  0  0  0  0
  193.6300  174.8820  137.4560 C   0  0  0  0  0  1  0  0  0  0  0  0
  192.4750  174.0670  137.5910 O   0  0  0  0  0  0  0  0  0  0  0  0
  185.2920  178.7190  138.5270 C   0  0  0  0  0  2  0  0  0  0  0  0
  184.2760  177.6020  138.7330 C   0  0  0  0  0  2  0  0  0  0  0  0
  183.2870  177.5210  137.5790 C   0  0  0  0  0  2  0  0  0  0  0  0
  183.4530  171.5180  136.9780 C   0  0  0  0  0  1  0  0  0  0  0  0
  180.6590  176.8500  136.7080 C   0  0  0  0  0  1  0  0  0  0  0  0
  181.4000  174.5070  136.4580 C   0  0  2  0  0  3  0  0  0  0  0  0
  184.9180  175.3660  135.9240 C   0  0  0  0  0  1  0  0  0  0  0  0
  182.9900  176.1200  137.2380 N   0  0  0  0  0  0  0  0  0  0  0  0
  181.6620  173.2200  137.1940 C   0  0  2  0  0  3  0  0  0  0  0  0
  182.5460  174.5580  135.4570 C   0  0  1  0  0  3  0  0  0  0  0  0
  182.4980  172.4120  136.2130 C   0  0  0  0  0  0  0  0  0  0  0  0
  180.3660  172.5520  137.6390 C   0  0  0  0  0  1  0  0  0  0  0  0
  183.2540  176.8430  134.8500 C   0  0  0  0  0  1  0  0  0  0  0  0
  183.4400  175.7320  135.8870 C   0  0  0  0  0  0  0  0  0  0  0  0
  181.5590  175.7710  137.3120 C   0  0  0  0  0  0  0  0  0  0  0  0
  181.6620  171.5450  135.2730 C   0  0  0  0  0  1  0  0  0  0  0  0
  183.2400  173.3230  135.4430 O   0  0  0  0  0  0  0  0  0  0  0  0
  181.1240  175.5680  138.7600 C   0  0  0  0  0  1  0  0  0  0  0  0
  1 23  1  0  0  0  0
  2  1  2  0  0  0  0
  3  9  1  0  0  0  0
  4  3  2  0  0  0  0
  5  4  1  0  0  0  0
  6  4  1  0  0  0  0
  6 14  2  0  0  0  0
  7 15  1  1  0  0  0
  7  6  1  0  0  0  0
  8 12  1  0  0  0  0
  8 11  1  0  0  0  0
  9 13  1  0  0  0  0
 10  9  2  0  0  0  0
 11  1  1  6  0  0  0
 11  5  1  0  0  0  0
 12 17  1  6  0  0  0
 12  7  1  0  0  0  0
 14 10  1  0  0  0  0
 15 16  2  0  0  0  0
 17 18  1  6  0  0  0
 17 20  1  0  0  0  0
 20 22  1  0  0  0  0
 20 19  2  0  0  0  0
 21 22  1  0  0  0  0
 23 24  1  0  0  0  0
 25 24  1  0  0  0  0
 27 37  1  0  0  0  0
 28 31  1  0  0  0  0
 28 37  1  1  0  0  0
 30 37  1  0  0  0  0
 30 25  1  0  0  0  0
 31 34  1  6  0  0  0
 32 39  1  1  0  0  0
 32 36  1  0  0  0  0
 32 28  1  0  0  0  0
 33 26  1  0  0  0  0
 33 31  1  0  0  0  0
 35 36  1  0  0  0  0
 36 29  1  0  0  0  0
 36 30  1  0  0  0  0
 37 40  1  0  0  0  0
 38 33  1  0  0  0  0
 39 33  1  0  0  0  0
M  END
>  <MODEL>
8

>  <REMARK>
 VINA RESULT:      -7.6      3.825      6.934
  Name = 
  9 active torsions:
  status: ('A' for Active; 'I' for Inactive)
    1  A    between atoms: C_3  and  C_20
    2  A    between atoms: C_3  and  C_24
    3  A    between atoms: C_7  and  C_11
    4  A    between atoms: O_10  and  C_31
    5  A    between atoms: N_16  and  C_38
    6  A    between atoms: C_19  and  C_27
    7  A    between atoms: C_19  and  C_31
    8  A    between atoms: C_20  and  C_22
    9  A    between atoms: C_22  and  C_38
                            x       y       z     vdW  Elec       q    Type
                         _______ _______ _______ _____ _____    ______ ____

>  <TORSDO>
F 9

$$$$
=
 OpenBabel11062413083D

 40 43  0  0  1  0  0  0  0  0999 V2000
  186.9270  178.0920  137.7170 C   0  0  0  0  0  0  0  0  0  0  0  0
  187.2580  178.9970  136.8010 C   0  0  0  0  0  2  0  0  0  0  0  0
  187.9720  177.5680  142.0520 C   0  0  0  0  0  3  0  0  0  0  0  0
  188.7460  177.6250  140.8890 C   0  0  0  0  0  0  0  0  0  0  0  0
  188.1810  178.1960  139.7480 O   0  0  0  0  0  0  0  0  0  0  0  0
  190.0590  177.1070  140.8910 C   0  0  0  0  0  0  0  0  0  0  0  0
  190.9480  177.2640  139.6750 C   0  0  2  0  0  3  0  0  0  0  0  0
  189.3460  177.3840  137.7660 C   0  0  0  0  0  2  0  0  0  0  0  0
  188.4700  176.9670  143.2080 C   0  0  0  0  0  0  0  0  0  0  0  0
  189.7490  176.4110  143.2080 C   0  0  0  0  0  3  0  0  0  0  0  0
  188.0300  177.4690  138.5330 C   0  0  2  0  0  3  0  0  0  0  0  0
  190.3690  176.4990  138.4710 C   0  0  1  0  0  3  0  0  0  0  0  0
  187.6690  176.9080  144.3820 N   0  0  0  0  0  1  0  0  0  0  0  0
  190.5380  176.4840  142.0590 C   0  0  0  0  0  3  0  0  0  0  0  0
  192.4020  176.9720  139.9540 C   0  0  0  0  0  3  0  0  0  0  0  0
  193.2260  177.8720  139.9410 O   0  0  0  0  0  0  0  0  0  0  0  0
  191.4270  176.0050  137.4690 C   0  0  2  0  0  3  0  0  0  0  0  0
  191.1280  176.4130  136.1650 O   0  0  0  0  0  1  0  0  0  0  0  0
  190.5810  173.7700  137.5890 O   0  0  0  0  0  0  0  0  0  0  0  0
  191.5940  174.5210  137.5370 C   0  0  0  0  0  0  0  0  0  0  0  0
  194.0320  174.7770  137.3410 C   0  0  0  0  0  1  0  0  0  0  0  0
  192.8810  173.9850  137.5880 O   0  0  0  0  0  0  0  0  0  0  0  0
  185.4670  177.8850  138.0120 C   0  0  0  0  0  2  0  0  0  0  0  0
  184.9110  178.9470  138.9530 C   0  0  0  0  0  2  0  0  0  0  0  0
  183.5020  179.3660  138.5590 C   0  0  0  0  0  2  0  0  0  0  0  0
  181.2370  173.9460  137.1730 C   0  0  0  0  0  1  0  0  0  0  0  0
  181.1210  179.2040  140.1150 C   0  0  0  0  0  1  0  0  0  0  0  0
  180.6150  177.0520  139.0140 C   0  0  2  0  0  3  0  0  0  0  0  0
  182.5070  177.8220  135.9760 C   0  0  0  0  0  1  0  0  0  0  0  0
  182.6290  178.1910  138.3980 N   0  0  0  0  0  0  0  0  0  0  0  0
  180.9110  175.5750  139.0140 C   0  0  2  0  0  3  0  0  0  0  0  0
  180.5340  177.3750  137.5290 C   0  0  1  0  0  3  0  0  0  0  0  0
  180.3960  175.1080  137.6620 C   0  0  0  0  0  0  0  0  0  0  0  0
  180.2900  174.8770  140.2190 C   0  0  0  0  0  1  0  0  0  0  0  0
  181.2100  179.6790  136.9600 C   0  0  0  0  0  1  0  0  0  0  0  0
  181.7450  178.2700  137.2180 C   0  0  0  0  0  0  0  0  0  0  0  0
  181.7510  177.9290  139.5540 C   0  0  0  0  0  0  0  0  0  0  0  0
  178.9310  174.6740  137.6880 C   0  0  0  0  0  1  0  0  0  0  0  0
  180.5310  176.1810  136.7660 O   0  0  0  0  0  0  0  0  0  0  0  0
  182.5290  177.2630  140.6840 C   0  0  0  0  0  1  0  0  0  0  0  0
  1 23  1  0  0  0  0
  2  1  2  0  0  0  0
  3  9  1  0  0  0  0
  4  6  1  0  0  0  0
  4  3  2  0  0  0  0
  5  4  1  0  0  0  0
  6 14  2  0  0  0  0
  7 15  1  1  0  0  0
  7  6  1  0  0  0  0
  8 12  1  0  0  0  0
  8 11  1  0  0  0  0
  9 13  1  0  0  0  0
 10  9  2  0  0  0  0
 11  1  1  6  0  0  0
 11  5  1  0  0  0  0
 12 17  1  6  0  0  0
 12  7  1  0  0  0  0
 14 10  1  0  0  0  0
 16 15  2  0  0  0  0
 17 18  1  6  0  0  0
 17 20  1  0  0  0  0
 20 22  1  0  0  0  0
 20 19  2  0  0  0  0
 21 22  1  0  0  0  0
 23 24  1  0  0  0  0
 25 24  1  0  0  0  0
 26 33  1  0  0  0  0
 28 31  1  0  0  0  0
 28 37  1  6  0  0  0
 29 36  1  0  0  0  0
 30 25  1  0  0  0  0
 30 37  1  0  0  0  0
 31 34  1  1  0  0  0
 32 39  1  6  0  0  0
 32 28  1  0  0  0  0
 33 38  1  0  0  0  0
 33 31  1  0  0  0  0
 35 36  1  0  0  0  0
 36 32  1  0  0  0  0
 36 30  1  0  0  0  0
 37 27  1  0  0  0  0
 37 40  1  0  0  0  0
 39 33  1  0  0  0  0
M  END
>  <MODEL>
9

>  <REMARK>
 VINA RESULT:      -7.6      3.960      7.422
  Name = 
  9 active torsions:
  status: ('A' for Active; 'I' for Inactive)
    1  A    between atoms: C_3  and  C_20
    2  A    between atoms: C_3  and  C_24
    3  A    between atoms: C_7  and  C_11
    4  A    between atoms: O_10  and  C_31
    5  A    between atoms: N_16  and  C_38
    6  A    between atoms: C_19  and  C_27
    7  A    between atoms: C_19  and  C_31
    8  A    between atoms: C_20  and  C_22
    9  A    between atoms: C_22  and  C_38
                            x       y       z     vdW  Elec       q    Type
                         _______ _______ _______ _____ _____    ______ ____

>  <TORSDO>
F 9

$$$$
