=
 OpenBabel11062418133D

 59 64  0  0  1  0  0  0  0  0999 V2000
  189.9800  176.4740  141.6640 C   0  0  2  0  0  3  0  0  0  0  0  0
  189.1770  177.1180  139.2640 C   0  0  1  0  0  0  0  0  0  0  0  0
  188.6610  177.1030  142.1270 C   0  0  1  0  0  3  0  0  0  0  0  0
  190.8800  177.5800  141.1300 C   0  0  0  0  0  2  0  0  0  0  0  0
  187.6790  177.3740  141.0000 C   0  0  0  0  0  2  0  0  0  0  0  0
  188.3210  178.0300  139.9390 O   0  0  0  0  0  0  0  0  0  0  0  0
  190.3040  176.5570  140.1640 C   0  0  1  0  0  3  0  0  0  0  0  0
  188.3870  175.9390  138.6860 C   0  0  0  0  0  1  0  0  0  0  0  0
  189.8210  177.8040  138.0540 C   0  0  0  0  0  2  0  0  0  0  0  0
  189.1260  177.5040  136.7220 C   0  0  1  0  0  3  0  0  0  0  0  0
  188.1870  178.6360  136.2710 C   0  0  2  0  0  3  0  0  0  0  0  0
  188.2640  179.7390  137.1310 O   0  0  0  0  0  1  0  0  0  0  0  0
  186.7200  178.1770  136.1760 C   0  0  2  0  0  3  0  0  0  0  0  0
  186.0510  177.9980  137.5070 C   0  0  0  0  0  3  0  0  0  0  0  0
  185.6120  179.0120  138.1520 N   0  0  0  0  0  2  0  0  0  0  0  0
  186.5620  176.9120  135.3210 C   0  0  0  0  0  2  0  0  0  0  0  0
  185.7530  175.8040  135.9980 C   0  0  0  0  0  2  0  0  0  0  0  0
  186.1610  174.4530  135.5180 C   0  0  0  0  0  0  0  0  0  0  0  0
  185.5140  173.8850  134.5980 O   0  0  0  0  0  0  0  0  0  0  0  0
  187.2560  173.8190  136.0880 O   0  0  0  0  0  1  0  0  0  0  0  0
  190.4150  177.2620  135.4550 S   0  0  0  0  0  0  0  0  0  0  0  0
  192.3620  175.9290  136.9390 N   0  0  0  0  0  2  0  0  0  0  0  0
  191.1110  175.8220  136.2560 C   0  0  0  0  0  0  0  0  0  0  0  0
  190.4950  174.7260  136.2140 O   0  0  0  0  0  0  0  0  0  0  0  0
  192.9340  174.8350  137.7070 C   0  0  0  0  0  2  0  0  0  0  0  0
  196.4340  173.9230  138.8400 C   0  0  0  0  0  1  0  0  0  0  0  0
  194.9620  173.7660  136.7690 C   0  0  2  0  0  0  0  0  0  0  0  0
  196.2010  174.0740  136.2280 F   0  0  0  0  0  0  0  0  0  0  0  0
  194.4480  174.8870  137.6460 C   0  0  2  0  0  3  0  0  0  0  0  0
  195.0280  173.6610  138.3140 C   0  0  2  0  0  0  0  0  0  0  0  0
  194.9820  172.4170  137.4530 C   0  0  0  0  0  2  0  0  0  0  0  0
  188.0030  176.3280  143.2800 C   0  0  0  0  0  2  0  0  0  0  0  0
  187.1670  177.1440  144.2910 C   0  0  1  0  0  3  0  0  0  0  0  0
  187.9930  178.0630  145.1830 C   0  0  0  0  0  2  0  0  0  0  0  0
  190.9580  176.9010  147.4080 C   0  0  0  0  0  2  0  0  0  0  0  0
  191.6540  175.8400  146.5480 C   0  0  0  0  0  2  0  0  0  0  0  0
  189.5240  177.2090  146.9710 C   0  0  0  0  0  2  0  0  0  0  0  0
  190.4530  178.3810  144.8800 C   0  0  0  0  0  2  0  0  0  0  0  0
  191.8580  177.7540  144.8530 C   0  0  0  0  0  2  0  0  0  0  0  0
  191.8570  176.2390  145.0770 C   0  0  0  0  0  2  0  0  0  0  0  0
  189.3650  177.4710  145.4690 C   0  0  0  0  0  3  0  0  0  0  0  0
  186.0420  177.9250  143.6290 C   0  0  0  0  0  2  0  0  0  0  0  0
  185.3420  178.8380  144.6290 C   0  0  2  0  0  3  0  0  0  0  0  0
  184.9290  178.0580  145.8790 C   0  0  0  0  0  2  0  0  0  0  0  0
  185.4520  178.6870  147.1640 C   0  0  0  0  0  1  0  0  0  0  0  0
  184.1530  179.5370  143.9710 C   0  0  0  0  0  2  0  0  0  0  0  0
  183.0200  178.5610  143.7150 C   0  0  0  0  0  2  0  0  0  0  0  0
  181.7020  179.3040  143.7960 C   0  0  0  0  0  2  0  0  0  0  0  0
  180.6060  178.4920  143.1930 C   0  0  0  0  0  0  0  0  0  0  0  0
  179.7680  177.9600  143.9050 O   0  0  0  0  0  0  0  0  0  0  0  0
  180.5500  178.3310  141.7030 C   0  0  0  0  0  2  0  0  0  0  0  0
  179.9100  180.3930  140.3860 C   0  0  0  0  0  2  0  0  0  0  0  0
  183.0610  178.4990  140.2190 O   0  0  0  0  0  0  0  0  0  0  0  0
  182.0300  179.7100  138.4790 C   0  0  2  0  0  3  0  0  0  0  0  0
  180.3780  181.3060  139.3520 N   0  0  0  0  0  2  0  0  0  0  0  0
  182.1030  179.1850  139.8910 C   0  0  0  0  0  0  0  0  0  0  0  0
  180.7390  180.4840  138.2040 C   0  0  0  0  0  2  0  0  0  0  0  0
  182.1360  178.6590  137.5710 O   0  0  0  0  0  1  0  0  0  0  0  0
  181.0690  179.5510  140.9370 C   0  0  2  0  0  3  0  0  0  0  0  0
  1  4  1  1  0  0  0
  1  3  1  0  0  0  0
  2  8  1  6  0  0  0
  2  6  1  0  0  0  0
  2  7  1  0  0  0  0
  3 32  1  1  0  0  0
  5  3  1  0  0  0  0
  6  5  1  0  0  0  0
  7  4  1  1  0  0  0
  7  1  1  0  0  0  0
  9  2  1  0  0  0  0
 10  9  1  1  0  0  0
 11 10  1  0  0  0  0
 11 12  1  1  0  0  0
 13 16  1  1  0  0  0
 13 11  1  0  0  0  0
 13 14  1  0  0  0  0
 14 15  2  0  0  0  0
 16 17  1  0  0  0  0
 18 17  1  0  0  0  0
 18 20  1  0  0  0  0
 19 18  2  0  0  0  0
 21 23  1  0  0  0  0
 21 10  1  0  0  0  0
 22 25  1  0  0  0  0
 23 22  1  0  0  0  0
 24 23  2  0  0  0  0
 27 28  1  6  0  0  0
 27 31  1  0  0  0  0
 27 29  1  0  0  0  0
 27 30  1  0  0  0  0
 29 25  1  1  0  0  0
 29 30  1  0  0  0  0
 30 26  1  1  0  0  0
 31 30  1  0  0  0  0
 33 32  1  6  0  0  0
 33 34  1  0  0  0  0
 34 41  1  0  0  0  0
 36 35  1  0  0  0  0
 37 35  1  0  0  0  0
 38 41  1  0  0  0  0
 39 38  1  0  0  0  0
 39 40  1  0  0  0  0
 40 36  1  0  0  0  0
 41 37  1  0  0  0  0
 42 33  1  0  0  0  0
 43 42  1  6  0  0  0
 43 44  1  0  0  0  0
 44 45  1  0  0  0  0
 46 43  1  0  0  0  0
 47 48  1  0  0  0  0
 47 46  1  0  0  0  0
 49 48  1  0  0  0  0
 49 50  2  0  0  0  0
 51 49  1  0  0  0  0
 52 59  1  0  0  0  0
 54 58  1  6  0  0  0
 54 56  1  0  0  0  0
 55 52  1  0  0  0  0
 56 53  2  0  0  0  0
 56 59  1  0  0  0  0
 57 54  1  0  0  0  0
 57 55  1  0  0  0  0
 59 51  1  6  0  0  0
M  END
>  <MODEL>
1

>  <REMARK>
 VINA RESULT:      -6.9      0.000      0.000
  Name = 
  25 active torsions:
  status: ('A' for Active; 'I' for Inactive)
    1  A    between atoms: C_3  and  C_25
    2  A    between atoms: C_5  and  C_42
    3  A    between atoms: C_6  and  C_19
    4  A    between atoms: C_6  and  C_31
    5  A    between atoms: C_9  and  C_19
    6  A    between atoms: C_9  and  C_54
    7  A    between atoms: C_11  and  C_27
    8  A    between atoms: C_13  and  C_25
    9  A    between atoms: C_13  and  C_28
   10  A    between atoms: C_15  and  C_28
   11  A    between atoms: C_15  and  C_59
   12  A    between atoms: C_17  and  C_37
   13  A    between atoms: C_27  and  C_38
   14  A    between atoms: C_28  and  C_41
   15  A    between atoms: C_30  and  C_37
   16  A    between atoms: C_30  and  C_38
   17  A    between atoms: C_31  and  C_37
   18  A    between atoms: C_38  and  C_48
   19  A    between atoms: C_39  and  C_48
   20  A    between atoms: C_42  and  C_59
   21  A    between atoms: N_44  and  C_57
   22  A    between atoms: C_45  and  C_57
   23  A    between atoms: C_46  and  S_55
   24  A    between atoms: C_52  and  C_54
   25  A    between atoms: S_55  and  C_59
                            x       y       z     vdW  Elec       q    Type
                         _______ _______ _______ _____ _____    ______ ____

>  <TORSDO>
F 25

$$$$
=
 OpenBabel11062418133D

 59 64  0  0  1  0  0  0  0  0999 V2000
  188.9040  176.8790  141.5690 C   0  0  2  0  0  3  0  0  0  0  0  0
  189.1000  177.4630  139.0300 C   0  0  1  0  0  0  0  0  0  0  0  0
  187.9650  178.0890  141.6350 C   0  0  1  0  0  3  0  0  0  0  0  0
  190.3150  177.3780  141.2910 C   0  0  0  0  0  2  0  0  0  0  0  0
  187.5280  178.6060  140.2740 C   0  0  0  0  0  2  0  0  0  0  0  0
  188.6370  178.7480  139.4270 O   0  0  0  0  0  0  0  0  0  0  0  0
  189.5800  176.5930  140.2180 C   0  0  1  0  0  3  0  0  0  0  0  0
  188.0160  176.6910  138.2710 C   0  0  0  0  0  1  0  0  0  0  0  0
  190.2600  177.6090  138.0390 C   0  0  0  0  0  2  0  0  0  0  0  0
  191.1070  176.3440  137.8770 C   0  0  1  0  0  3  0  0  0  0  0  0
  191.1670  175.8470  136.4220 C   0  0  2  0  0  3  0  0  0  0  0  0
  190.5250  176.7370  135.5510 O   0  0  0  0  0  1  0  0  0  0  0  0
  190.5460  174.4480  136.2550 C   0  0  2  0  0  3  0  0  0  0  0  0
  191.2260  173.6010  135.2210 C   0  0  0  0  0  3  0  0  0  0  0  0
  191.1600  172.3240  135.2850 N   0  0  0  0  0  2  0  0  0  0  0  0
  189.0360  174.5110  135.9880 C   0  0  0  0  0  2  0  0  0  0  0  0
  188.2300  173.4460  136.7310 C   0  0  0  0  0  2  0  0  0  0  0  0
  187.3990  172.6320  135.7990 C   0  0  0  0  0  0  0  0  0  0  0  0
  187.7430  172.5010  134.5940 O   0  0  0  0  0  0  0  0  0  0  0  0
  186.2440  172.0170  136.2600 O   0  0  0  0  0  1  0  0  0  0  0  0
  192.7990  176.7210  138.4450 S   0  0  0  0  0  0  0  0  0  0  0  0
  193.9610  174.3970  137.4350 N   0  0  0  0  0  2  0  0  0  0  0  0
  193.5810  175.7480  137.1630 C   0  0  0  0  0  0  0  0  0  0  0  0
  193.7920  176.2590  136.0330 O   0  0  0  0  0  0  0  0  0  0  0  0
  194.4960  173.5120  136.4130 C   0  0  0  0  0  2  0  0  0  0  0  0
  195.2060  170.1920  138.1000 C   0  0  0  0  0  1  0  0  0  0  0  0
  195.8390  171.4730  135.9920 C   0  0  2  0  0  0  0  0  0  0  0  0
  197.0380  170.8700  136.3430 F   0  0  0  0  0  0  0  0  0  0  0  0
  195.3900  172.4630  137.0460 C   0  0  2  0  0  3  0  0  0  0  0  0
  194.7100  171.1130  136.9920 C   0  0  2  0  0  0  0  0  0  0  0  0
  194.7900  170.4430  135.6370 C   0  0  0  0  0  2  0  0  0  0  0  0
  186.7660  177.8630  142.5690 C   0  0  0  0  0  2  0  0  0  0  0  0
  187.0760  177.4510  144.0260 C   0  0  1  0  0  3  0  0  0  0  0  0
  188.0260  178.3970  144.7510 C   0  0  0  0  0  2  0  0  0  0  0  0
  190.8470  176.9220  146.9760 C   0  0  0  0  0  2  0  0  0  0  0  0
  191.5440  175.9190  146.0500 C   0  0  0  0  0  2  0  0  0  0  0  0
  189.4460  177.3240  146.5120 C   0  0  0  0  0  2  0  0  0  0  0  0
  190.5060  178.6470  144.5800 C   0  0  0  0  0  2  0  0  0  0  0  0
  191.8890  177.9720  144.5510 C   0  0  0  0  0  2  0  0  0  0  0  0
  191.8260  176.4440  144.6320 C   0  0  0  0  0  2  0  0  0  0  0  0
  189.3620  177.7290  145.0360 C   0  0  0  0  0  3  0  0  0  0  0  0
  185.8190  177.2290  144.8550 C   0  0  0  0  0  2  0  0  0  0  0  0
  185.3430  178.5290  145.4930 C   0  0  2  0  0  3  0  0  0  0  0  0
  185.5800  178.5090  147.0050 C   0  0  0  0  0  2  0  0  0  0  0  0
  186.2280  179.7900  147.5160 C   0  0  0  0  0  1  0  0  0  0  0  0
  183.8790  178.7890  145.1460 C   0  0  0  0  0  2  0  0  0  0  0  0
  183.7500  179.4800  143.8010 C   0  0  0  0  0  2  0  0  0  0  0  0
  183.1060  178.5250  142.8160 C   0  0  0  0  0  2  0  0  0  0  0  0
  181.7360  178.9920  142.4580 C   0  0  0  0  0  0  0  0  0  0  0  0
  181.2890  180.0230  142.9370 O   0  0  0  0  0  0  0  0  0  0  0  0
  180.9110  178.1770  141.5060 C   0  0  0  0  0  2  0  0  0  0  0  0
  182.9480  177.3960  140.2270 C   0  0  0  0  0  2  0  0  0  0  0  0
  180.4560  179.8960  139.1900 O   0  0  0  0  0  0  0  0  0  0  0  0
  182.7390  179.8300  138.6070 C   0  0  2  0  0  3  0  0  0  0  0  0
  183.7010  177.6040  138.9970 N   0  0  0  0  0  2  0  0  0  0  0  0
  181.5180  179.3050  139.3200 C   0  0  0  0  0  0  0  0  0  0  0  0
  184.0000  179.0290  138.9300 C   0  0  0  0  0  2  0  0  0  0  0  0
  182.9480  181.1670  138.9380 O   0  0  0  0  0  1  0  0  0  0  0  0
  181.5500  178.0210  140.1240 C   0  0  2  0  0  3  0  0  0  0  0  0
  1  4  1  1  0  0  0
  1  3  1  0  0  0  0
  2  8  1  6  0  0  0
  2  6  1  0  0  0  0
  2  7  1  0  0  0  0
  3 32  1  1  0  0  0
  5  3  1  0  0  0  0
  6  5  1  0  0  0  0
  7  4  1  1  0  0  0
  7  1  1  0  0  0  0
  9  2  1  0  0  0  0
 10  9  1  6  0  0  0
 10 21  1  0  0  0  0
 11 12  1  6  0  0  0
 11 10  1  0  0  0  0
 13 14  1  6  0  0  0
 13 11  1  0  0  0  0
 14 15  2  0  0  0  0
 16 13  1  0  0  0  0
 16 17  1  0  0  0  0
 18 20  1  0  0  0  0
 18 17  1  0  0  0  0
 19 18  2  0  0  0  0
 23 22  1  0  0  0  0
 23 21  1  0  0  0  0
 24 23  2  0  0  0  0
 25 22  1  0  0  0  0
 27 28  1  1  0  0  0
 27 30  1  0  0  0  0
 27 29  1  0  0  0  0
 29 25  1  6  0  0  0
 30 29  1  0  0  0  0
 30 26  1  1  0  0  0
 31 27  1  0  0  0  0
 31 30  1  0  0  0  0
 33 32  1  6  0  0  0
 33 34  1  0  0  0  0
 33 42  1  0  0  0  0
 34 41  1  0  0  0  0
 36 35  1  0  0  0  0
 37 35  1  0  0  0  0
 38 41  1  0  0  0  0
 39 38  1  0  0  0  0
 39 40  1  0  0  0  0
 40 36  1  0  0  0  0
 41 37  1  0  0  0  0
 43 42  1  1  0  0  0
 43 44  1  0  0  0  0
 44 45  1  0  0  0  0
 46 43  1  0  0  0  0
 47 46  1  0  0  0  0
 48 47  1  0  0  0  0
 49 48  1  0  0  0  0
 49 50  2  0  0  0  0
 51 49  1  0  0  0  0
 53 56  2  0  0  0  0
 54 57  1  0  0  0  0
 54 58  1  1  0  0  0
 54 56  1  0  0  0  0
 55 52  1  0  0  0  0
 56 59  1  0  0  0  0
 57 55  1  0  0  0  0
 59 52  1  0  0  0  0
 59 51  1  1  0  0  0
M  END
>  <MODEL>
2

>  <REMARK>
 VINA RESULT:      -6.4      1.855      2.804
  Name = 
  25 active torsions:
  status: ('A' for Active; 'I' for Inactive)
    1  A    between atoms: C_3  and  C_25
    2  A    between atoms: C_5  and  C_42
    3  A    between atoms: C_6  and  C_19
    4  A    between atoms: C_6  and  C_31
    5  A    between atoms: C_9  and  C_19
    6  A    between atoms: C_9  and  C_54
    7  A    between atoms: C_11  and  C_27
    8  A    between atoms: C_13  and  C_25
    9  A    between atoms: C_13  and  C_28
   10  A    between atoms: C_15  and  C_28
   11  A    between atoms: C_15  and  C_59
   12  A    between atoms: C_17  and  C_37
   13  A    between atoms: C_27  and  C_38
   14  A    between atoms: C_28  and  C_41
   15  A    between atoms: C_30  and  C_37
   16  A    between atoms: C_30  and  C_38
   17  A    between atoms: C_31  and  C_37
   18  A    between atoms: C_38  and  C_48
   19  A    between atoms: C_39  and  C_48
   20  A    between atoms: C_42  and  C_59
   21  A    between atoms: N_44  and  C_57
   22  A    between atoms: C_45  and  C_57
   23  A    between atoms: C_46  and  S_55
   24  A    between atoms: C_52  and  C_54
   25  A    between atoms: S_55  and  C_59
                            x       y       z     vdW  Elec       q    Type
                         _______ _______ _______ _____ _____    ______ ____

>  <TORSDO>
F 25

$$$$
=
 OpenBabel11062418133D

 59 64  0  0  1  0  0  0  0  0999 V2000
  184.1290  176.8210  138.1170 C   0  0  2  0  0  3  0  0  0  0  0  0
  182.4620  176.3190  136.1700 C   0  0  1  0  0  0  0  0  0  0  0  0
  185.1550  177.0430  136.9990 C   0  0  1  0  0  3  0  0  0  0  0  0
  183.7690  175.3430  138.1530 C   0  0  0  0  0  2  0  0  0  0  0  0
  184.5430  177.1450  135.6120 C   0  0  0  0  0  2  0  0  0  0  0  0
  183.6370  176.0960  135.4000 O   0  0  0  0  0  0  0  0  0  0  0  0
  182.7280  176.3510  137.6950 C   0  0  1  0  0  3  0  0  0  0  0  0
  181.7760  177.6290  135.7700 C   0  0  0  0  0  1  0  0  0  0  0  0
  181.4330  175.2200  135.8820 C   0  0  0  0  0  2  0  0  0  0  0  0
  180.8530  174.5620  137.1370 C   0  0  1  0  0  3  0  0  0  0  0  0
  179.6410  175.3220  137.7040 C   0  0  2  0  0  3  0  0  0  0  0  0
  179.1720  176.2840  136.8000 O   0  0  0  0  0  1  0  0  0  0  0  0
  179.9550  176.0080  139.0460 C   0  0  2  0  0  3  0  0  0  0  0  0
  179.9610  175.0730  140.2200 C   0  0  0  0  0  3  0  0  0  0  0  0
  178.9310  174.9760  140.9740 N   0  0  0  0  0  2  0  0  0  0  0  0
  179.0310  177.2030  139.3170 C   0  0  0  0  0  2  0  0  0  0  0  0
  179.7220  178.5610  139.1900 C   0  0  0  0  0  2  0  0  0  0  0  0
  180.0520  179.1400  140.5230 C   0  0  0  0  0  0  0  0  0  0  0  0
  180.3710  180.3540  140.6260 O   0  0  0  0  0  0  0  0  0  0  0  0
  180.0080  178.3370  141.6550 O   0  0  0  0  0  1  0  0  0  0  0  0
  180.3390  172.8670  136.7010 S   0  0  0  0  0  0  0  0  0  0  0  0
  182.5670  172.4430  135.0810 N   0  0  0  0  0  2  0  0  0  0  0  0
  182.0080  172.3060  136.3900 C   0  0  0  0  0  0  0  0  0  0  0  0
  182.6800  171.7940  137.3230 O   0  0  0  0  0  0  0  0  0  0  0  0
  183.9510  172.1140  134.7800 C   0  0  0  0  0  2  0  0  0  0  0  0
  186.4410  172.9940  137.5000 C   0  0  0  0  0  1  0  0  0  0  0  0
  186.2820  172.9350  134.9590 C   0  0  2  0  0  0  0  0  0  0  0  0
  187.0110  174.0930  135.1830 F   0  0  0  0  0  0  0  0  0  0  0  0
  184.8850  173.0440  135.5310 C   0  0  2  0  0  3  0  0  0  0  0  0
  185.9110  172.2330  136.2910 C   0  0  2  0  0  0  0  0  0  0  0  0
  187.0380  171.7110  135.4260 C   0  0  0  0  0  2  0  0  0  0  0  0
  186.1080  178.2140  137.2880 C   0  0  0  0  0  2  0  0  0  0  0  0
  187.1660  178.0050  138.3940 C   0  0  1  0  0  3  0  0  0  0  0  0
  188.5780  178.4130  137.9890 C   0  0  0  0  0  2  0  0  0  0  0  0
  189.8200  176.3130  134.9670 C   0  0  0  0  0  2  0  0  0  0  0  0
  191.0760  175.6200  135.5070 C   0  0  0  0  0  2  0  0  0  0  0  0
  189.3800  177.5260  135.7900 C   0  0  0  0  0  2  0  0  0  0  0  0
  188.6480  175.9360  137.6730 C   0  0  0  0  0  2  0  0  0  0  0  0
  189.4610  174.6920  137.2720 C   0  0  0  0  0  2  0  0  0  0  0  0
  190.9160  175.0030  136.9070 C   0  0  0  0  0  2  0  0  0  0  0  0
  189.3080  177.2720  137.3000 C   0  0  0  0  0  3  0  0  0  0  0  0
  186.7830  178.6690  139.7080 C   0  0  0  0  0  2  0  0  0  0  0  0
  187.2430  177.8380  140.9010 C   0  0  2  0  0  3  0  0  0  0  0  0
  186.2190  177.9050  142.0360 C   0  0  0  0  0  2  0  0  0  0  0  0
  185.4360  179.2120  142.0460 C   0  0  0  0  0  1  0  0  0  0  0  0
  188.6320  178.2830  141.3560 C   0  0  0  0  0  2  0  0  0  0  0  0
  189.5830  177.1040  141.4390 C   0  0  0  0  0  2  0  0  0  0  0  0
  190.8400  177.5360  142.1680 C   0  0  0  0  0  2  0  0  0  0  0  0
  190.8830  176.9370  143.5330 C   0  0  0  0  0  0  0  0  0  0  0  0
  191.3150  175.8070  143.6990 O   0  0  0  0  0  0  0  0  0  0  0  0
  190.3840  177.7380  144.6990 C   0  0  0  0  0  2  0  0  0  0  0  0
  187.8810  177.7580  145.0610 C   0  0  0  0  0  2  0  0  0  0  0  0
  190.4760  176.4750  147.3310 O   0  0  0  0  0  0  0  0  0  0  0  0
  188.3930  177.4040  147.9250 C   0  0  2  0  0  3  0  0  0  0  0  0
  186.8410  177.4180  146.0220 N   0  0  0  0  0  2  0  0  0  0  0  0
  189.4400  176.9800  146.9250 C   0  0  0  0  0  0  0  0  0  0  0  0
  187.1920  178.0860  147.2680 C   0  0  0  0  0  2  0  0  0  0  0  0
  188.9520  178.2670  148.8660 O   0  0  0  0  0  1  0  0  0  0  0  0
  189.2090  177.0840  145.4310 C   0  0  2  0  0  3  0  0  0  0  0  0
  1  4  1  1  0  0  0
  2  8  1  6  0  0  0
  2  7  1  0  0  0  0
  3 32  1  1  0  0  0
  3  1  1  0  0  0  0
  5  3  1  0  0  0  0
  6  5  1  0  0  0  0
  6  2  1  0  0  0  0
  7  1  1  0  0  0  0
  7  4  1  6  0  0  0
  9  2  1  0  0  0  0
 10  9  1  6  0  0  0
 10 11  1  0  0  0  0
 11 12  1  6  0  0  0
 11 13  1  0  0  0  0
 13 16  1  1  0  0  0
 13 14  1  0  0  0  0
 14 15  2  0  0  0  0
 17 16  1  0  0  0  0
 17 18  1  0  0  0  0
 18 19  2  0  0  0  0
 18 20  1  0  0  0  0
 21 10  1  0  0  0  0
 22 23  1  0  0  0  0
 23 21  1  0  0  0  0
 23 24  2  0  0  0  0
 25 22  1  0  0  0  0
 27 28  1  1  0  0  0
 27 31  1  0  0  0  0
 27 29  1  0  0  0  0
 27 30  1  0  0  0  0
 29 25  1  6  0  0  0
 29 30  1  0  0  0  0
 30 26  1  1  0  0  0
 31 30  1  0  0  0  0
 33 32  1  6  0  0  0
 33 42  1  0  0  0  0
 34 33  1  0  0  0  0
 35 36  1  0  0  0  0
 35 37  1  0  0  0  0
 36 40  1  0  0  0  0
 37 41  1  0  0  0  0
 39 38  1  0  0  0  0
 40 39  1  0  0  0  0
 41 38  1  0  0  0  0
 41 34  1  0  0  0  0
 43 42  1  6  0  0  0
 43 46  1  0  0  0  0
 43 44  1  0  0  0  0
 44 45  1  0  0  0  0
 46 47  1  0  0  0  0
 47 48  1  0  0  0  0
 48 49  1  0  0  0  0
 49 50  2  0  0  0  0
 49 51  1  0  0  0  0
 52 59  1  0  0  0  0
 52 55  1  0  0  0  0
 54 58  1  1  0  0  0
 55 57  1  0  0  0  0
 56 53  2  0  0  0  0
 56 54  1  0  0  0  0
 57 54  1  0  0  0  0
 59 51  1  6  0  0  0
 59 56  1  0  0  0  0
M  END
>  <MODEL>
3

>  <REMARK>
 VINA RESULT:      -5.9      3.861      8.940
  Name = 
  25 active torsions:
  status: ('A' for Active; 'I' for Inactive)
    1  A    between atoms: C_3  and  C_25
    2  A    between atoms: C_5  and  C_42
    3  A    between atoms: C_6  and  C_19
    4  A    between atoms: C_6  and  C_31
    5  A    between atoms: C_9  and  C_19
    6  A    between atoms: C_9  and  C_54
    7  A    between atoms: C_11  and  C_27
    8  A    between atoms: C_13  and  C_25
    9  A    between atoms: C_13  and  C_28
   10  A    between atoms: C_15  and  C_28
   11  A    between atoms: C_15  and  C_59
   12  A    between atoms: C_17  and  C_37
   13  A    between atoms: C_27  and  C_38
   14  A    between atoms: C_28  and  C_41
   15  A    between atoms: C_30  and  C_37
   16  A    between atoms: C_30  and  C_38
   17  A    between atoms: C_31  and  C_37
   18  A    between atoms: C_38  and  C_48
   19  A    between atoms: C_39  and  C_48
   20  A    between atoms: C_42  and  C_59
   21  A    between atoms: N_44  and  C_57
   22  A    between atoms: C_45  and  C_57
   23  A    between atoms: C_46  and  S_55
   24  A    between atoms: C_52  and  C_54
   25  A    between atoms: S_55  and  C_59
                            x       y       z     vdW  Elec       q    Type
                         _______ _______ _______ _____ _____    ______ ____

>  <TORSDO>
F 25

$$$$
=
 OpenBabel11062418133D

 59 64  0  0  1  0  0  0  0  0999 V2000
  186.3510  178.2680  138.5000 C   0  0  2  0  0  3  0  0  0  0  0  0
  188.7130  177.2620  138.0190 C   0  0  1  0  0  0  0  0  0  0  0  0
  186.7080  178.0470  139.9750 C   0  0  1  0  0  3  0  0  0  0  0  0
  186.1770  176.9080  137.8380 C   0  0  0  0  0  2  0  0  0  0  0  0
  188.1740  177.7280  140.2130 C   0  0  0  0  0  2  0  0  0  0  0  0
  188.6060  176.7270  139.3320 O   0  0  0  0  0  0  0  0  0  0  0  0
  187.3650  177.7740  137.4560 C   0  0  1  0  0  3  0  0  0  0  0  0
  189.7270  178.4100  137.9680 C   0  0  0  0  0  1  0  0  0  0  0  0
  189.2630  176.1970  137.0640 C   0  0  0  0  0  2  0  0  0  0  0  0
  190.6890  176.4690  136.5780 C   0  0  1  0  0  3  0  0  0  0  0  0
  191.7300  175.5430  137.2310 C   0  0  2  0  0  3  0  0  0  0  0  0
  192.2670  176.1160  138.3920 O   0  0  0  0  0  1  0  0  0  0  0  0
  192.8790  175.1840  136.2720 C   0  0  2  0  0  3  0  0  0  0  0  0
  192.8290  173.7730  135.7630 C   0  0  0  0  0  3  0  0  0  0  0  0
  193.1870  172.8010  136.5150 N   0  0  0  0  0  2  0  0  0  0  0  0
  194.2570  175.4860  136.8780 C   0  0  0  0  0  2  0  0  0  0  0  0
  195.2080  174.2900  136.8820 C   0  0  0  0  0  2  0  0  0  0  0  0
  195.7930  174.0550  138.2330 C   0  0  0  0  0  0  0  0  0  0  0  0
  196.3190  172.9450  138.5120 O   0  0  0  0  0  0  0  0  0  0  0  0
  195.7560  175.0630  139.1870 O   0  0  0  0  0  1  0  0  0  0  0  0
  190.7280  176.2230  134.7710 S   0  0  0  0  0  0  0  0  0  0  0  0
  188.0790  175.3580  134.6990 N   0  0  0  0  0  2  0  0  0  0  0  0
  189.4520  174.9690  134.7890 C   0  0  0  0  0  0  0  0  0  0  0  0
  189.7690  173.7550  134.8810 O   0  0  0  0  0  0  0  0  0  0  0  0
  186.9960  174.3940  134.5940 C   0  0  0  0  0  2  0  0  0  0  0  0
  184.2620  173.3820  137.0170 C   0  0  0  0  0  1  0  0  0  0  0  0
  186.5700  172.6150  136.2640 C   0  0  2  0  0  0  0  0  0  0  0  0
  186.6100  172.3750  137.6290 F   0  0  0  0  0  0  0  0  0  0  0  0
  186.4290  174.0920  135.9680 C   0  0  2  0  0  3  0  0  0  0  0  0
  185.2060  173.2120  135.8330 C   0  0  2  0  0  0  0  0  0  0  0  0
  185.5280  171.7540  135.5850 C   0  0  0  0  0  2  0  0  0  0  0  0
  186.2180  179.1860  140.8840 C   0  0  0  0  0  2  0  0  0  0  0  0
  184.7120  179.2150  141.2270 C   0  0  1  0  0  3  0  0  0  0  0  0
  183.8050  179.4660  140.0280 C   0  0  0  0  0  2  0  0  0  0  0  0
  181.4150  176.6410  138.8470 C   0  0  0  0  0  2  0  0  0  0  0  0
  180.6620  176.2540  140.1250 C   0  0  0  0  0  2  0  0  0  0  0  0
  182.7110  177.4130  139.1020 C   0  0  0  0  0  2  0  0  0  0  0  0
  181.3140  179.4430  139.8330 C   0  0  0  0  0  2  0  0  0  0  0  0
  179.9860  178.7290  140.1380 C   0  0  0  0  0  2  0  0  0  0  0  0
  180.1560  177.4450  140.9560 C   0  0  0  0  0  2  0  0  0  0  0  0
  182.5660  178.5860  140.0770 C   0  0  0  0  0  3  0  0  0  0  0  0
  184.2570  177.9750  141.9820 C   0  0  0  0  0  2  0  0  0  0  0  0
  184.2520  178.2170  143.4870 C   0  0  2  0  0  3  0  0  0  0  0  0
  183.3400  179.3940  143.8440 C   0  0  0  0  0  2  0  0  0  0  0  0
  181.8640  179.0740  143.6500 C   0  0  0  0  0  1  0  0  0  0  0  0
  185.6760  178.4200  143.9990 C   0  0  0  0  0  2  0  0  0  0  0  0
  185.9130  177.6410  145.2800 C   0  0  0  0  0  2  0  0  0  0  0  0
  187.0970  178.2410  146.0100 C   0  0  0  0  0  2  0  0  0  0  0  0
  188.3420  177.4820  145.6970 C   0  0  0  0  0  0  0  0  0  0  0  0
  188.3280  176.5880  144.8650 O   0  0  0  0  0  0  0  0  0  0  0  0
  189.6110  177.8280  146.4190 C   0  0  0  0  0  2  0  0  0  0  0  0
  190.5440  178.8900  144.3220 C   0  0  0  0  0  2  0  0  0  0  0  0
  191.6050  175.7530  145.9240 O   0  0  0  0  0  0  0  0  0  0  0  0
  191.6840  176.2800  143.6290 C   0  0  2  0  0  3  0  0  0  0  0  0
  191.5210  178.7030  143.2580 N   0  0  0  0  0  2  0  0  0  0  0  0
  191.3620  176.5920  145.0690 C   0  0  0  0  0  0  0  0  0  0  0  0
  191.2530  177.3950  142.6740 C   0  0  0  0  0  2  0  0  0  0  0  0
  191.0700  175.0890  143.2480 O   0  0  0  0  0  1  0  0  0  0  0  0
  190.8270  177.9430  145.4960 C   0  0  2  0  0  3  0  0  0  0  0  0
  1  4  1  6  0  0  0
  1  3  1  0  0  0  0
  2  8  1  1  0  0  0
  2  6  1  0  0  0  0
  3  5  1  0  0  0  0
  3 32  1  1  0  0  0
  6  5  1  0  0  0  0
  7  4  1  1  0  0  0
  7  2  1  0  0  0  0
  7  1  1  0  0  0  0
  9  2  1  0  0  0  0
 10  9  1  1  0  0  0
 10 11  1  0  0  0  0
 11 12  1  1  0  0  0
 13 14  1  1  0  0  0
 13 16  1  0  0  0  0
 13 11  1  0  0  0  0
 14 15  2  0  0  0  0
 16 17  1  0  0  0  0
 17 18  1  0  0  0  0
 18 19  2  0  0  0  0
 18 20  1  0  0  0  0
 21 23  1  0  0  0  0
 21 10  1  0  0  0  0
 22 23  1  0  0  0  0
 23 24  2  0  0  0  0
 25 22  1  0  0  0  0
 27 28  1  1  0  0  0
 29 25  1  6  0  0  0
 29 27  1  0  0  0  0
 30 29  1  0  0  0  0
 30 27  1  0  0  0  0
 30 26  1  1  0  0  0
 31 30  1  0  0  0  0
 31 27  1  0  0  0  0
 32 33  1  0  0  0  0
 33 34  1  6  0  0  0
 33 42  1  0  0  0  0
 34 41  1  0  0  0  0
 35 37  1  0  0  0  0
 35 36  1  0  0  0  0
 36 40  1  0  0  0  0
 37 41  1  0  0  0  0
 38 41  1  0  0  0  0
 38 39  1  0  0  0  0
 39 40  1  0  0  0  0
 43 42  1  6  0  0  0
 43 44  1  0  0  0  0
 43 46  1  0  0  0  0
 45 44  1  0  0  0  0
 46 47  1  0  0  0  0
 47 48  1  0  0  0  0
 49 48  1  0  0  0  0
 49 51  1  0  0  0  0
 50 49  2  0  0  0  0
 52 59  1  0  0  0  0
 54 58  1  6  0  0  0
 54 56  1  0  0  0  0
 55 52  1  0  0  0  0
 56 59  1  0  0  0  0
 56 53  2  0  0  0  0
 57 55  1  0  0  0  0
 57 54  1  0  0  0  0
 59 51  1  6  0  0  0
M  END
>  <MODEL>
4

>  <REMARK>
 VINA RESULT:      -5.5      3.069      8.130
  Name = 
  25 active torsions:
  status: ('A' for Active; 'I' for Inactive)
    1  A    between atoms: C_3  and  C_25
    2  A    between atoms: C_5  and  C_42
    3  A    between atoms: C_6  and  C_19
    4  A    between atoms: C_6  and  C_31
    5  A    between atoms: C_9  and  C_19
    6  A    between atoms: C_9  and  C_54
    7  A    between atoms: C_11  and  C_27
    8  A    between atoms: C_13  and  C_25
    9  A    between atoms: C_13  and  C_28
   10  A    between atoms: C_15  and  C_28
   11  A    between atoms: C_15  and  C_59
   12  A    between atoms: C_17  and  C_37
   13  A    between atoms: C_27  and  C_38
   14  A    between atoms: C_28  and  C_41
   15  A    between atoms: C_30  and  C_37
   16  A    between atoms: C_30  and  C_38
   17  A    between atoms: C_31  and  C_37
   18  A    between atoms: C_38  and  C_48
   19  A    between atoms: C_39  and  C_48
   20  A    between atoms: C_42  and  C_59
   21  A    between atoms: N_44  and  C_57
   22  A    between atoms: C_45  and  C_57
   23  A    between atoms: C_46  and  S_55
   24  A    between atoms: C_52  and  C_54
   25  A    between atoms: S_55  and  C_59
                            x       y       z     vdW  Elec       q    Type
                         _______ _______ _______ _____ _____    ______ ____

>  <TORSDO>
F 25

$$$$
=
 OpenBabel11062418133D

 59 64  0  0  1  0  0  0  0  0999 V2000
  191.2430  176.7470  137.9540 C   0  0  2  0  0  3  0  0  0  0  0  0
  189.3890  177.9360  139.3580 C   0  0  1  0  0  0  0  0  0  0  0  0
  190.0930  175.8880  137.4160 C   0  0  1  0  0  3  0  0  0  0  0  0
  191.4510  176.4080  139.4230 C   0  0  0  0  0  2  0  0  0  0  0  0
  188.7130  176.4270  137.7490 C   0  0  0  0  0  2  0  0  0  0  0  0
  188.6330  176.7580  139.1100 O   0  0  0  0  0  0  0  0  0  0  0  0
  190.8970  177.7720  139.0470 C   0  0  1  0  0  3  0  0  0  0  0  0
  188.8540  179.1210  138.5480 C   0  0  0  0  0  1  0  0  0  0  0  0
  189.2410  178.3520  140.8260 C   0  0  0  0  0  2  0  0  0  0  0  0
  188.1550  177.5860  141.5860 C   0  0  1  0  0  3  0  0  0  0  0  0
  188.7280  176.6590  142.6730 C   0  0  2  0  0  3  0  0  0  0  0  0
  187.7310  175.8450  143.2280 O   0  0  0  0  0  1  0  0  0  0  0  0
  189.4220  177.4400  143.8030 C   0  0  2  0  0  3  0  0  0  0  0  0
  190.9200  177.3720  143.7580 C   0  0  0  0  0  3  0  0  0  0  0  0
  191.5060  176.4880  143.0410 N   0  0  0  0  0  2  0  0  0  0  0  0
  188.9080  177.0330  145.1910 C   0  0  0  0  0  2  0  0  0  0  0  0
  188.7310  178.2070  146.1550 C   0  0  0  0  0  2  0  0  0  0  0  0
  188.7960  177.7660  147.5780 C   0  0  0  0  0  0  0  0  0  0  0  0
  188.3570  176.6330  147.9110 O   0  0  0  0  0  0  0  0  0  0  0  0
  189.3410  178.6080  148.5380 O   0  0  0  0  0  1  0  0  0  0  0  0
  187.0470  178.8050  142.3700 S   0  0  0  0  0  0  0  0  0  0  0  0
  184.4600  178.2540  141.4900 N   0  0  0  0  0  2  0  0  0  0  0  0
  185.7820  178.6490  141.1150 C   0  0  0  0  0  0  0  0  0  0  0  0
  186.0630  178.8880  139.9120 O   0  0  0  0  0  0  0  0  0  0  0  0
  183.3550  178.2160  140.5460 C   0  0  0  0  0  2  0  0  0  0  0  0
  179.9790  179.8930  140.9410 C   0  0  0  0  0  1  0  0  0  0  0  0
  180.9780  177.5570  140.7680 C   0  0  2  0  0  0  0  0  0  0  0  0
  179.9830  177.3840  141.7180 F   0  0  0  0  0  0  0  0  0  0  0  0
  182.0480  178.5080  141.2580 C   0  0  2  0  0  3  0  0  0  0  0  0
  181.0300  179.0220  140.2640 C   0  0  2  0  0  0  0  0  0  0  0  0
  180.3930  177.9360  139.4250 C   0  0  0  0  0  2  0  0  0  0  0  0
  190.2350  175.5740  135.9180 C   0  0  0  0  0  2  0  0  0  0  0  0
  190.9980  174.2850  135.5370 C   0  0  1  0  0  3  0  0  0  0  0  0
  191.5190  173.4950  136.7320 C   0  0  0  0  0  2  0  0  0  0  0  0
  195.1150  174.9140  137.1190 C   0  0  0  0  0  2  0  0  0  0  0  0
  195.9480  173.6780  137.4800 C   0  0  0  0  0  2  0  0  0  0  0  0
  193.6110  174.7310  137.3370 C   0  0  0  0  0  2  0  0  0  0  0  0
  193.5520  173.1320  135.3250 C   0  0  0  0  0  2  0  0  0  0  0  0
  195.0460  172.7710  135.2560 C   0  0  0  0  0  2  0  0  0  0  0  0
  195.6580  172.4360  136.6190 C   0  0  0  0  0  2  0  0  0  0  0  0
  193.0390  173.4400  136.7390 C   0  0  0  0  0  3  0  0  0  0  0  0
  190.1960  173.3780  134.6160 C   0  0  0  0  0  2  0  0  0  0  0  0
  189.7600  172.1070  135.3360 C   0  0  2  0  0  3  0  0  0  0  0  0
  190.2900  170.8650  134.6140 C   0  0  0  0  0  2  0  0  0  0  0  0
  191.5750  170.3290  135.2320 C   0  0  0  0  0  1  0  0  0  0  0  0
  188.2410  172.0750  135.4890 C   0  0  0  0  0  2  0  0  0  0  0  0
  187.7860  172.9930  136.6090 C   0  0  0  0  0  2  0  0  0  0  0  0
  186.3860  173.4860  136.3030 C   0  0  0  0  0  2  0  0  0  0  0  0
  185.3870  172.7790  137.1550 C   0  0  0  0  0  0  0  0  0  0  0  0
  185.3630  172.9630  138.3620 O   0  0  0  0  0  0  0  0  0  0  0  0
  184.4150  171.8350  136.5110 C   0  0  0  0  0  2  0  0  0  0  0  0
  183.0330  173.9370  136.2610 C   0  0  0  0  0  2  0  0  0  0  0  0
  182.2060  170.5450  135.1010 O   0  0  0  0  0  0  0  0  0  0  0  0
  180.7010  172.2270  135.7810 C   0  0  2  0  0  3  0  0  0  0  0  0
  181.7620  174.4430  135.7610 N   0  0  0  0  0  2  0  0  0  0  0  0
  182.0860  171.6850  135.5260 C   0  0  0  0  0  0  0  0  0  0  0  0
  180.7200  173.6340  136.3800 C   0  0  0  0  0  2  0  0  0  0  0  0
  180.0030  171.3750  136.6340 O   0  0  0  0  0  1  0  0  0  0  0  0
  183.3250  172.5400  135.7000 C   0  0  2  0  0  3  0  0  0  0  0  0
  1  7  1  0  0  0  0
  1  4  1  1  0  0  0
  2  8  1  6  0  0  0
  2  9  1  0  0  0  0
  3 32  1  6  0  0  0
  3  5  1  0  0  0  0
  3  1  1  0  0  0  0
  5  6  1  0  0  0  0
  6  2  1  0  0  0  0
  7  2  1  0  0  0  0
  7  4  1  1  0  0  0
 10  9  1  1  0  0  0
 10 21  1  0  0  0  0
 10 11  1  0  0  0  0
 11 12  1  1  0  0  0
 11 13  1  0  0  0  0
 13 14  1  1  0  0  0
 13 16  1  0  0  0  0
 15 14  2  0  0  0  0
 16 17  1  0  0  0  0
 17 18  1  0  0  0  0
 18 19  2  0  0  0  0
 18 20  1  0  0  0  0
 23 22  1  0  0  0  0
 23 21  1  0  0  0  0
 24 23  2  0  0  0  0
 25 22  1  0  0  0  0
 27 29  1  0  0  0  0
 27 28  1  1  0  0  0
 29 25  1  6  0  0  0
 30 27  1  0  0  0  0
 30 26  1  1  0  0  0
 30 29  1  0  0  0  0
 31 30  1  0  0  0  0
 31 27  1  0  0  0  0
 33 42  1  1  0  0  0
 33 32  1  0  0  0  0
 33 34  1  0  0  0  0
 34 41  1  0  0  0  0
 35 37  1  0  0  0  0
 35 36  1  0  0  0  0
 38 41  1  0  0  0  0
 39 38  1  0  0  0  0
 39 40  1  0  0  0  0
 40 36  1  0  0  0  0
 41 37  1  0  0  0  0
 42 43  1  0  0  0  0
 43 44  1  6  0  0  0
 43 46  1  0  0  0  0
 44 45  1  0  0  0  0
 46 47  1  0  0  0  0
 48 47  1  0  0  0  0
 48 49  1  0  0  0  0
 49 50  2  0  0  0  0
 51 49  1  0  0  0  0
 53 56  2  0  0  0  0
 54 57  1  0  0  0  0
 54 58  1  1  0  0  0
 55 52  1  0  0  0  0
 55 57  1  0  0  0  0
 56 59  1  0  0  0  0
 56 54  1  0  0  0  0
 59 52  1  0  0  0  0
 59 51  1  1  0  0  0
M  END
>  <MODEL>
5

>  <REMARK>
 VINA RESULT:      -5.2      4.086     10.088
  Name = 
  25 active torsions:
  status: ('A' for Active; 'I' for Inactive)
    1  A    between atoms: C_3  and  C_25
    2  A    between atoms: C_5  and  C_42
    3  A    between atoms: C_6  and  C_19
    4  A    between atoms: C_6  and  C_31
    5  A    between atoms: C_9  and  C_19
    6  A    between atoms: C_9  and  C_54
    7  A    between atoms: C_11  and  C_27
    8  A    between atoms: C_13  and  C_25
    9  A    between atoms: C_13  and  C_28
   10  A    between atoms: C_15  and  C_28
   11  A    between atoms: C_15  and  C_59
   12  A    between atoms: C_17  and  C_37
   13  A    between atoms: C_27  and  C_38
   14  A    between atoms: C_28  and  C_41
   15  A    between atoms: C_30  and  C_37
   16  A    between atoms: C_30  and  C_38
   17  A    between atoms: C_31  and  C_37
   18  A    between atoms: C_38  and  C_48
   19  A    between atoms: C_39  and  C_48
   20  A    between atoms: C_42  and  C_59
   21  A    between atoms: N_44  and  C_57
   22  A    between atoms: C_45  and  C_57
   23  A    between atoms: C_46  and  S_55
   24  A    between atoms: C_52  and  C_54
   25  A    between atoms: S_55  and  C_59
                            x       y       z     vdW  Elec       q    Type
                         _______ _______ _______ _____ _____    ______ ____

>  <TORSDO>
F 25

$$$$
=
 OpenBabel11062418133D

 59 64  0  0  1  0  0  0  0  0999 V2000
  190.8930  176.5680  138.2950 C   0  0  2  0  0  3  0  0  0  0  0  0
  189.1180  178.2080  139.2860 C   0  0  1  0  0  0  0  0  0  0  0  0
  189.7000  175.9270  137.5760 C   0  0  1  0  0  3  0  0  0  0  0  0
  190.7600  176.2970  139.7870 C   0  0  0  0  0  2  0  0  0  0  0  0
  188.4310  176.7600  137.6270 C   0  0  0  0  0  2  0  0  0  0  0  0
  188.1830  177.1950  138.9370 O   0  0  0  0  0  0  0  0  0  0  0  0
  190.5860  177.7160  139.2700 C   0  0  1  0  0  3  0  0  0  0  0  0
  189.0030  179.4170  138.3540 C   0  0  0  0  0  1  0  0  0  0  0  0
  188.8050  178.7470  140.6870 C   0  0  0  0  0  2  0  0  0  0  0  0
  187.8000  177.9000  141.4720 C   0  0  1  0  0  3  0  0  0  0  0  0
  188.4680  177.0260  142.5480 C   0  0  2  0  0  3  0  0  0  0  0  0
  187.5150  176.3850  143.3520 O   0  0  0  0  0  1  0  0  0  0  0  0
  189.4210  177.8330  143.4490 C   0  0  2  0  0  3  0  0  0  0  0  0
  190.8320  177.3220  143.4540 C   0  0  0  0  0  3  0  0  0  0  0  0
  191.7730  178.0150  142.9320 N   0  0  0  0  0  2  0  0  0  0  0  0
  188.8930  177.9620  144.8850 C   0  0  0  0  0  2  0  0  0  0  0  0
  189.7800  177.2910  145.9340 C   0  0  0  0  0  2  0  0  0  0  0  0
  189.2270  177.4540  147.3090 C   0  0  0  0  0  0  0  0  0  0  0  0
  188.5790  176.5170  147.8470 O   0  0  0  0  0  0  0  0  0  0  0  0
  189.4270  178.6420  147.9980 O   0  0  0  0  0  1  0  0  0  0  0  0
  186.6150  179.0290  142.2770 S   0  0  0  0  0  0  0  0  0  0  0  0
  184.0500  179.3570  141.2380 N   0  0  0  0  0  2  0  0  0  0  0  0
  185.2870  178.6480  141.1410 C   0  0  0  0  0  0  0  0  0  0  0  0
  185.4500  177.7590  140.2660 O   0  0  0  0  0  0  0  0  0  0  0  0
  182.9680  179.1820  140.2820 C   0  0  0  0  0  2  0  0  0  0  0  0
  179.6140  178.4510  141.8900 C   0  0  0  0  0  1  0  0  0  0  0  0
  180.9190  177.8860  139.7770 C   0  0  2  0  0  0  0  0  0  0  0  0
  180.2950  176.6830  140.0700 F   0  0  0  0  0  0  0  0  0  0  0  0
  181.8970  178.2780  140.8620 C   0  0  2  0  0  3  0  0  0  0  0  0
  180.5580  178.9790  140.8160 C   0  0  2  0  0  0  0  0  0  0  0  0
  179.9080  178.9620  139.4500 C   0  0  0  0  0  2  0  0  0  0  0  0
  190.0350  175.4860  136.1420 C   0  0  0  0  0  2  0  0  0  0  0  0
  189.9750  173.9720  135.8390 C   0  0  1  0  0  3  0  0  0  0  0  0
  191.2420  173.2120  136.2110 C   0  0  0  0  0  2  0  0  0  0  0  0
  194.7540  174.1330  134.8300 C   0  0  0  0  0  2  0  0  0  0  0  0
  194.7720  175.6650  134.8950 C   0  0  0  0  0  2  0  0  0  0  0  0
  193.3510  173.5270  134.8980 C   0  0  0  0  0  2  0  0  0  0  0  0
  193.2180  174.2070  137.3730 C   0  0  0  0  0  2  0  0  0  0  0  0
  194.3200  175.2810  137.3920 C   0  0  0  0  0  2  0  0  0  0  0  0
  194.2420  176.2560  136.2130 C   0  0  0  0  0  2  0  0  0  0  0  0
  192.4800  174.0780  136.0330 C   0  0  0  0  0  3  0  0  0  0  0  0
  188.7570  173.2970  136.4520 C   0  0  0  0  0  2  0  0  0  0  0  0
  187.7890  172.8220  135.3750 C   0  0  2  0  0  3  0  0  0  0  0  0
  187.1830  174.0120  134.6270 C   0  0  0  0  0  2  0  0  0  0  0  0
  186.3570  174.9170  135.5320 C   0  0  0  0  0  1  0  0  0  0  0  0
  186.7150  171.9220  135.9830 C   0  0  0  0  0  2  0  0  0  0  0  0
  185.8500  171.2980  134.9030 C   0  0  0  0  0  2  0  0  0  0  0  0
  184.8860  170.3220  135.5470 C   0  0  0  0  0  2  0  0  0  0  0  0
  183.4770  170.7600  135.3300 C   0  0  0  0  0  0  0  0  0  0  0  0
  182.6120  169.9440  135.0540 O   0  0  0  0  0  0  0  0  0  0  0  0
  183.1380  172.2170  135.4510 C   0  0  0  0  0  2  0  0  0  0  0  0
  180.8110  172.3720  136.4290 C   0  0  0  0  0  2  0  0  0  0  0  0
  183.8380  174.1550  137.5210 O   0  0  0  0  0  0  0  0  0  0  0  0
  181.6090  174.9060  137.6670 C   0  0  2  0  0  3  0  0  0  0  0  0
  180.0190  173.0470  137.4480 N   0  0  0  0  0  2  0  0  0  0  0  0
  182.6660  173.9000  137.2850 C   0  0  0  0  0  0  0  0  0  0  0  0
  180.2050  174.4770  137.2390 C   0  0  0  0  0  2  0  0  0  0  0  0
  181.9010  176.1460  137.1020 O   0  0  0  0  0  1  0  0  0  0  0  0
  182.3110  172.5500  136.6960 C   0  0  2  0  0  3  0  0  0  0  0  0
  1  7  1  0  0  0  0
  1  4  1  1  0  0  0
  2  8  1  6  0  0  0
  2  9  1  0  0  0  0
  3 32  1  6  0  0  0
  3  5  1  0  0  0  0
  3  1  1  0  0  0  0
  5  6  1  0  0  0  0
  6  2  1  0  0  0  0
  7  2  1  0  0  0  0
  7  4  1  1  0  0  0
 10  9  1  1  0  0  0
 10 21  1  0  0  0  0
 10 11  1  0  0  0  0
 11 12  1  1  0  0  0
 11 13  1  0  0  0  0
 13 14  1  1  0  0  0
 13 16  1  0  0  0  0
 15 14  2  0  0  0  0
 16 17  1  0  0  0  0
 17 18  1  0  0  0  0
 18 19  2  0  0  0  0
 18 20  1  0  0  0  0
 23 22  1  0  0  0  0
 23 21  1  0  0  0  0
 24 23  2  0  0  0  0
 25 22  1  0  0  0  0
 27 28  1  1  0  0  0
 27 30  1  0  0  0  0
 27 29  1  0  0  0  0
 29 25  1  6  0  0  0
 30 29  1  0  0  0  0
 30 26  1  1  0  0  0
 31 27  1  0  0  0  0
 31 30  1  0  0  0  0
 33 32  1  1  0  0  0
 33 34  1  0  0  0  0
 33 42  1  0  0  0  0
 35 36  1  0  0  0  0
 35 37  1  0  0  0  0
 36 40  1  0  0  0  0
 37 41  1  0  0  0  0
 38 39  1  0  0  0  0
 40 39  1  0  0  0  0
 41 34  1  0  0  0  0
 41 38  1  0  0  0  0
 43 44  1  1  0  0  0
 43 46  1  0  0  0  0
 43 42  1  0  0  0  0
 44 45  1  0  0  0  0
 47 48  1  0  0  0  0
 47 46  1  0  0  0  0
 49 51  1  0  0  0  0
 49 48  1  0  0  0  0
 50 49  2  0  0  0  0
 52 59  1  0  0  0  0
 52 55  1  0  0  0  0
 54 58  1  6  0  0  0
 56 53  2  0  0  0  0
 56 54  1  0  0  0  0
 57 55  1  0  0  0  0
 57 54  1  0  0  0  0
 59 51  1  6  0  0  0
 59 56  1  0  0  0  0
M  END
>  <MODEL>
6

>  <REMARK>
 VINA RESULT:      -5.1      4.006      9.892
  Name = 
  25 active torsions:
  status: ('A' for Active; 'I' for Inactive)
    1  A    between atoms: C_3  and  C_25
    2  A    between atoms: C_5  and  C_42
    3  A    between atoms: C_6  and  C_19
    4  A    between atoms: C_6  and  C_31
    5  A    between atoms: C_9  and  C_19
    6  A    between atoms: C_9  and  C_54
    7  A    between atoms: C_11  and  C_27
    8  A    between atoms: C_13  and  C_25
    9  A    between atoms: C_13  and  C_28
   10  A    between atoms: C_15  and  C_28
   11  A    between atoms: C_15  and  C_59
   12  A    between atoms: C_17  and  C_37
   13  A    between atoms: C_27  and  C_38
   14  A    between atoms: C_28  and  C_41
   15  A    between atoms: C_30  and  C_37
   16  A    between atoms: C_30  and  C_38
   17  A    between atoms: C_31  and  C_37
   18  A    between atoms: C_38  and  C_48
   19  A    between atoms: C_39  and  C_48
   20  A    between atoms: C_42  and  C_59
   21  A    between atoms: N_44  and  C_57
   22  A    between atoms: C_45  and  C_57
   23  A    between atoms: C_46  and  S_55
   24  A    between atoms: C_52  and  C_54
   25  A    between atoms: S_55  and  C_59
                            x       y       z     vdW  Elec       q    Type
                         _______ _______ _______ _____ _____    ______ ____

>  <TORSDO>
F 25

$$$$
=
 OpenBabel11062418133D

 59 64  0  0  1  0  0  0  0  0999 V2000
  190.0940  177.3110  140.5290 C   0  0  2  0  0  3  0  0  0  0  0  0
  189.0150  176.7290  138.2220 C   0  0  1  0  0  0  0  0  0  0  0  0
  188.9920  178.3730  140.6220 C   0  0  1  0  0  3  0  0  0  0  0  0
  191.0590  177.7150  139.4240 C   0  0  0  0  0  2  0  0  0  0  0  0
  187.8920  178.2130  139.5860 C   0  0  0  0  0  2  0  0  0  0  0  0
  188.4460  178.0290  138.3100 O   0  0  0  0  0  0  0  0  0  0  0  0
  190.1710  176.4980  139.2260 C   0  0  1  0  0  3  0  0  0  0  0  0
  187.9580  175.6430  138.4430 C   0  0  0  0  0  1  0  0  0  0  0  0
  189.5510  176.4880  136.8060 C   0  0  0  0  0  2  0  0  0  0  0  0
  188.7160  175.5040  135.9810 C   0  0  1  0  0  3  0  0  0  0  0  0
  188.0010  176.1750  134.7960 C   0  0  2  0  0  3  0  0  0  0  0  0
  188.4050  177.5080  134.6420 O   0  0  0  0  0  1  0  0  0  0  0  0
  186.4680  176.1300  134.9340 C   0  0  2  0  0  3  0  0  0  0  0  0
  185.8650  177.4080  135.4360 C   0  0  0  0  0  3  0  0  0  0  0  0
  185.9910  177.7450  136.6640 N   0  0  0  0  0  2  0  0  0  0  0  0
  185.9970  174.9430  135.7860 C   0  0  0  0  0  2  0  0  0  0  0  0
  184.4960  174.6680  135.6900 C   0  0  0  0  0  2  0  0  0  0  0  0
  184.0930  173.5090  136.5360 C   0  0  0  0  0  0  0  0  0  0  0  0
  184.4040  173.4760  137.7560 O   0  0  0  0  0  1  0  0  0  0  0  0
  183.3720  172.4630  135.9760 O   0  0  0  0  0  0  0  0  0  0  0  0
  189.8340  174.2100  135.3440 S   0  0  0  0  0  0  0  0  0  0  0  0
  192.1890  174.6060  136.7830 N   0  0  0  0  0  2  0  0  0  0  0  0
  191.3210  175.1110  135.7650 C   0  0  0  0  0  0  0  0  0  0  0  0
  191.5930  176.1830  135.1650 O   0  0  0  0  0  0  0  0  0  0  0  0
  193.4670  175.2210  137.1000 C   0  0  0  0  0  2  0  0  0  0  0  0
  195.2810  171.8970  137.2860 C   0  0  0  0  0  1  0  0  0  0  0  0
  195.7990  174.3890  137.2020 C   0  0  2  0  0  0  0  0  0  0  0  0
  196.7460  173.9200  138.0990 F   0  0  0  0  0  0  0  0  0  0  0  0
  194.3950  174.2020  137.7350 C   0  0  2  0  0  3  0  0  0  0  0  0
  194.8960  173.2410  136.6800 C   0  0  2  0  0  0  0  0  0  0  0  0
  196.0100  173.8020  135.8240 C   0  0  0  0  0  2  0  0  0  0  0  0
  188.4190  178.5140  142.0420 C   0  0  0  0  0  2  0  0  0  0  0  0
  187.3740  177.4670  142.4880 C   0  0  1  0  0  3  0  0  0  0  0  0
  187.9790  176.1890  143.0580 C   0  0  0  0  0  2  0  0  0  0  0  0
  188.6670  177.9280  146.4630 C   0  0  0  0  0  2  0  0  0  0  0  0
  189.5000  176.8930  147.2290 C   0  0  0  0  0  2  0  0  0  0  0  0
  187.8950  177.3450  145.2770 C   0  0  0  0  0  2  0  0  0  0  0  0
  190.1190  177.0460  144.0230 C   0  0  0  0  0  2  0  0  0  0  0  0
  191.0830  177.0990  145.2210 C   0  0  0  0  0  2  0  0  0  0  0  0
  190.6300  176.2470  146.4100 C   0  0  0  0  0  2  0  0  0  0  0  0
  188.7360  176.4620  144.3480 C   0  0  0  0  0  3  0  0  0  0  0  0
  186.3440  178.0370  143.4510 C   0  0  0  0  0  2  0  0  0  0  0  0
  185.3610  178.9510  142.7290 C   0  0  2  0  0  3  0  0  0  0  0  0
  184.3240  179.5110  143.7050 C   0  0  0  0  0  2  0  0  0  0  0  0
  184.8240  179.5360  145.1440 C   0  0  0  0  0  1  0  0  0  0  0  0
  184.7080  178.2150  141.5600 C   0  0  0  0  0  2  0  0  0  0  0  0
  184.3380  179.1770  140.4470 C   0  0  0  0  0  2  0  0  0  0  0  0
  182.8610  179.0300  140.1390 C   0  0  0  0  0  2  0  0  0  0  0  0
  182.6480  178.8610  138.6740 C   0  0  0  0  0  0  0  0  0  0  0  0
  181.8910  179.6050  138.0690 O   0  0  0  0  0  0  0  0  0  0  0  0
  183.3710  177.7630  137.9510 C   0  0  0  0  0  2  0  0  0  0  0  0
  181.3810  176.8250  136.7040 C   0  0  0  0  0  2  0  0  0  0  0  0
  182.8350  175.6190  139.8610 O   0  0  0  0  0  0  0  0  0  0  0  0
  180.5790  175.4920  139.1880 C   0  0  2  0  0  3  0  0  0  0  0  0
  180.3470  175.8000  136.7620 N   0  0  0  0  0  2  0  0  0  0  0  0
  182.0220  175.8850  138.9880 C   0  0  0  0  0  0  0  0  0  0  0  0
  179.6760  175.9590  138.0450 C   0  0  0  0  0  2  0  0  0  0  0  0
  180.1040  176.0110  140.3900 O   0  0  0  0  0  1  0  0  0  0  0  0
  182.5070  176.5240  137.7020 C   0  0  2  0  0  3  0  0  0  0  0  0
  1  4  1  6  0  0  0
  1  3  1  0  0  0  0
  2  6  1  0  0  0  0
  2  8  1  1  0  0  0
  2  7  1  0  0  0  0
  3 32  1  1  0  0  0
  5  3  1  0  0  0  0
  6  5  1  0  0  0  0
  7  4  1  6  0  0  0
  7  1  1  0  0  0  0
  9  2  1  0  0  0  0
 10  9  1  6  0  0  0
 11 12  1  1  0  0  0
 11 13  1  0  0  0  0
 11 10  1  0  0  0  0
 13 14  1  1  0  0  0
 13 16  1  0  0  0  0
 14 15  2  0  0  0  0
 17 16  1  0  0  0  0
 17 18  1  0  0  0  0
 18 19  1  0  0  0  0
 20 18  2  0  0  0  0
 21 23  1  0  0  0  0
 21 10  1  0  0  0  0
 22 25  1  0  0  0  0
 23 22  1  0  0  0  0
 24 23  2  0  0  0  0
 27 29  1  0  0  0  0
 27 28  1  1  0  0  0
 29 25  1  6  0  0  0
 30 27  1  0  0  0  0
 30 26  1  1  0  0  0
 30 29  1  0  0  0  0
 31 30  1  0  0  0  0
 31 27  1  0  0  0  0
 33 32  1  1  0  0  0
 33 34  1  0  0  0  0
 33 42  1  0  0  0  0
 34 41  1  0  0  0  0
 35 36  1  0  0  0  0
 37 35  1  0  0  0  0
 38 41  1  0  0  0  0
 38 39  1  0  0  0  0
 39 40  1  0  0  0  0
 40 36  1  0  0  0  0
 41 37  1  0  0  0  0
 43 46  1  6  0  0  0
 43 42  1  0  0  0  0
 43 44  1  0  0  0  0
 44 45  1  0  0  0  0
 47 46  1  0  0  0  0
 48 47  1  0  0  0  0
 49 48  1  0  0  0  0
 50 49  2  0  0  0  0
 51 49  1  0  0  0  0
 52 55  1  0  0  0  0
 52 59  1  0  0  0  0
 54 58  1  1  0  0  0
 55 57  1  0  0  0  0
 56 54  1  0  0  0  0
 56 53  2  0  0  0  0
 57 54  1  0  0  0  0
 59 51  1  1  0  0  0
 59 56  1  0  0  0  0
M  END
>  <MODEL>
7

>  <REMARK>
 VINA RESULT:      -4.7      2.100      2.897
  Name = 
  25 active torsions:
  status: ('A' for Active; 'I' for Inactive)
    1  A    between atoms: C_3  and  C_25
    2  A    between atoms: C_5  and  C_42
    3  A    between atoms: C_6  and  C_19
    4  A    between atoms: C_6  and  C_31
    5  A    between atoms: C_9  and  C_19
    6  A    between atoms: C_9  and  C_54
    7  A    between atoms: C_11  and  C_27
    8  A    between atoms: C_13  and  C_25
    9  A    between atoms: C_13  and  C_28
   10  A    between atoms: C_15  and  C_28
   11  A    between atoms: C_15  and  C_59
   12  A    between atoms: C_17  and  C_37
   13  A    between atoms: C_27  and  C_38
   14  A    between atoms: C_28  and  C_41
   15  A    between atoms: C_30  and  C_37
   16  A    between atoms: C_30  and  C_38
   17  A    between atoms: C_31  and  C_37
   18  A    between atoms: C_38  and  C_48
   19  A    between atoms: C_39  and  C_48
   20  A    between atoms: C_42  and  C_59
   21  A    between atoms: N_44  and  C_57
   22  A    between atoms: C_45  and  C_57
   23  A    between atoms: C_46  and  S_55
   24  A    between atoms: C_52  and  C_54
   25  A    between atoms: S_55  and  C_59
                            x       y       z     vdW  Elec       q    Type
                         _______ _______ _______ _____ _____    ______ ____

>  <TORSDO>
F 25

$$$$
=
 OpenBabel11062418133D

 59 64  0  0  1  0  0  0  0  0999 V2000
  190.9610  177.5070  141.2310 C   0  0  2  0  0  3  0  0  0  0  0  0
  190.2430  178.6030  143.4910 C   0  0  1  0  0  0  0  0  0  0  0  0
  189.4970  177.7120  140.8240 C   0  0  1  0  0  3  0  0  0  0  0  0
  191.0130  176.4490  142.3240 C   0  0  0  0  0  2  0  0  0  0  0  0
  188.7180  178.6210  141.7590 C   0  0  0  0  0  2  0  0  0  0  0  0
  188.9250  178.2430  143.0940 O   0  0  0  0  0  0  0  0  0  0  0  0
  191.3450  177.8910  142.6700 C   0  0  1  0  0  3  0  0  0  0  0  0
  190.4610  180.1150  143.3860 C   0  0  0  0  0  1  0  0  0  0  0  0
  190.4510  178.2670  144.9720 C   0  0  0  0  0  2  0  0  0  0  0  0
  189.3100  177.4580  145.5960 C   0  0  1  0  0  3  0  0  0  0  0  0
  189.8080  176.3720  146.5660 C   0  0  2  0  0  3  0  0  0  0  0  0
  189.2270  176.5130  147.8330 O   0  0  0  0  0  1  0  0  0  0  0  0
  191.3410  176.3780  146.7140 C   0  0  2  0  0  3  0  0  0  0  0  0
  192.0680  175.7980  145.5370 C   0  0  0  0  0  3  0  0  0  0  0  0
  192.2130  174.5310  145.4250 N   0  0  0  0  0  2  0  0  0  0  0  0
  191.8000  175.7020  148.0140 C   0  0  0  0  0  2  0  0  0  0  0  0
  193.2510  176.0050  148.3900 C   0  0  0  0  0  2  0  0  0  0  0  0
  193.3370  176.8750  149.5980 C   0  0  0  0  0  0  0  0  0  0  0  0
  192.8020  178.0150  149.5970 O   0  0  0  0  0  0  0  0  0  0  0  0
  194.0090  176.4250  150.7260 O   0  0  0  0  0  1  0  0  0  0  0  0
  188.2300  178.6140  146.5050 S   0  0  0  0  0  0  0  0  0  0  0  0
  185.6170  178.9470  145.5920 N   0  0  0  0  0  2  0  0  0  0  0  0
  186.7390  178.0660  145.6820 C   0  0  0  0  0  0  0  0  0  0  0  0
  186.6880  176.9100  145.1880 O   0  0  0  0  0  0  0  0  0  0  0  0
  184.4160  178.6150  144.8430 C   0  0  0  0  0  2  0  0  0  0  0  0
  185.4990  179.3740  141.2910 C   0  0  0  0  0  1  0  0  0  0  0  0
  183.4010  178.7390  142.5870 C   0  0  2  0  0  0  0  0  0  0  0  0
  182.9140  179.6520  141.6640 F   0  0  0  0  0  0  0  0  0  0  0  0
  184.3830  179.3880  143.5380 C   0  0  2  0  0  3  0  0  0  0  0  0
  184.9280  178.5270  142.4210 C   0  0  2  0  0  0  0  0  0  0  0  0
  183.9420  177.5030  141.9030 C   0  0  0  0  0  2  0  0  0  0  0  0
  189.3410  178.1390  139.3550 C   0  0  0  0  0  2  0  0  0  0  0  0
  189.5530  177.0500  138.2790 C   0  0  1  0  0  3  0  0  0  0  0  0
  190.5680  175.9820  138.6670 C   0  0  0  0  0  2  0  0  0  0  0  0
  192.5810  173.7010  136.2510 C   0  0  0  0  0  2  0  0  0  0  0  0
  192.7710  174.5790  135.0080 C   0  0  0  0  0  2  0  0  0  0  0  0
  191.4610  174.1770  137.1790 C   0  0  0  0  0  2  0  0  0  0  0  0
  192.9220  176.1820  137.8530 C   0  0  0  0  0  2  0  0  0  0  0  0
  193.8980  176.1840  136.6630 C   0  0  0  0  0  2  0  0  0  0  0  0
  193.2070  176.0230  135.3050 C   0  0  0  0  0  2  0  0  0  0  0  0
  191.5130  175.6710  137.5170 C   0  0  0  0  0  3  0  0  0  0  0  0
  188.2510  176.4030  137.8330 C   0  0  0  0  0  2  0  0  0  0  0  0
  188.2010  176.2520  136.3170 C   0  0  2  0  0  3  0  0  0  0  0  0
  187.5180  177.4610  135.6740 C   0  0  0  0  0  2  0  0  0  0  0  0
  186.7490  178.3070  136.6820 C   0  0  0  0  0  1  0  0  0  0  0  0
  187.5200  174.9390  135.9340 C   0  0  0  0  0  2  0  0  0  0  0  0
  187.9700  173.8070  136.8380 C   0  0  0  0  0  2  0  0  0  0  0  0
  186.7560  173.0080  137.2680 C   0  0  0  0  0  2  0  0  0  0  0  0
  186.1770  172.2730  136.1060 C   0  0  0  0  0  0  0  0  0  0  0  0
  186.8450  171.4490  135.5020 O   0  0  0  0  0  0  0  0  0  0  0  0
  184.7660  172.5640  135.6870 C   0  0  0  0  0  2  0  0  0  0  0  0
  182.7440  171.4330  136.7010 C   0  0  0  0  0  2  0  0  0  0  0  0
  183.8740  174.8990  137.1980 O   0  0  0  0  0  0  0  0  0  0  0  0
  181.6580  174.0980  137.2570 C   0  0  2  0  0  3  0  0  0  0  0  0
  181.5910  171.6610  137.5620 N   0  0  0  0  0  2  0  0  0  0  0  0
  183.1460  173.9230  137.0820 C   0  0  0  0  0  0  0  0  0  0  0  0
  180.8790  172.8050  137.0080 C   0  0  0  0  0  2  0  0  0  0  0  0
  181.1870  175.0890  136.3980 O   0  0  0  0  0  1  0  0  0  0  0  0
  183.7710  172.5630  136.8510 C   0  0  2  0  0  3  0  0  0  0  0  0
  1  4  1  1  0  0  0
  1  7  1  0  0  0  0
  2  8  1  6  0  0  0
  2  9  1  0  0  0  0
  3 32  1  6  0  0  0
  3  1  1  0  0  0  0
  3  5  1  0  0  0  0
  5  6  1  0  0  0  0
  6  2  1  0  0  0  0
  7  4  1  1  0  0  0
  7  2  1  0  0  0  0
 10  9  1  1  0  0  0
 10 21  1  0  0  0  0
 10 11  1  0  0  0  0
 11 13  1  0  0  0  0
 11 12  1  1  0  0  0
 13 14  1  6  0  0  0
 13 16  1  0  0  0  0
 15 14  2  0  0  0  0
 16 17  1  0  0  0  0
 17 18  1  0  0  0  0
 18 20  1  0  0  0  0
 19 18  2  0  0  0  0
 22 23  1  0  0  0  0
 23 21  1  0  0  0  0
 24 23  2  0  0  0  0
 25 22  1  0  0  0  0
 27 28  1  6  0  0  0
 27 29  1  0  0  0  0
 29 25  1  1  0  0  0
 30 26  1  6  0  0  0
 30 27  1  0  0  0  0
 30 29  1  0  0  0  0
 31 30  1  0  0  0  0
 31 27  1  0  0  0  0
 33 42  1  1  0  0  0
 33 34  1  0  0  0  0
 33 32  1  0  0  0  0
 35 37  1  0  0  0  0
 36 40  1  0  0  0  0
 36 35  1  0  0  0  0
 37 41  1  0  0  0  0
 39 38  1  0  0  0  0
 40 39  1  0  0  0  0
 41 38  1  0  0  0  0
 41 34  1  0  0  0  0
 43 44  1  6  0  0  0
 43 42  1  0  0  0  0
 44 45  1  0  0  0  0
 46 43  1  0  0  0  0
 46 47  1  0  0  0  0
 47 48  1  0  0  0  0
 49 48  1  0  0  0  0
 50 49  2  0  0  0  0
 51 49  1  0  0  0  0
 52 59  1  0  0  0  0
 52 55  1  0  0  0  0
 54 58  1  6  0  0  0
 56 53  2  0  0  0  0
 56 54  1  0  0  0  0
 57 54  1  0  0  0  0
 57 55  1  0  0  0  0
 59 51  1  6  0  0  0
 59 56  1  0  0  0  0
M  END
>  <MODEL>
8

>  <REMARK>
 VINA RESULT:      -4.7      4.478     10.047
  Name = 
  25 active torsions:
  status: ('A' for Active; 'I' for Inactive)
    1  A    between atoms: C_3  and  C_25
    2  A    between atoms: C_5  and  C_42
    3  A    between atoms: C_6  and  C_19
    4  A    between atoms: C_6  and  C_31
    5  A    between atoms: C_9  and  C_19
    6  A    between atoms: C_9  and  C_54
    7  A    between atoms: C_11  and  C_27
    8  A    between atoms: C_13  and  C_25
    9  A    between atoms: C_13  and  C_28
   10  A    between atoms: C_15  and  C_28
   11  A    between atoms: C_15  and  C_59
   12  A    between atoms: C_17  and  C_37
   13  A    between atoms: C_27  and  C_38
   14  A    between atoms: C_28  and  C_41
   15  A    between atoms: C_30  and  C_37
   16  A    between atoms: C_30  and  C_38
   17  A    between atoms: C_31  and  C_37
   18  A    between atoms: C_38  and  C_48
   19  A    between atoms: C_39  and  C_48
   20  A    between atoms: C_42  and  C_59
   21  A    between atoms: N_44  and  C_57
   22  A    between atoms: C_45  and  C_57
   23  A    between atoms: C_46  and  S_55
   24  A    between atoms: C_52  and  C_54
   25  A    between atoms: S_55  and  C_59
                            x       y       z     vdW  Elec       q    Type
                         _______ _______ _______ _____ _____    ______ ____

>  <TORSDO>
F 25

$$$$
=
 OpenBabel11062418133D

 59 64  0  0  1  0  0  0  0  0999 V2000
  190.3470  176.5000  141.0460 C   0  0  2  0  0  3  0  0  0  0  0  0
  189.2200  177.0880  138.7640 C   0  0  1  0  0  0  0  0  0  0  0  0
  189.1090  177.1550  141.6700 C   0  0  1  0  0  3  0  0  0  0  0  0
  191.1700  177.5810  140.3600 C   0  0  0  0  0  2  0  0  0  0  0  0
  187.9810  177.4070  140.6840 C   0  0  0  0  0  2  0  0  0  0  0  0
  188.4730  178.0270  139.5260 O   0  0  0  0  0  0  0  0  0  0  0  0
  190.4580  176.5390  139.5130 C   0  0  1  0  0  3  0  0  0  0  0  0
  188.3490  175.9030  138.3340 C   0  0  0  0  0  1  0  0  0  0  0  0
  189.6940  177.7350  137.4570 C   0  0  0  0  0  2  0  0  0  0  0  0
  189.2600  176.9840  136.1950 C   0  0  1  0  0  3  0  0  0  0  0  0
  188.0700  177.6500  135.4830 C   0  0  2  0  0  3  0  0  0  0  0  0
  187.2050  178.2660  136.3980 O   0  0  0  0  0  1  0  0  0  0  0  0
  187.2660  176.6540  134.6260 C   0  0  2  0  0  3  0  0  0  0  0  0
  185.7910  176.9250  134.6030 C   0  0  0  0  0  3  0  0  0  0  0  0
  185.2820  177.8060  135.3800 N   0  0  0  0  0  2  0  0  0  0  0  0
  187.5380  175.1970  135.0230 C   0  0  0  0  0  2  0  0  0  0  0  0
  186.3690  174.5210  135.7400 C   0  0  0  0  0  2  0  0  0  0  0  0
  186.7190  173.1450  136.1920 C   0  0  0  0  0  0  0  0  0  0  0  0
  187.4050  172.3900  135.4520 O   0  0  0  0  0  0  0  0  0  0  0  0
  186.2880  172.6930  137.4320 O   0  0  0  0  0  1  0  0  0  0  0  0
  190.6810  176.9300  135.0520 S   0  0  0  0  0  0  0  0  0  0  0  0
  192.6040  174.9390  135.3820 N   0  0  0  0  0  2  0  0  0  0  0  0
  191.2580  175.3440  135.6440 C   0  0  0  0  0  0  0  0  0  0  0  0
  190.4770  174.5940  136.2850 O   0  0  0  0  0  0  0  0  0  0  0  0
  193.1760  173.7180  135.9260 C   0  0  0  0  0  2  0  0  0  0  0  0
  196.6350  175.2470  136.1910 C   0  0  0  0  0  1  0  0  0  0  0  0
  195.3390  173.2200  137.0260 C   0  0  2  0  0  0  0  0  0  0  0  0
  196.5920  172.6840  136.7670 F   0  0  0  0  0  0  0  0  0  0  0  0
  194.6840  173.7280  135.7600 C   0  0  2  0  0  3  0  0  0  0  0  0
  195.2950  174.7370  136.7070 C   0  0  2  0  0  0  0  0  0  0  0  0
  195.4010  174.2470  138.1350 C   0  0  0  0  0  2  0  0  0  0  0  0
  188.6140  176.4190  142.9250 C   0  0  0  0  0  2  0  0  0  0  0  0
  187.4770  177.0870  143.7320 C   0  0  1  0  0  3  0  0  0  0  0  0
  187.9620  177.9430  144.8960 C   0  0  0  0  0  2  0  0  0  0  0  0
  190.5300  177.1640  147.7040 C   0  0  0  0  0  2  0  0  0  0  0  0
  191.3130  175.9690  147.1490 C   0  0  0  0  0  2  0  0  0  0  0  0
  189.1860  177.4000  147.0110 C   0  0  0  0  0  2  0  0  0  0  0  0
  190.4480  178.1940  144.9170 C   0  0  0  0  0  2  0  0  0  0  0  0
  191.8220  177.5660  145.2070 C   0  0  0  0  0  2  0  0  0  0  0  0
  191.7430  176.1110  145.6790 C   0  0  0  0  0  2  0  0  0  0  0  0
  189.2580  177.4030  145.4800 C   0  0  0  0  0  3  0  0  0  0  0  0
  186.5220  177.8820  142.8540 C   0  0  0  0  0  2  0  0  0  0  0  0
  185.5670  178.7190  143.6970 C   0  0  2  0  0  3  0  0  0  0  0  0
  184.9770  177.8860  144.8380 C   0  0  0  0  0  2  0  0  0  0  0  0
  184.2080  178.7300  145.8460 C   0  0  0  0  0  1  0  0  0  0  0  0
  184.4810  179.3360  142.8180 C   0  0  0  0  0  2  0  0  0  0  0  0
  183.7210  178.2660  142.0570 C   0  0  0  0  0  2  0  0  0  0  0  0
  182.4610  178.8760  141.4760 C   0  0  0  0  0  2  0  0  0  0  0  0
  182.5080  178.8500  139.9860 C   0  0  0  0  0  0  0  0  0  0  0  0
  183.2610  179.5950  139.3790 O   0  0  0  0  0  0  0  0  0  0  0  0
  181.6150  177.9020  139.2430 C   0  0  0  0  0  2  0  0  0  0  0  0
  181.5590  179.0420  136.9860 C   0  0  0  0  0  2  0  0  0  0  0  0
  179.1870  179.4370  139.7700 O   0  0  0  0  0  0  0  0  0  0  0  0
  179.7770  181.0520  138.1570 C   0  0  2  0  0  3  0  0  0  0  0  0
  180.8250  180.0170  136.1920 N   0  0  0  0  0  2  0  0  0  0  0  0
  179.8740  179.6860  138.7900 C   0  0  0  0  0  0  0  0  0  0  0  0
  180.7500  181.2320  136.9910 C   0  0  0  0  0  2  0  0  0  0  0  0
  180.0160  182.0390  139.1110 O   0  0  0  0  0  1  0  0  0  0  0  0
  180.7330  178.5880  138.1960 C   0  0  2  0  0  3  0  0  0  0  0  0
  1  4  1  1  0  0  0
  1  3  1  0  0  0  0
  2  8  1  6  0  0  0
  2  7  1  0  0  0  0
  2  6  1  0  0  0  0
  3 32  1  1  0  0  0
  5  3  1  0  0  0  0
  6  5  1  0  0  0  0
  7  4  1  1  0  0  0
  7  1  1  0  0  0  0
  9  2  1  0  0  0  0
 10  9  1  1  0  0  0
 11 10  1  0  0  0  0
 11 12  1  1  0  0  0
 13 14  1  1  0  0  0
 13 16  1  0  0  0  0
 13 11  1  0  0  0  0
 14 15  2  0  0  0  0
 16 17  1  0  0  0  0
 17 18  1  0  0  0  0
 18 20  1  0  0  0  0
 19 18  2  0  0  0  0
 21 23  1  0  0  0  0
 21 10  1  0  0  0  0
 22 23  1  0  0  0  0
 22 25  1  0  0  0  0
 23 24  2  0  0  0  0
 27 28  1  6  0  0  0
 27 31  1  0  0  0  0
 29 25  1  1  0  0  0
 29 30  1  0  0  0  0
 29 27  1  0  0  0  0
 30 26  1  6  0  0  0
 30 27  1  0  0  0  0
 30 31  1  0  0  0  0
 32 33  1  0  0  0  0
 33 42  1  6  0  0  0
 33 34  1  0  0  0  0
 34 41  1  0  0  0  0
 36 35  1  0  0  0  0
 37 35  1  0  0  0  0
 38 39  1  0  0  0  0
 38 41  1  0  0  0  0
 39 40  1  0  0  0  0
 40 36  1  0  0  0  0
 41 37  1  0  0  0  0
 42 43  1  0  0  0  0
 43 46  1  6  0  0  0
 43 44  1  0  0  0  0
 44 45  1  0  0  0  0
 47 46  1  0  0  0  0
 48 47  1  0  0  0  0
 49 48  1  0  0  0  0
 50 49  2  0  0  0  0
 51 49  1  0  0  0  0
 52 59  1  0  0  0  0
 54 56  1  0  0  0  0
 54 58  1  1  0  0  0
 55 52  1  0  0  0  0
 55 57  1  0  0  0  0
 56 53  2  0  0  0  0
 57 54  1  0  0  0  0
 59 56  1  0  0  0  0
 59 51  1  1  0  0  0
M  END
>  <MODEL>
9

>  <REMARK>
 VINA RESULT:      -4.7      1.525      2.052
  Name = 
  25 active torsions:
  status: ('A' for Active; 'I' for Inactive)
    1  A    between atoms: C_3  and  C_25
    2  A    between atoms: C_5  and  C_42
    3  A    between atoms: C_6  and  C_19
    4  A    between atoms: C_6  and  C_31
    5  A    between atoms: C_9  and  C_19
    6  A    between atoms: C_9  and  C_54
    7  A    between atoms: C_11  and  C_27
    8  A    between atoms: C_13  and  C_25
    9  A    between atoms: C_13  and  C_28
   10  A    between atoms: C_15  and  C_28
   11  A    between atoms: C_15  and  C_59
   12  A    between atoms: C_17  and  C_37
   13  A    between atoms: C_27  and  C_38
   14  A    between atoms: C_28  and  C_41
   15  A    between atoms: C_30  and  C_37
   16  A    between atoms: C_30  and  C_38
   17  A    between atoms: C_31  and  C_37
   18  A    between atoms: C_38  and  C_48
   19  A    between atoms: C_39  and  C_48
   20  A    between atoms: C_42  and  C_59
   21  A    between atoms: N_44  and  C_57
   22  A    between atoms: C_45  and  C_57
   23  A    between atoms: C_46  and  S_55
   24  A    between atoms: C_52  and  C_54
   25  A    between atoms: S_55  and  C_59
                            x       y       z     vdW  Elec       q    Type
                         _______ _______ _______ _____ _____    ______ ____

>  <TORSDO>
F 25

$$$$
