=
 OpenBabel11062412373D

 51 56  0  0  1  0  0  0  0  0999 V2000
  183.8730  176.9570  135.8430 C   0  0  0  0  0  2  0  0  0  0  0  0
  184.5500  175.9690  136.6550 N   0  0  0  0  0  0  0  0  0  0  0  0
  182.2510  175.5710  137.0170 C   0  0  1  0  0  0  0  0  0  0  0  0
  183.6480  175.0410  137.3100 C   0  0  0  0  0  2  0  0  0  0  0  0
  181.5150  174.7010  134.9510 C   0  0  0  0  0  2  0  0  0  0  0  0
  182.0070  175.9980  134.6700 O   0  0  0  0  0  0  0  0  0  0  0  0
  182.4050  176.5790  135.8900 C   0  0  2  0  0  3  0  0  0  0  0  0
  181.3750  174.5080  136.4460 C   0  0  0  0  0  2  0  0  0  0  0  0
  185.9330  176.0650  137.0150 C   0  0  0  0  0  0  0  0  0  0  0  0
  186.6150  175.0210  137.1920 O   0  0  0  0  0  0  0  0  0  0  0  0
  181.5570  175.6330  139.3170 O   0  0  0  0  0  0  0  0  0  0  0  0
  181.6280  176.2340  138.2140 C   0  0  0  0  0  0  0  0  0  0  0  0
  181.1470  177.5410  138.0890 O   0  0  0  0  0  0  0  0  0  0  0  0
  185.8220  178.5590  143.3260 C   0  0  0  0  0  2  0  0  0  0  0  0
  181.3570  178.5880  139.0560 C   0  0  2  0  0  0  0  0  0  0  0  0
  184.8040  179.6070  140.1170 O   0  0  0  0  0  0  0  0  0  0  0  0
  184.9100  178.7250  141.2240 C   0  0  2  0  0  3  0  0  0  0  0  0
  184.5800  178.8620  144.0390 N   0  0  0  0  0  2  0  0  0  0  0  0
  181.2280  178.3600  141.2710 O   0  0  0  0  0  0  0  0  0  0  0  0
  183.9690  179.0640  139.1080 C   0  0  0  0  0  2  0  0  0  0  0  0
  182.2330  178.9950  143.8650 N   0  0  0  0  0  2  0  0  0  0  0  0
  182.6950  178.4530  139.6940 C   0  0  1  0  0  3  0  0  0  0  0  0
  183.3800  178.8340  143.2810 C   0  0  0  0  0  0  0  0  0  0  0  0
  182.4270  178.9460  140.9990 N   0  0  2  0  0  0  0  0  0  0  0  0
  183.4870  178.3940  141.8420 C   0  0  1  0  0  3  0  0  0  0  0  0
  185.8420  179.2910  142.1280 O   0  0  0  0  0  0  0  0  0  0  0  0
  180.4760  178.4570  140.1590 O   0  0  0  0  0  0  0  0  0  0  0  0
  181.1080  179.9300  138.3880 C   0  0  0  0  0  0  0  0  0  0  0  0
  181.4270  180.1380  137.2190 O   0  0  0  0  0  0  0  0  0  0  0  0
  180.0880  182.0600  138.3420 O   0  0  0  0  0  1  0  0  0  0  0  0
  180.5170  181.0490  139.1880 C   0  0  0  0  0  2  0  0  0  0  0  0
  186.5660  177.4040  137.2220 C   0  0  0  0  0  2  0  0  0  0  0  0
  188.0880  177.3570  137.0950 C   0  0  1  0  0  3  0  0  0  0  0  0
  188.5400  178.2280  136.1060 O   0  0  0  0  0  1  0  0  0  0  0  0
  188.8130  177.5630  138.4310 C   0  0  2  0  0  3  0  0  0  0  0  0
  188.7600  178.8920  138.8520 O   0  0  0  0  0  0  0  0  0  0  0  0
  188.3050  178.8320  140.0760 O   0  0  0  0  0  1  0  0  0  0  0  0
  190.2570  176.9960  138.4710 C   0  0  2  0  0  3  0  0  0  0  0  0
  190.7580  176.2790  137.2160 C   0  0  1  0  0  3  0  0  0  0  0  0
  191.9970  176.7570  136.7680 O   0  0  0  0  0  1  0  0  0  0  0  0
  189.7860  174.1620  137.5540 O   0  0  0  0  0  0  0  0  0  0  0  0
  192.1150  174.1020  137.4180 C   0  0  0  0  0  1  0  0  0  0  0  0
  190.8060  174.8000  137.3960 C   0  0  0  0  0  0  0  0  0  0  0  0
  190.4790  176.1740  139.6080 O   0  0  0  0  0  0  0  0  0  0  0  0
  191.8030  177.4870  141.0010 N   0  0  0  0  0  2  0  0  0  0  0  0
  190.0300  176.2990  142.0120 N   0  0  0  0  0  2  0  0  0  0  0  0
  190.7930  176.6820  140.8690 C   0  0  0  0  0  0  0  0  0  0  0  0
  189.1670  177.3540  144.0960 C   0  0  0  0  0  2  0  0  0  0  0  0
  190.0790  178.1910  143.4110 O   0  0  0  0  0  0  0  0  0  0  0  0
  191.5650  176.3940  144.0500 C   0  0  0  0  0  1  0  0  0  0  0  0
  190.3000  176.8130  143.3390 C   0  0  2  0  0  0  0  0  0  0  0  0
  1  2  1  0  0  0  0
  2  9  1  0  0  0  0
  2  4  1  0  0  0  0
  3  4  1  0  0  0  0
  3 12  1  1  0  0  0
  5  8  1  0  0  0  0
  6  5  1  0  0  0  0
  6  7  1  0  0  0  0
  7  1  1  6  0  0  0
  7  3  1  0  0  0  0
  8  3  1  0  0  0  0
  9 10  2  0  0  0  0
  9 32  1  0  0  0  0
 12 11  2  0  0  0  0
 13 12  1  0  0  0  0
 14 18  1  0  0  0  0
 15 13  1  6  0  0  0
 15 22  1  0  0  0  0
 15 27  1  0  0  0  0
 17 16  1  6  0  0  0
 17 25  1  0  0  0  0
 17 26  1  0  0  0  0
 20 16  1  0  0  0  0
 22 20  1  6  0  0  0
 22 24  1  0  0  0  0
 23 21  2  0  0  0  0
 23 18  1  0  0  0  0
 24 19  1  1  0  0  0
 24 25  1  0  0  0  0
 25 23  1  1  0  0  0
 26 14  1  0  0  0  0
 27 19  1  0  0  0  0
 28 15  1  0  0  0  0
 28 31  1  0  0  0  0
 29 28  2  0  0  0  0
 30 31  1  0  0  0  0
 33 34  1  6  0  0  0
 33 32  1  0  0  0  0
 33 35  1  0  0  0  0
 35 38  1  0  0  0  0
 35 36  1  6  0  0  0
 36 37  1  0  0  0  0
 38 44  1  1  0  0  0
 39 40  1  1  0  0  0
 39 43  1  0  0  0  0
 39 38  1  0  0  0  0
 43 42  1  0  0  0  0
 43 41  2  0  0  0  0
 44 47  1  0  0  0  0
 46 51  1  0  0  0  0
 47 45  2  0  0  0  0
 47 46  1  0  0  0  0
 49 48  1  0  0  0  0
 51 49  1  0  0  0  0
 51 50  1  1  0  0  0
 51 48  1  0  0  0  0
M  END
>  <MODEL>
1

>  <REMARK>
 VINA RESULT:      -7.2      0.000      0.000
  Name = 
  15 active torsions:
  status: ('A' for Active; 'I' for Inactive)
    1  A    between atoms: C_2  and  C_4
    2  A    between atoms: C_2  and  O_13
    3  A    between atoms: C_3  and  C_23
    4  A    between atoms: C_3  and  C_46
    5  A    between atoms: C_4  and  C_50
    6  A    between atoms: C_7  and  O_9
    7  A    between atoms: C_7  and  C_10
    8  A    between atoms: C_7  and  C_23
    9  A    between atoms: C_10  and  C_11
   10  A    between atoms: C_11  and  C_44
   11  A    between atoms: O_13  and  C_49
   12  A    between atoms: C_18  and  C_49
   13  A    between atoms: C_23  and  O_28
   14  A    between atoms: N_26  and  C_48
   15  A    between atoms: O_28  and  C_32
                            x       y       z     vdW  Elec       q    Type
                         _______ _______ _______ _____ _____    ______ ____

>  <TORSDO>
F 15

$$$$
=
 OpenBabel11062412373D

 51 56  0  0  1  0  0  0  0  0999 V2000
  183.9020  176.1600  135.7750 C   0  0  0  0  0  2  0  0  0  0  0  0
  184.5510  175.2710  136.7140 N   0  0  0  0  0  0  0  0  0  0  0  0
  182.2430  175.0010  137.1290 C   0  0  1  0  0  0  0  0  0  0  0  0
  183.6230  174.4700  137.4900 C   0  0  0  0  0  2  0  0  0  0  0  0
  181.4670  173.8830  135.2010 C   0  0  0  0  0  2  0  0  0  0  0  0
  181.9990  175.1130  134.7460 O   0  0  0  0  0  0  0  0  0  0  0  0
  182.4220  175.8410  135.8760 C   0  0  2  0  0  3  0  0  0  0  0  0
  181.3290  173.9000  136.7090 C   0  0  0  0  0  2  0  0  0  0  0  0
  185.9380  175.3690  137.0550 C   0  0  0  0  0  0  0  0  0  0  0  0
  186.5870  174.3360  137.3720 O   0  0  0  0  0  0  0  0  0  0  0  0
  181.5300  175.3840  139.3920 O   0  0  0  0  0  0  0  0  0  0  0  0
  181.6480  175.8400  138.2250 C   0  0  0  0  0  0  0  0  0  0  0  0
  181.2480  177.1480  137.9340 O   0  0  0  0  0  0  0  0  0  0  0  0
  185.7590  178.9340  143.1090 C   0  0  0  0  0  2  0  0  0  0  0  0
  181.3340  178.2550  138.8520 C   0  0  2  0  0  0  0  0  0  0  0  0
  184.6370  179.7120  139.8580 O   0  0  0  0  0  0  0  0  0  0  0  0
  184.8410  178.8990  141.0040 C   0  0  2  0  0  3  0  0  0  0  0  0
  184.4890  179.1240  143.8110 N   0  0  0  0  0  2  0  0  0  0  0  0
  181.2250  178.1150  141.0750 O   0  0  0  0  0  0  0  0  0  0  0  0
  183.8730  179.0300  138.8760 C   0  0  0  0  0  2  0  0  0  0  0  0
  182.1430  178.9780  143.6360 N   0  0  0  0  0  2  0  0  0  0  0  0
  182.6760  178.3050  139.4930 C   0  0  1  0  0  3  0  0  0  0  0  0
  183.3030  178.9240  143.0570 C   0  0  0  0  0  0  0  0  0  0  0  0
  182.3490  178.8220  140.7750 N   0  0  2  0  0  0  0  0  0  0  0  0
  183.4630  178.4340  141.6390 C   0  0  1  0  0  3  0  0  0  0  0  0
  185.6980  179.6090  141.8790 O   0  0  0  0  0  0  0  0  0  0  0  0
  180.4700  178.0730  139.9620 O   0  0  0  0  0  0  0  0  0  0  0  0
  180.9340  179.5280  138.1250 C   0  0  0  0  0  0  0  0  0  0  0  0
  180.5650  180.5300  138.7330 O   0  0  0  0  0  0  0  0  0  0  0  0
  179.6230  179.6060  136.1610 O   0  0  0  0  0  1  0  0  0  0  0  0
  180.9270  179.5460  136.6270 C   0  0  0  0  0  2  0  0  0  0  0  0
  186.6160  176.7020  137.0780 C   0  0  0  0  0  2  0  0  0  0  0  0
  188.1350  176.5840  137.1960 C   0  0  1  0  0  3  0  0  0  0  0  0
  188.7400  176.5700  135.9420 O   0  0  0  0  0  1  0  0  0  0  0  0
  188.7510  177.6330  138.1310 C   0  0  2  0  0  3  0  0  0  0  0  0
  189.3310  178.6850  137.4210 O   0  0  0  0  0  0  0  0  0  0  0  0
  188.4140  179.6160  137.4060 O   0  0  0  0  0  1  0  0  0  0  0  0
  189.7140  177.0510  139.2000 C   0  0  2  0  0  3  0  0  0  0  0  0
  189.5950  177.6070  140.6200 C   0  0  1  0  0  3  0  0  0  0  0  0
  188.2760  177.6250  141.0940 O   0  0  0  0  0  1  0  0  0  0  0  0
  190.1460  175.8240  142.0550 O   0  0  0  0  0  0  0  0  0  0  0  0
  191.7700  177.4980  141.9900 C   0  0  0  0  0  1  0  0  0  0  0  0
  190.4810  176.8900  141.5800 C   0  0  0  0  0  0  0  0  0  0  0  0
  191.0720  177.1000  138.7830 O   0  0  0  0  0  0  0  0  0  0  0  0
  191.1450  174.8550  138.1740 N   0  0  0  0  0  2  0  0  0  0  0  0
  193.0940  176.1340  137.7970 N   0  0  0  0  0  2  0  0  0  0  0  0
  191.7450  176.0040  138.2430 C   0  0  0  0  0  0  0  0  0  0  0  0
  194.7970  174.3370  138.0640 C   0  0  0  0  0  2  0  0  0  0  0  0
  195.1970  175.3180  137.1260 O   0  0  0  0  0  0  0  0  0  0  0  0
  193.3020  174.3760  135.9570 C   0  0  0  0  0  1  0  0  0  0  0  0
  193.8320  175.0350  137.2100 C   0  0  2  0  0  0  0  0  0  0  0  0
  1  2  1  0  0  0  0
  2  9  1  0  0  0  0
  2  4  1  0  0  0  0
  3  4  1  0  0  0  0
  3 12  1  1  0  0  0
  5  8  1  0  0  0  0
  6  5  1  0  0  0  0
  6  7  1  0  0  0  0
  7  1  1  6  0  0  0
  7  3  1  0  0  0  0
  8  3  1  0  0  0  0
  9 32  1  0  0  0  0
  9 10  2  0  0  0  0
 12 11  2  0  0  0  0
 13 12  1  0  0  0  0
 14 18  1  0  0  0  0
 15 13  1  6  0  0  0
 15 22  1  0  0  0  0
 15 27  1  0  0  0  0
 17 16  1  6  0  0  0
 17 25  1  0  0  0  0
 17 26  1  0  0  0  0
 20 16  1  0  0  0  0
 22 20  1  6  0  0  0
 22 24  1  0  0  0  0
 23 21  2  0  0  0  0
 23 18  1  0  0  0  0
 24 19  1  1  0  0  0
 24 25  1  0  0  0  0
 25 23  1  1  0  0  0
 26 14  1  0  0  0  0
 27 19  1  0  0  0  0
 28 29  2  0  0  0  0
 28 15  1  0  0  0  0
 30 31  1  0  0  0  0
 31 28  1  0  0  0  0
 32 33  1  0  0  0  0
 33 34  1  6  0  0  0
 33 35  1  0  0  0  0
 35 36  1  6  0  0  0
 35 38  1  0  0  0  0
 37 36  1  0  0  0  0
 38 44  1  6  0  0  0
 38 39  1  0  0  0  0
 39 40  1  1  0  0  0
 39 43  1  0  0  0  0
 43 42  1  0  0  0  0
 43 41  2  0  0  0  0
 45 47  2  0  0  0  0
 46 47  1  0  0  0  0
 47 44  1  0  0  0  0
 49 51  1  0  0  0  0
 49 48  1  0  0  0  0
 51 50  1  6  0  0  0
 51 46  1  0  0  0  0
 51 48  1  0  0  0  0
M  END
>  <MODEL>
2

>  <REMARK>
 VINA RESULT:      -7.1      1.459      3.134
  Name = 
  15 active torsions:
  status: ('A' for Active; 'I' for Inactive)
    1  A    between atoms: C_2  and  C_4
    2  A    between atoms: C_2  and  O_13
    3  A    between atoms: C_3  and  C_23
    4  A    between atoms: C_3  and  C_46
    5  A    between atoms: C_4  and  C_50
    6  A    between atoms: C_7  and  O_9
    7  A    between atoms: C_7  and  C_10
    8  A    between atoms: C_7  and  C_23
    9  A    between atoms: C_10  and  C_11
   10  A    between atoms: C_11  and  C_44
   11  A    between atoms: O_13  and  C_49
   12  A    between atoms: C_18  and  C_49
   13  A    between atoms: C_23  and  O_28
   14  A    between atoms: N_26  and  C_48
   15  A    between atoms: O_28  and  C_32
                            x       y       z     vdW  Elec       q    Type
                         _______ _______ _______ _____ _____    ______ ____

>  <TORSDO>
F 15

$$$$
=
 OpenBabel11062412373D

 51 56  0  0  1  0  0  0  0  0999 V2000
  181.9150  178.6410  141.9590 C   0  0  0  0  0  2  0  0  0  0  0  0
  182.7680  178.9680  140.8380 N   0  0  0  0  0  0  0  0  0  0  0  0
  180.6510  178.5510  139.8810 C   0  0  1  0  0  0  0  0  0  0  0  0
  182.0620  179.0320  139.5720 C   0  0  0  0  0  2  0  0  0  0  0  0
  179.3520  180.3840  140.6040 C   0  0  0  0  0  2  0  0  0  0  0  0
  179.7760  179.7240  141.7810 O   0  0  0  0  0  0  0  0  0  0  0  0
  180.5090  178.5850  141.3930 C   0  0  2  0  0  3  0  0  0  0  0  0
  179.6270  179.5200  139.3920 C   0  0  0  0  0  2  0  0  0  0  0  0
  184.1980  178.9470  140.9080 C   0  0  0  0  0  0  0  0  0  0  0  0
  184.8790  179.7320  140.1960 O   0  0  0  0  0  0  0  0  0  0  0  0
  180.1210  176.2250  140.1720 O   0  0  0  0  0  0  0  0  0  0  0  0
  180.3970  177.1590  139.3740 C   0  0  0  0  0  0  0  0  0  0  0  0
  180.4520  176.9200  137.9980 O   0  0  0  0  0  0  0  0  0  0  0  0
  182.5130  170.4880  135.8290 C   0  0  0  0  0  2  0  0  0  0  0  0
  181.6080  176.4200  137.2980 C   0  0  2  0  0  0  0  0  0  0  0  0
  181.3320  173.6450  134.7950 O   0  0  0  0  0  0  0  0  0  0  0  0
  181.5630  172.5750  135.6990 C   0  0  2  0  0  3  0  0  0  0  0  0
  183.7460  170.9380  136.4770 N   0  0  0  0  0  2  0  0  0  0  0  0
  183.0800  174.9480  138.0980 O   0  0  0  0  0  0  0  0  0  0  0  0
  180.7120  174.7410  135.4460 C   0  0  0  0  0  2  0  0  0  0  0  0
  184.7740  172.6920  137.6710 N   0  0  0  0  0  2  0  0  0  0  0  0
  181.3640  175.0400  136.7970 C   0  0  1  0  0  3  0  0  0  0  0  0
  183.7530  172.2590  136.9970 C   0  0  0  0  0  0  0  0  0  0  0  0
  182.6670  174.4810  136.8880 N   0  0  2  0  0  0  0  0  0  0  0  0
  182.4610  173.0340  136.9240 C   0  0  1  0  0  3  0  0  0  0  0  0
  182.0780  171.4900  134.9470 O   0  0  0  0  0  0  0  0  0  0  0  0
  182.7050  176.2380  138.1780 O   0  0  0  0  0  0  0  0  0  0  0  0
  182.0020  177.4210  136.2240 C   0  0  0  0  0  0  0  0  0  0  0  0
  183.1600  177.5120  135.8220 O   0  0  0  0  0  0  0  0  0  0  0  0
  181.1820  179.6360  136.1960 O   0  0  0  0  0  1  0  0  0  0  0  0
  180.9710  178.3640  135.6860 C   0  0  0  0  0  2  0  0  0  0  0  0
  184.8930  177.9650  141.7970 C   0  0  0  0  0  2  0  0  0  0  0  0
  185.8350  178.6420  142.7920 C   0  0  1  0  0  3  0  0  0  0  0  0
  185.1380  179.4860  143.6530 O   0  0  0  0  0  1  0  0  0  0  0  0
  186.7330  177.6520  143.5440 C   0  0  2  0  0  3  0  0  0  0  0  0
  187.0410  178.1010  144.8280 O   0  0  0  0  0  0  0  0  0  0  0  0
  186.4300  177.2640  145.6250 O   0  0  0  0  0  1  0  0  0  0  0  0
  188.0000  177.2140  142.7610 C   0  0  2  0  0  3  0  0  0  0  0  0
  189.1700  176.6670  143.5800 C   0  0  1  0  0  3  0  0  0  0  0  0
  189.7530  175.5270  143.0100 O   0  0  0  0  0  1  0  0  0  0  0  0
  189.9790  178.6370  144.5830 O   0  0  0  0  0  0  0  0  0  0  0  0
  191.5220  177.6220  143.1570 C   0  0  0  0  0  1  0  0  0  0  0  0
  190.2070  177.7050  143.8400 C   0  0  0  0  0  0  0  0  0  0  0  0
  188.4670  178.2310  141.8850 O   0  0  0  0  0  0  0  0  0  0  0  0
  189.7870  177.5120  140.1080 N   0  0  0  0  0  2  0  0  0  0  0  0
  187.6710  178.4160  139.5770 N   0  0  0  0  0  2  0  0  0  0  0  0
  188.6700  178.0300  140.5190 C   0  0  0  0  0  0  0  0  0  0  0  0
  186.6530  177.7200  137.4130 C   0  0  0  0  0  2  0  0  0  0  0  0
  187.7050  176.8600  137.8110 O   0  0  0  0  0  0  0  0  0  0  0  0
  188.9560  178.8920  137.4230 C   0  0  0  0  0  1  0  0  0  0  0  0
  187.8210  178.2100  138.1510 C   0  0  2  0  0  0  0  0  0  0  0  0
  2  9  1  0  0  0  0
  2  1  1  0  0  0  0
  3 12  1  6  0  0  0
  3  7  1  0  0  0  0
  4  3  1  0  0  0  0
  4  2  1  0  0  0  0
  5  6  1  0  0  0  0
  7  6  1  0  0  0  0
  7  1  1  1  0  0  0
  8  3  1  0  0  0  0
  8  5  1  0  0  0  0
  9 32  1  0  0  0  0
 10  9  2  0  0  0  0
 12 11  2  0  0  0  0
 13 12  1  0  0  0  0
 14 18  1  0  0  0  0
 15 28  1  6  0  0  0
 15 13  1  0  0  0  0
 15 27  1  0  0  0  0
 16 20  1  0  0  0  0
 17 16  1  6  0  0  0
 17 25  1  0  0  0  0
 18 23  1  0  0  0  0
 19 27  1  0  0  0  0
 22 20  1  6  0  0  0
 22 24  1  0  0  0  0
 22 15  1  0  0  0  0
 23 21  2  0  0  0  0
 24 25  1  0  0  0  0
 24 19  1  1  0  0  0
 25 23  1  6  0  0  0
 26 17  1  0  0  0  0
 26 14  1  0  0  0  0
 29 28  2  0  0  0  0
 31 30  1  0  0  0  0
 31 28  1  0  0  0  0
 32 33  1  0  0  0  0
 33 35  1  0  0  0  0
 33 34  1  1  0  0  0
 35 36  1  1  0  0  0
 36 37  1  0  0  0  0
 38 44  1  1  0  0  0
 38 35  1  0  0  0  0
 38 39  1  0  0  0  0
 39 40  1  6  0  0  0
 39 43  1  0  0  0  0
 42 43  1  0  0  0  0
 43 41  2  0  0  0  0
 45 47  2  0  0  0  0
 46 47  1  0  0  0  0
 47 44  1  0  0  0  0
 48 49  1  0  0  0  0
 48 51  1  0  0  0  0
 49 51  1  0  0  0  0
 51 50  1  6  0  0  0
 51 46  1  0  0  0  0
M  END
>  <MODEL>
3

>  <REMARK>
 VINA RESULT:      -7.1      2.240      6.414
  Name = 
  15 active torsions:
  status: ('A' for Active; 'I' for Inactive)
    1  A    between atoms: C_2  and  C_4
    2  A    between atoms: C_2  and  O_13
    3  A    between atoms: C_3  and  C_23
    4  A    between atoms: C_3  and  C_46
    5  A    between atoms: C_4  and  C_50
    6  A    between atoms: C_7  and  O_9
    7  A    between atoms: C_7  and  C_10
    8  A    between atoms: C_7  and  C_23
    9  A    between atoms: C_10  and  C_11
   10  A    between atoms: C_11  and  C_44
   11  A    between atoms: O_13  and  C_49
   12  A    between atoms: C_18  and  C_49
   13  A    between atoms: C_23  and  O_28
   14  A    between atoms: N_26  and  C_48
   15  A    between atoms: O_28  and  C_32
                            x       y       z     vdW  Elec       q    Type
                         _______ _______ _______ _____ _____    ______ ____

>  <TORSDO>
F 15

$$$$
=
 OpenBabel11062412373D

 51 56  0  0  1  0  0  0  0  0999 V2000
  188.0760  178.3250  138.1910 C   0  0  0  0  0  2  0  0  0  0  0  0
  188.7570  177.0690  138.4190 N   0  0  0  0  0  0  0  0  0  0  0  0
  187.0710  176.5620  136.8470 C   0  0  1  0  0  0  0  0  0  0  0  0
  188.2780  175.9890  137.5780 C   0  0  0  0  0  2  0  0  0  0  0  0
  187.8040  177.6530  134.8870 C   0  0  0  0  0  2  0  0  0  0  0  0
  187.6330  178.6720  135.8540 O   0  0  0  0  0  0  0  0  0  0  0  0
  187.1380  178.0690  137.0280 C   0  0  2  0  0  3  0  0  0  0  0  0
  187.1830  176.3610  135.3730 C   0  0  0  0  0  2  0  0  0  0  0  0
  189.6070  176.8320  139.5470 C   0  0  0  0  0  0  0  0  0  0  0  0
  190.5810  176.0390  139.4500 O   0  0  0  0  0  0  0  0  0  0  0  0
  185.4490  174.8320  137.2360 O   0  0  0  0  0  0  0  0  0  0  0  0
  185.7710  176.0390  137.3900 C   0  0  0  0  0  0  0  0  0  0  0  0
  184.9320  176.9110  138.0910 O   0  0  0  0  0  0  0  0  0  0  0  0
  178.9740  173.0930  137.5920 C   0  0  0  0  0  2  0  0  0  0  0  0
  183.5730  177.2160  137.7200 C   0  0  2  0  0  0  0  0  0  0  0  0
  180.6650  175.5830  139.4290 O   0  0  0  0  0  0  0  0  0  0  0  0
  180.5370  174.4850  138.5380 C   0  0  2  0  0  3  0  0  0  0  0  0
  178.9320  173.7880  136.3040 N   0  0  0  0  0  2  0  0  0  0  0  0
  182.4690  176.3450  135.9890 O   0  0  0  0  0  0  0  0  0  0  0  0
  182.0100  176.0250  139.5060 C   0  0  0  0  0  2  0  0  0  0  0  0
  180.0450  175.3140  134.8930 N   0  0  0  0  0  2  0  0  0  0  0  0
  182.6580  176.1140  138.1230 C   0  0  1  0  0  3  0  0  0  0  0  0
  179.9610  174.7330  136.0500 C   0  0  0  0  0  0  0  0  0  0  0  0
  181.6860  176.1730  137.0890 N   0  0  2  0  0  0  0  0  0  0  0  0
  181.0530  174.8540  137.0830 C   0  0  1  0  0  3  0  0  0  0  0  0
  179.1940  174.0390  138.6050 O   0  0  0  0  0  0  0  0  0  0  0  0
  183.4170  177.2450  136.3110 O   0  0  0  0  0  0  0  0  0  0  0  0
  183.2060  178.5790  138.2820 C   0  0  0  0  0  0  0  0  0  0  0  0
  182.1960  179.1770  137.9160 O   0  0  0  0  0  0  0  0  0  0  0  0
  184.2100  180.5990  138.9830 O   0  0  0  0  0  1  0  0  0  0  0  0
  184.1260  179.2430  139.2580 C   0  0  0  0  0  2  0  0  0  0  0  0
  189.3200  177.4920  140.8580 C   0  0  0  0  0  2  0  0  0  0  0  0
  190.4650  177.3300  141.8570 C   0  0  1  0  0  3  0  0  0  0  0  0
  191.7020  177.5230  141.2450 O   0  0  0  0  0  1  0  0  0  0  0  0
  190.2950  178.1900  143.1160 C   0  0  2  0  0  3  0  0  0  0  0  0
  191.4480  178.9210  143.4060 O   0  0  0  0  0  0  0  0  0  0  0  0
  191.0290  179.9170  144.1430 O   0  0  0  0  0  1  0  0  0  0  0  0
  189.7690  177.4170  144.3540 C   0  0  2  0  0  3  0  0  0  0  0  0
  190.6800  176.3360  144.9390 C   0  0  1  0  0  3  0  0  0  0  0  0
  191.8010  176.0720  144.1400 O   0  0  0  0  0  1  0  0  0  0  0  0
  192.2560  176.5190  146.6780 O   0  0  0  0  0  0  0  0  0  0  0  0
  190.0880  177.0890  147.3270 C   0  0  0  0  0  1  0  0  0  0  0  0
  191.0990  176.6480  146.3340 C   0  0  0  0  0  0  0  0  0  0  0  0
  188.4710  176.8790  144.1380 O   0  0  0  0  0  0  0  0  0  0  0  0
  187.1240  177.9520  145.7030 N   0  0  0  0  0  2  0  0  0  0  0  0
  186.2830  177.7750  143.5040 N   0  0  0  0  0  2  0  0  0  0  0  0
  187.2980  177.5520  144.4810 C   0  0  0  0  0  0  0  0  0  0  0  0
  184.0180  178.5020  142.7660 C   0  0  0  0  0  2  0  0  0  0  0  0
  184.8920  179.5960  142.9690 O   0  0  0  0  0  0  0  0  0  0  0  0
  184.7080  178.7880  145.2390 C   0  0  0  0  0  1  0  0  0  0  0  0
  185.0570  178.4860  143.8010 C   0  0  2  0  0  0  0  0  0  0  0  0
  1  2  1  0  0  0  0
  2  9  1  0  0  0  0
  3  7  1  0  0  0  0
  3 12  1  1  0  0  0
  3  4  1  0  0  0  0
  4  2  1  0  0  0  0
  5  8  1  0  0  0  0
  5  6  1  0  0  0  0
  6  7  1  0  0  0  0
  7  1  1  1  0  0  0
  8  3  1  0  0  0  0
  9 32  1  0  0  0  0
 10  9  2  0  0  0  0
 11 12  2  0  0  0  0
 12 13  1  0  0  0  0
 14 26  1  0  0  0  0
 15 13  1  1  0  0  0
 15 22  1  0  0  0  0
 15 28  1  0  0  0  0
 16 20  1  0  0  0  0
 17 26  1  6  0  0  0
 17 16  1  0  0  0  0
 18 14  1  0  0  0  0
 19 27  1  0  0  0  0
 21 23  2  0  0  0  0
 22 20  1  1  0  0  0
 23 18  1  0  0  0  0
 24 19  1  6  0  0  0
 24 22  1  0  0  0  0
 25 23  1  6  0  0  0
 25 24  1  0  0  0  0
 25 17  1  0  0  0  0
 27 15  1  0  0  0  0
 28 31  1  0  0  0  0
 29 28  2  0  0  0  0
 30 31  1  0  0  0  0
 32 33  1  0  0  0  0
 33 34  1  6  0  0  0
 33 35  1  0  0  0  0
 35 36  1  1  0  0  0
 35 38  1  0  0  0  0
 36 37  1  0  0  0  0
 38 44  1  6  0  0  0
 38 39  1  0  0  0  0
 39 40  1  6  0  0  0
 39 43  1  0  0  0  0
 43 41  2  0  0  0  0
 43 42  1  0  0  0  0
 44 47  1  0  0  0  0
 46 51  1  0  0  0  0
 46 47  1  0  0  0  0
 47 45  2  0  0  0  0
 48 49  1  0  0  0  0
 48 51  1  0  0  0  0
 49 51  1  0  0  0  0
 51 50  1  1  0  0  0
M  END
>  <MODEL>
4

>  <REMARK>
 VINA RESULT:      -6.8      2.304      6.211
  Name = 
  15 active torsions:
  status: ('A' for Active; 'I' for Inactive)
    1  A    between atoms: C_2  and  C_4
    2  A    between atoms: C_2  and  O_13
    3  A    between atoms: C_3  and  C_23
    4  A    between atoms: C_3  and  C_46
    5  A    between atoms: C_4  and  C_50
    6  A    between atoms: C_7  and  O_9
    7  A    between atoms: C_7  and  C_10
    8  A    between atoms: C_7  and  C_23
    9  A    between atoms: C_10  and  C_11
   10  A    between atoms: C_11  and  C_44
   11  A    between atoms: O_13  and  C_49
   12  A    between atoms: C_18  and  C_49
   13  A    between atoms: C_23  and  O_28
   14  A    between atoms: N_26  and  C_48
   15  A    between atoms: O_28  and  C_32
                            x       y       z     vdW  Elec       q    Type
                         _______ _______ _______ _____ _____    ______ ____

>  <TORSDO>
F 15

$$$$
=
 OpenBabel11062412373D

 51 56  0  0  1  0  0  0  0  0999 V2000
  187.8150  178.3130  138.2260 C   0  0  0  0  0  2  0  0  0  0  0  0
  188.5070  177.0560  138.4080 N   0  0  0  0  0  0  0  0  0  0  0  0
  186.7820  176.5760  136.8700 C   0  0  1  0  0  0  0  0  0  0  0  0
  188.0100  175.9930  137.5560 C   0  0  0  0  0  2  0  0  0  0  0  0
  187.4580  177.7130  134.9160 C   0  0  0  0  0  2  0  0  0  0  0  0
  187.3080  178.7090  135.9100 O   0  0  0  0  0  0  0  0  0  0  0  0
  186.8470  178.0790  137.0830 C   0  0  2  0  0  3  0  0  0  0  0  0
  186.8550  176.4080  135.3890 C   0  0  0  0  0  2  0  0  0  0  0  0
  189.3870  176.7980  139.5070 C   0  0  0  0  0  0  0  0  0  0  0  0
  190.3620  176.0120  139.3660 O   0  0  0  0  0  0  0  0  0  0  0  0
  185.2290  174.8080  137.3600 O   0  0  0  0  0  0  0  0  0  0  0  0
  185.4990  176.0350  137.4360 C   0  0  0  0  0  0  0  0  0  0  0  0
  184.6160  176.9140  138.0700 O   0  0  0  0  0  0  0  0  0  0  0  0
  179.3450  179.4840  142.0630 C   0  0  0  0  0  2  0  0  0  0  0  0
  183.1800  176.8090  138.0240 C   0  0  2  0  0  0  0  0  0  0  0  0
  180.9750  179.6970  138.9440 O   0  0  0  0  0  0  0  0  0  0  0  0
  180.8370  179.3760  140.3200 C   0  0  2  0  0  3  0  0  0  0  0  0
  178.9310  178.0830  141.9770 N   0  0  0  0  0  2  0  0  0  0  0  0
  181.8890  175.9020  139.6010 O   0  0  0  0  0  0  0  0  0  0  0  0
  182.2230  179.2510  138.4370 C   0  0  0  0  0  2  0  0  0  0  0  0
  179.4790  175.9530  141.1280 N   0  0  0  0  0  2  0  0  0  0  0  0
  182.5490  177.8310  138.9030 C   0  0  1  0  0  3  0  0  0  0  0  0
  179.7260  177.2260  141.1720 C   0  0  0  0  0  0  0  0  0  0  0  0
  181.3870  177.1400  139.3370 N   0  0  2  0  0  0  0  0  0  0  0  0
  180.9770  177.8150  140.5690 C   0  0  1  0  0  3  0  0  0  0  0  0
  179.6220  179.9500  140.7680 O   0  0  0  0  0  0  0  0  0  0  0  0
  182.7320  175.5920  138.5980 O   0  0  0  0  0  0  0  0  0  0  0  0
  182.7300  176.8590  136.5730 C   0  0  0  0  0  0  0  0  0  0  0  0
  183.3360  177.5200  135.7330 O   0  0  0  0  0  0  0  0  0  0  0  0
  181.0620  176.5850  134.9240 O   0  0  0  0  0  1  0  0  0  0  0  0
  181.4830  176.1370  136.1660 C   0  0  0  0  0  2  0  0  0  0  0  0
  189.1330  177.4270  140.8400 C   0  0  0  0  0  2  0  0  0  0  0  0
  190.3260  177.2950  141.7860 C   0  0  1  0  0  3  0  0  0  0  0  0
  191.5310  177.4630  141.1090 O   0  0  0  0  0  1  0  0  0  0  0  0
  190.2190  178.1960  143.0230 C   0  0  2  0  0  3  0  0  0  0  0  0
  191.4110  178.8750  143.2760 O   0  0  0  0  0  0  0  0  0  0  0  0
  191.0800  179.8220  144.1130 O   0  0  0  0  0  1  0  0  0  0  0  0
  189.6730  177.4850  144.2890 C   0  0  2  0  0  3  0  0  0  0  0  0
  190.5700  176.4280  144.9360 C   0  0  1  0  0  3  0  0  0  0  0  0
  191.7250  176.1570  144.1890 O   0  0  0  0  0  1  0  0  0  0  0  0
  192.0880  176.7790  146.7000 O   0  0  0  0  0  0  0  0  0  0  0  0
  189.8610  177.0960  147.3170 C   0  0  0  0  0  1  0  0  0  0  0  0
  190.9300  176.7780  146.3390 C   0  0  0  0  0  0  0  0  0  0  0  0
  188.3750  176.9430  144.0820 O   0  0  0  0  0  0  0  0  0  0  0  0
  187.0570  178.2490  145.4870 N   0  0  0  0  0  2  0  0  0  0  0  0
  186.1540  177.6940  143.3770 N   0  0  0  0  0  2  0  0  0  0  0  0
  187.2020  177.6510  144.3440 C   0  0  0  0  0  0  0  0  0  0  0  0
  184.0700  178.6680  142.4220 C   0  0  0  0  0  2  0  0  0  0  0  0
  184.9420  179.6610  142.9270 O   0  0  0  0  0  0  0  0  0  0  0  0
  184.3600  178.5360  144.9860 C   0  0  0  0  0  1  0  0  0  0  0  0
  184.9250  178.4310  143.5890 C   0  0  2  0  0  0  0  0  0  0  0  0
  1  2  1  0  0  0  0
  2  9  1  0  0  0  0
  3  7  1  0  0  0  0
  3 12  1  1  0  0  0
  3  4  1  0  0  0  0
  4  2  1  0  0  0  0
  5  8  1  0  0  0  0
  5  6  1  0  0  0  0
  6  7  1  0  0  0  0
  7  1  1  1  0  0  0
  8  3  1  0  0  0  0
  9 32  1  0  0  0  0
 10  9  2  0  0  0  0
 11 12  2  0  0  0  0
 12 13  1  0  0  0  0
 15 28  1  6  0  0  0
 15 13  1  0  0  0  0
 15 27  1  0  0  0  0
 15 22  1  0  0  0  0
 17 16  1  6  0  0  0
 17 25  1  0  0  0  0
 17 26  1  0  0  0  0
 18 14  1  0  0  0  0
 20 16  1  0  0  0  0
 21 23  2  0  0  0  0
 22 20  1  6  0  0  0
 22 24  1  0  0  0  0
 23 18  1  0  0  0  0
 24 19  1  1  0  0  0
 24 25  1  0  0  0  0
 25 23  1  6  0  0  0
 26 14  1  0  0  0  0
 27 19  1  0  0  0  0
 29 28  2  0  0  0  0
 30 31  1  0  0  0  0
 31 28  1  0  0  0  0
 32 33  1  0  0  0  0
 33 34  1  6  0  0  0
 33 35  1  0  0  0  0
 35 36  1  1  0  0  0
 35 38  1  0  0  0  0
 36 37  1  0  0  0  0
 38 44  1  6  0  0  0
 38 39  1  0  0  0  0
 39 40  1  6  0  0  0
 39 43  1  0  0  0  0
 43 41  2  0  0  0  0
 43 42  1  0  0  0  0
 44 47  1  0  0  0  0
 46 51  1  0  0  0  0
 46 47  1  0  0  0  0
 47 45  2  0  0  0  0
 48 49  1  0  0  0  0
 48 51  1  0  0  0  0
 49 51  1  0  0  0  0
 51 50  1  1  0  0  0
M  END
>  <MODEL>
5

>  <REMARK>
 VINA RESULT:      -6.6      2.180      5.469
  Name = 
  15 active torsions:
  status: ('A' for Active; 'I' for Inactive)
    1  A    between atoms: C_2  and  C_4
    2  A    between atoms: C_2  and  O_13
    3  A    between atoms: C_3  and  C_23
    4  A    between atoms: C_3  and  C_46
    5  A    between atoms: C_4  and  C_50
    6  A    between atoms: C_7  and  O_9
    7  A    between atoms: C_7  and  C_10
    8  A    between atoms: C_7  and  C_23
    9  A    between atoms: C_10  and  C_11
   10  A    between atoms: C_11  and  C_44
   11  A    between atoms: O_13  and  C_49
   12  A    between atoms: C_18  and  C_49
   13  A    between atoms: C_23  and  O_28
   14  A    between atoms: N_26  and  C_48
   15  A    between atoms: O_28  and  C_32
                            x       y       z     vdW  Elec       q    Type
                         _______ _______ _______ _____ _____    ______ ____

>  <TORSDO>
F 15

$$$$
=
 OpenBabel11062412373D

 51 56  0  0  1  0  0  0  0  0999 V2000
  184.3720  174.0300  137.4830 C   0  0  0  0  0  2  0  0  0  0  0  0
  184.5790  175.1450  136.5850 N   0  0  0  0  0  0  0  0  0  0  0  0
  186.4710  173.7680  136.2780 C   0  0  1  0  0  0  0  0  0  0  0  0
  185.7640  175.0120  135.7590 C   0  0  0  0  0  2  0  0  0  0  0  0
  185.5950  171.8700  135.1840 C   0  0  0  0  0  2  0  0  0  0  0  0
  184.9250  171.9410  136.4290 O   0  0  0  0  0  0  0  0  0  0  0  0
  185.4620  173.0310  137.1420 C   0  0  2  0  0  3  0  0  0  0  0  0
  186.7770  172.8150  135.1720 C   0  0  0  0  0  2  0  0  0  0  0  0
  183.8670  176.3830  136.6960 C   0  0  0  0  0  0  0  0  0  0  0  0
  183.6230  177.0670  135.6670 O   0  0  0  0  0  0  0  0  0  0  0  0
  188.5810  173.2350  137.2980 O   0  0  0  0  0  0  0  0  0  0  0  0
  187.6920  174.1010  137.0890 C   0  0  0  0  0  0  0  0  0  0  0  0
  187.8360  175.3980  137.5920 O   0  0  0  0  0  0  0  0  0  0  0  0
  194.4340  174.0970  135.3350 C   0  0  0  0  0  2  0  0  0  0  0  0
  189.0320  176.1930  137.4780 C   0  0  2  0  0  0  0  0  0  0  0  0
  191.4070  175.7540  134.6120 O   0  0  0  0  0  0  0  0  0  0  0  0
  192.2470  174.7920  135.2320 C   0  0  2  0  0  3  0  0  0  0  0  0
  194.7330  174.7680  136.6000 N   0  0  0  0  0  2  0  0  0  0  0  0
  190.9550  175.8160  138.5440 O   0  0  0  0  0  0  0  0  0  0  0  0
  190.0770  175.6590  135.0960 C   0  0  0  0  0  2  0  0  0  0  0  0
  193.8080  175.7780  138.5190 N   0  0  0  0  0  2  0  0  0  0  0  0
  190.0370  175.5110  136.6180 C   0  0  1  0  0  3  0  0  0  0  0  0
  193.6280  175.2610  137.3430 C   0  0  0  0  0  0  0  0  0  0  0  0
  191.2500  175.9390  137.2210 N   0  0  2  0  0  0  0  0  0  0  0  0
  192.2500  174.9540  136.8100 C   0  0  1  0  0  3  0  0  0  0  0  0
  193.5190  174.8820  134.6150 O   0  0  0  0  0  0  0  0  0  0  0  0
  189.7080  176.2920  138.7210 O   0  0  0  0  0  0  0  0  0  0  0  0
  188.6510  177.5900  137.0160 C   0  0  0  0  0  0  0  0  0  0  0  0
  188.0060  177.7760  135.9870 O   0  0  0  0  0  0  0  0  0  0  0  0
  188.6360  179.9420  137.2310 O   0  0  0  0  0  1  0  0  0  0  0  0
  189.1230  178.7760  137.7990 C   0  0  0  0  0  2  0  0  0  0  0  0
  183.4430  176.8900  138.0370 C   0  0  0  0  0  2  0  0  0  0  0  0
  184.5240  177.7340  138.7120 C   0  0  1  0  0  3  0  0  0  0  0  0
  185.3960  178.2820  137.7750 O   0  0  0  0  0  1  0  0  0  0  0  0
  183.9570  178.7890  139.6710 C   0  0  2  0  0  3  0  0  0  0  0  0
  184.5450  180.0380  139.4750 O   0  0  0  0  0  0  0  0  0  0  0  0
  183.6180  180.7500  138.8900 O   0  0  0  0  0  1  0  0  0  0  0  0
  183.9670  178.3680  141.1650 C   0  0  2  0  0  3  0  0  0  0  0  0
  182.6230  178.3650  141.8960 C   0  0  1  0  0  3  0  0  0  0  0  0
  182.5860  179.2550  142.9790 O   0  0  0  0  0  1  0  0  0  0  0  0
  181.1240  179.7570  140.7320 O   0  0  0  0  0  0  0  0  0  0  0  0
  180.7490  177.4830  140.3700 C   0  0  0  0  0  1  0  0  0  0  0  0
  181.4810  178.6230  140.9740 C   0  0  0  0  0  0  0  0  0  0  0  0
  184.9190  179.1020  141.9230 O   0  0  0  0  0  0  0  0  0  0  0  0
  185.8940  178.2240  143.8450 N   0  0  0  0  0  2  0  0  0  0  0  0
  187.2080  178.2360  141.8840 N   0  0  0  0  0  2  0  0  0  0  0  0
  185.9950  178.5070  142.5820 C   0  0  0  0  0  0  0  0  0  0  0  0
  189.5130  178.4390  142.8050 C   0  0  0  0  0  2  0  0  0  0  0  0
  189.4620  177.5920  141.6730 O   0  0  0  0  0  0  0  0  0  0  0  0
  188.1550  176.2820  143.2280 C   0  0  0  0  0  1  0  0  0  0  0  0
  188.3470  177.6000  142.5140 C   0  0  2  0  0  0  0  0  0  0  0  0
  2  9  1  0  0  0  0
  2  1  1  0  0  0  0
  3 12  1  1  0  0  0
  3  7  1  0  0  0  0
  4  3  1  0  0  0  0
  4  2  1  0  0  0  0
  5  6  1  0  0  0  0
  6  7  1  0  0  0  0
  7  1  1  6  0  0  0
  8  5  1  0  0  0  0
  8  3  1  0  0  0  0
  9 32  1  0  0  0  0
 10  9  2  0  0  0  0
 12 11  2  0  0  0  0
 12 13  1  0  0  0  0
 14 18  1  0  0  0  0
 15 28  1  6  0  0  0
 15 13  1  0  0  0  0
 15 27  1  0  0  0  0
 16 20  1  0  0  0  0
 17 16  1  6  0  0  0
 17 25  1  0  0  0  0
 18 23  1  0  0  0  0
 19 27  1  0  0  0  0
 22 20  1  6  0  0  0
 22 24  1  0  0  0  0
 22 15  1  0  0  0  0
 23 21  2  0  0  0  0
 24 19  1  1  0  0  0
 25 24  1  0  0  0  0
 25 23  1  6  0  0  0
 26 17  1  0  0  0  0
 26 14  1  0  0  0  0
 28 31  1  0  0  0  0
 29 28  2  0  0  0  0
 30 31  1  0  0  0  0
 32 33  1  0  0  0  0
 33 34  1  6  0  0  0
 33 35  1  0  0  0  0
 35 36  1  1  0  0  0
 35 38  1  0  0  0  0
 37 36  1  0  0  0  0
 38 39  1  0  0  0  0
 38 44  1  1  0  0  0
 39 40  1  1  0  0  0
 41 43  2  0  0  0  0
 42 43  1  0  0  0  0
 43 39  1  0  0  0  0
 44 47  1  0  0  0  0
 46 51  1  0  0  0  0
 46 47  1  0  0  0  0
 47 45  2  0  0  0  0
 49 51  1  0  0  0  0
 49 48  1  0  0  0  0
 51 48  1  0  0  0  0
 51 50  1  1  0  0  0
M  END
>  <MODEL>
6

>  <REMARK>
 VINA RESULT:      -6.4      2.278      7.827
  Name = 
  15 active torsions:
  status: ('A' for Active; 'I' for Inactive)
    1  A    between atoms: C_2  and  C_4
    2  A    between atoms: C_2  and  O_13
    3  A    between atoms: C_3  and  C_23
    4  A    between atoms: C_3  and  C_46
    5  A    between atoms: C_4  and  C_50
    6  A    between atoms: C_7  and  O_9
    7  A    between atoms: C_7  and  C_10
    8  A    between atoms: C_7  and  C_23
    9  A    between atoms: C_10  and  C_11
   10  A    between atoms: C_11  and  C_44
   11  A    between atoms: O_13  and  C_49
   12  A    between atoms: C_18  and  C_49
   13  A    between atoms: C_23  and  O_28
   14  A    between atoms: N_26  and  C_48
   15  A    between atoms: O_28  and  C_32
                            x       y       z     vdW  Elec       q    Type
                         _______ _______ _______ _____ _____    ______ ____

>  <TORSDO>
F 15

$$$$
=
 OpenBabel11062412373D

 51 56  0  0  1  0  0  0  0  0999 V2000
  188.3190  178.8900  143.1760 C   0  0  0  0  0  2  0  0  0  0  0  0
  187.8830  177.8290  144.0570 N   0  0  0  0  0  0  0  0  0  0  0  0
  190.0650  177.2090  143.4050 C   0  0  1  0  0  0  0  0  0  0  0  0
  188.9080  176.8370  144.3220 C   0  0  0  0  0  2  0  0  0  0  0  0
  191.4330  178.7930  144.4940 C   0  0  0  0  0  2  0  0  0  0  0  0
  190.5880  179.5380  143.6380 O   0  0  0  0  0  0  0  0  0  0  0  0
  189.7910  178.6230  142.9220 C   0  0  2  0  0  3  0  0  0  0  0  0
  191.3460  177.3190  144.1620 C   0  0  0  0  0  2  0  0  0  0  0  0
  186.5100  177.6110  144.4020 C   0  0  0  0  0  0  0  0  0  0  0  0
  186.2090  177.1250  145.5250 O   0  0  0  0  0  0  0  0  0  0  0  0
  190.9300  175.2690  142.2800 O   0  0  0  0  0  0  0  0  0  0  0  0
  190.1840  176.2810  142.2280 C   0  0  0  0  0  0  0  0  0  0  0  0
  189.4340  176.5480  141.0780 O   0  0  0  0  0  0  0  0  0  0  0  0
  192.7090  173.7800  135.4270 C   0  0  0  0  0  2  0  0  0  0  0  0
  189.9700  177.0990  139.8600 C   0  0  2  0  0  0  0  0  0  0  0  0
  189.7310  175.2550  136.6060 O   0  0  0  0  0  0  0  0  0  0  0  0
  190.9720  174.5730  136.7050 C   0  0  2  0  0  3  0  0  0  0  0  0
  193.6130  174.8950  135.7160 N   0  0  0  0  0  2  0  0  0  0  0  0
  192.1070  177.0290  139.2280 O   0  0  0  0  0  0  0  0  0  0  0  0
  189.1810  175.5040  137.8900 C   0  0  0  0  0  2  0  0  0  0  0  0
  194.0450  176.7100  137.1570 N   0  0  0  0  0  2  0  0  0  0  0  0
  190.2360  176.0230  138.8680 C   0  0  1  0  0  3  0  0  0  0  0  0
  193.2450  175.7610  136.7800 C   0  0  0  0  0  0  0  0  0  0  0  0
  191.3690  176.5480  138.1910 N   0  0  2  0  0  0  0  0  0  0  0  0
  192.0170  175.3910  137.5750 C   0  0  1  0  0  3  0  0  0  0  0  0
  191.3930  174.2680  135.3870 O   0  0  0  0  0  0  0  0  0  0  0  0
  191.2590  177.6520  140.0670 O   0  0  0  0  0  0  0  0  0  0  0  0
  189.0400  178.1960  139.3670 C   0  0  0  0  0  0  0  0  0  0  0  0
  189.4270  179.0710  138.5960 O   0  0  0  0  0  0  0  0  0  0  0  0
  186.7720  178.6160  138.8600 O   0  0  0  0  0  1  0  0  0  0  0  0
  187.6350  178.2530  139.8820 C   0  0  0  0  0  2  0  0  0  0  0  0
  185.4280  177.9230  143.4190 C   0  0  0  0  0  2  0  0  0  0  0  0
  184.8940  179.3470  143.5670 C   0  0  1  0  0  3  0  0  0  0  0  0
  185.1660  180.1090  142.4340 O   0  0  0  0  0  1  0  0  0  0  0  0
  183.4130  179.3990  143.9660 C   0  0  2  0  0  3  0  0  0  0  0  0
  183.1130  178.4790  144.9710 O   0  0  0  0  0  0  0  0  0  0  0  0
  183.6150  179.0040  146.0580 O   0  0  0  0  0  1  0  0  0  0  0  0
  182.4250  179.3020  142.7740 C   0  0  2  0  0  3  0  0  0  0  0  0
  180.9440  179.5390  143.0760 C   0  0  1  0  0  3  0  0  0  0  0  0
  180.3710  180.5320  142.2690 O   0  0  0  0  0  1  0  0  0  0  0  0
  180.0910  177.5240  143.9430 O   0  0  0  0  0  0  0  0  0  0  0  0
  179.4410  177.9340  141.7400 C   0  0  0  0  0  1  0  0  0  0  0  0
  180.1470  178.2820  142.9970 C   0  0  0  0  0  0  0  0  0  0  0  0
  182.5730  178.0870  142.0510 O   0  0  0  0  0  0  0  0  0  0  0  0
  183.3020  179.0860  140.0800 N   0  0  0  0  0  2  0  0  0  0  0  0
  182.5270  176.8610  139.9330 N   0  0  0  0  0  2  0  0  0  0  0  0
  182.8230  178.0390  140.6800 C   0  0  0  0  0  0  0  0  0  0  0  0
  183.4310  175.5230  138.0360 C   0  0  0  0  0  2  0  0  0  0  0  0
  184.1570  176.7210  138.2400 O   0  0  0  0  0  0  0  0  0  0  0  0
  182.0280  177.6390  137.5530 C   0  0  0  0  0  1  0  0  0  0  0  0
  182.7860  176.7510  138.5120 C   0  0  2  0  0  0  0  0  0  0  0  0
  1  2  1  0  0  0  0
  2  4  1  0  0  0  0
  2  9  1  0  0  0  0
  3 12  1  6  0  0  0
  3  8  1  0  0  0  0
  3  4  1  0  0  0  0
  6  5  1  0  0  0  0
  7  1  1  1  0  0  0
  7  3  1  0  0  0  0
  7  6  1  0  0  0  0
  8  5  1  0  0  0  0
  9 10  2  0  0  0  0
 12 11  2  0  0  0  0
 13 12  1  0  0  0  0
 14 18  1  0  0  0  0
 15 28  1  6  0  0  0
 15 27  1  0  0  0  0
 15 13  1  0  0  0  0
 16 17  1  0  0  0  0
 16 20  1  0  0  0  0
 17 26  1  6  0  0  0
 17 25  1  0  0  0  0
 18 23  1  0  0  0  0
 19 27  1  0  0  0  0
 22 20  1  6  0  0  0
 22 15  1  0  0  0  0
 23 21  2  0  0  0  0
 24 22  1  0  0  0  0
 24 19  1  1  0  0  0
 25 23  1  6  0  0  0
 25 24  1  0  0  0  0
 26 14  1  0  0  0  0
 28 31  1  0  0  0  0
 29 28  2  0  0  0  0
 30 31  1  0  0  0  0
 32 33  1  0  0  0  0
 32  9  1  0  0  0  0
 33 34  1  6  0  0  0
 33 35  1  0  0  0  0
 35 36  1  1  0  0  0
 36 37  1  0  0  0  0
 38 44  1  1  0  0  0
 38 39  1  0  0  0  0
 38 35  1  0  0  0  0
 39 40  1  6  0  0  0
 42 43  1  0  0  0  0
 43 39  1  0  0  0  0
 43 41  2  0  0  0  0
 45 47  2  0  0  0  0
 46 47  1  0  0  0  0
 47 44  1  0  0  0  0
 48 49  1  0  0  0  0
 48 51  1  0  0  0  0
 49 51  1  0  0  0  0
 51 50  1  6  0  0  0
 51 46  1  0  0  0  0
M  END
>  <MODEL>
7

>  <REMARK>
 VINA RESULT:      -6.3      2.439      9.883
  Name = 
  15 active torsions:
  status: ('A' for Active; 'I' for Inactive)
    1  A    between atoms: C_2  and  C_4
    2  A    between atoms: C_2  and  O_13
    3  A    between atoms: C_3  and  C_23
    4  A    between atoms: C_3  and  C_46
    5  A    between atoms: C_4  and  C_50
    6  A    between atoms: C_7  and  O_9
    7  A    between atoms: C_7  and  C_10
    8  A    between atoms: C_7  and  C_23
    9  A    between atoms: C_10  and  C_11
   10  A    between atoms: C_11  and  C_44
   11  A    between atoms: O_13  and  C_49
   12  A    between atoms: C_18  and  C_49
   13  A    between atoms: C_23  and  O_28
   14  A    between atoms: N_26  and  C_48
   15  A    between atoms: O_28  and  C_32
                            x       y       z     vdW  Elec       q    Type
                         _______ _______ _______ _____ _____    ______ ____

>  <TORSDO>
F 15

$$$$
=
 OpenBabel11062412373D

 51 56  0  0  1  0  0  0  0  0999 V2000
  188.4880  179.0840  143.0970 C   0  0  0  0  0  2  0  0  0  0  0  0
  187.5380  178.0890  143.5450 N   0  0  0  0  0  0  0  0  0  0  0  0
  189.6000  176.9440  143.4310 C   0  0  1  0  0  0  0  0  0  0  0  0
  188.1450  176.8100  143.8610 C   0  0  0  0  0  2  0  0  0  0  0  0
  190.8430  177.8790  145.2050 C   0  0  0  0  0  2  0  0  0  0  0  0
  190.5440  178.9550  144.3350 O   0  0  0  0  0  0  0  0  0  0  0  0
  189.8500  178.4290  143.2280 C   0  0  2  0  0  3  0  0  0  0  0  0
  190.5300  176.5600  144.5330 C   0  0  0  0  0  2  0  0  0  0  0  0
  186.1210  178.2440  143.4160 C   0  0  0  0  0  0  0  0  0  0  0  0
  185.3470  177.7170  144.2600 O   0  0  0  0  0  0  0  0  0  0  0  0
  190.7430  175.2700  142.1400 O   0  0  0  0  0  0  0  0  0  0  0  0
  189.8920  176.1980  142.1600 C   0  0  0  0  0  0  0  0  0  0  0  0
  189.1870  176.5350  141.0000 O   0  0  0  0  0  0  0  0  0  0  0  0
  192.5890  173.9290  135.3470 C   0  0  0  0  0  2  0  0  0  0  0  0
  189.7770  177.1240  139.8250 C   0  0  2  0  0  0  0  0  0  0  0  0
  189.6070  175.4240  136.4890 O   0  0  0  0  0  0  0  0  0  0  0  0
  190.8280  174.7090  136.5990 C   0  0  2  0  0  3  0  0  0  0  0  0
  193.5070  175.0080  135.7140 N   0  0  0  0  0  2  0  0  0  0  0  0
  191.9330  177.0280  139.2620 O   0  0  0  0  0  0  0  0  0  0  0  0
  189.0190  175.6320  137.7630 C   0  0  0  0  0  2  0  0  0  0  0  0
  193.9310  176.7490  137.2450 N   0  0  0  0  0  2  0  0  0  0  0  0
  190.0520  176.0840  138.7970 C   0  0  1  0  0  3  0  0  0  0  0  0
  193.1240  175.8370  136.8000 C   0  0  0  0  0  0  0  0  0  0  0  0
  191.2190  176.6090  138.1810 N   0  0  2  0  0  0  0  0  0  0  0  0
  191.8610  175.4630  137.5380 C   0  0  1  0  0  3  0  0  0  0  0  0
  191.2860  174.4500  135.2850 O   0  0  0  0  0  0  0  0  0  0  0  0
  191.0710  177.6370  140.0980 O   0  0  0  0  0  0  0  0  0  0  0  0
  188.8900  178.2630  139.3490 C   0  0  0  0  0  0  0  0  0  0  0  0
  187.8530  178.5610  139.9360 O   0  0  0  0  0  0  0  0  0  0  0  0
  188.1460  179.1060  137.2720 O   0  0  0  0  0  1  0  0  0  0  0  0
  189.2530  179.0020  138.0990 C   0  0  0  0  0  2  0  0  0  0  0  0
  185.5480  178.9990  142.2590 C   0  0  0  0  0  2  0  0  0  0  0  0
  184.1870  178.4570  141.8230 C   0  0  1  0  0  3  0  0  0  0  0  0
  183.1590  178.9850  142.5990 O   0  0  0  0  0  1  0  0  0  0  0  0
  183.9260  178.6170  140.3190 C   0  0  2  0  0  3  0  0  0  0  0  0
  184.5490  179.7530  139.8020 O   0  0  0  0  0  0  0  0  0  0  0  0
  185.1570  179.3330  138.7240 O   0  0  0  0  0  1  0  0  0  0  0  0
  182.4290  178.5390  139.9170 C   0  0  2  0  0  3  0  0  0  0  0  0
  181.6950  177.2310  140.2170 C   0  0  1  0  0  3  0  0  0  0  0  0
  180.3280  177.4130  140.4650 O   0  0  0  0  0  1  0  0  0  0  0  0
  182.9660  175.6540  139.0160 O   0  0  0  0  0  0  0  0  0  0  0  0
  180.7950  175.9100  138.2010 C   0  0  0  0  0  1  0  0  0  0  0  0
  181.8980  176.2150  139.1450 C   0  0  0  0  0  0  0  0  0  0  0  0
  182.2200  178.9010  138.5590 O   0  0  0  0  0  0  0  0  0  0  0  0
  180.1710  179.5340  137.6540 N   0  0  0  0  0  2  0  0  0  0  0  0
  181.6490  181.2650  138.2820 N   0  0  0  0  0  2  0  0  0  0  0  0
  181.3140  179.8840  138.1610 C   0  0  0  0  0  0  0  0  0  0  0  0
  180.8070  182.8160  136.5240 C   0  0  0  0  0  2  0  0  0  0  0  0
  181.4210  183.5060  137.5960 O   0  0  0  0  0  0  0  0  0  0  0  0
  179.5070  182.5760  138.7440 C   0  0  0  0  0  1  0  0  0  0  0  0
  180.7380  182.3260  137.9040 C   0  0  2  0  0  0  0  0  0  0  0  0
  1  2  1  0  0  0  0
  2  4  1  0  0  0  0
  3 12  1  6  0  0  0
  3  4  1  0  0  0  0
  3  8  1  0  0  0  0
  6  5  1  0  0  0  0
  7  1  1  1  0  0  0
  7  3  1  0  0  0  0
  7  6  1  0  0  0  0
  8  5  1  0  0  0  0
  9  2  1  0  0  0  0
  9 10  2  0  0  0  0
 11 12  2  0  0  0  0
 13 12  1  0  0  0  0
 14 18  1  0  0  0  0
 15 28  1  6  0  0  0
 15 27  1  0  0  0  0
 15 13  1  0  0  0  0
 16 17  1  0  0  0  0
 16 20  1  0  0  0  0
 17 26  1  6  0  0  0
 17 25  1  0  0  0  0
 18 23  1  0  0  0  0
 19 27  1  0  0  0  0
 22 20  1  6  0  0  0
 22 15  1  0  0  0  0
 23 21  2  0  0  0  0
 24 22  1  0  0  0  0
 24 19  1  1  0  0  0
 25 23  1  6  0  0  0
 25 24  1  0  0  0  0
 26 14  1  0  0  0  0
 28 29  2  0  0  0  0
 30 31  1  0  0  0  0
 31 28  1  0  0  0  0
 32  9  1  0  0  0  0
 33 32  1  0  0  0  0
 33 34  1  1  0  0  0
 35 36  1  1  0  0  0
 35 33  1  0  0  0  0
 37 36  1  0  0  0  0
 38 44  1  6  0  0  0
 38 39  1  0  0  0  0
 38 35  1  0  0  0  0
 39 40  1  6  0  0  0
 41 43  2  0  0  0  0
 42 43  1  0  0  0  0
 43 39  1  0  0  0  0
 45 47  2  0  0  0  0
 47 46  1  0  0  0  0
 47 44  1  0  0  0  0
 48 49  1  0  0  0  0
 48 51  1  0  0  0  0
 49 51  1  0  0  0  0
 51 46  1  0  0  0  0
 51 50  1  1  0  0  0
M  END
>  <MODEL>
8

>  <REMARK>
 VINA RESULT:      -6.2      2.340      9.798
  Name = 
  15 active torsions:
  status: ('A' for Active; 'I' for Inactive)
    1  A    between atoms: C_2  and  C_4
    2  A    between atoms: C_2  and  O_13
    3  A    between atoms: C_3  and  C_23
    4  A    between atoms: C_3  and  C_46
    5  A    between atoms: C_4  and  C_50
    6  A    between atoms: C_7  and  O_9
    7  A    between atoms: C_7  and  C_10
    8  A    between atoms: C_7  and  C_23
    9  A    between atoms: C_10  and  C_11
   10  A    between atoms: C_11  and  C_44
   11  A    between atoms: O_13  and  C_49
   12  A    between atoms: C_18  and  C_49
   13  A    between atoms: C_23  and  O_28
   14  A    between atoms: N_26  and  C_48
   15  A    between atoms: O_28  and  C_32
                            x       y       z     vdW  Elec       q    Type
                         _______ _______ _______ _____ _____    ______ ____

>  <TORSDO>
F 15

$$$$
=
 OpenBabel11062412373D

 51 56  0  0  1  0  0  0  0  0999 V2000
  182.3580  178.5200  142.0490 C   0  0  0  0  0  2  0  0  0  0  0  0
  183.5850  178.8210  141.3450 N   0  0  0  0  0  0  0  0  0  0  0  0
  182.0260  178.3190  139.6460 C   0  0  1  0  0  0  0  0  0  0  0  0
  183.4410  178.8180  139.9020 C   0  0  0  0  0  2  0  0  0  0  0  0
  180.5390  180.1500  139.7080 C   0  0  0  0  0  2  0  0  0  0  0  0
  180.4620  179.5470  140.9860 O   0  0  0  0  0  0  0  0  0  0  0  0
  181.2930  178.4090  140.9740 C   0  0  2  0  0  3  0  0  0  0  0  0
  181.2770  179.2440  138.7460 C   0  0  0  0  0  2  0  0  0  0  0  0
  184.8690  178.8330  141.9790 C   0  0  0  0  0  0  0  0  0  0  0  0
  185.7740  179.6040  141.5610 O   0  0  0  0  0  0  0  0  0  0  0  0
  182.4070  175.9560  139.8690 O   0  0  0  0  0  0  0  0  0  0  0  0
  182.0010  176.9020  139.1440 C   0  0  0  0  0  0  0  0  0  0  0  0
  181.4980  176.6460  137.8650 O   0  0  0  0  0  0  0  0  0  0  0  0
  188.2380  174.6550  136.9020 C   0  0  0  0  0  2  0  0  0  0  0  0
  182.3080  176.3770  136.7040 C   0  0  2  0  0  0  0  0  0  0  0  0
  184.8680  173.6400  136.6950 O   0  0  0  0  0  0  0  0  0  0  0  0
  185.9640  174.4290  137.1330 C   0  0  2  0  0  3  0  0  0  0  0  0
  188.1710  175.7680  135.9540 N   0  0  0  0  0  2  0  0  0  0  0  0
  184.1500  177.4890  136.1160 O   0  0  0  0  0  0  0  0  0  0  0  0
  183.6420  174.1370  137.2080 C   0  0  0  0  0  2  0  0  0  0  0  0
  186.7990  177.4620  135.0560 N   0  0  0  0  0  2  0  0  0  0  0  0
  183.5540  175.6600  137.0870 C   0  0  1  0  0  3  0  0  0  0  0  0
  186.9120  176.4070  135.8020 C   0  0  0  0  0  0  0  0  0  0  0  0
  184.4690  176.1660  136.1250 N   0  0  2  0  0  0  0  0  0  0  0  0
  185.7940  175.9470  136.7050 C   0  0  1  0  0  3  0  0  0  0  0  0
  187.1470  173.8020  136.6710 O   0  0  0  0  0  0  0  0  0  0  0  0
  182.8070  177.5760  136.1340 O   0  0  0  0  0  0  0  0  0  0  0  0
  181.4590  175.6600  135.6680 C   0  0  0  0  0  0  0  0  0  0  0  0
  181.9570  175.1540  134.6640 O   0  0  0  0  0  0  0  0  0  0  0  0
  179.3870  175.0040  134.7430 O   0  0  0  0  0  1  0  0  0  0  0  0
  179.9720  175.6190  135.8390 C   0  0  0  0  0  2  0  0  0  0  0  0
  185.1570  177.9040  143.1150 C   0  0  0  0  0  2  0  0  0  0  0  0
  185.7990  178.6170  144.3050 C   0  0  1  0  0  3  0  0  0  0  0  0
  184.8680  178.8540  145.3140 O   0  0  0  0  0  1  0  0  0  0  0  0
  187.0580  177.9110  144.8250 C   0  0  2  0  0  3  0  0  0  0  0  0
  187.3240  178.2360  146.1560 O   0  0  0  0  0  0  0  0  0  0  0  0
  187.3090  177.0890  146.7830 O   0  0  0  0  0  1  0  0  0  0  0  0
  188.3080  178.0840  143.9220 C   0  0  2  0  0  3  0  0  0  0  0  0
  188.7630  176.8620  143.1220 C   0  0  1  0  0  3  0  0  0  0  0  0
  187.8810  175.7780  143.2270 O   0  0  0  0  0  1  0  0  0  0  0  0
  188.1810  177.7820  141.0350 O   0  0  0  0  0  0  0  0  0  0  0  0
  190.2780  176.7600  141.0450 C   0  0  0  0  0  1  0  0  0  0  0  0
  189.0140  177.1900  141.6900 C   0  0  0  0  0  0  0  0  0  0  0  0
  189.4140  178.6240  144.6340 O   0  0  0  0  0  0  0  0  0  0  0  0
  191.6940  178.1850  144.4860 N   0  0  0  0  0  2  0  0  0  0  0  0
  190.4130  176.7540  145.8590 N   0  0  0  0  0  2  0  0  0  0  0  0
  190.5370  177.8730  144.9840 C   0  0  0  0  0  0  0  0  0  0  0  0
  191.6870  175.6640  147.7000 C   0  0  0  0  0  2  0  0  0  0  0  0
  192.4310  176.6870  147.0680 O   0  0  0  0  0  0  0  0  0  0  0  0
  192.2660  175.1080  145.2450 C   0  0  0  0  0  1  0  0  0  0  0  0
  191.5480  175.9540  146.2700 C   0  0  2  0  0  0  0  0  0  0  0  0
  2  9  1  0  0  0  0
  2  1  1  0  0  0  0
  3 12  1  6  0  0  0
  3  4  1  0  0  0  0
  3  7  1  0  0  0  0
  4  2  1  0  0  0  0
  5  6  1  0  0  0  0
  7  6  1  0  0  0  0
  7  1  1  1  0  0  0
  8  3  1  0  0  0  0
  8  5  1  0  0  0  0
  9 32  1  0  0  0  0
 10  9  2  0  0  0  0
 12 11  2  0  0  0  0
 13 12  1  0  0  0  0
 15 28  1  6  0  0  0
 15 22  1  0  0  0  0
 15 13  1  0  0  0  0
 16 17  1  0  0  0  0
 16 20  1  0  0  0  0
 17 26  1  6  0  0  0
 18 14  1  0  0  0  0
 19 27  1  0  0  0  0
 21 23  2  0  0  0  0
 22 20  1  6  0  0  0
 23 18  1  0  0  0  0
 24 19  1  1  0  0  0
 24 25  1  0  0  0  0
 24 22  1  0  0  0  0
 25 23  1  6  0  0  0
 25 17  1  0  0  0  0
 26 14  1  0  0  0  0
 27 15  1  0  0  0  0
 28 31  1  0  0  0  0
 29 28  2  0  0  0  0
 30 31  1  0  0  0  0
 32 33  1  0  0  0  0
 33 35  1  0  0  0  0
 33 34  1  1  0  0  0
 35 36  1  1  0  0  0
 36 37  1  0  0  0  0
 38 44  1  1  0  0  0
 38 35  1  0  0  0  0
 39 40  1  6  0  0  0
 39 38  1  0  0  0  0
 41 43  2  0  0  0  0
 42 43  1  0  0  0  0
 43 39  1  0  0  0  0
 44 47  1  0  0  0  0
 45 47  2  0  0  0  0
 46 51  1  0  0  0  0
 47 46  1  0  0  0  0
 49 48  1  0  0  0  0
 51 50  1  6  0  0  0
 51 49  1  0  0  0  0
 51 48  1  0  0  0  0
M  END
>  <MODEL>
9

>  <REMARK>
 VINA RESULT:      -6.2      2.173      6.046
  Name = 
  15 active torsions:
  status: ('A' for Active; 'I' for Inactive)
    1  A    between atoms: C_2  and  C_4
    2  A    between atoms: C_2  and  O_13
    3  A    between atoms: C_3  and  C_23
    4  A    between atoms: C_3  and  C_46
    5  A    between atoms: C_4  and  C_50
    6  A    between atoms: C_7  and  O_9
    7  A    between atoms: C_7  and  C_10
    8  A    between atoms: C_7  and  C_23
    9  A    between atoms: C_10  and  C_11
   10  A    between atoms: C_11  and  C_44
   11  A    between atoms: O_13  and  C_49
   12  A    between atoms: C_18  and  C_49
   13  A    between atoms: C_23  and  O_28
   14  A    between atoms: N_26  and  C_48
   15  A    between atoms: O_28  and  C_32
                            x       y       z     vdW  Elec       q    Type
                         _______ _______ _______ _____ _____    ______ ____

>  <TORSDO>
F 15

$$$$
