=
 OpenBabel11062415003D

 31 34  0  0  1  0  0  0  0  0999 V2000
  189.8050  175.0510  137.5280 C   0  0  1  0  0  3  0  0  0  0  0  0
  189.6470  176.6250  141.1020 C   0  0  0  0  0  3  0  0  0  0  0  0
  188.1950  178.5970  141.3780 C   0  0  0  0  0  2  0  0  0  0  0  0
  188.7590  177.2860  141.8530 C   0  0  0  0  0  0  0  0  0  0  0  0
  186.1590  178.8790  140.2100 O   0  0  0  0  0  0  0  0  0  0  0  0
  189.1440  176.4470  137.4330 C   0  0  2  0  0  3  0  0  0  0  0  0
  187.7960  177.7440  138.9250 C   0  0  0  0  0  0  0  0  0  0  0  0
  186.7340  177.6970  137.4910 S   0  0  0  0  0  0  0  0  0  0  0  0
  187.3280  178.4150  140.1670 C   0  0  0  0  0  0  0  0  0  0  0  0
  188.9650  177.1110  138.7690 C   0  0  0  0  0  0  0  0  0  0  0  0
  190.0830  177.1640  139.7740 C   0  0  0  0  0  2  0  0  0  0  0  0
  187.7450  176.3450  136.8280 C   0  0  0  0  0  2  0  0  0  0  0  0
  188.3300  176.6920  143.1600 C   0  0  0  0  0  3  0  0  0  0  0  0
  187.0880  177.3850  143.6870 C   0  0  0  0  0  1  0  0  0  0  0  0
  189.4460  176.7770  144.1840 C   0  0  0  0  0  1  0  0  0  0  0  0
  189.5550  171.2780  134.5940 N   0  0  0  0  0  1  0  0  0  0  0  0
  185.3100  173.0000  138.0050 N   0  0  0  0  0  1  0  0  0  0  0  0
  186.3970  172.3870  136.0280 N   0  0  0  0  0  0  0  0  0  0  0  0
  186.4440  173.0440  137.1480 C   0  0  0  0  0  0  0  0  0  0  0  0
  189.4440  173.0600  136.1870 C   0  0  0  0  0  3  0  0  0  0  0  0
  188.9140  173.9350  137.0450 C   0  0  0  0  0  0  0  0  0  0  0  0
  187.4330  172.3570  135.0090 C   0  0  0  0  0  2  0  0  0  0  0  0
  187.5650  173.8540  137.5460 N   0  0  0  0  0  2  0  0  0  0  0  0
  188.7300  171.8870  135.6210 C   0  0  1  0  0  3  0  0  0  0  0  0
  191.1930  175.0060  136.8600 C   0  0  1  0  0  3  0  0  0  0  0  0
  192.7340  176.0060  135.1400 C   0  0  0  0  0  2  0  0  0  0  0  0
  191.3640  176.1080  135.8050 C   0  0  1  0  0  3  0  0  0  0  0  0
  193.8430  176.0700  136.1850 C   0  0  0  0  0  2  0  0  0  0  0  0
  190.3750  175.9900  134.8280 O   0  0  0  0  0  1  0  0  0  0  0  0
  193.6840  174.9290  137.1820 C   0  0  0  0  0  2  0  0  0  0  0  0
  192.3360  175.0340  137.8840 C   0  0  0  0  0  2  0  0  0  0  0  0
  1 21  1  6  0  0  0
  2  4  2  0  0  0  0
  3  4  1  0  0  0  0
  4 13  1  0  0  0  0
  6  1  1  1  0  0  0
  6 10  1  0  0  0  0
  7  9  1  0  0  0  0
  8  7  1  0  0  0  0
  9  5  2  0  0  0  0
  9  3  1  0  0  0  0
 10  7  2  0  0  0  0
 10 11  1  0  0  0  0
 11  2  1  0  0  0  0
 12  6  1  0  0  0  0
 12  8  1  0  0  0  0
 13 14  1  0  0  0  0
 13 15  1  0  0  0  0
 18 19  2  0  0  0  0
 19 23  1  0  0  0  0
 19 17  1  0  0  0  0
 20 21  2  0  0  0  0
 21 23  1  0  0  0  0
 22 24  1  0  0  0  0
 22 18  1  0  0  0  0
 24 16  1  6  0  0  0
 24 20  1  0  0  0  0
 25  1  1  1  0  0  0
 25 31  1  0  0  0  0
 26 27  1  0  0  0  0
 26 28  1  0  0  0  0
 27 29  1  6  0  0  0
 27 25  1  0  0  0  0
 28 30  1  0  0  0  0
 30 31  1  0  0  0  0
M  END
>  <MODEL>
1

>  <REMARK>
 VINA RESULT:      -6.6      0.000      0.000
  Name = 
  4 active torsions:
  status: ('A' for Active; 'I' for Inactive)
    1  A    between atoms: C_3  and  C_6
    2  A    between atoms: C_6  and  C_17
    3  A    between atoms: C_6  and  C_25
    4  A    between atoms: C_8  and  C_11
                            x       y       z     vdW  Elec       q    Type
                         _______ _______ _______ _____ _____    ______ ____

>  <TORSDO>
F 4

$$$$
=
 OpenBabel11062415003D

 31 34  0  0  1  0  0  0  0  0999 V2000
  182.8900  177.9870  139.2490 C   0  0  1  0  0  3  0  0  0  0  0  0
  186.4390  177.5950  137.6610 C   0  0  0  0  0  3  0  0  0  0  0  0
  188.3470  178.3650  139.0160 C   0  0  0  0  0  2  0  0  0  0  0  0
  187.6920  177.3870  138.0800 C   0  0  0  0  0  0  0  0  0  0  0  0
  188.4210  178.1810  141.3720 O   0  0  0  0  0  0  0  0  0  0  0  0
  183.9010  178.8240  140.0690 C   0  0  2  0  0  3  0  0  0  0  0  0
  186.2320  178.5860  140.5580 C   0  0  0  0  0  0  0  0  0  0  0  0
  185.5660  178.6960  142.2110 S   0  0  0  0  0  0  0  0  0  0  0  0
  187.6890  178.3610  140.3640 C   0  0  0  0  0  0  0  0  0  0  0  0
  185.3170  178.6820  139.5850 C   0  0  0  0  0  0  0  0  0  0  0  0
  185.6610  178.7880  138.1250 C   0  0  0  0  0  2  0  0  0  0  0  0
  183.9150  178.3800  141.5310 C   0  0  0  0  0  2  0  0  0  0  0  0
  188.4190  176.1630  137.6130 C   0  0  0  0  0  3  0  0  0  0  0  0
  189.8840  176.2240  138.0040 C   0  0  0  0  0  1  0  0  0  0  0  0
  188.2890  175.9970  136.1110 C   0  0  0  0  0  1  0  0  0  0  0  0
  179.7750  174.3980  139.8140 N   0  0  0  0  0  1  0  0  0  0  0  0
  179.8770  179.1170  143.0290 N   0  0  0  0  0  1  0  0  0  0  0  0
  179.0090  177.4630  141.6220 N   0  0  0  0  0  0  0  0  0  0  0  0
  179.9980  178.2590  141.9010 C   0  0  0  0  0  0  0  0  0  0  0  0
  181.2480  176.2830  139.7910 C   0  0  0  0  0  3  0  0  0  0  0  0
  181.7180  177.5020  140.0650 C   0  0  0  0  0  0  0  0  0  0  0  0
  178.9320  176.5600  140.4860 C   0  0  0  0  0  2  0  0  0  0  0  0
  181.1910  178.3530  141.1010 N   0  0  0  0  0  2  0  0  0  0  0  0
  180.1190  175.6280  140.5000 C   0  0  1  0  0  3  0  0  0  0  0  0
  182.4350  178.7030  137.9620 C   0  0  1  0  0  3  0  0  0  0  0  0
  181.6310  178.4580  135.5900 C   0  0  0  0  0  2  0  0  0  0  0  0
  182.0370  177.7120  136.8590 C   0  0  1  0  0  3  0  0  0  0  0  0
  180.4990  179.4360  135.8820 C   0  0  0  0  0  2  0  0  0  0  0  0
  183.1090  176.8690  136.5660 O   0  0  0  0  0  1  0  0  0  0  0  0
  180.9430  180.4450  136.9350 C   0  0  0  0  0  2  0  0  0  0  0  0
  181.3180  179.7230  138.2230 C   0  0  0  0  0  2  0  0  0  0  0  0
  1 21  1  1  0  0  0
  2  4  2  0  0  0  0
  2 11  1  0  0  0  0
  3  9  1  0  0  0  0
  4  3  1  0  0  0  0
  6  1  1  6  0  0  0
  6 12  1  0  0  0  0
  7  8  1  0  0  0  0
  9  7  1  0  0  0  0
  9  5  2  0  0  0  0
 10  6  1  0  0  0  0
 10  7  2  0  0  0  0
 11 10  1  0  0  0  0
 12  8  1  0  0  0  0
 13 14  1  0  0  0  0
 13  4  1  0  0  0  0
 15 13  1  0  0  0  0
 18 19  2  0  0  0  0
 19 17  1  0  0  0  0
 20 21  2  0  0  0  0
 20 24  1  0  0  0  0
 21 23  1  0  0  0  0
 22 24  1  0  0  0  0
 22 18  1  0  0  0  0
 23 19  1  0  0  0  0
 24 16  1  6  0  0  0
 25 31  1  0  0  0  0
 25  1  1  1  0  0  0
 26 28  1  0  0  0  0
 26 27  1  0  0  0  0
 27 29  1  6  0  0  0
 27 25  1  0  0  0  0
 28 30  1  0  0  0  0
 30 31  1  0  0  0  0
M  END
>  <MODEL>
2

>  <REMARK>
 VINA RESULT:      -6.0      5.409      8.414
  Name = 
  4 active torsions:
  status: ('A' for Active; 'I' for Inactive)
    1  A    between atoms: C_3  and  C_6
    2  A    between atoms: C_6  and  C_17
    3  A    between atoms: C_6  and  C_25
    4  A    between atoms: C_8  and  C_11
                            x       y       z     vdW  Elec       q    Type
                         _______ _______ _______ _____ _____    ______ ____

>  <TORSDO>
F 4

$$$$
=
 OpenBabel11062415003D

 31 34  0  0  1  0  0  0  0  0999 V2000
  182.6330  178.1870  139.2430 C   0  0  1  0  0  3  0  0  0  0  0  0
  185.9420  177.2640  137.3790 C   0  0  0  0  0  3  0  0  0  0  0  0
  188.0440  178.0140  138.4220 C   0  0  0  0  0  2  0  0  0  0  0  0
  187.2130  176.9930  137.6960 C   0  0  0  0  0  0  0  0  0  0  0  0
  188.3620  178.1200  140.7630 O   0  0  0  0  0  0  0  0  0  0  0  0
  183.7930  179.0190  139.8390 C   0  0  2  0  0  3  0  0  0  0  0  0
  186.1370  178.6250  140.1220 C   0  0  0  0  0  0  0  0  0  0  0  0
  185.6690  179.0030  141.8030 S   0  0  0  0  0  0  0  0  0  0  0  0
  187.5410  178.2410  139.8170 C   0  0  0  0  0  0  0  0  0  0  0  0
  185.1310  178.6850  139.2410 C   0  0  0  0  0  0  0  0  0  0  0  0
  185.3190  178.5740  137.7520 C   0  0  0  0  0  2  0  0  0  0  0  0
  183.9320  178.7630  141.3390 C   0  0  0  0  0  2  0  0  0  0  0  0
  187.7820  175.6570  137.3270 C   0  0  0  0  0  3  0  0  0  0  0  0
  188.7680  175.7880  136.1810 C   0  0  0  0  0  1  0  0  0  0  0  0
  186.6800  174.6830  136.9560 C   0  0  0  0  0  1  0  0  0  0  0  0
  179.8150  180.8800  142.0190 N   0  0  0  0  0  1  0  0  0  0  0  0
  178.9700  175.3270  140.9870 N   0  0  0  0  0  1  0  0  0  0  0  0
  179.2790  177.2850  142.2270 N   0  0  0  0  0  0  0  0  0  0  0  0
  179.6350  176.5650  141.2050 C   0  0  0  0  0  0  0  0  0  0  0  0
  181.0120  179.3400  140.6340 C   0  0  0  0  0  3  0  0  0  0  0  0
  181.4010  178.1740  140.1120 C   0  0  0  0  0  0  0  0  0  0  0  0
  179.8780  178.5450  142.6360 C   0  0  0  0  0  2  0  0  0  0  0  0
  180.7000  176.9310  140.3090 N   0  0  0  0  0  2  0  0  0  0  0  0
  179.8150  179.5290  141.4920 C   0  0  1  0  0  3  0  0  0  0  0  0
  182.3060  178.5820  137.7900 C   0  0  1  0  0  3  0  0  0  0  0  0
  181.4590  177.8270  135.5440 C   0  0  0  0  0  2  0  0  0  0  0  0
  181.7320  177.4070  136.9850 C   0  0  1  0  0  3  0  0  0  0  0  0
  180.5200  179.0280  135.5040 C   0  0  0  0  0  2  0  0  0  0  0  0
  182.6350  176.3430  136.9850 O   0  0  0  0  0  1  0  0  0  0  0  0
  181.1430  180.1980  136.2570 C   0  0  0  0  0  2  0  0  0  0  0  0
  181.3900  179.8110  137.7100 C   0  0  0  0  0  2  0  0  0  0  0  0
  1 21  1  1  0  0  0
  2  4  2  0  0  0  0
  2 11  1  0  0  0  0
  3  9  1  0  0  0  0
  4  3  1  0  0  0  0
  6  1  1  6  0  0  0
  6 12  1  0  0  0  0
  7  8  1  0  0  0  0
  9  7  1  0  0  0  0
  9  5  2  0  0  0  0
 10  6  1  0  0  0  0
 10  7  2  0  0  0  0
 11 10  1  0  0  0  0
 12  8  1  0  0  0  0
 13  4  1  0  0  0  0
 14 13  1  0  0  0  0
 15 13  1  0  0  0  0
 17 19  1  0  0  0  0
 18 22  1  0  0  0  0
 19 18  2  0  0  0  0
 20 24  1  0  0  0  0
 21 23  1  0  0  0  0
 21 20  2  0  0  0  0
 23 19  1  0  0  0  0
 24 16  1  1  0  0  0
 24 22  1  0  0  0  0
 25  1  1  1  0  0  0
 26 27  1  0  0  0  0
 27 29  1  6  0  0  0
 27 25  1  0  0  0  0
 28 26  1  0  0  0  0
 28 30  1  0  0  0  0
 30 31  1  0  0  0  0
 31 25  1  0  0  0  0
M  END
>  <MODEL>
3

>  <REMARK>
 VINA RESULT:      -5.9      5.492      8.856
  Name = 
  4 active torsions:
  status: ('A' for Active; 'I' for Inactive)
    1  A    between atoms: C_3  and  C_6
    2  A    between atoms: C_6  and  C_17
    3  A    between atoms: C_6  and  C_25
    4  A    between atoms: C_8  and  C_11
                            x       y       z     vdW  Elec       q    Type
                         _______ _______ _______ _____ _____    ______ ____

>  <TORSDO>
F 4

$$$$
=
 OpenBabel11062415003D

 31 34  0  0  1  0  0  0  0  0999 V2000
  185.5410  177.4990  138.7280 C   0  0  1  0  0  3  0  0  0  0  0  0
  186.5720  178.2530  142.4220 C   0  0  0  0  0  3  0  0  0  0  0  0
  184.8720  179.3270  143.8460 C   0  0  0  0  0  2  0  0  0  0  0  0
  185.9780  178.3330  143.6170 C   0  0  0  0  0  0  0  0  0  0  0  0
  182.5580  178.8810  143.6600 O   0  0  0  0  0  0  0  0  0  0  0  0
  184.5050  178.4650  139.3500 C   0  0  2  0  0  3  0  0  0  0  0  0
  183.6730  178.7910  141.5710 C   0  0  0  0  0  0  0  0  0  0  0  0
  182.1440  178.5180  140.6910 S   0  0  0  0  0  0  0  0  0  0  0  0
  183.6510  178.9840  143.0450 C   0  0  0  0  0  0  0  0  0  0  0  0
  184.7680  178.7620  140.8000 C   0  0  0  0  0  0  0  0  0  0  0  0
  186.1410  179.1330  141.2880 C   0  0  0  0  0  2  0  0  0  0  0  0
  183.1010  177.8640  139.2960 C   0  0  0  0  0  2  0  0  0  0  0  0
  186.4230  177.4110  144.7110 C   0  0  0  0  0  3  0  0  0  0  0  0
  186.1020  177.9960  146.0740 C   0  0  0  0  0  1  0  0  0  0  0  0
  187.9090  177.1240  144.6050 C   0  0  0  0  0  1  0  0  0  0  0  0
  185.5600  173.1290  136.7750 N   0  0  0  0  0  1  0  0  0  0  0  0
  182.4890  177.5270  134.8140 N   0  0  0  0  0  1  0  0  0  0  0  0
  184.0110  175.7520  134.7820 N   0  0  0  0  0  0  0  0  0  0  0  0
  183.5500  176.7920  135.4110 C   0  0  0  0  0  0  0  0  0  0  0  0
  185.3150  175.3640  137.5940 C   0  0  0  0  0  3  0  0  0  0  0  0
  184.9760  176.6550  137.6140 C   0  0  0  0  0  0  0  0  0  0  0  0
  185.1200  174.9160  135.2090 C   0  0  0  0  0  2  0  0  0  0  0  0
  184.0880  177.2680  136.6580 N   0  0  0  0  0  2  0  0  0  0  0  0
  184.8420  174.3760  136.5910 C   0  0  1  0  0  3  0  0  0  0  0  0
  186.8380  178.2150  138.3030 C   0  0  1  0  0  3  0  0  0  0  0  0
  189.3530  178.1510  138.2390 C   0  0  0  0  0  2  0  0  0  0  0  0
  188.0910  177.3920  138.6390 C   0  0  1  0  0  3  0  0  0  0  0  0
  189.3150  178.5120  136.7580 C   0  0  0  0  0  2  0  0  0  0  0  0
  188.1340  177.1280  140.0080 O   0  0  0  0  0  1  0  0  0  0  0  0
  188.0960  179.3790  136.4660 C   0  0  0  0  0  2  0  0  0  0  0  0
  186.8220  178.6250  136.8240 C   0  0  0  0  0  2  0  0  0  0  0  0
  1 21  1  6  0  0  0
  2  4  2  0  0  0  0
  4  3  1  0  0  0  0
  4 13  1  0  0  0  0
  6  1  1  1  0  0  0
  6 10  1  0  0  0  0
  7  9  1  0  0  0  0
  8  7  1  0  0  0  0
  9  5  2  0  0  0  0
  9  3  1  0  0  0  0
 10 11  1  0  0  0  0
 10  7  2  0  0  0  0
 11  2  1  0  0  0  0
 12  6  1  0  0  0  0
 12  8  1  0  0  0  0
 13 14  1  0  0  0  0
 15 13  1  0  0  0  0
 17 19  1  0  0  0  0
 18 22  1  0  0  0  0
 18 19  2  0  0  0  0
 19 23  1  0  0  0  0
 20 21  2  0  0  0  0
 22 24  1  0  0  0  0
 23 21  1  0  0  0  0
 24 16  1  1  0  0  0
 24 20  1  0  0  0  0
 25 27  1  0  0  0  0
 25  1  1  6  0  0  0
 26 27  1  0  0  0  0
 27 29  1  1  0  0  0
 28 26  1  0  0  0  0
 30 28  1  0  0  0  0
 30 31  1  0  0  0  0
 31 25  1  0  0  0  0
M  END
>  <MODEL>
4

>  <REMARK>
 VINA RESULT:      -5.9      3.387      4.890
  Name = 
  4 active torsions:
  status: ('A' for Active; 'I' for Inactive)
    1  A    between atoms: C_3  and  C_6
    2  A    between atoms: C_6  and  C_17
    3  A    between atoms: C_6  and  C_25
    4  A    between atoms: C_8  and  C_11
                            x       y       z     vdW  Elec       q    Type
                         _______ _______ _______ _____ _____    ______ ____

>  <TORSDO>
F 4

$$$$
=
 OpenBabel11062415003D

 31 34  0  0  1  0  0  0  0  0999 V2000
  189.5100  176.7830  140.4390 C   0  0  1  0  0  3  0  0  0  0  0  0
  187.0050  178.3530  142.9950 C   0  0  0  0  0  3  0  0  0  0  0  0
  185.1270  179.6400  142.0530 C   0  0  0  0  0  2  0  0  0  0  0  0
  185.7050  178.6640  143.0410 C   0  0  0  0  0  0  0  0  0  0  0  0
  184.0600  179.0750  140.0210 O   0  0  0  0  0  0  0  0  0  0  0  0
  188.6270  177.8190  139.7040 C   0  0  2  0  0  3  0  0  0  0  0  0
  186.3780  178.5820  140.0000 C   0  0  0  0  0  0  0  0  0  0  0  0
  186.3210  178.0670  138.2920 S   0  0  0  0  0  0  0  0  0  0  0  0
  185.1440  179.0860  140.6600 C   0  0  0  0  0  0  0  0  0  0  0  0
  187.5730  178.4310  140.5840 C   0  0  0  0  0  0  0  0  0  0  0  0
  187.9030  178.9510  141.9560 C   0  0  0  0  0  2  0  0  0  0  0  0
  187.8740  177.1670  138.5450 C   0  0  0  0  0  2  0  0  0  0  0  0
  184.8410  178.0170  144.0800 C   0  0  0  0  0  3  0  0  0  0  0  0
  183.4980  178.7160  144.1760 C   0  0  0  0  0  1  0  0  0  0  0  0
  185.5260  178.0200  145.4330 C   0  0  0  0  0  1  0  0  0  0  0  0
  194.1530  177.6450  139.6540 N   0  0  0  0  0  1  0  0  0  0  0  0
  191.1310  173.5870  137.0050 N   0  0  0  0  0  1  0  0  0  0  0  0
  192.5160  175.4550  137.2500 N   0  0  0  0  0  0  0  0  0  0  0  0
  191.4570  174.8140  137.6450 C   0  0  0  0  0  0  0  0  0  0  0  0
  191.8720  176.9660  139.9080 C   0  0  0  0  0  3  0  0  0  0  0  0
  190.7150  176.3550  139.6410 C   0  0  0  0  0  0  0  0  0  0  0  0
  192.9730  176.7420  137.7490 C   0  0  0  0  0  2  0  0  0  0  0  0
  190.5680  175.3040  138.6660 N   0  0  0  0  0  2  0  0  0  0  0  0
  193.1660  176.6640  139.2440 C   0  0  1  0  0  3  0  0  0  0  0  0
  189.8960  177.2370  141.8610 C   0  0  1  0  0  3  0  0  0  0  0  0
  190.2380  176.5670  144.2620 C   0  0  0  0  0  2  0  0  0  0  0  0
  189.8910  176.0720  142.8610 C   0  0  1  0  0  3  0  0  0  0  0  0
  191.5850  177.2810  144.2600 C   0  0  0  0  0  2  0  0  0  0  0  0
  188.6300  175.4740  142.8900 O   0  0  0  0  0  1  0  0  0  0  0  0
  191.5420  178.4690  143.3050 C   0  0  0  0  0  2  0  0  0  0  0  0
  191.2320  177.9910  141.8920 C   0  0  0  0  0  2  0  0  0  0  0  0
  1 21  1  6  0  0  0
  2  4  2  0  0  0  0
  3  4  1  0  0  0  0
  4 13  1  0  0  0  0
  5  9  2  0  0  0  0
  6  1  1  1  0  0  0
  6 10  1  0  0  0  0
  7 10  2  0  0  0  0
  7  9  1  0  0  0  0
  8 12  1  0  0  0  0
  8  7  1  0  0  0  0
  9  3  1  0  0  0  0
 10 11  1  0  0  0  0
 11  2  1  0  0  0  0
 12  6  1  0  0  0  0
 13 14  1  0  0  0  0
 13 15  1  0  0  0  0
 17 19  1  0  0  0  0
 18 19  2  0  0  0  0
 18 22  1  0  0  0  0
 19 23  1  0  0  0  0
 21 20  2  0  0  0  0
 22 24  1  0  0  0  0
 23 21  1  0  0  0  0
 24 16  1  1  0  0  0
 24 20  1  0  0  0  0
 25  1  1  6  0  0  0
 25 31  1  0  0  0  0
 25 27  1  0  0  0  0
 27 29  1  1  0  0  0
 27 26  1  0  0  0  0
 28 26  1  0  0  0  0
 30 28  1  0  0  0  0
 31 30  1  0  0  0  0
M  END
>  <MODEL>
5

>  <REMARK>
 VINA RESULT:      -5.8      3.042      5.424
  Name = 
  4 active torsions:
  status: ('A' for Active; 'I' for Inactive)
    1  A    between atoms: C_3  and  C_6
    2  A    between atoms: C_6  and  C_17
    3  A    between atoms: C_6  and  C_25
    4  A    between atoms: C_8  and  C_11
                            x       y       z     vdW  Elec       q    Type
                         _______ _______ _______ _____ _____    ______ ____

>  <TORSDO>
F 4

$$$$
=
 OpenBabel11062415003D

 31 34  0  0  1  0  0  0  0  0999 V2000
  189.8030  175.2400  137.5890 C   0  0  1  0  0  3  0  0  0  0  0  0
  189.8860  176.4740  141.2970 C   0  0  0  0  0  3  0  0  0  0  0  0
  188.6630  178.5540  141.7960 C   0  0  0  0  0  2  0  0  0  0  0  0
  189.0900  177.1510  142.1310 C   0  0  0  0  0  0  0  0  0  0  0  0
  186.6480  179.1610  140.7200 O   0  0  0  0  0  0  0  0  0  0  0  0
  189.2960  176.7010  137.6420 C   0  0  2  0  0  3  0  0  0  0  0  0
  188.1260  177.9860  139.2880 C   0  0  0  0  0  0  0  0  0  0  0  0
  187.0380  178.1890  137.8880 S   0  0  0  0  0  0  0  0  0  0  0  0
  187.7590  178.5820  140.6000 C   0  0  0  0  0  0  0  0  0  0  0  0
  189.2170  177.2500  139.0400 C   0  0  0  0  0  0  0  0  0  0  0  0
  190.3530  177.0870  140.0120 C   0  0  0  0  0  2  0  0  0  0  0  0
  187.8830  176.8070  137.0730 C   0  0  0  0  0  2  0  0  0  0  0  0
  188.6240  176.4840  143.3900 C   0  0  0  0  0  3  0  0  0  0  0  0
  187.2240  176.9390  143.7550 C   0  0  0  0  0  1  0  0  0  0  0  0
  189.5780  176.7660  144.5350 C   0  0  0  0  0  1  0  0  0  0  0  0
  185.1560  174.1290  137.3010 N   0  0  0  0  0  1  0  0  0  0  0  0
  189.3220  171.3120  134.5940 N   0  0  0  0  0  1  0  0  0  0  0  0
  187.4670  171.6470  135.9780 N   0  0  0  0  0  0  0  0  0  0  0  0
  188.6360  172.0610  135.5890 C   0  0  0  0  0  0  0  0  0  0  0  0
  187.5170  174.5140  137.2160 C   0  0  0  0  0  3  0  0  0  0  0  0
  188.8100  174.2870  136.9750 C   0  0  0  0  0  0  0  0  0  0  0  0
  186.6470  172.2500  137.0150 C   0  0  0  0  0  2  0  0  0  0  0  0
  189.2960  173.2120  136.1470 N   0  0  0  0  0  2  0  0  0  0  0  0
  186.3950  173.7000  136.6810 C   0  0  1  0  0  3  0  0  0  0  0  0
  191.1930  175.1190  136.9350 C   0  0  1  0  0  3  0  0  0  0  0  0
  192.7890  176.0070  135.2040 C   0  0  0  0  0  2  0  0  0  0  0  0
  191.4200  176.1850  135.8540 C   0  0  1  0  0  3  0  0  0  0  0  0
  193.8910  176.0520  136.2570 C   0  0  0  0  0  2  0  0  0  0  0  0
  190.4340  176.0830  134.8710 O   0  0  0  0  0  1  0  0  0  0  0  0
  193.6760  174.9440  137.2820 C   0  0  0  0  0  2  0  0  0  0  0  0
  192.3280  175.1250  137.9690 C   0  0  0  0  0  2  0  0  0  0  0  0
  1 21  1  6  0  0  0
  2  4  2  0  0  0  0
  3  4  1  0  0  0  0
  4 13  1  0  0  0  0
  6  1  1  1  0  0  0
  6 10  1  0  0  0  0
  7  9  1  0  0  0  0
  8  7  1  0  0  0  0
  9  5  2  0  0  0  0
  9  3  1  0  0  0  0
 10  7  2  0  0  0  0
 10 11  1  0  0  0  0
 11  2  1  0  0  0  0
 12  6  1  0  0  0  0
 12  8  1  0  0  0  0
 13 14  1  0  0  0  0
 13 15  1  0  0  0  0
 17 19  1  0  0  0  0
 18 22  1  0  0  0  0
 19 18  2  0  0  0  0
 19 23  1  0  0  0  0
 21 20  2  0  0  0  0
 23 21  1  0  0  0  0
 24 22  1  0  0  0  0
 24 20  1  0  0  0  0
 24 16  1  1  0  0  0
 25  1  1  1  0  0  0
 25 31  1  0  0  0  0
 26 27  1  0  0  0  0
 26 28  1  0  0  0  0
 27 29  1  6  0  0  0
 27 25  1  0  0  0  0
 28 30  1  0  0  0  0
 30 31  1  0  0  0  0
M  END
>  <MODEL>
6

>  <REMARK>
 VINA RESULT:      -5.7      0.751      1.850
  Name = 
  4 active torsions:
  status: ('A' for Active; 'I' for Inactive)
    1  A    between atoms: C_3  and  C_6
    2  A    between atoms: C_6  and  C_17
    3  A    between atoms: C_6  and  C_25
    4  A    between atoms: C_8  and  C_11
                            x       y       z     vdW  Elec       q    Type
                         _______ _______ _______ _____ _____    ______ ____

>  <TORSDO>
F 4

$$$$
=
 OpenBabel11062415003D

 31 34  0  0  1  0  0  0  0  0999 V2000
  182.4710  177.1720  140.0760 C   0  0  1  0  0  3  0  0  0  0  0  0
  185.5870  177.7310  142.3680 C   0  0  0  0  0  3  0  0  0  0  0  0
  185.2870  179.2430  144.2900 C   0  0  0  0  0  2  0  0  0  0  0  0
  185.8320  177.9920  143.6560 C   0  0  0  0  0  0  0  0  0  0  0  0
  183.2680  179.4030  145.5090 O   0  0  0  0  0  0  0  0  0  0  0  0
  182.2050  178.3880  140.9950 C   0  0  2  0  0  3  0  0  0  0  0  0
  182.9100  178.9750  143.2060 C   0  0  0  0  0  0  0  0  0  0  0  0
  181.1380  179.0820  143.3940 S   0  0  0  0  0  0  0  0  0  0  0  0
  183.7910  179.2050  144.3810 C   0  0  0  0  0  0  0  0  0  0  0  0
  183.3170  178.6450  141.9740 C   0  0  0  0  0  0  0  0  0  0  0  0
  184.7560  178.6620  141.5380 C   0  0  0  0  0  2  0  0  0  0  0  0
  180.9510  178.1680  141.8390 C   0  0  0  0  0  2  0  0  0  0  0  0
  186.6430  177.0150  144.4520 C   0  0  0  0  0  3  0  0  0  0  0  0
  187.1040  177.6350  145.7580 C   0  0  0  0  0  1  0  0  0  0  0  0
  187.8390  176.5300  143.6560 C   0  0  0  0  0  1  0  0  0  0  0  0
  179.3320  173.6370  139.3200 N   0  0  0  0  0  1  0  0  0  0  0  0
  179.2800  178.6430  136.5700 N   0  0  0  0  0  1  0  0  0  0  0  0
  179.3220  176.3230  136.8620 N   0  0  0  0  0  0  0  0  0  0  0  0
  179.7630  177.4860  137.2400 C   0  0  0  0  0  0  0  0  0  0  0  0
  180.7190  175.5740  139.5540 C   0  0  0  0  0  3  0  0  0  0  0  0
  181.2650  176.7590  139.2710 C   0  0  0  0  0  0  0  0  0  0  0  0
  179.7390  175.0350  137.3920 C   0  0  0  0  0  2  0  0  0  0  0  0
  180.7530  177.6610  138.2710 N   0  0  0  0  0  2  0  0  0  0  0  0
  179.5190  175.0090  138.8850 C   0  0  1  0  0  3  0  0  0  0  0  0
  183.7160  177.3610  139.1880 C   0  0  1  0  0  3  0  0  0  0  0  0
  185.0290  176.5430  137.2040 C   0  0  0  0  0  2  0  0  0  0  0  0
  183.7640  176.3480  138.0350 C   0  0  1  0  0  3  0  0  0  0  0  0
  185.1120  177.9720  136.6800 C   0  0  0  0  0  2  0  0  0  0  0  0
  183.7500  175.0480  138.5420 O   0  0  0  0  0  1  0  0  0  0  0  0
  185.1240  178.9520  137.8470 C   0  0  0  0  0  2  0  0  0  0  0  0
  183.8510  178.8000  138.6700 C   0  0  0  0  0  2  0  0  0  0  0  0
  1 21  1  6  0  0  0
  2  4  2  0  0  0  0
  3  9  1  0  0  0  0
  4  3  1  0  0  0  0
  4 13  1  0  0  0  0
  6  1  1  1  0  0  0
  6 12  1  0  0  0  0
  6 10  1  0  0  0  0
  7  8  1  0  0  0  0
  7  9  1  0  0  0  0
  9  5  2  0  0  0  0
 10  7  2  0  0  0  0
 11 10  1  0  0  0  0
 11  2  1  0  0  0  0
 12  8  1  0  0  0  0
 13 14  1  0  0  0  0
 15 13  1  0  0  0  0
 17 19  1  0  0  0  0
 18 19  2  0  0  0  0
 18 22  1  0  0  0  0
 19 23  1  0  0  0  0
 21 20  2  0  0  0  0
 22 24  1  0  0  0  0
 23 21  1  0  0  0  0
 24 16  1  1  0  0  0
 24 20  1  0  0  0  0
 25  1  1  6  0  0  0
 26 27  1  0  0  0  0
 27 29  1  1  0  0  0
 27 25  1  0  0  0  0
 28 26  1  0  0  0  0
 28 30  1  0  0  0  0
 30 31  1  0  0  0  0
 31 25  1  0  0  0  0
M  END
>  <MODEL>
7

>  <REMARK>
 VINA RESULT:      -5.6      5.877      7.553
  Name = 
  4 active torsions:
  status: ('A' for Active; 'I' for Inactive)
    1  A    between atoms: C_3  and  C_6
    2  A    between atoms: C_6  and  C_17
    3  A    between atoms: C_6  and  C_25
    4  A    between atoms: C_8  and  C_11
                            x       y       z     vdW  Elec       q    Type
                         _______ _______ _______ _____ _____    ______ ____

>  <TORSDO>
F 4

$$$$
=
 OpenBabel11062415003D

 31 34  0  0  1  0  0  0  0  0999 V2000
  182.0920  178.3970  139.5190 C   0  0  1  0  0  3  0  0  0  0  0  0
  183.4140  175.4770  137.2830 C   0  0  0  0  0  3  0  0  0  0  0  0
  182.0090  173.4570  137.1590 C   0  0  0  0  0  2  0  0  0  0  0  0
  182.9010  174.4950  136.5350 C   0  0  0  0  0  0  0  0  0  0  0  0
  179.6460  173.5190  137.2050 O   0  0  0  0  0  0  0  0  0  0  0  0
  181.2810  177.1180  139.8340 C   0  0  2  0  0  3  0  0  0  0  0  0
  180.6270  175.2130  138.5400 C   0  0  0  0  0  0  0  0  0  0  0  0
  179.0350  175.7630  139.1300 S   0  0  0  0  0  0  0  0  0  0  0  0
  180.7100  174.0520  137.6150 C   0  0  0  0  0  0  0  0  0  0  0  0
  181.6610  175.9480  138.9710 C   0  0  0  0  0  0  0  0  0  0  0  0
  183.1000  175.5750  138.7450 C   0  0  0  0  0  2  0  0  0  0  0  0
  179.7900  177.3460  139.5930 C   0  0  0  0  0  2  0  0  0  0  0  0
  183.2190  174.4570  135.0710 C   0  0  0  0  0  3  0  0  0  0  0  0
  184.2400  173.3760  134.7680 C   0  0  0  0  0  1  0  0  0  0  0  0
  183.7320  175.8030  134.5940 C   0  0  0  0  0  1  0  0  0  0  0  0
  180.8060  180.5700  135.4520 N   0  0  0  0  0  1  0  0  0  0  0  0
  178.9310  182.0570  140.6380 N   0  0  0  0  0  1  0  0  0  0  0  0
  179.9100  182.2990  138.5280 N   0  0  0  0  0  0  0  0  0  0  0  0
  179.7860  181.5830  139.6060 C   0  0  0  0  0  0  0  0  0  0  0  0
  181.2270  179.6200  137.6080 C   0  0  0  0  0  3  0  0  0  0  0  0
  181.2520  179.5070  138.9380 C   0  0  0  0  0  0  0  0  0  0  0  0
  180.7740  182.0020  137.3980 C   0  0  0  0  0  2  0  0  0  0  0  0
  180.5080  180.3580  139.8310 N   0  0  0  0  0  2  0  0  0  0  0  0
  180.4440  180.6330  136.8550 C   0  0  1  0  0  3  0  0  0  0  0  0
  182.9270  178.8800  140.7210 C   0  0  1  0  0  3  0  0  0  0  0  0
  183.2000  178.8990  143.2220 C   0  0  0  0  0  2  0  0  0  0  0  0
  182.3700  178.3670  142.0570 C   0  0  1  0  0  3  0  0  0  0  0  0
  184.6660  178.5130  143.0560 C   0  0  0  0  0  2  0  0  0  0  0  0
  181.0480  178.7850  142.2130 O   0  0  0  0  0  1  0  0  0  0  0  0
  185.2090  179.0880  141.7520 C   0  0  0  0  0  2  0  0  0  0  0  0
  184.4160  178.5410  140.5720 C   0  0  0  0  0  2  0  0  0  0  0  0
  1 21  1  1  0  0  0
  2 11  1  0  0  0  0
  3  9  1  0  0  0  0
  4  3  1  0  0  0  0
  4  2  2  0  0  0  0
  5  9  2  0  0  0  0
  6  1  1  6  0  0  0
  7 10  2  0  0  0  0
  7  8  1  0  0  0  0
  8 12  1  0  0  0  0
  9  7  1  0  0  0  0
 10  6  1  0  0  0  0
 11 10  1  0  0  0  0
 12  6  1  0  0  0  0
 13  4  1  0  0  0  0
 14 13  1  0  0  0  0
 15 13  1  0  0  0  0
 18 19  2  0  0  0  0
 19 23  1  0  0  0  0
 19 17  1  0  0  0  0
 20 21  2  0  0  0  0
 21 23  1  0  0  0  0
 22 18  1  0  0  0  0
 24 16  1  6  0  0  0
 24 22  1  0  0  0  0
 24 20  1  0  0  0  0
 25  1  1  6  0  0  0
 25 27  1  0  0  0  0
 27 29  1  1  0  0  0
 27 26  1  0  0  0  0
 28 26  1  0  0  0  0
 30 28  1  0  0  0  0
 31 25  1  0  0  0  0
 31 30  1  0  0  0  0
M  END
>  <MODEL>
8

>  <REMARK>
 VINA RESULT:      -5.5      6.979     10.082
  Name = 
  4 active torsions:
  status: ('A' for Active; 'I' for Inactive)
    1  A    between atoms: C_3  and  C_6
    2  A    between atoms: C_6  and  C_17
    3  A    between atoms: C_6  and  C_25
    4  A    between atoms: C_8  and  C_11
                            x       y       z     vdW  Elec       q    Type
                         _______ _______ _______ _____ _____    ______ ____

>  <TORSDO>
F 4

$$$$
=
 OpenBabel11062415003D

 31 34  0  0  1  0  0  0  0  0999 V2000
  184.2260  177.1150  138.3900 C   0  0  1  0  0  3  0  0  0  0  0  0
  185.8260  178.2300  141.7770 C   0  0  0  0  0  3  0  0  0  0  0  0
  184.3480  179.3970  143.3660 C   0  0  0  0  0  2  0  0  0  0  0  0
  185.4350  178.4090  143.0430 C   0  0  0  0  0  0  0  0  0  0  0  0
  182.0520  178.8890  143.6110 O   0  0  0  0  0  0  0  0  0  0  0  0
  183.2730  178.1140  139.0890 C   0  0  2  0  0  3  0  0  0  0  0  0
  182.8090  178.6280  141.3800 C   0  0  0  0  0  0  0  0  0  0  0  0
  181.1660  178.2440  140.7970 S   0  0  0  0  0  0  0  0  0  0  0  0
  183.0240  178.9570  142.8150 C   0  0  0  0  0  0  0  0  0  0  0  0
  183.7620  178.5490  140.4430 C   0  0  0  0  0  0  0  0  0  0  0  0
  185.1830  178.9920  140.6580 C   0  0  0  0  0  2  0  0  0  0  0  0
  181.9020  177.4830  139.3250 C   0  0  0  0  0  2  0  0  0  0  0  0
  186.0870  177.6010  144.1240 C   0  0  0  0  0  3  0  0  0  0  0  0
  185.9400  178.2840  145.4710 C   0  0  0  0  0  1  0  0  0  0  0  0
  187.5540  177.3700  143.8160 C   0  0  0  0  0  1  0  0  0  0  0  0
  184.9920  172.4920  137.4170 N   0  0  0  0  0  1  0  0  0  0  0  0
  179.8540  174.9840  137.4000 N   0  0  0  0  0  1  0  0  0  0  0  0
  181.6770  173.7570  136.6020 N   0  0  0  0  0  0  0  0  0  0  0  0
  181.2560  174.8010  137.2520 C   0  0  0  0  0  0  0  0  0  0  0  0
  184.3310  174.7340  137.9300 C   0  0  0  0  0  3  0  0  0  0  0  0
  183.5570  175.8180  138.0120 C   0  0  0  0  0  0  0  0  0  0  0  0
  183.0640  173.4350  136.3080 C   0  0  0  0  0  2  0  0  0  0  0  0
  182.1330  175.8070  137.7910 N   0  0  0  0  0  2  0  0  0  0  0  0
  183.8510  173.3690  137.5940 C   0  0  1  0  0  3  0  0  0  0  0  0
  184.9700  177.7440  137.1960 C   0  0  1  0  0  3  0  0  0  0  0  0
  187.1960  178.3050  136.1630 C   0  0  0  0  0  2  0  0  0  0  0  0
  186.4950  177.6370  137.3430 C   0  0  1  0  0  3  0  0  0  0  0  0
  186.7280  177.6940  134.8470 C   0  0  0  0  0  2  0  0  0  0  0  0
  186.9050  178.2560  138.5240 O   0  0  0  0  0  1  0  0  0  0  0  0
  185.2210  177.8700  134.6990 C   0  0  0  0  0  2  0  0  0  0  0  0
  184.5000  177.1780  135.8490 C   0  0  0  0  0  2  0  0  0  0  0  0
  1 21  1  6  0  0  0
  2  4  2  0  0  0  0
  4  3  1  0  0  0  0
  4 13  1  0  0  0  0
  6  1  1  1  0  0  0
  6 12  1  0  0  0  0
  6 10  1  0  0  0  0
  7  9  1  0  0  0  0
  8  7  1  0  0  0  0
  9  3  1  0  0  0  0
  9  5  2  0  0  0  0
 10 11  1  0  0  0  0
 10  7  2  0  0  0  0
 11  2  1  0  0  0  0
 12  8  1  0  0  0  0
 13 14  1  0  0  0  0
 15 13  1  0  0  0  0
 18 19  2  0  0  0  0
 19 17  1  0  0  0  0
 19 23  1  0  0  0  0
 20 21  2  0  0  0  0
 22 18  1  0  0  0  0
 22 24  1  0  0  0  0
 23 21  1  0  0  0  0
 24 16  1  6  0  0  0
 24 20  1  0  0  0  0
 25 27  1  0  0  0  0
 25  1  1  1  0  0  0
 26 27  1  0  0  0  0
 27 29  1  1  0  0  0
 28 26  1  0  0  0  0
 30 28  1  0  0  0  0
 30 31  1  0  0  0  0
 31 25  1  0  0  0  0
M  END
>  <MODEL>
9

>  <REMARK>
 VINA RESULT:      -5.4      4.227      5.669
  Name = 
  4 active torsions:
  status: ('A' for Active; 'I' for Inactive)
    1  A    between atoms: C_3  and  C_6
    2  A    between atoms: C_6  and  C_17
    3  A    between atoms: C_6  and  C_25
    4  A    between atoms: C_8  and  C_11
                            x       y       z     vdW  Elec       q    Type
                         _______ _______ _______ _____ _____    ______ ____

>  <TORSDO>
F 4

$$$$
