=
 OpenBabel11062413053D

 40 43  0  0  1  0  0  0  0  0999 V2000
  189.1200  177.0620  135.4050 C   0  0  2  0  0  3  0  0  0  0  0  0
  191.6050  176.0340  143.6370 C   0  0  0  0  0  2  0  0  0  0  0  0
  188.2360  178.7180  137.0750 C   0  0  0  0  0  2  0  0  0  0  0  0
  190.5890  176.5780  142.9810 C   0  0  0  0  0  0  0  0  0  0  0  0
  186.9180  177.6320  143.5330 C   0  0  0  0  0  0  0  0  0  0  0  0
  188.3090  177.5880  142.9560 C   0  0  2  0  0  3  0  0  0  0  0  0
  188.2330  176.6890  138.5040 N   0  0  0  0  0  0  0  0  0  0  0  0
  189.6270  177.6290  140.9110 N   0  0  0  0  0  2  0  0  0  0  0  0
  191.9050  177.1750  141.0790 O   0  0  0  0  0  0  0  0  0  0  0  0
  185.9450  178.1930  142.8090 C   0  0  0  0  0  3  0  0  0  0  0  0
  188.0150  177.9710  138.3660 C   0  0  0  0  0  0  0  0  0  0  0  0
  188.8930  175.7790  137.5660 C   0  0  0  0  0  2  0  0  0  0  0  0
  189.4610  178.2550  136.3030 C   0  0  0  0  0  2  0  0  0  0  0  0
  188.3690  175.9530  136.1470 C   0  0  0  0  0  2  0  0  0  0  0  0
  187.3470  178.6860  139.4120 N   0  0  0  0  0  2  0  0  0  0  0  0
  190.7660  177.1220  141.6140 C   0  0  0  0  0  0  0  0  0  0  0  0
  187.2460  178.2760  140.7830 C   0  0  0  0  0  0  0  0  0  0  0  0
  186.1730  178.5960  141.4480 N   0  0  0  0  0  0  0  0  0  0  0  0
  188.2850  177.3880  141.4350 C   0  0  2  0  0  3  0  0  0  0  0  0
  189.2150  176.5290  143.5900 C   0  0  0  0  0  2  0  0  0  0  0  0
  186.6510  177.2860  144.9640 C   0  0  0  0  0  2  0  0  0  0  0  0
  187.0040  178.4440  145.8920 C   0  0  0  0  0  2  0  0  0  0  0  0
  187.0740  177.9990  147.3480 C   0  0  0  0  0  2  0  0  0  0  0  0
  189.0790  176.5160  147.3270 O   0  0  0  0  0  0  0  0  0  0  0  0
  189.1320  178.5200  148.4350 O   0  0  0  0  0  1  0  0  0  0  0  0
  188.4790  177.6950  147.7440 C   0  0  0  0  0  0  0  0  0  0  0  0
  190.3840  176.4970  134.7780 C   0  0  0  0  0  2  0  0  0  0  0  0
  190.9740  175.4120  135.6630 C   0  0  0  0  0  2  0  0  0  0  0  0
  192.3680  175.7210  135.9650 N   0  0  0  0  0  0  0  0  0  0  0  0
  193.8880  175.1270  137.8350 C   0  0  0  0  0  0  0  0  0  0  0  0
  193.8420  176.3130  138.2560 O   0  0  0  0  0  0  0  0  0  0  0  0
  194.9670  172.9330  137.9350 C   0  0  0  0  0  0  0  0  0  0  0  0
  194.8330  174.2510  138.3800 O   0  0  0  0  0  0  0  0  0  0  0  0
  192.9000  174.6250  136.7990 C   0  0  2  0  0  3  0  0  0  0  0  0
  194.0930  172.4100  136.8310 C   0  0  2  0  0  3  0  0  0  0  0  0
  195.7870  172.1680  138.5070 O   0  0  0  0  0  0  0  0  0  0  0  0
  194.8010  171.5000  136.0450 O   0  0  0  0  0  1  0  0  0  0  0  0
  193.6130  173.5600  135.9550 C   0  0  0  0  0  2  0  0  0  0  0  0
  194.2280  176.6630  134.7110 C   0  0  0  0  0  1  0  0  0  0  0  0
  193.0410  175.7220  134.6700 C   0  0  0  0  0  2  0  0  0  0  0  0
  1 27  1  1  0  0  0
  1 14  1  0  0  0  0
  1 13  1  0  0  0  0
  3 11  1  0  0  0  0
  4 20  1  0  0  0  0
  4  2  2  0  0  0  0
  5 21  1  0  0  0  0
  6  5  1  0  0  0  0
  6 20  1  1  0  0  0
  8 19  1  0  0  0  0
  8 16  1  0  0  0  0
  9 16  2  0  0  0  0
 10  5  2  0  0  0  0
 11  7  2  0  0  0  0
 11 15  1  0  0  0  0
 12  7  1  0  0  0  0
 13  3  1  0  0  0  0
 14 12  1  0  0  0  0
 15 17  1  0  0  0  0
 16  4  1  0  0  0  0
 17 18  2  0  0  0  0
 18 10  1  0  0  0  0
 19 17  1  6  0  0  0
 19  6  1  0  0  0  0
 21 22  1  0  0  0  0
 22 23  1  0  0  0  0
 23 26  1  0  0  0  0
 24 26  2  0  0  0  0
 26 25  1  0  0  0  0
 27 28  1  0  0  0  0
 28 29  1  0  0  0  0
 30 31  2  0  0  0  0
 30 33  1  0  0  0  0
 32 33  1  0  0  0  0
 32 36  2  0  0  0  0
 34 29  1  6  0  0  0
 34 30  1  0  0  0  0
 35 37  1  6  0  0  0
 35 32  1  0  0  0  0
 38 34  1  0  0  0  0
 38 35  1  0  0  0  0
 40 39  1  0  0  0  0
 40 29  1  0  0  0  0
M  END
>  <MODEL>
1

>  <REMARK>
 VINA RESULT:      -8.4      0.000      0.000
  Name = 
  9 active torsions:
  status: ('A' for Active; 'I' for Inactive)
    1  A    between atoms: C_2  and  C_25
    2  A    between atoms: C_10  and  C_35
    3  A    between atoms: C_10  and  C_39
    4  A    between atoms: C_11  and  N_36
    5  A    between atoms: C_14  and  C_16
    6  A    between atoms: C_16  and  C_39
    7  A    between atoms: C_24  and  N_36
    8  A    between atoms: C_25  and  C_31
    9  A    between atoms: C_31  and  N_36
                            x       y       z     vdW  Elec       q    Type
                         _______ _______ _______ _____ _____    ______ ____

>  <TORSDO>
F 9

$$$$
=
 OpenBabel11062413053D

 40 43  0  0  1  0  0  0  0  0999 V2000
  179.1030  179.2390  140.8710 C   0  0  2  0  0  3  0  0  0  0  0  0
  187.7040  178.2350  140.7930 C   0  0  0  0  0  2  0  0  0  0  0  0
  180.3740  180.1670  142.8300 C   0  0  0  0  0  2  0  0  0  0  0  0
  186.7460  178.4050  141.6940 C   0  0  0  0  0  0  0  0  0  0  0  0
  186.0530  177.8140  145.4440 C   0  0  0  0  0  0  0  0  0  0  0  0
  185.9650  178.4080  144.0620 C   0  0  2  0  0  3  0  0  0  0  0  0
  181.7430  178.1420  142.4070 N   0  0  0  0  0  0  0  0  0  0  0  0
  184.4650  179.2400  142.3370 N   0  0  0  0  0  2  0  0  0  0  0  0
  185.3750  179.7220  140.2480 O   0  0  0  0  0  0  0  0  0  0  0  0
  185.0450  178.0260  146.2940 C   0  0  0  0  0  3  0  0  0  0  0  0
  181.5290  179.2340  143.0920 C   0  0  0  0  0  0  0  0  0  0  0  0
  181.0820  177.7030  141.1750 C   0  0  0  0  0  2  0  0  0  0  0  0
  180.0510  180.3410  141.3540 C   0  0  0  0  0  2  0  0  0  0  0  0
  179.5680  177.8350  141.2690 C   0  0  0  0  0  2  0  0  0  0  0  0
  182.2910  179.4780  144.2800 N   0  0  0  0  0  2  0  0  0  0  0  0
  185.5070  179.1470  141.3600 C   0  0  0  0  0  0  0  0  0  0  0  0
  183.5560  178.8870  144.6070 C   0  0  0  0  0  0  0  0  0  0  0  0
  183.8300  178.6600  145.8600 N   0  0  0  0  0  0  0  0  0  0  0  0
  184.5210  178.4140  143.5400 C   0  0  2  0  0  3  0  0  0  0  0  0
  186.8710  177.7300  143.0310 C   0  0  0  0  0  2  0  0  0  0  0  0
  187.3200  177.2070  145.9570 C   0  0  0  0  0  2  0  0  0  0  0  0
  188.3890  178.2690  146.1970 C   0  0  0  0  0  2  0  0  0  0  0  0
  189.4380  177.7980  147.1960 C   0  0  0  0  0  2  0  0  0  0  0  0
  190.4930  176.8350  145.1510 O   0  0  0  0  0  0  0  0  0  0  0  0
  191.6620  176.9400  147.1190 O   0  0  0  0  0  1  0  0  0  0  0  0
  190.5900  177.1600  146.4970 C   0  0  0  0  0  0  0  0  0  0  0  0
  178.9310  179.3160  139.3640 C   0  0  0  0  0  2  0  0  0  0  0  0
  180.1200  180.0180  138.7300 C   0  0  0  0  0  2  0  0  0  0  0  0
  179.9050  180.1620  137.2940 N   0  0  0  0  0  0  0  0  0  0  0  0
  179.6880  181.8690  135.5050 C   0  0  0  0  0  0  0  0  0  0  0  0
  179.1270  181.0230  134.7590 O   0  0  0  0  0  0  0  0  0  0  0  0
  180.7570  184.0600  135.7160 C   0  0  0  0  0  0  0  0  0  0  0  0
  180.0950  183.0900  134.9580 O   0  0  0  0  0  0  0  0  0  0  0  0
  179.8700  181.6050  136.9880 C   0  0  2  0  0  3  0  0  0  0  0  0
  181.0680  183.8110  137.1650 C   0  0  2  0  0  3  0  0  0  0  0  0
  181.0390  185.1680  135.1910 O   0  0  0  0  0  0  0  0  0  0  0  0
  182.2810  184.4110  137.5070 O   0  0  0  0  0  1  0  0  0  0  0  0
  181.1580  182.3140  137.4300 C   0  0  0  0  0  2  0  0  0  0  0  0
  181.8400  178.7450  137.7070 C   0  0  0  0  0  1  0  0  0  0  0  0
  181.0820  179.5580  136.6770 C   0  0  0  0  0  2  0  0  0  0  0  0
  1 27  1  6  0  0  0
  1 14  1  0  0  0  0
  1 13  1  0  0  0  0
  2  4  2  0  0  0  0
  3 11  1  0  0  0  0
  4 20  1  0  0  0  0
  5 21  1  0  0  0  0
  5 10  2  0  0  0  0
  6 20  1  6  0  0  0
  6  5  1  0  0  0  0
  7 11  2  0  0  0  0
  9 16  2  0  0  0  0
 11 15  1  0  0  0  0
 12 14  1  0  0  0  0
 12  7  1  0  0  0  0
 13  3  1  0  0  0  0
 15 17  1  0  0  0  0
 16  4  1  0  0  0  0
 16  8  1  0  0  0  0
 17 18  2  0  0  0  0
 18 10  1  0  0  0  0
 19  8  1  6  0  0  0
 19  6  1  0  0  0  0
 19 17  1  0  0  0  0
 21 22  1  0  0  0  0
 22 23  1  0  0  0  0
 24 26  2  0  0  0  0
 26 25  1  0  0  0  0
 26 23  1  0  0  0  0
 28 27  1  0  0  0  0
 29 28  1  0  0  0  0
 30 34  1  0  0  0  0
 31 30  2  0  0  0  0
 32 35  1  0  0  0  0
 33 30  1  0  0  0  0
 33 32  1  0  0  0  0
 34 29  1  6  0  0  0
 34 38  1  0  0  0  0
 35 38  1  0  0  0  0
 35 37  1  6  0  0  0
 36 32  2  0  0  0  0
 40 29  1  0  0  0  0
 40 39  1  0  0  0  0
M  END
>  <MODEL>
2

>  <REMARK>
 VINA RESULT:      -8.4      6.803     10.536
  Name = 
  9 active torsions:
  status: ('A' for Active; 'I' for Inactive)
    1  A    between atoms: C_2  and  C_25
    2  A    between atoms: C_10  and  C_35
    3  A    between atoms: C_10  and  C_39
    4  A    between atoms: C_11  and  N_36
    5  A    between atoms: C_14  and  C_16
    6  A    between atoms: C_16  and  C_39
    7  A    between atoms: C_24  and  N_36
    8  A    between atoms: C_25  and  C_31
    9  A    between atoms: C_31  and  N_36
                            x       y       z     vdW  Elec       q    Type
                         _______ _______ _______ _____ _____    ______ ____

>  <TORSDO>
F 9

$$$$
=
 OpenBabel11062413053D

 40 43  0  0  1  0  0  0  0  0999 V2000
  190.1550  176.3550  135.8970 C   0  0  2  0  0  3  0  0  0  0  0  0
  189.3190  176.9680  144.4950 C   0  0  0  0  0  2  0  0  0  0  0  0
  188.8130  178.2900  136.7740 C   0  0  0  0  0  2  0  0  0  0  0  0
  188.6560  177.3620  143.4160 C   0  0  0  0  0  0  0  0  0  0  0  0
  185.1150  178.4520  142.3350 C   0  0  0  0  0  0  0  0  0  0  0  0
  186.6160  178.3160  142.3460 C   0  0  2  0  0  3  0  0  0  0  0  0
  188.1540  176.5750  138.4420 N   0  0  0  0  0  0  0  0  0  0  0  0
  188.6020  177.9800  140.9810 N   0  0  0  0  0  2  0  0  0  0  0  0
  190.6210  177.5990  142.0770 O   0  0  0  0  0  0  0  0  0  0  0  0
  184.5200  178.8480  141.2080 C   0  0  0  0  0  3  0  0  0  0  0  0
  188.0810  177.8030  137.9990 C   0  0  0  0  0  0  0  0  0  0  0  0
  189.0600  175.5100  138.0070 C   0  0  0  0  0  2  0  0  0  0  0  0
  190.2070  177.7040  136.6210 C   0  0  0  0  0  2  0  0  0  0  0  0
  189.1150  175.4000  136.4900 C   0  0  0  0  0  2  0  0  0  0  0  0
  187.1150  178.6960  138.5650 N   0  0  0  0  0  2  0  0  0  0  0  0
  189.3640  177.6340  142.1420 C   0  0  0  0  0  0  0  0  0  0  0  0
  186.4850  178.5580  139.8450 C   0  0  0  0  0  0  0  0  0  0  0  0
  185.2630  178.9850  139.9850 N   0  0  0  0  0  0  0  0  0  0  0  0
  187.1500  177.8260  140.9930 C   0  0  2  0  0  3  0  0  0  0  0  0
  187.1550  177.4120  143.4580 C   0  0  0  0  0  2  0  0  0  0  0  0
  184.3130  178.3840  143.5960 C   0  0  0  0  0  2  0  0  0  0  0  0
  184.9790  179.1700  144.7220 C   0  0  0  0  0  2  0  0  0  0  0  0
  184.8500  178.4560  146.0610 C   0  0  0  0  0  2  0  0  0  0  0  0
  185.9900  180.0270  147.6280 O   0  0  0  0  0  1  0  0  0  0  0  0
  186.9240  177.9920  147.1440 O   0  0  0  0  0  0  0  0  0  0  0  0
  185.9840  178.8080  146.9630 C   0  0  0  0  0  0  0  0  0  0  0  0
  191.5250  175.6970  135.9090 C   0  0  0  0  0  2  0  0  0  0  0  0
  192.3400  176.1940  137.0920 C   0  0  0  0  0  2  0  0  0  0  0  0
  193.7390  175.8170  136.9240 N   0  0  0  0  0  0  0  0  0  0  0  0
  194.9680  174.3300  138.4860 C   0  0  0  0  0  0  0  0  0  0  0  0
  195.2800  175.3230  139.1950 O   0  0  0  0  0  0  0  0  0  0  0  0
  195.3200  171.9660  137.9630 C   0  0  0  0  0  0  0  0  0  0  0  0
  195.5880  173.1010  138.7330 O   0  0  0  0  0  0  0  0  0  0  0  0
  193.8930  174.4350  137.4210 C   0  0  2  0  0  3  0  0  0  0  0  0
  194.3490  172.0350  136.8190 C   0  0  2  0  0  3  0  0  0  0  0  0
  195.8550  170.8690  138.2720 O   0  0  0  0  0  0  0  0  0  0  0  0
  194.7590  171.1890  135.7870 O   0  0  0  0  0  1  0  0  0  0  0  0
  194.2620  173.4610  136.2930 C   0  0  0  0  0  2  0  0  0  0  0  0
  194.9920  176.9110  135.1480 C   0  0  0  0  0  1  0  0  0  0  0  0
  193.9650  175.8470  135.4820 C   0  0  0  0  0  2  0  0  0  0  0  0
  1 27  1  1  0  0  0
  1 14  1  0  0  0  0
  1 13  1  0  0  0  0
  3 11  1  0  0  0  0
  4 20  1  0  0  0  0
  4  2  2  0  0  0  0
  5  6  1  0  0  0  0
  5 21  1  0  0  0  0
  6 20  1  1  0  0  0
  8 19  1  0  0  0  0
  8 16  1  0  0  0  0
  9 16  2  0  0  0  0
 10  5  2  0  0  0  0
 11  7  2  0  0  0  0
 11 15  1  0  0  0  0
 12  7  1  0  0  0  0
 13  3  1  0  0  0  0
 14 12  1  0  0  0  0
 15 17  1  0  0  0  0
 16  4  1  0  0  0  0
 17 18  2  0  0  0  0
 18 10  1  0  0  0  0
 19 17  1  6  0  0  0
 19  6  1  0  0  0  0
 21 22  1  0  0  0  0
 22 23  1  0  0  0  0
 23 26  1  0  0  0  0
 26 25  2  0  0  0  0
 26 24  1  0  0  0  0
 27 28  1  0  0  0  0
 29 28  1  0  0  0  0
 30 33  1  0  0  0  0
 30 31  2  0  0  0  0
 32 36  2  0  0  0  0
 32 33  1  0  0  0  0
 34 29  1  6  0  0  0
 34 30  1  0  0  0  0
 35 37  1  6  0  0  0
 35 32  1  0  0  0  0
 38 35  1  0  0  0  0
 38 34  1  0  0  0  0
 39 40  1  0  0  0  0
 40 29  1  0  0  0  0
M  END
>  <MODEL>
3

>  <REMARK>
 VINA RESULT:      -8.3      1.387      1.827
  Name = 
  9 active torsions:
  status: ('A' for Active; 'I' for Inactive)
    1  A    between atoms: C_2  and  C_25
    2  A    between atoms: C_10  and  C_35
    3  A    between atoms: C_10  and  C_39
    4  A    between atoms: C_11  and  N_36
    5  A    between atoms: C_14  and  C_16
    6  A    between atoms: C_16  and  C_39
    7  A    between atoms: C_24  and  N_36
    8  A    between atoms: C_25  and  C_31
    9  A    between atoms: C_31  and  N_36
                            x       y       z     vdW  Elec       q    Type
                         _______ _______ _______ _____ _____    ______ ____

>  <TORSDO>
F 9

$$$$
=
 OpenBabel11062413053D

 40 43  0  0  1  0  0  0  0  0999 V2000
  189.3590  176.6890  135.4410 C   0  0  2  0  0  3  0  0  0  0  0  0
  191.4030  176.0720  143.8330 C   0  0  0  0  0  2  0  0  0  0  0  0
  188.4470  178.4650  136.9670 C   0  0  0  0  0  2  0  0  0  0  0  0
  190.4380  176.6060  143.0970 C   0  0  0  0  0  0  0  0  0  0  0  0
  186.7800  177.7970  143.4010 C   0  0  0  0  0  0  0  0  0  0  0  0
  188.1960  177.6790  142.8990 C   0  0  2  0  0  3  0  0  0  0  0  0
  188.3100  176.5240  138.5070 N   0  0  0  0  0  0  0  0  0  0  0  0
  189.6130  177.5610  140.9240 N   0  0  0  0  0  2  0  0  0  0  0  0
  191.8640  177.0520  141.2330 O   0  0  0  0  0  0  0  0  0  0  0  0
  185.8630  178.3420  142.5980 C   0  0  0  0  0  3  0  0  0  0  0  0
  188.1400  177.8020  138.2850 C   0  0  0  0  0  0  0  0  0  0  0  0
  188.9850  175.5420  137.6570 C   0  0  0  0  0  2  0  0  0  0  0  0
  189.6940  177.9230  136.2850 C   0  0  0  0  0  2  0  0  0  0  0  0
  188.5370  175.6480  136.2060 C   0  0  0  0  0  2  0  0  0  0  0  0
  187.4450  178.5950  139.2540 N   0  0  0  0  0  2  0  0  0  0  0  0
  190.7000  177.0640  141.7120 C   0  0  0  0  0  0  0  0  0  0  0  0
  187.2630  178.2690  140.6380 C   0  0  0  0  0  0  0  0  0  0  0  0
  186.1700  178.6590  141.2290 N   0  0  0  0  0  0  0  0  0  0  0  0
  188.2400  177.3910  141.3920 C   0  0  2  0  0  3  0  0  0  0  0  0
  189.0360  176.6330  143.6370 C   0  0  0  0  0  2  0  0  0  0  0  0
  186.4330  177.5420  144.8340 C   0  0  0  0  0  2  0  0  0  0  0  0
  187.4620  178.1610  145.7740 C   0  0  0  0  0  2  0  0  0  0  0  0
  187.6450  177.3280  147.0370 C   0  0  0  0  0  2  0  0  0  0  0  0
  190.0690  176.7830  147.2590 O   0  0  0  0  0  0  0  0  0  0  0  0
  189.1480  178.4900  148.4780 O   0  0  0  0  0  1  0  0  0  0  0  0
  188.9870  177.5650  147.6400 C   0  0  0  0  0  0  0  0  0  0  0  0
  190.6330  176.0520  134.9120 C   0  0  0  0  0  2  0  0  0  0  0  0
  191.8030  176.3650  135.8310 C   0  0  0  0  0  2  0  0  0  0  0  0
  192.6280  175.1750  136.0070 N   0  0  0  0  0  0  0  0  0  0  0  0
  194.8260  174.2040  135.3830 C   0  0  0  0  0  0  0  0  0  0  0  0
  194.4040  173.0520  135.6670 O   0  0  0  0  0  0  0  0  0  0  0  0
  196.7380  175.6410  134.8650 C   0  0  0  0  0  0  0  0  0  0  0  0
  196.1930  174.3850  135.1480 O   0  0  0  0  0  0  0  0  0  0  0  0
  193.8710  175.3730  135.2350 C   0  0  2  0  0  3  0  0  0  0  0  0
  195.8590  176.8580  134.8170 C   0  0  2  0  0  3  0  0  0  0  0  0
  197.9630  175.7350  134.5940 O   0  0  0  0  0  0  0  0  0  0  0  0
  196.5530  177.9730  135.2900 O   0  0  0  0  0  1  0  0  0  0  0  0
  194.6180  176.6400  135.6730 C   0  0  0  0  0  2  0  0  0  0  0  0
  192.3100  176.3350  138.1220 C   0  0  0  0  0  1  0  0  0  0  0  0
  192.9370  175.1390  137.4330 C   0  0  0  0  0  2  0  0  0  0  0  0
  1 27  1  1  0  0  0
  1 14  1  0  0  0  0
  1 13  1  0  0  0  0
  3 11  1  0  0  0  0
  4 20  1  0  0  0  0
  4  2  2  0  0  0  0
  5 21  1  0  0  0  0
  6  5  1  0  0  0  0
  6 20  1  1  0  0  0
  8 19  1  0  0  0  0
  8 16  1  0  0  0  0
  9 16  2  0  0  0  0
 10  5  2  0  0  0  0
 11  7  2  0  0  0  0
 11 15  1  0  0  0  0
 12  7  1  0  0  0  0
 13  3  1  0  0  0  0
 14 12  1  0  0  0  0
 15 17  1  0  0  0  0
 16  4  1  0  0  0  0
 17 18  2  0  0  0  0
 18 10  1  0  0  0  0
 19 17  1  6  0  0  0
 19  6  1  0  0  0  0
 21 22  1  0  0  0  0
 22 23  1  0  0  0  0
 23 26  1  0  0  0  0
 24 26  2  0  0  0  0
 26 25  1  0  0  0  0
 27 28  1  0  0  0  0
 28 29  1  0  0  0  0
 29 40  1  0  0  0  0
 30 31  2  0  0  0  0
 32 33  1  0  0  0  0
 33 30  1  0  0  0  0
 34 30  1  0  0  0  0
 34 38  1  0  0  0  0
 34 29  1  1  0  0  0
 35 32  1  0  0  0  0
 35 37  1  1  0  0  0
 35 38  1  0  0  0  0
 36 32  2  0  0  0  0
 40 39  1  0  0  0  0
M  END
>  <MODEL>
4

>  <REMARK>
 VINA RESULT:      -8.1      1.453      2.275
  Name = 
  9 active torsions:
  status: ('A' for Active; 'I' for Inactive)
    1  A    between atoms: C_2  and  C_25
    2  A    between atoms: C_10  and  C_35
    3  A    between atoms: C_10  and  C_39
    4  A    between atoms: C_11  and  N_36
    5  A    between atoms: C_14  and  C_16
    6  A    between atoms: C_16  and  C_39
    7  A    between atoms: C_24  and  N_36
    8  A    between atoms: C_25  and  C_31
    9  A    between atoms: C_31  and  N_36
                            x       y       z     vdW  Elec       q    Type
                         _______ _______ _______ _____ _____    ______ ____

>  <TORSDO>
F 9

$$$$
=
 OpenBabel11062413053D

 40 43  0  0  1  0  0  0  0  0999 V2000
  181.4350  178.2260  138.5840 C   0  0  2  0  0  3  0  0  0  0  0  0
  189.4600  177.3040  141.7050 C   0  0  0  0  0  2  0  0  0  0  0  0
  182.0140  179.5490  140.6400 C   0  0  0  0  0  2  0  0  0  0  0  0
  188.2640  177.6470  142.1640 C   0  0  0  0  0  0  0  0  0  0  0  0
  186.2920  177.8340  145.4760 C   0  0  0  0  0  0  0  0  0  0  0  0
  186.7200  178.1300  144.0620 C   0  0  2  0  0  3  0  0  0  0  0  0
  183.3140  177.4910  141.1260 N   0  0  0  0  0  0  0  0  0  0  0  0
  185.9590  178.5760  141.7950 N   0  0  0  0  0  2  0  0  0  0  0  0
  187.5580  178.6260  140.1030 O   0  0  0  0  0  0  0  0  0  0  0  0
  185.0690  178.2070  145.8620 C   0  0  0  0  0  3  0  0  0  0  0  0
  182.9470  178.7000  141.4660 C   0  0  0  0  0  0  0  0  0  0  0  0
  183.0880  176.8030  139.8530 C   0  0  0  0  0  2  0  0  0  0  0  0
  182.2280  179.4120  139.1410 C   0  0  0  0  0  2  0  0  0  0  0  0
  181.6450  176.9380  139.3860 C   0  0  0  0  0  2  0  0  0  0  0  0
  183.2700  179.1890  142.7720 N   0  0  0  0  0  2  0  0  0  0  0  0
  187.2650  178.2930  141.2810 C   0  0  0  0  0  0  0  0  0  0  0  0
  184.3060  178.6900  143.6280 C   0  0  0  0  0  0  0  0  0  0  0  0
  184.1190  178.7280  144.9170 N   0  0  0  0  0  0  0  0  0  0  0  0
  185.5470  178.0160  143.0790 C   0  0  2  0  0  3  0  0  0  0  0  0
  187.8800  177.2620  143.5650 C   0  0  0  0  0  2  0  0  0  0  0  0
  187.2660  177.3560  146.5070 C   0  0  0  0  0  2  0  0  0  0  0  0
  188.6740  177.8670  146.2200 C   0  0  0  0  0  2  0  0  0  0  0  0
  189.7130  177.1820  147.0990 C   0  0  0  0  0  2  0  0  0  0  0  0
  190.9240  176.8350  144.9460 O   0  0  0  0  0  0  0  0  0  0  0  0
  192.0550  176.7620  146.9370 O   0  0  0  0  0  1  0  0  0  0  0  0
  190.9610  176.9050  146.3320 C   0  0  0  0  0  0  0  0  0  0  0  0
  181.7950  177.9890  137.1270 C   0  0  0  0  0  2  0  0  0  0  0  0
  181.1720  176.6940  136.6310 C   0  0  0  0  0  2  0  0  0  0  0  0
  182.0880  176.0220  135.7160 N   0  0  0  0  0  0  0  0  0  0  0  0
  184.5640  176.1930  135.6670 C   0  0  0  0  0  0  0  0  0  0  0  0
  184.4890  177.1050  134.8010 O   0  0  0  0  0  0  0  0  0  0  0  0
  185.9630  174.5820  136.8630 C   0  0  0  0  0  0  0  0  0  0  0  0
  185.8100  175.6220  135.9430 O   0  0  0  0  0  0  0  0  0  0  0  0
  183.3400  175.7550  136.4500 C   0  0  2  0  0  3  0  0  0  0  0  0
  184.7700  174.0260  137.5880 C   0  0  2  0  0  3  0  0  0  0  0  0
  187.1170  174.1520  137.1230 O   0  0  0  0  0  0  0  0  0  0  0  0
  184.9290  172.6560  137.7990 O   0  0  0  0  0  1  0  0  0  0  0  0
  183.5060  174.2640  136.7730 C   0  0  0  0  0  2  0  0  0  0  0  0
  180.0650  174.7090  136.0430 C   0  0  0  0  0  1  0  0  0  0  0  0
  181.4320  174.7590  135.3910 C   0  0  0  0  0  2  0  0  0  0  0  0
  1 27  1  6  0  0  0
  1 13  1  0  0  0  0
  1 14  1  0  0  0  0
  2  4  2  0  0  0  0
  3 11  1  0  0  0  0
  4 20  1  0  0  0  0
  5 10  2  0  0  0  0
  5 21  1  0  0  0  0
  6 20  1  6  0  0  0
  6  5  1  0  0  0  0
  7 11  2  0  0  0  0
  9 16  2  0  0  0  0
 11 15  1  0  0  0  0
 12  7  1  0  0  0  0
 13  3  1  0  0  0  0
 14 12  1  0  0  0  0
 15 17  1  0  0  0  0
 16  8  1  0  0  0  0
 16  4  1  0  0  0  0
 17 18  2  0  0  0  0
 18 10  1  0  0  0  0
 19  8  1  6  0  0  0
 19 17  1  0  0  0  0
 19  6  1  0  0  0  0
 22 21  1  0  0  0  0
 22 23  1  0  0  0  0
 24 26  2  0  0  0  0
 26 25  1  0  0  0  0
 26 23  1  0  0  0  0
 28 27  1  0  0  0  0
 29 28  1  0  0  0  0
 30 33  1  0  0  0  0
 30 34  1  0  0  0  0
 31 30  2  0  0  0  0
 32 36  2  0  0  0  0
 32 35  1  0  0  0  0
 33 32  1  0  0  0  0
 34 29  1  6  0  0  0
 34 38  1  0  0  0  0
 35 37  1  6  0  0  0
 38 35  1  0  0  0  0
 40 29  1  0  0  0  0
 40 39  1  0  0  0  0
M  END
>  <MODEL>
5

>  <REMARK>
 VINA RESULT:      -8.0      4.988      7.105
  Name = 
  9 active torsions:
  status: ('A' for Active; 'I' for Inactive)
    1  A    between atoms: C_2  and  C_25
    2  A    between atoms: C_10  and  C_35
    3  A    between atoms: C_10  and  C_39
    4  A    between atoms: C_11  and  N_36
    5  A    between atoms: C_14  and  C_16
    6  A    between atoms: C_16  and  C_39
    7  A    between atoms: C_24  and  N_36
    8  A    between atoms: C_25  and  C_31
    9  A    between atoms: C_31  and  N_36
                            x       y       z     vdW  Elec       q    Type
                         _______ _______ _______ _____ _____    ______ ____

>  <TORSDO>
F 9

$$$$
=
 OpenBabel11062413053D

 40 43  0  0  1  0  0  0  0  0999 V2000
  184.5080  178.7270  144.9080 C   0  0  2  0  0  3  0  0  0  0  0  0
  182.4750  175.7280  137.0420 C   0  0  0  0  0  2  0  0  0  0  0  0
  182.1650  179.1450  144.1020 C   0  0  0  0  0  2  0  0  0  0  0  0
  182.0630  176.6860  137.8620 C   0  0  0  0  0  0  0  0  0  0  0  0
  180.1610  180.0440  137.7930 C   0  0  0  0  0  0  0  0  0  0  0  0
  180.7210  178.7410  138.3030 C   0  0  2  0  0  3  0  0  0  0  0  0
  183.3640  179.3810  141.9420 N   0  0  0  0  0  0  0  0  0  0  0  0
  181.8050  177.6290  140.1760 N   0  0  0  0  0  2  0  0  0  0  0  0
  182.5940  175.4630  139.8440 O   0  0  0  0  0  0  0  0  0  0  0  0
  179.7730  180.9620  138.6810 C   0  0  0  0  0  3  0  0  0  0  0  0
  182.2420  179.3780  142.6140 C   0  0  0  0  0  0  0  0  0  0  0  0
  184.6950  178.9830  142.4040 C   0  0  0  0  0  2  0  0  0  0  0  0
  183.1430  178.0980  144.6090 C   0  0  0  0  0  2  0  0  0  0  0  0
  185.0290  179.5940  143.7580 C   0  0  0  0  0  2  0  0  0  0  0  0
  181.0380  179.8090  141.9700 N   0  0  0  0  0  2  0  0  0  0  0  0
  182.1880  176.5390  139.3310 C   0  0  0  0  0  0  0  0  0  0  0  0
  180.8070  179.8570  140.5560 C   0  0  0  0  0  0  0  0  0  0  0  0
  180.0300  180.7900  140.0850 N   0  0  0  0  0  0  0  0  0  0  0  0
  181.5300  178.9390  139.5930 C   0  0  2  0  0  3  0  0  0  0  0  0
  181.5760  177.9850  137.2830 C   0  0  0  0  0  2  0  0  0  0  0  0
  179.8170  180.2370  136.3500 C   0  0  0  0  0  2  0  0  0  0  0  0
  180.7980  181.1830  135.6660 C   0  0  0  0  0  2  0  0  0  0  0  0
  180.1070  182.4430  135.1590 C   0  0  0  0  0  2  0  0  0  0  0  0
  180.8060  184.8300  134.9700 O   0  0  0  0  0  0  0  0  0  0  0  0
  181.2160  183.6510  136.8910 O   0  0  0  0  0  1  0  0  0  0  0  0
  180.7490  183.6650  135.7220 C   0  0  0  0  0  0  0  0  0  0  0  0
  185.5240  177.6480  145.2400 C   0  0  0  0  0  2  0  0  0  0  0  0
  186.7230  178.2510  145.9530 C   0  0  0  0  0  2  0  0  0  0  0  0
  187.8780  177.3710  145.8130 N   0  0  0  0  0  0  0  0  0  0  0  0
  188.7990  176.8130  143.5760 C   0  0  0  0  0  0  0  0  0  0  0  0
  187.9290  175.9120  143.4370 O   0  0  0  0  0  0  0  0  0  0  0  0
  190.8800  177.8230  142.7810 C   0  0  0  0  0  0  0  0  0  0  0  0
  189.8600  176.8750  142.6670 O   0  0  0  0  0  0  0  0  0  0  0  0
  188.6760  177.8570  144.6700 C   0  0  2  0  0  3  0  0  0  0  0  0
  190.8760  178.8130  143.9110 C   0  0  2  0  0  3  0  0  0  0  0  0
  191.7740  177.8780  141.8960 O   0  0  0  0  0  0  0  0  0  0  0  0
  192.1830  179.0920  144.3130 O   0  0  0  0  0  1  0  0  0  0  0  0
  190.0970  178.2530  145.0930 C   0  0  0  0  0  2  0  0  0  0  0  0
  187.7380  178.1350  148.1190 C   0  0  0  0  0  1  0  0  0  0  0  0
  188.6350  177.5460  147.0490 C   0  0  0  0  0  2  0  0  0  0  0  0
  1 27  1  6  0  0  0
  2  4  2  0  0  0  0
  3 13  1  0  0  0  0
  4 16  1  0  0  0  0
  5  6  1  0  0  0  0
  5 10  2  0  0  0  0
  6 20  1  6  0  0  0
  6 19  1  0  0  0  0
  7 12  1  0  0  0  0
  7 11  2  0  0  0  0
 10 18  1  0  0  0  0
 11  3  1  0  0  0  0
 12 14  1  0  0  0  0
 13  1  1  0  0  0  0
 14  1  1  0  0  0  0
 15 11  1  0  0  0  0
 16  9  2  0  0  0  0
 16  8  1  0  0  0  0
 17 15  1  0  0  0  0
 18 17  2  0  0  0  0
 19  8  1  1  0  0  0
 19 17  1  0  0  0  0
 20  4  1  0  0  0  0
 21  5  1  0  0  0  0
 22 21  1  0  0  0  0
 23 22  1  0  0  0  0
 23 26  1  0  0  0  0
 24 26  2  0  0  0  0
 26 25  1  0  0  0  0
 27 28  1  0  0  0  0
 29 28  1  0  0  0  0
 29 40  1  0  0  0  0
 30 34  1  0  0  0  0
 31 30  2  0  0  0  0
 32 35  1  0  0  0  0
 33 32  1  0  0  0  0
 33 30  1  0  0  0  0
 34 38  1  0  0  0  0
 34 29  1  1  0  0  0
 35 37  1  1  0  0  0
 35 38  1  0  0  0  0
 36 32  2  0  0  0  0
 40 39  1  0  0  0  0
M  END
>  <MODEL>
6

>  <REMARK>
 VINA RESULT:      -7.7      5.938     10.355
  Name = 
  9 active torsions:
  status: ('A' for Active; 'I' for Inactive)
    1  A    between atoms: C_2  and  C_25
    2  A    between atoms: C_10  and  C_35
    3  A    between atoms: C_10  and  C_39
    4  A    between atoms: C_11  and  N_36
    5  A    between atoms: C_14  and  C_16
    6  A    between atoms: C_16  and  C_39
    7  A    between atoms: C_24  and  N_36
    8  A    between atoms: C_25  and  C_31
    9  A    between atoms: C_31  and  N_36
                            x       y       z     vdW  Elec       q    Type
                         _______ _______ _______ _____ _____    ______ ____

>  <TORSDO>
F 9

$$$$
=
 OpenBabel11062413053D

 40 43  0  0  1  0  0  0  0  0999 V2000
  190.5540  175.0150  134.8730 C   0  0  2  0  0  3  0  0  0  0  0  0
  191.4180  177.3840  143.1580 C   0  0  0  0  0  2  0  0  0  0  0  0
  189.3690  177.1130  135.5860 C   0  0  0  0  0  2  0  0  0  0  0  0
  190.5460  177.5620  142.1740 C   0  0  0  0  0  0  0  0  0  0  0  0
  186.8380  178.4750  141.6160 C   0  0  0  0  0  0  0  0  0  0  0  0
  188.3140  178.3160  141.3570 C   0  0  2  0  0  3  0  0  0  0  0  0
  189.0900  175.7870  137.6650 N   0  0  0  0  0  0  0  0  0  0  0  0
  189.9990  177.6710  139.7240 N   0  0  0  0  0  2  0  0  0  0  0  0
  192.2020  177.4840  140.4540 O   0  0  0  0  0  0  0  0  0  0  0  0
  186.0230  178.6440  140.5720 C   0  0  0  0  0  3  0  0  0  0  0  0
  188.9040  176.9000  137.0040 C   0  0  0  0  0  0  0  0  0  0  0  0
  189.9160  174.6390  137.2850 C   0  0  0  0  0  2  0  0  0  0  0  0
  190.7180  176.4820  135.2830 C   0  0  0  0  0  2  0  0  0  0  0  0
  189.6740  174.2210  135.8420 C   0  0  0  0  0  2  0  0  0  0  0  0
  188.0490  177.9080  137.5550 N   0  0  0  0  0  2  0  0  0  0  0  0
  190.9820  177.5560  140.7580 C   0  0  0  0  0  0  0  0  0  0  0  0
  187.6870  178.0450  138.9360 C   0  0  0  0  0  0  0  0  0  0  0  0
  186.5070  178.5150  139.2240 N   0  0  0  0  0  0  0  0  0  0  0  0
  188.5810  177.5500  140.0540 C   0  0  2  0  0  3  0  0  0  0  0  0
  189.0810  177.6480  142.5010 C   0  0  0  0  0  2  0  0  0  0  0  0
  186.3020  178.6810  142.9980 C   0  0  0  0  0  2  0  0  0  0  0  0
  184.8710  178.1660  143.1210 C   0  0  0  0  0  2  0  0  0  0  0  0
  184.2750  178.4800  144.4880 C   0  0  0  0  0  2  0  0  0  0  0  0
  185.6970  179.6320  146.1830 O   0  0  0  0  0  1  0  0  0  0  0  0
  185.8620  177.3680  145.8780 O   0  0  0  0  0  0  0  0  0  0  0  0
  185.3270  178.4570  145.5450 C   0  0  0  0  0  0  0  0  0  0  0  0
  191.9140  174.3490  134.7480 C   0  0  0  0  0  2  0  0  0  0  0  0
  192.9830  175.1950  135.4200 C   0  0  0  0  0  2  0  0  0  0  0  0
  194.2830  174.5460  135.2930 N   0  0  0  0  0  0  0  0  0  0  0  0
  196.5780  175.3250  135.8290 C   0  0  0  0  0  0  0  0  0  0  0  0
  196.8060  175.5110  134.6050 O   0  0  0  0  0  0  0  0  0  0  0  0
  197.4720  175.1480  138.1000 C   0  0  0  0  0  0  0  0  0  0  0  0
  197.6440  175.3820  136.7330 O   0  0  0  0  0  0  0  0  0  0  0  0
  195.1660  175.1030  136.3370 C   0  0  2  0  0  3  0  0  0  0  0  0
  196.1150  174.8100  138.6490 C   0  0  2  0  0  3  0  0  0  0  0  0
  198.4530  175.2800  138.8770 O   0  0  0  0  0  0  0  0  0  0  0  0
  196.2350  173.9160  139.7140 O   0  0  0  0  0  1  0  0  0  0  0  0
  195.2530  174.1820  137.5620 C   0  0  0  0  0  2  0  0  0  0  0  0
  194.8060  172.2730  134.5990 C   0  0  0  0  0  1  0  0  0  0  0  0
  194.0260  173.1360  135.5700 C   0  0  0  0  0  2  0  0  0  0  0  0
  1 27  1  1  0  0  0
  1 13  1  0  0  0  0
  1 14  1  0  0  0  0
  3 11  1  0  0  0  0
  4 20  1  0  0  0  0
  4  2  2  0  0  0  0
  5 21  1  0  0  0  0
  6  5  1  0  0  0  0
  6 20  1  1  0  0  0
  8 19  1  0  0  0  0
  8 16  1  0  0  0  0
  9 16  2  0  0  0  0
 10  5  2  0  0  0  0
 11 15  1  0  0  0  0
 11  7  2  0  0  0  0
 12  7  1  0  0  0  0
 13  3  1  0  0  0  0
 14 12  1  0  0  0  0
 15 17  1  0  0  0  0
 16  4  1  0  0  0  0
 17 18  2  0  0  0  0
 18 10  1  0  0  0  0
 19 17  1  6  0  0  0
 19  6  1  0  0  0  0
 21 22  1  0  0  0  0
 22 23  1  0  0  0  0
 23 26  1  0  0  0  0
 26 25  2  0  0  0  0
 26 24  1  0  0  0  0
 27 28  1  0  0  0  0
 29 28  1  0  0  0  0
 29 40  1  0  0  0  0
 30 34  1  0  0  0  0
 30 33  1  0  0  0  0
 31 30  2  0  0  0  0
 32 35  1  0  0  0  0
 32 36  2  0  0  0  0
 33 32  1  0  0  0  0
 34 29  1  6  0  0  0
 34 38  1  0  0  0  0
 35 37  1  1  0  0  0
 38 35  1  0  0  0  0
 39 40  1  0  0  0  0
M  END
>  <MODEL>
7

>  <REMARK>
 VINA RESULT:      -7.6      2.016      2.847
  Name = 
  9 active torsions:
  status: ('A' for Active; 'I' for Inactive)
    1  A    between atoms: C_2  and  C_25
    2  A    between atoms: C_10  and  C_35
    3  A    between atoms: C_10  and  C_39
    4  A    between atoms: C_11  and  N_36
    5  A    between atoms: C_14  and  C_16
    6  A    between atoms: C_16  and  C_39
    7  A    between atoms: C_24  and  N_36
    8  A    between atoms: C_25  and  C_31
    9  A    between atoms: C_31  and  N_36
                            x       y       z     vdW  Elec       q    Type
                         _______ _______ _______ _____ _____    ______ ____

>  <TORSDO>
F 9

$$$$
=
 OpenBabel11062413053D

 40 43  0  0  1  0  0  0  0  0999 V2000
  188.2520  177.9570  141.3220 C   0  0  2  0  0  3  0  0  0  0  0  0
  182.1040  175.1230  135.9220 C   0  0  0  0  0  2  0  0  0  0  0  0
  185.9350  178.8710  141.6570 C   0  0  0  0  0  2  0  0  0  0  0  0
  182.3290  176.1910  136.6760 C   0  0  0  0  0  0  0  0  0  0  0  0
  181.2790  179.8920  136.9770 C   0  0  0  0  0  0  0  0  0  0  0  0
  181.7740  178.5230  137.3640 C   0  0  2  0  0  3  0  0  0  0  0  0
  185.9320  178.7100  139.1810 N   0  0  0  0  0  0  0  0  0  0  0  0
  183.4200  177.2840  138.6580 N   0  0  0  0  0  2  0  0  0  0  0  0
  183.5390  174.9800  138.3410 O   0  0  0  0  0  0  0  0  0  0  0  0
  181.5510  180.9190  137.7860 C   0  0  0  0  0  3  0  0  0  0  0  0
  185.3090  179.0030  140.2920 C   0  0  0  0  0  0  0  0  0  0  0  0
  187.2230  178.0360  139.0200 C   0  0  0  0  0  2  0  0  0  0  0  0
  186.8300  177.6500  141.8040 C   0  0  0  0  0  2  0  0  0  0  0  0
  188.2840  178.6190  139.9420 C   0  0  0  0  0  2  0  0  0  0  0  0
  184.0430  179.6710  140.2310 N   0  0  0  0  0  2  0  0  0  0  0  0
  183.1340  176.0940  137.9160 C   0  0  0  0  0  0  0  0  0  0  0  0
  183.1580  179.7000  139.1030 C   0  0  0  0  0  0  0  0  0  0  0  0
  182.4320  180.7640  138.9120 N   0  0  0  0  0  0  0  0  0  0  0  0
  183.1340  178.5910  138.0720 C   0  0  2  0  0  3  0  0  0  0  0  0
  181.8630  177.5370  136.1960 C   0  0  0  0  0  2  0  0  0  0  0  0
  180.3080  180.0880  135.8550 C   0  0  0  0  0  2  0  0  0  0  0  0
  179.8220  181.5320  135.7860 C   0  0  0  0  0  2  0  0  0  0  0  0
  180.7260  182.3900  134.9110 C   0  0  0  0  0  2  0  0  0  0  0  0
  181.5540  184.2770  136.3170 O   0  0  0  0  0  1  0  0  0  0  0  0
  179.8720  184.6140  134.7990 O   0  0  0  0  0  0  0  0  0  0  0  0
  180.6820  183.8170  135.3400 C   0  0  0  0  0  0  0  0  0  0  0  0
  189.0870  176.6880  141.3040 C   0  0  0  0  0  2  0  0  0  0  0  0
  189.2830  176.1640  142.7180 C   0  0  0  0  0  2  0  0  0  0  0  0
  190.0340  177.1330  143.5070 N   0  0  0  0  0  0  0  0  0  0  0  0
  188.5900  177.7950  145.4150 C   0  0  0  0  0  0  0  0  0  0  0  0
  187.7350  178.2580  144.6150 O   0  0  0  0  0  0  0  0  0  0  0  0
  189.3910  177.6260  147.7210 C   0  0  0  0  0  0  0  0  0  0  0  0
  188.4600  178.0740  146.7800 O   0  0  0  0  0  0  0  0  0  0  0  0
  189.7130  176.8980  144.9290 C   0  0  2  0  0  3  0  0  0  0  0  0
  190.5880  176.8280  147.2870 C   0  0  2  0  0  3  0  0  0  0  0  0
  189.1890  177.8460  148.9430 O   0  0  0  0  0  0  0  0  0  0  0  0
  191.6880  177.1330  148.0910 O   0  0  0  0  0  1  0  0  0  0  0  0
  190.9270  177.1430  145.8360 C   0  0  0  0  0  2  0  0  0  0  0  0
  192.0390  177.8350  142.3200 C   0  0  0  0  0  1  0  0  0  0  0  0
  191.4360  176.8120  143.2620 C   0  0  0  0  0  2  0  0  0  0  0  0
  1 27  1  6  0  0  0
  1 13  1  0  0  0  0
  2  4  2  0  0  0  0
  3 13  1  0  0  0  0
  4 16  1  0  0  0  0
  5  6  1  0  0  0  0
  5 10  2  0  0  0  0
  6 20  1  6  0  0  0
  6 19  1  0  0  0  0
  7 11  2  0  0  0  0
 10 18  1  0  0  0  0
 11  3  1  0  0  0  0
 12  7  1  0  0  0  0
 12 14  1  0  0  0  0
 14  1  1  0  0  0  0
 15 11  1  0  0  0  0
 16  9  2  0  0  0  0
 16  8  1  0  0  0  0
 17 15  1  0  0  0  0
 18 17  2  0  0  0  0
 19  8  1  1  0  0  0
 19 17  1  0  0  0  0
 20  4  1  0  0  0  0
 21  5  1  0  0  0  0
 22 21  1  0  0  0  0
 23 26  1  0  0  0  0
 23 22  1  0  0  0  0
 25 26  2  0  0  0  0
 26 24  1  0  0  0  0
 27 28  1  0  0  0  0
 28 29  1  0  0  0  0
 30 33  1  0  0  0  0
 31 30  2  0  0  0  0
 32 36  2  0  0  0  0
 33 32  1  0  0  0  0
 34 29  1  6  0  0  0
 34 30  1  0  0  0  0
 34 38  1  0  0  0  0
 35 32  1  0  0  0  0
 35 37  1  1  0  0  0
 38 35  1  0  0  0  0
 39 40  1  0  0  0  0
 40 29  1  0  0  0  0
M  END
>  <MODEL>
8

>  <REMARK>
 VINA RESULT:      -7.4      5.608      9.744
  Name = 
  9 active torsions:
  status: ('A' for Active; 'I' for Inactive)
    1  A    between atoms: C_2  and  C_25
    2  A    between atoms: C_10  and  C_35
    3  A    between atoms: C_10  and  C_39
    4  A    between atoms: C_11  and  N_36
    5  A    between atoms: C_14  and  C_16
    6  A    between atoms: C_16  and  C_39
    7  A    between atoms: C_24  and  N_36
    8  A    between atoms: C_25  and  C_31
    9  A    between atoms: C_31  and  N_36
                            x       y       z     vdW  Elec       q    Type
                         _______ _______ _______ _____ _____    ______ ____

>  <TORSDO>
F 9

$$$$
=
 OpenBabel11062413053D

 40 43  0  0  1  0  0  0  0  0999 V2000
  188.5130  177.7300  136.8190 C   0  0  2  0  0  3  0  0  0  0  0  0
  185.8560  178.6410  145.0110 C   0  0  0  0  0  2  0  0  0  0  0  0
  189.4210  176.0960  138.4970 C   0  0  0  0  0  2  0  0  0  0  0  0
  186.9010  178.1330  144.3710 C   0  0  0  0  0  0  0  0  0  0  0  0
  190.5940  177.1940  144.9810 C   0  0  0  0  0  0  0  0  0  0  0  0
  189.2120  177.1970  144.3810 C   0  0  2  0  0  3  0  0  0  0  0  0
  189.3350  178.1170  139.9340 N   0  0  0  0  0  0  0  0  0  0  0  0
  187.9310  177.1230  142.3130 N   0  0  0  0  0  2  0  0  0  0  0  0
  185.6370  177.5030  142.4440 O   0  0  0  0  0  0  0  0  0  0  0  0
  191.5950  176.6690  144.2720 C   0  0  0  0  0  3  0  0  0  0  0  0
  189.5960  176.8430  139.7950 C   0  0  0  0  0  0  0  0  0  0  0  0
  188.6620  179.0100  138.9880 C   0  0  0  0  0  2  0  0  0  0  0  0
  188.1950  176.5220  137.7060 C   0  0  0  0  0  2  0  0  0  0  0  0
  189.2150  178.8590  137.5780 C   0  0  0  0  0  2  0  0  0  0  0  0
  190.2680  176.1460  140.8500 N   0  0  0  0  0  2  0  0  0  0  0  0
  186.7640  177.5900  142.9980 C   0  0  0  0  0  0  0  0  0  0  0  0
  190.3330  176.5530  142.2230 C   0  0  0  0  0  0  0  0  0  0  0  0
  191.4040  176.2640  142.9060 N   0  0  0  0  0  0  0  0  0  0  0  0
  189.2550  177.4050  142.8600 C   0  0  2  0  0  3  0  0  0  0  0  0
  188.2610  178.2230  145.0030 C   0  0  0  0  0  2  0  0  0  0  0  0
  190.8250  177.5430  146.4180 C   0  0  0  0  0  2  0  0  0  0  0  0
  190.3690  176.4190  147.3430 C   0  0  0  0  0  2  0  0  0  0  0  0
  188.9340  176.6220  147.8120 C   0  0  0  0  0  2  0  0  0  0  0  0
  189.8060  178.4880  149.2180 O   0  0  0  0  0  1  0  0  0  0  0  0
  187.7040  178.6020  148.3150 O   0  0  0  0  0  0  0  0  0  0  0  0
  188.7710  177.9520  148.4660 C   0  0  0  0  0  0  0  0  0  0  0  0
  187.2430  178.2570  136.1720 C   0  0  0  0  0  2  0  0  0  0  0  0
  186.2450  177.1290  135.9690 C   0  0  0  0  0  2  0  0  0  0  0  0
  185.5060  176.8910  137.2040 N   0  0  0  0  0  0  0  0  0  0  0  0
  184.6230  178.6480  138.7190 C   0  0  0  0  0  0  0  0  0  0  0  0
  185.6980  178.6280  139.3760 O   0  0  0  0  0  0  0  0  0  0  0  0
  182.2920  179.3780  138.5800 C   0  0  0  0  0  0  0  0  0  0  0  0
  183.5260  179.3450  139.2360 O   0  0  0  0  0  0  0  0  0  0  0  0
  184.5260  177.9840  137.3580 C   0  0  2  0  0  3  0  0  0  0  0  0
  182.0990  178.6450  137.2840 C   0  0  2  0  0  3  0  0  0  0  0  0
  181.3600  180.0770  139.0560 O   0  0  0  0  0  0  0  0  0  0  0  0
  180.7980  178.1480  137.2000 O   0  0  0  0  0  1  0  0  0  0  0  0
  183.0840  177.4870  137.1870 C   0  0  0  0  0  2  0  0  0  0  0  0
  185.4560  174.8720  135.8450 C   0  0  0  0  0  1  0  0  0  0  0  0
  184.8030  175.6310  136.9840 C   0  0  0  0  0  2  0  0  0  0  0  0
  1 27  1  1  0  0  0
  1 14  1  0  0  0  0
  1 13  1  0  0  0  0
  3 11  1  0  0  0  0
  4 20  1  0  0  0  0
  4  2  2  0  0  0  0
  5 21  1  0  0  0  0
  6  5  1  0  0  0  0
  6 20  1  1  0  0  0
  8 19  1  0  0  0  0
  8 16  1  0  0  0  0
  9 16  2  0  0  0  0
 10  5  2  0  0  0  0
 11  7  2  0  0  0  0
 11 15  1  0  0  0  0
 12  7  1  0  0  0  0
 13  3  1  0  0  0  0
 14 12  1  0  0  0  0
 15 17  1  0  0  0  0
 16  4  1  0  0  0  0
 17 18  2  0  0  0  0
 18 10  1  0  0  0  0
 19 17  1  6  0  0  0
 19  6  1  0  0  0  0
 21 22  1  0  0  0  0
 22 23  1  0  0  0  0
 23 26  1  0  0  0  0
 25 26  2  0  0  0  0
 26 24  1  0  0  0  0
 28 27  1  0  0  0  0
 28 29  1  0  0  0  0
 30 33  1  0  0  0  0
 30 31  2  0  0  0  0
 32 36  2  0  0  0  0
 32 33  1  0  0  0  0
 34 29  1  1  0  0  0
 34 30  1  0  0  0  0
 35 37  1  1  0  0  0
 35 32  1  0  0  0  0
 38 35  1  0  0  0  0
 38 34  1  0  0  0  0
 39 40  1  0  0  0  0
 40 29  1  0  0  0  0
M  END
>  <MODEL>
9

>  <REMARK>
 VINA RESULT:      -7.3      4.550      7.144
  Name = 
  9 active torsions:
  status: ('A' for Active; 'I' for Inactive)
    1  A    between atoms: C_2  and  C_25
    2  A    between atoms: C_10  and  C_35
    3  A    between atoms: C_10  and  C_39
    4  A    between atoms: C_11  and  N_36
    5  A    between atoms: C_14  and  C_16
    6  A    between atoms: C_16  and  C_39
    7  A    between atoms: C_24  and  N_36
    8  A    between atoms: C_25  and  C_31
    9  A    between atoms: C_31  and  N_36
                            x       y       z     vdW  Elec       q    Type
                         _______ _______ _______ _____ _____    ______ ____

>  <TORSDO>
F 9

$$$$
