=
 OpenBabel11062413043D

 38 44  0  0  1  0  0  0  0  0999 V2000
  186.3180  178.2170  141.0250 C   0  0  0  0  0  2  0  0  0  0  0  0
  189.2860  176.9610  140.0070 C   0  0  0  0  0  0  0  0  0  0  0  0
  189.4820  178.6990  138.2750 O   0  0  0  0  0  0  0  0  0  0  0  0
  187.4620  179.1590  141.3930 C   0  0  2  0  0  3  0  0  0  0  0  0
  188.6180  178.9990  140.4570 N   0  0  0  0  0  0  0  0  0  0  0  0
  189.7160  175.9390  139.4040 O   0  0  0  0  0  0  0  0  0  0  0  0
  189.1070  178.2620  139.3950 C   0  0  0  0  0  0  0  0  0  0  0  0
  188.5890  178.5130  141.8520 C   0  0  2  0  0  3  0  0  0  0  0  0
  188.8660  176.9990  141.4960 C   0  0  2  0  0  3  0  0  0  0  0  0
  190.2040  176.3490  142.5430 S   0  0  0  0  0  0  0  0  0  0  0  0
  189.4410  176.9330  144.0610 C   0  0  0  0  0  0  0  0  0  0  0  0
  189.5970  177.3450  146.4500 C   0  0  0  0  0  0  0  0  0  0  0  0
  188.0980  176.9040  144.1800 C   0  0  0  0  0  3  0  0  0  0  0  0
  190.2620  177.5740  145.1610 C   0  0  1  0  0  3  0  0  0  0  0  0
  191.6090  176.9040  145.4430 C   0  0  0  0  0  2  0  0  0  0  0  0
  187.4470  177.4840  145.4200 C   0  0  1  0  0  3  0  0  0  0  0  0
  186.2150  176.8940  145.6300 F   0  0  0  0  0  0  0  0  0  0  0  0
  190.4990  176.9840  147.4140 O   0  0  0  0  0  0  0  0  0  0  0  0
  188.3070  177.2810  146.5910 N   0  0  0  0  0  0  0  0  0  0  0  0
  191.7690  176.8130  146.9080 N   0  0  0  0  0  2  0  0  0  0  0  0
  185.0380  178.6130  141.7460 C   0  0  0  0  0  2  0  0  0  0  0  0
  182.1670  178.8620  138.5010 C   0  0  0  0  0  2  0  0  0  0  0  0
  181.5690  179.3830  140.9230 C   0  0  1  0  0  3  0  0  0  0  0  0
  182.1390  176.6880  139.7390 C   0  0  0  0  0  2  0  0  0  0  0  0
  183.3300  177.4090  140.3850 C   0  0  2  0  0  0  0  0  0  0  0  0
  182.6250  178.3600  141.3970 C   0  0  1  0  0  3  0  0  0  0  0  0
  180.0020  178.3970  139.3770 F   0  0  0  0  0  0  0  0  0  0  0  0
  181.0550  179.2980  139.4660 C   0  0  2  0  0  0  0  0  0  0  0  0
  182.9560  177.5870  138.8870 C   0  0  2  0  0  3  0  0  0  0  0  0
  183.8950  178.7830  140.7600 C   0  0  1  0  0  3  0  0  0  0  0  0
  179.3290  180.8740  138.9170 O   0  0  0  0  0  1  0  0  0  0  0  0
  180.5660  180.6530  139.0390 C   0  0  0  0  0  0  0  0  0  0  0  0
  181.4710  181.6650  138.7480 O   0  0  0  0  0  0  0  0  0  0  0  0
  179.9690  180.6560  142.1660 O   0  0  0  0  0  0  0  0  0  0  0  0
  180.4680  179.5220  141.9340 C   0  0  0  0  0  0  0  0  0  0  0  0
  180.2100  178.2240  144.0240 O   0  0  0  0  0  1  0  0  0  0  0  0
  179.9710  178.3490  142.6610 C   0  0  0  0  0  0  0  0  0  0  0  0
  179.3190  177.4530  142.0610 O   0  0  0  0  0  0  0  0  0  0  0  0
  1 21  1  0  0  0  0
  2  9  1  0  0  0  0
  3  7  2  0  0  0  0
  4  1  1  6  0  0  0
  4  8  1  0  0  0  0
  5  4  1  0  0  0  0
  6  2  2  0  0  0  0
  7  2  1  0  0  0  0
  7  5  1  0  0  0  0
  8  5  1  6  0  0  0
  9  8  1  0  0  0  0
  9 10  1  1  0  0  0
 10 11  1  0  0  0  0
 11 13  2  0  0  0  0
 11 14  1  0  0  0  0
 12 19  2  0  0  0  0
 12 18  1  0  0  0  0
 13 16  1  0  0  0  0
 14 15  1  1  0  0  0
 14 12  1  0  0  0  0
 15 20  1  0  0  0  0
 16 17  1  1  0  0  0
 16 19  1  0  0  0  0
 20 18  1  0  0  0  0
 22 29  1  0  0  0  0
 22 28  1  0  0  0  0
 23 26  1  0  0  0  0
 23 35  1  1  0  0  0
 25 24  1  1  0  0  0
 25 30  1  0  0  0  0
 25 26  1  0  0  0  0
 27 28  1  0  0  0  0
 28 23  1  0  0  0  0
 29 24  1  0  0  0  0
 29 25  1  0  0  0  0
 30 26  1  0  0  0  0
 30 21  1  0  0  0  0
 31 32  1  0  0  0  0
 32 28  1  0  0  0  0
 33 32  2  0  0  0  0
 35 34  2  0  0  0  0
 35 37  1  0  0  0  0
 37 36  1  0  0  0  0
 38 37  2  0  0  0  0
M  END
>  <MODEL>
1

>  <REMARK>
 VINA RESULT:      -8.3      0.000      0.000
  Name = 
  8 active torsions:
  status: ('A' for Active; 'I' for Inactive)
    1  A    between atoms: C_3  and  C_6
    2  A    between atoms: C_3  and  C_15
    3  A    between atoms: C_5  and  S_19
    4  A    between atoms: C_6  and  C_36
    5  A    between atoms: C_8  and  C_38
    6  A    between atoms: C_12  and  C_38
    7  A    between atoms: S_19  and  C_37
    8  A    between atoms: C_26  and  C_28
                            x       y       z     vdW  Elec       q    Type
                         _______ _______ _______ _____ _____    ______ ____

>  <TORSDO>
F 8

$$$$
=
 OpenBabel11062413043D

 38 44  0  0  1  0  0  0  0  0999 V2000
  188.4180  177.7600  139.9120 C   0  0  0  0  0  2  0  0  0  0  0  0
  189.9870  176.2690  142.5080 C   0  0  0  0  0  0  0  0  0  0  0  0
  192.1620  177.1400  141.7540 O   0  0  0  0  0  0  0  0  0  0  0  0
  188.9130  178.7980  140.9170 C   0  0  2  0  0  3  0  0  0  0  0  0
  190.0980  178.2940  141.6770 N   0  0  0  0  0  0  0  0  0  0  0  0
  190.2860  175.1010  142.8780 O   0  0  0  0  0  0  0  0  0  0  0  0
  190.9110  177.1970  141.8870 C   0  0  0  0  0  0  0  0  0  0  0  0
  188.7360  178.4270  142.2310 C   0  0  2  0  0  3  0  0  0  0  0  0
  188.5840  176.9090  142.6400 C   0  0  2  0  0  3  0  0  0  0  0  0
  187.9970  176.7830  144.3580 S   0  0  0  0  0  0  0  0  0  0  0  0
  186.4960  177.7140  144.0220 C   0  0  0  0  0  0  0  0  0  0  0  0
  184.5070  178.8350  144.8520 C   0  0  0  0  0  0  0  0  0  0  0  0
  185.8910  177.5840  142.8230 C   0  0  0  0  0  3  0  0  0  0  0  0
  185.9640  178.7350  145.0070 C   0  0  1  0  0  3  0  0  0  0  0  0
  186.0390  178.3200  146.4780 C   0  0  0  0  0  2  0  0  0  0  0  0
  184.6810  178.4390  142.5030 C   0  0  1  0  0  3  0  0  0  0  0  0
  183.8990  177.8160  141.5490 F   0  0  0  0  0  0  0  0  0  0  0  0
  183.8830  178.8720  146.0680 O   0  0  0  0  0  0  0  0  0  0  0  0
  183.8940  178.6850  143.7160 N   0  0  0  0  0  0  0  0  0  0  0  0
  184.7600  178.6880  147.1150 N   0  0  0  0  0  2  0  0  0  0  0  0
  188.4610  178.3150  138.4950 C   0  0  0  0  0  2  0  0  0  0  0  0
  188.2860  175.3370  135.3430 C   0  0  0  0  0  2  0  0  0  0  0  0
  190.2500  175.5350  136.9540 C   0  0  1  0  0  3  0  0  0  0  0  0
  189.5370  177.4150  134.7310 C   0  0  0  0  0  2  0  0  0  0  0  0
  188.9870  177.7700  136.1190 C   0  0  2  0  0  0  0  0  0  0  0  0
  190.0000  177.0560  137.0630 C   0  0  1  0  0  3  0  0  0  0  0  0
  190.5110  174.8340  134.6620 F   0  0  0  0  0  0  0  0  0  0  0  0
  189.6530  174.7680  135.7510 C   0  0  2  0  0  0  0  0  0  0  0  0
  188.2130  176.8670  135.1180 C   0  0  2  0  0  3  0  0  0  0  0  0
  188.5840  177.1920  137.4810 C   0  0  1  0  0  3  0  0  0  0  0  0
  188.7850  173.0190  137.1460 O   0  0  0  0  0  1  0  0  0  0  0  0
  189.4680  173.3260  136.1310 C   0  0  0  0  0  0  0  0  0  0  0  0
  190.0700  172.3220  135.3850 O   0  0  0  0  0  0  0  0  0  0  0  0
  192.0020  174.1730  137.8500 O   0  0  0  0  0  0  0  0  0  0  0  0
  191.6950  175.2110  137.2070 C   0  0  0  0  0  0  0  0  0  0  0  0
  192.9830  176.2210  135.3510 O   0  0  0  0  0  0  0  0  0  0  0  0
  192.7540  176.1000  136.7160 C   0  0  0  0  0  0  0  0  0  0  0  0
  193.4560  176.7660  137.5230 O   0  0  0  0  0  1  0  0  0  0  0  0
  2  9  1  0  0  0  0
  2  6  2  0  0  0  0
  3  7  2  0  0  0  0
  4  1  1  6  0  0  0
  4  5  1  0  0  0  0
  4  8  1  0  0  0  0
  5  7  1  0  0  0  0
  7  2  1  0  0  0  0
  8  5  1  1  0  0  0
  8  9  1  0  0  0  0
  9 10  1  1  0  0  0
 11 10  1  0  0  0  0
 11 14  1  0  0  0  0
 12 14  1  0  0  0  0
 12 18  1  0  0  0  0
 13 11  2  0  0  0  0
 14 15  1  1  0  0  0
 15 20  1  0  0  0  0
 16 17  1  6  0  0  0
 16 13  1  0  0  0  0
 16 19  1  0  0  0  0
 18 20  1  0  0  0  0
 19 12  2  0  0  0  0
 21  1  1  0  0  0  0
 22 28  1  0  0  0  0
 23 26  1  0  0  0  0
 23 35  1  6  0  0  0
 24 29  1  0  0  0  0
 25 24  1  6  0  0  0
 25 26  1  0  0  0  0
 25 30  1  0  0  0  0
 26 30  1  0  0  0  0
 27 28  1  0  0  0  0
 28 32  1  0  0  0  0
 28 23  1  0  0  0  0
 29 22  1  0  0  0  0
 29 25  1  0  0  0  0
 30 21  1  0  0  0  0
 32 31  1  0  0  0  0
 33 32  2  0  0  0  0
 35 34  2  0  0  0  0
 36 37  2  0  0  0  0
 37 35  1  0  0  0  0
 37 38  1  0  0  0  0
M  END
>  <MODEL>
2

>  <REMARK>
 VINA RESULT:      -8.1      4.070      8.240
  Name = 
  8 active torsions:
  status: ('A' for Active; 'I' for Inactive)
    1  A    between atoms: C_3  and  C_6
    2  A    between atoms: C_3  and  C_15
    3  A    between atoms: C_5  and  S_19
    4  A    between atoms: C_6  and  C_36
    5  A    between atoms: C_8  and  C_38
    6  A    between atoms: C_12  and  C_38
    7  A    between atoms: S_19  and  C_37
    8  A    between atoms: C_26  and  C_28
                            x       y       z     vdW  Elec       q    Type
                         _______ _______ _______ _____ _____    ______ ____

>  <TORSDO>
F 8

$$$$
=
 OpenBabel11062413043D

 38 44  0  0  1  0  0  0  0  0999 V2000
  187.0930  177.7860  138.3520 C   0  0  0  0  0  2  0  0  0  0  0  0
  190.0790  176.2030  138.2820 C   0  0  0  0  0  0  0  0  0  0  0  0
  190.2740  176.5780  135.8570 O   0  0  0  0  0  0  0  0  0  0  0  0
  188.2260  178.7760  138.0910 C   0  0  2  0  0  3  0  0  0  0  0  0
  189.3910  178.1040  137.4350 N   0  0  0  0  0  0  0  0  0  0  0  0
  190.5220  175.0290  138.4040 O   0  0  0  0  0  0  0  0  0  0  0  0
  189.8940  176.8870  137.0180 C   0  0  0  0  0  0  0  0  0  0  0  0
  189.3540  178.5400  138.8450 C   0  0  2  0  0  3  0  0  0  0  0  0
  189.6460  177.1130  139.4570 C   0  0  2  0  0  3  0  0  0  0  0  0
  190.9820  177.2250  140.6880 S   0  0  0  0  0  0  0  0  0  0  0  0
  189.8510  177.6050  142.0330 C   0  0  0  0  0  0  0  0  0  0  0  0
  189.4440  177.8210  144.4180 C   0  0  0  0  0  0  0  0  0  0  0  0
  188.5250  177.4420  141.8480 C   0  0  0  0  0  3  0  0  0  0  0  0
  190.3420  178.2210  143.3270 C   0  0  1  0  0  3  0  0  0  0  0  0
  191.6610  177.6540  143.8580 C   0  0  0  0  0  2  0  0  0  0  0  0
  187.5640  177.8520  142.9460 C   0  0  1  0  0  3  0  0  0  0  0  0
  186.3870  177.1360  142.8390 F   0  0  0  0  0  0  0  0  0  0  0  0
  190.1520  177.4620  145.5330 O   0  0  0  0  0  0  0  0  0  0  0  0
  188.1690  177.6280  144.2640 N   0  0  0  0  0  0  0  0  0  0  0  0
  191.5120  177.4520  145.3120 N   0  0  0  0  0  2  0  0  0  0  0  0
  185.8510  178.1630  137.5560 C   0  0  0  0  0  2  0  0  0  0  0  0
  182.5960  177.4460  140.3350 C   0  0  0  0  0  2  0  0  0  0  0  0
  182.6050  179.3850  138.6820 C   0  0  1  0  0  3  0  0  0  0  0  0
  184.2960  179.0960  141.1400 C   0  0  0  0  0  2  0  0  0  0  0  0
  184.9220  178.6060  139.8270 C   0  0  2  0  0  0  0  0  0  0  0  0
  184.1460  179.4420  138.7650 C   0  0  1  0  0  3  0  0  0  0  0  0
  181.5860  179.5360  140.8620 F   0  0  0  0  0  0  0  0  0  0  0  0
  181.8250  178.6650  139.8080 C   0  0  2  0  0  0  0  0  0  0  0  0
  184.0710  177.6830  140.7430 C   0  0  2  0  0  3  0  0  0  0  0  0
  184.6080  178.0750  138.4240 C   0  0  1  0  0  3  0  0  0  0  0  0
  179.4290  178.5370  139.8230 O   0  0  0  0  0  1  0  0  0  0  0  0
  180.5070  178.1910  139.2670 C   0  0  0  0  0  0  0  0  0  0  0  0
  180.4650  177.3460  138.1660 O   0  0  0  0  0  0  0  0  0  0  0  0
  182.5440  181.7730  138.8330 O   0  0  0  0  0  0  0  0  0  0  0  0
  182.0380  180.7320  138.3360 C   0  0  0  0  0  0  0  0  0  0  0  0
  180.9390  180.2510  136.1710 O   0  0  0  0  0  0  0  0  0  0  0  0
  180.8920  180.8460  137.4260 C   0  0  0  0  0  0  0  0  0  0  0  0
  179.8580  181.4740  137.7760 O   0  0  0  0  0  1  0  0  0  0  0  0
  2  6  2  0  0  0  0
  2  9  1  0  0  0  0
  3  7  2  0  0  0  0
  4  1  1  1  0  0  0
  4  8  1  0  0  0  0
  5  4  1  0  0  0  0
  7  5  1  0  0  0  0
  7  2  1  0  0  0  0
  8  5  1  6  0  0  0
  8  9  1  0  0  0  0
  9 10  1  1  0  0  0
 10 11  1  0  0  0  0
 11 14  1  0  0  0  0
 12 18  1  0  0  0  0
 13 11  2  0  0  0  0
 13 16  1  0  0  0  0
 14 15  1  1  0  0  0
 14 12  1  0  0  0  0
 15 20  1  0  0  0  0
 16 17  1  1  0  0  0
 16 19  1  0  0  0  0
 19 12  2  0  0  0  0
 20 18  1  0  0  0  0
 21  1  1  0  0  0  0
 21 30  1  0  0  0  0
 22 29  1  0  0  0  0
 23 35  1  1  0  0  0
 23 26  1  0  0  0  0
 23 28  1  0  0  0  0
 25 29  1  0  0  0  0
 25 24  1  1  0  0  0
 26 25  1  0  0  0  0
 28 22  1  0  0  0  0
 28 27  1  0  0  0  0
 29 24  1  0  0  0  0
 30 26  1  0  0  0  0
 30 25  1  0  0  0  0
 32 28  1  0  0  0  0
 32 31  1  0  0  0  0
 33 32  2  0  0  0  0
 35 34  2  0  0  0  0
 36 37  2  0  0  0  0
 37 38  1  0  0  0  0
 37 35  1  0  0  0  0
M  END
>  <MODEL>
3

>  <REMARK>
 VINA RESULT:      -8.0      2.007      3.257
  Name = 
  8 active torsions:
  status: ('A' for Active; 'I' for Inactive)
    1  A    between atoms: C_3  and  C_6
    2  A    between atoms: C_3  and  C_15
    3  A    between atoms: C_5  and  S_19
    4  A    between atoms: C_6  and  C_36
    5  A    between atoms: C_8  and  C_38
    6  A    between atoms: C_12  and  C_38
    7  A    between atoms: S_19  and  C_37
    8  A    between atoms: C_26  and  C_28
                            x       y       z     vdW  Elec       q    Type
                         _______ _______ _______ _____ _____    ______ ____

>  <TORSDO>
F 8

$$$$
=
 OpenBabel11062413043D

 38 44  0  0  1  0  0  0  0  0999 V2000
  184.8410  178.5250  141.5610 C   0  0  0  0  0  2  0  0  0  0  0  0
  182.5650  176.8060  139.7470 C   0  0  0  0  0  0  0  0  0  0  0  0
  180.7540  177.5240  141.2510 O   0  0  0  0  0  0  0  0  0  0  0  0
  183.9160  179.4770  140.8070 C   0  0  2  0  0  3  0  0  0  0  0  0
  182.5840  178.8460  140.5470 N   0  0  0  0  0  0  0  0  0  0  0  0
  182.2580  175.6030  139.5210 O   0  0  0  0  0  0  0  0  0  0  0  0
  181.8560  177.6780  140.6620 C   0  0  0  0  0  0  0  0  0  0  0  0
  183.6250  179.0700  139.5230 C   0  0  2  0  0  3  0  0  0  0  0  0
  183.7530  177.5540  139.0970 C   0  0  2  0  0  3  0  0  0  0  0  0
  183.6710  177.4090  137.2850 S   0  0  0  0  0  0  0  0  0  0  0  0
  185.4230  177.0350  137.1320 C   0  0  0  0  0  0  0  0  0  0  0  0
  187.1990  175.3830  136.9950 C   0  0  0  0  0  0  0  0  0  0  0  0
  186.3310  177.9390  137.5520 C   0  0  0  0  0  3  0  0  0  0  0  0
  185.9030  175.7820  136.4290 C   0  0  1  0  0  3  0  0  0  0  0  0
  185.0930  174.5180  136.7250 C   0  0  0  0  0  2  0  0  0  0  0  0
  187.8070  177.6670  137.3370 C   0  0  1  0  0  3  0  0  0  0  0  0
  188.5580  178.3560  138.2700 F   0  0  0  0  0  0  0  0  0  0  0  0
  187.2500  174.0320  137.2060 O   0  0  0  0  0  0  0  0  0  0  0  0
  188.0810  176.2290  137.4350 N   0  0  0  0  0  0  0  0  0  0  0  0
  186.0460  173.4130  136.9490 N   0  0  0  0  0  2  0  0  0  0  0  0
  186.2980  178.8070  141.2250 C   0  0  0  0  0  2  0  0  0  0  0  0
  188.3650  178.3960  145.0190 C   0  0  0  0  0  2  0  0  0  0  0  0
  189.2630  177.4260  142.8400 C   0  0  1  0  0  3  0  0  0  0  0  0
  186.9090  176.4510  144.4210 C   0  0  0  0  0  2  0  0  0  0  0  0
  186.6010  177.4420  143.2900 C   0  0  2  0  0  0  0  0  0  0  0  0
  187.8150  177.2350  142.3360 C   0  0  1  0  0  3  0  0  0  0  0  0
  189.6110  176.3680  144.9790 F   0  0  0  0  0  0  0  0  0  0  0  0
  189.5030  177.6050  144.3580 C   0  0  2  0  0  0  0  0  0  0  0  0
  186.9250  177.9010  144.7390 C   0  0  2  0  0  3  0  0  0  0  0  0
  187.1850  178.5730  142.4360 C   0  0  1  0  0  3  0  0  0  0  0  0
  190.9820  179.4560  143.9710 O   0  0  0  0  0  0  0  0  0  0  0  0
  190.7850  178.3610  144.5660 C   0  0  0  0  0  0  0  0  0  0  0  0
  191.7740  177.8480  145.3940 O   0  0  0  0  0  1  0  0  0  0  0  0
  190.3280  175.2860  142.7250 O   0  0  0  0  0  0  0  0  0  0  0  0
  190.1860  176.4260  142.2070 C   0  0  0  0  0  0  0  0  0  0  0  0
  190.5370  176.2480  139.7640 O   0  0  0  0  0  0  0  0  0  0  0  0
  190.9330  176.7670  140.9900 C   0  0  0  0  0  0  0  0  0  0  0  0
  191.9280  177.5380  141.0460 O   0  0  0  0  0  1  0  0  0  0  0  0
  2  7  1  0  0  0  0
  4  1  1  1  0  0  0
  5  7  1  0  0  0  0
  5  4  1  0  0  0  0
  6  2  2  0  0  0  0
  7  3  2  0  0  0  0
  8  5  1  1  0  0  0
  8  4  1  0  0  0  0
  9 10  1  6  0  0  0
  9  8  1  0  0  0  0
  9  2  1  0  0  0  0
 11 10  1  0  0  0  0
 11 13  2  0  0  0  0
 12 18  1  0  0  0  0
 12 19  2  0  0  0  0
 14 15  1  1  0  0  0
 14 12  1  0  0  0  0
 14 11  1  0  0  0  0
 15 20  1  0  0  0  0
 16 19  1  0  0  0  0
 16 13  1  0  0  0  0
 16 17  1  1  0  0  0
 20 18  1  0  0  0  0
 21  1  1  0  0  0  0
 21 30  1  0  0  0  0
 23 35  1  1  0  0  0
 23 28  1  0  0  0  0
 24 29  1  0  0  0  0
 25 24  1  6  0  0  0
 25 29  1  0  0  0  0
 26 30  1  0  0  0  0
 26 23  1  0  0  0  0
 26 25  1  0  0  0  0
 28 32  1  0  0  0  0
 28 27  1  0  0  0  0
 28 22  1  0  0  0  0
 29 22  1  0  0  0  0
 30 25  1  0  0  0  0
 31 32  2  0  0  0  0
 32 33  1  0  0  0  0
 35 34  2  0  0  0  0
 36 37  2  0  0  0  0
 37 38  1  0  0  0  0
 37 35  1  0  0  0  0
M  END
>  <MODEL>
4

>  <REMARK>
 VINA RESULT:      -8.0      3.639      8.881
  Name = 
  8 active torsions:
  status: ('A' for Active; 'I' for Inactive)
    1  A    between atoms: C_3  and  C_6
    2  A    between atoms: C_3  and  C_15
    3  A    between atoms: C_5  and  S_19
    4  A    between atoms: C_6  and  C_36
    5  A    between atoms: C_8  and  C_38
    6  A    between atoms: C_12  and  C_38
    7  A    between atoms: S_19  and  C_37
    8  A    between atoms: C_26  and  C_28
                            x       y       z     vdW  Elec       q    Type
                         _______ _______ _______ _____ _____    ______ ____

>  <TORSDO>
F 8

$$$$
=
 OpenBabel11062413043D

 38 44  0  0  1  0  0  0  0  0999 V2000
  185.3740  178.6280  140.8370 C   0  0  0  0  0  2  0  0  0  0  0  0
  182.8930  176.8040  139.4430 C   0  0  0  0  0  0  0  0  0  0  0  0
  181.1940  178.0750  140.6890 O   0  0  0  0  0  0  0  0  0  0  0  0
  184.5650  179.4730  139.8540 C   0  0  2  0  0  3  0  0  0  0  0  0
  183.1650  178.9600  139.7260 N   0  0  0  0  0  0  0  0  0  0  0  0
  182.4430  175.6280  139.5080 O   0  0  0  0  0  0  0  0  0  0  0  0
  182.3020  177.9500  140.1040 C   0  0  0  0  0  0  0  0  0  0  0  0
  184.2180  178.8040  138.7020 C   0  0  2  0  0  3  0  0  0  0  0  0
  184.1590  177.2260  138.6570 C   0  0  2  0  0  3  0  0  0  0  0  0
  184.0460  176.6560  136.9330 S   0  0  0  0  0  0  0  0  0  0  0  0
  185.6050  175.7650  137.0160 C   0  0  0  0  0  0  0  0  0  0  0  0
  187.9980  175.7060  136.6060 C   0  0  0  0  0  0  0  0  0  0  0  0
  185.5970  174.4160  137.0100 C   0  0  0  0  0  3  0  0  0  0  0  0
  186.9190  176.4910  137.2190 C   0  0  1  0  0  3  0  0  0  0  0  0
  187.0700  177.7950  136.4320 C   0  0  0  0  0  2  0  0  0  0  0  0
  186.9020  173.6630  137.1770 C   0  0  1  0  0  3  0  0  0  0  0  0
  186.8020  172.4080  136.6080 F   0  0  0  0  0  0  0  0  0  0  0  0
  188.8560  176.5100  135.9060 O   0  0  0  0  0  0  0  0  0  0  0  0
  188.0040  174.4080  136.5590 N   0  0  0  0  0  0  0  0  0  0  0  0
  188.4270  177.8180  135.8540 N   0  0  0  0  0  2  0  0  0  0  0  0
  185.5900  179.3780  142.1440 C   0  0  0  0  0  2  0  0  0  0  0  0
  188.8090  178.0070  144.7120 C   0  0  0  0  0  2  0  0  0  0  0  0
  188.9250  177.9010  142.1680 C   0  0  1  0  0  3  0  0  0  0  0  0
  187.2380  176.2040  143.9750 C   0  0  0  0  0  2  0  0  0  0  0  0
  186.5680  177.4650  143.4100 C   0  0  2  0  0  0  0  0  0  0  0  0
  187.3920  177.7170  142.1120 C   0  0  1  0  0  3  0  0  0  0  0  0
  189.9700  176.2570  143.5900 F   0  0  0  0  0  0  0  0  0  0  0  0
  189.6600  177.6070  143.4980 C   0  0  2  0  0  0  0  0  0  0  0  0
  187.3590  177.4660  144.7480 C   0  0  2  0  0  3  0  0  0  0  0  0
  186.8310  178.8700  142.8570 C   0  0  1  0  0  3  0  0  0  0  0  0
  192.0300  177.8580  143.2080 O   0  0  0  0  0  0  0  0  0  0  0  0
  190.9370  178.3980  143.5370 C   0  0  0  0  0  0  0  0  0  0  0  0
  190.9300  179.7200  143.9610 O   0  0  0  0  0  1  0  0  0  0  0  0
  190.1810  176.1680  141.0960 O   0  0  0  0  0  0  0  0  0  0  0  0
  189.5830  177.2710  140.9750 C   0  0  0  0  0  0  0  0  0  0  0  0
  188.6810  179.0030  139.4540 O   0  0  0  0  0  1  0  0  0  0  0  0
  189.5430  177.9340  139.6660 C   0  0  0  0  0  0  0  0  0  0  0  0
  190.2930  177.5480  138.7300 O   0  0  0  0  0  0  0  0  0  0  0  0
  1 21  1  0  0  0  0
  2  6  2  0  0  0  0
  2  7  1  0  0  0  0
  4  1  1  1  0  0  0
  5  4  1  0  0  0  0
  5  7  1  0  0  0  0
  7  3  2  0  0  0  0
  8  5  1  1  0  0  0
  8  4  1  0  0  0  0
  9 10  1  6  0  0  0
  9  8  1  0  0  0  0
  9  2  1  0  0  0  0
 10 11  1  0  0  0  0
 11 14  1  0  0  0  0
 12 14  1  0  0  0  0
 13 11  2  0  0  0  0
 13 16  1  0  0  0  0
 14 15  1  6  0  0  0
 16 17  1  6  0  0  0
 18 12  1  0  0  0  0
 19 12  2  0  0  0  0
 19 16  1  0  0  0  0
 20 18  1  0  0  0  0
 20 15  1  0  0  0  0
 21 30  1  0  0  0  0
 22 29  1  0  0  0  0
 23 35  1  6  0  0  0
 23 28  1  0  0  0  0
 24 29  1  0  0  0  0
 25 24  1  6  0  0  0
 25 29  1  0  0  0  0
 26 23  1  0  0  0  0
 26 30  1  0  0  0  0
 26 25  1  0  0  0  0
 28 32  1  0  0  0  0
 28 27  1  0  0  0  0
 28 22  1  0  0  0  0
 30 25  1  0  0  0  0
 31 32  2  0  0  0  0
 32 33  1  0  0  0  0
 35 34  2  0  0  0  0
 36 37  1  0  0  0  0
 37 35  1  0  0  0  0
 38 37  2  0  0  0  0
M  END
>  <MODEL>
5

>  <REMARK>
 VINA RESULT:      -7.8      3.843      8.667
  Name = 
  8 active torsions:
  status: ('A' for Active; 'I' for Inactive)
    1  A    between atoms: C_3  and  C_6
    2  A    between atoms: C_3  and  C_15
    3  A    between atoms: C_5  and  S_19
    4  A    between atoms: C_6  and  C_36
    5  A    between atoms: C_8  and  C_38
    6  A    between atoms: C_12  and  C_38
    7  A    between atoms: S_19  and  C_37
    8  A    between atoms: C_26  and  C_28
                            x       y       z     vdW  Elec       q    Type
                         _______ _______ _______ _____ _____    ______ ____

>  <TORSDO>
F 8

$$$$
=
 OpenBabel11062413043D

 38 44  0  0  1  0  0  0  0  0999 V2000
  188.1340  177.4870  139.8130 C   0  0  0  0  0  2  0  0  0  0  0  0
  190.0170  176.3430  142.3770 C   0  0  0  0  0  0  0  0  0  0  0  0
  192.0720  177.1520  141.2900 O   0  0  0  0  0  0  0  0  0  0  0  0
  188.7050  178.6460  140.6270 C   0  0  2  0  0  3  0  0  0  0  0  0
  189.9790  178.2550  141.3050 N   0  0  0  0  0  0  0  0  0  0  0  0
  190.3870  175.2330  142.8470 O   0  0  0  0  0  0  0  0  0  0  0  0
  190.8420  177.2040  141.5520 C   0  0  0  0  0  0  0  0  0  0  0  0
  188.6820  178.4330  141.9880 C   0  0  2  0  0  3  0  0  0  0  0  0
  188.6190  176.9730  142.5870 C   0  0  2  0  0  3  0  0  0  0  0  0
  188.2240  177.0450  144.3620 S   0  0  0  0  0  0  0  0  0  0  0  0
  186.6470  177.8620  144.0840 C   0  0  0  0  0  0  0  0  0  0  0  0
  184.5970  178.8030  144.9860 C   0  0  0  0  0  0  0  0  0  0  0  0
  186.0250  177.7110  142.8970 C   0  0  0  0  0  3  0  0  0  0  0  0
  186.0610  178.8160  145.1050 C   0  0  1  0  0  3  0  0  0  0  0  0
  186.2050  178.3760  146.5640 C   0  0  0  0  0  2  0  0  0  0  0  0
  184.7440  178.4740  142.6250 C   0  0  1  0  0  3  0  0  0  0  0  0
  183.9890  177.8130  141.6750 F   0  0  0  0  0  0  0  0  0  0  0  0
  184.0030  178.7650  146.2180 O   0  0  0  0  0  0  0  0  0  0  0  0
  183.9700  178.6300  143.8620 N   0  0  0  0  0  0  0  0  0  0  0  0
  184.9170  178.6280  147.2390 N   0  0  0  0  0  2  0  0  0  0  0  0
  188.3330  177.7230  138.3220 C   0  0  0  0  0  2  0  0  0  0  0  0
  184.8460  176.9540  135.8550 C   0  0  0  0  0  2  0  0  0  0  0  0
  186.0800  175.1190  137.1220 C   0  0  1  0  0  3  0  0  0  0  0  0
  187.0330  176.5950  134.6930 C   0  0  0  0  0  2  0  0  0  0  0  0
  187.4790  177.1610  136.0480 C   0  0  2  0  0  0  0  0  0  0  0  0
  187.3990  175.9070  136.9680 C   0  0  1  0  0  3  0  0  0  0  0  0
  185.0110  174.7410  134.9930 F   0  0  0  0  0  0  0  0  0  0  0  0
  184.8990  175.4540  136.1790 C   0  0  2  0  0  0  0  0  0  0  0  0
  186.1610  177.5990  135.3510 C   0  0  2  0  0  3  0  0  0  0  0  0
  187.1240  177.2480  137.5360 C   0  0  1  0  0  3  0  0  0  0  0  0
  183.3900  175.4150  138.0450 O   0  0  0  0  0  1  0  0  0  0  0  0
  183.6110  175.0720  136.8510 C   0  0  0  0  0  0  0  0  0  0  0  0
  182.6650  174.3150  136.1730 O   0  0  0  0  0  0  0  0  0  0  0  0
  185.6100  172.9290  137.9660 O   0  0  0  0  0  0  0  0  0  0  0  0
  186.3470  173.6450  137.2370 C   0  0  0  0  0  0  0  0  0  0  0  0
  188.6770  172.8160  137.1580 O   0  0  0  0  0  1  0  0  0  0  0  0
  187.4660  173.0320  136.5120 C   0  0  0  0  0  0  0  0  0  0  0  0
  187.3360  172.6900  135.3070 O   0  0  0  0  0  0  0  0  0  0  0  0
  2  9  1  0  0  0  0
  2  6  2  0  0  0  0
  3  7  2  0  0  0  0
  4  1  1  6  0  0  0
  4  5  1  0  0  0  0
  4  8  1  0  0  0  0
  5  7  1  0  0  0  0
  7  2  1  0  0  0  0
  8  5  1  1  0  0  0
  8  9  1  0  0  0  0
  9 10  1  1  0  0  0
 11 10  1  0  0  0  0
 11 14  1  0  0  0  0
 12 14  1  0  0  0  0
 12 18  1  0  0  0  0
 13 11  2  0  0  0  0
 14 15  1  1  0  0  0
 15 20  1  0  0  0  0
 16 17  1  6  0  0  0
 16 13  1  0  0  0  0
 16 19  1  0  0  0  0
 18 20  1  0  0  0  0
 19 12  2  0  0  0  0
 21  1  1  0  0  0  0
 22 28  1  0  0  0  0
 23 35  1  6  0  0  0
 24 29  1  0  0  0  0
 25 24  1  6  0  0  0
 25 26  1  0  0  0  0
 25 30  1  0  0  0  0
 26 23  1  0  0  0  0
 26 30  1  0  0  0  0
 27 28  1  0  0  0  0
 28 32  1  0  0  0  0
 28 23  1  0  0  0  0
 29 22  1  0  0  0  0
 29 25  1  0  0  0  0
 30 21  1  0  0  0  0
 32 31  1  0  0  0  0
 33 32  2  0  0  0  0
 35 34  2  0  0  0  0
 37 36  1  0  0  0  0
 37 35  1  0  0  0  0
 38 37  2  0  0  0  0
M  END
>  <MODEL>
6

>  <REMARK>
 VINA RESULT:      -7.7      3.932      6.188
  Name = 
  8 active torsions:
  status: ('A' for Active; 'I' for Inactive)
    1  A    between atoms: C_3  and  C_6
    2  A    between atoms: C_3  and  C_15
    3  A    between atoms: C_5  and  S_19
    4  A    between atoms: C_6  and  C_36
    5  A    between atoms: C_8  and  C_38
    6  A    between atoms: C_12  and  C_38
    7  A    between atoms: S_19  and  C_37
    8  A    between atoms: C_26  and  C_28
                            x       y       z     vdW  Elec       q    Type
                         _______ _______ _______ _____ _____    ______ ____

>  <TORSDO>
F 8

$$$$
=
 OpenBabel11062413043D

 38 44  0  0  1  0  0  0  0  0999 V2000
  186.0270  178.0280  141.2960 C   0  0  0  0  0  2  0  0  0  0  0  0
  189.0580  177.1190  140.1090 C   0  0  0  0  0  0  0  0  0  0  0  0
  189.0240  178.9620  138.4780 O   0  0  0  0  0  0  0  0  0  0  0  0
  187.0910  179.0540  141.6820 C   0  0  2  0  0  3  0  0  0  0  0  0
  188.2200  179.0560  140.7010 N   0  0  0  0  0  0  0  0  0  0  0  0
  189.5570  176.1790  139.4330 O   0  0  0  0  0  0  0  0  0  0  0  0
  188.7350  178.4300  139.5820 C   0  0  0  0  0  0  0  0  0  0  0  0
  188.2900  178.4930  142.0640 C   0  0  2  0  0  3  0  0  0  0  0  0
  188.6930  177.0340  141.6110 C   0  0  2  0  0  3  0  0  0  0  0  0
  190.1250  176.4570  142.5730 S   0  0  0  0  0  0  0  0  0  0  0  0
  189.4150  176.9800  144.1390 C   0  0  0  0  0  0  0  0  0  0  0  0
  189.6490  177.2840  146.5380 C   0  0  0  0  0  0  0  0  0  0  0  0
  188.0760  176.9550  144.2990 C   0  0  0  0  0  3  0  0  0  0  0  0
  190.2760  177.5650  145.2400 C   0  0  1  0  0  3  0  0  0  0  0  0
  191.6240  176.8730  145.4490 C   0  0  0  0  0  2  0  0  0  0  0  0
  187.4690  177.4850  145.5830 C   0  0  1  0  0  3  0  0  0  0  0  0
  186.2400  176.8960  145.8060 F   0  0  0  0  0  0  0  0  0  0  0  0
  190.5770  176.8740  147.4550 O   0  0  0  0  0  0  0  0  0  0  0  0
  188.3640  177.2240  146.7160 N   0  0  0  0  0  0  0  0  0  0  0  0
  191.8290  176.7160  146.9020 N   0  0  0  0  0  2  0  0  0  0  0  0
  184.7290  178.2870  142.0490 C   0  0  0  0  0  2  0  0  0  0  0  0
  181.0270  178.1440  139.7880 C   0  0  0  0  0  2  0  0  0  0  0  0
  183.0900  176.7890  139.1550 C   0  0  1  0  0  3  0  0  0  0  0  0
  182.7220  179.7530  138.8930 C   0  0  0  0  0  2  0  0  0  0  0  0
  183.3930  179.2660  140.1850 C   0  0  2  0  0  0  0  0  0  0  0  0
  183.9920  177.8960  139.7440 C   0  0  1  0  0  3  0  0  0  0  0  0
  181.5540  177.6650  137.5160 F   0  0  0  0  0  0  0  0  0  0  0  0
  181.6260  177.1350  138.7970 C   0  0  2  0  0  0  0  0  0  0  0  0
  181.8530  179.4270  140.0510 C   0  0  2  0  0  3  0  0  0  0  0  0
  183.5290  178.0760  141.1420 C   0  0  1  0  0  3  0  0  0  0  0  0
  180.0310  175.5880  137.8880 O   0  0  0  0  0  0  0  0  0  0  0  0
  180.7990  175.8810  138.8460 C   0  0  0  0  0  0  0  0  0  0  0  0
  180.8540  175.0490  139.9560 O   0  0  0  0  0  1  0  0  0  0  0  0
  183.6690  174.7900  137.9720 O   0  0  0  0  0  0  0  0  0  0  0  0
  183.8060  176.0390  138.0680 C   0  0  0  0  0  0  0  0  0  0  0  0
  186.0170  176.9320  137.4090 O   0  0  0  0  0  1  0  0  0  0  0  0
  184.6710  176.7490  137.1190 C   0  0  0  0  0  0  0  0  0  0  0  0
  184.2050  177.1880  136.0340 O   0  0  0  0  0  0  0  0  0  0  0  0
  1 21  1  0  0  0  0
  2  9  1  0  0  0  0
  3  7  2  0  0  0  0
  4  1  1  6  0  0  0
  4  8  1  0  0  0  0
  5  4  1  0  0  0  0
  6  2  2  0  0  0  0
  7  2  1  0  0  0  0
  7  5  1  0  0  0  0
  8  5  1  6  0  0  0
  9  8  1  0  0  0  0
  9 10  1  1  0  0  0
 10 11  1  0  0  0  0
 11 13  2  0  0  0  0
 11 14  1  0  0  0  0
 12 19  2  0  0  0  0
 12 18  1  0  0  0  0
 13 16  1  0  0  0  0
 14 15  1  1  0  0  0
 14 12  1  0  0  0  0
 15 20  1  0  0  0  0
 16 17  1  1  0  0  0
 16 19  1  0  0  0  0
 20 18  1  0  0  0  0
 22 29  1  0  0  0  0
 23 35  1  6  0  0  0
 23 26  1  0  0  0  0
 24 29  1  0  0  0  0
 25 24  1  1  0  0  0
 25 30  1  0  0  0  0
 26 25  1  0  0  0  0
 26 30  1  0  0  0  0
 27 28  1  0  0  0  0
 28 32  1  0  0  0  0
 28 23  1  0  0  0  0
 28 22  1  0  0  0  0
 29 25  1  0  0  0  0
 30 21  1  0  0  0  0
 31 32  2  0  0  0  0
 32 33  1  0  0  0  0
 34 35  2  0  0  0  0
 37 36  1  0  0  0  0
 37 35  1  0  0  0  0
 38 37  2  0  0  0  0
M  END
>  <MODEL>
7

>  <REMARK>
 VINA RESULT:      -7.7      2.155      3.448
  Name = 
  8 active torsions:
  status: ('A' for Active; 'I' for Inactive)
    1  A    between atoms: C_3  and  C_6
    2  A    between atoms: C_3  and  C_15
    3  A    between atoms: C_5  and  S_19
    4  A    between atoms: C_6  and  C_36
    5  A    between atoms: C_8  and  C_38
    6  A    between atoms: C_12  and  C_38
    7  A    between atoms: S_19  and  C_37
    8  A    between atoms: C_26  and  C_28
                            x       y       z     vdW  Elec       q    Type
                         _______ _______ _______ _____ _____    ______ ____

>  <TORSDO>
F 8

$$$$
=
 OpenBabel11062413043D

 38 44  0  0  1  0  0  0  0  0999 V2000
  187.1980  177.5550  138.3960 C   0  0  0  0  0  2  0  0  0  0  0  0
  190.3300  176.2840  138.4260 C   0  0  0  0  0  0  0  0  0  0  0  0
  190.5180  176.5640  135.9880 O   0  0  0  0  0  0  0  0  0  0  0  0
  188.2280  178.6420  138.0980 C   0  0  2  0  0  3  0  0  0  0  0  0
  189.4640  178.0630  137.4840 N   0  0  0  0  0  0  0  0  0  0  0  0
  190.8880  175.1670  138.6060 O   0  0  0  0  0  0  0  0  0  0  0  0
  190.0930  176.8860  137.1290 C   0  0  0  0  0  0  0  0  0  0  0  0
  189.3650  178.5570  138.8720 C   0  0  2  0  0  3  0  0  0  0  0  0
  189.7920  177.1980  139.5530 C   0  0  2  0  0  3  0  0  0  0  0  0
  191.0930  177.5020  140.7880 S   0  0  0  0  0  0  0  0  0  0  0  0
  189.9140  177.7120  142.1300 C   0  0  0  0  0  0  0  0  0  0  0  0
  189.4540  177.7570  144.5150 C   0  0  0  0  0  0  0  0  0  0  0  0
  188.6090  177.4550  141.9090 C   0  0  0  0  0  3  0  0  0  0  0  0
  190.3340  178.2900  143.4660 C   0  0  1  0  0  3  0  0  0  0  0  0
  191.6860  177.8000  143.9900 C   0  0  0  0  0  2  0  0  0  0  0  0
  187.6010  177.7220  143.0090 C   0  0  1  0  0  3  0  0  0  0  0  0
  186.4880  176.9220  142.8380 F   0  0  0  0  0  0  0  0  0  0  0  0
  190.1710  177.3920  145.6210 O   0  0  0  0  0  0  0  0  0  0  0  0
  188.2020  177.4720  144.3240 N   0  0  0  0  0  0  0  0  0  0  0  0
  191.5310  177.5030  145.4280 N   0  0  0  0  0  2  0  0  0  0  0  0
  186.3400  177.2720  137.1700 C   0  0  0  0  0  2  0  0  0  0  0  0
  182.2190  178.6310  137.1350 C   0  0  0  0  0  2  0  0  0  0  0  0
  183.5880  178.4150  139.2730 C   0  0  1  0  0  3  0  0  0  0  0  0
  182.4960  176.1870  137.5920 C   0  0  0  0  0  2  0  0  0  0  0  0
  183.9360  176.6210  137.2870 C   0  0  2  0  0  0  0  0  0  0  0  0
  184.3800  177.2490  138.6420 C   0  0  1  0  0  3  0  0  0  0  0  0
  181.2100  178.0210  139.2040 F   0  0  0  0  0  0  0  0  0  0  0  0
  182.2210  178.8030  138.6610 C   0  0  2  0  0  0  0  0  0  0  0  0
  182.7030  177.2640  136.5930 C   0  0  2  0  0  3  0  0  0  0  0  0
  184.9260  177.7880  137.3730 C   0  0  1  0  0  3  0  0  0  0  0  0
  180.8140  180.5830  139.4440 O   0  0  0  0  0  1  0  0  0  0  0  0
  181.9350  180.2440  138.9730 C   0  0  0  0  0  0  0  0  0  0  0  0
  182.8910  181.2190  138.7210 O   0  0  0  0  0  0  0  0  0  0  0  0
  182.7320  177.5070  141.3150 O   0  0  0  0  0  0  0  0  0  0  0  0
  183.5540  178.2900  140.7690 C   0  0  0  0  0  0  0  0  0  0  0  0
  185.5500  179.7310  141.0250 O   0  0  0  0  0  0  0  0  0  0  0  0
  184.4680  179.0790  141.6040 C   0  0  0  0  0  0  0  0  0  0  0  0
  184.2750  179.1800  142.8440 O   0  0  0  0  0  1  0  0  0  0  0  0
  2  6  2  0  0  0  0
  2  9  1  0  0  0  0
  3  7  2  0  0  0  0
  4  1  1  1  0  0  0
  4  8  1  0  0  0  0
  5  4  1  0  0  0  0
  7  5  1  0  0  0  0
  7  2  1  0  0  0  0
  8  5  1  6  0  0  0
  8  9  1  0  0  0  0
  9 10  1  1  0  0  0
 10 11  1  0  0  0  0
 11 14  1  0  0  0  0
 12 18  1  0  0  0  0
 13 11  2  0  0  0  0
 13 16  1  0  0  0  0
 14 15  1  1  0  0  0
 14 12  1  0  0  0  0
 15 20  1  0  0  0  0
 16 17  1  6  0  0  0
 16 19  1  0  0  0  0
 19 12  2  0  0  0  0
 20 18  1  0  0  0  0
 21 30  1  0  0  0  0
 21  1  1  0  0  0  0
 22 28  1  0  0  0  0
 23 35  1  1  0  0  0
 25 30  1  0  0  0  0
 25 24  1  6  0  0  0
 25 26  1  0  0  0  0
 26 23  1  0  0  0  0
 28 32  1  0  0  0  0
 28 27  1  0  0  0  0
 28 23  1  0  0  0  0
 29 22  1  0  0  0  0
 29 25  1  0  0  0  0
 29 24  1  0  0  0  0
 30 26  1  0  0  0  0
 32 31  1  0  0  0  0
 33 32  2  0  0  0  0
 35 34  2  0  0  0  0
 35 37  1  0  0  0  0
 36 37  2  0  0  0  0
 37 38  1  0  0  0  0
M  END
>  <MODEL>
8

>  <REMARK>
 VINA RESULT:      -7.5      2.197      2.958
  Name = 
  8 active torsions:
  status: ('A' for Active; 'I' for Inactive)
    1  A    between atoms: C_3  and  C_6
    2  A    between atoms: C_3  and  C_15
    3  A    between atoms: C_5  and  S_19
    4  A    between atoms: C_6  and  C_36
    5  A    between atoms: C_8  and  C_38
    6  A    between atoms: C_12  and  C_38
    7  A    between atoms: S_19  and  C_37
    8  A    between atoms: C_26  and  C_28
                            x       y       z     vdW  Elec       q    Type
                         _______ _______ _______ _____ _____    ______ ____

>  <TORSDO>
F 8

$$$$
=
 OpenBabel11062413043D

 38 44  0  0  1  0  0  0  0  0999 V2000
  186.4070  178.4960  142.6420 C   0  0  0  0  0  2  0  0  0  0  0  0
  189.6680  178.4780  143.5310 C   0  0  0  0  0  0  0  0  0  0  0  0
  189.0700  178.1350  145.8940 O   0  0  0  0  0  0  0  0  0  0  0  0
  186.8460  177.0960  143.0680 C   0  0  2  0  0  3  0  0  0  0  0  0
  187.9910  177.1580  144.0290 N   0  0  0  0  0  0  0  0  0  0  0  0
  190.6220  179.2980  143.6170 O   0  0  0  0  0  0  0  0  0  0  0  0
  188.8850  178.0050  144.6550 C   0  0  0  0  0  0  0  0  0  0  0  0
  188.0990  176.7460  142.6150 C   0  0  2  0  0  3  0  0  0  0  0  0
  189.1610  177.8430  142.2130 C   0  0  2  0  0  3  0  0  0  0  0  0
  190.5440  177.0720  141.3160 S   0  0  0  0  0  0  0  0  0  0  0  0
  189.6560  177.0550  139.7530 C   0  0  0  0  0  0  0  0  0  0  0  0
  189.6880  176.7950  137.3380 C   0  0  0  0  0  0  0  0  0  0  0  0
  188.5090  177.7560  139.6360 C   0  0  0  0  0  3  0  0  0  0  0  0
  190.0980  176.1730  138.6040 C   0  0  1  0  0  3  0  0  0  0  0  0
  191.6100  176.1050  138.3800 C   0  0  0  0  0  2  0  0  0  0  0  0
  187.7090  177.6670  138.3520 C   0  0  1  0  0  3  0  0  0  0  0  0
  186.9400  178.8040  138.1910 F   0  0  0  0  0  0  0  0  0  0  0  0
  190.6900  176.7300  136.4090 O   0  0  0  0  0  0  0  0  0  0  0  0
  188.6060  177.5010  137.2020 N   0  0  0  0  0  0  0  0  0  0  0  0
  191.8560  176.2110  136.9280 N   0  0  0  0  0  2  0  0  0  0  0  0
  184.9050  178.6680  142.8170 C   0  0  0  0  0  2  0  0  0  0  0  0
  183.4910  178.9930  138.7270 C   0  0  0  0  0  2  0  0  0  0  0  0
  182.0030  179.4390  140.7470 C   0  0  1  0  0  3  0  0  0  0  0  0
  183.0280  176.7830  139.8070 C   0  0  0  0  0  2  0  0  0  0  0  0
  183.8690  177.4930  140.8770 C   0  0  2  0  0  0  0  0  0  0  0  0
  182.8140  178.4100  141.5650 C   0  0  1  0  0  3  0  0  0  0  0  0
  181.1640  178.4880  138.6960 F   0  0  0  0  0  0  0  0  0  0  0  0
  182.0870  179.3930  139.2030 C   0  0  2  0  0  0  0  0  0  0  0  0
  184.0940  177.7120  139.3550 C   0  0  2  0  0  3  0  0  0  0  0  0
  184.2240  178.8600  141.4740 C   0  0  1  0  0  3  0  0  0  0  0  0
  180.7030  180.9580  138.0200 O   0  0  0  0  0  0  0  0  0  0  0  0
  181.7760  180.7570  138.6540 C   0  0  0  0  0  0  0  0  0  0  0  0
  182.6770  181.8000  138.8160 O   0  0  0  0  0  1  0  0  0  0  0  0
  180.0490  180.6720  141.3730 O   0  0  0  0  0  0  0  0  0  0  0  0
  180.5960  179.5420  141.2620 C   0  0  0  0  0  0  0  0  0  0  0  0
  179.5860  178.0810  142.9850 O   0  0  0  0  0  1  0  0  0  0  0  0
  179.8530  178.3360  141.6450 C   0  0  0  0  0  0  0  0  0  0  0  0
  179.4450  177.5300  140.7670 O   0  0  0  0  0  0  0  0  0  0  0  0
  1 21  1  0  0  0  0
  2  6  2  0  0  0  0
  2  7  1  0  0  0  0
  4  1  1  6  0  0  0
  4  5  1  0  0  0  0
  5  7  1  0  0  0  0
  7  3  2  0  0  0  0
  8  4  1  0  0  0  0
  8  5  1  1  0  0  0
  9 10  1  1  0  0  0
  9  8  1  0  0  0  0
  9  2  1  0  0  0  0
 11 10  1  0  0  0  0
 12 14  1  0  0  0  0
 13 11  2  0  0  0  0
 14 15  1  6  0  0  0
 14 11  1  0  0  0  0
 16 17  1  6  0  0  0
 16 13  1  0  0  0  0
 18 20  1  0  0  0  0
 18 12  1  0  0  0  0
 19 12  2  0  0  0  0
 19 16  1  0  0  0  0
 20 15  1  0  0  0  0
 22 28  1  0  0  0  0
 22 29  1  0  0  0  0
 23 35  1  6  0  0  0
 23 26  1  0  0  0  0
 25 24  1  1  0  0  0
 25 30  1  0  0  0  0
 25 26  1  0  0  0  0
 27 28  1  0  0  0  0
 28 23  1  0  0  0  0
 29 24  1  0  0  0  0
 29 25  1  0  0  0  0
 30 26  1  0  0  0  0
 30 21  1  0  0  0  0
 31 32  2  0  0  0  0
 32 33  1  0  0  0  0
 32 28  1  0  0  0  0
 35 34  2  0  0  0  0
 35 37  1  0  0  0  0
 37 36  1  0  0  0  0
 38 37  2  0  0  0  0
M  END
>  <MODEL>
9

>  <REMARK>
 VINA RESULT:      -7.5      2.245      4.657
  Name = 
  8 active torsions:
  status: ('A' for Active; 'I' for Inactive)
    1  A    between atoms: C_3  and  C_6
    2  A    between atoms: C_3  and  C_15
    3  A    between atoms: C_5  and  S_19
    4  A    between atoms: C_6  and  C_36
    5  A    between atoms: C_8  and  C_38
    6  A    between atoms: C_12  and  C_38
    7  A    between atoms: S_19  and  C_37
    8  A    between atoms: C_26  and  C_28
                            x       y       z     vdW  Elec       q    Type
                         _______ _______ _______ _____ _____    ______ ____

>  <TORSDO>
F 8

$$$$
