=
 OpenBabel11062413443D

 35 40  0  0  1  0  0  0  0  0999 V2000
  188.4980  179.3700  137.2890 O   0  0  0  0  0  1  0  0  0  0  0  0
  187.0770  173.0150  136.8100 C   0  0  2  0  0  3  0  0  0  0  0  0
  189.9010  176.5510  136.4540 C   0  0  0  0  0  2  0  0  0  0  0  0
  188.0200  177.0770  137.9380 C   0  0  1  0  0  3  0  0  0  0  0  0
  187.6780  175.3480  136.1130 C   0  0  0  0  0  2  0  0  0  0  0  0
  184.8830  177.4090  136.4170 O   0  0  0  0  0  0  0  0  0  0  0  0
  182.9300  174.3460  137.8200 N   0  0  2  0  0  0  0  0  0  0  0  0
  183.3510  176.6800  138.2510 C   0  0  0  0  0  0  0  0  0  0  0  0
  182.5640  175.7110  137.4380 C   0  0  0  0  0  2  0  0  0  0  0  0
  188.1450  174.1060  136.8760 C   0  0  2  0  0  3  0  0  0  0  0  0
  183.0780  176.8800  139.6140 C   0  0  0  0  0  3  0  0  0  0  0  0
  186.1700  178.8240  137.5230 C   0  0  1  0  0  3  0  0  0  0  0  0
  184.8790  178.4360  139.7910 C   0  0  0  0  0  0  0  0  0  0  0  0
  180.8760  173.7850  137.0420 O   0  0  0  0  0  0  0  0  0  0  0  0
  185.8460  173.4210  137.6100 C   0  0  0  0  0  2  0  0  0  0  0  0
  190.4230  176.5580  137.8810 C   0  0  1  0  0  3  0  0  0  0  0  0
  184.5060  171.6440  136.8150 O   0  0  0  0  0  0  0  0  0  0  0  0
  185.1660  178.2260  138.4420 C   0  0  0  0  0  0  0  0  0  0  0  0
  184.5980  172.8470  137.0110 C   0  0  0  0  0  0  0  0  0  0  0  0
  183.4700  173.7640  136.6370 C   0  0  1  0  0  3  0  0  0  0  0  0
  187.6040  178.5560  137.9900 C   0  0  2  0  0  3  0  0  0  0  0  0
  185.9260  178.2540  136.2340 O   0  0  0  0  0  0  0  0  0  0  0  0
  184.4210  177.3890  137.7080 C   0  0  0  0  0  0  0  0  0  0  0  0
  188.3870  176.6430  136.5250 C   0  0  2  0  0  3  0  0  0  0  0  0
  181.6020  173.3300  135.8410 C   0  0  0  0  0  0  0  0  0  0  0  0
  189.2520  176.8650  138.7980 C   0  0  0  0  0  2  0  0  0  0  0  0
  182.1540  173.2410  137.1320 C   0  0  2  0  0  0  0  0  0  0  0  0
  187.6120  171.7080  137.3770 C   0  0  0  0  0  1  0  0  0  0  0  0
  181.6480  173.1460  134.5940 O   0  0  0  0  0  0  0  0  0  0  0  0
  185.6460  179.3430  140.5740 N   0  0  0  0  0  1  0  0  0  0  0  0
  183.8380  177.7510  140.3490 N   0  0  0  0  0  0  0  0  0  0  0  0
  189.3280  173.6410  136.2940 O   0  0  0  0  0  1  0  0  0  0  0  0
  190.9370  175.2990  138.1960 O   0  0  0  0  0  0  0  0  0  0  0  0
  193.0980  176.2840  138.1410 C   0  0  0  0  0  1  0  0  0  0  0  0
  192.1750  175.2380  137.5510 C   0  0  0  0  0  2  0  0  0  0  0  0
  2 10  1  0  0  0  0
  2 28  1  1  0  0  0
  2 15  1  0  0  0  0
  3 24  1  0  0  0  0
  3 16  1  0  0  0  0
  4 21  1  0  0  0  0
  4 26  1  1  0  0  0
  5 10  1  0  0  0  0
  6 23  1  0  0  0  0
  7  9  1  6  0  0  0
  8 11  1  0  0  0  0
  9  8  1  0  0  0  0
 10 32  1  6  0  0  0
 11 31  2  0  0  0  0
 12 22  1  6  0  0  0
 12 21  1  0  0  0  0
 12 18  1  0  0  0  0
 13 31  1  0  0  0  0
 13 30  1  0  0  0  0
 14 27  1  0  0  0  0
 16 33  1  1  0  0  0
 16 26  1  0  0  0  0
 17 19  2  0  0  0  0
 18 13  2  0  0  0  0
 19 15  1  0  0  0  0
 20 19  1  1  0  0  0
 20 27  1  0  0  0  0
 20  7  1  0  0  0  0
 21  1  1  6  0  0  0
 22  6  1  0  0  0  0
 23  8  2  0  0  0  0
 23 18  1  0  0  0  0
 24  5  1  1  0  0  0
 24  4  1  0  0  0  0
 25 14  1  0  0  0  0
 27 25  1  6  0  0  0
 27  7  1  0  0  0  0
 29 25  2  0  0  0  0
 35 34  1  0  0  0  0
 35 33  1  0  0  0  0
M  END
>  <MODEL>
1

>  <REMARK>
 VINA RESULT:      -6.1      0.000      0.000
  Name = 
  2 active torsions:
  status: ('A' for Active; 'I' for Inactive)
    1  A    between atoms: C_17  and  O_35
    2  A    between atoms: C_34  and  O_35
                            x       y       z     vdW  Elec       q    Type
                         _______ _______ _______ _____ _____    ______ ____

>  <TORSDO>
F 2

$$$$
=
 OpenBabel11062413443D

 35 40  0  0  1  0  0  0  0  0999 V2000
  189.4570  177.3980  136.1030 O   0  0  0  0  0  1  0  0  0  0  0  0
  183.4650  174.9930  137.0780 C   0  0  2  0  0  3  0  0  0  0  0  0
  187.3140  175.3840  134.7020 C   0  0  0  0  0  2  0  0  0  0  0  0
  187.6500  176.0670  137.0340 C   0  0  1  0  0  3  0  0  0  0  0  0
  185.3330  176.2950  136.0260 C   0  0  0  0  0  2  0  0  0  0  0  0
  186.1000  179.0480  138.0230 O   0  0  0  0  0  0  0  0  0  0  0  0
  183.4090  177.8100  140.5500 N   0  0  2  0  0  0  0  0  0  0  0  0
  185.6770  178.6190  140.4470 C   0  0  0  0  0  0  0  0  0  0  0  0
  184.2400  179.0100  140.4390 C   0  0  0  0  0  2  0  0  0  0  0  0
  184.8000  174.8960  136.3400 C   0  0  2  0  0  3  0  0  0  0  0  0
  186.3050  178.1710  141.6210 C   0  0  0  0  0  3  0  0  0  0  0  0
  188.2180  178.4340  137.8820 C   0  0  1  0  0  3  0  0  0  0  0  0
  188.3480  177.8120  140.4420 C   0  0  0  0  0  0  0  0  0  0  0  0
  181.8420  179.2090  141.4010 O   0  0  0  0  0  0  0  0  0  0  0  0
  183.6650  175.5670  138.4750 C   0  0  0  0  0  2  0  0  0  0  0  0
  188.1100  174.2920  135.3950 C   0  0  1  0  0  3  0  0  0  0  0  0
  181.3570  175.8440  138.9010 O   0  0  0  0  0  0  0  0  0  0  0  0
  187.7240  178.2380  139.2700 C   0  0  0  0  0  0  0  0  0  0  0  0
  182.4680  176.3540  138.9130 C   0  0  0  0  0  0  0  0  0  0  0  0
  182.6420  177.7800  139.3500 C   0  0  1  0  0  3  0  0  0  0  0  0
  188.7360  177.1290  137.2690 C   0  0  2  0  0  3  0  0  0  0  0  0
  187.1190  178.9620  137.1340 O   0  0  0  0  0  0  0  0  0  0  0  0
  186.4450  178.6340  139.2840 C   0  0  0  0  0  0  0  0  0  0  0  0
  186.8440  176.3520  135.7740 C   0  0  2  0  0  3  0  0  0  0  0  0
  181.2430  179.1420  140.0550 C   0  0  0  0  0  0  0  0  0  0  0  0
  188.2990  174.7090  136.8440 C   0  0  0  0  0  2  0  0  0  0  0  0
  181.9150  178.0510  140.6330 C   0  0  2  0  0  0  0  0  0  0  0  0
  182.8230  173.6190  137.2070 C   0  0  0  0  0  1  0  0  0  0  0  0
  180.5910  179.6810  139.1180 O   0  0  0  0  0  0  0  0  0  0  0  0
  189.7150  177.4140  140.4450 N   0  0  0  0  0  1  0  0  0  0  0  0
  187.6180  177.7840  141.5960 N   0  0  0  0  0  0  0  0  0  0  0  0
  184.6250  174.2020  135.1400 O   0  0  0  0  0  1  0  0  0  0  0  0
  187.3960  173.0930  135.3510 O   0  0  0  0  0  0  0  0  0  0  0  0
  187.9210  170.7980  135.6640 C   0  0  0  0  0  1  0  0  0  0  0  0
  188.1090  172.2130  136.1700 C   0  0  0  0  0  2  0  0  0  0  0  0
  2 28  1  1  0  0  0
  2 15  1  0  0  0  0
  3 16  1  0  0  0  0
  4 26  1  6  0  0  0
  4 21  1  0  0  0  0
  5 10  1  0  0  0  0
  6 23  1  0  0  0  0
  7  9  1  6  0  0  0
  7 27  1  0  0  0  0
  8 11  1  0  0  0  0
  9  8  1  0  0  0  0
 10 32  1  6  0  0  0
 10  2  1  0  0  0  0
 12 22  1  6  0  0  0
 12 18  1  0  0  0  0
 13 30  1  0  0  0  0
 13 31  1  0  0  0  0
 15 19  1  0  0  0  0
 16 33  1  1  0  0  0
 16 26  1  0  0  0  0
 17 19  2  0  0  0  0
 18 23  1  0  0  0  0
 18 13  2  0  0  0  0
 20 19  1  1  0  0  0
 20  7  1  0  0  0  0
 20 27  1  0  0  0  0
 21  1  1  6  0  0  0
 21 12  1  0  0  0  0
 22  6  1  0  0  0  0
 23  8  2  0  0  0  0
 24  3  1  6  0  0  0
 24  5  1  0  0  0  0
 24  4  1  0  0  0  0
 25 14  1  0  0  0  0
 27 25  1  6  0  0  0
 27 14  1  0  0  0  0
 29 25  2  0  0  0  0
 31 11  2  0  0  0  0
 33 35  1  0  0  0  0
 34 35  1  0  0  0  0
M  END
>  <MODEL>
2

>  <REMARK>
 VINA RESULT:      -6.0      2.314      4.448
  Name = 
  2 active torsions:
  status: ('A' for Active; 'I' for Inactive)
    1  A    between atoms: C_17  and  O_35
    2  A    between atoms: C_34  and  O_35
                            x       y       z     vdW  Elec       q    Type
                         _______ _______ _______ _____ _____    ______ ____

>  <TORSDO>
F 2

$$$$
=
 OpenBabel11062413443D

 35 40  0  0  1  0  0  0  0  0999 V2000
  191.6450  176.8960  137.7590 O   0  0  0  0  0  1  0  0  0  0  0  0
  185.3150  175.9990  136.4300 C   0  0  2  0  0  3  0  0  0  0  0  0
  189.7240  175.7950  135.3690 C   0  0  0  0  0  2  0  0  0  0  0  0
  189.4130  175.9360  137.7980 C   0  0  1  0  0  3  0  0  0  0  0  0
  187.6360  176.9370  136.2880 C   0  0  0  0  0  2  0  0  0  0  0  0
  188.2320  178.9890  139.0420 O   0  0  0  0  0  0  0  0  0  0  0  0
  184.6830  178.0600  140.3460 N   0  0  2  0  0  0  0  0  0  0  0  0
  186.9730  178.2570  141.0710 C   0  0  0  0  0  0  0  0  0  0  0  0
  185.7200  179.0030  140.7710 C   0  0  0  0  0  2  0  0  0  0  0  0
  186.7720  175.6910  136.0840 C   0  0  2  0  0  3  0  0  0  0  0  0
  187.0880  177.4570  142.2200 C   0  0  0  0  0  3  0  0  0  0  0  0
  190.1210  177.8810  139.3340 C   0  0  1  0  0  3  0  0  0  0  0  0
  189.2940  176.7970  141.5920 C   0  0  0  0  0  0  0  0  0  0  0  0
  183.2250  179.6430  141.0620 O   0  0  0  0  0  0  0  0  0  0  0  0
  185.1590  176.2390  137.9260 C   0  0  0  0  0  2  0  0  0  0  0  0
  190.0270  174.4270  135.9550 C   0  0  1  0  0  3  0  0  0  0  0  0
  182.9360  177.0260  137.7630 O   0  0  0  0  0  0  0  0  0  0  0  0
  189.1760  177.5740  140.4400 C   0  0  0  0  0  0  0  0  0  0  0  0
  184.0590  177.2190  138.2050 C   0  0  0  0  0  0  0  0  0  0  0  0
  184.3550  178.4480  139.0150 C   0  0  1  0  0  3  0  0  0  0  0  0
  190.5480  176.6190  138.5780 C   0  0  2  0  0  3  0  0  0  0  0  0
  189.4470  178.8020  138.4720 O   0  0  0  0  0  0  0  0  0  0  0  0
  188.0630  178.2810  140.2030 C   0  0  0  0  0  0  0  0  0  0  0  0
  189.1290  176.6430  136.4790 C   0  0  2  0  0  3  0  0  0  0  0  0
  183.0930  179.9770  139.6310 C   0  0  0  0  0  0  0  0  0  0  0  0
  189.8140  174.5130  137.4570 C   0  0  0  0  0  2  0  0  0  0  0  0
  183.3180  178.6630  140.0770 C   0  0  2  0  0  0  0  0  0  0  0  0
  184.4140  174.8390  136.0300 C   0  0  0  0  0  1  0  0  0  0  0  0
  182.8960  180.8260  138.7180 O   0  0  0  0  0  0  0  0  0  0  0  0
  190.4820  176.0640  141.8670 N   0  0  0  0  0  1  0  0  0  0  0  0
  188.2380  176.7530  142.4580 N   0  0  0  0  0  0  0  0  0  0  0  0
  186.8640  175.2950  134.7470 O   0  0  0  0  0  1  0  0  0  0  0  0
  189.1490  173.4830  135.4200 O   0  0  0  0  0  0  0  0  0  0  0  0
  187.4180  172.1100  136.2910 C   0  0  0  0  0  1  0  0  0  0  0  0
  188.8220  172.6420  136.4860 C   0  0  0  0  0  2  0  0  0  0  0  0
  2 28  1  1  0  0  0
  2 15  1  0  0  0  0
  3 16  1  0  0  0  0
  4 26  1  6  0  0  0
  4 21  1  0  0  0  0
  5 24  1  0  0  0  0
  6 23  1  0  0  0  0
  7  9  1  1  0  0  0
  8 11  1  0  0  0  0
  9  8  1  0  0  0  0
 10 32  1  6  0  0  0
 10  5  1  0  0  0  0
 10  2  1  0  0  0  0
 11 31  2  0  0  0  0
 12 22  1  6  0  0  0
 12 18  1  0  0  0  0
 13 30  1  0  0  0  0
 13 31  1  0  0  0  0
 15 19  1  0  0  0  0
 16 33  1  6  0  0  0
 16 26  1  0  0  0  0
 17 19  2  0  0  0  0
 18 13  2  0  0  0  0
 20 19  1  6  0  0  0
 20 27  1  0  0  0  0
 20  7  1  0  0  0  0
 21  1  1  6  0  0  0
 21 12  1  0  0  0  0
 22  6  1  0  0  0  0
 23 18  1  0  0  0  0
 23  8  2  0  0  0  0
 24  3  1  6  0  0  0
 24  4  1  0  0  0  0
 25 14  1  0  0  0  0
 27 25  1  1  0  0  0
 27  7  1  0  0  0  0
 27 14  1  0  0  0  0
 29 25  2  0  0  0  0
 33 35  1  0  0  0  0
 34 35  1  0  0  0  0
M  END
>  <MODEL>
3

>  <REMARK>
 VINA RESULT:      -5.7      2.418      4.782
  Name = 
  2 active torsions:
  status: ('A' for Active; 'I' for Inactive)
    1  A    between atoms: C_17  and  O_35
    2  A    between atoms: C_34  and  O_35
                            x       y       z     vdW  Elec       q    Type
                         _______ _______ _______ _____ _____    ______ ____

>  <TORSDO>
F 2

$$$$
=
 OpenBabel11062413443D

 35 40  0  0  1  0  0  0  0  0999 V2000
  181.0860  177.5480  137.7830 O   0  0  0  0  0  1  0  0  0  0  0  0
  187.2870  178.3020  139.6830 C   0  0  2  0  0  3  0  0  0  0  0  0
  182.8710  179.3430  139.8330 C   0  0  0  0  0  2  0  0  0  0  0  0
  183.2140  177.1120  138.8720 C   0  0  1  0  0  3  0  0  0  0  0  0
  185.0680  178.8290  138.6410 C   0  0  0  0  0  2  0  0  0  0  0  0
  184.6960  176.9930  135.7020 O   0  0  0  0  0  0  0  0  0  0  0  0
  188.1480  175.3480  136.4390 N   0  0  2  0  0  0  0  0  0  0  0  0
  185.8930  174.8020  135.7840 C   0  0  0  0  0  0  0  0  0  0  0  0
  187.2110  175.3120  135.3140 C   0  0  0  0  0  2  0  0  0  0  0  0
  185.8050  178.5570  139.9540 C   0  0  2  0  0  3  0  0  0  0  0  0
  185.7100  173.4480  136.1120 C   0  0  0  0  0  3  0  0  0  0  0  0
  182.7100  176.3800  136.4520 C   0  0  1  0  0  3  0  0  0  0  0  0
  183.4460  173.8640  136.7420 C   0  0  0  0  0  0  0  0  0  0  0  0
  189.7580  175.1970  134.8500 O   0  0  0  0  0  0  0  0  0  0  0  0
  187.4780  176.9830  138.9440 C   0  0  0  0  0  2  0  0  0  0  0  0
  182.4410  178.3200  140.8700 C   0  0  1  0  0  3  0  0  0  0  0  0
  189.7650  177.3530  138.4780 O   0  0  0  0  0  0  0  0  0  0  0  0
  183.6290  175.2120  136.4360 C   0  0  0  0  0  0  0  0  0  0  0  0
  188.6700  177.0380  138.0370 C   0  0  0  0  0  0  0  0  0  0  0  0
  188.5020  176.7210  136.5790 C   0  0  1  0  0  3  0  0  0  0  0  0
  182.1570  176.6540  137.8550 C   0  0  2  0  0  3  0  0  0  0  0  0
  183.4640  177.4920  135.9630 O   0  0  0  0  0  0  0  0  0  0  0  0
  184.8040  175.6520  135.9670 C   0  0  0  0  0  0  0  0  0  0  0  0
  183.5550  178.5870  138.7070 C   0  0  2  0  0  3  0  0  0  0  0  0
  189.9110  176.6500  135.0570 C   0  0  0  0  0  0  0  0  0  0  0  0
  182.6730  176.9400  140.2790 C   0  0  0  0  0  2  0  0  0  0  0  0
  189.5630  175.7750  136.1010 C   0  0  2  0  0  0  0  0  0  0  0  0
  188.0680  178.2430  140.9880 C   0  0  0  0  0  1  0  0  0  0  0  0
  190.1840  177.7970  134.6070 O   0  0  0  0  0  0  0  0  0  0  0  0
  182.1940  173.3800  137.2150 N   0  0  0  0  0  1  0  0  0  0  0  0
  184.4980  173.0090  136.5750 N   0  0  0  0  0  0  0  0  0  0  0  0
  185.6650  179.6710  140.7870 O   0  0  0  0  0  1  0  0  0  0  0  0
  183.2190  178.4650  142.0200 O   0  0  0  0  0  0  0  0  0  0  0  0
  183.0360  178.9370  144.3410 C   0  0  0  0  0  1  0  0  0  0  0  0
  182.3430  178.9520  142.9940 C   0  0  0  0  0  2  0  0  0  0  0  0
  2 10  1  0  0  0  0
  2 28  1  1  0  0  0
  3 16  1  0  0  0  0
  4 26  1  1  0  0  0
  5 10  1  0  0  0  0
  6 22  1  0  0  0  0
  6 23  1  0  0  0  0
  7  9  1  6  0  0  0
  7 20  1  0  0  0  0
  8 23  2  0  0  0  0
  8 11  1  0  0  0  0
  9  8  1  0  0  0  0
 10 32  1  1  0  0  0
 11 31  2  0  0  0  0
 12 22  1  1  0  0  0
 12 21  1  0  0  0  0
 13 30  1  0  0  0  0
 14 25  1  0  0  0  0
 15  2  1  0  0  0  0
 16 33  1  1  0  0  0
 18 12  1  0  0  0  0
 18 13  2  0  0  0  0
 19 17  2  0  0  0  0
 19 15  1  0  0  0  0
 20 19  1  1  0  0  0
 21  1  1  6  0  0  0
 21  4  1  0  0  0  0
 23 18  1  0  0  0  0
 24  5  1  1  0  0  0
 24  4  1  0  0  0  0
 24  3  1  0  0  0  0
 25 27  1  0  0  0  0
 26 16  1  0  0  0  0
 27 14  1  1  0  0  0
 27  7  1  0  0  0  0
 27 20  1  0  0  0  0
 29 25  2  0  0  0  0
 31 13  1  0  0  0  0
 33 35  1  0  0  0  0
 35 34  1  0  0  0  0
M  END
>  <MODEL>
4

>  <REMARK>
 VINA RESULT:      -5.7      2.589      6.935
  Name = 
  2 active torsions:
  status: ('A' for Active; 'I' for Inactive)
    1  A    between atoms: C_17  and  O_35
    2  A    between atoms: C_34  and  O_35
                            x       y       z     vdW  Elec       q    Type
                         _______ _______ _______ _____ _____    ______ ____

>  <TORSDO>
F 2

$$$$
=
 OpenBabel11062413443D

 35 40  0  0  1  0  0  0  0  0999 V2000
  186.1040  178.6700  136.0520 O   0  0  0  0  0  1  0  0  0  0  0  0
  185.9710  178.1880  142.5630 C   0  0  2  0  0  3  0  0  0  0  0  0
  184.0850  179.1870  138.5560 C   0  0  0  0  0  2  0  0  0  0  0  0
  186.0040  177.6860  138.2720 C   0  0  1  0  0  3  0  0  0  0  0  0
  185.9630  179.2320  140.2830 C   0  0  0  0  0  2  0  0  0  0  0  0
  189.1630  179.0570  138.9110 O   0  0  0  0  0  0  0  0  0  0  0  0
  190.2930  177.1360  142.1040 N   0  0  2  0  0  0  0  0  0  0  0  0
  190.4340  177.0560  139.6990 C   0  0  0  0  0  0  0  0  0  0  0  0
  190.9830  177.6810  140.9340 C   0  0  0  0  0  2  0  0  0  0  0  0
  185.1940  178.3340  141.2550 C   0  0  2  0  0  3  0  0  0  0  0  0
  190.7160  175.7200  139.3700 C   0  0  0  0  0  3  0  0  0  0  0  0
  188.2280  178.2310  137.0870 C   0  0  1  0  0  3  0  0  0  0  0  0
  189.3370  175.8620  137.4280 C   0  0  0  0  0  0  0  0  0  0  0  0
  192.1700  177.7120  143.2380 O   0  0  0  0  0  0  0  0  0  0  0  0
  187.2460  177.3820  142.3420 C   0  0  0  0  0  2  0  0  0  0  0  0
  183.5480  177.8070  138.2180 C   0  0  1  0  0  3  0  0  0  0  0  0
  188.1390  177.8470  144.4810 O   0  0  0  0  0  0  0  0  0  0  0  0
  189.0380  177.1830  137.7610 C   0  0  0  0  0  0  0  0  0  0  0  0
  188.3330  177.8250  143.2740 C   0  0  0  0  0  0  0  0  0  0  0  0
  189.6560  178.2570  142.7120 C   0  0  1  0  0  3  0  0  0  0  0  0
  186.7610  177.8140  136.9400 C   0  0  2  0  0  3  0  0  0  0  0  0
  188.3570  179.4130  137.8820 O   0  0  0  0  0  0  0  0  0  0  0  0
  189.5770  177.7520  138.8480 C   0  0  0  0  0  0  0  0  0  0  0  0
  185.5750  179.0440  138.8110 C   0  0  2  0  0  3  0  0  0  0  0  0
  191.3820  178.8780  143.6830 C   0  0  0  0  0  0  0  0  0  0  0  0
  184.7380  176.8760  138.0610 C   0  0  0  0  0  2  0  0  0  0  0  0
  190.7970  177.6210  143.4500 C   0  0  2  0  0  0  0  0  0  0  0  0
  185.1260  177.4770  143.6100 C   0  0  0  0  0  1  0  0  0  0  0  0
  191.3210  180.0890  144.0330 O   0  0  0  0  0  0  0  0  0  0  0  0
  188.7920  175.2560  136.2610 N   0  0  0  0  0  1  0  0  0  0  0  0
  190.1710  175.1560  138.2480 N   0  0  0  0  0  0  0  0  0  0  0  0
  183.9480  178.9120  141.5100 O   0  0  0  0  0  1  0  0  0  0  0  0
  182.7410  177.3510  139.2610 O   0  0  0  0  0  0  0  0  0  0  0  0
  181.3200  175.4630  139.0160 C   0  0  0  0  0  1  0  0  0  0  0  0
  182.7460  175.9580  139.1430 C   0  0  0  0  0  2  0  0  0  0  0  0
  2 28  1  1  0  0  0
  4 26  1  6  0  0  0
  4 24  1  0  0  0  0
  5 10  1  0  0  0  0
  7  9  1  6  0  0  0
  7 20  1  0  0  0  0
  7 27  1  0  0  0  0
  8  9  1  0  0  0  0
 10 32  1  1  0  0  0
 10  2  1  0  0  0  0
 11  8  1  0  0  0  0
 12 18  1  1  0  0  0
 12 22  1  0  0  0  0
 13 18  2  0  0  0  0
 13 31  1  0  0  0  0
 14 25  1  0  0  0  0
 15  2  1  0  0  0  0
 15 19  1  0  0  0  0
 16  3  1  0  0  0  0
 16 33  1  1  0  0  0
 18 23  1  0  0  0  0
 19 17  2  0  0  0  0
 20 19  1  1  0  0  0
 20 27  1  0  0  0  0
 21  1  1  6  0  0  0
 21 12  1  0  0  0  0
 21  4  1  0  0  0  0
 22  6  1  0  0  0  0
 23  6  1  0  0  0  0
 23  8  2  0  0  0  0
 24  3  1  1  0  0  0
 24  5  1  0  0  0  0
 25 29  2  0  0  0  0
 26 16  1  0  0  0  0
 27 14  1  1  0  0  0
 27 25  1  0  0  0  0
 30 13  1  0  0  0  0
 31 11  2  0  0  0  0
 34 35  1  0  0  0  0
 35 33  1  0  0  0  0
M  END
>  <MODEL>
5

>  <REMARK>
 VINA RESULT:      -5.5      3.647      8.124
  Name = 
  2 active torsions:
  status: ('A' for Active; 'I' for Inactive)
    1  A    between atoms: C_17  and  O_35
    2  A    between atoms: C_34  and  O_35
                            x       y       z     vdW  Elec       q    Type
                         _______ _______ _______ _____ _____    ______ ____

>  <TORSDO>
F 2

$$$$
=
 OpenBabel11062413443D

 35 40  0  0  1  0  0  0  0  0999 V2000
  184.2460  180.5680  138.7180 O   0  0  0  0  0  1  0  0  0  0  0  0
  185.0350  174.2850  137.1250 C   0  0  2  0  0  3  0  0  0  0  0  0
  186.5190  178.5550  137.5370 C   0  0  0  0  0  2  0  0  0  0  0  0
  184.5550  178.1690  138.9550 C   0  0  1  0  0  3  0  0  0  0  0  0
  184.8290  176.7690  136.8560 C   0  0  0  0  0  2  0  0  0  0  0  0
  181.5030  177.7150  137.2970 O   0  0  0  0  0  0  0  0  0  0  0  0
  180.6710  173.9870  138.0520 N   0  0  2  0  0  0  0  0  0  0  0  0
  180.2840  176.2170  138.8810 C   0  0  0  0  0  0  0  0  0  0  0  0
  179.8750  175.2020  137.8720 C   0  0  0  0  0  2  0  0  0  0  0  0
  185.6770  175.6360  137.4390 C   0  0  2  0  0  3  0  0  0  0  0  0
  179.9450  176.0760  140.2370 C   0  0  0  0  0  3  0  0  0  0  0  0
  182.2320  179.2580  138.7020 C   0  0  1  0  0  3  0  0  0  0  0  0
  181.1210  178.0790  140.7840 C   0  0  0  0  0  0  0  0  0  0  0  0
  178.9310  172.9300  137.0560 O   0  0  0  0  0  0  0  0  0  0  0  0
  183.7300  174.1190  137.8950 C   0  0  0  0  0  2  0  0  0  0  0  0
  186.9940  178.4830  138.9780 C   0  0  1  0  0  3  0  0  0  0  0  0
  183.0690  172.1690  136.7350 O   0  0  0  0  0  0  0  0  0  0  0  0
  181.4760  178.2130  139.4420 C   0  0  0  0  0  0  0  0  0  0  0  0
  182.7520  173.2820  137.1270 C   0  0  0  0  0  0  0  0  0  0  0  0
  181.3870  173.8300  136.8300 C   0  0  1  0  0  3  0  0  0  0  0  0
  183.6680  179.3970  139.2160 C   0  0  2  0  0  3  0  0  0  0  0  0
  182.2060  178.8730  137.3250 O   0  0  0  0  0  0  0  0  0  0  0  0
  181.0610  177.3210  138.5330 C   0  0  0  0  0  0  0  0  0  0  0  0
  185.0610  178.1330  137.5190 C   0  0  2  0  0  3  0  0  0  0  0  0
  179.7800  172.9550  135.8500 C   0  0  0  0  0  0  0  0  0  0  0  0
  185.7780  178.2250  139.8510 C   0  0  0  0  0  2  0  0  0  0  0  0
  180.3160  172.8270  137.1430 C   0  0  2  0  0  0  0  0  0  0  0  0
  185.9700  173.1470  137.5100 C   0  0  0  0  0  1  0  0  0  0  0  0
  179.8980  173.0170  134.5950 O   0  0  0  0  0  0  0  0  0  0  0  0
  181.5330  179.0360  141.7540 N   0  0  0  0  0  1  0  0  0  0  0  0
  180.3630  177.0040  141.1530 N   0  0  0  0  0  0  0  0  0  0  0  0
  186.9530  175.6930  136.8720 O   0  0  0  0  0  1  0  0  0  0  0  0
  187.8960  177.4270  139.1220 O   0  0  0  0  0  0  0  0  0  0  0  0
  190.0530  177.0690  140.0490 C   0  0  0  0  0  1  0  0  0  0  0  0
  188.7340  177.8040  140.1740 C   0  0  0  0  0  2  0  0  0  0  0  0
  2 10  1  0  0  0  0
  2 28  1  1  0  0  0
  2 15  1  0  0  0  0
  3 16  1  0  0  0  0
  4 21  1  0  0  0  0
  4 26  1  1  0  0  0
  5 10  1  0  0  0  0
  6 22  1  0  0  0  0
  6 23  1  0  0  0  0
  7  9  1  6  0  0  0
  8 11  1  0  0  0  0
  9  8  1  0  0  0  0
 10 32  1  6  0  0  0
 11 31  2  0  0  0  0
 12 22  1  6  0  0  0
 12 21  1  0  0  0  0
 12 18  1  0  0  0  0
 13 31  1  0  0  0  0
 13 30  1  0  0  0  0
 14 27  1  0  0  0  0
 16 33  1  6  0  0  0
 16 26  1  0  0  0  0
 17 19  2  0  0  0  0
 18 13  2  0  0  0  0
 19 15  1  0  0  0  0
 20 19  1  1  0  0  0
 20 27  1  0  0  0  0
 20  7  1  0  0  0  0
 21  1  1  6  0  0  0
 23  8  2  0  0  0  0
 23 18  1  0  0  0  0
 24  5  1  1  0  0  0
 24  3  1  0  0  0  0
 24  4  1  0  0  0  0
 25 14  1  0  0  0  0
 27 25  1  6  0  0  0
 27  7  1  0  0  0  0
 29 25  2  0  0  0  0
 33 35  1  0  0  0  0
 34 35  1  0  0  0  0
M  END
>  <MODEL>
6

>  <REMARK>
 VINA RESULT:      -5.4      2.334      3.346
  Name = 
  2 active torsions:
  status: ('A' for Active; 'I' for Inactive)
    1  A    between atoms: C_17  and  O_35
    2  A    between atoms: C_34  and  O_35
                            x       y       z     vdW  Elec       q    Type
                         _______ _______ _______ _____ _____    ______ ____

>  <TORSDO>
F 2

$$$$
=
 OpenBabel11062413443D

 35 40  0  0  1  0  0  0  0  0999 V2000
  179.2700  175.1380  135.6110 O   0  0  0  0  0  1  0  0  0  0  0  0
  183.9430  178.7680  138.3710 C   0  0  2  0  0  3  0  0  0  0  0  0
  179.6680  178.0440  137.0290 C   0  0  0  0  0  2  0  0  0  0  0  0
  180.8900  175.9280  137.2410 C   0  0  1  0  0  3  0  0  0  0  0  0
  182.2000  178.0380  136.7230 C   0  0  0  0  0  2  0  0  0  0  0  0
  183.4040  175.3380  134.8750 O   0  0  0  0  0  0  0  0  0  0  0  0
  186.6460  175.4680  137.0290 N   0  0  2  0  0  0  0  0  0  0  0  0
  185.0020  173.9250  136.1750 C   0  0  0  0  0  0  0  0  0  0  0  0
  186.2250  174.7100  135.8490 C   0  0  0  0  0  2  0  0  0  0  0  0
  182.4510  178.5160  138.1540 C   0  0  2  0  0  3  0  0  0  0  0  0
  185.0610  172.7940  137.0050 C   0  0  0  0  0  3  0  0  0  0  0  0
  181.5060  174.3040  135.3350 C   0  0  1  0  0  3  0  0  0  0  0  0
  182.6980  172.5030  136.8500 C   0  0  0  0  0  0  0  0  0  0  0  0
  188.7060  175.4230  136.0830 O   0  0  0  0  0  0  0  0  0  0  0  0
  184.7170  177.4550  138.3450 C   0  0  0  0  0  2  0  0  0  0  0  0
  179.1640  177.3400  138.2770 C   0  0  1  0  0  3  0  0  0  0  0  0
  186.8430  178.4870  138.3080 O   0  0  0  0  0  0  0  0  0  0  0  0
  182.6320  173.6370  136.0410 C   0  0  0  0  0  0  0  0  0  0  0  0
  186.1020  177.6550  137.8070 C   0  0  0  0  0  0  0  0  0  0  0  0
  186.5630  176.8350  136.6370 C   0  0  1  0  0  3  0  0  0  0  0  0
  180.4300  174.7950  136.3090 C   0  0  2  0  0  3  0  0  0  0  0  0
  182.0780  175.3900  134.6010 O   0  0  0  0  0  0  0  0  0  0  0  0
  183.7440  174.3080  135.7130 C   0  0  0  0  0  0  0  0  0  0  0  0
  180.8820  177.2770  136.5360 C   0  0  2  0  0  3  0  0  0  0  0  0
  188.3990  176.8050  135.6680 C   0  0  0  0  0  0  0  0  0  0  0  0
  179.9360  176.0390  138.4150 C   0  0  0  0  0  2  0  0  0  0  0  0
  187.9280  176.2620  136.8770 C   0  0  2  0  0  0  0  0  0  0  0  0
  184.1820  179.4430  139.7150 C   0  0  0  0  0  1  0  0  0  0  0  0
  188.5160  177.7510  134.8420 O   0  0  0  0  0  0  0  0  0  0  0  0
  181.5260  171.7670  137.1820 N   0  0  0  0  0  1  0  0  0  0  0  0
  183.9180  172.1090  137.3190 N   0  0  0  0  0  0  0  0  0  0  0  0
  181.7400  179.7000  138.3630 O   0  0  0  0  0  1  0  0  0  0  0  0
  179.4050  178.1400  139.3950 O   0  0  0  0  0  0  0  0  0  0  0  0
  180.1490  178.0210  141.6480 C   0  0  0  0  0  1  0  0  0  0  0  0
  179.7030  177.2440  140.4260 C   0  0  0  0  0  2  0  0  0  0  0  0
  2 28  1  1  0  0  0
  3 16  1  0  0  0  0
  4 26  1  1  0  0  0
  5 10  1  0  0  0  0
  6 23  1  0  0  0  0
  7  9  1  6  0  0  0
  8 11  1  0  0  0  0
  9  8  1  0  0  0  0
 10 32  1  6  0  0  0
 10  2  1  0  0  0  0
 11 31  2  0  0  0  0
 12 22  1  1  0  0  0
 12 18  1  0  0  0  0
 12 21  1  0  0  0  0
 13 30  1  0  0  0  0
 13 31  1  0  0  0  0
 14 27  1  0  0  0  0
 15  2  1  0  0  0  0
 16 26  1  0  0  0  0
 16 33  1  1  0  0  0
 18 13  2  0  0  0  0
 19 17  2  0  0  0  0
 19 15  1  0  0  0  0
 20 27  1  0  0  0  0
 20  7  1  0  0  0  0
 20 19  1  1  0  0  0
 21  1  1  6  0  0  0
 21  4  1  0  0  0  0
 22  6  1  0  0  0  0
 23 18  1  0  0  0  0
 23  8  2  0  0  0  0
 24  5  1  1  0  0  0
 24  3  1  0  0  0  0
 24  4  1  0  0  0  0
 25 14  1  0  0  0  0
 27 25  1  6  0  0  0
 27  7  1  0  0  0  0
 29 25  2  0  0  0  0
 33 35  1  0  0  0  0
 35 34  1  0  0  0  0
M  END
>  <MODEL>
7

>  <REMARK>
 VINA RESULT:      -5.3      2.547      7.824
  Name = 
  2 active torsions:
  status: ('A' for Active; 'I' for Inactive)
    1  A    between atoms: C_17  and  O_35
    2  A    between atoms: C_34  and  O_35
                            x       y       z     vdW  Elec       q    Type
                         _______ _______ _______ _____ _____    ______ ____

>  <TORSDO>
F 2

$$$$
=
 OpenBabel11062413443D

 35 40  0  0  1  0  0  0  0  0999 V2000
  184.5010  176.8050  135.0040 O   0  0  0  0  0  1  0  0  0  0  0  0
  188.8280  177.6430  139.8220 C   0  0  2  0  0  3  0  0  0  0  0  0
  184.9630  178.6370  137.6580 C   0  0  0  0  0  2  0  0  0  0  0  0
  185.7630  176.4020  137.0410 C   0  0  1  0  0  3  0  0  0  0  0  0
  187.4620  178.1370  137.7780 C   0  0  0  0  0  2  0  0  0  0  0  0
  188.6700  176.2720  135.0920 O   0  0  0  0  0  0  0  0  0  0  0  0
  191.2550  174.6720  137.5260 N   0  0  2  0  0  0  0  0  0  0  0  0
  189.6640  174.0960  135.8080 C   0  0  0  0  0  0  0  0  0  0  0  0
  191.0320  174.6160  136.0790 C   0  0  0  0  0  2  0  0  0  0  0  0
  187.4170  177.8840  139.2860 C   0  0  2  0  0  3  0  0  0  0  0  0
  189.3450  172.7430  136.0120 C   0  0  0  0  0  3  0  0  0  0  0  0
  186.5850  175.6440  134.7170 C   0  0  1  0  0  3  0  0  0  0  0  0
  187.0780  173.1380  135.3770 C   0  0  0  0  0  0  0  0  0  0  0  0
  193.4550  174.5250  136.9980 O   0  0  0  0  0  0  0  0  0  0  0  0
  189.3790  176.3200  139.3040 C   0  0  0  0  0  2  0  0  0  0  0  0
  184.0640  177.6180  138.3380 C   0  0  1  0  0  3  0  0  0  0  0  0
  191.5760  176.7110  140.0810 O   0  0  0  0  0  0  0  0  0  0  0  0
  187.3860  174.4860  135.1930 C   0  0  0  0  0  0  0  0  0  0  0  0
  190.8680  176.3810  139.1420 C   0  0  0  0  0  0  0  0  0  0  0  0
  191.4780  176.0500  137.8110 C   0  0  1  0  0  3  0  0  0  0  0  0
  185.3860  175.9230  135.6300 C   0  0  2  0  0  3  0  0  0  0  0  0
  187.4780  176.7610  134.6740 O   0  0  0  0  0  0  0  0  0  0  0  0
  188.6330  174.9350  135.3920 C   0  0  0  0  0  0  0  0  0  0  0  0
  186.1330  177.8790  137.0570 C   0  0  2  0  0  3  0  0  0  0  0  0
  193.4710  175.9810  137.2360 C   0  0  0  0  0  0  0  0  0  0  0  0
  184.5740  176.2360  137.9690 C   0  0  0  0  0  2  0  0  0  0  0  0
  192.6390  175.1110  137.9610 C   0  0  2  0  0  0  0  0  0  0  0  0
  188.8230  177.6030  141.3430 C   0  0  0  0  0  1  0  0  0  0  0  0
  193.9310  177.1280  136.9770 O   0  0  0  0  0  0  0  0  0  0  0  0
  185.7640  172.6450  135.1430 N   0  0  0  0  0  1  0  0  0  0  0  0
  188.0700  172.2940  135.7890 N   0  0  0  0  0  0  0  0  0  0  0  0
  186.8610  179.0030  139.9130 O   0  0  0  0  0  1  0  0  0  0  0  0
  184.1360  177.7810  139.7220 O   0  0  0  0  0  0  0  0  0  0  0  0
  182.4340  178.6020  141.1610 C   0  0  0  0  0  1  0  0  0  0  0  0
  182.8450  177.5170  140.1880 C   0  0  0  0  0  2  0  0  0  0  0  0
  2 28  1  1  0  0  0
  3 16  1  0  0  0  0
  4 24  1  0  0  0  0
  4 26  1  1  0  0  0
  5 10  1  0  0  0  0
  6 23  1  0  0  0  0
  7  9  1  6  0  0  0
  7 20  1  0  0  0  0
  7 27  1  0  0  0  0
  8 11  1  0  0  0  0
  8  9  1  0  0  0  0
 10  2  1  0  0  0  0
 10 32  1  1  0  0  0
 12 22  1  1  0  0  0
 12 18  1  0  0  0  0
 12 21  1  0  0  0  0
 13 31  1  0  0  0  0
 14 25  1  0  0  0  0
 15  2  1  0  0  0  0
 16 33  1  1  0  0  0
 18 13  2  0  0  0  0
 18 23  1  0  0  0  0
 19 15  1  0  0  0  0
 19 17  2  0  0  0  0
 20 27  1  0  0  0  0
 20 19  1  1  0  0  0
 21  1  1  6  0  0  0
 21  4  1  0  0  0  0
 22  6  1  0  0  0  0
 23  8  2  0  0  0  0
 24  3  1  1  0  0  0
 24  5  1  0  0  0  0
 25 27  1  0  0  0  0
 26 16  1  0  0  0  0
 27 14  1  1  0  0  0
 29 25  2  0  0  0  0
 30 13  1  0  0  0  0
 31 11  2  0  0  0  0
 33 35  1  0  0  0  0
 35 34  1  0  0  0  0
M  END
>  <MODEL>
8

>  <REMARK>
 VINA RESULT:      -5.3      3.157      7.550
  Name = 
  2 active torsions:
  status: ('A' for Active; 'I' for Inactive)
    1  A    between atoms: C_17  and  O_35
    2  A    between atoms: C_34  and  O_35
                            x       y       z     vdW  Elec       q    Type
                         _______ _______ _______ _____ _____    ______ ____

>  <TORSDO>
F 2

$$$$
=
 OpenBabel11062413443D

 35 40  0  0  1  0  0  0  0  0999 V2000
  183.1610  179.6070  141.8750 O   0  0  0  0  0  1  0  0  0  0  0  0
  189.2180  177.4440  140.7440 C   0  0  2  0  0  3  0  0  0  0  0  0
  186.1200  179.6330  143.2370 C   0  0  0  0  0  2  0  0  0  0  0  0
  185.0460  178.0870  141.6650 C   0  0  1  0  0  3  0  0  0  0  0  0
  187.3160  179.0470  141.0620 C   0  0  0  0  0  2  0  0  0  0  0  0
  185.2260  178.9400  138.2730 O   0  0  0  0  0  0  0  0  0  0  0  0
  187.5190  176.1510  136.8150 N   0  0  2  0  0  0  0  0  0  0  0  0
  185.1990  176.6940  137.1830 C   0  0  0  0  0  0  0  0  0  0  0  0
  186.3800  176.9180  136.3050 C   0  0  0  0  0  2  0  0  0  0  0  0
  188.2020  178.0010  141.7410 C   0  0  2  0  0  3  0  0  0  0  0  0
  184.5070  175.4710  137.1770 C   0  0  0  0  0  3  0  0  0  0  0  0
  183.5330  178.7150  139.6750 C   0  0  1  0  0  3  0  0  0  0  0  0
  183.0350  176.2470  138.8870 C   0  0  0  0  0  0  0  0  0  0  0  0
  188.2800  176.2310  134.6810 O   0  0  0  0  0  0  0  0  0  0  0  0
  188.5190  176.6090  139.6770 C   0  0  0  0  0  2  0  0  0  0  0  0
  185.6030  178.4470  144.0330 C   0  0  1  0  0  3  0  0  0  0  0  0
  190.4350  176.4100  138.3060 O   0  0  0  0  0  0  0  0  0  0  0  0
  183.7310  177.4550  138.9100 C   0  0  0  0  0  0  0  0  0  0  0  0
  189.2460  176.6880  138.3680 C   0  0  0  0  0  0  0  0  0  0  0  0
  188.5050  177.1270  137.1390 C   0  0  1  0  0  3  0  0  0  0  0  0
  183.6420  178.4900  141.1860 C   0  0  2  0  0  3  0  0  0  0  0  0
  184.5300  179.6280  139.2100 O   0  0  0  0  0  0  0  0  0  0  0  0
  184.7610  177.6650  138.0810 C   0  0  0  0  0  0  0  0  0  0  0  0
  185.9750  179.2890  141.7660 C   0  0  2  0  0  3  0  0  0  0  0  0
  189.1600  177.3070  135.1770 C   0  0  0  0  0  0  0  0  0  0  0  0
  184.9560  177.4830  143.0540 C   0  0  0  0  0  2  0  0  0  0  0  0
  188.7820  176.2160  135.9800 C   0  0  2  0  0  0  0  0  0  0  0  0
  190.2380  176.5650  141.4540 C   0  0  0  0  0  1  0  0  0  0  0  0
  189.7890  178.3830  134.9830 O   0  0  0  0  0  0  0  0  0  0  0  0
  181.9210  176.0230  139.7450 N   0  0  0  0  0  1  0  0  0  0  0  0
  183.4450  175.2760  138.0190 N   0  0  0  0  0  0  0  0  0  0  0  0
  188.8730  178.6050  142.8070 O   0  0  0  0  0  1  0  0  0  0  0  0
  186.6700  177.8100  144.6700 O   0  0  0  0  0  0  0  0  0  0  0  0
  185.3040  178.3640  146.5320 C   0  0  0  0  0  1  0  0  0  0  0  0
  186.7040  178.3540  145.9570 C   0  0  0  0  0  2  0  0  0  0  0  0
  2 28  1  1  0  0  0
  2 10  1  0  0  0  0
  3 16  1  0  0  0  0
  4 24  1  0  0  0  0
  4 26  1  1  0  0  0
  5 10  1  0  0  0  0
  6 22  1  0  0  0  0
  7  9  1  6  0  0  0
  7 20  1  0  0  0  0
  8 23  1  0  0  0  0
  9  8  1  0  0  0  0
 10 32  1  1  0  0  0
 11  8  2  0  0  0  0
 11 31  1  0  0  0  0
 12 18  1  6  0  0  0
 12 21  1  0  0  0  0
 13 18  1  0  0  0  0
 13 30  1  0  0  0  0
 14 25  1  0  0  0  0
 15  2  1  0  0  0  0
 16 33  1  6  0  0  0
 17 19  2  0  0  0  0
 19 15  1  0  0  0  0
 20 19  1  1  0  0  0
 21  4  1  0  0  0  0
 21  1  1  1  0  0  0
 22 12  1  0  0  0  0
 23  6  1  0  0  0  0
 23 18  2  0  0  0  0
 24  5  1  1  0  0  0
 24  3  1  0  0  0  0
 25 27  1  0  0  0  0
 26 16  1  0  0  0  0
 27 14  1  1  0  0  0
 27  7  1  0  0  0  0
 27 20  1  0  0  0  0
 29 25  2  0  0  0  0
 31 13  2  0  0  0  0
 33 35  1  0  0  0  0
 35 34  1  0  0  0  0
M  END
>  <MODEL>
9

>  <REMARK>
 VINA RESULT:      -5.3      3.361      6.405
  Name = 
  2 active torsions:
  status: ('A' for Active; 'I' for Inactive)
    1  A    between atoms: C_17  and  O_35
    2  A    between atoms: C_34  and  O_35
                            x       y       z     vdW  Elec       q    Type
                         _______ _______ _______ _____ _____    ______ ____

>  <TORSDO>
F 2

$$$$
