=
 OpenBabel11062417283D

 45 47  0  0  1  0  0  0  0  0999 V2000
  190.6220  175.3230  137.1280 C   0  0  0  0  0  2  0  0  0  0  0  0
  189.2290  175.9400  137.1770 C   0  0  0  0  0  2  0  0  0  0  0  0
  189.8920  177.1140  134.9630 C   0  0  0  0  0  2  0  0  0  0  0  0
  189.2070  177.1610  136.2990 C   0  0  0  0  0  0  0  0  0  0  0  0
  188.6130  178.2940  136.6890 C   0  0  0  0  0  3  0  0  0  0  0  0
  191.0730  174.9710  135.6980 C   0  0  1  0  0  3  0  0  0  0  0  0
  190.2700  175.6770  134.5940 C   0  0  0  0  0  2  0  0  0  0  0  0
  187.8980  178.4220  137.9990 C   0  0  0  0  0  2  0  0  0  0  0  0
  188.9060  178.5490  139.1240 C   0  0  0  0  0  2  0  0  0  0  0  0
  188.2240  178.3070  140.4590 C   0  0  0  0  0  2  0  0  0  0  0  0
  189.0920  177.5120  141.3140 N   0  0  0  0  0  2  0  0  0  0  0  0
  189.0950  178.1480  142.6230 C   0  0  0  0  0  2  0  0  0  0  0  0
  188.5420  177.1990  143.6740 C   0  0  1  0  0  3  0  0  0  0  0  0
  191.6490  176.4020  145.6910 C   0  0  0  0  0  3  0  0  0  0  0  0
  190.7750  176.5300  144.6110 C   0  0  0  0  0  0  0  0  0  0  0  0
  191.1610  176.1150  143.3790 F   0  0  0  0  0  0  0  0  0  0  0  0
  189.1350  177.4710  146.0710 N   0  0  0  0  0  0  0  0  0  0  0  0
  189.5730  177.7600  148.3620 F   0  0  0  0  0  0  0  0  0  0  0  0
  189.5030  177.0770  144.8190 C   0  0  0  0  0  0  0  0  0  0  0  0
  189.9750  177.3570  147.1350 C   0  0  0  0  0  0  0  0  0  0  0  0
  191.2500  176.8170  146.9630 C   0  0  0  0  0  3  0  0  0  0  0  0
  187.1760  177.6840  144.1570 C   0  0  0  0  0  2  0  0  0  0  0  0
  184.9430  178.3720  143.1320 C   0  0  0  0  0  0  0  0  0  0  0  0
  184.1680  178.3060  142.1400 O   0  0  0  0  0  0  0  0  0  0  0  0
  186.2070  177.7040  143.0680 N   0  0  0  0  0  2  0  0  0  0  0  0
  183.3780  178.9310  144.9290 C   0  0  0  0  0  2  0  0  0  0  0  0
  184.5470  179.1250  144.3310 C   0  0  0  0  0  3  0  0  0  0  0  0
  192.4330  175.2610  135.5510 O   0  0  0  0  0  0  0  0  0  0  0  0
  193.0880  174.4330  136.4710 C   0  0  1  0  0  3  0  0  0  0  0  0
  195.5070  175.3540  139.2490 O   0  0  0  0  0  1  0  0  0  0  0  0
  194.9990  173.6940  134.9940 C   0  0  0  0  0  2  0  0  0  0  0  0
  196.1770  172.7900  135.3580 C   0  0  0  0  0  2  0  0  0  0  0  0
  195.2210  173.1820  138.2230 C   0  0  0  0  0  2  0  0  0  0  0  0
  196.6870  172.9400  137.8590 C   0  0  0  0  0  2  0  0  0  0  0  0
  194.0030  176.4920  137.2880 O   0  0  0  0  0  0  0  0  0  0  0  0
  197.1500  173.3440  136.4350 C   0  0  1  0  0  0  0  0  0  0  0  0
  193.7540  173.2640  135.7430 C   0  0  0  0  0  2  0  0  0  0  0  0
  194.9130  174.6030  138.2910 N   0  0  0  0  0  0  0  0  0  0  0  0
  194.0320  175.2330  137.3480 C   0  0  0  0  0  0  0  0  0  0  0  0
  199.1160  171.9050  137.2040 N   0  0  0  0  0  1  0  0  0  0  0  0
  198.5030  172.7080  136.1960 C   0  0  0  0  0  0  0  0  0  0  0  0
  199.0660  172.8020  135.0710 O   0  0  0  0  0  0  0  0  0  0  0  0
  197.1260  175.4500  135.2570 O   0  0  0  0  0  0  0  0  0  0  0  0
  197.9530  175.5370  137.3830 O   0  0  0  0  0  1  0  0  0  0  0  0
  197.3630  174.8400  136.3340 C   0  0  0  0  0  0  0  0  0  0  0  0
  1  2  1  0  0  0  0
  3  4  1  0  0  0  0
  4  5  2  0  0  0  0
  4  2  1  0  0  0  0
  5  8  1  0  0  0  0
  6 28  1  1  0  0  0
  6  1  1  0  0  0  0
  7  3  1  0  0  0  0
  7  6  1  0  0  0  0
  8  9  1  0  0  0  0
  9 10  1  0  0  0  0
 10 11  1  0  0  0  0
 11 12  1  0  0  0  0
 13 12  1  6  0  0  0
 13 22  1  0  0  0  0
 13 19  1  0  0  0  0
 14 21  1  0  0  0  0
 15 19  1  0  0  0  0
 15 14  2  0  0  0  0
 16 15  1  0  0  0  0
 17 20  1  0  0  0  0
 19 17  2  0  0  0  0
 20 18  1  0  0  0  0
 21 20  2  0  0  0  0
 23 27  1  0  0  0  0
 24 23  2  0  0  0  0
 25 23  1  0  0  0  0
 25 22  1  0  0  0  0
 27 26  2  0  0  0  0
 29 28  1  6  0  0  0
 29 39  1  0  0  0  0
 31 32  1  0  0  0  0
 31 37  1  0  0  0  0
 32 36  1  0  0  0  0
 33 38  1  0  0  0  0
 34 33  1  0  0  0  0
 35 39  2  0  0  0  0
 36 41  1  6  0  0  0
 36 34  1  0  0  0  0
 37 29  1  0  0  0  0
 38 30  1  0  0  0  0
 39 38  1  0  0  0  0
 41 40  1  0  0  0  0
 42 41  2  0  0  0  0
 43 45  2  0  0  0  0
 45 36  1  0  0  0  0
 45 44  1  0  0  0  0
M  END
>  <MODEL>
1

>  <REMARK>
 VINA RESULT:      -8.1      0.000      0.000
  Name = 
  14 active torsions:
  status: ('A' for Active; 'I' for Inactive)
    1  A    between atoms: C_1  and  O_40
    2  A    between atoms: C_2  and  C_18
    3  A    between atoms: C_2  and  N_37
    4  A    between atoms: C_5  and  C_25
    5  A    between atoms: C_5  and  C_35
    6  A    between atoms: C_7  and  C_26
    7  A    between atoms: C_11  and  C_44
    8  A    between atoms: C_18  and  C_23
    9  A    between atoms: C_18  and  C_32
   10  A    between atoms: C_23  and  N_43
   11  A    between atoms: C_25  and  N_43
   12  A    between atoms: C_26  and  C_39
   13  A    between atoms: C_29  and  C_35
   14  A    between atoms: O_40  and  C_41
                            x       y       z     vdW  Elec       q    Type
                         _______ _______ _______ _____ _____    ______ ____

>  <TORSDO>
F 14

$$$$
=
 OpenBabel11062417283D

 45 47  0  0  1  0  0  0  0  0999 V2000
  190.3950  175.4090  137.5930 C   0  0  0  0  0  2  0  0  0  0  0  0
  189.1050  176.0480  138.0920 C   0  0  0  0  0  2  0  0  0  0  0  0
  189.6470  177.9620  136.4310 C   0  0  0  0  0  2  0  0  0  0  0  0
  189.1320  177.5160  137.7700 C   0  0  0  0  0  0  0  0  0  0  0  0
  188.7320  178.4360  138.6550 C   0  0  0  0  0  3  0  0  0  0  0  0
  190.6310  175.6290  136.0870 C   0  0  1  0  0  3  0  0  0  0  0  0
  189.7990  176.7710  135.4810 C   0  0  0  0  0  2  0  0  0  0  0  0
  188.1950  178.0770  140.0060 C   0  0  0  0  0  2  0  0  0  0  0  0
  189.3400  177.9060  140.9850 C   0  0  0  0  0  2  0  0  0  0  0  0
  188.9420  176.9330  142.0820 C   0  0  0  0  0  2  0  0  0  0  0  0
  188.7200  177.6590  143.3230 N   0  0  0  0  0  2  0  0  0  0  0  0
  187.6630  176.9600  144.0380 C   0  0  0  0  0  2  0  0  0  0  0  0
  186.9320  177.9160  144.9680 C   0  0  1  0  0  3  0  0  0  0  0  0
  183.3270  179.0500  144.6920 C   0  0  0  0  0  3  0  0  0  0  0  0
  184.5770  178.7500  145.2340 C   0  0  0  0  0  0  0  0  0  0  0  0
  184.7930  178.9170  146.5630 F   0  0  0  0  0  0  0  0  0  0  0  0
  185.3410  178.0930  143.0690 N   0  0  0  0  0  0  0  0  0  0  0  0
  183.9220  178.1970  141.1980 F   0  0  0  0  0  0  0  0  0  0  0  0
  185.5910  178.2680  144.3980 C   0  0  0  0  0  0  0  0  0  0  0  0
  184.1300  178.3840  142.5220 C   0  0  0  0  0  0  0  0  0  0  0  0
  183.0980  178.8670  143.3270 C   0  0  0  0  0  3  0  0  0  0  0  0
  186.7890  177.2950  146.3560 C   0  0  0  0  0  2  0  0  0  0  0  0
  188.8460  177.7760  147.7880 C   0  0  0  0  0  0  0  0  0  0  0  0
  189.3710  178.4970  148.6790 O   0  0  0  0  0  0  0  0  0  0  0  0
  187.5130  178.0690  147.3580 N   0  0  0  0  0  2  0  0  0  0  0  0
  190.9220  176.6650  147.1180 C   0  0  0  0  0  2  0  0  0  0  0  0
  189.5980  176.6540  147.2050 C   0  0  0  0  0  3  0  0  0  0  0  0
  191.9900  175.8600  135.8540 O   0  0  0  0  0  0  0  0  0  0  0  0
  192.6620  174.8880  136.6030 C   0  0  1  0  0  3  0  0  0  0  0  0
  195.3940  175.3100  139.2070 O   0  0  0  0  0  1  0  0  0  0  0  0
  194.3660  174.2090  134.8650 C   0  0  0  0  0  2  0  0  0  0  0  0
  195.5010  173.1940  135.0030 C   0  0  0  0  0  2  0  0  0  0  0  0
  194.8490  173.3000  137.9750 C   0  0  0  0  0  2  0  0  0  0  0  0
  196.2520  173.0090  137.4400 C   0  0  0  0  0  2  0  0  0  0  0  0
  193.8040  176.7700  137.5510 O   0  0  0  0  0  0  0  0  0  0  0  0
  196.6090  173.5500  136.0310 C   0  0  1  0  0  0  0  0  0  0  0  0
  193.1660  173.7740  135.6830 C   0  0  0  0  0  2  0  0  0  0  0  0
  194.6570  174.7190  138.2360 N   0  0  0  0  0  0  0  0  0  0  0  0
  193.7420  175.5140  137.4640 C   0  0  0  0  0  0  0  0  0  0  0  0
  199.1520  173.3050  136.0610 N   0  0  0  0  0  1  0  0  0  0  0  0
  197.8810  172.8610  135.5850 C   0  0  0  0  0  0  0  0  0  0  0  0
  197.8320  171.8300  134.8600 O   0  0  0  0  0  0  0  0  0  0  0  0
  196.7270  175.7610  135.0710 O   0  0  0  0  0  0  0  0  0  0  0  0
  197.5650  175.5760  137.1870 O   0  0  0  0  0  1  0  0  0  0  0  0
  196.9250  175.0310  136.0790 C   0  0  0  0  0  0  0  0  0  0  0  0
  1  2  1  0  0  0  0
  3  4  1  0  0  0  0
  4  2  1  0  0  0  0
  4  5  2  0  0  0  0
  5  8  1  0  0  0  0
  6 28  1  1  0  0  0
  6  1  1  0  0  0  0
  7  6  1  0  0  0  0
  7  3  1  0  0  0  0
  8  9  1  0  0  0  0
  9 10  1  0  0  0  0
 10 11  1  0  0  0  0
 11 12  1  0  0  0  0
 13 12  1  6  0  0  0
 13 22  1  0  0  0  0
 14 15  1  0  0  0  0
 15 16  1  0  0  0  0
 17 19  1  0  0  0  0
 18 20  1  0  0  0  0
 19 13  1  0  0  0  0
 19 15  2  0  0  0  0
 20 17  2  0  0  0  0
 20 21  1  0  0  0  0
 21 14  2  0  0  0  0
 22 25  1  0  0  0  0
 23 24  2  0  0  0  0
 25 23  1  0  0  0  0
 26 27  2  0  0  0  0
 27 23  1  0  0  0  0
 29 28  1  6  0  0  0
 29 39  1  0  0  0  0
 31 32  1  0  0  0  0
 31 37  1  0  0  0  0
 32 36  1  0  0  0  0
 33 38  1  0  0  0  0
 34 33  1  0  0  0  0
 36 41  1  6  0  0  0
 36 45  1  0  0  0  0
 36 34  1  0  0  0  0
 37 29  1  0  0  0  0
 38 30  1  0  0  0  0
 39 35  2  0  0  0  0
 39 38  1  0  0  0  0
 41 40  1  0  0  0  0
 42 41  2  0  0  0  0
 43 45  2  0  0  0  0
 45 44  1  0  0  0  0
M  END
>  <MODEL>
2

>  <REMARK>
 VINA RESULT:      -8.0      2.136      4.045
  Name = 
  14 active torsions:
  status: ('A' for Active; 'I' for Inactive)
    1  A    between atoms: C_1  and  O_40
    2  A    between atoms: C_2  and  C_18
    3  A    between atoms: C_2  and  N_37
    4  A    between atoms: C_5  and  C_25
    5  A    between atoms: C_5  and  C_35
    6  A    between atoms: C_7  and  C_26
    7  A    between atoms: C_11  and  C_44
    8  A    between atoms: C_18  and  C_23
    9  A    between atoms: C_18  and  C_32
   10  A    between atoms: C_23  and  N_43
   11  A    between atoms: C_25  and  N_43
   12  A    between atoms: C_26  and  C_39
   13  A    between atoms: C_29  and  C_35
   14  A    between atoms: O_40  and  C_41
                            x       y       z     vdW  Elec       q    Type
                         _______ _______ _______ _____ _____    ______ ____

>  <TORSDO>
F 14

$$$$
=
 OpenBabel11062417283D

 45 47  0  0  1  0  0  0  0  0999 V2000
  187.8030  178.4630  138.7490 C   0  0  0  0  0  2  0  0  0  0  0  0
  189.3250  178.4220  138.6690 C   0  0  0  0  0  2  0  0  0  0  0  0
  189.0170  175.9600  137.9190 C   0  0  0  0  0  2  0  0  0  0  0  0
  189.7750  176.9880  138.7090 C   0  0  0  0  0  0  0  0  0  0  0  0
  190.8210  176.6020  139.4490 C   0  0  0  0  0  3  0  0  0  0  0  0
  187.1200  177.6480  137.6350 C   0  0  1  0  0  3  0  0  0  0  0  0
  188.0430  176.6290  136.9460 C   0  0  0  0  0  2  0  0  0  0  0  0
  191.6370  177.5640  140.2570 C   0  0  0  0  0  2  0  0  0  0  0  0
  191.3540  177.3660  141.7330 C   0  0  0  0  0  2  0  0  0  0  0  0
  190.2140  176.3800  141.9140 C   0  0  0  0  0  2  0  0  0  0  0  0
  189.0240  177.0840  142.3640 N   0  0  0  0  0  2  0  0  0  0  0  0
  188.2580  176.1480  143.1730 C   0  0  0  0  0  2  0  0  0  0  0  0
  187.3710  176.8980  144.1550 C   0  0  1  0  0  3  0  0  0  0  0  0
  188.1040  177.7460  147.7750 C   0  0  0  0  0  3  0  0  0  0  0  0
  187.4030  177.5110  146.5910 C   0  0  0  0  0  0  0  0  0  0  0  0
  186.0550  177.6630  146.5650 F   0  0  0  0  0  0  0  0  0  0  0  0
  189.4620  177.0020  145.4930 N   0  0  0  0  0  0  0  0  0  0  0  0
  191.5070  177.0840  146.6480 F   0  0  0  0  0  0  0  0  0  0  0  0
  188.1050  177.1300  145.4420 C   0  0  0  0  0  0  0  0  0  0  0  0
  190.1610  177.2230  146.6380 C   0  0  0  0  0  0  0  0  0  0  0  0
  189.4920  177.6020  147.8020 C   0  0  0  0  0  3  0  0  0  0  0  0
  186.9090  178.2200  143.5440 C   0  0  0  0  0  2  0  0  0  0  0  0
  184.5180  178.5610  142.7210 C   0  0  0  0  0  0  0  0  0  0  0  0
  183.6520  178.2960  141.8450 O   0  0  0  0  0  0  0  0  0  0  0  0
  185.8310  178.0090  142.5840 N   0  0  0  0  0  2  0  0  0  0  0  0
  183.5530  178.9530  144.9360 C   0  0  0  0  0  2  0  0  0  0  0  0
  184.1760  179.4220  143.8630 C   0  0  0  0  0  3  0  0  0  0  0  0
  185.9980  176.9950  138.1530 O   0  0  0  0  0  0  0  0  0  0  0  0
  185.0680  176.9740  137.1070 C   0  0  1  0  0  3  0  0  0  0  0  0
  181.7300  178.7590  136.8110 O   0  0  0  0  0  1  0  0  0  0  0  0
  183.9070  174.8100  137.7000 C   0  0  0  0  0  2  0  0  0  0  0  0
  182.7130  174.1590  137.0020 C   0  0  0  0  0  2  0  0  0  0  0  0
  182.4690  176.8270  135.5550 C   0  0  0  0  0  2  0  0  0  0  0  0
  181.2680  175.9270  135.8510 C   0  0  0  0  0  2  0  0  0  0  0  0
  183.8340  178.4740  138.5110 O   0  0  0  0  0  0  0  0  0  0  0  0
  181.3800  174.9540  137.0540 C   0  0  1  0  0  0  0  0  0  0  0  0
  184.7790  175.5300  136.6910 C   0  0  0  0  0  2  0  0  0  0  0  0
  182.6760  177.8100  136.6090 N   0  0  0  0  0  0  0  0  0  0  0  0
  183.8300  177.7740  137.4620 C   0  0  0  0  0  0  0  0  0  0  0  0
  180.0320  172.9830  137.9630 N   0  0  0  0  0  1  0  0  0  0  0  0
  180.2490  173.9530  136.9390 C   0  0  0  0  0  0  0  0  0  0  0  0
  179.4280  174.0200  135.9840 O   0  0  0  0  0  0  0  0  0  0  0  0
  180.2620  176.5480  138.4790 O   0  0  0  0  0  0  0  0  0  0  0  0
  182.0590  175.4990  139.4190 O   0  0  0  0  0  1  0  0  0  0  0  0
  181.1690  175.6800  138.3660 C   0  0  0  0  0  0  0  0  0  0  0  0
  2  4  1  0  0  0  0
  2  1  1  0  0  0  0
  3  4  1  0  0  0  0
  4  5  2  0  0  0  0
  5  8  1  0  0  0  0
  6 28  1  1  0  0  0
  6  1  1  0  0  0  0
  7  6  1  0  0  0  0
  7  3  1  0  0  0  0
  8  9  1  0  0  0  0
  9 10  1  0  0  0  0
 10 11  1  0  0  0  0
 11 12  1  0  0  0  0
 13 12  1  6  0  0  0
 13 19  1  0  0  0  0
 14 21  1  0  0  0  0
 15 14  2  0  0  0  0
 16 15  1  0  0  0  0
 17 20  1  0  0  0  0
 19 17  2  0  0  0  0
 19 15  1  0  0  0  0
 20 18  1  0  0  0  0
 20 21  2  0  0  0  0
 22 13  1  0  0  0  0
 23 27  1  0  0  0  0
 24 23  2  0  0  0  0
 25 23  1  0  0  0  0
 25 22  1  0  0  0  0
 27 26  2  0  0  0  0
 29 39  1  0  0  0  0
 29 28  1  1  0  0  0
 32 36  1  0  0  0  0
 32 31  1  0  0  0  0
 33 34  1  0  0  0  0
 33 38  1  0  0  0  0
 34 36  1  0  0  0  0
 36 41  1  6  0  0  0
 36 45  1  0  0  0  0
 37 29  1  0  0  0  0
 37 31  1  0  0  0  0
 38 30  1  0  0  0  0
 38 39  1  0  0  0  0
 39 35  2  0  0  0  0
 41 40  1  0  0  0  0
 42 41  2  0  0  0  0
 45 43  2  0  0  0  0
 45 44  1  0  0  0  0
M  END
>  <MODEL>
3

>  <REMARK>
 VINA RESULT:      -7.8      5.665      9.372
  Name = 
  14 active torsions:
  status: ('A' for Active; 'I' for Inactive)
    1  A    between atoms: C_1  and  O_40
    2  A    between atoms: C_2  and  C_18
    3  A    between atoms: C_2  and  N_37
    4  A    between atoms: C_5  and  C_25
    5  A    between atoms: C_5  and  C_35
    6  A    between atoms: C_7  and  C_26
    7  A    between atoms: C_11  and  C_44
    8  A    between atoms: C_18  and  C_23
    9  A    between atoms: C_18  and  C_32
   10  A    between atoms: C_23  and  N_43
   11  A    between atoms: C_25  and  N_43
   12  A    between atoms: C_26  and  C_39
   13  A    between atoms: C_29  and  C_35
   14  A    between atoms: O_40  and  C_41
                            x       y       z     vdW  Elec       q    Type
                         _______ _______ _______ _____ _____    ______ ____

>  <TORSDO>
F 14

$$$$
=
 OpenBabel11062417283D

 45 47  0  0  1  0  0  0  0  0999 V2000
  188.8450  176.5320  138.2160 C   0  0  0  0  0  2  0  0  0  0  0  0
  187.9140  176.2730  137.0370 C   0  0  0  0  0  2  0  0  0  0  0  0
  187.3990  178.8100  137.1460 C   0  0  0  0  0  2  0  0  0  0  0  0
  186.9250  177.4000  136.9420 C   0  0  0  0  0  0  0  0  0  0  0  0
  185.6270  177.1760  136.7030 C   0  0  0  0  0  3  0  0  0  0  0  0
  189.5720  177.8860  138.1210 C   0  0  1  0  0  3  0  0  0  0  0  0
  188.9280  178.8780  137.1380 C   0  0  0  0  0  2  0  0  0  0  0  0
  185.0730  175.8030  136.4770 C   0  0  0  0  0  2  0  0  0  0  0  0
  183.5790  175.8030  136.7300 C   0  0  0  0  0  2  0  0  0  0  0  0
  183.2570  174.9270  137.9290 C   0  0  0  0  0  2  0  0  0  0  0  0
  181.8980  175.1900  138.3760 N   0  0  0  0  0  2  0  0  0  0  0  0
  181.5710  176.5450  137.9600 C   0  0  0  0  0  2  0  0  0  0  0  0
  181.2070  177.3960  139.1680 C   0  0  1  0  0  3  0  0  0  0  0  0
  184.4650  179.2910  139.5540 C   0  0  0  0  0  3  0  0  0  0  0  0
  183.3070  178.7620  138.9830 C   0  0  0  0  0  0  0  0  0  0  0  0
  183.0370  178.9900  137.6730 F   0  0  0  0  0  0  0  0  0  0  0  0
  182.7480  177.7660  141.0800 N   0  0  0  0  0  0  0  0  0  0  0  0
  184.1380  178.0290  142.9570 F   0  0  0  0  0  0  0  0  0  0  0  0
  182.4430  177.9930  139.7710 C   0  0  0  0  0  0  0  0  0  0  0  0
  183.8710  178.2760  141.6540 C   0  0  0  0  0  0  0  0  0  0  0  0
  184.7520  179.0480  140.8980 C   0  0  0  0  0  3  0  0  0  0  0  0
  180.2150  178.4850  138.7660 C   0  0  0  0  0  2  0  0  0  0  0  0
  180.0640  180.6940  140.0340 C   0  0  0  0  0  0  0  0  0  0  0  0
  179.7010  181.2900  141.0830 O   0  0  0  0  0  0  0  0  0  0  0  0
  179.8190  179.2900  139.9160 N   0  0  0  0  0  2  0  0  0  0  0  0
  180.0890  182.3430  138.2240 C   0  0  0  0  0  2  0  0  0  0  0  0
  180.7290  181.4380  138.9530 C   0  0  0  0  0  3  0  0  0  0  0  0
  189.6530  178.4650  139.3910 O   0  0  0  0  0  0  0  0  0  0  0  0
  189.3210  177.4400  140.2850 C   0  0  1  0  0  3  0  0  0  0  0  0
  187.1030  177.5490  143.3650 O   0  0  0  0  0  1  0  0  0  0  0  0
  191.3960  177.5300  141.7240 C   0  0  0  0  0  2  0  0  0  0  0  0
  191.7170  176.7020  142.9680 C   0  0  0  0  0  2  0  0  0  0  0  0
  188.7840  175.8920  142.8350 C   0  0  0  0  0  2  0  0  0  0  0  0
  189.5670  175.9770  144.1470 C   0  0  0  0  0  2  0  0  0  0  0  0
  188.0260  179.1440  141.3640 O   0  0  0  0  0  0  0  0  0  0  0  0
  190.7890  176.9300  144.1930 C   0  0  1  0  0  0  0  0  0  0  0  0
  190.5860  176.7100  140.7390 C   0  0  0  0  0  2  0  0  0  0  0  0
  188.0960  177.1400  142.5390 N   0  0  0  0  0  0  0  0  0  0  0  0
  188.4680  177.9650  141.4240 C   0  0  0  0  0  0  0  0  0  0  0  0
  192.1930  175.3090  145.5810 N   0  0  0  0  0  1  0  0  0  0  0  0
  191.5860  176.5920  145.4350 C   0  0  0  0  0  0  0  0  0  0  0  0
  191.8020  177.4680  146.3170 O   0  0  0  0  0  0  0  0  0  0  0  0
  191.0240  179.3050  143.8340 O   0  0  0  0  0  0  0  0  0  0  0  0
  189.2840  178.6940  145.1810 O   0  0  0  0  0  1  0  0  0  0  0  0
  190.3520  178.3720  144.3510 C   0  0  0  0  0  0  0  0  0  0  0  0
  2  1  1  0  0  0  0
  4  2  1  0  0  0  0
  4  3  1  0  0  0  0
  5  4  2  0  0  0  0
  6  1  1  0  0  0  0
  6 28  1  1  0  0  0
  7  3  1  0  0  0  0
  7  6  1  0  0  0  0
  8  5  1  0  0  0  0
  8  9  1  0  0  0  0
  9 10  1  0  0  0  0
 10 11  1  0  0  0  0
 12 11  1  0  0  0  0
 13 12  1  6  0  0  0
 13 19  1  0  0  0  0
 14 21  1  0  0  0  0
 15 14  2  0  0  0  0
 15 19  1  0  0  0  0
 16 15  1  0  0  0  0
 17 20  1  0  0  0  0
 19 17  2  0  0  0  0
 20 18  1  0  0  0  0
 21 20  2  0  0  0  0
 22 13  1  0  0  0  0
 22 25  1  0  0  0  0
 23 24  2  0  0  0  0
 25 23  1  0  0  0  0
 26 27  2  0  0  0  0
 27 23  1  0  0  0  0
 29 28  1  6  0  0  0
 29 37  1  0  0  0  0
 29 39  1  0  0  0  0
 31 32  1  0  0  0  0
 32 36  1  0  0  0  0
 33 34  1  0  0  0  0
 34 36  1  0  0  0  0
 35 39  2  0  0  0  0
 36 45  1  1  0  0  0
 36 41  1  0  0  0  0
 37 31  1  0  0  0  0
 38 33  1  0  0  0  0
 38 30  1  0  0  0  0
 39 38  1  0  0  0  0
 41 40  1  0  0  0  0
 41 42  2  0  0  0  0
 43 45  2  0  0  0  0
 45 44  1  0  0  0  0
M  END
>  <MODEL>
4

>  <REMARK>
 VINA RESULT:      -7.6      5.579      8.275
  Name = 
  14 active torsions:
  status: ('A' for Active; 'I' for Inactive)
    1  A    between atoms: C_1  and  O_40
    2  A    between atoms: C_2  and  C_18
    3  A    between atoms: C_2  and  N_37
    4  A    between atoms: C_5  and  C_25
    5  A    between atoms: C_5  and  C_35
    6  A    between atoms: C_7  and  C_26
    7  A    between atoms: C_11  and  C_44
    8  A    between atoms: C_18  and  C_23
    9  A    between atoms: C_18  and  C_32
   10  A    between atoms: C_23  and  N_43
   11  A    between atoms: C_25  and  N_43
   12  A    between atoms: C_26  and  C_39
   13  A    between atoms: C_29  and  C_35
   14  A    between atoms: O_40  and  C_41
                            x       y       z     vdW  Elec       q    Type
                         _______ _______ _______ _____ _____    ______ ____

>  <TORSDO>
F 14

$$$$
=
 OpenBabel11062417283D

 45 47  0  0  1  0  0  0  0  0999 V2000
  188.2410  175.6310  136.0220 C   0  0  0  0  0  2  0  0  0  0  0  0
  186.9900  176.4980  135.9350 C   0  0  0  0  0  2  0  0  0  0  0  0
  188.5090  178.4220  136.7760 C   0  0  0  0  0  2  0  0  0  0  0  0
  187.1820  177.7180  136.7920 C   0  0  0  0  0  0  0  0  0  0  0  0
  186.2090  178.1770  137.5860 C   0  0  0  0  0  3  0  0  0  0  0  0
  189.5220  176.3830  135.6160 C   0  0  1  0  0  3  0  0  0  0  0  0
  189.3820  177.9150  135.6260 C   0  0  0  0  0  2  0  0  0  0  0  0
  184.8540  177.5420  137.6540 C   0  0  0  0  0  2  0  0  0  0  0  0
  184.0790  178.1050  138.8290 C   0  0  0  0  0  2  0  0  0  0  0  0
  185.0400  178.6720  139.8590 C   0  0  0  0  0  2  0  0  0  0  0  0
  184.2890  179.2890  140.9420 N   0  0  0  0  0  2  0  0  0  0  0  0
  185.1620  179.3070  142.1050 C   0  0  0  0  0  2  0  0  0  0  0  0
  184.4840  178.6320  143.2870 C   0  0  1  0  0  3  0  0  0  0  0  0
  187.4540  177.3700  145.2720 C   0  0  0  0  0  3  0  0  0  0  0  0
  186.5610  177.5700  144.2190 C   0  0  0  0  0  0  0  0  0  0  0  0
  186.7550  176.9270  143.0400 F   0  0  0  0  0  0  0  0  0  0  0  0
  185.2880  179.0450  145.6010 N   0  0  0  0  0  0  0  0  0  0  0  0
  185.9370  179.4980  147.8130 F   0  0  0  0  0  0  0  0  0  0  0  0
  185.4670  178.4250  144.3990 C   0  0  0  0  0  0  0  0  0  0  0  0
  186.1500  178.8650  146.6370 C   0  0  0  0  0  0  0  0  0  0  0  0
  187.2510  178.0200  146.4900 C   0  0  0  0  0  3  0  0  0  0  0  0
  183.2930  179.4650  143.7580 C   0  0  0  0  0  2  0  0  0  0  0  0
  180.8930  178.6190  143.5800 C   0  0  0  0  0  0  0  0  0  0  0  0
  180.0000  177.8590  144.0420 O   0  0  0  0  0  0  0  0  0  0  0  0
  182.1890  178.6130  144.1850 N   0  0  0  0  0  2  0  0  0  0  0  0
  179.7050  180.4750  142.5120 C   0  0  0  0  0  2  0  0  0  0  0  0
  180.5970  179.4960  142.4360 C   0  0  0  0  0  3  0  0  0  0  0  0
  190.5750  176.0010  136.4520 O   0  0  0  0  0  0  0  0  0  0  0  0
  191.4370  175.2540  135.6410 C   0  0  1  0  0  3  0  0  0  0  0  0
  192.9890  171.8450  136.2650 O   0  0  0  0  0  1  0  0  0  0  0  0
  193.6010  176.4000  136.2630 C   0  0  0  0  0  2  0  0  0  0  0  0
  195.0150  176.0680  135.7860 C   0  0  0  0  0  2  0  0  0  0  0  0
  193.7410  173.5260  134.6950 C   0  0  0  0  0  2  0  0  0  0  0  0
  195.1970  173.5950  135.1600 C   0  0  0  0  0  2  0  0  0  0  0  0
  191.3200  173.6540  137.4220 O   0  0  0  0  0  0  0  0  0  0  0  0
  195.5650  174.6780  136.2080 C   0  0  1  0  0  0  0  0  0  0  0  0
  192.5960  176.1300  135.1610 C   0  0  0  0  0  2  0  0  0  0  0  0
  192.8540  173.0980  135.7680 N   0  0  0  0  0  0  0  0  0  0  0  0
  191.8740  173.9800  136.3370 C   0  0  0  0  0  0  0  0  0  0  0  0
  197.8860  173.6250  136.0390 N   0  0  0  0  0  1  0  0  0  0  0  0
  197.0750  174.7800  136.2500 C   0  0  0  0  0  0  0  0  0  0  0  0
  197.6390  175.9010  136.3800 O   0  0  0  0  0  0  0  0  0  0  0  0
  194.7890  175.1280  138.4490 O   0  0  0  0  0  1  0  0  0  0  0  0
  195.2360  172.9340  137.9980 O   0  0  0  0  0  0  0  0  0  0  0  0
  195.1310  174.2620  137.5990 C   0  0  0  0  0  0  0  0  0  0  0  0
  2  1  1  0  0  0  0
  2  4  1  0  0  0  0
  3  4  1  0  0  0  0
  4  5  2  0  0  0  0
  5  8  1  0  0  0  0
  6  7  1  0  0  0  0
  6  1  1  0  0  0  0
  6 28  1  1  0  0  0
  7  3  1  0  0  0  0
  8  9  1  0  0  0  0
  9 10  1  0  0  0  0
 10 11  1  0  0  0  0
 11 12  1  0  0  0  0
 13 12  1  6  0  0  0
 13 22  1  0  0  0  0
 13 19  1  0  0  0  0
 14 21  1  0  0  0  0
 15 19  1  0  0  0  0
 15 14  2  0  0  0  0
 16 15  1  0  0  0  0
 17 20  1  0  0  0  0
 19 17  2  0  0  0  0
 20 18  1  0  0  0  0
 21 20  2  0  0  0  0
 22 25  1  0  0  0  0
 23 24  2  0  0  0  0
 23 25  1  0  0  0  0
 27 26  2  0  0  0  0
 27 23  1  0  0  0  0
 29 39  1  0  0  0  0
 29 28  1  1  0  0  0
 32 36  1  0  0  0  0
 32 31  1  0  0  0  0
 33 34  1  0  0  0  0
 33 38  1  0  0  0  0
 34 36  1  0  0  0  0
 36 41  1  1  0  0  0
 36 45  1  0  0  0  0
 37 29  1  0  0  0  0
 37 31  1  0  0  0  0
 38 30  1  0  0  0  0
 38 39  1  0  0  0  0
 39 35  2  0  0  0  0
 40 41  1  0  0  0  0
 41 42  2  0  0  0  0
 45 44  2  0  0  0  0
 45 43  1  0  0  0  0
M  END
>  <MODEL>
5

>  <REMARK>
 VINA RESULT:      -7.6      2.512      3.673
  Name = 
  14 active torsions:
  status: ('A' for Active; 'I' for Inactive)
    1  A    between atoms: C_1  and  O_40
    2  A    between atoms: C_2  and  C_18
    3  A    between atoms: C_2  and  N_37
    4  A    between atoms: C_5  and  C_25
    5  A    between atoms: C_5  and  C_35
    6  A    between atoms: C_7  and  C_26
    7  A    between atoms: C_11  and  C_44
    8  A    between atoms: C_18  and  C_23
    9  A    between atoms: C_18  and  C_32
   10  A    between atoms: C_23  and  N_43
   11  A    between atoms: C_25  and  N_43
   12  A    between atoms: C_26  and  C_39
   13  A    between atoms: C_29  and  C_35
   14  A    between atoms: O_40  and  C_41
                            x       y       z     vdW  Elec       q    Type
                         _______ _______ _______ _____ _____    ______ ____

>  <TORSDO>
F 14

$$$$
=
 OpenBabel11062417283D

 45 47  0  0  1  0  0  0  0  0999 V2000
  188.7510  176.5080  138.2850 C   0  0  0  0  0  2  0  0  0  0  0  0
  187.6390  176.4370  137.2460 C   0  0  0  0  0  2  0  0  0  0  0  0
  187.5130  179.0130  137.4990 C   0  0  0  0  0  2  0  0  0  0  0  0
  186.8170  177.6930  137.3250 C   0  0  0  0  0  0  0  0  0  0  0  0
  185.4810  177.6620  137.2690 C   0  0  0  0  0  3  0  0  0  0  0  0
  189.6450  177.7520  138.1250 C   0  0  1  0  0  3  0  0  0  0  0  0
  189.0200  178.8690  137.2730 C   0  0  0  0  0  2  0  0  0  0  0  0
  184.7100  176.3920  137.0860 C   0  0  0  0  0  2  0  0  0  0  0  0
  183.4740  176.6550  136.2490 C   0  0  0  0  0  2  0  0  0  0  0  0
  182.3770  177.2470  137.1160 C   0  0  0  0  0  2  0  0  0  0  0  0
  181.9130  176.2490  138.0670 N   0  0  0  0  0  2  0  0  0  0  0  0
  181.0650  176.9410  139.0260 C   0  0  0  0  0  2  0  0  0  0  0  0
  181.8540  178.0250  139.7440 C   0  0  1  0  0  3  0  0  0  0  0  0
  179.6820  180.8820  140.9590 C   0  0  0  0  0  3  0  0  0  0  0  0
  180.5150  180.1120  140.1460 C   0  0  0  0  0  0  0  0  0  0  0  0
  180.9120  180.5930  138.9410 F   0  0  0  0  0  0  0  0  0  0  0  0
  180.5380  178.4040  141.8150 N   0  0  0  0  0  0  0  0  0  0  0  0
  179.3470  178.6550  143.8260 F   0  0  0  0  0  0  0  0  0  0  0  0
  180.9390  178.8550  140.5930 C   0  0  0  0  0  0  0  0  0  0  0  0
  179.7230  179.1390  142.6190 C   0  0  0  0  0  0  0  0  0  0  0  0
  179.2810  180.3950  142.2040 C   0  0  0  0  0  3  0  0  0  0  0  0
  182.9640  177.3990  140.5870 C   0  0  0  0  0  2  0  0  0  0  0  0
  184.3840  178.9410  142.0420 C   0  0  0  0  0  0  0  0  0  0  0  0
  185.3450  179.7550  142.1000 O   0  0  0  0  0  0  0  0  0  0  0  0
  184.0660  178.3340  140.7860 N   0  0  0  0  0  2  0  0  0  0  0  0
  184.1460  178.6630  144.4630 C   0  0  0  0  0  2  0  0  0  0  0  0
  183.6070  178.6280  143.2510 C   0  0  0  0  0  3  0  0  0  0  0  0
  189.9820  178.2520  139.3860 O   0  0  0  0  0  0  0  0  0  0  0  0
  189.6440  177.2360  140.2880 C   0  0  1  0  0  3  0  0  0  0  0  0
  187.1900  177.3000  143.1850 O   0  0  0  0  0  1  0  0  0  0  0  0
  191.5910  177.5030  141.8760 C   0  0  0  0  0  2  0  0  0  0  0  0
  191.8640  176.7360  143.1700 C   0  0  0  0  0  2  0  0  0  0  0  0
  189.0060  175.7380  142.8440 C   0  0  0  0  0  2  0  0  0  0  0  0
  189.6770  175.9120  144.2080 C   0  0  0  0  0  2  0  0  0  0  0  0
  188.1680  178.8880  141.2040 O   0  0  0  0  0  0  0  0  0  0  0  0
  190.8320  176.9420  144.3120 C   0  0  1  0  0  0  0  0  0  0  0  0
  190.9130  176.6020  140.8630 C   0  0  0  0  0  2  0  0  0  0  0  0
  188.2680  176.9300  142.4520 N   0  0  0  0  0  0  0  0  0  0  0  0
  188.6750  177.7410  141.3400 C   0  0  0  0  0  0  0  0  0  0  0  0
  192.1750  175.4380  145.8810 N   0  0  0  0  0  1  0  0  0  0  0  0
  191.5480  176.6940  145.6230 C   0  0  0  0  0  0  0  0  0  0  0  0
  191.6810  177.6220  146.4670 O   0  0  0  0  0  0  0  0  0  0  0  0
  190.9280  179.3090  143.8520 O   0  0  0  0  0  0  0  0  0  0  0  0
  189.1760  178.6450  145.1560 O   0  0  0  0  0  1  0  0  0  0  0  0
  190.2970  178.3570  144.3850 C   0  0  0  0  0  0  0  0  0  0  0  0
  2  4  1  0  0  0  0
  2  1  1  0  0  0  0
  4  3  1  0  0  0  0
  5  4  2  0  0  0  0
  6  1  1  0  0  0  0
  6 28  1  1  0  0  0
  7  3  1  0  0  0  0
  7  6  1  0  0  0  0
  8  5  1  0  0  0  0
  9  8  1  0  0  0  0
  9 10  1  0  0  0  0
 10 11  1  0  0  0  0
 11 12  1  0  0  0  0
 13 12  1  1  0  0  0
 13 22  1  0  0  0  0
 13 19  1  0  0  0  0
 14 21  1  0  0  0  0
 15 19  1  0  0  0  0
 15 14  2  0  0  0  0
 16 15  1  0  0  0  0
 17 20  1  0  0  0  0
 19 17  2  0  0  0  0
 20 18  1  0  0  0  0
 21 20  2  0  0  0  0
 22 25  1  0  0  0  0
 23 24  2  0  0  0  0
 23 27  1  0  0  0  0
 25 23  1  0  0  0  0
 27 26  2  0  0  0  0
 29 28  1  6  0  0  0
 29 37  1  0  0  0  0
 29 39  1  0  0  0  0
 31 32  1  0  0  0  0
 32 36  1  0  0  0  0
 33 34  1  0  0  0  0
 34 36  1  0  0  0  0
 35 39  2  0  0  0  0
 36 45  1  6  0  0  0
 36 41  1  0  0  0  0
 37 31  1  0  0  0  0
 38 33  1  0  0  0  0
 38 30  1  0  0  0  0
 39 38  1  0  0  0  0
 41 40  1  0  0  0  0
 41 42  2  0  0  0  0
 43 45  2  0  0  0  0
 45 44  1  0  0  0  0
M  END
>  <MODEL>
6

>  <REMARK>
 VINA RESULT:      -7.5      5.760      8.484
  Name = 
  14 active torsions:
  status: ('A' for Active; 'I' for Inactive)
    1  A    between atoms: C_1  and  O_40
    2  A    between atoms: C_2  and  C_18
    3  A    between atoms: C_2  and  N_37
    4  A    between atoms: C_5  and  C_25
    5  A    between atoms: C_5  and  C_35
    6  A    between atoms: C_7  and  C_26
    7  A    between atoms: C_11  and  C_44
    8  A    between atoms: C_18  and  C_23
    9  A    between atoms: C_18  and  C_32
   10  A    between atoms: C_23  and  N_43
   11  A    between atoms: C_25  and  N_43
   12  A    between atoms: C_26  and  C_39
   13  A    between atoms: C_29  and  C_35
   14  A    between atoms: O_40  and  C_41
                            x       y       z     vdW  Elec       q    Type
                         _______ _______ _______ _____ _____    ______ ____

>  <TORSDO>
F 14

$$$$
=
 OpenBabel11062417283D

 45 47  0  0  1  0  0  0  0  0999 V2000
  190.1820  178.5310  143.4470 C   0  0  0  0  0  2  0  0  0  0  0  0
  189.5680  177.9110  144.6970 C   0  0  0  0  0  2  0  0  0  0  0  0
  188.3080  176.3480  143.0580 C   0  0  0  0  0  2  0  0  0  0  0  0
  188.3150  177.1770  144.3110 C   0  0  0  0  0  0  0  0  0  0  0  0
  187.1980  177.2630  145.0430 C   0  0  0  0  0  3  0  0  0  0  0  0
  190.4760  177.4960  142.3460 C   0  0  1  0  0  3  0  0  0  0  0  0
  189.7280  176.1630  142.5190 C   0  0  0  0  0  2  0  0  0  0  0  0
  187.1220  178.0570  146.3100 C   0  0  0  0  0  2  0  0  0  0  0  0
  185.6910  178.4850  146.5650 C   0  0  0  0  0  2  0  0  0  0  0  0
  185.2170  179.3990  145.4480 C   0  0  0  0  0  2  0  0  0  0  0  0
  183.8390  179.0820  145.1080 N   0  0  0  0  0  2  0  0  0  0  0  0
  183.6540  179.4420  143.7100 C   0  0  0  0  0  2  0  0  0  0  0  0
  182.7790  178.4150  143.0100 C   0  0  1  0  0  3  0  0  0  0  0  0
  179.1020  179.2930  143.2720 C   0  0  0  0  0  3  0  0  0  0  0  0
  180.3560  178.7610  143.5760 C   0  0  0  0  0  0  0  0  0  0  0  0
  180.5160  178.0100  144.6940 F   0  0  0  0  0  0  0  0  0  0  0  0
  181.2380  179.7450  141.5860 N   0  0  0  0  0  0  0  0  0  0  0  0
  179.8730  181.0090  140.1500 F   0  0  0  0  0  0  0  0  0  0  0  0
  181.4310  179.0010  142.7120 C   0  0  0  0  0  0  0  0  0  0  0  0
  180.0240  180.2750  141.2770 C   0  0  0  0  0  0  0  0  0  0  0  0
  178.9310  180.0560  142.1160 C   0  0  0  0  0  3  0  0  0  0  0  0
  183.4570  177.9280  141.7300 C   0  0  0  0  0  2  0  0  0  0  0  0
  183.9430  179.2690  139.6140 C   0  0  0  0  0  0  0  0  0  0  0  0
  184.5550  180.2390  139.0920 O   0  0  0  0  0  0  0  0  0  0  0  0
  184.0920  179.0310  141.0170 N   0  0  0  0  0  2  0  0  0  0  0  0
  183.5690  177.7310  137.7470 C   0  0  0  0  0  2  0  0  0  0  0  0
  183.0910  178.4010  138.7870 C   0  0  0  0  0  3  0  0  0  0  0  0
  190.1800  178.0450  141.0950 O   0  0  0  0  0  0  0  0  0  0  0  0
  189.7100  176.9750  140.3240 C   0  0  1  0  0  3  0  0  0  0  0  0
  191.2270  175.3810  137.2290 O   0  0  0  0  0  1  0  0  0  0  0  0
  188.0530  178.2510  138.9070 C   0  0  0  0  0  2  0  0  0  0  0  0
  187.1770  177.7200  137.7720 C   0  0  0  0  0  2  0  0  0  0  0  0
  188.9270  175.2360  137.9690 C   0  0  0  0  0  2  0  0  0  0  0  0
  188.2700  175.6920  136.6640 C   0  0  0  0  0  2  0  0  0  0  0  0
  191.6960  177.3580  139.0390 O   0  0  0  0  0  0  0  0  0  0  0  0
  187.9320  177.1980  136.5190 C   0  0  1  0  0  0  0  0  0  0  0  0
  188.2360  177.1890  139.9730 C   0  0  0  0  0  2  0  0  0  0  0  0
  190.2730  175.7730  138.1080 N   0  0  0  0  0  0  0  0  0  0  0  0
  190.6030  176.7350  139.1230 C   0  0  0  0  0  0  0  0  0  0  0  0
  186.4610  176.1940  134.6880 N   0  0  0  0  0  1  0  0  0  0  0  0
  187.0010  177.3460  135.3340 C   0  0  0  0  0  0  0  0  0  0  0  0
  186.6190  178.4870  134.9570 O   0  0  0  0  0  0  0  0  0  0  0  0
  189.4050  179.0920  136.7850 O   0  0  0  0  0  1  0  0  0  0  0  0
  189.9880  177.6340  135.1280 O   0  0  0  0  0  0  0  0  0  0  0  0
  189.1690  178.0070  136.1880 C   0  0  0  0  0  0  0  0  0  0  0  0
  1  2  1  0  0  0  0
  3  4  1  0  0  0  0
  4  2  1  0  0  0  0
  4  5  2  0  0  0  0
  5  8  1  0  0  0  0
  6 28  1  6  0  0  0
  6  7  1  0  0  0  0
  6  1  1  0  0  0  0
  7  3  1  0  0  0  0
  8  9  1  0  0  0  0
 10  9  1  0  0  0  0
 11 10  1  0  0  0  0
 12 11  1  0  0  0  0
 13 22  1  6  0  0  0
 13 12  1  0  0  0  0
 14 15  1  0  0  0  0
 15 16  1  0  0  0  0
 17 19  1  0  0  0  0
 18 20  1  0  0  0  0
 19 13  1  0  0  0  0
 19 15  2  0  0  0  0
 20 17  2  0  0  0  0
 20 21  1  0  0  0  0
 21 14  2  0  0  0  0
 23 25  1  0  0  0  0
 24 23  2  0  0  0  0
 25 22  1  0  0  0  0
 26 27  2  0  0  0  0
 27 23  1  0  0  0  0
 29 28  1  6  0  0  0
 30 38  1  0  0  0  0
 31 37  1  0  0  0  0
 32 31  1  0  0  0  0
 33 38  1  0  0  0  0
 34 33  1  0  0  0  0
 35 39  2  0  0  0  0
 36 41  1  6  0  0  0
 36 34  1  0  0  0  0
 36 32  1  0  0  0  0
 37 29  1  0  0  0  0
 38 39  1  0  0  0  0
 39 29  1  0  0  0  0
 40 41  1  0  0  0  0
 42 41  2  0  0  0  0
 44 45  2  0  0  0  0
 45 36  1  0  0  0  0
 45 43  1  0  0  0  0
M  END
>  <MODEL>
7

>  <REMARK>
 VINA RESULT:      -7.4      4.998      8.572
  Name = 
  14 active torsions:
  status: ('A' for Active; 'I' for Inactive)
    1  A    between atoms: C_1  and  O_40
    2  A    between atoms: C_2  and  C_18
    3  A    between atoms: C_2  and  N_37
    4  A    between atoms: C_5  and  C_25
    5  A    between atoms: C_5  and  C_35
    6  A    between atoms: C_7  and  C_26
    7  A    between atoms: C_11  and  C_44
    8  A    between atoms: C_18  and  C_23
    9  A    between atoms: C_18  and  C_32
   10  A    between atoms: C_23  and  N_43
   11  A    between atoms: C_25  and  N_43
   12  A    between atoms: C_26  and  C_39
   13  A    between atoms: C_29  and  C_35
   14  A    between atoms: O_40  and  C_41
                            x       y       z     vdW  Elec       q    Type
                         _______ _______ _______ _____ _____    ______ ____

>  <TORSDO>
F 14

$$$$
=
 OpenBabel11062417283D

 45 47  0  0  1  0  0  0  0  0999 V2000
  180.9620  178.5750  142.6350 C   0  0  0  0  0  2  0  0  0  0  0  0
  181.9730  179.3660  143.4570 C   0  0  0  0  0  2  0  0  0  0  0  0
  183.7380  178.4560  141.7910 C   0  0  0  0  0  2  0  0  0  0  0  0
  183.3490  178.8180  143.1950 C   0  0  0  0  0  0  0  0  0  0  0  0
  184.2260  178.6220  144.1870 C   0  0  0  0  0  3  0  0  0  0  0  0
  181.2730  178.5870  141.1270 C   0  0  1  0  0  3  0  0  0  0  0  0
  182.7160  178.9950  140.7860 C   0  0  0  0  0  2  0  0  0  0  0  0
  183.9230  178.9660  145.6120 C   0  0  0  0  0  2  0  0  0  0  0  0
  184.9370  178.3070  146.5270 C   0  0  0  0  0  2  0  0  0  0  0  0
  186.3440  178.5850  146.0270 C   0  0  0  0  0  2  0  0  0  0  0  0
  186.9950  177.3310  145.6790 N   0  0  0  0  0  2  0  0  0  0  0  0
  187.3280  177.4070  144.2640 C   0  0  0  0  0  2  0  0  0  0  0  0
  188.8020  177.1000  144.0500 C   0  0  1  0  0  3  0  0  0  0  0  0
  190.5870  176.5920  140.7470 C   0  0  0  0  0  3  0  0  0  0  0  0
  190.2770  176.5090  142.1050 C   0  0  0  0  0  0  0  0  0  0  0  0
  191.0890  175.8110  142.9390 F   0  0  0  0  0  0  0  0  0  0  0  0
  188.3470  177.8650  141.7310 N   0  0  0  0  0  0  0  0  0  0  0  0
  187.8230  178.6660  139.5850 F   0  0  0  0  0  0  0  0  0  0  0  0
  189.1360  177.1580  142.5900 C   0  0  0  0  0  0  0  0  0  0  0  0
  188.6310  177.9540  140.4040 C   0  0  0  0  0  0  0  0  0  0  0  0
  189.7610  177.3180  139.8880 C   0  0  0  0  0  3  0  0  0  0  0  0
  189.6650  178.0770  144.8470 C   0  0  0  0  0  2  0  0  0  0  0  0
  191.0380  176.8950  146.6430 C   0  0  0  0  0  0  0  0  0  0  0  0
  192.1440  176.3810  146.9650 O   0  0  0  0  0  0  0  0  0  0  0  0
  190.8840  177.4350  145.3270 N   0  0  0  0  0  2  0  0  0  0  0  0
  189.4610  178.0750  148.0960 C   0  0  0  0  0  2  0  0  0  0  0  0
  189.9310  176.9330  147.6100 C   0  0  0  0  0  3  0  0  0  0  0  0
  180.9970  177.3300  140.5820 O   0  0  0  0  0  0  0  0  0  0  0  0
  181.2840  177.4490  139.2170 C   0  0  1  0  0  3  0  0  0  0  0  0
  178.9690  177.1150  136.2260 O   0  0  0  0  0  1  0  0  0  0  0  0
  182.1850  175.1190  138.8330 C   0  0  0  0  0  2  0  0  0  0  0  0
  182.6610  174.4970  137.5210 C   0  0  0  0  0  2  0  0  0  0  0  0
  181.3820  176.9400  136.2310 C   0  0  0  0  0  2  0  0  0  0  0  0
  181.4850  175.5850  135.5290 C   0  0  0  0  0  2  0  0  0  0  0  0
  178.9440  177.0090  138.9440 O   0  0  0  0  0  0  0  0  0  0  0  0
  181.5790  174.3200  136.4210 C   0  0  1  0  0  0  0  0  0  0  0  0
  182.5070  176.6000  138.8620 C   0  0  0  0  0  2  0  0  0  0  0  0
  180.1190  177.0830  136.9410 N   0  0  0  0  0  0  0  0  0  0  0  0
  180.0600  177.1490  138.3740 C   0  0  0  0  0  0  0  0  0  0  0  0
  183.3870  172.7960  135.4540 N   0  0  0  0  0  1  0  0  0  0  0  0
  182.0120  173.1690  135.5380 C   0  0  0  0  0  0  0  0  0  0  0  0
  181.1560  172.4650  134.9350 O   0  0  0  0  0  0  0  0  0  0  0  0
  180.1280  173.1990  137.9900 O   0  0  0  0  0  1  0  0  0  0  0  0
  179.0620  174.2900  136.2920 O   0  0  0  0  0  0  0  0  0  0  0  0
  180.2220  173.9400  136.9750 C   0  0  0  0  0  0  0  0  0  0  0  0
  1  2  1  0  0  0  0
  3  4  1  0  0  0  0
  4  2  1  0  0  0  0
  4  5  2  0  0  0  0
  5  8  1  0  0  0  0
  6 28  1  1  0  0  0
  6  1  1  0  0  0  0
  7  6  1  0  0  0  0
  7  3  1  0  0  0  0
  8  9  1  0  0  0  0
 10  9  1  0  0  0  0
 11 10  1  0  0  0  0
 12 11  1  0  0  0  0
 13 12  1  6  0  0  0
 13 22  1  0  0  0  0
 14 15  1  0  0  0  0
 15 19  2  0  0  0  0
 15 16  1  0  0  0  0
 17 19  1  0  0  0  0
 18 20  1  0  0  0  0
 19 13  1  0  0  0  0
 20 17  2  0  0  0  0
 21 20  1  0  0  0  0
 21 14  2  0  0  0  0
 22 25  1  0  0  0  0
 23 24  2  0  0  0  0
 23 27  1  0  0  0  0
 25 23  1  0  0  0  0
 27 26  2  0  0  0  0
 29 28  1  1  0  0  0
 30 38  1  0  0  0  0
 31 37  1  0  0  0  0
 32 31  1  0  0  0  0
 33 38  1  0  0  0  0
 34 33  1  0  0  0  0
 34 36  1  0  0  0  0
 36 41  1  6  0  0  0
 36 45  1  0  0  0  0
 36 32  1  0  0  0  0
 37 29  1  0  0  0  0
 38 39  1  0  0  0  0
 39 35  2  0  0  0  0
 39 29  1  0  0  0  0
 40 41  1  0  0  0  0
 42 41  2  0  0  0  0
 44 45  2  0  0  0  0
 45 43  1  0  0  0  0
M  END
>  <MODEL>
8

>  <REMARK>
 VINA RESULT:      -7.4      6.330     11.274
  Name = 
  14 active torsions:
  status: ('A' for Active; 'I' for Inactive)
    1  A    between atoms: C_1  and  O_40
    2  A    between atoms: C_2  and  C_18
    3  A    between atoms: C_2  and  N_37
    4  A    between atoms: C_5  and  C_25
    5  A    between atoms: C_5  and  C_35
    6  A    between atoms: C_7  and  C_26
    7  A    between atoms: C_11  and  C_44
    8  A    between atoms: C_18  and  C_23
    9  A    between atoms: C_18  and  C_32
   10  A    between atoms: C_23  and  N_43
   11  A    between atoms: C_25  and  N_43
   12  A    between atoms: C_26  and  C_39
   13  A    between atoms: C_29  and  C_35
   14  A    between atoms: O_40  and  C_41
                            x       y       z     vdW  Elec       q    Type
                         _______ _______ _______ _____ _____    ______ ____

>  <TORSDO>
F 14

$$$$
=
 OpenBabel11062417283D

 45 47  0  0  1  0  0  0  0  0999 V2000
  188.3330  175.5420  136.2070 C   0  0  0  0  0  2  0  0  0  0  0  0
  187.0640  176.3790  136.0910 C   0  0  0  0  0  2  0  0  0  0  0  0
  188.5900  178.4030  136.6280 C   0  0  0  0  0  2  0  0  0  0  0  0
  187.2790  177.6900  136.7940 C   0  0  0  0  0  0  0  0  0  0  0  0
  186.3400  178.2240  137.5830 C   0  0  0  0  0  3  0  0  0  0  0  0
  189.5770  176.2590  135.6510 C   0  0  1  0  0  3  0  0  0  0  0  0
  189.4110  177.7790  135.4960 C   0  0  0  0  0  2  0  0  0  0  0  0
  185.0030  177.5850  137.7940 C   0  0  0  0  0  2  0  0  0  0  0  0
  184.5430  177.8120  139.2210 C   0  0  0  0  0  2  0  0  0  0  0  0
  184.5510  179.2970  139.5380 C   0  0  0  0  0  2  0  0  0  0  0  0
  185.4090  179.5480  140.6850 N   0  0  0  0  0  2  0  0  0  0  0  0
  185.5630  178.2810  141.3830 C   0  0  0  0  0  2  0  0  0  0  0  0
  186.5800  178.4150  142.5060 C   0  0  1  0  0  3  0  0  0  0  0  0
  185.9280  178.2900  146.2370 C   0  0  0  0  0  3  0  0  0  0  0  0
  186.5980  178.2540  145.0130 C   0  0  0  0  0  0  0  0  0  0  0  0
  187.9300  177.9960  144.9820 F   0  0  0  0  0  0  0  0  0  0  0  0
  184.5400  178.7160  143.8920 N   0  0  0  0  0  0  0  0  0  0  0  0
  182.5410  179.0010  145.0940 F   0  0  0  0  0  0  0  0  0  0  0  0
  185.8810  178.4750  143.8320 C   0  0  0  0  0  0  0  0  0  0  0  0
  183.8720  178.7590  145.0760 C   0  0  0  0  0  0  0  0  0  0  0  0
  184.5560  178.5440  146.2720 C   0  0  0  0  0  3  0  0  0  0  0  0
  187.5700  177.2520  142.4630 C   0  0  0  0  0  2  0  0  0  0  0  0
  189.9220  177.3500  141.4800 C   0  0  0  0  0  0  0  0  0  0  0  0
  190.6350  177.5040  140.4520 O   0  0  0  0  0  0  0  0  0  0  0  0
  188.4980  177.3910  141.3470 N   0  0  0  0  0  2  0  0  0  0  0  0
  190.8820  175.9210  143.2210 C   0  0  0  0  0  2  0  0  0  0  0  0
  190.5520  177.1330  142.7910 C   0  0  0  0  0  3  0  0  0  0  0  0
  190.6790  175.9850  136.4660 O   0  0  0  0  0  0  0  0  0  0  0  0
  191.5330  175.2020  135.6820 C   0  0  1  0  0  3  0  0  0  0  0  0
  193.1370  171.8510  136.4680 O   0  0  0  0  0  1  0  0  0  0  0  0
  193.6960  176.4040  136.1920 C   0  0  0  0  0  2  0  0  0  0  0  0
  195.1040  176.0600  135.7060 C   0  0  0  0  0  2  0  0  0  0  0  0
  193.8380  173.4460  134.7900 C   0  0  0  0  0  2  0  0  0  0  0  0
  195.3020  173.5570  135.2200 C   0  0  0  0  0  2  0  0  0  0  0  0
  191.4700  173.7060  137.5540 O   0  0  0  0  0  0  0  0  0  0  0  0
  195.6780  174.7020  136.1960 C   0  0  1  0  0  0  0  0  0  0  0  0
  192.6720  176.0610  135.1280 C   0  0  0  0  0  2  0  0  0  0  0  0
  192.9780  173.0720  135.9030 N   0  0  0  0  0  0  0  0  0  0  0  0
  191.9990  173.9740  136.4410 C   0  0  0  0  0  0  0  0  0  0  0  0
  197.9750  174.1020  135.2530 N   0  0  0  0  0  1  0  0  0  0  0  0
  197.1870  174.8220  136.2000 C   0  0  0  0  0  0  0  0  0  0  0  0
  197.7650  175.6280  136.9800 O   0  0  0  0  0  0  0  0  0  0  0  0
  195.3810  173.1830  138.0470 O   0  0  0  0  0  0  0  0  0  0  0  0
  194.6630  175.3180  138.4190 O   0  0  0  0  0  1  0  0  0  0  0  0
  195.2770  174.3630  137.6170 C   0  0  0  0  0  0  0  0  0  0  0  0
  2  1  1  0  0  0  0
  2  4  1  0  0  0  0
  3  4  1  0  0  0  0
  4  5  2  0  0  0  0
  5  8  1  0  0  0  0
  6  1  1  0  0  0  0
  6 28  1  1  0  0  0
  7  6  1  0  0  0  0
  7  3  1  0  0  0  0
  8  9  1  0  0  0  0
  9 10  1  0  0  0  0
 10 11  1  0  0  0  0
 11 12  1  0  0  0  0
 13 12  1  6  0  0  0
 13 19  1  0  0  0  0
 14 21  1  0  0  0  0
 15 14  2  0  0  0  0
 16 15  1  0  0  0  0
 17 20  1  0  0  0  0
 19 17  2  0  0  0  0
 19 15  1  0  0  0  0
 20 18  1  0  0  0  0
 20 21  2  0  0  0  0
 22 13  1  0  0  0  0
 23 27  1  0  0  0  0
 24 23  2  0  0  0  0
 25 23  1  0  0  0  0
 25 22  1  0  0  0  0
 27 26  2  0  0  0  0
 29 39  1  0  0  0  0
 29 28  1  1  0  0  0
 32 31  1  0  0  0  0
 32 36  1  0  0  0  0
 33 34  1  0  0  0  0
 33 38  1  0  0  0  0
 34 36  1  0  0  0  0
 36 41  1  6  0  0  0
 36 45  1  0  0  0  0
 37 29  1  0  0  0  0
 37 31  1  0  0  0  0
 38 39  1  0  0  0  0
 38 30  1  0  0  0  0
 39 35  2  0  0  0  0
 40 41  1  0  0  0  0
 41 42  2  0  0  0  0
 45 43  2  0  0  0  0
 45 44  1  0  0  0  0
M  END
>  <MODEL>
9

>  <REMARK>
 VINA RESULT:      -7.4      2.432      4.155
  Name = 
  14 active torsions:
  status: ('A' for Active; 'I' for Inactive)
    1  A    between atoms: C_1  and  O_40
    2  A    between atoms: C_2  and  C_18
    3  A    between atoms: C_2  and  N_37
    4  A    between atoms: C_5  and  C_25
    5  A    between atoms: C_5  and  C_35
    6  A    between atoms: C_7  and  C_26
    7  A    between atoms: C_11  and  C_44
    8  A    between atoms: C_18  and  C_23
    9  A    between atoms: C_18  and  C_32
   10  A    between atoms: C_23  and  N_43
   11  A    between atoms: C_25  and  N_43
   12  A    between atoms: C_26  and  C_39
   13  A    between atoms: C_29  and  C_35
   14  A    between atoms: O_40  and  C_41
                            x       y       z     vdW  Elec       q    Type
                         _______ _______ _______ _____ _____    ______ ____

>  <TORSDO>
F 14

$$$$
