=
 OpenBabel11062415583D

 41 45  0  0  1  0  0  0  0  0999 V2000
  188.6450  178.1990  143.8990 C   0  0  2  0  0  3  0  0  0  0  0  0
  187.6950  178.0310  146.1470 C   0  0  0  0  0  0  0  0  0  0  0  0
  188.6930  177.9850  148.4000 C   0  0  0  0  0  3  0  0  0  0  0  0
  187.5900  177.4850  147.5320 C   0  0  0  0  0  2  0  0  0  0  0  0
  189.9720  177.6990  148.1670 C   0  0  0  0  0  3  0  0  0  0  0  0
  186.6400  178.7460  145.6770 F   0  0  0  0  0  0  0  0  0  0  0  0
  190.4660  176.9400  147.0040 C   0  0  0  0  0  0  0  0  0  0  0  0
  189.9330  176.9980  145.7750 C   0  0  0  0  0  3  0  0  0  0  0  0
  191.7380  176.1890  147.1670 C   0  0  0  0  0  1  0  0  0  0  0  0
  188.7270  177.7500  145.3350 C   0  0  0  0  0  0  0  0  0  0  0  0
  187.4420  177.7000  143.1490 C   0  0  0  0  0  0  0  0  0  0  0  0
  187.1130  176.5230  143.2070 O   0  0  0  0  0  0  0  0  0  0  0  0
  186.6310  178.6720  142.3410 C   0  0  0  0  0  2  0  0  0  0  0  0
  183.2680  178.9740  140.5880 N   0  0  0  0  0  0  0  0  0  0  0  0
  184.6570  178.6440  140.7310 C   0  0  0  0  0  0  0  0  0  0  0  0
  182.8170  178.2490  142.8880 C   0  0  1  0  0  3  0  0  0  0  0  0
  180.0450  178.8630  142.3640 C   0  0  0  0  0  2  0  0  0  0  0  0
  185.4010  178.5370  139.6370 C   0  0  0  0  0  2  0  0  0  0  0  0
  181.9170  178.7670  143.9810 C   0  0  0  0  0  3  0  0  0  0  0  0
  182.4120  178.8390  141.5560 C   0  0  0  0  0  0  0  0  0  0  0  0
  185.1980  178.1890  142.0690 C   0  0  2  0  0  3  0  0  0  0  0  0
  181.0410  179.1880  141.3460 N   0  0  0  0  0  2  0  0  0  0  0  0
  180.6270  179.0570  143.7400 C   0  0  0  0  0  3  0  0  0  0  0  0
  184.2650  178.5940  143.2150 C   0  0  0  0  0  2  0  0  0  0  0  0
  189.9580  178.0800  143.1250 C   0  0  0  0  0  2  0  0  0  0  0  0
  190.3400  176.3760  142.6020 S   0  0  0  0  0  0  0  0  0  0  0  0
  189.4730  176.9450  136.3970 C   0  0  2  0  0  3  0  0  0  0  0  0
  190.0870  176.7780  140.8790 C   0  0  0  0  0  0  0  0  0  0  0  0
  190.5040  176.0170  139.8860 O   0  0  0  0  0  0  0  0  0  0  0  0
  190.3720  176.1650  137.3830 C   0  0  2  0  0  3  0  0  0  0  0  0
  189.4370  177.8920  140.4680 N   0  0  0  0  0  0  0  0  0  0  0  0
  189.4030  178.4490  136.7390 C   0  0  0  0  0  2  0  0  0  0  0  0
  188.8380  178.6990  138.1470 C   0  0  0  0  0  2  0  0  0  0  0  0
  190.1290  176.6200  138.7890 C   0  0  0  0  0  0  0  0  0  0  0  0
  189.4900  177.7810  139.1310 C   0  0  0  0  0  0  0  0  0  0  0  0
  191.7740  176.3660  137.0470 N   0  0  0  0  0  2  0  0  0  0  0  0
  192.4240  174.1780  137.5550 O   0  0  0  0  0  0  0  0  0  0  0  0
  194.1550  175.5940  136.7520 C   0  0  0  0  0  1  0  0  0  0  0  0
  192.7460  175.3220  137.1390 C   0  0  0  0  0  0  0  0  0  0  0  0
  188.1880  176.3940  136.3770 O   0  0  0  0  0  0  0  0  0  0  0  0
  188.3470  175.1350  135.7980 C   0  0  0  0  0  1  0  0  0  0  0  0
  1 25  1  6  0  0  0
  1 10  1  0  0  0  0
  2  4  1  0  0  0  0
  4  3  1  0  0  0  0
  5  3  2  0  0  0  0
  6  2  1  0  0  0  0
  7  9  1  0  0  0  0
  7  5  1  0  0  0  0
  8  7  2  0  0  0  0
 10  8  1  0  0  0  0
 10  2  2  0  0  0  0
 11 12  2  0  0  0  0
 11  1  1  0  0  0  0
 13 11  1  0  0  0  0
 14 15  1  0  0  0  0
 14 20  2  0  0  0  0
 15 21  1  0  0  0  0
 16 24  1  1  0  0  0
 16 19  1  0  0  0  0
 17 23  1  0  0  0  0
 18 15  2  0  0  0  0
 20 16  1  0  0  0  0
 21 13  1  1  0  0  0
 21 24  1  0  0  0  0
 22 20  1  0  0  0  0
 22 17  1  0  0  0  0
 23 19  2  0  0  0  0
 26 25  1  0  0  0  0
 27 40  1  1  0  0  0
 27 32  1  0  0  0  0
 27 30  1  0  0  0  0
 28 26  1  0  0  0  0
 29 28  1  0  0  0  0
 30 36  1  6  0  0  0
 30 34  1  0  0  0  0
 31 28  2  0  0  0  0
 32 33  1  0  0  0  0
 33 35  1  0  0  0  0
 34 35  2  0  0  0  0
 34 29  1  0  0  0  0
 35 31  1  0  0  0  0
 36 39  1  0  0  0  0
 38 39  1  0  0  0  0
 39 37  2  0  0  0  0
 41 40  1  0  0  0  0
M  END
>  <MODEL>
1

>  <REMARK>
 VINA RESULT:      -9.5      0.000      0.000
  Name = 
  9 active torsions:
  status: ('A' for Active; 'I' for Inactive)
    1  A    between atoms: N_1  and  C_25
    2  A    between atoms: C_4  and  O_12
    3  A    between atoms: C_5  and  C_15
    4  A    between atoms: C_5  and  C_24
    5  A    between atoms: C_7  and  S_22
    6  A    between atoms: C_15  and  C_33
    7  A    between atoms: S_22  and  C_35
    8  A    between atoms: C_24  and  C_35
    9  A    between atoms: C_24  and  C_38
                            x       y       z     vdW  Elec       q    Type
                         _______ _______ _______ _____ _____    ______ ____

>  <TORSDO>
F 9

$$$$
=
 OpenBabel11062415583D

 41 45  0  0  1  0  0  0  0  0999 V2000
  186.6290  177.5950  143.0940 C   0  0  2  0  0  3  0  0  0  0  0  0
  185.1780  178.2470  144.9530 C   0  0  0  0  0  0  0  0  0  0  0  0
  185.6210  179.1820  147.1900 C   0  0  0  0  0  3  0  0  0  0  0  0
  184.7480  178.2850  146.3810 C   0  0  0  0  0  2  0  0  0  0  0  0
  186.9160  178.9380  147.3760 C   0  0  0  0  0  3  0  0  0  0  0  0
  184.2690  178.6230  144.0170 F   0  0  0  0  0  0  0  0  0  0  0  0
  187.6630  177.8280  146.7570 C   0  0  0  0  0  0  0  0  0  0  0  0
  187.4320  177.3500  145.5260 C   0  0  0  0  0  3  0  0  0  0  0  0
  188.8540  177.3160  147.4820 C   0  0  0  0  0  1  0  0  0  0  0  0
  186.3690  177.7580  144.5690 C   0  0  0  0  0  0  0  0  0  0  0  0
  187.9560  176.9780  142.7510 C   0  0  0  0  0  0  0  0  0  0  0  0
  188.1750  175.7980  142.9830 O   0  0  0  0  0  0  0  0  0  0  0  0
  189.0080  177.8270  142.0960 C   0  0  0  0  0  2  0  0  0  0  0  0
  192.5280  177.3960  140.7200 N   0  0  0  0  0  0  0  0  0  0  0  0
  191.4970  177.4380  141.7170 C   0  0  0  0  0  0  0  0  0  0  0  0
  190.9970  176.3360  139.1230 C   0  0  1  0  0  3  0  0  0  0  0  0
  193.2330  176.2320  137.3000 C   0  0  0  0  0  2  0  0  0  0  0  0
  191.8420  177.6530  142.9800 C   0  0  0  0  0  2  0  0  0  0  0  0
  190.7930  176.4720  137.6360 C   0  0  0  0  0  3  0  0  0  0  0  0
  192.3280  176.9320  139.5230 C   0  0  0  0  0  0  0  0  0  0  0  0
  190.0880  177.0070  141.3730 C   0  0  2  0  0  3  0  0  0  0  0  0
  193.4010  176.9190  138.5780 N   0  0  0  0  0  2  0  0  0  0  0  0
  191.8310  176.4280  136.7850 C   0  0  0  0  0  3  0  0  0  0  0  0
  189.8530  177.0220  139.8590 C   0  0  0  0  0  2  0  0  0  0  0  0
  186.2740  178.8210  142.2520 C   0  0  0  0  0  2  0  0  0  0  0  0
  186.4870  178.5570  140.4610 S   0  0  0  0  0  0  0  0  0  0  0  0
  180.3080  179.6930  140.1240 C   0  0  2  0  0  3  0  0  0  0  0  0
  184.7730  178.9450  140.1340 C   0  0  0  0  0  0  0  0  0  0  0  0
  183.7660  178.3780  140.7680 O   0  0  0  0  0  0  0  0  0  0  0  0
  181.2670  178.6040  140.6580 C   0  0  2  0  0  3  0  0  0  0  0  0
  184.3840  179.8600  139.2140 N   0  0  0  0  0  0  0  0  0  0  0  0
  180.6610  180.1230  138.6830 C   0  0  0  0  0  2  0  0  0  0  0  0
  182.0840  180.6970  138.5800 C   0  0  0  0  0  2  0  0  0  0  0  0
  182.6810  178.9170  140.2770 C   0  0  0  0  0  0  0  0  0  0  0  0
  183.0450  179.8150  139.3090 C   0  0  0  0  0  0  0  0  0  0  0  0
  180.8980  177.3040  140.1170 N   0  0  0  0  0  2  0  0  0  0  0  0
  179.3090  176.8370  141.7670 O   0  0  0  0  0  0  0  0  0  0  0  0
  179.5520  175.1740  140.0880 C   0  0  0  0  0  1  0  0  0  0  0  0
  179.8960  176.4780  140.7130 C   0  0  0  0  0  0  0  0  0  0  0  0
  180.3160  180.8020  140.9740 O   0  0  0  0  0  0  0  0  0  0  0  0
  179.5310  180.4240  142.0630 C   0  0  0  0  0  1  0  0  0  0  0  0
  1 25  1  6  0  0  0
  1 10  1  0  0  0  0
  2  4  1  0  0  0  0
  3  5  2  0  0  0  0
  4  3  1  0  0  0  0
  6  2  1  0  0  0  0
  7  5  1  0  0  0  0
  7  9  1  0  0  0  0
  8  7  2  0  0  0  0
 10  2  2  0  0  0  0
 10  8  1  0  0  0  0
 11 12  2  0  0  0  0
 11  1  1  0  0  0  0
 13 11  1  0  0  0  0
 14 15  1  0  0  0  0
 15 18  2  0  0  0  0
 16 19  1  6  0  0  0
 16 20  1  0  0  0  0
 16 24  1  0  0  0  0
 17 22  1  0  0  0  0
 20 14  2  0  0  0  0
 21 15  1  0  0  0  0
 21 13  1  1  0  0  0
 22 20  1  0  0  0  0
 23 17  1  0  0  0  0
 23 19  2  0  0  0  0
 24 21  1  0  0  0  0
 26 25  1  0  0  0  0
 27 30  1  0  0  0  0
 27 40  1  1  0  0  0
 28 26  1  0  0  0  0
 28 29  1  0  0  0  0
 30 36  1  6  0  0  0
 31 35  1  0  0  0  0
 31 28  2  0  0  0  0
 32 27  1  0  0  0  0
 33 32  1  0  0  0  0
 33 35  1  0  0  0  0
 34 30  1  0  0  0  0
 34 29  1  0  0  0  0
 35 34  2  0  0  0  0
 36 39  1  0  0  0  0
 38 39  1  0  0  0  0
 39 37  2  0  0  0  0
 40 41  1  0  0  0  0
M  END
>  <MODEL>
2

>  <REMARK>
 VINA RESULT:      -9.4      2.852      8.269
  Name = 
  9 active torsions:
  status: ('A' for Active; 'I' for Inactive)
    1  A    between atoms: N_1  and  C_25
    2  A    between atoms: C_4  and  O_12
    3  A    between atoms: C_5  and  C_15
    4  A    between atoms: C_5  and  C_24
    5  A    between atoms: C_7  and  S_22
    6  A    between atoms: C_15  and  C_33
    7  A    between atoms: S_22  and  C_35
    8  A    between atoms: C_24  and  C_35
    9  A    between atoms: C_24  and  C_38
                            x       y       z     vdW  Elec       q    Type
                         _______ _______ _______ _____ _____    ______ ____

>  <TORSDO>
F 9

$$$$
=
 OpenBabel11062415583D

 41 45  0  0  1  0  0  0  0  0999 V2000
  184.0380  178.1390  140.6690 C   0  0  2  0  0  3  0  0  0  0  0  0
  182.2360  177.0620  139.4130 C   0  0  0  0  0  0  0  0  0  0  0  0
  181.0390  177.6510  137.3400 C   0  0  0  0  0  3  0  0  0  0  0  0
  180.9330  177.0210  138.6860 C   0  0  0  0  0  2  0  0  0  0  0  0
  181.3210  178.9410  137.1760 C   0  0  0  0  0  3  0  0  0  0  0  0
  182.7710  175.8760  139.8010 F   0  0  0  0  0  0  0  0  0  0  0  0
  181.6400  179.8800  138.2680 C   0  0  0  0  0  0  0  0  0  0  0  0
  182.3190  179.5530  139.3760 C   0  0  0  0  0  3  0  0  0  0  0  0
  181.3310  181.3160  138.0480 C   0  0  0  0  0  1  0  0  0  0  0  0
  182.8230  178.2130  139.7810 C   0  0  0  0  0  0  0  0  0  0  0  0
  183.8300  178.6500  142.0670 C   0  0  0  0  0  0  0  0  0  0  0  0
  182.7240  178.6160  142.5880 O   0  0  0  0  0  0  0  0  0  0  0  0
  185.0080  179.1860  142.8300 C   0  0  0  0  0  2  0  0  0  0  0  0
  185.8460  178.4670  146.4700 N   0  0  0  0  0  0  0  0  0  0  0  0
  185.0070  178.6640  145.3240 C   0  0  0  0  0  0  0  0  0  0  0  0
  187.5040  177.2840  145.1030 C   0  0  1  0  0  3  0  0  0  0  0  0
  188.9910  176.8840  147.5460 C   0  0  0  0  0  2  0  0  0  0  0  0
  183.7410  179.0130  145.5150 C   0  0  0  0  0  2  0  0  0  0  0  0
  189.0120  177.2520  145.0990 C   0  0  0  0  0  3  0  0  0  0  0  0
  187.0000  177.8740  146.4010 C   0  0  0  0  0  0  0  0  0  0  0  0
  185.4840  178.2480  143.9500 C   0  0  2  0  0  3  0  0  0  0  0  0
  187.7870  177.7100  147.5840 N   0  0  0  0  0  2  0  0  0  0  0  0
  189.7070  177.0700  146.2340 C   0  0  0  0  0  3  0  0  0  0  0  0
  187.0080  178.0930  143.9120 C   0  0  0  0  0  2  0  0  0  0  0  0
  185.3300  178.6260  140.0110 C   0  0  0  0  0  2  0  0  0  0  0  0
  185.2730  178.5950  138.1900 S   0  0  0  0  0  0  0  0  0  0  0  0
  190.9070  175.8060  138.4310 C   0  0  2  0  0  3  0  0  0  0  0  0
  186.9390  177.9590  138.0830 C   0  0  0  0  0  0  0  0  0  0  0  0
  187.5630  177.3830  139.0920 O   0  0  0  0  0  0  0  0  0  0  0  0
  189.8350  176.3580  139.3990 C   0  0  2  0  0  3  0  0  0  0  0  0
  187.6810  178.0150  136.9510 N   0  0  0  0  0  0  0  0  0  0  0  0
  191.2340  176.8020  137.2970 C   0  0  0  0  0  2  0  0  0  0  0  0
  189.9990  177.1390  136.4460 C   0  0  0  0  0  2  0  0  0  0  0  0
  188.7400  177.0390  138.6380 C   0  0  0  0  0  0  0  0  0  0  0  0
  188.8320  177.4370  137.3320 C   0  0  0  0  0  0  0  0  0  0  0  0
  190.4390  177.3040  140.3260 N   0  0  0  0  0  2  0  0  0  0  0  0
  190.4100  175.8490  142.1550 O   0  0  0  0  0  0  0  0  0  0  0  0
  191.3600  177.9860  142.5710 C   0  0  0  0  0  1  0  0  0  0  0  0
  190.7150  176.9780  141.6900 C   0  0  0  0  0  0  0  0  0  0  0  0
  190.4890  174.5850  137.8950 O   0  0  0  0  0  0  0  0  0  0  0  0
  191.5940  174.1050  137.1920 C   0  0  0  0  0  1  0  0  0  0  0  0
  1 25  1  6  0  0  0
  1 11  1  0  0  0  0
  2 10  2  0  0  0  0
  2  6  1  0  0  0  0
  3  4  1  0  0  0  0
  4  2  1  0  0  0  0
  5  3  2  0  0  0  0
  5  7  1  0  0  0  0
  7  8  2  0  0  0  0
  8 10  1  0  0  0  0
  9  7  1  0  0  0  0
 10  1  1  0  0  0  0
 11 12  2  0  0  0  0
 11 13  1  0  0  0  0
 15 18  2  0  0  0  0
 15 14  1  0  0  0  0
 16 24  1  6  0  0  0
 16 20  1  0  0  0  0
 17 22  1  0  0  0  0
 19 16  1  0  0  0  0
 19 23  2  0  0  0  0
 20 14  2  0  0  0  0
 20 22  1  0  0  0  0
 21 13  1  6  0  0  0
 21 15  1  0  0  0  0
 23 17  1  0  0  0  0
 24 21  1  0  0  0  0
 26 25  1  0  0  0  0
 27 40  1  6  0  0  0
 27 30  1  0  0  0  0
 28 26  1  0  0  0  0
 28 29  1  0  0  0  0
 30 36  1  1  0  0  0
 31 35  1  0  0  0  0
 31 28  2  0  0  0  0
 32 27  1  0  0  0  0
 33 32  1  0  0  0  0
 33 35  1  0  0  0  0
 34 29  1  0  0  0  0
 34 30  1  0  0  0  0
 35 34  2  0  0  0  0
 36 39  1  0  0  0  0
 39 37  2  0  0  0  0
 39 38  1  0  0  0  0
 41 40  1  0  0  0  0
M  END
>  <MODEL>
3

>  <REMARK>
 VINA RESULT:      -9.1      3.140      7.138
  Name = 
  9 active torsions:
  status: ('A' for Active; 'I' for Inactive)
    1  A    between atoms: N_1  and  C_25
    2  A    between atoms: C_4  and  O_12
    3  A    between atoms: C_5  and  C_15
    4  A    between atoms: C_5  and  C_24
    5  A    between atoms: C_7  and  S_22
    6  A    between atoms: C_15  and  C_33
    7  A    between atoms: S_22  and  C_35
    8  A    between atoms: C_24  and  C_35
    9  A    between atoms: C_24  and  C_38
                            x       y       z     vdW  Elec       q    Type
                         _______ _______ _______ _____ _____    ______ ____

>  <TORSDO>
F 9

$$$$
=
 OpenBabel11062415583D

 41 45  0  0  1  0  0  0  0  0999 V2000
  190.7730  177.4460  140.0510 C   0  0  2  0  0  3  0  0  0  0  0  0
  192.7280  176.7140  138.7740 C   0  0  0  0  0  0  0  0  0  0  0  0
  193.0010  175.7020  136.5430 C   0  0  0  0  0  3  0  0  0  0  0  0
  193.5160  175.7600  137.9400 C   0  0  0  0  0  2  0  0  0  0  0  0
  191.7800  175.2630  136.2500 C   0  0  0  0  0  3  0  0  0  0  0  0
  193.4010  177.7420  139.3510 F   0  0  0  0  0  0  0  0  0  0  0  0
  190.7670  174.8640  137.2440 C   0  0  0  0  0  0  0  0  0  0  0  0
  190.6080  175.4440  138.4420 C   0  0  0  0  0  3  0  0  0  0  0  0
  189.7510  173.8650  136.8240 C   0  0  0  0  0  1  0  0  0  0  0  0
  191.4260  176.5260  139.0520 C   0  0  0  0  0  0  0  0  0  0  0  0
  190.9980  177.0760  141.4900 C   0  0  0  0  0  0  0  0  0  0  0  0
  192.0710  177.2990  142.0330 O   0  0  0  0  0  0  0  0  0  0  0  0
  189.8750  176.4460  142.2650 C   0  0  0  0  0  2  0  0  0  0  0  0
  188.8300  177.1150  145.8610 N   0  0  0  0  0  0  0  0  0  0  0  0
  189.7320  176.9560  144.7570 C   0  0  0  0  0  0  0  0  0  0  0  0
  187.1960  178.2380  144.4170 C   0  0  1  0  0  3  0  0  0  0  0  0
  185.5760  178.5660  146.7840 C   0  0  0  0  0  2  0  0  0  0  0  0
  191.0010  176.6570  145.0100 C   0  0  0  0  0  2  0  0  0  0  0  0
  185.6900  178.2100  144.3380 C   0  0  0  0  0  3  0  0  0  0  0  0
  187.6590  177.6620  145.7370 C   0  0  0  0  0  0  0  0  0  0  0  0
  189.3070  177.3600  143.3620 C   0  0  2  0  0  3  0  0  0  0  0  0
  186.8090  177.7890  146.8800 N   0  0  0  0  0  2  0  0  0  0  0  0
  184.9340  178.3590  145.4370 C   0  0  0  0  0  3  0  0  0  0  0  0
  187.7820  177.4540  143.2490 C   0  0  0  0  0  2  0  0  0  0  0  0
  189.3260  177.8120  139.7180 C   0  0  0  0  0  2  0  0  0  0  0  0
  189.1490  178.7120  138.1430 S   0  0  0  0  0  0  0  0  0  0  0  0
  183.2830  176.8020  136.9120 C   0  0  2  0  0  3  0  0  0  0  0  0
  187.5720  177.9430  137.8060 C   0  0  0  0  0  0  0  0  0  0  0  0
  186.4140  178.4980  138.1030 O   0  0  0  0  0  0  0  0  0  0  0  0
  184.0130  177.8200  137.8170 C   0  0  2  0  0  3  0  0  0  0  0  0
  187.4520  176.7330  137.2100 N   0  0  0  0  0  0  0  0  0  0  0  0
  183.9320  175.4020  136.9690 C   0  0  0  0  0  2  0  0  0  0  0  0
  185.4010  175.4240  136.5170 C   0  0  0  0  0  2  0  0  0  0  0  0
  185.4970  177.6590  137.7000 C   0  0  0  0  0  0  0  0  0  0  0  0
  186.1200  176.5630  137.1660 C   0  0  0  0  0  0  0  0  0  0  0  0
  183.6160  177.6290  139.2050 N   0  0  0  0  0  2  0  0  0  0  0  0
  184.0130  179.8440  139.8400 O   0  0  0  0  0  0  0  0  0  0  0  0
  183.1780  178.4280  141.5550 C   0  0  0  0  0  1  0  0  0  0  0  0
  183.6230  178.6910  140.1610 C   0  0  0  0  0  0  0  0  0  0  0  0
  183.2510  177.2650  135.5930 O   0  0  0  0  0  0  0  0  0  0  0  0
  182.0080  177.8820  135.4600 C   0  0  0  0  0  1  0  0  0  0  0  0
  1 25  1  6  0  0  0
  1 11  1  0  0  0  0
  2 10  2  0  0  0  0
  2  6  1  0  0  0  0
  3  4  1  0  0  0  0
  4  2  1  0  0  0  0
  5  3  2  0  0  0  0
  5  7  1  0  0  0  0
  7  8  2  0  0  0  0
  8 10  1  0  0  0  0
  9  7  1  0  0  0  0
 10  1  1  0  0  0  0
 11 12  2  0  0  0  0
 11 13  1  0  0  0  0
 15 18  2  0  0  0  0
 15 14  1  0  0  0  0
 16 24  1  6  0  0  0
 16 20  1  0  0  0  0
 17 22  1  0  0  0  0
 19 16  1  0  0  0  0
 19 23  2  0  0  0  0
 20 14  2  0  0  0  0
 20 22  1  0  0  0  0
 21 13  1  6  0  0  0
 21 15  1  0  0  0  0
 23 17  1  0  0  0  0
 24 21  1  0  0  0  0
 26 25  1  0  0  0  0
 27 40  1  6  0  0  0
 27 32  1  0  0  0  0
 27 30  1  0  0  0  0
 28 29  1  0  0  0  0
 28 26  1  0  0  0  0
 30 36  1  1  0  0  0
 31 28  2  0  0  0  0
 33 32  1  0  0  0  0
 33 35  1  0  0  0  0
 34 30  1  0  0  0  0
 34 29  1  0  0  0  0
 35 31  1  0  0  0  0
 35 34  2  0  0  0  0
 36 39  1  0  0  0  0
 37 39  2  0  0  0  0
 39 38  1  0  0  0  0
 41 40  1  0  0  0  0
M  END
>  <MODEL>
4

>  <REMARK>
 VINA RESULT:      -9.1      3.233      7.377
  Name = 
  9 active torsions:
  status: ('A' for Active; 'I' for Inactive)
    1  A    between atoms: N_1  and  C_25
    2  A    between atoms: C_4  and  O_12
    3  A    between atoms: C_5  and  C_15
    4  A    between atoms: C_5  and  C_24
    5  A    between atoms: C_7  and  S_22
    6  A    between atoms: C_15  and  C_33
    7  A    between atoms: S_22  and  C_35
    8  A    between atoms: C_24  and  C_35
    9  A    between atoms: C_24  and  C_38
                            x       y       z     vdW  Elec       q    Type
                         _______ _______ _______ _____ _____    ______ ____

>  <TORSDO>
F 9

$$$$
=
 OpenBabel11062415583D

 41 45  0  0  1  0  0  0  0  0999 V2000
  188.7530  177.8560  143.6980 C   0  0  2  0  0  3  0  0  0  0  0  0
  190.9200  177.0860  144.5330 C   0  0  0  0  0  0  0  0  0  0  0  0
  191.6630  176.1680  146.6960 C   0  0  0  0  0  3  0  0  0  0  0  0
  192.0350  177.0050  145.5210 C   0  0  0  0  0  2  0  0  0  0  0  0
  190.6800  176.5030  147.5290 C   0  0  0  0  0  3  0  0  0  0  0  0
  191.1710  176.6520  143.2710 F   0  0  0  0  0  0  0  0  0  0  0  0
  189.7950  177.6700  147.3610 C   0  0  0  0  0  0  0  0  0  0  0  0
  189.3730  178.1400  146.1790 C   0  0  0  0  0  3  0  0  0  0  0  0
  189.2020  178.2620  148.5880 C   0  0  0  0  0  1  0  0  0  0  0  0
  189.7410  177.6630  144.8190 C   0  0  0  0  0  0  0  0  0  0  0  0
  187.5860  176.9090  143.7140 C   0  0  0  0  0  0  0  0  0  0  0  0
  187.5530  175.9450  142.9630 O   0  0  0  0  0  0  0  0  0  0  0  0
  186.4650  177.1490  144.6850 C   0  0  0  0  0  2  0  0  0  0  0  0
  183.0820  178.8830  144.8100 N   0  0  0  0  0  0  0  0  0  0  0  0
  184.4070  178.5420  145.2420 C   0  0  0  0  0  0  0  0  0  0  0  0
  183.8050  178.8840  142.4650 C   0  0  1  0  0  3  0  0  0  0  0  0
  181.1110  179.6870  141.8060 C   0  0  0  0  0  2  0  0  0  0  0  0
  184.7200  178.7050  146.5210 C   0  0  0  0  0  2  0  0  0  0  0  0
  183.1540  178.4390  141.1800 C   0  0  0  0  0  3  0  0  0  0  0  0
  182.7660  179.0140  143.5570 C   0  0  0  0  0  0  0  0  0  0  0  0
  185.4860  178.2390  144.2260 C   0  0  2  0  0  3  0  0  0  0  0  0
  181.4250  179.3560  143.1940 N   0  0  0  0  0  2  0  0  0  0  0  0
  181.9000  178.8080  140.8720 C   0  0  0  0  0  3  0  0  0  0  0  0
  184.8840  177.8840  142.8620 C   0  0  0  0  0  2  0  0  0  0  0  0
  189.3910  178.0390  142.3200 C   0  0  0  0  0  2  0  0  0  0  0  0
  188.2230  178.6310  141.0520 S   0  0  0  0  0  0  0  0  0  0  0  0
  190.2200  175.3060  136.1000 C   0  0  2  0  0  3  0  0  0  0  0  0
  188.9630  177.6010  139.7940 C   0  0  0  0  0  0  0  0  0  0  0  0
  188.2920  177.1060  138.7730 O   0  0  0  0  0  0  0  0  0  0  0  0
  188.8930  175.6600  136.8090 C   0  0  2  0  0  3  0  0  0  0  0  0
  190.2740  177.2600  139.7950 N   0  0  0  0  0  0  0  0  0  0  0  0
  191.3050  174.8390  137.0940 C   0  0  0  0  0  2  0  0  0  0  0  0
  191.6360  175.9160  138.1410 C   0  0  0  0  0  2  0  0  0  0  0  0
  189.1580  176.4260  138.0680 C   0  0  0  0  0  0  0  0  0  0  0  0
  190.3740  176.4970  138.6940 C   0  0  0  0  0  0  0  0  0  0  0  0
  188.1590  174.4450  137.1300 N   0  0  0  0  0  2  0  0  0  0  0  0
  186.0440  175.4000  136.8410 O   0  0  0  0  0  0  0  0  0  0  0  0
  186.0490  173.0960  137.4210 C   0  0  0  0  0  1  0  0  0  0  0  0
  186.7310  174.3790  137.1100 C   0  0  0  0  0  0  0  0  0  0  0  0
  190.6800  176.4010  135.3630 O   0  0  0  0  0  0  0  0  0  0  0  0
  189.5260  177.0220  134.8850 C   0  0  0  0  0  1  0  0  0  0  0  0
  1 25  1  6  0  0  0
  1 11  1  0  0  0  0
  1 10  1  0  0  0  0
  2 10  2  0  0  0  0
  2  4  1  0  0  0  0
  3  5  2  0  0  0  0
  4  3  1  0  0  0  0
  6  2  1  0  0  0  0
  7  5  1  0  0  0  0
  7  9  1  0  0  0  0
  8  7  2  0  0  0  0
 10  8  1  0  0  0  0
 11 13  1  0  0  0  0
 12 11  2  0  0  0  0
 14 15  1  0  0  0  0
 15 18  2  0  0  0  0
 16 19  1  6  0  0  0
 16 24  1  0  0  0  0
 16 20  1  0  0  0  0
 17 22  1  0  0  0  0
 20 14  2  0  0  0  0
 21 13  1  1  0  0  0
 21 15  1  0  0  0  0
 22 20  1  0  0  0  0
 23 19  2  0  0  0  0
 23 17  1  0  0  0  0
 24 21  1  0  0  0  0
 26 25  1  0  0  0  0
 27 40  1  1  0  0  0
 27 30  1  0  0  0  0
 27 32  1  0  0  0  0
 28 31  2  0  0  0  0
 28 26  1  0  0  0  0
 29 28  1  0  0  0  0
 30 36  1  1  0  0  0
 30 34  1  0  0  0  0
 32 33  1  0  0  0  0
 33 35  1  0  0  0  0
 34 35  2  0  0  0  0
 34 29  1  0  0  0  0
 35 31  1  0  0  0  0
 37 39  2  0  0  0  0
 39 36  1  0  0  0  0
 39 38  1  0  0  0  0
 41 40  1  0  0  0  0
M  END
>  <MODEL>
5

>  <REMARK>
 VINA RESULT:      -9.0      2.034      3.438
  Name = 
  9 active torsions:
  status: ('A' for Active; 'I' for Inactive)
    1  A    between atoms: N_1  and  C_25
    2  A    between atoms: C_4  and  O_12
    3  A    between atoms: C_5  and  C_15
    4  A    between atoms: C_5  and  C_24
    5  A    between atoms: C_7  and  S_22
    6  A    between atoms: C_15  and  C_33
    7  A    between atoms: S_22  and  C_35
    8  A    between atoms: C_24  and  C_35
    9  A    between atoms: C_24  and  C_38
                            x       y       z     vdW  Elec       q    Type
                         _______ _______ _______ _____ _____    ______ ____

>  <TORSDO>
F 9

$$$$
=
 OpenBabel11062415583D

 41 45  0  0  1  0  0  0  0  0999 V2000
  189.3210  177.3040  138.9390 C   0  0  2  0  0  3  0  0  0  0  0  0
  191.7410  177.0580  139.1990 C   0  0  0  0  0  0  0  0  0  0  0  0
  193.4950  176.0520  137.7880 C   0  0  0  0  0  3  0  0  0  0  0  0
  193.0320  176.3090  139.1810 C   0  0  0  0  0  2  0  0  0  0  0  0
  192.8090  175.2910  136.9380 C   0  0  0  0  0  3  0  0  0  0  0  0
  191.7220  178.2530  139.8430 F   0  0  0  0  0  0  0  0  0  0  0  0
  191.4950  174.6850  137.2200 C   0  0  0  0  0  0  0  0  0  0  0  0
  190.5380  175.2580  137.9640 C   0  0  0  0  0  3  0  0  0  0  0  0
  191.1490  173.4340  136.4980 C   0  0  0  0  0  1  0  0  0  0  0  0
  190.6020  176.5450  138.7060 C   0  0  0  0  0  0  0  0  0  0  0  0
  189.0730  177.6980  140.3690 C   0  0  0  0  0  0  0  0  0  0  0  0
  188.5770  178.7820  140.6420 O   0  0  0  0  0  0  0  0  0  0  0  0
  189.4220  176.7300  141.4630 C   0  0  0  0  0  2  0  0  0  0  0  0
  190.9500  176.7920  144.9460 N   0  0  0  0  0  0  0  0  0  0  0  0
  190.9200  176.9030  143.5160 C   0  0  0  0  0  0  0  0  0  0  0  0
  188.7360  177.8370  145.1140 C   0  0  1  0  0  3  0  0  0  0  0  0
  189.0390  177.6340  147.9780 C   0  0  0  0  0  2  0  0  0  0  0  0
  192.0550  176.7610  142.8430 C   0  0  0  0  0  2  0  0  0  0  0  0
  187.5440  177.6020  146.0050 C   0  0  0  0  0  3  0  0  0  0  0  0
  189.9640  177.1750  145.6990 C   0  0  0  0  0  0  0  0  0  0  0  0
  189.6780  177.4090  142.8170 C   0  0  2  0  0  3  0  0  0  0  0  0
  190.0590  177.0360  147.1200 N   0  0  0  0  0  2  0  0  0  0  0  0
  187.6810  177.5030  147.3380 C   0  0  0  0  0  3  0  0  0  0  0  0
  188.4440  177.2960  143.7190 C   0  0  0  0  0  2  0  0  0  0  0  0
  188.1000  176.7150  138.2320 C   0  0  0  0  0  2  0  0  0  0  0  0
  187.5770  177.6700  136.7710 S   0  0  0  0  0  0  0  0  0  0  0  0
  182.1460  179.3270  139.4820 C   0  0  2  0  0  3  0  0  0  0  0  0
  185.9440  177.9340  137.4480 C   0  0  0  0  0  0  0  0  0  0  0  0
  185.7150  178.6310  138.5440 O   0  0  0  0  0  0  0  0  0  0  0  0
  183.6510  179.2600  139.8290 C   0  0  2  0  0  3  0  0  0  0  0  0
  184.8180  177.4440  136.8760 N   0  0  0  0  0  0  0  0  0  0  0  0
  181.6430  178.0230  138.8240 C   0  0  0  0  0  2  0  0  0  0  0  0
  182.3860  177.7080  137.5160 C   0  0  0  0  0  2  0  0  0  0  0  0
  184.4200  178.6180  138.7150 C   0  0  0  0  0  0  0  0  0  0  0  0
  183.8590  177.8780  137.7100 C   0  0  0  0  0  0  0  0  0  0  0  0
  183.8490  178.4980  141.0530 N   0  0  0  0  0  2  0  0  0  0  0  0
  185.6810  179.7530  141.7840 O   0  0  0  0  0  0  0  0  0  0  0  0
  184.9990  178.0050  143.2410 C   0  0  0  0  0  1  0  0  0  0  0  0
  184.8750  178.8100  141.9980 C   0  0  0  0  0  0  0  0  0  0  0  0
  181.8920  180.4180  138.6460 O   0  0  0  0  0  0  0  0  0  0  0  0
  180.5660  180.7660  138.9050 C   0  0  0  0  0  1  0  0  0  0  0  0
  1 25  1  1  0  0  0
  1 11  1  0  0  0  0
  2  6  1  0  0  0  0
  3  4  1  0  0  0  0
  4  2  1  0  0  0  0
  5  7  1  0  0  0  0
  5  3  2  0  0  0  0
  7  8  2  0  0  0  0
  8 10  1  0  0  0  0
  9  7  1  0  0  0  0
 10  1  1  0  0  0  0
 10  2  2  0  0  0  0
 11 12  2  0  0  0  0
 11 13  1  0  0  0  0
 14 20  2  0  0  0  0
 15 14  1  0  0  0  0
 16 24  1  6  0  0  0
 16 20  1  0  0  0  0
 16 19  1  0  0  0  0
 18 15  2  0  0  0  0
 19 23  2  0  0  0  0
 20 22  1  0  0  0  0
 21 13  1  6  0  0  0
 21 15  1  0  0  0  0
 21 24  1  0  0  0  0
 22 17  1  0  0  0  0
 23 17  1  0  0  0  0
 26 28  1  0  0  0  0
 26 25  1  0  0  0  0
 27 40  1  6  0  0  0
 27 30  1  0  0  0  0
 28 29  1  0  0  0  0
 29 34  1  0  0  0  0
 30 36  1  1  0  0  0
 31 28  2  0  0  0  0
 31 35  1  0  0  0  0
 32 27  1  0  0  0  0
 33 35  1  0  0  0  0
 33 32  1  0  0  0  0
 34 30  1  0  0  0  0
 35 34  2  0  0  0  0
 36 39  1  0  0  0  0
 37 39  2  0  0  0  0
 39 38  1  0  0  0  0
 40 41  1  0  0  0  0
M  END
>  <MODEL>
6

>  <REMARK>
 VINA RESULT:      -8.7      3.089      8.018
  Name = 
  9 active torsions:
  status: ('A' for Active; 'I' for Inactive)
    1  A    between atoms: N_1  and  C_25
    2  A    between atoms: C_4  and  O_12
    3  A    between atoms: C_5  and  C_15
    4  A    between atoms: C_5  and  C_24
    5  A    between atoms: C_7  and  S_22
    6  A    between atoms: C_15  and  C_33
    7  A    between atoms: S_22  and  C_35
    8  A    between atoms: C_24  and  C_35
    9  A    between atoms: C_24  and  C_38
                            x       y       z     vdW  Elec       q    Type
                         _______ _______ _______ _____ _____    ______ ____

>  <TORSDO>
F 9

$$$$
=
 OpenBabel11062415583D

 41 45  0  0  1  0  0  0  0  0999 V2000
  189.0580  178.0250  141.9360 C   0  0  2  0  0  3  0  0  0  0  0  0
  191.0010  178.1650  143.4160 C   0  0  0  0  0  0  0  0  0  0  0  0
  191.5340  177.1500  145.5990 C   0  0  0  0  0  3  0  0  0  0  0  0
  191.6890  178.3490  144.7280 C   0  0  0  0  0  2  0  0  0  0  0  0
  190.3490  176.7440  146.0490 C   0  0  0  0  0  3  0  0  0  0  0  0
  191.7590  178.2630  142.2950 F   0  0  0  0  0  0  0  0  0  0  0  0
  189.0560  177.3560  145.6900 C   0  0  0  0  0  0  0  0  0  0  0  0
  188.7690  177.8760  144.4890 C   0  0  0  0  0  3  0  0  0  0  0  0
  187.9480  177.2390  146.6730 C   0  0  0  0  0  1  0  0  0  0  0  0
  189.6690  178.0190  143.3130 C   0  0  0  0  0  0  0  0  0  0  0  0
  187.6390  178.5180  141.8780 C   0  0  0  0  0  0  0  0  0  0  0  0
  187.3090  179.3800  141.0760 O   0  0  0  0  0  0  0  0  0  0  0  0
  186.6200  177.9200  142.8060 C   0  0  0  0  0  2  0  0  0  0  0  0
  183.2470  178.7200  144.3720 N   0  0  0  0  0  0  0  0  0  0  0  0
  184.6740  178.7420  144.2300 C   0  0  0  0  0  0  0  0  0  0  0  0
  182.9620  178.8620  141.9390 C   0  0  1  0  0  3  0  0  0  0  0  0
  180.1200  178.9270  142.4400 C   0  0  0  0  0  2  0  0  0  0  0  0
  185.4160  179.0060  145.2990 C   0  0  0  0  0  2  0  0  0  0  0  0
  181.9890  178.2390  140.9710 C   0  0  0  0  0  3  0  0  0  0  0  0
  182.4410  178.7400  143.3540 C   0  0  0  0  0  0  0  0  0  0  0  0
  185.3040  178.7100  142.8540 C   0  0  2  0  0  3  0  0  0  0  0  0
  181.0270  178.7160  143.5660 N   0  0  0  0  0  2  0  0  0  0  0  0
  180.6660  178.2640  141.2030 C   0  0  0  0  0  3  0  0  0  0  0  0
  184.3200  178.1850  141.8030 C   0  0  0  0  0  2  0  0  0  0  0  0
  189.3110  176.7520  141.1280 C   0  0  0  0  0  2  0  0  0  0  0  0
  190.4620  176.9930  139.7360 S   0  0  0  0  0  0  0  0  0  0  0  0
  185.3100  176.5940  136.1480 C   0  0  2  0  0  3  0  0  0  0  0  0
  189.1270  176.9990  138.5480 C   0  0  0  0  0  0  0  0  0  0  0  0
  188.1830  176.0800  138.5100 O   0  0  0  0  0  0  0  0  0  0  0  0
  186.1610  175.6930  137.0720 C   0  0  2  0  0  3  0  0  0  0  0  0
  188.9840  177.9580  137.6020 N   0  0  0  0  0  0  0  0  0  0  0  0
  186.1790  177.3870  135.1480 C   0  0  0  0  0  2  0  0  0  0  0  0
  187.1870  178.3070  135.8560 C   0  0  0  0  0  2  0  0  0  0  0  0
  187.3860  176.4210  137.5320 C   0  0  0  0  0  0  0  0  0  0  0  0
  187.8760  177.5610  136.9540 C   0  0  0  0  0  0  0  0  0  0  0  0
  186.5560  174.4830  136.3650 N   0  0  0  0  0  2  0  0  0  0  0  0
  185.6950  173.0170  137.9700 O   0  0  0  0  0  0  0  0  0  0  0  0
  186.6840  171.9830  136.0730 C   0  0  0  0  0  1  0  0  0  0  0  0
  186.2750  173.1730  136.8640 C   0  0  0  0  0  0  0  0  0  0  0  0
  184.5320  177.4690  136.9100 O   0  0  0  0  0  0  0  0  0  0  0  0
  183.7610  176.6420  137.7280 C   0  0  0  0  0  1  0  0  0  0  0  0
  1 25  1  1  0  0  0
  1 10  1  0  0  0  0
  2  4  1  0  0  0  0
  3  5  2  0  0  0  0
  4  3  1  0  0  0  0
  6  2  1  0  0  0  0
  7  5  1  0  0  0  0
  7  9  1  0  0  0  0
  8  7  2  0  0  0  0
 10  2  2  0  0  0  0
 10  8  1  0  0  0  0
 11  1  1  0  0  0  0
 11 13  1  0  0  0  0
 12 11  2  0  0  0  0
 15 14  1  0  0  0  0
 15 18  2  0  0  0  0
 16 19  1  6  0  0  0
 16 20  1  0  0  0  0
 17 22  1  0  0  0  0
 19 23  2  0  0  0  0
 20 22  1  0  0  0  0
 20 14  2  0  0  0  0
 21 13  1  1  0  0  0
 21 15  1  0  0  0  0
 23 17  1  0  0  0  0
 24 16  1  0  0  0  0
 24 21  1  0  0  0  0
 26 25  1  0  0  0  0
 27 40  1  1  0  0  0
 27 30  1  0  0  0  0
 28 26  1  0  0  0  0
 29 28  1  0  0  0  0
 30 36  1  6  0  0  0
 30 34  1  0  0  0  0
 31 28  2  0  0  0  0
 32 33  1  0  0  0  0
 32 27  1  0  0  0  0
 33 35  1  0  0  0  0
 34 29  1  0  0  0  0
 35 34  2  0  0  0  0
 35 31  1  0  0  0  0
 36 39  1  0  0  0  0
 38 39  1  0  0  0  0
 39 37  2  0  0  0  0
 40 41  1  0  0  0  0
M  END
>  <MODEL>
7

>  <REMARK>
 VINA RESULT:      -8.7      2.534      3.784
  Name = 
  9 active torsions:
  status: ('A' for Active; 'I' for Inactive)
    1  A    between atoms: N_1  and  C_25
    2  A    between atoms: C_4  and  O_12
    3  A    between atoms: C_5  and  C_15
    4  A    between atoms: C_5  and  C_24
    5  A    between atoms: C_7  and  S_22
    6  A    between atoms: C_15  and  C_33
    7  A    between atoms: S_22  and  C_35
    8  A    between atoms: C_24  and  C_35
    9  A    between atoms: C_24  and  C_38
                            x       y       z     vdW  Elec       q    Type
                         _______ _______ _______ _____ _____    ______ ____

>  <TORSDO>
F 9

$$$$
=
 OpenBabel11062415583D

 41 45  0  0  1  0  0  0  0  0999 V2000
  183.9770  178.5780  139.2220 C   0  0  2  0  0  3  0  0  0  0  0  0
  183.9880  176.5610  137.8380 C   0  0  0  0  0  0  0  0  0  0  0  0
  185.7940  175.2220  136.8250 C   0  0  0  0  0  3  0  0  0  0  0  0
  184.4000  175.7260  136.6710 C   0  0  0  0  0  2  0  0  0  0  0  0
  186.8460  176.0350  136.8720 C   0  0  0  0  0  3  0  0  0  0  0  0
  182.8960  176.1610  138.5370 F   0  0  0  0  0  0  0  0  0  0  0  0
  186.7740  177.5080  136.8620 C   0  0  0  0  0  0  0  0  0  0  0  0
  185.8020  178.2250  137.4440 C   0  0  0  0  0  3  0  0  0  0  0  0
  187.9400  178.2460  136.3130 C   0  0  0  0  0  1  0  0  0  0  0  0
  184.5860  177.7260  138.1400 C   0  0  0  0  0  0  0  0  0  0  0  0
  183.0740  179.6740  138.7300 C   0  0  0  0  0  0  0  0  0  0  0  0
  183.4250  180.8440  138.7790 O   0  0  0  0  0  0  0  0  0  0  0  0
  181.7350  179.3110  138.1510 C   0  0  0  0  0  2  0  0  0  0  0  0
  179.7500  181.0460  140.8930 N   0  0  0  0  0  0  0  0  0  0  0  0
  180.1680  180.7490  139.5530 C   0  0  0  0  0  0  0  0  0  0  0  0
  179.9120  178.6770  141.5120 C   0  0  1  0  0  3  0  0  0  0  0  0
  178.9430  179.4600  144.1160 C   0  0  0  0  0  2  0  0  0  0  0  0
  179.9700  181.6590  138.6090 C   0  0  0  0  0  2  0  0  0  0  0  0
  180.3660  177.9590  142.7570 C   0  0  0  0  0  3  0  0  0  0  0  0
  179.6540  180.1360  141.8150 C   0  0  0  0  0  0  0  0  0  0  0  0
  180.5970  179.3460  139.1820 C   0  0  2  0  0  3  0  0  0  0  0  0
  179.2310  180.5010  143.1320 N   0  0  0  0  0  2  0  0  0  0  0  0
  179.9200  178.3230  143.9710 C   0  0  0  0  0  3  0  0  0  0  0  0
  180.9700  178.5300  140.4240 C   0  0  0  0  0  2  0  0  0  0  0  0
  184.9600  179.0180  140.3070 C   0  0  0  0  0  2  0  0  0  0  0  0
  184.4030  178.6220  141.9970 S   0  0  0  0  0  0  0  0  0  0  0  0
  190.5020  177.8790  143.3490 C   0  0  2  0  0  3  0  0  0  0  0  0
  186.0640  178.2250  142.5220 C   0  0  0  0  0  0  0  0  0  0  0  0
  187.1360  178.4770  141.7960 O   0  0  0  0  0  0  0  0  0  0  0  0
  189.6010  178.1190  142.1160 C   0  0  2  0  0  3  0  0  0  0  0  0
  186.3440  177.6440  143.7130 N   0  0  0  0  0  0  0  0  0  0  0  0
  189.9660  176.7450  144.2500 C   0  0  0  0  0  2  0  0  0  0  0  0
  188.5560  177.0440  144.7830 C   0  0  0  0  0  2  0  0  0  0  0  0
  188.1550  178.0660  142.5030 C   0  0  0  0  0  0  0  0  0  0  0  0
  187.6820  177.5370  143.6740 C   0  0  0  0  0  0  0  0  0  0  0  0
  189.8640  177.1090  141.1010 N   0  0  0  0  0  2  0  0  0  0  0  0
  189.5080  178.5420  139.2880 O   0  0  0  0  0  0  0  0  0  0  0  0
  190.1260  176.3190  138.7220 C   0  0  0  0  0  1  0  0  0  0  0  0
  189.8180  177.3940  139.7010 C   0  0  0  0  0  0  0  0  0  0  0  0
  190.6330  179.0590  144.0870 O   0  0  0  0  0  0  0  0  0  0  0  0
  192.0000  179.1710  144.3420 C   0  0  0  0  0  1  0  0  0  0  0  0
  1 25  1  6  0  0  0
  2 10  2  0  0  0  0
  2  6  1  0  0  0  0
  3  5  2  0  0  0  0
  4  3  1  0  0  0  0
  4  2  1  0  0  0  0
  7  5  1  0  0  0  0
  7  8  2  0  0  0  0
  8 10  1  0  0  0  0
  9  7  1  0  0  0  0
 10  1  1  0  0  0  0
 11 12  2  0  0  0  0
 11  1  1  0  0  0  0
 13 11  1  0  0  0  0
 14 20  2  0  0  0  0
 15 14  1  0  0  0  0
 16 24  1  6  0  0  0
 16 20  1  0  0  0  0
 16 19  1  0  0  0  0
 18 15  2  0  0  0  0
 19 23  2  0  0  0  0
 20 22  1  0  0  0  0
 21 13  1  6  0  0  0
 21 15  1  0  0  0  0
 21 24  1  0  0  0  0
 22 17  1  0  0  0  0
 23 17  1  0  0  0  0
 25 26  1  0  0  0  0
 26 28  1  0  0  0  0
 27 40  1  1  0  0  0
 27 32  1  0  0  0  0
 28 31  2  0  0  0  0
 29 34  1  0  0  0  0
 29 28  1  0  0  0  0
 30 36  1  6  0  0  0
 30 34  1  0  0  0  0
 30 27  1  0  0  0  0
 32 33  1  0  0  0  0
 34 35  2  0  0  0  0
 35 31  1  0  0  0  0
 35 33  1  0  0  0  0
 37 39  2  0  0  0  0
 38 39  1  0  0  0  0
 39 36  1  0  0  0  0
 40 41  1  0  0  0  0
M  END
>  <MODEL>
8

>  <REMARK>
 VINA RESULT:      -8.6      3.026      6.931
  Name = 
  9 active torsions:
  status: ('A' for Active; 'I' for Inactive)
    1  A    between atoms: N_1  and  C_25
    2  A    between atoms: C_4  and  O_12
    3  A    between atoms: C_5  and  C_15
    4  A    between atoms: C_5  and  C_24
    5  A    between atoms: C_7  and  S_22
    6  A    between atoms: C_15  and  C_33
    7  A    between atoms: S_22  and  C_35
    8  A    between atoms: C_24  and  C_35
    9  A    between atoms: C_24  and  C_38
                            x       y       z     vdW  Elec       q    Type
                         _______ _______ _______ _____ _____    ______ ____

>  <TORSDO>
F 9

$$$$
=
 OpenBabel11062415583D

 41 45  0  0  1  0  0  0  0  0999 V2000
  182.9460  178.0170  140.0190 C   0  0  2  0  0  3  0  0  0  0  0  0
  182.5950  175.8630  138.9130 C   0  0  0  0  0  0  0  0  0  0  0  0
  184.0640  174.3840  137.5970 C   0  0  0  0  0  3  0  0  0  0  0  0
  182.6770  174.8990  137.7760 C   0  0  0  0  0  2  0  0  0  0  0  0
  185.0820  175.1750  137.2650 C   0  0  0  0  0  3  0  0  0  0  0  0
  181.7390  175.5640  139.9230 F   0  0  0  0  0  0  0  0  0  0  0  0
  184.9980  176.6390  137.1150 C   0  0  0  0  0  0  0  0  0  0  0  0
  184.2170  177.4350  137.8590 C   0  0  0  0  0  3  0  0  0  0  0  0
  185.9620  177.2890  136.1910 C   0  0  0  0  0  1  0  0  0  0  0  0
  183.2430  177.0400  138.9110 C   0  0  0  0  0  0  0  0  0  0  0  0
  181.9110  179.0540  139.6860 C   0  0  0  0  0  0  0  0  0  0  0  0
  180.7920  179.0010  140.1760 O   0  0  0  0  0  0  0  0  0  0  0  0
  182.2760  180.1770  138.7570 C   0  0  0  0  0  2  0  0  0  0  0  0
  180.5390  181.1090  135.5040 N   0  0  0  0  0  0  0  0  0  0  0  0
  181.0180  180.2440  136.5430 C   0  0  0  0  0  0  0  0  0  0  0  0
  179.9520  182.8300  137.1510 C   0  0  1  0  0  3  0  0  0  0  0  0
  178.9310  184.3710  134.9340 C   0  0  0  0  0  2  0  0  0  0  0  0
  181.2000  178.9590  136.2670 C   0  0  0  0  0  2  0  0  0  0  0  0
  180.0300  184.3350  137.1510 C   0  0  0  0  0  3  0  0  0  0  0  0
  180.0800  182.3010  135.7400 C   0  0  0  0  0  0  0  0  0  0  0  0
  181.0770  180.7320  137.9740 C   0  0  2  0  0  3  0  0  0  0  0  0
  179.6180  183.1120  134.6560 N   0  0  0  0  0  2  0  0  0  0  0  0
  179.5600  185.0560  136.1190 C   0  0  0  0  0  3  0  0  0  0  0  0
  181.0500  182.2630  138.0420 C   0  0  0  0  0  2  0  0  0  0  0  0
  184.1870  178.5730  140.7180 C   0  0  0  0  0  2  0  0  0  0  0  0
  184.0440  178.6040  142.5350 S   0  0  0  0  0  0  0  0  0  0  0  0
  190.2800  177.8080  142.7920 C   0  0  2  0  0  3  0  0  0  0  0  0
  185.7680  178.1800  142.7430 C   0  0  0  0  0  0  0  0  0  0  0  0
  186.7050  178.5020  141.8730 O   0  0  0  0  0  0  0  0  0  0  0  0
  189.1880  178.1410  141.7500 C   0  0  2  0  0  3  0  0  0  0  0  0
  186.2390  177.5040  143.8170 N   0  0  0  0  0  0  0  0  0  0  0  0
  189.8950  176.5970  143.6700 C   0  0  0  0  0  2  0  0  0  0  0  0
  188.5940  176.8370  144.4530 C   0  0  0  0  0  2  0  0  0  0  0  0
  187.8260  178.0430  142.3650 C   0  0  0  0  0  0  0  0  0  0  0  0
  187.5520  177.4130  143.5490 C   0  0  0  0  0  0  0  0  0  0  0  0
  189.2750  177.2230  140.6230 N   0  0  0  0  0  2  0  0  0  0  0  0
  188.6470  178.8040  139.0190 O   0  0  0  0  0  0  0  0  0  0  0  0
  189.1440  176.6390  138.1750 C   0  0  0  0  0  1  0  0  0  0  0  0
  189.0070  177.6260  139.2790 C   0  0  0  0  0  0  0  0  0  0  0  0
  190.5370  178.9230  143.5940 O   0  0  0  0  0  0  0  0  0  0  0  0
  191.7820  178.6700  144.1710 C   0  0  0  0  0  1  0  0  0  0  0  0
  1 25  1  6  0  0  0
  2  6  1  0  0  0  0
  3  4  1  0  0  0  0
  4  2  1  0  0  0  0
  5  3  2  0  0  0  0
  7  5  1  0  0  0  0
  7  8  2  0  0  0  0
  8 10  1  0  0  0  0
  9  7  1  0  0  0  0
 10  2  2  0  0  0  0
 10  1  1  0  0  0  0
 11  1  1  0  0  0  0
 11 12  2  0  0  0  0
 13 11  1  0  0  0  0
 14 20  2  0  0  0  0
 14 15  1  0  0  0  0
 15 21  1  0  0  0  0
 16 19  1  6  0  0  0
 16 24  1  0  0  0  0
 17 23  1  0  0  0  0
 18 15  2  0  0  0  0
 20 16  1  0  0  0  0
 21 24  1  0  0  0  0
 21 13  1  6  0  0  0
 22 17  1  0  0  0  0
 22 20  1  0  0  0  0
 23 19  2  0  0  0  0
 25 26  1  0  0  0  0
 26 28  1  0  0  0  0
 27 40  1  1  0  0  0
 27 32  1  0  0  0  0
 28 31  2  0  0  0  0
 29 34  1  0  0  0  0
 29 28  1  0  0  0  0
 30 36  1  6  0  0  0
 30 34  1  0  0  0  0
 30 27  1  0  0  0  0
 32 33  1  0  0  0  0
 34 35  2  0  0  0  0
 35 31  1  0  0  0  0
 35 33  1  0  0  0  0
 37 39  2  0  0  0  0
 38 39  1  0  0  0  0
 39 36  1  0  0  0  0
 40 41  1  0  0  0  0
M  END
>  <MODEL>
9

>  <REMARK>
 VINA RESULT:      -8.5      4.628      7.755
  Name = 
  9 active torsions:
  status: ('A' for Active; 'I' for Inactive)
    1  A    between atoms: N_1  and  C_25
    2  A    between atoms: C_4  and  O_12
    3  A    between atoms: C_5  and  C_15
    4  A    between atoms: C_5  and  C_24
    5  A    between atoms: C_7  and  S_22
    6  A    between atoms: C_15  and  C_33
    7  A    between atoms: S_22  and  C_35
    8  A    between atoms: C_24  and  C_35
    9  A    between atoms: C_24  and  C_38
                            x       y       z     vdW  Elec       q    Type
                         _______ _______ _______ _____ _____    ______ ____

>  <TORSDO>
F 9

$$$$
