=
 OpenBabel11062414453D

 27 28  0  0  1  0  0  0  0  0999 V2000
  190.1530  176.4500  147.7430 O   0  0  0  0  0  1  0  0  0  0  0  0
  189.4860  176.9310  146.6230 C   0  0  0  0  0  0  0  0  0  0  0  0
  190.1530  177.1080  145.3860 C   0  0  0  0  0  0  0  0  0  0  0  0
  188.0560  177.8950  144.4290 C   0  0  0  0  0  3  0  0  0  0  0  0
  188.1310  177.2370  146.7440 C   0  0  0  0  0  3  0  0  0  0  0  0
  189.4160  177.5900  144.2670 C   0  0  0  0  0  0  0  0  0  0  0  0
  187.4190  177.7290  145.6560 C   0  0  0  0  0  0  0  0  0  0  0  0
  189.9970  177.7930  142.9120 C   0  0  0  0  0  0  0  0  0  0  0  0
  189.3690  177.2560  141.7440 N   0  0  0  0  0  2  0  0  0  0  0  0
  191.0530  178.4730  142.7870 O   0  0  0  0  0  0  0  0  0  0  0  0
  190.4390  176.2920  139.8620 N   0  0  0  0  0  1  0  0  0  0  0  0
  189.8580  177.5080  140.3970 C   0  0  1  0  0  3  0  0  0  0  0  0
  187.9850  176.7460  138.3630 O   0  0  0  0  0  1  0  0  0  0  0  0
  187.3280  178.5140  140.1750 O   0  0  0  0  0  1  0  0  0  0  0  0
  189.0050  179.3090  138.3370 O   0  0  0  0  0  0  0  0  0  0  0  0
  188.4870  178.0400  139.3280 P   0  0  0  0  0  0  0  0  0  0  0  0
  192.0490  175.7020  144.9150 O   0  0  0  0  0  0  0  0  0  0  0  0
  191.6010  176.8250  145.2640 C   0  0  0  0  0  3  0  0  0  0  0  0
  185.9690  178.0320  145.7880 C   0  0  0  0  0  2  0  0  0  0  0  0
  185.6090  179.0580  144.8720 O   0  0  0  0  0  0  0  0  0  0  0  0
  184.8160  178.5690  142.6500 C   0  0  0  0  0  3  0  0  0  0  0  0
  181.3450  178.5110  141.1480 C   0  0  0  0  0  1  0  0  0  0  0  0
  183.7730  178.4320  141.7290 C   0  0  0  0  0  3  0  0  0  0  0  0
  182.1740  179.0150  143.4490 C   0  0  0  0  0  3  0  0  0  0  0  0
  183.2160  179.1520  144.3710 C   0  0  0  0  0  3  0  0  0  0  0  0
  184.5450  178.9290  143.9750 C   0  0  0  0  0  0  0  0  0  0  0  0
  182.4530  178.6550  142.1290 C   0  0  0  0  0  0  0  0  0  0  0  0
  2  5  1  0  0  0  0
  2  1  1  0  0  0  0
  3  2  2  0  0  0  0
  4  7  1  0  0  0  0
  6  4  2  0  0  0  0
  6  3  1  0  0  0  0
  7 19  1  0  0  0  0
  7  5  2  0  0  0  0
  8  6  1  0  0  0  0
  9  8  1  0  0  0  0
 10  8  2  0  0  0  0
 12 11  1  6  0  0  0
 12  9  1  0  0  0  0
 13 16  1  0  0  0  0
 15 16  2  0  0  0  0
 16 14  1  0  0  0  0
 16 12  1  0  0  0  0
 17 18  2  0  0  0  0
 18  3  1  0  0  0  0
 20 19  1  0  0  0  0
 21 26  1  0  0  0  0
 22 27  1  0  0  0  0
 23 27  1  0  0  0  0
 23 21  2  0  0  0  0
 24 25  1  0  0  0  0
 26 25  2  0  0  0  0
 26 20  1  0  0  0  0
 27 24  2  0  0  0  0
M  END
>  <MODEL>
1

>  <REMARK>
 VINA RESULT:      -8.6      0.000      0.000
  Name = 
  7 active torsions:
  status: ('A' for Active; 'I' for Inactive)
    1  A    between atoms: C_1  and  C_22
    2  A    between atoms: N_5  and  C_24
    3  A    between atoms: C_6  and  C_26
    4  A    between atoms: C_6  and  O_27
    5  A    between atoms: C_14  and  C_21
    6  A    between atoms: P_20  and  C_24
    7  A    between atoms: C_23  and  O_27
                            x       y       z     vdW  Elec       q    Type
                         _______ _______ _______ _____ _____    ______ ____

>  <TORSDO>
F 7

$$$$
=
 OpenBabel11062414453D

 27 28  0  0  1  0  0  0  0  0999 V2000
  187.4910  178.1940  148.2500 O   0  0  0  0  0  1  0  0  0  0  0  0
  186.9250  178.1300  146.9820 C   0  0  0  0  0  0  0  0  0  0  0  0
  187.6480  177.6210  145.8750 C   0  0  0  0  0  0  0  0  0  0  0  0
  185.6960  178.0380  144.4780 C   0  0  0  0  0  3  0  0  0  0  0  0
  185.6150  178.5830  146.8220 C   0  0  0  0  0  3  0  0  0  0  0  0
  187.0120  177.5670  144.6020 C   0  0  0  0  0  0  0  0  0  0  0  0
  185.0050  178.5500  145.5730 C   0  0  0  0  0  0  0  0  0  0  0  0
  187.6570  177.0310  143.3720 C   0  0  0  0  0  0  0  0  0  0  0  0
  188.1170  177.9000  142.3340 N   0  0  0  0  0  2  0  0  0  0  0  0
  187.8220  175.7850  143.2530 O   0  0  0  0  0  0  0  0  0  0  0  0
  188.7350  178.4080  140.1020 N   0  0  0  0  0  1  0  0  0  0  0  0
  188.8310  177.4200  141.1600 C   0  0  1  0  0  3  0  0  0  0  0  0
  191.0840  178.2830  142.7110 O   0  0  0  0  0  1  0  0  0  0  0  0
  190.7650  175.7530  142.1300 O   0  0  0  0  0  1  0  0  0  0  0  0
  191.5170  177.3050  140.1680 O   0  0  0  0  0  0  0  0  0  0  0  0
  190.5820  177.1440  141.5670 P   0  0  0  0  0  0  0  0  0  0  0  0
  190.0320  177.9400  145.8220 O   0  0  0  0  0  0  0  0  0  0  0  0
  189.0510  177.1800  146.0320 C   0  0  0  0  0  3  0  0  0  0  0  0
  183.6010  179.0140  145.4160 C   0  0  0  0  0  2  0  0  0  0  0  0
  183.4000  179.4890  144.0910 O   0  0  0  0  0  0  0  0  0  0  0  0
  181.1060  178.8060  143.8170 C   0  0  0  0  0  3  0  0  0  0  0  0
  179.1680  177.5610  140.8170 C   0  0  0  0  0  1  0  0  0  0  0  0
  180.0610  178.3320  143.0190 C   0  0  0  0  0  3  0  0  0  0  0  0
  181.5440  178.2710  141.1080 C   0  0  0  0  0  3  0  0  0  0  0  0
  182.5910  178.7450  141.9060 C   0  0  0  0  0  3  0  0  0  0  0  0
  182.3750  179.0150  143.2670 C   0  0  0  0  0  0  0  0  0  0  0  0
  180.2800  178.0650  141.6650 C   0  0  0  0  0  0  0  0  0  0  0  0
  2  1  1  0  0  0  0
  3 18  1  0  0  0  0
  3  2  2  0  0  0  0
  4  6  2  0  0  0  0
  4  7  1  0  0  0  0
  5  2  1  0  0  0  0
  6  3  1  0  0  0  0
  7  5  2  0  0  0  0
  8  6  1  0  0  0  0
  9  8  1  0  0  0  0
 10  8  2  0  0  0  0
 12 11  1  6  0  0  0
 12 16  1  0  0  0  0
 12  9  1  0  0  0  0
 15 16  2  0  0  0  0
 16 14  1  0  0  0  0
 16 13  1  0  0  0  0
 17 18  2  0  0  0  0
 19  7  1  0  0  0  0
 20 19  1  0  0  0  0
 22 27  1  0  0  0  0
 23 21  2  0  0  0  0
 24 27  2  0  0  0  0
 24 25  1  0  0  0  0
 25 26  2  0  0  0  0
 26 21  1  0  0  0  0
 26 20  1  0  0  0  0
 27 23  1  0  0  0  0
M  END
>  <MODEL>
2

>  <REMARK>
 VINA RESULT:      -8.3      2.113      3.070
  Name = 
  7 active torsions:
  status: ('A' for Active; 'I' for Inactive)
    1  A    between atoms: C_1  and  C_22
    2  A    between atoms: N_5  and  C_24
    3  A    between atoms: C_6  and  C_26
    4  A    between atoms: C_6  and  O_27
    5  A    between atoms: C_14  and  C_21
    6  A    between atoms: P_20  and  C_24
    7  A    between atoms: C_23  and  O_27
                            x       y       z     vdW  Elec       q    Type
                         _______ _______ _______ _____ _____    ______ ____

>  <TORSDO>
F 7

$$$$
=
 OpenBabel11062414453D

 27 28  0  0  1  0  0  0  0  0999 V2000
  184.4310  178.9240  146.2230 O   0  0  0  0  0  1  0  0  0  0  0  0
  184.8960  178.6040  144.9520 C   0  0  0  0  0  0  0  0  0  0  0  0
  184.1050  178.8280  143.7980 C   0  0  0  0  0  0  0  0  0  0  0  0
  185.9230  177.9330  142.4460 C   0  0  0  0  0  3  0  0  0  0  0  0
  186.1720  178.0510  144.8380 C   0  0  0  0  0  3  0  0  0  0  0  0
  184.6390  178.4940  142.5210 C   0  0  0  0  0  0  0  0  0  0  0  0
  186.6800  177.7040  143.5910 C   0  0  0  0  0  0  0  0  0  0  0  0
  183.9180  178.7060  141.2370 C   0  0  0  0  0  0  0  0  0  0  0  0
  182.7410  177.9590  140.9110 N   0  0  0  0  0  2  0  0  0  0  0  0
  184.3380  179.5780  140.4270 O   0  0  0  0  0  0  0  0  0  0  0  0
  181.8140  176.9590  138.9730 N   0  0  0  0  0  1  0  0  0  0  0  0
  181.9600  178.2010  139.7080 C   0  0  1  0  0  3  0  0  0  0  0  0
  179.4670  177.6520  141.0150 O   0  0  0  0  0  1  0  0  0  0  0  0
  180.4530  180.0750  141.0040 O   0  0  0  0  0  1  0  0  0  0  0  0
  179.4600  179.2190  138.7440 O   0  0  0  0  0  0  0  0  0  0  0  0
  180.3140  178.8340  140.1520 P   0  0  0  0  0  0  0  0  0  0  0  0
  181.7240  178.6470  144.0990 O   0  0  0  0  0  0  0  0  0  0  0  0
  182.7360  179.3750  143.9190 C   0  0  0  0  0  3  0  0  0  0  0  0
  188.0500  177.1360  143.4760 C   0  0  0  0  0  2  0  0  0  0  0  0
  188.9620  177.9360  144.2170 O   0  0  0  0  0  0  0  0  0  0  0  0
  191.0080  176.7790  144.7480 C   0  0  0  0  0  3  0  0  0  0  0  0
  192.5500  175.7250  148.0380 C   0  0  0  0  0  1  0  0  0  0  0  0
  191.8950  176.2330  145.6810 C   0  0  0  0  0  3  0  0  0  0  0  0
  190.4320  176.9250  147.4800 C   0  0  0  0  0  3  0  0  0  0  0  0
  189.5440  177.4710  146.5480 C   0  0  0  0  0  3  0  0  0  0  0  0
  189.8290  177.4000  145.1740 C   0  0  0  0  0  0  0  0  0  0  0  0
  191.6060  176.3070  147.0460 C   0  0  0  0  0  0  0  0  0  0  0  0
  2  1  1  0  0  0  0
  3 18  1  0  0  0  0
  3  2  2  0  0  0  0
  4  6  2  0  0  0  0
  4  7  1  0  0  0  0
  5  2  1  0  0  0  0
  6  3  1  0  0  0  0
  7  5  2  0  0  0  0
  8  6  1  0  0  0  0
  9  8  1  0  0  0  0
 10  8  2  0  0  0  0
 12 11  1  1  0  0  0
 12 16  1  0  0  0  0
 12  9  1  0  0  0  0
 15 16  2  0  0  0  0
 16 14  1  0  0  0  0
 16 13  1  0  0  0  0
 18 17  2  0  0  0  0
 19  7  1  0  0  0  0
 19 20  1  0  0  0  0
 20 26  1  0  0  0  0
 21 26  2  0  0  0  0
 21 23  1  0  0  0  0
 23 27  2  0  0  0  0
 25 24  2  0  0  0  0
 26 25  1  0  0  0  0
 27 24  1  0  0  0  0
 27 22  1  0  0  0  0
M  END
>  <MODEL>
3

>  <REMARK>
 VINA RESULT:      -8.2      3.867      7.566
  Name = 
  7 active torsions:
  status: ('A' for Active; 'I' for Inactive)
    1  A    between atoms: C_1  and  C_22
    2  A    between atoms: N_5  and  C_24
    3  A    between atoms: C_6  and  C_26
    4  A    between atoms: C_6  and  O_27
    5  A    between atoms: C_14  and  C_21
    6  A    between atoms: P_20  and  C_24
    7  A    between atoms: C_23  and  O_27
                            x       y       z     vdW  Elec       q    Type
                         _______ _______ _______ _____ _____    ______ ____

>  <TORSDO>
F 7

$$$$
=
 OpenBabel11062414453D

 27 28  0  0  1  0  0  0  0  0999 V2000
  187.5210  178.6180  139.1010 O   0  0  0  0  0  1  0  0  0  0  0  0
  188.6560  177.9320  139.5180 C   0  0  0  0  0  0  0  0  0  0  0  0
  189.4640  177.2150  138.6020 C   0  0  0  0  0  0  0  0  0  0  0  0
  190.9160  176.5900  140.4550 C   0  0  0  0  0  3  0  0  0  0  0  0
  188.9830  177.9640  140.8740 C   0  0  0  0  0  3  0  0  0  0  0  0
  190.6230  176.5410  139.0840 C   0  0  0  0  0  0  0  0  0  0  0  0
  190.1030  177.2860  141.3450 C   0  0  0  0  0  0  0  0  0  0  0  0
  191.5630  175.7790  138.2180 C   0  0  0  0  0  0  0  0  0  0  0  0
  192.7790  176.3630  137.7450 N   0  0  0  0  0  2  0  0  0  0  0  0
  191.2930  174.5840  137.9140 O   0  0  0  0  0  0  0  0  0  0  0  0
  194.4310  176.5230  136.0520 N   0  0  0  0  0  1  0  0  0  0  0  0
  193.7640  175.6210  136.9720 C   0  0  1  0  0  3  0  0  0  0  0  0
  196.5350  175.0170  137.3990 O   0  0  0  0  0  0  0  0  0  0  0  0
  194.9760  175.5870  139.4200 O   0  0  0  0  0  1  0  0  0  0  0  0
  194.6320  173.2430  138.3160 O   0  0  0  0  0  1  0  0  0  0  0  0
  194.9960  174.8790  138.0840 P   0  0  0  0  0  0  0  0  0  0  0  0
  189.4020  178.0380  136.3420 O   0  0  0  0  0  0  0  0  0  0  0  0
  189.0960  177.1420  137.1710 C   0  0  0  0  0  3  0  0  0  0  0  0
  190.4570  177.3450  142.7880 C   0  0  0  0  0  2  0  0  0  0  0  0
  189.5950  176.4910  143.5270 O   0  0  0  0  0  0  0  0  0  0  0  0
  187.2970  177.1380  143.8510 C   0  0  0  0  0  3  0  0  0  0  0  0
  185.4320  178.4690  146.8610 C   0  0  0  0  0  1  0  0  0  0  0  0
  186.2690  177.6240  144.6640 C   0  0  0  0  0  3  0  0  0  0  0  0
  187.8130  177.7950  146.5190 C   0  0  0  0  0  3  0  0  0  0  0  0
  188.8420  177.3090  145.7070 C   0  0  0  0  0  3  0  0  0  0  0  0
  188.5880  176.9780  144.3650 C   0  0  0  0  0  0  0  0  0  0  0  0
  186.5270  177.9520  145.9970 C   0  0  0  0  0  0  0  0  0  0  0  0
  1  2  1  0  0  0  0
  2  5  1  0  0  0  0
  3  6  1  0  0  0  0
  3  2  2  0  0  0  0
  4  7  1  0  0  0  0
  5  7  2  0  0  0  0
  6  4  2  0  0  0  0
  7 19  1  0  0  0  0
  8  6  1  0  0  0  0
  9  8  1  0  0  0  0
 10  8  2  0  0  0  0
 12 11  1  6  0  0  0
 12  9  1  0  0  0  0
 12 16  1  0  0  0  0
 13 16  2  0  0  0  0
 16 15  1  0  0  0  0
 16 14  1  0  0  0  0
 17 18  2  0  0  0  0
 18  3  1  0  0  0  0
 19 20  1  0  0  0  0
 20 26  1  0  0  0  0
 21 26  2  0  0  0  0
 21 23  1  0  0  0  0
 23 27  2  0  0  0  0
 25 24  2  0  0  0  0
 26 25  1  0  0  0  0
 27 24  1  0  0  0  0
 27 22  1  0  0  0  0
M  END
>  <MODEL>
4

>  <REMARK>
 VINA RESULT:      -8.0      3.652      6.509
  Name = 
  7 active torsions:
  status: ('A' for Active; 'I' for Inactive)
    1  A    between atoms: C_1  and  C_22
    2  A    between atoms: N_5  and  C_24
    3  A    between atoms: C_6  and  C_26
    4  A    between atoms: C_6  and  O_27
    5  A    between atoms: C_14  and  C_21
    6  A    between atoms: P_20  and  C_24
    7  A    between atoms: C_23  and  O_27
                            x       y       z     vdW  Elec       q    Type
                         _______ _______ _______ _____ _____    ______ ____

>  <TORSDO>
F 7

$$$$
=
 OpenBabel11062414453D

 27 28  0  0  1  0  0  0  0  0999 V2000
  183.0700  178.8640  141.9060 O   0  0  0  0  0  1  0  0  0  0  0  0
  184.4020  178.5760  142.1800 C   0  0  0  0  0  0  0  0  0  0  0  0
  185.3890  178.6140  141.1650 C   0  0  0  0  0  0  0  0  0  0  0  0
  187.0510  177.9880  142.8330 C   0  0  0  0  0  3  0  0  0  0  0  0
  184.7480  178.2450  143.4900 C   0  0  0  0  0  3  0  0  0  0  0  0
  186.7410  178.3240  141.5060 C   0  0  0  0  0  0  0  0  0  0  0  0
  186.0650  177.9400  143.8150 C   0  0  0  0  0  0  0  0  0  0  0  0
  187.8700  178.3570  140.5370 C   0  0  0  0  0  0  0  0  0  0  0  0
  188.0790  177.2950  139.6010 N   0  0  0  0  0  2  0  0  0  0  0  0
  188.6450  179.3530  140.5230 O   0  0  0  0  0  0  0  0  0  0  0  0
  189.5230  175.9790  138.2580 N   0  0  0  0  0  1  0  0  0  0  0  0
  189.1160  177.3340  138.5810 C   0  0  1  0  0  3  0  0  0  0  0  0
  188.6670  179.8180  137.2200 O   0  0  0  0  0  1  0  0  0  0  0  0
  189.2440  177.6530  135.8710 O   0  0  0  0  0  0  0  0  0  0  0  0
  186.8420  177.7750  136.8930 O   0  0  0  0  0  1  0  0  0  0  0  0
  188.4820  178.1440  137.0810 P   0  0  0  0  0  0  0  0  0  0  0  0
  184.6700  180.0720  139.3910 O   0  0  0  0  0  0  0  0  0  0  0  0
  185.0190  178.9230  139.7660 C   0  0  0  0  0  3  0  0  0  0  0  0
  186.4300  177.6100  145.2190 C   0  0  0  0  0  2  0  0  0  0  0  0
  187.5900  178.3390  145.5950 O   0  0  0  0  0  0  0  0  0  0  0  0
  188.8420  177.1130  147.2490 C   0  0  0  0  0  3  0  0  0  0  0  0
  192.3830  175.7820  147.2820 C   0  0  0  0  0  1  0  0  0  0  0  0
  190.0170  176.4830  147.6700 C   0  0  0  0  0  3  0  0  0  0  0  0
  191.0790  177.0520  145.5720 C   0  0  0  0  0  3  0  0  0  0  0  0
  189.9050  177.6830  145.1490 C   0  0  0  0  0  3  0  0  0  0  0  0
  188.7780  177.7160  145.9880 C   0  0  0  0  0  0  0  0  0  0  0  0
  191.1340  176.4520  146.8320 C   0  0  0  0  0  0  0  0  0  0  0  0
  1  2  1  0  0  0  0
  2  5  1  0  0  0  0
  3  6  1  0  0  0  0
  3  2  2  0  0  0  0
  4  7  1  0  0  0  0
  5  7  2  0  0  0  0
  6  4  2  0  0  0  0
  7 19  1  0  0  0  0
  8  6  1  0  0  0  0
  9  8  1  0  0  0  0
 10  8  2  0  0  0  0
 12 11  1  6  0  0  0
 12  9  1  0  0  0  0
 14 16  2  0  0  0  0
 15 16  1  0  0  0  0
 16 13  1  0  0  0  0
 16 12  1  0  0  0  0
 17 18  2  0  0  0  0
 18  3  1  0  0  0  0
 19 20  1  0  0  0  0
 20 26  1  0  0  0  0
 21 23  1  0  0  0  0
 24 27  1  0  0  0  0
 25 24  2  0  0  0  0
 25 26  1  0  0  0  0
 26 21  2  0  0  0  0
 27 22  1  0  0  0  0
 27 23  2  0  0  0  0
M  END
>  <MODEL>
5

>  <REMARK>
 VINA RESULT:      -7.9      2.162      6.223
  Name = 
  7 active torsions:
  status: ('A' for Active; 'I' for Inactive)
    1  A    between atoms: C_1  and  C_22
    2  A    between atoms: N_5  and  C_24
    3  A    between atoms: C_6  and  C_26
    4  A    between atoms: C_6  and  O_27
    5  A    between atoms: C_14  and  C_21
    6  A    between atoms: P_20  and  C_24
    7  A    between atoms: C_23  and  O_27
                            x       y       z     vdW  Elec       q    Type
                         _______ _______ _______ _____ _____    ______ ____

>  <TORSDO>
F 7

$$$$
=
 OpenBabel11062414453D

 27 28  0  0  1  0  0  0  0  0999 V2000
  191.1040  177.2740  147.2960 O   0  0  0  0  0  1  0  0  0  0  0  0
  189.9640  177.3450  146.5040 C   0  0  0  0  0  0  0  0  0  0  0  0
  190.0020  177.0260  145.1240 C   0  0  0  0  0  0  0  0  0  0  0  0
  187.6190  177.5140  144.9990 C   0  0  0  0  0  3  0  0  0  0  0  0
  188.7690  177.7430  147.1030 C   0  0  0  0  0  3  0  0  0  0  0  0
  188.8010  177.1020  144.3640 C   0  0  0  0  0  0  0  0  0  0  0  0
  187.6020  177.8400  146.3530 C   0  0  0  0  0  0  0  0  0  0  0  0
  188.7080  176.7670  142.9170 C   0  0  0  0  0  0  0  0  0  0  0  0
  188.6810  177.7890  141.9160 N   0  0  0  0  0  2  0  0  0  0  0  0
  188.6770  175.5560  142.5630 O   0  0  0  0  0  0  0  0  0  0  0  0
  188.1150  178.6240  139.7710 N   0  0  0  0  0  1  0  0  0  0  0  0
  188.6810  177.4990  140.4900 C   0  0  1  0  0  3  0  0  0  0  0  0
  191.4740  177.6750  141.1200 O   0  0  0  0  0  1  0  0  0  0  0  0
  190.5780  175.7470  139.5960 O   0  0  0  0  0  1  0  0  0  0  0  0
  190.6660  178.1270  138.5200 O   0  0  0  0  0  0  0  0  0  0  0  0
  190.3830  177.2130  139.9140 P   0  0  0  0  0  0  0  0  0  0  0  0
  191.4320  175.5540  143.8660 O   0  0  0  0  0  0  0  0  0  0  0  0
  191.2770  176.6450  144.4750 C   0  0  0  0  0  3  0  0  0  0  0  0
  186.3270  178.2430  147.0050 C   0  0  0  0  0  2  0  0  0  0  0  0
  185.7530  179.3340  146.2980 O   0  0  0  0  0  0  0  0  0  0  0  0
  183.5620  178.8230  145.4360 C   0  0  0  0  0  3  0  0  0  0  0  0
  182.2080  178.6040  141.9110 C   0  0  0  0  0  1  0  0  0  0  0  0
  182.6850  178.6420  144.3630 C   0  0  0  0  0  3  0  0  0  0  0  0
  184.4760  179.1340  142.8120 C   0  0  0  0  0  3  0  0  0  0  0  0
  185.3550  179.3150  143.8840 C   0  0  0  0  0  3  0  0  0  0  0  0
  184.9010  179.1610  145.2050 C   0  0  0  0  0  0  0  0  0  0  0  0
  183.1420  178.7970  143.0520 C   0  0  0  0  0  0  0  0  0  0  0  0
  2  5  1  0  0  0  0
  2  1  1  0  0  0  0
  3  2  2  0  0  0  0
  4  7  1  0  0  0  0
  6  4  2  0  0  0  0
  6  3  1  0  0  0  0
  7 19  1  0  0  0  0
  7  5  2  0  0  0  0
  8  6  1  0  0  0  0
  9  8  1  0  0  0  0
 10  8  2  0  0  0  0
 12 11  1  6  0  0  0
 12  9  1  0  0  0  0
 14 16  1  0  0  0  0
 15 16  2  0  0  0  0
 16 12  1  0  0  0  0
 16 13  1  0  0  0  0
 17 18  2  0  0  0  0
 18  3  1  0  0  0  0
 20 19  1  0  0  0  0
 22 27  1  0  0  0  0
 23 21  2  0  0  0  0
 24 27  2  0  0  0  0
 24 25  1  0  0  0  0
 25 26  2  0  0  0  0
 26 21  1  0  0  0  0
 26 20  1  0  0  0  0
 27 23  1  0  0  0  0
M  END
>  <MODEL>
6

>  <REMARK>
 VINA RESULT:      -7.8      1.581      2.121
  Name = 
  7 active torsions:
  status: ('A' for Active; 'I' for Inactive)
    1  A    between atoms: C_1  and  C_22
    2  A    between atoms: N_5  and  C_24
    3  A    between atoms: C_6  and  C_26
    4  A    between atoms: C_6  and  O_27
    5  A    between atoms: C_14  and  C_21
    6  A    between atoms: P_20  and  C_24
    7  A    between atoms: C_23  and  O_27
                            x       y       z     vdW  Elec       q    Type
                         _______ _______ _______ _____ _____    ______ ____

>  <TORSDO>
F 7

$$$$
=
 OpenBabel11062414453D

 27 28  0  0  1  0  0  0  0  0999 V2000
  180.7830  179.2400  143.8550 O   0  0  0  0  0  1  0  0  0  0  0  0
  182.1220  179.0040  143.5660 C   0  0  0  0  0  0  0  0  0  0  0  0
  182.5440  178.6470  142.2620 C   0  0  0  0  0  0  0  0  0  0  0  0
  184.8340  178.5560  143.0870 C   0  0  0  0  0  3  0  0  0  0  0  0
  183.0500  179.1270  144.6000 C   0  0  0  0  0  3  0  0  0  0  0  0
  183.9310  178.4300  142.0210 C   0  0  0  0  0  0  0  0  0  0  0  0
  184.4010  178.8930  144.3670 C   0  0  0  0  0  0  0  0  0  0  0  0
  184.4990  178.0770  140.6910 C   0  0  0  0  0  0  0  0  0  0  0  0
  185.7820  178.5580  140.2790 N   0  0  0  0  0  2  0  0  0  0  0  0
  183.8480  177.3200  139.9210 O   0  0  0  0  0  0  0  0  0  0  0  0
  186.0100  179.0840  137.9790 N   0  0  0  0  0  1  0  0  0  0  0  0
  186.4080  178.1630  139.0260 C   0  0  1  0  0  3  0  0  0  0  0  0
  188.8640  179.3770  138.1760 O   0  0  0  0  0  0  0  0  0  0  0  0
  188.5930  178.5100  140.6290 O   0  0  0  0  0  1  0  0  0  0  0  0
  188.8510  176.6840  138.7780 O   0  0  0  0  0  1  0  0  0  0  0  0
  188.2180  178.1950  139.1990 P   0  0  0  0  0  0  0  0  0  0  0  0
  181.1440  179.4310  140.4680 O   0  0  0  0  0  0  0  0  0  0  0  0
  181.5580  178.4730  141.1730 C   0  0  0  0  0  3  0  0  0  0  0  0
  185.3860  179.0480  145.4690 C   0  0  0  0  0  2  0  0  0  0  0  0
  185.9530  177.7830  145.7860 O   0  0  0  0  0  0  0  0  0  0  0  0
  188.0290  177.3980  144.6260 C   0  0  0  0  0  3  0  0  0  0  0  0
  191.5680  176.8830  145.8570 C   0  0  0  0  0  1  0  0  0  0  0  0
  189.4090  177.1760  144.6360 C   0  0  0  0  0  3  0  0  0  0  0  0
  189.4130  177.2840  147.0530 C   0  0  0  0  0  3  0  0  0  0  0  0
  188.0320  177.5060  147.0450 C   0  0  0  0  0  3  0  0  0  0  0  0
  187.3320  177.5640  145.8290 C   0  0  0  0  0  0  0  0  0  0  0  0
  190.1000  177.1190  145.8490 C   0  0  0  0  0  0  0  0  0  0  0  0
  2  1  1  0  0  0  0
  2  5  1  0  0  0  0
  3  2  2  0  0  0  0
  4  7  1  0  0  0  0
  6  3  1  0  0  0  0
  6  4  2  0  0  0  0
  7  5  2  0  0  0  0
  7 19  1  0  0  0  0
  8  6  1  0  0  0  0
  9  8  1  0  0  0  0
 10  8  2  0  0  0  0
 12 11  1  6  0  0  0
 12 16  1  0  0  0  0
 12  9  1  0  0  0  0
 13 16  2  0  0  0  0
 15 16  1  0  0  0  0
 16 14  1  0  0  0  0
 17 18  2  0  0  0  0
 18  3  1  0  0  0  0
 19 20  1  0  0  0  0
 20 26  1  0  0  0  0
 21 23  2  0  0  0  0
 21 26  1  0  0  0  0
 23 27  1  0  0  0  0
 25 24  1  0  0  0  0
 26 25  2  0  0  0  0
 27 22  1  0  0  0  0
 27 24  2  0  0  0  0
M  END
>  <MODEL>
7

>  <REMARK>
 VINA RESULT:      -7.6      2.340      6.587
  Name = 
  7 active torsions:
  status: ('A' for Active; 'I' for Inactive)
    1  A    between atoms: C_1  and  C_22
    2  A    between atoms: N_5  and  C_24
    3  A    between atoms: C_6  and  C_26
    4  A    between atoms: C_6  and  O_27
    5  A    between atoms: C_14  and  C_21
    6  A    between atoms: P_20  and  C_24
    7  A    between atoms: C_23  and  O_27
                            x       y       z     vdW  Elec       q    Type
                         _______ _______ _______ _____ _____    ______ ____

>  <TORSDO>
F 7

$$$$
=
 OpenBabel11062414453D

 27 28  0  0  1  0  0  0  0  0999 V2000
  187.0780  178.8340  140.1250 O   0  0  0  0  0  1  0  0  0  0  0  0
  186.0660  178.6520  141.0610 C   0  0  0  0  0  0  0  0  0  0  0  0
  184.7010  178.7920  140.7090 C   0  0  0  0  0  0  0  0  0  0  0  0
  184.1090  178.2610  143.0120 C   0  0  0  0  0  3  0  0  0  0  0  0
  186.4290  178.3250  142.3680 C   0  0  0  0  0  3  0  0  0  0  0  0
  183.7060  178.5810  141.7060 C   0  0  0  0  0  0  0  0  0  0  0  0
  185.4560  178.1420  143.3440 C   0  0  0  0  0  0  0  0  0  0  0  0
  182.2430  178.6730  141.4540 C   0  0  0  0  0  0  0  0  0  0  0  0
  181.5030  179.8530  141.7840 N   0  0  0  0  0  2  0  0  0  0  0  0
  181.6440  177.7010  140.9160 O   0  0  0  0  0  0  0  0  0  0  0  0
  179.4800  180.8930  142.4490 N   0  0  0  0  0  1  0  0  0  0  0  0
  180.0910  180.0130  141.4710 C   0  0  1  0  0  3  0  0  0  0  0  0
  179.1610  179.6110  138.7870 O   0  0  0  0  0  0  0  0  0  0  0  0
  179.0490  181.9810  139.8880 O   0  0  0  0  0  1  0  0  0  0  0  0
  181.4230  181.1380  139.1950 O   0  0  0  0  0  1  0  0  0  0  0  0
  179.9000  180.7340  139.8120 P   0  0  0  0  0  0  0  0  0  0  0  0
  184.4080  180.3610  138.9080 O   0  0  0  0  0  0  0  0  0  0  0  0
  184.3140  179.1810  139.3350 C   0  0  0  0  0  3  0  0  0  0  0  0
  185.8500  177.7720  144.7300 C   0  0  0  0  0  2  0  0  0  0  0  0
  186.9880  178.5280  145.1210 O   0  0  0  0  0  0  0  0  0  0  0  0
  189.2840  177.8340  144.8980 C   0  0  0  0  0  3  0  0  0  0  0  0
  191.6750  176.1550  147.3000 C   0  0  0  0  0  1  0  0  0  0  0  0
  190.4400  177.2520  145.4260 C   0  0  0  0  0  3  0  0  0  0  0  0
  189.2950  176.8780  147.5250 C   0  0  0  0  0  3  0  0  0  0  0  0
  188.1380  177.4600  146.9970 C   0  0  0  0  0  3  0  0  0  0  0  0
  188.1280  177.9420  145.6780 C   0  0  0  0  0  0  0  0  0  0  0  0
  190.4450  176.7750  146.7390 C   0  0  0  0  0  0  0  0  0  0  0  0
  1  2  1  0  0  0  0
  2  5  1  0  0  0  0
  3  2  2  0  0  0  0
  3  6  1  0  0  0  0
  4  7  1  0  0  0  0
  5  7  2  0  0  0  0
  6  4  2  0  0  0  0
  7 19  1  0  0  0  0
  8  6  1  0  0  0  0
  8  9  1  0  0  0  0
 10  8  2  0  0  0  0
 12  9  1  0  0  0  0
 12 11  1  1  0  0  0
 13 16  2  0  0  0  0
 15 16  1  0  0  0  0
 16 14  1  0  0  0  0
 16 12  1  0  0  0  0
 17 18  2  0  0  0  0
 18  3  1  0  0  0  0
 19 20  1  0  0  0  0
 20 26  1  0  0  0  0
 21 23  2  0  0  0  0
 21 26  1  0  0  0  0
 23 27  1  0  0  0  0
 25 24  1  0  0  0  0
 26 25  2  0  0  0  0
 27 22  1  0  0  0  0
 27 24  2  0  0  0  0
M  END
>  <MODEL>
8

>  <REMARK>
 VINA RESULT:      -7.6      4.431      7.954
  Name = 
  7 active torsions:
  status: ('A' for Active; 'I' for Inactive)
    1  A    between atoms: C_1  and  C_22
    2  A    between atoms: N_5  and  C_24
    3  A    between atoms: C_6  and  C_26
    4  A    between atoms: C_6  and  O_27
    5  A    between atoms: C_14  and  C_21
    6  A    between atoms: P_20  and  C_24
    7  A    between atoms: C_23  and  O_27
                            x       y       z     vdW  Elec       q    Type
                         _______ _______ _______ _____ _____    ______ ____

>  <TORSDO>
F 7

$$$$
=
 OpenBabel11062414453D

 27 28  0  0  1  0  0  0  0  0999 V2000
  191.6490  177.0050  147.6690 O   0  0  0  0  0  1  0  0  0  0  0  0
  190.8090  177.0920  146.5650 C   0  0  0  0  0  0  0  0  0  0  0  0
  189.4090  177.2470  146.7130 C   0  0  0  0  0  0  0  0  0  0  0  0
  189.2090  177.2620  144.2850 C   0  0  0  0  0  3  0  0  0  0  0  0
  191.3810  177.0210  145.2950 C   0  0  0  0  0  3  0  0  0  0  0  0
  188.5980  177.3450  145.5460 C   0  0  0  0  0  0  0  0  0  0  0  0
  190.5840  177.0930  144.1570 C   0  0  0  0  0  0  0  0  0  0  0  0
  187.1230  177.5360  145.5710 C   0  0  0  0  0  0  0  0  0  0  0  0
  186.4320  178.1490  144.4780 N   0  0  0  0  0  2  0  0  0  0  0  0
  186.4630  177.1280  146.5670 O   0  0  0  0  0  0  0  0  0  0  0  0
  184.5480  179.2320  145.4250 N   0  0  0  0  0  1  0  0  0  0  0  0
  184.9830  178.2710  144.4290 C   0  0  1  0  0  3  0  0  0  0  0  0
  184.1850  177.5030  141.7830 O   0  0  0  0  0  0  0  0  0  0  0  0
  183.1950  179.6530  142.8940 O   0  0  0  0  0  1  0  0  0  0  0  0
  185.6820  179.7980  142.1060 O   0  0  0  0  0  1  0  0  0  0  0  0
  184.4640  178.8390  142.7810 P   0  0  0  0  0  0  0  0  0  0  0  0
  188.7360  178.3250  148.7570 O   0  0  0  0  0  0  0  0  0  0  0  0
  188.7930  177.2800  148.0580 C   0  0  0  0  0  3  0  0  0  0  0  0
  191.2050  177.0400  142.8070 C   0  0  0  0  0  2  0  0  0  0  0  0
  190.3190  176.4000  141.8980 O   0  0  0  0  0  0  0  0  0  0  0  0
  190.6840  176.5850  139.5240 C   0  0  0  0  0  3  0  0  0  0  0  0
  188.9680  178.6270  136.8420 C   0  0  0  0  0  1  0  0  0  0  0  0
  190.3580  177.1280  138.2780 C   0  0  0  0  0  3  0  0  0  0  0  0
  188.5940  178.4290  139.3030 C   0  0  0  0  0  3  0  0  0  0  0  0
  188.9200  177.8870  140.5500 C   0  0  0  0  0  3  0  0  0  0  0  0
  189.9680  176.9600  140.6660 C   0  0  0  0  0  0  0  0  0  0  0  0
  189.3140  178.0500  138.1680 C   0  0  0  0  0  0  0  0  0  0  0  0
  2  3  1  0  0  0  0
  2  1  1  0  0  0  0
  3 18  1  0  0  0  0
  4  6  1  0  0  0  0
  5  2  2  0  0  0  0
  6  8  1  0  0  0  0
  6  3  2  0  0  0  0
  7  4  2  0  0  0  0
  7  5  1  0  0  0  0
  8 10  2  0  0  0  0
  9  8  1  0  0  0  0
 12  9  1  0  0  0  0
 12 11  1  1  0  0  0
 13 16  2  0  0  0  0
 15 16  1  0  0  0  0
 16 14  1  0  0  0  0
 16 12  1  0  0  0  0
 18 17  2  0  0  0  0
 19  7  1  0  0  0  0
 20 19  1  0  0  0  0
 21 26  1  0  0  0  0
 22 27  1  0  0  0  0
 23 21  2  0  0  0  0
 24 25  1  0  0  0  0
 25 26  2  0  0  0  0
 26 20  1  0  0  0  0
 27 23  1  0  0  0  0
 27 24  2  0  0  0  0
M  END
>  <MODEL>
9

>  <REMARK>
 VINA RESULT:      -7.6      2.931      5.603
  Name = 
  7 active torsions:
  status: ('A' for Active; 'I' for Inactive)
    1  A    between atoms: C_1  and  C_22
    2  A    between atoms: N_5  and  C_24
    3  A    between atoms: C_6  and  C_26
    4  A    between atoms: C_6  and  O_27
    5  A    between atoms: C_14  and  C_21
    6  A    between atoms: P_20  and  C_24
    7  A    between atoms: C_23  and  O_27
                            x       y       z     vdW  Elec       q    Type
                         _______ _______ _______ _____ _____    ______ ____

>  <TORSDO>
F 7

$$$$
