=
 OpenBabel11062410583D

 49 53  0  0  1  0  0  0  0  0999 V2000
  187.8580  177.7650  137.1320 C   0  0  1  0  0  3  0  0  0  0  0  0
  189.3250  174.0330  137.4980 O   0  0  0  0  0  0  0  0  0  0  0  0
  185.3870  176.3710  136.8570 C   0  0  0  0  0  0  0  0  0  0  0  0
  190.4700  176.3550  138.2950 C   0  0  2  0  0  3  0  0  0  0  0  0
  186.6690  175.6260  136.5680 C   0  0  0  0  0  2  0  0  0  0  0  0
  186.5980  178.4660  137.6610 C   0  0  0  0  0  2  0  0  0  0  0  0
  189.1270  178.4660  137.6410 C   0  0  0  0  0  2  0  0  0  0  0  0
  189.8410  175.6660  135.7290 O   0  0  0  0  0  0  0  0  0  0  0  0
  184.3540  176.0330  136.2920 O   0  0  0  0  0  0  0  0  0  0  0  0
  189.3860  175.4930  137.1510 S   0  0  0  0  0  0  0  0  0  0  0  0
  185.3970  177.5180  137.8540 C   0  0  1  0  0  3  0  0  0  0  0  0
  189.8810  177.7120  138.7470 C   0  0  1  0  0  3  0  0  0  0  0  0
  187.7990  176.2520  137.3790 C   0  0  1  0  0  3  0  0  0  0  0  0
  187.5590  178.6460  141.6260 C   0  0  0  0  0  3  0  0  0  0  0  0
  187.8700  177.6480  142.5530 C   0  0  0  0  0  3  0  0  0  0  0  0
  188.7900  176.6490  142.2220 C   0  0  0  0  0  3  0  0  0  0  0  0
  189.1060  177.6620  140.0390 C   0  0  0  0  0  0  0  0  0  0  0  0
  188.1740  178.6540  140.3750 C   0  0  0  0  0  3  0  0  0  0  0  0
  189.4110  176.6610  140.9710 C   0  0  0  0  0  3  0  0  0  0  0  0
  191.8400  176.5140  137.7140 C   0  0  0  0  0  3  0  0  0  0  0  0
  192.7180  175.5110  137.7570 C   0  0  0  0  0  3  0  0  0  0  0  0
  194.2620  174.9820  135.0140 C   0  0  0  0  0  2  0  0  0  0  0  0
  194.0750  175.6650  137.1430 C   0  0  1  0  0  3  0  0  0  0  0  0
  195.0900  174.4770  137.2000 C   0  0  2  0  0  0  0  0  0  0  0  0
  193.9410  176.0950  135.8110 O   0  0  0  0  0  0  0  0  0  0  0  0
  195.3190  174.1770  135.7320 C   0  0  0  0  0  2  0  0  0  0  0  0
  195.1740  172.8000  139.0420 O   0  0  0  0  0  0  0  0  0  0  0  0
  194.6040  173.1190  137.7890 C   0  0  2  0  0  3  0  0  0  0  0  0
  195.7170  172.1300  137.9330 C   0  0  0  0  0  2  0  0  0  0  0  0
  196.3110  174.8560  137.8360 O   0  0  0  0  0  0  0  0  0  0  0  0
  197.3400  175.0490  136.8930 C   0  0  0  0  0  2  0  0  0  0  0  0
  198.2540  174.8730  138.8960 C   0  0  0  0  0  1  0  0  0  0  0  0
  198.5760  175.0390  137.5470 O   0  0  0  0  0  0  0  0  0  0  0  0
  184.0540  178.2540  138.0240 C   0  0  1  0  0  3  0  0  0  0  0  0
  182.2400  175.6660  139.8890 O   0  0  0  0  0  0  0  0  0  0  0  0
  182.9810  177.3380  138.4160 N   0  0  0  0  0  0  0  0  0  0  0  0
  183.1080  176.5260  139.5930 C   0  0  0  0  0  3  0  0  0  0  0  0
  182.0210  177.9920  136.3760 O   0  0  0  0  0  1  0  0  0  0  0  0
  180.5520  177.6490  138.2340 C   0  0  0  0  0  1  0  0  0  0  0  0
  181.8270  177.2220  137.5260 C   0  0  2  0  0  3  0  0  0  0  0  0
  184.7880  179.5480  139.9780 O   0  0  0  0  0  1  0  0  0  0  0  0
  184.0700  179.6110  138.7810 C   0  0  2  0  0  3  0  0  0  0  0  0
  182.7100  180.2430  139.0380 C   0  0  0  0  0  2  0  0  0  0  0  0
  182.7150  181.5890  138.6370 O   0  0  0  0  0  0  0  0  0  0  0  0
  181.4330  181.9050  138.1300 C   0  0  2  0  0  3  0  0  0  0  0  0
  181.0350  181.0190  137.1420 F   0  0  0  0  0  0  0  0  0  0  0  0
  181.3380  183.3500  137.6490 C   0  0  0  0  0  2  0  0  0  0  0  0
  180.8550  183.8560  135.4300 C   0  0  0  0  0  1  0  0  0  0  0  0
  180.2540  183.4840  136.6950 N   0  0  0  0  0  2  0  0  0  0  0  0
  1 13  1  0  0  0  0
  1  7  1  1  0  0  0
  1  6  1  0  0  0  0
  3 11  1  0  0  0  0
  4 20  1  6  0  0  0
  4 12  1  0  0  0  0
  5  3  1  0  0  0  0
  6 11  1  0  0  0  0
  7 12  1  0  0  0  0
  8 10  2  0  0  0  0
  9  3  2  0  0  0  0
 10 13  1  0  0  0  0
 10  2  2  0  0  0  0
 10  4  1  0  0  0  0
 11 34  1  6  0  0  0
 12 17  1  1  0  0  0
 13  5  1  6  0  0  0
 14 15  1  0  0  0  0
 16 15  2  0  0  0  0
 17 18  1  0  0  0  0
 17 19  2  0  0  0  0
 18 14  2  0  0  0  0
 19 16  1  0  0  0  0
 20 21  2  0  0  0  0
 22 26  1  0  0  0  0
 22 25  1  0  0  0  0
 23 24  1  0  0  0  0
 23 21  1  6  0  0  0
 24 28  1  0  0  0  0
 24 30  1  1  0  0  0
 25 23  1  0  0  0  0
 26 24  1  0  0  0  0
 28 29  1  6  0  0  0
 28 27  1  0  0  0  0
 29 27  1  0  0  0  0
 31 33  1  0  0  0  0
 31 30  1  0  0  0  0
 33 32  1  0  0  0  0
 34 36  1  1  0  0  0
 34 42  1  0  0  0  0
 36 37  1  0  0  0  0
 37 35  2  0  0  0  0
 38 40  1  0  0  0  0
 40 39  1  1  0  0  0
 40 36  1  0  0  0  0
 42 43  1  0  0  0  0
 42 41  1  1  0  0  0
 44 43  1  0  0  0  0
 45 46  1  6  0  0  0
 45 44  1  0  0  0  0
 47 45  1  0  0  0  0
 48 49  1  0  0  0  0
 49 47  1  0  0  0  0
M  END
>  <MODEL>
1

>  <REMARK>
 VINA RESULT:      -6.7      0.000      0.000
  Name = 
  16 active torsions:
  status: ('A' for Active; 'I' for Inactive)
    1  A    between atoms: C_6  and  C_36
    2  A    between atoms: C_6  and  O_40
    3  A    between atoms: N_10  and  C_20
    4  A    between atoms: N_10  and  C_21
    5  A    between atoms: C_11  and  C_12
    6  A    between atoms: C_15  and  C_47
    7  A    between atoms: C_16  and  C_42
    8  A    between atoms: C_20  and  C_24
    9  A    between atoms: C_20  and  C_45
   10  A    between atoms: N_23  and  C_36
   11  A    between atoms: C_24  and  C_46
   12  A    between atoms: C_27  and  O_31
   13  A    between atoms: C_27  and  C_34
   14  A    between atoms: O_31  and  C_48
   15  A    between atoms: O_40  and  C_46
   16  A    between atoms: O_44  and  C_48
                            x       y       z     vdW  Elec       q    Type
                         _______ _______ _______ _____ _____    ______ ____

>  <TORSDO>
F 16

$$$$
=
 OpenBabel11062410583D

 49 53  0  0  1  0  0  0  0  0999 V2000
  188.0170  177.3920  136.9570 C   0  0  1  0  0  3  0  0  0  0  0  0
  189.6570  173.7590  137.5290 O   0  0  0  0  0  0  0  0  0  0  0  0
  185.6210  175.8660  136.7220 C   0  0  0  0  0  0  0  0  0  0  0  0
  190.6760  176.1710  138.2230 C   0  0  2  0  0  3  0  0  0  0  0  0
  186.9410  175.1720  136.4880 C   0  0  0  0  0  2  0  0  0  0  0  0
  186.7170  178.0560  137.4340 C   0  0  0  0  0  2  0  0  0  0  0  0
  189.2430  178.1780  137.4450 C   0  0  0  0  0  2  0  0  0  0  0  0
  190.1200  175.3240  135.6860 O   0  0  0  0  0  0  0  0  0  0  0  0
  184.6140  175.4510  136.1630 O   0  0  0  0  0  0  0  0  0  0  0  0
  189.6530  175.2010  137.1100 S   0  0  0  0  0  0  0  0  0  0  0  0
  185.5600  177.0610  137.6600 C   0  0  1  0  0  3  0  0  0  0  0  0
  190.0160  177.5190  138.5980 C   0  0  1  0  0  3  0  0  0  0  0  0
  188.0280  175.8920  137.2790 C   0  0  1  0  0  3  0  0  0  0  0  0
  187.5650  178.4490  141.3680 C   0  0  0  0  0  3  0  0  0  0  0  0
  187.9500  177.5590  142.3740 C   0  0  0  0  0  3  0  0  0  0  0  0
  188.9650  176.6280  142.1320 C   0  0  0  0  0  3  0  0  0  0  0  0
  189.2250  177.4960  139.8800 C   0  0  0  0  0  0  0  0  0  0  0  0
  188.1990  178.4190  140.1280 C   0  0  0  0  0  3  0  0  0  0  0  0
  189.6040  176.6020  140.8910 C   0  0  0  0  0  3  0  0  0  0  0  0
  192.0460  176.3680  137.6510 C   0  0  0  0  0  3  0  0  0  0  0  0
  192.8960  175.3450  137.5530 C   0  0  0  0  0  3  0  0  0  0  0  0
  194.2840  176.5120  134.9270 C   0  0  0  0  0  2  0  0  0  0  0  0
  194.2510  175.5410  136.9490 C   0  0  1  0  0  3  0  0  0  0  0  0
  194.8410  174.4490  135.9990 C   0  0  2  0  0  0  0  0  0  0  0  0
  194.3020  176.7890  136.3050 O   0  0  0  0  0  0  0  0  0  0  0  0
  195.0120  175.2090  134.6990 C   0  0  0  0  0  2  0  0  0  0  0  0
  193.9150  172.2070  136.5750 O   0  0  0  0  0  0  0  0  0  0  0  0
  193.9370  173.2410  135.6120 C   0  0  2  0  0  3  0  0  0  0  0  0
  194.7160  171.9750  135.4450 C   0  0  0  0  0  2  0  0  0  0  0  0
  196.0990  173.9620  136.4700 O   0  0  0  0  0  0  0  0  0  0  0  0
  196.5150  174.6550  137.6250 C   0  0  0  0  0  2  0  0  0  0  0  0
  196.4770  174.6890  139.8330 C   0  0  0  0  0  1  0  0  0  0  0  0
  196.3710  173.8250  138.7410 O   0  0  0  0  0  0  0  0  0  0  0  0
  184.1810  177.7380  137.7750 C   0  0  1  0  0  3  0  0  0  0  0  0
  182.2080  174.6820  138.2630 O   0  0  0  0  0  0  0  0  0  0  0  0
  183.0900  176.7700  137.6460 N   0  0  0  0  0  0  0  0  0  0  0  0
  183.0840  175.5680  138.4320 C   0  0  0  0  0  3  0  0  0  0  0  0
  182.5800  177.8400  135.6210 O   0  0  0  0  0  1  0  0  0  0  0  0
  180.8450  177.6830  137.2610 C   0  0  0  0  0  1  0  0  0  0  0  0
  182.0660  177.0300  136.6370 C   0  0  2  0  0  3  0  0  0  0  0  0
  184.9170  179.8390  138.8130 O   0  0  0  0  0  1  0  0  0  0  0  0
  183.9920  178.7950  138.8990 C   0  0  2  0  0  3  0  0  0  0  0  0
  183.9670  178.2550  140.3210 C   0  0  0  0  0  2  0  0  0  0  0  0
  183.2670  179.1330  141.1640 O   0  0  0  0  0  0  0  0  0  0  0  0
  181.9260  178.6900  141.2490 C   0  0  2  0  0  3  0  0  0  0  0  0
  181.7730  177.4070  140.7500 F   0  0  0  0  0  0  0  0  0  0  0  0
  180.9510  179.6600  140.5890 C   0  0  0  0  0  2  0  0  0  0  0  0
  180.3010  179.7360  142.8220 C   0  0  0  0  0  1  0  0  0  0  0  0
  179.8200  179.8980  141.4650 N   0  0  0  0  0  2  0  0  0  0  0  0
  1 13  1  0  0  0  0
  1  6  1  1  0  0  0
  1  7  1  0  0  0  0
  3 11  1  0  0  0  0
  4 20  1  6  0  0  0
  4 12  1  0  0  0  0
  5  3  1  0  0  0  0
  6 11  1  0  0  0  0
  7 12  1  0  0  0  0
  8 10  2  0  0  0  0
  9  3  2  0  0  0  0
 10 13  1  0  0  0  0
 10  2  2  0  0  0  0
 10  4  1  0  0  0  0
 11 34  1  6  0  0  0
 12 17  1  1  0  0  0
 13  5  1  6  0  0  0
 14 15  1  0  0  0  0
 16 15  2  0  0  0  0
 17 18  1  0  0  0  0
 17 19  2  0  0  0  0
 18 14  2  0  0  0  0
 19 16  1  0  0  0  0
 21 20  2  0  0  0  0
 22 25  1  0  0  0  0
 23 21  1  6  0  0  0
 24 30  1  1  0  0  0
 24 23  1  0  0  0  0
 25 23  1  0  0  0  0
 26 22  1  0  0  0  0
 26 24  1  0  0  0  0
 28 29  1  6  0  0  0
 28 24  1  0  0  0  0
 28 27  1  0  0  0  0
 29 27  1  0  0  0  0
 30 31  1  0  0  0  0
 31 33  1  0  0  0  0
 33 32  1  0  0  0  0
 34 36  1  1  0  0  0
 34 42  1  0  0  0  0
 35 37  2  0  0  0  0
 36 37  1  0  0  0  0
 38 40  1  0  0  0  0
 40 39  1  1  0  0  0
 40 36  1  0  0  0  0
 42 41  1  1  0  0  0
 42 43  1  0  0  0  0
 43 44  1  0  0  0  0
 44 45  1  0  0  0  0
 45 46  1  6  0  0  0
 47 45  1  0  0  0  0
 47 49  1  0  0  0  0
 49 48  1  0  0  0  0
M  END
>  <MODEL>
2

>  <REMARK>
 VINA RESULT:      -5.4      2.011      2.285
  Name = 
  16 active torsions:
  status: ('A' for Active; 'I' for Inactive)
    1  A    between atoms: C_6  and  C_36
    2  A    between atoms: C_6  and  O_40
    3  A    between atoms: N_10  and  C_20
    4  A    between atoms: N_10  and  C_21
    5  A    between atoms: C_11  and  C_12
    6  A    between atoms: C_15  and  C_47
    7  A    between atoms: C_16  and  C_42
    8  A    between atoms: C_20  and  C_24
    9  A    between atoms: C_20  and  C_45
   10  A    between atoms: N_23  and  C_36
   11  A    between atoms: C_24  and  C_46
   12  A    between atoms: C_27  and  O_31
   13  A    between atoms: C_27  and  C_34
   14  A    between atoms: O_31  and  C_48
   15  A    between atoms: O_40  and  C_46
   16  A    between atoms: O_44  and  C_48
                            x       y       z     vdW  Elec       q    Type
                         _______ _______ _______ _____ _____    ______ ____

>  <TORSDO>
F 16

$$$$
=
 OpenBabel11062410583D

 49 53  0  0  1  0  0  0  0  0999 V2000
  187.9670  177.9100  137.8900 C   0  0  1  0  0  3  0  0  0  0  0  0
  189.5400  174.2190  137.5520 O   0  0  0  0  0  0  0  0  0  0  0  0
  185.5290  176.5140  137.4120 C   0  0  0  0  0  0  0  0  0  0  0  0
  190.6420  176.3940  138.7340 C   0  0  2  0  0  3  0  0  0  0  0  0
  186.8230  175.8720  136.9720 C   0  0  0  0  0  2  0  0  0  0  0  0
  186.7020  178.4670  138.5580 C   0  0  0  0  0  2  0  0  0  0  0  0
  189.2290  178.5460  138.4930 C   0  0  0  0  0  2  0  0  0  0  0  0
  189.9730  176.1570  136.0970 O   0  0  0  0  0  0  0  0  0  0  0  0
  184.4930  176.2530  136.8150 O   0  0  0  0  0  0  0  0  0  0  0  0
  189.5550  175.7180  137.4730 S   0  0  0  0  0  0  0  0  0  0  0  0
  185.5310  177.4640  138.5990 C   0  0  1  0  0  3  0  0  0  0  0  0
  190.0280  177.6300  139.4330 C   0  0  1  0  0  3  0  0  0  0  0  0
  187.9540  176.3760  137.8610 C   0  0  1  0  0  3  0  0  0  0  0  0
  187.6020  177.8740  142.3660 C   0  0  0  0  0  3  0  0  0  0  0  0
  188.0910  176.8650  143.2000 C   0  0  0  0  0  3  0  0  0  0  0  0
  189.1690  176.0770  142.7850 C   0  0  0  0  0  3  0  0  0  0  0  0
  189.2840  177.3260  140.7080 C   0  0  0  0  0  0  0  0  0  0  0  0
  188.1950  178.1040  141.1260 C   0  0  0  0  0  3  0  0  0  0  0  0
  189.7680  176.3130  141.5470 C   0  0  0  0  0  3  0  0  0  0  0  0
  191.9940  176.6950  138.1660 C   0  0  0  0  0  3  0  0  0  0  0  0
  192.8340  175.7090  137.8480 C   0  0  0  0  0  3  0  0  0  0  0  0
  194.2040  176.2620  135.0190 C   0  0  0  0  0  2  0  0  0  0  0  0
  194.1700  176.0160  137.2490 C   0  0  1  0  0  3  0  0  0  0  0  0
  195.0780  174.8500  136.7400 C   0  0  2  0  0  0  0  0  0  0  0  0
  194.0180  176.9650  136.2220 O   0  0  0  0  0  0  0  0  0  0  0  0
  195.2150  175.1670  135.2640 C   0  0  0  0  0  2  0  0  0  0  0  0
  194.0500  172.9820  138.0310 O   0  0  0  0  0  0  0  0  0  0  0  0
  194.5000  173.4030  136.7600 C   0  0  2  0  0  3  0  0  0  0  0  0
  195.2990  172.4820  137.6260 C   0  0  0  0  0  2  0  0  0  0  0  0
  196.3540  174.8550  137.3800 O   0  0  0  0  0  0  0  0  0  0  0  0
  197.3760  175.2210  136.4810 C   0  0  0  0  0  2  0  0  0  0  0  0
  198.6370  173.8200  137.6310 C   0  0  0  0  0  1  0  0  0  0  0  0
  198.6150  175.1190  137.1200 O   0  0  0  0  0  0  0  0  0  0  0  0
  184.1730  178.1170  138.9220 C   0  0  1  0  0  3  0  0  0  0  0  0
  182.1930  175.0290  138.8170 O   0  0  0  0  0  0  0  0  0  0  0  0
  183.0580  177.2070  138.6550 N   0  0  0  0  0  0  0  0  0  0  0  0
  183.0970  175.8490  139.1200 C   0  0  0  0  0  3  0  0  0  0  0  0
  182.4190  178.6600  136.9260 O   0  0  0  0  0  1  0  0  0  0  0  0
  180.8580  178.2950  138.7030 C   0  0  0  0  0  1  0  0  0  0  0  0
  181.9560  177.7040  137.8340 C   0  0  2  0  0  3  0  0  0  0  0  0
  185.1290  179.8070  140.4260 O   0  0  0  0  0  1  0  0  0  0  0  0
  184.0620  178.9240  140.2460 C   0  0  2  0  0  3  0  0  0  0  0  0
  183.8650  178.1010  141.5100 C   0  0  0  0  0  2  0  0  0  0  0  0
  182.7900  178.6070  142.2580 O   0  0  0  0  0  0  0  0  0  0  0  0
  183.2590  178.9100  143.5580 C   0  0  2  0  0  3  0  0  0  0  0  0
  183.2420  180.2730  143.8090 F   0  0  0  0  0  0  0  0  0  0  0  0
  184.6360  178.3140  143.8330 C   0  0  0  0  0  2  0  0  0  0  0  0
  185.6180  179.1340  145.7760 C   0  0  0  0  0  1  0  0  0  0  0  0
  184.7940  178.0630  145.2520 N   0  0  0  0  0  2  0  0  0  0  0  0
  1  7  1  1  0  0  0
  1  6  1  0  0  0  0
  3 11  1  0  0  0  0
  4 20  1  6  0  0  0
  4 12  1  0  0  0  0
  5  3  1  0  0  0  0
  6 11  1  0  0  0  0
  7 12  1  0  0  0  0
  8 10  2  0  0  0  0
  9  3  2  0  0  0  0
 10  2  2  0  0  0  0
 10 13  1  0  0  0  0
 10  4  1  0  0  0  0
 11 34  1  6  0  0  0
 12 17  1  1  0  0  0
 13  5  1  6  0  0  0
 13  1  1  0  0  0  0
 14 15  1  0  0  0  0
 16 15  2  0  0  0  0
 17 18  1  0  0  0  0
 17 19  2  0  0  0  0
 18 14  2  0  0  0  0
 19 16  1  0  0  0  0
 21 20  2  0  0  0  0
 22 26  1  0  0  0  0
 22 25  1  0  0  0  0
 23 21  1  6  0  0  0
 24 28  1  0  0  0  0
 24 23  1  0  0  0  0
 24 30  1  1  0  0  0
 25 23  1  0  0  0  0
 26 24  1  0  0  0  0
 28 29  1  1  0  0  0
 28 27  1  0  0  0  0
 29 27  1  0  0  0  0
 31 33  1  0  0  0  0
 31 30  1  0  0  0  0
 33 32  1  0  0  0  0
 34 36  1  1  0  0  0
 34 42  1  0  0  0  0
 35 37  2  0  0  0  0
 36 37  1  0  0  0  0
 38 40  1  0  0  0  0
 40 36  1  0  0  0  0
 40 39  1  1  0  0  0
 42 41  1  1  0  0  0
 42 43  1  0  0  0  0
 43 44  1  0  0  0  0
 44 45  1  0  0  0  0
 45 46  1  6  0  0  0
 45 47  1  0  0  0  0
 47 49  1  0  0  0  0
 49 48  1  0  0  0  0
M  END
>  <MODEL>
3

>  <REMARK>
 VINA RESULT:      -5.3      2.156      3.213
  Name = 
  16 active torsions:
  status: ('A' for Active; 'I' for Inactive)
    1  A    between atoms: C_6  and  C_36
    2  A    between atoms: C_6  and  O_40
    3  A    between atoms: N_10  and  C_20
    4  A    between atoms: N_10  and  C_21
    5  A    between atoms: C_11  and  C_12
    6  A    between atoms: C_15  and  C_47
    7  A    between atoms: C_16  and  C_42
    8  A    between atoms: C_20  and  C_24
    9  A    between atoms: C_20  and  C_45
   10  A    between atoms: N_23  and  C_36
   11  A    between atoms: C_24  and  C_46
   12  A    between atoms: C_27  and  O_31
   13  A    between atoms: C_27  and  C_34
   14  A    between atoms: O_31  and  C_48
   15  A    between atoms: O_40  and  C_46
   16  A    between atoms: O_44  and  C_48
                            x       y       z     vdW  Elec       q    Type
                         _______ _______ _______ _____ _____    ______ ____

>  <TORSDO>
F 16

$$$$
=
 OpenBabel11062410583D

 49 53  0  0  1  0  0  0  0  0999 V2000
  185.9510  178.1320  137.2430 C   0  0  1  0  0  3  0  0  0  0  0  0
  184.1640  178.0330  140.8500 O   0  0  0  0  0  0  0  0  0  0  0  0
  188.1870  177.1830  138.7340 C   0  0  0  0  0  0  0  0  0  0  0  0
  182.9860  178.0470  138.4110 C   0  0  2  0  0  3  0  0  0  0  0  0
  187.0860  177.9080  139.4720 C   0  0  0  0  0  2  0  0  0  0  0  0
  186.9270  177.1950  136.5170 C   0  0  0  0  0  2  0  0  0  0  0  0
  184.6480  178.2880  136.4450 C   0  0  0  0  0  2  0  0  0  0  0  0
  184.5700  180.0150  139.4470 O   0  0  0  0  0  0  0  0  0  0  0  0
  189.3290  177.2160  139.1730 O   0  0  0  0  0  0  0  0  0  0  0  0
  184.3730  178.5240  139.4470 S   0  0  0  0  0  0  0  0  0  0  0  0
  187.8560  176.4110  137.4670 C   0  0  1  0  0  3  0  0  0  0  0  0
  183.4410  177.5340  137.0250 C   0  0  1  0  0  3  0  0  0  0  0  0
  185.7770  177.7260  138.7130 C   0  0  1  0  0  3  0  0  0  0  0  0
  184.0120  173.8770  137.9480 C   0  0  0  0  0  3  0  0  0  0  0  0
  184.1270  173.2980  136.6810 C   0  0  0  0  0  3  0  0  0  0  0  0
  183.9660  174.0850  135.5360 C   0  0  0  0  0  3  0  0  0  0  0  0
  183.5990  176.0380  136.9290 C   0  0  0  0  0  0  0  0  0  0  0  0
  183.7500  175.2400  138.0720 C   0  0  0  0  0  3  0  0  0  0  0  0
  183.7110  175.4510  135.6610 C   0  0  0  0  0  3  0  0  0  0  0  0
  182.0020  179.1690  138.2880 C   0  0  0  0  0  3  0  0  0  0  0  0
  182.3860  180.4340  138.4630 C   0  0  0  0  0  3  0  0  0  0  0  0
  179.2860  181.0750  138.8670 C   0  0  0  0  0  2  0  0  0  0  0  0
  181.4050  181.5530  138.3060 C   0  0  1  0  0  3  0  0  0  0  0  0
  180.6030  181.6980  136.9720 C   0  0  2  0  0  0  0  0  0  0  0  0
  180.5060  181.5440  139.3860 O   0  0  0  0  0  0  0  0  0  0  0  0
  179.1690  181.5470  137.4380 C   0  0  0  0  0  2  0  0  0  0  0  0
  180.3650  180.9880  134.5940 O   0  0  0  0  0  0  0  0  0  0  0  0
  180.7640  180.5890  135.8890 C   0  0  2  0  0  3  0  0  0  0  0  0
  179.4540  180.1790  135.2940 C   0  0  0  0  0  2  0  0  0  0  0  0
  180.8080  182.9770  136.3680 O   0  0  0  0  0  0  0  0  0  0  0  0
  181.3520  183.8950  137.2890 C   0  0  0  0  0  2  0  0  0  0  0  0
  179.7350  185.2740  136.6910 C   0  0  0  0  0  1  0  0  0  0  0  0
  181.1210  185.1970  136.8360 O   0  0  0  0  0  0  0  0  0  0  0  0
  189.0600  175.7650  136.7560 C   0  0  1  0  0  3  0  0  0  0  0  0
  187.1720  173.4190  134.6590 O   0  0  0  0  0  0  0  0  0  0  0  0
  188.6860  174.5250  136.0750 N   0  0  0  0  0  0  0  0  0  0  0  0
  187.5650  174.4960  135.1760 C   0  0  0  0  0  3  0  0  0  0  0  0
  190.1570  173.4980  137.5870 O   0  0  0  0  0  1  0  0  0  0  0  0
  190.3690  172.9280  135.2730 C   0  0  0  0  0  1  0  0  0  0  0  0
  189.4330  173.3140  136.4060 C   0  0  2  0  0  3  0  0  0  0  0  0
  190.0600  176.3620  134.5940 O   0  0  0  0  0  1  0  0  0  0  0  0
  190.0020  176.7010  135.9480 C   0  0  2  0  0  3  0  0  0  0  0  0
  191.4140  176.8520  136.4940 C   0  0  0  0  0  2  0  0  0  0  0  0
  192.1200  175.6450  136.3620 O   0  0  0  0  0  0  0  0  0  0  0  0
  193.0600  175.5650  137.4160 C   0  0  2  0  0  3  0  0  0  0  0  0
  193.4030  176.8170  137.9000 F   0  0  0  0  0  0  0  0  0  0  0  0
  194.2980  174.7610  137.0310 C   0  0  0  0  0  2  0  0  0  0  0  0
  195.4880  174.2910  138.9750 C   0  0  0  0  0  1  0  0  0  0  0  0
  194.5500  173.7330  138.0220 N   0  0  0  0  0  2  0  0  0  0  0  0
  1  7  1  6  0  0  0
  1 13  1  0  0  0  0
  3  9  2  0  0  0  0
  3  5  1  0  0  0  0
  4 20  1  6  0  0  0
  4 10  1  0  0  0  0
  6  1  1  0  0  0  0
  6 11  1  0  0  0  0
  7 12  1  0  0  0  0
 10  8  2  0  0  0  0
 10  2  2  0  0  0  0
 11 34  1  6  0  0  0
 11  3  1  0  0  0  0
 12 17  1  1  0  0  0
 12  4  1  0  0  0  0
 13 10  1  0  0  0  0
 13  5  1  1  0  0  0
 14 18  1  0  0  0  0
 15 14  2  0  0  0  0
 16 19  2  0  0  0  0
 16 15  1  0  0  0  0
 17 18  2  0  0  0  0
 19 17  1  0  0  0  0
 20 21  2  0  0  0  0
 22 25  1  0  0  0  0
 23 21  1  6  0  0  0
 23 25  1  0  0  0  0
 24 30  1  6  0  0  0
 24 26  1  0  0  0  0
 24 23  1  0  0  0  0
 26 22  1  0  0  0  0
 27 29  1  0  0  0  0
 27 28  1  0  0  0  0
 28 29  1  1  0  0  0
 28 24  1  0  0  0  0
 30 31  1  0  0  0  0
 32 33  1  0  0  0  0
 33 31  1  0  0  0  0
 34 36  1  6  0  0  0
 35 37  2  0  0  0  0
 36 40  1  0  0  0  0
 37 36  1  0  0  0  0
 40 39  1  6  0  0  0
 40 38  1  0  0  0  0
 42 41  1  6  0  0  0
 42 43  1  0  0  0  0
 42 34  1  0  0  0  0
 44 43  1  0  0  0  0
 44 45  1  0  0  0  0
 45 46  1  6  0  0  0
 47 45  1  0  0  0  0
 47 49  1  0  0  0  0
 49 48  1  0  0  0  0
M  END
>  <MODEL>
4

>  <REMARK>
 VINA RESULT:      -4.2      3.695     11.627
  Name = 
  16 active torsions:
  status: ('A' for Active; 'I' for Inactive)
    1  A    between atoms: C_6  and  C_36
    2  A    between atoms: C_6  and  O_40
    3  A    between atoms: N_10  and  C_20
    4  A    between atoms: N_10  and  C_21
    5  A    between atoms: C_11  and  C_12
    6  A    between atoms: C_15  and  C_47
    7  A    between atoms: C_16  and  C_42
    8  A    between atoms: C_20  and  C_24
    9  A    between atoms: C_20  and  C_45
   10  A    between atoms: N_23  and  C_36
   11  A    between atoms: C_24  and  C_46
   12  A    between atoms: C_27  and  O_31
   13  A    between atoms: C_27  and  C_34
   14  A    between atoms: O_31  and  C_48
   15  A    between atoms: O_40  and  C_46
   16  A    between atoms: O_44  and  C_48
                            x       y       z     vdW  Elec       q    Type
                         _______ _______ _______ _____ _____    ______ ____

>  <TORSDO>
F 16

$$$$
=
 OpenBabel11062410583D

 49 53  0  0  1  0  0  0  0  0999 V2000
  183.8360  176.1120  138.3700 C   0  0  1  0  0  3  0  0  0  0  0  0
  186.3590  178.8730  136.8790 O   0  0  0  0  0  0  0  0  0  0  0  0
  183.0210  178.2850  140.0240 C   0  0  0  0  0  0  0  0  0  0  0  0
  185.5550  176.5590  135.7230 C   0  0  2  0  0  3  0  0  0  0  0  0
  184.3890  178.3400  139.3870 C   0  0  0  0  0  2  0  0  0  0  0  0
  182.3630  176.1450  138.8030 C   0  0  0  0  0  2  0  0  0  0  0  0
  184.0480  175.0990  137.2350 C   0  0  0  0  0  2  0  0  0  0  0  0
  186.9580  176.7930  138.0540 O   0  0  0  0  0  0  0  0  0  0  0  0
  182.8250  178.8680  141.0820 O   0  0  0  0  0  0  0  0  0  0  0  0
  185.9110  177.4810  137.2220 S   0  0  0  0  0  0  0  0  0  0  0  0
  181.9040  177.5190  139.3330 C   0  0  1  0  0  3  0  0  0  0  0  0
  184.2610  175.7210  135.8460 C   0  0  1  0  0  3  0  0  0  0  0  0
  184.3700  177.5250  138.0990 C   0  0  1  0  0  3  0  0  0  0  0  0
  181.8210  178.3910  134.6330 C   0  0  0  0  0  3  0  0  0  0  0  0
  180.6290  177.6640  134.5940 C   0  0  0  0  0  3  0  0  0  0  0  0
  180.6310  176.3010  134.9090 C   0  0  0  0  0  3  0  0  0  0  0  0
  183.0200  176.4000  135.3260 C   0  0  0  0  0  0  0  0  0  0  0  0
  183.0110  177.7630  134.9980 C   0  0  0  0  0  3  0  0  0  0  0  0
  181.8210  175.6750  135.2810 C   0  0  0  0  0  3  0  0  0  0  0  0
  186.7250  175.7120  135.3270 C   0  0  0  0  0  3  0  0  0  0  0  0
  187.9680  176.1850  135.4180 C   0  0  0  0  0  3  0  0  0  0  0  0
  189.0950  173.2340  135.8730 C   0  0  0  0  0  2  0  0  0  0  0  0
  189.1360  175.3220  135.0540 C   0  0  1  0  0  3  0  0  0  0  0  0
  190.3730  175.2500  136.0060 C   0  0  2  0  0  0  0  0  0  0  0  0
  188.6870  174.0180  134.7800 O   0  0  0  0  0  0  0  0  0  0  0  0
  190.4050  173.7830  136.3850 C   0  0  0  0  0  2  0  0  0  0  0  0
  191.3210  176.9390  137.5760 O   0  0  0  0  0  0  0  0  0  0  0  0
  190.2940  175.9890  137.3750 C   0  0  2  0  0  3  0  0  0  0  0  0
  191.4820  175.7120  138.2420 C   0  0  0  0  0  2  0  0  0  0  0  0
  191.5780  175.6270  135.3370 O   0  0  0  0  0  0  0  0  0  0  0  0
  192.3360  174.4960  134.9740 C   0  0  0  0  0  2  0  0  0  0  0  0
  194.0690  175.8400  135.2310 C   0  0  0  0  0  1  0  0  0  0  0  0
  193.5970  174.5710  135.5740 O   0  0  0  0  0  0  0  0  0  0  0  0
  180.5690  177.4680  140.0990 C   0  0  1  0  0  3  0  0  0  0  0  0
  179.0240  180.3910  138.5070 O   0  0  0  0  0  0  0  0  0  0  0  0
  179.8090  178.7100  139.9480 N   0  0  0  0  0  0  0  0  0  0  0  0
  179.5890  179.2760  138.6460 C   0  0  0  0  0  3  0  0  0  0  0  0
  180.0210  180.6130  141.3050 O   0  0  0  0  0  1  0  0  0  0  0  0
  179.6050  178.5200  142.3870 C   0  0  0  0  0  1  0  0  0  0  0  0
  179.3640  179.3880  141.1640 C   0  0  2  0  0  3  0  0  0  0  0  0
  180.1100  175.2010  140.9250 O   0  0  0  0  0  1  0  0  0  0  0  0
  179.7280  176.1650  139.9900 C   0  0  2  0  0  3  0  0  0  0  0  0
  179.6610  175.5330  138.6080 C   0  0  0  0  0  2  0  0  0  0  0  0
  179.5270  174.1390  138.7150 O   0  0  0  0  0  0  0  0  0  0  0  0
  179.9120  173.5610  137.4830 C   0  0  2  0  0  3  0  0  0  0  0  0
  178.9820  173.8040  136.4850 F   0  0  0  0  0  0  0  0  0  0  0  0
  180.2130  172.0710  137.6090 C   0  0  0  0  0  2  0  0  0  0  0  0
  182.3870  171.7270  136.8540 C   0  0  0  0  0  1  0  0  0  0  0  0
  180.9940  171.6250  136.4710 N   0  0  0  0  0  2  0  0  0  0  0  0
  1  7  1  6  0  0  0
  1  6  1  0  0  0  0
  2 10  2  0  0  0  0
  3  9  2  0  0  0  0
  4 20  1  1  0  0  0
  4 12  1  0  0  0  0
  4 10  1  0  0  0  0
  5  3  1  0  0  0  0
  6 11  1  0  0  0  0
 10  8  2  0  0  0  0
 10 13  1  0  0  0  0
 11  3  1  0  0  0  0
 11 34  1  1  0  0  0
 12 17  1  1  0  0  0
 12  7  1  0  0  0  0
 13  1  1  0  0  0  0
 13  5  1  1  0  0  0
 14 18  1  0  0  0  0
 15 14  2  0  0  0  0
 15 16  1  0  0  0  0
 16 19  2  0  0  0  0
 18 17  2  0  0  0  0
 19 17  1  0  0  0  0
 20 21  2  0  0  0  0
 22 26  1  0  0  0  0
 23 21  1  1  0  0  0
 23 24  1  0  0  0  0
 24 30  1  6  0  0  0
 24 26  1  0  0  0  0
 24 28  1  0  0  0  0
 25 23  1  0  0  0  0
 25 22  1  0  0  0  0
 27 29  1  0  0  0  0
 28 27  1  0  0  0  0
 28 29  1  1  0  0  0
 31 30  1  0  0  0  0
 31 33  1  0  0  0  0
 32 33  1  0  0  0  0
 34 36  1  6  0  0  0
 35 37  2  0  0  0  0
 36 40  1  0  0  0  0
 37 36  1  0  0  0  0
 40 38  1  0  0  0  0
 40 39  1  1  0  0  0
 42 34  1  0  0  0  0
 42 41  1  1  0  0  0
 43 44  1  0  0  0  0
 43 42  1  0  0  0  0
 45 46  1  6  0  0  0
 45 47  1  0  0  0  0
 45 44  1  0  0  0  0
 49 48  1  0  0  0  0
 49 47  1  0  0  0  0
M  END
>  <MODEL>
5

>  <REMARK>
 VINA RESULT:      -4.1      3.387      6.621
  Name = 
  16 active torsions:
  status: ('A' for Active; 'I' for Inactive)
    1  A    between atoms: C_6  and  C_36
    2  A    between atoms: C_6  and  O_40
    3  A    between atoms: N_10  and  C_20
    4  A    between atoms: N_10  and  C_21
    5  A    between atoms: C_11  and  C_12
    6  A    between atoms: C_15  and  C_47
    7  A    between atoms: C_16  and  C_42
    8  A    between atoms: C_20  and  C_24
    9  A    between atoms: C_20  and  C_45
   10  A    between atoms: N_23  and  C_36
   11  A    between atoms: C_24  and  C_46
   12  A    between atoms: C_27  and  O_31
   13  A    between atoms: C_27  and  C_34
   14  A    between atoms: O_31  and  C_48
   15  A    between atoms: O_40  and  C_46
   16  A    between atoms: O_44  and  C_48
                            x       y       z     vdW  Elec       q    Type
                         _______ _______ _______ _____ _____    ______ ____

>  <TORSDO>
F 16

$$$$
=
 OpenBabel11062410583D

 49 53  0  0  1  0  0  0  0  0999 V2000
  184.5380  179.4600  140.3990 C   0  0  1  0  0  3  0  0  0  0  0  0
  181.0740  177.6970  141.4510 O   0  0  0  0  0  0  0  0  0  0  0  0
  185.5380  177.9830  142.6220 C   0  0  0  0  0  0  0  0  0  0  0  0
  181.7230  178.7940  139.0600 C   0  0  2  0  0  3  0  0  0  0  0  0
  184.0570  178.2710  142.5580 C   0  0  0  0  0  2  0  0  0  0  0  0
  185.9930  178.9740  140.3170 C   0  0  0  0  0  2  0  0  0  0  0  0
  184.0430  179.9340  139.0240 C   0  0  0  0  0  2  0  0  0  0  0  0
  181.5740  180.1080  141.4490 O   0  0  0  0  0  0  0  0  0  0  0  0
  186.0770  177.8360  143.7120 O   0  0  0  0  0  0  0  0  0  0  0  0
  181.9240  178.7770  140.8450 S   0  0  0  0  0  0  0  0  0  0  0  0
  186.3330  177.8640  141.3320 C   0  0  1  0  0  3  0  0  0  0  0  0
  183.0700  178.9750  138.3220 C   0  0  1  0  0  3  0  0  0  0  0  0
  183.6440  178.4270  141.0990 C   0  0  1  0  0  3  0  0  0  0  0  0
  185.2120  176.4430  136.4380 C   0  0  0  0  0  3  0  0  0  0  0  0
  184.7620  175.2450  136.9980 C   0  0  0  0  0  3  0  0  0  0  0  0
  183.8060  175.2660  138.0190 C   0  0  0  0  0  3  0  0  0  0  0  0
  183.7350  177.6900  137.9020 C   0  0  0  0  0  0  0  0  0  0  0  0
  184.7010  177.6600  136.8860 C   0  0  0  0  0  3  0  0  0  0  0  0
  183.2890  176.4850  138.4630 C   0  0  0  0  0  3  0  0  0  0  0  0
  180.7230  179.8280  138.6460 C   0  0  0  0  0  3  0  0  0  0  0  0
  180.6840  180.2750  137.3910 C   0  0  0  0  0  3  0  0  0  0  0  0
  179.3690  181.5220  134.7640 C   0  0  0  0  0  2  0  0  0  0  0  0
  179.6600  181.2840  136.9760 C   0  0  1  0  0  3  0  0  0  0  0  0
  180.0970  182.7550  136.6790 C   0  0  2  0  0  0  0  0  0  0  0  0
  178.9310  180.7890  135.8800 O   0  0  0  0  0  0  0  0  0  0  0  0
  179.7110  182.9200  135.2230 C   0  0  0  0  0  2  0  0  0  0  0  0
  182.2220  182.9230  137.9710 O   0  0  0  0  0  0  0  0  0  0  0  0
  181.6180  183.0920  136.7050 C   0  0  2  0  0  3  0  0  0  0  0  0
  181.9310  184.2470  137.6030 C   0  0  0  0  0  2  0  0  0  0  0  0
  179.3940  183.6910  137.4980 O   0  0  0  0  0  0  0  0  0  0  0  0
  178.9340  184.7870  136.7420 C   0  0  0  0  0  2  0  0  0  0  0  0
  178.9320  185.4480  138.8500 C   0  0  0  0  0  1  0  0  0  0  0  0
  178.9370  185.9350  137.5410 O   0  0  0  0  0  0  0  0  0  0  0  0
  187.8460  177.6360  141.5100 C   0  0  1  0  0  3  0  0  0  0  0  0
  190.3410  176.3640  139.1380 O   0  0  0  0  0  0  0  0  0  0  0  0
  188.5000  177.3230  140.2380 N   0  0  0  0  0  0  0  0  0  0  0  0
  189.7160  176.5580  140.2120 C   0  0  0  0  0  3  0  0  0  0  0  0
  187.6700  176.8710  138.0900 O   0  0  0  0  0  1  0  0  0  0  0  0
  188.8420  178.9320  138.4160 C   0  0  0  0  0  1  0  0  0  0  0  0
  187.9220  177.8840  139.0190 C   0  0  2  0  0  3  0  0  0  0  0  0
  189.0120  179.7860  141.7370 O   0  0  0  0  0  1  0  0  0  0  0  0
  188.6200  178.6320  142.4190 C   0  0  2  0  0  3  0  0  0  0  0  0
  189.8120  178.0560  143.1700 C   0  0  0  0  0  2  0  0  0  0  0  0
  189.3820  177.3860  144.3260 O   0  0  0  0  0  0  0  0  0  0  0  0
  190.4460  177.3840  145.2580 C   0  0  2  0  0  3  0  0  0  0  0  0
  191.4420  176.4880  144.9040 F   0  0  0  0  0  0  0  0  0  0  0  0
  189.9680  177.1440  146.6870 C   0  0  0  0  0  2  0  0  0  0  0  0
  188.1370  177.4230  148.0950 C   0  0  0  0  0  1  0  0  0  0  0  0
  188.8590  178.0260  146.9930 N   0  0  0  0  0  2  0  0  0  0  0  0
  1  7  1  6  0  0  0
  1 13  1  0  0  0  0
  3  9  2  0  0  0  0
  4 20  1  1  0  0  0
  4 10  1  0  0  0  0
  5  3  1  0  0  0  0
  6  1  1  0  0  0  0
  6 11  1  0  0  0  0
 10 13  1  0  0  0  0
 10  8  2  0  0  0  0
 10  2  2  0  0  0  0
 11 34  1  1  0  0  0
 11  3  1  0  0  0  0
 12 17  1  1  0  0  0
 12  7  1  0  0  0  0
 12  4  1  0  0  0  0
 13  5  1  1  0  0  0
 14 18  2  0  0  0  0
 14 15  1  0  0  0  0
 15 16  2  0  0  0  0
 16 19  1  0  0  0  0
 17 19  2  0  0  0  0
 18 17  1  0  0  0  0
 21 20  2  0  0  0  0
 22 26  1  0  0  0  0
 22 25  1  0  0  0  0
 23 21  1  6  0  0  0
 24 28  1  0  0  0  0
 24 23  1  0  0  0  0
 24 30  1  1  0  0  0
 25 23  1  0  0  0  0
 26 24  1  0  0  0  0
 28 29  1  1  0  0  0
 28 27  1  0  0  0  0
 29 27  1  0  0  0  0
 31 30  1  0  0  0  0
 31 33  1  0  0  0  0
 33 32  1  0  0  0  0
 34 36  1  6  0  0  0
 34 42  1  0  0  0  0
 35 37  2  0  0  0  0
 37 36  1  0  0  0  0
 38 40  1  0  0  0  0
 40 39  1  6  0  0  0
 40 36  1  0  0  0  0
 42 41  1  6  0  0  0
 42 43  1  0  0  0  0
 43 44  1  0  0  0  0
 44 45  1  0  0  0  0
 45 46  1  6  0  0  0
 45 47  1  0  0  0  0
 47 49  1  0  0  0  0
 49 48  1  0  0  0  0
M  END
>  <MODEL>
6

>  <REMARK>
 VINA RESULT:      -3.9      4.905     11.774
  Name = 
  16 active torsions:
  status: ('A' for Active; 'I' for Inactive)
    1  A    between atoms: C_6  and  C_36
    2  A    between atoms: C_6  and  O_40
    3  A    between atoms: N_10  and  C_20
    4  A    between atoms: N_10  and  C_21
    5  A    between atoms: C_11  and  C_12
    6  A    between atoms: C_15  and  C_47
    7  A    between atoms: C_16  and  C_42
    8  A    between atoms: C_20  and  C_24
    9  A    between atoms: C_20  and  C_45
   10  A    between atoms: N_23  and  C_36
   11  A    between atoms: C_24  and  C_46
   12  A    between atoms: C_27  and  O_31
   13  A    between atoms: C_27  and  C_34
   14  A    between atoms: O_31  and  C_48
   15  A    between atoms: O_40  and  C_46
   16  A    between atoms: O_44  and  C_48
                            x       y       z     vdW  Elec       q    Type
                         _______ _______ _______ _____ _____    ______ ____

>  <TORSDO>
F 16

$$$$
=
 OpenBabel11062410583D

 49 53  0  0  1  0  0  0  0  0999 V2000
  190.6190  175.7960  139.3630 C   0  0  1  0  0  3  0  0  0  0  0  0
  193.7300  177.5210  137.4760 O   0  0  0  0  0  0  0  0  0  0  0  0
  191.2280  177.7380  141.3590 C   0  0  0  0  0  0  0  0  0  0  0  0
  191.7540  176.0170  136.3920 C   0  0  2  0  0  3  0  0  0  0  0  0
  192.3080  177.3550  140.3750 C   0  0  0  0  0  2  0  0  0  0  0  0
  189.4440  176.3420  140.1880 C   0  0  0  0  0  2  0  0  0  0  0  0
  190.1120  175.0320  138.1300 C   0  0  0  0  0  2  0  0  0  0  0  0
  193.5720  175.1910  138.2550 O   0  0  0  0  0  0  0  0  0  0  0  0
  191.5420  178.1280  142.4760 O   0  0  0  0  0  0  0  0  0  0  0  0
  192.7920  176.3960  137.8080 S   0  0  0  0  0  0  0  0  0  0  0  0
  189.7700  177.6490  140.9400 C   0  0  1  0  0  3  0  0  0  0  0  0
  190.2810  175.7750  136.7960 C   0  0  1  0  0  3  0  0  0  0  0  0
  191.6560  176.8910  139.0780 C   0  0  1  0  0  3  0  0  0  0  0  0
  188.9570  179.3380  137.1240 C   0  0  0  0  0  3  0  0  0  0  0  0
  187.6290  179.1660  136.7240 C   0  0  0  0  0  3  0  0  0  0  0  0
  187.1840  177.9100  136.3000 C   0  0  0  0  0  3  0  0  0  0  0  0
  189.3950  176.9910  136.7000 C   0  0  0  0  0  0  0  0  0  0  0  0
  189.8360  178.2560  137.1130 C   0  0  0  0  0  3  0  0  0  0  0  0
  188.0630  176.8250  136.2960 C   0  0  0  0  0  3  0  0  0  0  0  0
  192.3110  174.8640  135.6170 C   0  0  0  0  0  3  0  0  0  0  0  0
  193.5230  174.3800  135.8920 C   0  0  0  0  0  3  0  0  0  0  0  0
  193.3390  171.1950  135.8250 C   0  0  0  0  0  2  0  0  0  0  0  0
  194.0590  173.2050  135.1370 C   0  0  1  0  0  3  0  0  0  0  0  0
  195.3470  172.4800  135.6450 C   0  0  2  0  0  0  0  0  0  0  0  0
  193.0370  172.2580  134.9550 O   0  0  0  0  0  0  0  0  0  0  0  0
  194.8410  171.0780  135.9230 C   0  0  0  0  0  2  0  0  0  0  0  0
  196.6430  171.9070  137.6960 O   0  0  0  0  0  0  0  0  0  0  0  0
  195.9610  172.9330  137.0030 C   0  0  2  0  0  3  0  0  0  0  0  0
  195.3570  172.2160  138.1700 C   0  0  0  0  0  2  0  0  0  0  0  0
  196.3710  172.4600  134.6490 O   0  0  0  0  0  0  0  0  0  0  0  0
  197.0580  173.6900  134.5990 C   0  0  0  0  0  2  0  0  0  0  0  0
  198.9570  174.6560  135.1810 C   0  0  0  0  0  1  0  0  0  0  0  0
  198.4330  173.4560  134.6950 O   0  0  0  0  0  0  0  0  0  0  0  0
  188.7470  177.9970  142.0390 C   0  0  1  0  0  3  0  0  0  0  0  0
  186.0900  178.6380  139.5900 O   0  0  0  0  0  0  0  0  0  0  0  0
  187.4080  178.2050  141.4860 N   0  0  0  0  0  0  0  0  0  0  0  0
  187.2190  178.3620  140.0710 C   0  0  0  0  0  3  0  0  0  0  0  0
  185.2540  177.4730  142.0620 O   0  0  0  0  0  1  0  0  0  0  0  0
  185.7980  179.7640  142.4860 C   0  0  0  0  0  1  0  0  0  0  0  0
  186.2950  178.3310  142.4260 C   0  0  2  0  0  3  0  0  0  0  0  0
  188.1370  175.9400  143.2350 O   0  0  0  0  0  1  0  0  0  0  0  0
  188.7950  177.1670  143.3520 C   0  0  2  0  0  3  0  0  0  0  0  0
  188.3150  177.8820  144.6060 C   0  0  0  0  0  2  0  0  0  0  0  0
  189.4010  178.1750  145.4470 O   0  0  0  0  0  0  0  0  0  0  0  0
  189.6600  177.0370  146.2470 C   0  0  2  0  0  3  0  0  0  0  0  0
  188.8360  176.9890  147.3600 F   0  0  0  0  0  0  0  0  0  0  0  0
  191.1300  176.9260  146.6410 C   0  0  0  0  0  2  0  0  0  0  0  0
  192.5930  175.6840  147.9560 C   0  0  0  0  0  1  0  0  0  0  0  0
  191.4160  175.5870  147.1160 N   0  0  0  0  0  2  0  0  0  0  0  0
  1  7  1  6  0  0  0
  1  6  1  0  0  0  0
  2 10  2  0  0  0  0
  3  9  2  0  0  0  0
  4 20  1  1  0  0  0
  4 12  1  0  0  0  0
  4 10  1  0  0  0  0
  5  3  1  0  0  0  0
  6 11  1  0  0  0  0
 10  8  2  0  0  0  0
 10 13  1  0  0  0  0
 11  3  1  0  0  0  0
 11 34  1  1  0  0  0
 12 17  1  1  0  0  0
 12  7  1  0  0  0  0
 13  1  1  0  0  0  0
 13  5  1  1  0  0  0
 15 14  2  0  0  0  0
 16 15  1  0  0  0  0
 17 18  2  0  0  0  0
 18 14  1  0  0  0  0
 19 16  2  0  0  0  0
 19 17  1  0  0  0  0
 20 21  2  0  0  0  0
 22 26  1  0  0  0  0
 23 24  1  0  0  0  0
 23 21  1  1  0  0  0
 24 30  1  6  0  0  0
 24 26  1  0  0  0  0
 24 28  1  0  0  0  0
 25 23  1  0  0  0  0
 25 22  1  0  0  0  0
 27 29  1  0  0  0  0
 28 27  1  0  0  0  0
 28 29  1  1  0  0  0
 31 30  1  0  0  0  0
 31 33  1  0  0  0  0
 33 32  1  0  0  0  0
 34 36  1  6  0  0  0
 34 42  1  0  0  0  0
 35 37  2  0  0  0  0
 36 40  1  0  0  0  0
 37 36  1  0  0  0  0
 38 40  1  0  0  0  0
 40 39  1  6  0  0  0
 42 41  1  6  0  0  0
 42 43  1  0  0  0  0
 43 44  1  0  0  0  0
 44 45  1  0  0  0  0
 45 47  1  0  0  0  0
 45 46  1  1  0  0  0
 47 49  1  0  0  0  0
 49 48  1  0  0  0  0
M  END
>  <MODEL>
7

>  <REMARK>
 VINA RESULT:      -3.8      4.209      6.949
  Name = 
  16 active torsions:
  status: ('A' for Active; 'I' for Inactive)
    1  A    between atoms: C_6  and  C_36
    2  A    between atoms: C_6  and  O_40
    3  A    between atoms: N_10  and  C_20
    4  A    between atoms: N_10  and  C_21
    5  A    between atoms: C_11  and  C_12
    6  A    between atoms: C_15  and  C_47
    7  A    between atoms: C_16  and  C_42
    8  A    between atoms: C_20  and  C_24
    9  A    between atoms: C_20  and  C_45
   10  A    between atoms: N_23  and  C_36
   11  A    between atoms: C_24  and  C_46
   12  A    between atoms: C_27  and  O_31
   13  A    between atoms: C_27  and  C_34
   14  A    between atoms: O_31  and  C_48
   15  A    between atoms: O_40  and  C_46
   16  A    between atoms: O_44  and  C_48
                            x       y       z     vdW  Elec       q    Type
                         _______ _______ _______ _____ _____    ______ ____

>  <TORSDO>
F 16

$$$$
