=
 OpenBabel11062412583D

 38 41  0  0  1  0  0  0  0  0999 V2000
  191.8330  176.7420  147.5380 N   0  0  0  0  0  1  0  0  0  0  0  0
  188.7520  176.9610  143.9000 C   0  0  1  0  0  3  0  0  0  0  0  0
  190.7080  178.5700  144.2060 C   0  0  0  0  0  2  0  0  0  0  0  0
  189.4170  176.8080  147.4730 C   0  0  0  0  0  2  0  0  0  0  0  0
  190.2740  177.1060  144.1610 C   0  0  1  0  0  0  0  0  0  0  0  0
  192.0590  177.5160  142.5130 C   0  0  1  0  0  3  0  0  0  0  0  0
  188.3240  177.8580  147.2250 C   0  0  0  0  0  2  0  0  0  0  0  0
  190.6970  177.1200  146.7180 C   0  0  2  0  0  3  0  0  0  0  0  0
  192.0690  178.6180  143.5530 C   0  0  0  0  0  2  0  0  0  0  0  0
  187.8540  177.1230  145.1400 C   0  0  1  0  0  3  0  0  0  0  0  0
  188.2200  178.2580  145.8780 O   0  0  0  0  0  0  0  0  0  0  0  0
  190.7440  176.3300  145.4090 C   0  0  0  0  0  2  0  0  0  0  0  0
  191.0170  176.5080  142.9730 C   0  0  0  0  0  2  0  0  0  0  0  0
  185.8760  178.2260  144.1580 C   0  0  0  0  0  3  0  0  0  0  0  0
  186.4030  177.1640  144.7690 C   0  0  0  0  0  3  0  0  0  0  0  0
  184.4200  178.2940  143.7810 C   0  0  2  0  0  3  0  0  0  0  0  0
  185.2590  178.9440  141.5170 C   0  0  0  0  0  3  0  0  0  0  0  0
  183.8300  178.9110  139.5620 C   0  0  0  0  0  3  0  0  0  0  0  0
  182.9410  178.2760  141.7210 C   0  0  0  0  0  3  0  0  0  0  0  0
  182.7600  178.4770  140.3500 C   0  0  0  0  0  3  0  0  0  0  0  0
  185.0800  179.1450  140.1450 C   0  0  0  0  0  3  0  0  0  0  0  0
  184.1930  178.5100  142.3120 C   0  0  0  0  0  0  0  0  0  0  0  0
  183.5350  179.0540  145.8800 O   0  0  0  0  0  1  0  0  0  0  0  0
  183.6340  179.2400  144.6380 C   0  0  0  0  0  0  0  0  0  0  0  0
  183.0070  180.3310  144.0540 O   0  0  0  0  0  0  0  0  0  0  0  0
  188.3180  176.9990  141.7210 C   0  0  0  0  0  1  0  0  0  0  0  0
  188.3390  177.8080  142.8600 O   0  0  0  0  0  0  0  0  0  0  0  0
  191.6710  178.0490  141.2500 O   0  0  0  0  0  0  0  0  0  0  0  0
  193.4710  176.1560  138.6110 C   0  0  0  0  0  0  0  0  0  0  0  0
  191.2560  176.6960  137.8120 C   0  0  0  0  0  3  0  0  0  0  0  0
  194.7190  175.5740  138.4180 O   0  0  0  0  0  1  0  0  0  0  0  0
  193.1910  176.8050  139.8130 C   0  0  0  0  0  3  0  0  0  0  0  0
  192.4990  176.0960  137.6100 C   0  0  0  0  0  0  0  0  0  0  0  0
  190.9620  177.3610  139.0080 C   0  0  0  0  0  0  0  0  0  0  0  0
  191.9420  177.4140  140.0310 C   0  0  0  0  0  0  0  0  0  0  0  0
  192.7650  175.4490  136.4080 O   0  0  0  0  0  1  0  0  0  0  0  0
  189.6890  177.9410  139.1200 O   0  0  0  0  0  0  0  0  0  0  0  0
  189.0340  178.6580  138.0850 C   0  0  0  0  0  1  0  0  0  0  0  0
  2 27  1  6  0  0  0
  2  5  1  0  0  0  0
  2 10  1  0  0  0  0
  5 13  1  6  0  0  0
  5  3  1  0  0  0  0
  5 12  1  0  0  0  0
  6 28  1  6  0  0  0
  6 13  1  0  0  0  0
  6  9  1  0  0  0  0
  7  4  1  0  0  0  0
  8  4  1  0  0  0  0
  8  1  1  1  0  0  0
  9  3  1  0  0  0  0
 10 15  1  6  0  0  0
 10 11  1  0  0  0  0
 11  7  1  0  0  0  0
 12  8  1  0  0  0  0
 14 15  2  0  0  0  0
 16 14  1  6  0  0  0
 16 24  1  0  0  0  0
 17 22  1  0  0  0  0
 18 21  1  0  0  0  0
 18 20  2  0  0  0  0
 19 22  2  0  0  0  0
 20 19  1  0  0  0  0
 21 17  2  0  0  0  0
 22 16  1  0  0  0  0
 24 23  1  0  0  0  0
 25 24  2  0  0  0  0
 26 27  1  0  0  0  0
 29 32  1  0  0  0  0
 30 34  2  0  0  0  0
 31 29  1  0  0  0  0
 32 35  2  0  0  0  0
 33 30  1  0  0  0  0
 33 29  2  0  0  0  0
 34 37  1  0  0  0  0
 34 35  1  0  0  0  0
 35 28  1  0  0  0  0
 36 33  1  0  0  0  0
 38 37  1  0  0  0  0
M  END
>  <MODEL>
1

>  <REMARK>
 VINA RESULT:      -9.0      0.000      0.000
  Name = 
  8 active torsions:
  status: ('A' for Active; 'I' for Inactive)
    1  A    between atoms: C_4  and  C_18
    2  A    between atoms: C_4  and  C_23
    3  A    between atoms: C_4  and  C_37
    4  A    between atoms: C_6  and  O_28
    5  A    between atoms: O_8  and  C_25
    6  A    between atoms: C_19  and  O_32
    7  A    between atoms: C_20  and  C_31
    8  A    between atoms: C_26  and  O_32
                            x       y       z     vdW  Elec       q    Type
                         _______ _______ _______ _____ _____    ______ ____

>  <TORSDO>
F 8

$$$$
=
 OpenBabel11062412583D

 38 41  0  0  1  0  0  0  0  0999 V2000
  191.8590  176.7060  147.4990 N   0  0  0  0  0  1  0  0  0  0  0  0
  188.7560  176.9390  143.8800 C   0  0  1  0  0  3  0  0  0  0  0  0
  190.7300  178.5300  144.1660 C   0  0  0  0  0  2  0  0  0  0  0  0
  189.4440  176.7950  147.4500 C   0  0  0  0  0  2  0  0  0  0  0  0
  190.2810  177.0700  144.1310 C   0  0  1  0  0  0  0  0  0  0  0  0
  192.0590  177.4550  142.4690 C   0  0  1  0  0  3  0  0  0  0  0  0
  188.3600  177.8550  147.2040 C   0  0  0  0  0  2  0  0  0  0  0  0
  190.7220  177.0920  146.6850 C   0  0  2  0  0  3  0  0  0  0  0  0
  192.0870  178.5610  143.5040 C   0  0  0  0  0  2  0  0  0  0  0  0
  187.8680  177.1160  145.1250 C   0  0  1  0  0  3  0  0  0  0  0  0
  188.2510  178.2510  145.8560 O   0  0  0  0  0  0  0  0  0  0  0  0
  190.7520  176.2950  145.3790 C   0  0  0  0  0  2  0  0  0  0  0  0
  191.0100  176.4600  142.9400 C   0  0  0  0  0  2  0  0  0  0  0  0
  185.9040  178.2160  144.1130 C   0  0  0  0  0  3  0  0  0  0  0  0
  186.4150  177.1710  144.7640 C   0  0  0  0  0  3  0  0  0  0  0  0
  184.4460  178.2970  143.7440 C   0  0  2  0  0  3  0  0  0  0  0  0
  185.2660  178.9850  141.4840 C   0  0  0  0  0  3  0  0  0  0  0  0
  183.8380  178.9190  139.5290 C   0  0  0  0  0  3  0  0  0  0  0  0
  182.9680  178.2460  141.6840 C   0  0  0  0  0  3  0  0  0  0  0  0
  182.7820  178.4480  140.3150 C   0  0  0  0  0  3  0  0  0  0  0  0
  185.0800  179.1870  140.1130 C   0  0  0  0  0  3  0  0  0  0  0  0
  184.2130  178.5140  142.2760 C   0  0  0  0  0  0  0  0  0  0  0  0
  183.6160  179.0910  145.8530 O   0  0  0  0  0  1  0  0  0  0  0  0
  183.6750  179.2510  144.6050 C   0  0  0  0  0  0  0  0  0  0  0  0
  183.0150  180.3210  144.0180 O   0  0  0  0  0  0  0  0  0  0  0  0
  188.3020  176.9710  141.7060 C   0  0  0  0  0  1  0  0  0  0  0  0
  188.3450  177.7860  142.8400 O   0  0  0  0  0  0  0  0  0  0  0  0
  191.6690  177.9860  141.2060 O   0  0  0  0  0  0  0  0  0  0  0  0
  190.6020  176.2340  138.1110 C   0  0  0  0  0  0  0  0  0  0  0  0
  193.0100  176.1270  138.2790 C   0  0  0  0  0  3  0  0  0  0  0  0
  189.4210  175.9300  137.4440 O   0  0  0  0  0  1  0  0  0  0  0  0
  190.5550  176.9470  139.3090 C   0  0  0  0  0  3  0  0  0  0  0  0
  191.8340  175.8280  137.5920 C   0  0  0  0  0  0  0  0  0  0  0  0
  192.9800  176.8330  139.4880 C   0  0  0  0  0  0  0  0  0  0  0  0
  191.7320  177.2560  140.0120 C   0  0  0  0  0  0  0  0  0  0  0  0
  191.8960  175.1190  136.3970 O   0  0  0  0  0  1  0  0  0  0  0  0
  194.2110  177.0820  140.1130 O   0  0  0  0  0  0  0  0  0  0  0  0
  195.2390  176.1190  140.2880 C   0  0  0  0  0  1  0  0  0  0  0  0
  2 27  1  6  0  0  0
  2  5  1  0  0  0  0
  2 10  1  0  0  0  0
  5 13  1  6  0  0  0
  5  3  1  0  0  0  0
  5 12  1  0  0  0  0
  6 28  1  6  0  0  0
  6 13  1  0  0  0  0
  6  9  1  0  0  0  0
  7  4  1  0  0  0  0
  8  4  1  0  0  0  0
  8  1  1  1  0  0  0
  9  3  1  0  0  0  0
 10 15  1  6  0  0  0
 10 11  1  0  0  0  0
 11  7  1  0  0  0  0
 12  8  1  0  0  0  0
 14 15  2  0  0  0  0
 16 14  1  6  0  0  0
 16 24  1  0  0  0  0
 17 22  1  0  0  0  0
 18 21  1  0  0  0  0
 18 20  2  0  0  0  0
 19 22  2  0  0  0  0
 20 19  1  0  0  0  0
 21 17  2  0  0  0  0
 22 16  1  0  0  0  0
 24 23  1  0  0  0  0
 25 24  2  0  0  0  0
 26 27  1  0  0  0  0
 29 32  1  0  0  0  0
 30 34  2  0  0  0  0
 31 29  1  0  0  0  0
 32 35  2  0  0  0  0
 33 29  2  0  0  0  0
 33 30  1  0  0  0  0
 34 35  1  0  0  0  0
 34 37  1  0  0  0  0
 35 28  1  0  0  0  0
 36 33  1  0  0  0  0
 37 38  1  0  0  0  0
M  END
>  <MODEL>
2

>  <REMARK>
 VINA RESULT:      -8.5      0.765      1.825
  Name = 
  8 active torsions:
  status: ('A' for Active; 'I' for Inactive)
    1  A    between atoms: C_4  and  C_18
    2  A    between atoms: C_4  and  C_23
    3  A    between atoms: C_4  and  C_37
    4  A    between atoms: C_6  and  O_28
    5  A    between atoms: O_8  and  C_25
    6  A    between atoms: C_19  and  O_32
    7  A    between atoms: C_20  and  C_31
    8  A    between atoms: C_26  and  O_32
                            x       y       z     vdW  Elec       q    Type
                         _______ _______ _______ _____ _____    ______ ____

>  <TORSDO>
F 8

$$$$
=
 OpenBabel11062412583D

 38 41  0  0  1  0  0  0  0  0999 V2000
  179.3510  179.1150  140.2080 N   0  0  0  0  0  1  0  0  0  0  0  0
  184.0280  178.8820  141.1290 C   0  0  1  0  0  3  0  0  0  0  0  0
  182.6510  176.9200  140.2570 C   0  0  0  0  0  2  0  0  0  0  0  0
  180.6400  179.7040  142.1670 C   0  0  0  0  0  2  0  0  0  0  0  0
  183.0150  178.3910  140.0630 C   0  0  1  0  0  0  0  0  0  0  0  0
  183.4810  177.1190  138.0050 C   0  0  1  0  0  3  0  0  0  0  0  0
  181.3380  178.9680  143.3200 C   0  0  0  0  0  2  0  0  0  0  0  0
  180.6080  178.8780  140.8930 C   0  0  2  0  0  3  0  0  0  0  0  0
  182.5090  176.3420  138.8690 C   0  0  0  0  0  2  0  0  0  0  0  0
  183.4160  179.2780  142.4850 C   0  0  1  0  0  3  0  0  0  0  0  0
  182.5160  178.2990  142.9330 O   0  0  0  0  0  0  0  0  0  0  0  0
  181.7610  179.2840  139.9720 C   0  0  0  0  0  2  0  0  0  0  0  0
  183.6930  178.4550  138.7000 C   0  0  0  0  0  2  0  0  0  0  0  0
  184.8610  178.6060  144.3700 C   0  0  0  0  0  3  0  0  0  0  0  0
  184.4730  179.5490  143.5110 C   0  0  0  0  0  3  0  0  0  0  0  0
  185.9180  178.8560  145.4130 C   0  0  2  0  0  3  0  0  0  0  0  0
  187.3550  177.3890  143.9860 C   0  0  0  0  0  3  0  0  0  0  0  0
  189.4780  176.5260  144.7670 C   0  0  0  0  0  3  0  0  0  0  0  0
  188.1410  177.9330  146.2120 C   0  0  0  0  0  3  0  0  0  0  0  0
  189.2940  177.1760  145.9910 C   0  0  0  0  0  3  0  0  0  0  0  0
  188.5090  176.6330  143.7650 C   0  0  0  0  0  3  0  0  0  0  0  0
  187.1640  178.0420  145.2090 C   0  0  0  0  0  0  0  0  0  0  0  0
  184.6670  177.8100  147.1770 O   0  0  0  0  0  0  0  0  0  0  0  0
  185.3900  178.7750  146.8140 C   0  0  0  0  0  0  0  0  0  0  0  0
  185.7020  179.7780  147.7210 O   0  0  0  0  0  1  0  0  0  0  0  0
  186.2220  178.6310  140.8810 C   0  0  0  0  0  1  0  0  0  0  0  0
  185.0690  177.9560  141.2940 O   0  0  0  0  0  0  0  0  0  0  0  0
  184.7240  176.4250  137.9340 O   0  0  0  0  0  0  0  0  0  0  0  0
  187.7070  178.3060  136.7740 C   0  0  0  0  0  0  0  0  0  0  0  0
  187.1490  176.6330  135.1240 C   0  0  0  0  0  3  0  0  0  0  0  0
  188.5110  179.3530  137.2130 O   0  0  0  0  0  1  0  0  0  0  0  0
  186.6300  177.8890  137.5550 C   0  0  0  0  0  3  0  0  0  0  0  0
  187.9710  177.6730  135.5580 C   0  0  0  0  0  0  0  0  0  0  0  0
  186.0570  176.2080  135.8900 C   0  0  0  0  0  0  0  0  0  0  0  0
  185.7930  176.8420  137.1310 C   0  0  0  0  0  0  0  0  0  0  0  0
  189.0440  178.0770  134.7710 O   0  0  0  0  0  1  0  0  0  0  0  0
  185.2800  175.1610  135.3710 O   0  0  0  0  0  0  0  0  0  0  0  0
  184.0440  175.3300  134.6940 C   0  0  0  0  0  1  0  0  0  0  0  0
  2 27  1  1  0  0  0
  2 10  1  0  0  0  0
  4  7  1  0  0  0  0
  5 13  1  6  0  0  0
  5  3  1  0  0  0  0
  5  2  1  0  0  0  0
  6 28  1  1  0  0  0
  6 13  1  0  0  0  0
  6  9  1  0  0  0  0
  8  1  1  6  0  0  0
  8  4  1  0  0  0  0
  9  3  1  0  0  0  0
 10 11  1  0  0  0  0
 10 15  1  1  0  0  0
 11  7  1  0  0  0  0
 12  5  1  0  0  0  0
 12  8  1  0  0  0  0
 15 14  2  0  0  0  0
 16 14  1  6  0  0  0
 16 24  1  0  0  0  0
 17 22  1  0  0  0  0
 18 20  2  0  0  0  0
 20 19  1  0  0  0  0
 21 17  2  0  0  0  0
 21 18  1  0  0  0  0
 22 16  1  0  0  0  0
 22 19  2  0  0  0  0
 24 23  2  0  0  0  0
 24 25  1  0  0  0  0
 26 27  1  0  0  0  0
 29 31  1  0  0  0  0
 29 32  1  0  0  0  0
 30 33  1  0  0  0  0
 30 34  2  0  0  0  0
 33 29  2  0  0  0  0
 34 35  1  0  0  0  0
 35 32  2  0  0  0  0
 35 28  1  0  0  0  0
 36 33  1  0  0  0  0
 37 34  1  0  0  0  0
 38 37  1  0  0  0  0
M  END
>  <MODEL>
3

>  <REMARK>
 VINA RESULT:      -7.8      3.955      7.208
  Name = 
  8 active torsions:
  status: ('A' for Active; 'I' for Inactive)
    1  A    between atoms: C_4  and  C_18
    2  A    between atoms: C_4  and  C_23
    3  A    between atoms: C_4  and  C_37
    4  A    between atoms: C_6  and  O_28
    5  A    between atoms: O_8  and  C_25
    6  A    between atoms: C_19  and  O_32
    7  A    between atoms: C_20  and  C_31
    8  A    between atoms: C_26  and  O_32
                            x       y       z     vdW  Elec       q    Type
                         _______ _______ _______ _____ _____    ______ ____

>  <TORSDO>
F 8

$$$$
=
 OpenBabel11062412583D

 38 41  0  0  1  0  0  0  0  0999 V2000
  187.9890  177.5420  134.5940 N   0  0  0  0  0  1  0  0  0  0  0  0
  190.2030  177.2590  138.8120 C   0  0  1  0  0  3  0  0  0  0  0  0
  189.6160  175.2350  137.3750 C   0  0  0  0  0  2  0  0  0  0  0  0
  187.4410  178.4510  136.7660 C   0  0  0  0  0  2  0  0  0  0  0  0
  190.2720  176.6140  137.4030 C   0  0  1  0  0  0  0  0  0  0  0  0
  191.8710  174.9260  136.5890 C   0  0  1  0  0  3  0  0  0  0  0  0
  186.8750  177.9310  138.0950 C   0  0  0  0  0  2  0  0  0  0  0  0
  188.2220  177.3850  136.0170 C   0  0  2  0  0  3  0  0  0  0  0  0
  190.4600  174.3940  136.4470 C   0  0  0  0  0  2  0  0  0  0  0  0
  188.8730  177.9550  139.1520 C   0  0  1  0  0  3  0  0  0  0  0  0
  187.7820  177.1360  138.8240 O   0  0  0  0  0  0  0  0  0  0  0  0
  189.7190  177.5340  136.2950 C   0  0  0  0  0  2  0  0  0  0  0  0
  191.7370  176.3630  137.0680 C   0  0  0  0  0  2  0  0  0  0  0  0
  188.3700  177.5500  141.5340 C   0  0  0  0  0  3  0  0  0  0  0  0
  188.8210  178.3750  140.5890 C   0  0  0  0  0  3  0  0  0  0  0  0
  188.3030  177.9500  142.9840 C   0  0  2  0  0  3  0  0  0  0  0  0
  190.1800  176.3350  143.3280 C   0  0  0  0  0  3  0  0  0  0  0  0
  191.6150  176.4340  145.2760 C   0  0  0  0  0  3  0  0  0  0  0  0
  189.8130  178.0290  145.0200 C   0  0  0  0  0  3  0  0  0  0  0  0
  190.8920  177.5310  145.7550 C   0  0  0  0  0  3  0  0  0  0  0  0
  191.2600  175.8370  144.0620 C   0  0  0  0  0  3  0  0  0  0  0  0
  189.4510  177.4320  143.8010 C   0  0  0  0  0  0  0  0  0  0  0  0
  185.9140  178.1550  143.1190 O   0  0  0  0  0  0  0  0  0  0  0  0
  186.9690  177.6720  143.6090 C   0  0  0  0  0  0  0  0  0  0  0  0
  186.8980  176.8750  144.7420 O   0  0  0  0  0  1  0  0  0  0  0  0
  191.7960  176.7760  140.2830 C   0  0  0  0  0  1  0  0  0  0  0  0
  190.5600  176.3340  139.8040 O   0  0  0  0  0  0  0  0  0  0  0  0
  192.5760  174.1680  137.5680 O   0  0  0  0  0  0  0  0  0  0  0  0
  196.1740  174.4160  138.4500 C   0  0  0  0  0  0  0  0  0  0  0  0
  195.9300  172.8990  136.5860 C   0  0  0  0  0  3  0  0  0  0  0  0
  196.9750  175.0820  139.3720 O   0  0  0  0  0  1  0  0  0  0  0  0
  194.7940  174.6170  138.4620 C   0  0  0  0  0  3  0  0  0  0  0  0
  196.7430  173.5500  137.5130 C   0  0  0  0  0  0  0  0  0  0  0  0
  194.5440  173.0970  136.5770 C   0  0  0  0  0  0  0  0  0  0  0  0
  193.9620  173.9670  137.5340 C   0  0  0  0  0  0  0  0  0  0  0  0
  198.1170  173.3380  137.4930 O   0  0  0  0  0  1  0  0  0  0  0  0
  193.8060  172.4070  135.6030 O   0  0  0  0  0  0  0  0  0  0  0  0
  193.2190  171.1290  135.7880 C   0  0  0  0  0  1  0  0  0  0  0  0
  2 10  1  0  0  0  0
  2 27  1  1  0  0  0
  3  5  1  0  0  0  0
  4  7  1  0  0  0  0
  5 12  1  6  0  0  0
  5  2  1  0  0  0  0
  6 13  1  0  0  0  0
  6 28  1  1  0  0  0
  7 11  1  0  0  0  0
  8  1  1  6  0  0  0
  8 12  1  0  0  0  0
  8  4  1  0  0  0  0
  9  6  1  0  0  0  0
  9  3  1  0  0  0  0
 10 15  1  1  0  0  0
 11 10  1  0  0  0  0
 13  5  1  0  0  0  0
 15 14  2  0  0  0  0
 16 14  1  6  0  0  0
 16 24  1  0  0  0  0
 16 22  1  0  0  0  0
 17 22  2  0  0  0  0
 17 21  1  0  0  0  0
 18 20  1  0  0  0  0
 19 20  2  0  0  0  0
 21 18  2  0  0  0  0
 22 19  1  0  0  0  0
 23 24  2  0  0  0  0
 24 25  1  0  0  0  0
 27 26  1  0  0  0  0
 29 32  1  0  0  0  0
 29 31  1  0  0  0  0
 30 33  1  0  0  0  0
 33 29  2  0  0  0  0
 34 30  2  0  0  0  0
 34 35  1  0  0  0  0
 35 28  1  0  0  0  0
 35 32  2  0  0  0  0
 36 33  1  0  0  0  0
 37 38  1  0  0  0  0
 37 34  1  0  0  0  0
M  END
>  <MODEL>
4

>  <REMARK>
 VINA RESULT:      -7.8      3.239      6.960
  Name = 
  8 active torsions:
  status: ('A' for Active; 'I' for Inactive)
    1  A    between atoms: C_4  and  C_18
    2  A    between atoms: C_4  and  C_23
    3  A    between atoms: C_4  and  C_37
    4  A    between atoms: C_6  and  O_28
    5  A    between atoms: O_8  and  C_25
    6  A    between atoms: C_19  and  O_32
    7  A    between atoms: C_20  and  C_31
    8  A    between atoms: C_26  and  O_32
                            x       y       z     vdW  Elec       q    Type
                         _______ _______ _______ _____ _____    ______ ____

>  <TORSDO>
F 8

$$$$
=
 OpenBabel11062412583D

 38 41  0  0  1  0  0  0  0  0999 V2000
  188.1650  177.4420  134.7430 N   0  0  0  0  0  1  0  0  0  0  0  0
  190.2550  177.4340  139.0340 C   0  0  1  0  0  3  0  0  0  0  0  0
  189.9330  175.3450  137.6040 C   0  0  0  0  0  2  0  0  0  0  0  0
  187.4520  178.3070  136.8860 C   0  0  0  0  0  2  0  0  0  0  0  0
  190.4380  176.7870  137.6360 C   0  0  1  0  0  0  0  0  0  0  0  0
  192.2330  175.2710  136.8950 C   0  0  1  0  0  3  0  0  0  0  0  0
  186.9000  177.7420  138.2020 C   0  0  0  0  0  2  0  0  0  0  0  0
  188.3650  177.3230  136.1760 C   0  0  2  0  0  3  0  0  0  0  0  0
  190.8920  174.5900  136.7150 C   0  0  0  0  0  2  0  0  0  0  0  0
  188.8480  177.9880  139.3220 C   0  0  1  0  0  3  0  0  0  0  0  0
  187.8610  177.0550  138.9700 O   0  0  0  0  0  0  0  0  0  0  0  0
  189.8280  177.6330  136.5000 C   0  0  0  0  0  2  0  0  0  0  0  0
  191.9320  176.6900  137.3520 C   0  0  0  0  0  2  0  0  0  0  0  0
  188.2990  177.5560  141.6900 C   0  0  0  0  0  3  0  0  0  0  0  0
  188.7040  178.4130  140.7520 C   0  0  0  0  0  3  0  0  0  0  0  0
  188.1410  177.9610  143.1310 C   0  0  2  0  0  3  0  0  0  0  0  0
  189.3110  177.9200  145.3410 C   0  0  0  0  0  3  0  0  0  0  0  0
  191.3280  176.6290  145.7000 C   0  0  0  0  0  3  0  0  0  0  0  0
  190.2590  176.6240  143.5290 C   0  0  0  0  0  3  0  0  0  0  0  0
  191.2880  176.1960  144.3710 C   0  0  0  0  0  3  0  0  0  0  0  0
  190.3390  177.4920  146.1850 C   0  0  0  0  0  3  0  0  0  0  0  0
  189.2650  177.4910  144.0110 C   0  0  0  0  0  0  0  0  0  0  0  0
  186.6680  177.1260  144.8350 O   0  0  0  0  0  1  0  0  0  0  0  0
  186.7880  177.6340  143.6890 C   0  0  0  0  0  0  0  0  0  0  0  0
  185.6560  177.8920  142.9290 O   0  0  0  0  0  0  0  0  0  0  0  0
  191.8610  177.1150  140.5350 C   0  0  0  0  0  1  0  0  0  0  0  0
  190.6740  176.5600  140.0490 O   0  0  0  0  0  0  0  0  0  0  0  0
  192.9810  174.6010  137.9060 O   0  0  0  0  0  0  0  0  0  0  0  0
  195.1530  172.0150  136.3620 C   0  0  0  0  0  0  0  0  0  0  0  0
  196.4340  173.2260  138.0140 C   0  0  0  0  0  3  0  0  0  0  0  0
  195.0560  171.0180  135.3980 O   0  0  0  0  0  1  0  0  0  0  0  0
  194.0390  172.8020  136.6550 C   0  0  0  0  0  3  0  0  0  0  0  0
  196.3550  172.2310  137.0390 C   0  0  0  0  0  0  0  0  0  0  0  0
  195.3240  174.0180  138.3280 C   0  0  0  0  0  0  0  0  0  0  0  0
  194.1040  173.8090  137.6340 C   0  0  0  0  0  0  0  0  0  0  0  0
  197.4730  171.4560  136.7550 O   0  0  0  0  0  1  0  0  0  0  0  0
  195.4930  174.9890  139.3270 O   0  0  0  0  0  0  0  0  0  0  0  0
  196.6090  175.0640  140.2000 C   0  0  0  0  0  1  0  0  0  0  0  0
  2 10  1  0  0  0  0
  2 27  1  1  0  0  0
  3  5  1  0  0  0  0
  4  7  1  0  0  0  0
  5 12  1  6  0  0  0
  5  2  1  0  0  0  0
  6 13  1  0  0  0  0
  6 28  1  1  0  0  0
  7 11  1  0  0  0  0
  8  1  1  6  0  0  0
  8 12  1  0  0  0  0
  8  4  1  0  0  0  0
  9  6  1  0  0  0  0
  9  3  1  0  0  0  0
 10 15  1  1  0  0  0
 11 10  1  0  0  0  0
 13  5  1  0  0  0  0
 15 14  2  0  0  0  0
 16 14  1  6  0  0  0
 16 24  1  0  0  0  0
 16 22  1  0  0  0  0
 17 21  1  0  0  0  0
 18 21  2  0  0  0  0
 19 22  1  0  0  0  0
 19 20  2  0  0  0  0
 20 18  1  0  0  0  0
 22 17  2  0  0  0  0
 24 23  1  0  0  0  0
 25 24  2  0  0  0  0
 27 26  1  0  0  0  0
 29 32  2  0  0  0  0
 29 33  1  0  0  0  0
 30 34  1  0  0  0  0
 31 29  1  0  0  0  0
 32 35  1  0  0  0  0
 33 30  2  0  0  0  0
 34 37  1  0  0  0  0
 35 28  1  0  0  0  0
 35 34  2  0  0  0  0
 36 33  1  0  0  0  0
 37 38  1  0  0  0  0
M  END
>  <MODEL>
5

>  <REMARK>
 VINA RESULT:      -7.7      3.303      6.896
  Name = 
  8 active torsions:
  status: ('A' for Active; 'I' for Inactive)
    1  A    between atoms: C_4  and  C_18
    2  A    between atoms: C_4  and  C_23
    3  A    between atoms: C_4  and  C_37
    4  A    between atoms: C_6  and  O_28
    5  A    between atoms: O_8  and  C_25
    6  A    between atoms: C_19  and  O_32
    7  A    between atoms: C_20  and  C_31
    8  A    between atoms: C_26  and  O_32
                            x       y       z     vdW  Elec       q    Type
                         _______ _______ _______ _____ _____    ______ ____

>  <TORSDO>
F 8

$$$$
=
 OpenBabel11062412583D

 38 41  0  0  1  0  0  0  0  0999 V2000
  188.4190  176.7590  146.8180 N   0  0  0  0  0  1  0  0  0  0  0  0
  186.6590  177.9930  142.5570 C   0  0  1  0  0  3  0  0  0  0  0  0
  188.9090  178.7950  143.4530 C   0  0  0  0  0  2  0  0  0  0  0  0
  186.2860  177.6900  146.1630 C   0  0  0  0  0  2  0  0  0  0  0  0
  188.0120  177.5850  143.1960 C   0  0  1  0  0  0  0  0  0  0  0  0
  190.1860  177.2870  142.0760 C   0  0  1  0  0  3  0  0  0  0  0  0
  185.7390  179.0580  145.7290 C   0  0  0  0  0  2  0  0  0  0  0  0
  187.7410  177.5030  145.7730 C   0  0  2  0  0  3  0  0  0  0  0  0
  190.3180  178.3350  143.1620 C   0  0  0  0  0  2  0  0  0  0  0  0
  185.5910  178.4960  143.5450 C   0  0  1  0  0  3  0  0  0  0  0  0
  186.1330  179.4390  144.4310 O   0  0  0  0  0  0  0  0  0  0  0  0
  187.8400  176.7210  144.4620 C   0  0  0  0  0  2  0  0  0  0  0  0
  188.7740  176.7340  142.1890 C   0  0  0  0  0  2  0  0  0  0  0  0
  183.5350  178.2500  142.2000 C   0  0  0  0  0  3  0  0  0  0  0  0
  184.3960  179.0500  142.8310 C   0  0  0  0  0  3  0  0  0  0  0  0
  182.3310  178.7830  141.4710 C   0  0  2  0  0  3  0  0  0  0  0  0
  180.2210  180.0160  142.0020 C   0  0  0  0  0  3  0  0  0  0  0  0
  178.9310  179.5470  143.9970 C   0  0  0  0  0  3  0  0  0  0  0  0
  180.9670  178.3160  143.5570 C   0  0  0  0  0  3  0  0  0  0  0  0
  179.8590  178.5700  144.3690 C   0  0  0  0  0  3  0  0  0  0  0  0
  179.1120  180.2700  142.8130 C   0  0  0  0  0  3  0  0  0  0  0  0
  181.1540  179.0400  142.3690 C   0  0  0  0  0  0  0  0  0  0  0  0
  181.4780  178.5290  139.2400 O   0  0  0  0  0  0  0  0  0  0  0  0
  181.9740  177.9780  140.2580 C   0  0  0  0  0  0  0  0  0  0  0  0
  182.1920  176.6070  140.2590 O   0  0  0  0  0  1  0  0  0  0  0  0
  186.3190  178.2870  140.3810 C   0  0  0  0  0  1  0  0  0  0  0  0
  186.8550  178.9090  141.5120 O   0  0  0  0  0  0  0  0  0  0  0  0
  190.3500  177.8960  140.7980 O   0  0  0  0  0  0  0  0  0  0  0  0
  192.8680  176.3240  138.5670 C   0  0  0  0  0  0  0  0  0  0  0  0
  190.6860  176.1070  137.5560 C   0  0  0  0  0  3  0  0  0  0  0  0
  194.2420  176.1100  138.5390 O   0  0  0  0  0  1  0  0  0  0  0  0
  192.2960  176.9940  139.6480 C   0  0  0  0  0  3  0  0  0  0  0  0
  192.0600  175.8740  137.5210 C   0  0  0  0  0  0  0  0  0  0  0  0
  190.0960  176.7870  138.6280 C   0  0  0  0  0  0  0  0  0  0  0  0
  190.9120  177.2350  139.6970 C   0  0  0  0  0  0  0  0  0  0  0  0
  192.6180  175.2030  136.4380 O   0  0  0  0  0  1  0  0  0  0  0  0
  188.7070  176.9840  138.5740 O   0  0  0  0  0  0  0  0  0  0  0  0
  187.9150  176.8380  137.4060 C   0  0  0  0  0  1  0  0  0  0  0  0
  2 27  1  6  0  0  0
  2  5  1  0  0  0  0
  2 10  1  0  0  0  0
  5 13  1  6  0  0  0
  5  3  1  0  0  0  0
  5 12  1  0  0  0  0
  6 28  1  6  0  0  0
  6 13  1  0  0  0  0
  6  9  1  0  0  0  0
  7  4  1  0  0  0  0
  8  4  1  0  0  0  0
  8  1  1  1  0  0  0
  9  3  1  0  0  0  0
 10 15  1  6  0  0  0
 10 11  1  0  0  0  0
 11  7  1  0  0  0  0
 12  8  1  0  0  0  0
 14 15  2  0  0  0  0
 16 14  1  1  0  0  0
 16 22  1  0  0  0  0
 17 22  2  0  0  0  0
 17 21  1  0  0  0  0
 18 20  1  0  0  0  0
 19 20  2  0  0  0  0
 21 18  2  0  0  0  0
 22 19  1  0  0  0  0
 23 24  2  0  0  0  0
 24 25  1  0  0  0  0
 24 16  1  0  0  0  0
 26 27  1  0  0  0  0
 29 32  1  0  0  0  0
 30 34  2  0  0  0  0
 31 29  1  0  0  0  0
 32 35  2  0  0  0  0
 33 30  1  0  0  0  0
 33 29  2  0  0  0  0
 34 35  1  0  0  0  0
 35 28  1  0  0  0  0
 36 33  1  0  0  0  0
 37 34  1  0  0  0  0
 38 37  1  0  0  0  0
M  END
>  <MODEL>
6

>  <REMARK>
 VINA RESULT:      -7.6      2.293      3.311
  Name = 
  8 active torsions:
  status: ('A' for Active; 'I' for Inactive)
    1  A    between atoms: C_4  and  C_18
    2  A    between atoms: C_4  and  C_23
    3  A    between atoms: C_4  and  C_37
    4  A    between atoms: C_6  and  O_28
    5  A    between atoms: O_8  and  C_25
    6  A    between atoms: C_19  and  O_32
    7  A    between atoms: C_20  and  C_31
    8  A    between atoms: C_26  and  O_32
                            x       y       z     vdW  Elec       q    Type
                         _______ _______ _______ _____ _____    ______ ____

>  <TORSDO>
F 8

$$$$
=
 OpenBabel11062412583D

 38 41  0  0  1  0  0  0  0  0999 V2000
  179.2010  179.1610  141.5340 N   0  0  0  0  0  1  0  0  0  0  0  0
  183.9690  178.9760  141.4540 C   0  0  1  0  0  3  0  0  0  0  0  0
  182.4580  177.1050  140.6010 C   0  0  0  0  0  2  0  0  0  0  0  0
  180.8570  179.5170  143.2590 C   0  0  0  0  0  2  0  0  0  0  0  0
  182.7630  178.6010  140.5530 C   0  0  1  0  0  0  0  0  0  0  0  0
  182.8100  177.6490  138.2810 C   0  0  1  0  0  3  0  0  0  0  0  0
  181.7820  178.6540  144.1290 C   0  0  0  0  0  2  0  0  0  0  0  0
  180.5730  178.8770  141.9110 C   0  0  2  0  0  3  0  0  0  0  0  0
  182.0410  176.7220  139.2010 C   0  0  0  0  0  2  0  0  0  0  0  0
  183.6430  179.1550  142.9470 C   0  0  1  0  0  3  0  0  0  0  0  0
  182.8620  178.0900  143.4200 O   0  0  0  0  0  0  0  0  0  0  0  0
  181.5100  179.4510  140.8460 C   0  0  0  0  0  2  0  0  0  0  0  0
  183.1490  178.8810  139.1060 C   0  0  0  0  0  2  0  0  0  0  0  0
  185.3420  178.3300  144.5370 C   0  0  0  0  0  3  0  0  0  0  0  0
  184.8850  179.3190  143.7680 C   0  0  0  0  0  3  0  0  0  0  0  0
  186.5840  178.4730  145.3750 C   0  0  2  0  0  3  0  0  0  0  0  0
  187.5720  176.7970  143.8040 C   0  0  0  0  0  3  0  0  0  0  0  0
  189.9550  176.3810  143.7070 C   0  0  0  0  0  3  0  0  0  0  0  0
  189.0760  178.0130  145.2620 C   0  0  0  0  0  3  0  0  0  0  0  0
  190.1630  177.3310  144.7120 C   0  0  0  0  0  3  0  0  0  0  0  0
  188.6600  176.1140  143.2530 C   0  0  0  0  0  3  0  0  0  0  0  0
  187.7730  177.7490  144.8100 C   0  0  0  0  0  0  0  0  0  0  0  0
  187.3100  177.8520  147.5790 O   0  0  0  0  0  1  0  0  0  0  0  0
  186.3520  178.1720  146.8250 C   0  0  0  0  0  0  0  0  0  0  0  0
  185.0660  178.2450  147.3410 O   0  0  0  0  0  0  0  0  0  0  0  0
  186.0100  178.8050  140.5920 C   0  0  0  0  0  1  0  0  0  0  0  0
  185.0290  178.0750  141.2710 O   0  0  0  0  0  0  0  0  0  0  0  0
  184.0180  177.0180  137.8630 O   0  0  0  0  0  0  0  0  0  0  0  0
  184.3670  173.4860  136.7700 C   0  0  0  0  0  0  0  0  0  0  0  0
  183.7780  174.8410  134.8580 C   0  0  0  0  0  3  0  0  0  0  0  0
  184.6780  172.2520  137.3290 O   0  0  0  0  0  1  0  0  0  0  0  0
  184.3470  174.6240  137.5770 C   0  0  0  0  0  3  0  0  0  0  0  0
  184.0760  173.5940  135.4080 C   0  0  0  0  0  0  0  0  0  0  0  0
  183.7640  175.9940  135.6510 C   0  0  0  0  0  0  0  0  0  0  0  0
  184.0480  175.8870  137.0360 C   0  0  0  0  0  0  0  0  0  0  0  0
  184.0890  172.4670  134.5940 O   0  0  0  0  0  1  0  0  0  0  0  0
  183.4620  177.2060  135.0110 O   0  0  0  0  0  0  0  0  0  0  0  0
  182.1620  177.6030  134.6030 C   0  0  0  0  0  1  0  0  0  0  0  0
  2 27  1  1  0  0  0
  2 10  1  0  0  0  0
  4  7  1  0  0  0  0
  5 13  1  6  0  0  0
  5  3  1  0  0  0  0
  5 12  1  0  0  0  0
  5  2  1  0  0  0  0
  6 28  1  1  0  0  0
  6 13  1  0  0  0  0
  6  9  1  0  0  0  0
  8  1  1  6  0  0  0
  8  4  1  0  0  0  0
  9  3  1  0  0  0  0
 10 11  1  0  0  0  0
 10 15  1  1  0  0  0
 11  7  1  0  0  0  0
 12  8  1  0  0  0  0
 15 14  2  0  0  0  0
 16 14  1  6  0  0  0
 16 24  1  0  0  0  0
 17 22  1  0  0  0  0
 18 20  2  0  0  0  0
 20 19  1  0  0  0  0
 21 18  1  0  0  0  0
 21 17  2  0  0  0  0
 22 19  2  0  0  0  0
 22 16  1  0  0  0  0
 24 25  2  0  0  0  0
 24 23  1  0  0  0  0
 26 27  1  0  0  0  0
 29 31  1  0  0  0  0
 29 32  1  0  0  0  0
 30 33  1  0  0  0  0
 30 34  2  0  0  0  0
 33 29  2  0  0  0  0
 34 35  1  0  0  0  0
 35 32  2  0  0  0  0
 35 28  1  0  0  0  0
 36 33  1  0  0  0  0
 37 34  1  0  0  0  0
 38 37  1  0  0  0  0
M  END
>  <MODEL>
7

>  <REMARK>
 VINA RESULT:      -7.4      4.409      7.876
  Name = 
  8 active torsions:
  status: ('A' for Active; 'I' for Inactive)
    1  A    between atoms: C_4  and  C_18
    2  A    between atoms: C_4  and  C_23
    3  A    between atoms: C_4  and  C_37
    4  A    between atoms: C_6  and  O_28
    5  A    between atoms: O_8  and  C_25
    6  A    between atoms: C_19  and  O_32
    7  A    between atoms: C_20  and  C_31
    8  A    between atoms: C_26  and  O_32
                            x       y       z     vdW  Elec       q    Type
                         _______ _______ _______ _____ _____    ______ ____

>  <TORSDO>
F 8

$$$$
=
 OpenBabel11062412583D

 38 41  0  0  1  0  0  0  0  0999 V2000
  194.1880  176.7280  140.2170 N   0  0  0  0  0  1  0  0  0  0  0  0
  189.5810  177.9730  140.2980 C   0  0  1  0  0  3  0  0  0  0  0  0
  190.5470  176.0060  141.6040 C   0  0  0  0  0  2  0  0  0  0  0  0
  192.5940  177.1270  138.4430 C   0  0  0  0  0  2  0  0  0  0  0  0
  190.6860  177.4910  141.2740 C   0  0  1  0  0  0  0  0  0  0  0  0
  190.5160  177.1710  143.7110 C   0  0  1  0  0  3  0  0  0  0  0  0
  191.4070  176.3890  137.8080 C   0  0  0  0  0  2  0  0  0  0  0  0
  192.7710  176.7770  139.9100 C   0  0  2  0  0  3  0  0  0  0  0  0
  190.9270  175.8670  143.0590 C   0  0  0  0  0  2  0  0  0  0  0  0
  189.8480  177.6830  138.8100 C   0  0  1  0  0  3  0  0  0  0  0  0
  190.2600  176.3550  138.6250 O   0  0  0  0  0  0  0  0  0  0  0  0
  192.1080  177.8390  140.7900 C   0  0  0  0  0  2  0  0  0  0  0  0
  190.4910  178.2120  142.6020 C   0  0  0  0  0  2  0  0  0  0  0  0
  187.7140  177.0860  137.7210 C   0  0  0  0  0  3  0  0  0  0  0  0
  188.6530  178.0010  137.9630 C   0  0  0  0  0  3  0  0  0  0  0  0
  186.5080  177.3790  136.8690 C   0  0  2  0  0  3  0  0  0  0  0  0
  184.2920  176.4740  137.5920 C   0  0  0  0  0  3  0  0  0  0  0  0
  182.8530  177.6800  139.1220 C   0  0  0  0  0  3  0  0  0  0  0  0
  184.9800  178.6270  138.4630 C   0  0  0  0  0  3  0  0  0  0  0  0
  183.7920  178.7140  139.1920 C   0  0  0  0  0  3  0  0  0  0  0  0
  183.1030  176.5600  138.3220 C   0  0  0  0  0  3  0  0  0  0  0  0
  185.2360  177.5050  137.6570 C   0  0  0  0  0  0  0  0  0  0  0  0
  185.8080  176.8310  134.6380 O   0  0  0  0  0  0  0  0  0  0  0  0
  186.3790  176.4550  135.6960 C   0  0  0  0  0  0  0  0  0  0  0  0
  186.8930  175.1690  135.7790 O   0  0  0  0  0  1  0  0  0  0  0  0
  187.6540  178.6120  141.1980 C   0  0  0  0  0  1  0  0  0  0  0  0
  188.3220  177.4950  140.6910 O   0  0  0  0  0  0  0  0  0  0  0  0
  189.2080  177.0420  144.2630 O   0  0  0  0  0  0  0  0  0  0  0  0
  187.2880  178.1160  147.2550 C   0  0  0  0  0  0  0  0  0  0  0  0
  189.5240  177.5060  147.9390 C   0  0  0  0  0  3  0  0  0  0  0  0
  186.0130  178.5770  147.5600 O   0  0  0  0  0  1  0  0  0  0  0  0
  187.6150  177.8130  145.9330 C   0  0  0  0  0  3  0  0  0  0  0  0
  188.2440  177.9560  148.2610 C   0  0  0  0  0  0  0  0  0  0  0  0
  189.8720  177.2070  146.6160 C   0  0  0  0  0  0  0  0  0  0  0  0
  188.9010  177.3570  145.5940 C   0  0  0  0  0  0  0  0  0  0  0  0
  187.9310  178.2520  149.5830 O   0  0  0  0  0  1  0  0  0  0  0  0
  191.1840  176.7680  146.3840 O   0  0  0  0  0  0  0  0  0  0  0  0
  191.9120  175.9040  147.2430 C   0  0  0  0  0  1  0  0  0  0  0  0
  2 27  1  1  0  0  0
  2  5  1  0  0  0  0
  3  9  1  0  0  0  0
  4  8  1  0  0  0  0
  5 12  1  6  0  0  0
  5  3  1  0  0  0  0
  5 13  1  0  0  0  0
  6 28  1  6  0  0  0
  7  4  1  0  0  0  0
  7 11  1  0  0  0  0
  8  1  1  1  0  0  0
  8 12  1  0  0  0  0
  9  6  1  0  0  0  0
 10 15  1  6  0  0  0
 10  2  1  0  0  0  0
 11 10  1  0  0  0  0
 13  6  1  0  0  0  0
 14 15  2  0  0  0  0
 16 22  1  0  0  0  0
 16 14  1  1  0  0  0
 17 22  2  0  0  0  0
 17 21  1  0  0  0  0
 18 20  1  0  0  0  0
 19 20  2  0  0  0  0
 21 18  2  0  0  0  0
 22 19  1  0  0  0  0
 23 24  2  0  0  0  0
 24 25  1  0  0  0  0
 24 16  1  0  0  0  0
 27 26  1  0  0  0  0
 28 35  1  0  0  0  0
 29 31  1  0  0  0  0
 29 33  1  0  0  0  0
 30 33  2  0  0  0  0
 32 29  2  0  0  0  0
 33 36  1  0  0  0  0
 34 30  1  0  0  0  0
 35 32  1  0  0  0  0
 35 34  2  0  0  0  0
 37 34  1  0  0  0  0
 37 38  1  0  0  0  0
M  END
>  <MODEL>
8

>  <REMARK>
 VINA RESULT:      -7.3      2.606      7.503
  Name = 
  8 active torsions:
  status: ('A' for Active; 'I' for Inactive)
    1  A    between atoms: C_4  and  C_18
    2  A    between atoms: C_4  and  C_23
    3  A    between atoms: C_4  and  C_37
    4  A    between atoms: C_6  and  O_28
    5  A    between atoms: O_8  and  C_25
    6  A    between atoms: C_19  and  O_32
    7  A    between atoms: C_20  and  C_31
    8  A    between atoms: C_26  and  O_32
                            x       y       z     vdW  Elec       q    Type
                         _______ _______ _______ _____ _____    ______ ____

>  <TORSDO>
F 8

$$$$
=
 OpenBabel11062412583D

 38 41  0  0  1  0  0  0  0  0999 V2000
  188.6520  176.6590  146.5370 N   0  0  0  0  0  1  0  0  0  0  0  0
  186.9240  177.8760  142.2580 C   0  0  1  0  0  3  0  0  0  0  0  0
  189.1350  178.7350  143.1970 C   0  0  0  0  0  2  0  0  0  0  0  0
  186.5030  177.5330  145.8560 C   0  0  0  0  0  2  0  0  0  0  0  0
  188.2780  177.5030  142.9160 C   0  0  1  0  0  0  0  0  0  0  0  0
  190.4770  177.2770  141.8270 C   0  0  1  0  0  3  0  0  0  0  0  0
  185.9230  178.8880  145.4240 C   0  0  0  0  0  2  0  0  0  0  0  0
  187.9700  177.3910  145.4870 C   0  0  2  0  0  3  0  0  0  0  0  0
  190.5610  178.3190  142.9240 C   0  0  0  0  0  2  0  0  0  0  0  0
  185.8260  178.3400  143.2330 C   0  0  1  0  0  3  0  0  0  0  0  0
  186.3260  179.2900  144.1350 O   0  0  0  0  0  0  0  0  0  0  0  0
  188.1120  176.6230  144.1720 C   0  0  0  0  0  2  0  0  0  0  0  0
  189.0800  176.6820  141.9140 C   0  0  0  0  0  2  0  0  0  0  0  0
  184.0090  178.1350  141.5740 C   0  0  0  0  0  3  0  0  0  0  0  0
  184.6270  178.8650  142.5050 C   0  0  0  0  0  3  0  0  0  0  0  0
  182.8060  178.6430  140.8250 C   0  0  2  0  0  3  0  0  0  0  0  0
  180.5160  177.6420  140.8930 C   0  0  0  0  0  3  0  0  0  0  0  0
  179.9860  175.5750  139.7470 C   0  0  0  0  0  3  0  0  0  0  0  0
  182.2300  176.4760  139.6410 C   0  0  0  0  0  3  0  0  0  0  0  0
  181.3060  175.4870  139.2940 C   0  0  0  0  0  3  0  0  0  0  0  0
  179.5910  176.6530  140.5460 C   0  0  0  0  0  3  0  0  0  0  0  0
  181.8380  177.5590  140.4440 C   0  0  0  0  0  0  0  0  0  0  0  0
  182.2730  179.9900  138.9090 O   0  0  0  0  0  0  0  0  0  0  0  0
  183.1640  179.5360  139.6760 C   0  0  0  0  0  0  0  0  0  0  0  0
  184.4940  179.8650  139.4540 O   0  0  0  0  0  1  0  0  0  0  0  0
  187.1590  178.0410  140.0560 C   0  0  0  0  0  1  0  0  0  0  0  0
  187.1090  178.8060  141.2240 O   0  0  0  0  0  0  0  0  0  0  0  0
  190.6430  177.9010  140.5570 O   0  0  0  0  0  0  0  0  0  0  0  0
  193.3030  176.2110  138.5940 C   0  0  0  0  0  0  0  0  0  0  0  0
  191.3600  176.5000  137.1880 C   0  0  0  0  0  3  0  0  0  0  0  0
  194.6090  175.7700  138.7780 O   0  0  0  0  0  1  0  0  0  0  0  0
  192.6290  176.8280  139.6460 C   0  0  0  0  0  3  0  0  0  0  0  0
  192.6650  176.0410  137.3630 C   0  0  0  0  0  0  0  0  0  0  0  0
  190.6720  177.1320  138.2310 C   0  0  0  0  0  0  0  0  0  0  0  0
  191.3130  177.2960  139.4850 C   0  0  0  0  0  0  0  0  0  0  0  0
  193.3250  175.4240  136.3060 O   0  0  0  0  0  1  0  0  0  0  0  0
  189.3660  177.5690  137.9620 O   0  0  0  0  0  0  0  0  0  0  0  0
  188.9320  178.1090  136.7230 C   0  0  0  0  0  1  0  0  0  0  0  0
  2 27  1  6  0  0  0
  2  5  1  0  0  0  0
  2 10  1  0  0  0  0
  5 13  1  6  0  0  0
  5  3  1  0  0  0  0
  5 12  1  0  0  0  0
  6 28  1  6  0  0  0
  6 13  1  0  0  0  0
  6  9  1  0  0  0  0
  7  4  1  0  0  0  0
  8  4  1  0  0  0  0
  8  1  1  1  0  0  0
  9  3  1  0  0  0  0
 10 15  1  6  0  0  0
 10 11  1  0  0  0  0
 11  7  1  0  0  0  0
 12  8  1  0  0  0  0
 14 15  2  0  0  0  0
 16 14  1  6  0  0  0
 18 21  2  0  0  0  0
 19 22  1  0  0  0  0
 20 19  2  0  0  0  0
 20 18  1  0  0  0  0
 21 17  1  0  0  0  0
 22 16  1  0  0  0  0
 22 17  2  0  0  0  0
 23 24  2  0  0  0  0
 24 16  1  0  0  0  0
 25 24  1  0  0  0  0
 26 27  1  0  0  0  0
 29 31  1  0  0  0  0
 29 32  1  0  0  0  0
 30 33  1  0  0  0  0
 30 34  2  0  0  0  0
 33 29  2  0  0  0  0
 34 35  1  0  0  0  0
 35 32  2  0  0  0  0
 35 28  1  0  0  0  0
 36 33  1  0  0  0  0
 37 34  1  0  0  0  0
 38 37  1  0  0  0  0
M  END
>  <MODEL>
9

>  <REMARK>
 VINA RESULT:      -7.2      2.066      3.088
  Name = 
  8 active torsions:
  status: ('A' for Active; 'I' for Inactive)
    1  A    between atoms: C_4  and  C_18
    2  A    between atoms: C_4  and  C_23
    3  A    between atoms: C_4  and  C_37
    4  A    between atoms: C_6  and  O_28
    5  A    between atoms: O_8  and  C_25
    6  A    between atoms: C_19  and  O_32
    7  A    between atoms: C_20  and  C_31
    8  A    between atoms: C_26  and  O_32
                            x       y       z     vdW  Elec       q    Type
                         _______ _______ _______ _____ _____    ______ ____

>  <TORSDO>
F 8

$$$$
