=
 OpenBabel11062417063D

 69 78  0  0  1  0  0  0  0  0999 V2000
  194.7570  174.5770  135.7090 C   0  0  0  0  0  2  0  0  0  0  0  0
  188.0740  169.6280  134.6560 C   0  0  0  0  0  3  0  0  0  0  0  0
  189.9530  174.8360  134.9990 C   0  0  0  0  0  2  0  0  0  0  0  0
  188.5650  177.5210  135.2930 C   0  0  0  0  0  2  0  0  0  0  0  0
  188.9970  171.8880  135.2970 C   0  0  0  0  0  3  0  0  0  0  0  0
  189.1610  174.6980  136.3170 C   0  0  2  0  0  3  0  0  0  0  0  0
  190.7130  176.6180  137.7380 S   0  0  0  0  0  0  0  0  0  0  0  0
  184.4620  179.5640  137.8680 C   0  0  0  0  0  2  0  0  0  0  0  0
  187.9300  173.8870  136.1680 N   0  0  0  0  0  0  0  0  0  0  0  0
  187.9130  172.5190  135.7760 C   0  0  0  0  0  0  0  0  0  0  0  0
  186.0510  170.8860  135.4500 C   0  0  0  0  0  3  0  0  0  0  0  0
  181.8880  175.7160  137.2820 O   0  0  0  0  0  0  0  0  0  0  0  0
  196.2590  174.5260  136.0720 C   0  0  0  0  0  2  0  0  0  0  0  0
  192.1240  173.7620  136.3940 P   0  0  2  0  0  0  0  0  0  0  0  0
  186.6160  174.4070  136.2800 N   0  0  0  0  0  2  0  0  0  0  0  0
  194.1060  174.4830  138.2450 C   0  0  2  0  0  3  0  0  0  0  0  0
  195.5170  175.0890  138.3590 C   0  0  1  0  0  3  0  0  0  0  0  0
  186.8540  176.9110  136.8970 O   0  0  0  0  0  0  0  0  0  0  0  0
  182.5310  177.9810  137.5270 N   0  0  0  0  0  2  0  0  0  0  0  0
  182.3480  174.4210  137.3470 N   0  0  0  0  0  2  0  0  0  0  0  0
  197.5660  174.9800  139.5270 O   0  0  0  0  0  0  0  0  0  0  0  0
  183.2380  174.1280  136.2060 C   0  0  2  0  0  0  0  0  0  0  0  0
  183.7310  176.5500  135.9620 C   0  0  0  0  0  2  0  0  0  0  0  0
  187.7360  178.7070  134.8930 C   0  0  0  0  0  3  0  0  0  0  0  0
  196.1640  175.0550  139.7200 C   0  0  0  0  0  2  0  0  0  0  0  0
  184.4310  173.2380  136.5430 C   0  0  1  0  0  0  0  0  0  0  0  0
  191.9080  172.3650  135.8450 O   0  0  0  0  0  0  0  0  0  0  0  0
  186.8800  169.6430  135.5540 C   0  0  0  0  0  2  0  0  0  0  0  0
  196.4790  174.2870  137.5740 C   0  0  2  0  0  3  0  0  0  0  0  0
  185.7290  173.3720  135.7080 C   0  0  2  0  0  3  0  0  0  0  0  0
  189.0040  170.5850  134.5940 C   0  0  0  0  0  3  0  0  0  0  0  0
  197.7840  174.7520  138.1520 C   0  0  0  0  0  2  0  0  0  0  0  0
  184.4810  172.6380  137.9380 C   0  0  0  0  0  1  0  0  0  0  0  0
  183.4830  175.2510  135.1980 C   0  0  0  0  0  2  0  0  0  0  0  0
  193.8800  173.9210  136.8070 C   0  0  2  0  0  3  0  0  0  0  0  0
  193.0810  175.5540  138.6060 C   0  0  0  0  0  2  0  0  0  0  0  0
  183.2610  172.6880  135.7230 C   0  0  0  0  0  2  0  0  0  0  0  0
  186.5860  178.9650  135.5240 C   0  0  0  0  0  3  0  0  0  0  0  0
  188.2390  177.1340  136.7410 C   0  0  1  0  0  3  0  0  0  0  0  0
  186.1220  178.1110  136.6870 C   0  0  2  0  0  3  0  0  0  0  0  0
  189.0730  175.9380  137.2540 C   0  0  1  0  0  3  0  0  0  0  0  0
  186.5380  172.1170  135.6120 C   0  0  0  0  0  0  0  0  0  0  0  0
  183.0050  176.6030  137.3160 C   0  0  2  0  0  0  0  0  0  0  0  0
  191.2970  173.9120  137.8750 O   0  0  0  0  0  0  0  0  0  0  0  0
  185.8600  178.9220  137.9620 C   0  0  2  0  0  3  0  0  0  0  0  0
  191.4610  174.9990  135.2070 C   0  0  0  0  0  2  0  0  0  0  0  0
  183.8970  176.2030  138.3360 O   0  0  0  0  0  1  0  0  0  0  0  0
  183.3330  178.7350  138.5120 C   0  0  2  0  0  3  0  0  0  0  0  0
  191.5890  175.1770  138.4580 C   0  0  2  0  0  3  0  0  0  0  0  0
  182.4070  179.6390  139.3500 C   0  0  0  0  0  2  0  0  0  0  0  0
  182.1400  179.0490  140.6650 N   0  0  0  0  0  2  0  0  0  0  0  0
  183.1690  178.3570  141.3710 C   0  0  0  0  0  0  0  0  0  0  0  0
  183.2750  177.1060  141.2160 O   0  0  0  0  0  0  0  0  0  0  0  0
  184.0880  179.0530  142.1550 O   0  0  0  0  0  0  0  0  0  0  0  0
  184.5670  178.5180  143.3850 C   0  0  2  0  0  3  0  0  0  0  0  0
  182.8220  178.4280  145.0330 O   0  0  0  0  0  1  0  0  0  0  0  0
  184.9110  179.3150  145.7340 C   0  0  0  0  0  1  0  0  0  0  0  0
  183.9130  179.1860  144.6020 C   0  0  1  0  0  3  0  0  0  0  0  0
  185.9690  178.5720  143.4430 O   0  0  0  0  0  0  0  0  0  0  0  0
  186.3510  177.6360  144.3130 O   0  0  0  0  0  0  0  0  0  0  0  0
  187.8940  175.9810  143.7790 O   0  0  0  0  0  1  0  0  0  0  0  0
  187.7260  177.3540  144.0620 C   0  0  2  0  0  3  0  0  0  0  0  0
  188.4560  177.2610  146.5180 C   0  0  0  0  0  1  0  0  0  0  0  0
  190.1440  177.6060  144.7140 C   0  0  0  0  0  1  0  0  0  0  0  0
  188.7100  177.8730  145.1410 C   0  0  0  0  0  3  0  0  0  0  0  0
  185.9850  178.1310  139.1130 O   0  0  0  0  0  0  0  0  0  0  0  0
  186.8280  178.8640  139.9610 C   0  0  0  0  0  2  0  0  0  0  0  0
  188.0990  178.0710  140.2220 C   0  0  0  0  0  2  0  0  0  0  0  0
  188.7950  178.5790  141.4790 C   0  0  0  0  0  1  0  0  0  0  0  0
  1 13  1  0  0  0  0
  2 28  1  0  0  0  0
  3 46  1  0  0  0  0
  5 10  2  0  0  0  0
  6  3  1  6  0  0  0
  6 41  1  0  0  0  0
  7 49  1  0  0  0  0
  8 45  1  0  0  0  0
  8 48  1  0  0  0  0
  9 15  1  0  0  0  0
  9  6  1  0  0  0  0
 10  9  1  0  0  0  0
 11 28  1  0  0  0  0
 11 42  2  0  0  0  0
 12 43  1  0  0  0  0
 12 20  1  0  0  0  0
 14 27  2  6  0  0  0
 14 35  1  0  0  0  0
 14 44  1  0  0  0  0
 16 17  1  0  0  0  0
 16 36  1  6  0  0  0
 17 25  1  1  0  0  0
 19 48  1  0  0  0  0
 21 25  1  0  0  0  0
 22 34  1  6  0  0  0
 22 26  1  0  0  0  0
 22 20  1  0  0  0  0
 23 43  1  0  0  0  0
 24  4  1  0  0  0  0
 24 38  2  0  0  0  0
 26 33  1  1  0  0  0
 29 13  1  6  0  0  0
 29 32  1  0  0  0  0
 29 17  1  0  0  0  0
 30 42  1  1  0  0  0
 30 15  1  0  0  0  0
 30 26  1  0  0  0  0
 31  2  2  0  0  0  0
 31  5  1  0  0  0  0
 32 21  1  0  0  0  0
 34 23  1  0  0  0  0
 35  1  1  6  0  0  0
 35 16  1  0  0  0  0
 37 22  1  0  0  0  0
 37 26  1  0  0  0  0
 39  4  1  6  0  0  0
 39 18  1  0  0  0  0
 39 41  1  0  0  0  0
 40 38  1  6  0  0  0
 40 18  1  0  0  0  0
 40 45  1  0  0  0  0
 41  7  1  6  0  0  0
 42 10  1  0  0  0  0
 43 19  1  0  0  0  0
 43 47  1  1  0  0  0
 44 49  1  0  0  0  0
 45 66  1  1  0  0  0
 46 14  1  0  0  0  0
 48 50  1  6  0  0  0
 49 36  1  6  0  0  0
 50 51  1  0  0  0  0
 51 52  1  0  0  0  0
 52 54  1  0  0  0  0
 53 52  2  0  0  0  0
 55 54  1  6  0  0  0
 55 59  1  0  0  0  0
 55 58  1  0  0  0  0
 58 56  1  0  0  0  0
 58 57  1  1  0  0  0
 59 60  1  0  0  0  0
 62 61  1  1  0  0  0
 62 60  1  0  0  0  0
 62 65  1  0  0  0  0
 64 65  1  0  0  0  0
 65 63  1  0  0  0  0
 66 67  1  0  0  0  0
 67 68  1  0  0  0  0
 68 69  1  0  0  0  0
M  END
>  <MODEL>
1

>  <REMARK>
 VINA RESULT:      -5.3      0.000      0.000
  Name = 
  12 active torsions:
  status: ('A' for Active; 'I' for Inactive)
    1  A    between atoms: C_1  and  C_15
    2  A    between atoms: O_6  and  O_39
    3  A    between atoms: O_6  and  C_58
    4  A    between atoms: C_11  and  O_39
    5  A    between atoms: C_11  and  C_43
    6  A    between atoms: C_11  and  O_57
    7  A    between atoms: C_15  and  O_56
    8  A    between atoms: C_28  and  N_40
    9  A    between atoms: C_28  and  C_67
   10  A    between atoms: C_44  and  O_57
   11  A    between atoms: O_56  and  C_64
   12  A    between atoms: C_58  and  C_68
                            x       y       z     vdW  Elec       q    Type
                         _______ _______ _______ _____ _____    ______ ____

>  <TORSDO>
F 12

$$$$
=
 OpenBabel11062417063D

 69 78  0  0  1  0  0  0  0  0999 V2000
  195.4530  174.8390  136.0760 C   0  0  0  0  0  2  0  0  0  0  0  0
  189.0010  169.6970  134.5970 C   0  0  0  0  0  3  0  0  0  0  0  0
  190.6720  174.9520  135.1950 C   0  0  0  0  0  2  0  0  0  0  0  0
  189.1760  177.5740  135.5300 C   0  0  0  0  0  2  0  0  0  0  0  0
  189.8160  171.9630  135.3520 C   0  0  0  0  0  3  0  0  0  0  0  0
  189.8380  174.7380  136.4760 C   0  0  2  0  0  3  0  0  0  0  0  0
  191.2660  176.6580  138.0220 S   0  0  0  0  0  0  0  0  0  0  0  0
  184.9090  179.3730  138.0190 C   0  0  0  0  0  2  0  0  0  0  0  0
  188.6440  173.8900  136.2520 N   0  0  0  0  0  0  0  0  0  0  0  0
  188.6920  172.5380  135.8120 C   0  0  0  0  0  0  0  0  0  0  0  0
  186.9050  170.8520  135.3580 C   0  0  0  0  0  3  0  0  0  0  0  0
  182.5020  175.4600  137.2010 O   0  0  0  0  0  0  0  0  0  0  0  0
  196.9420  174.8280  136.4930 C   0  0  0  0  0  2  0  0  0  0  0  0
  192.8290  173.9050  136.6320 P   0  0  2  0  0  0  0  0  0  0  0  0
  187.3090  174.3590  136.3330 N   0  0  0  0  0  2  0  0  0  0  0  0
  194.7140  174.6280  138.5810 C   0  0  2  0  0  3  0  0  0  0  0  0
  196.0970  175.2800  138.7690 C   0  0  1  0  0  3  0  0  0  0  0  0
  187.4310  176.8450  137.0460 O   0  0  0  0  0  0  0  0  0  0  0  0
  183.0520  177.7370  137.5500 N   0  0  0  0  0  2  0  0  0  0  0  0
  183.0070  174.1820  137.2370 N   0  0  0  0  0  2  0  0  0  0  0  0
  198.1040  175.2010  140.0090 O   0  0  0  0  0  0  0  0  0  0  0  0
  183.9490  173.9630  136.1210 C   0  0  2  0  0  0  0  0  0  0  0  0
  184.3600  176.4070  135.9810 C   0  0  0  0  0  2  0  0  0  0  0  0
  188.3190  178.7430  135.1420 C   0  0  0  0  0  3  0  0  0  0  0  0
  196.6940  175.2190  140.1520 C   0  0  0  0  0  2  0  0  0  0  0  0
  185.1610  173.1030  136.4720 C   0  0  1  0  0  0  0  0  0  0  0  0
  192.6850  172.5230  136.0260 O   0  0  0  0  0  0  0  0  0  0  0  0
  187.7750  169.6370  135.4490 C   0  0  0  0  0  2  0  0  0  0  0  0
  197.1150  174.5410  137.9930 C   0  0  2  0  0  3  0  0  0  0  0  0
  186.4820  173.3140  135.6910 C   0  0  2  0  0  3  0  0  0  0  0  0
  189.8960  170.6880  134.6040 C   0  0  0  0  0  3  0  0  0  0  0  0
  198.3810  175.0310  138.6370 C   0  0  0  0  0  2  0  0  0  0  0  0
  185.1810  172.4550  137.8460 C   0  0  0  0  0  1  0  0  0  0  0  0
  184.1880  175.1290  135.1630 C   0  0  0  0  0  2  0  0  0  0  0  0
  194.5620  174.1120  137.1170 C   0  0  2  0  0  3  0  0  0  0  0  0
  193.6380  175.6480  138.9400 C   0  0  0  0  0  2  0  0  0  0  0  0
  184.0420  172.5430  135.5890 C   0  0  0  0  0  2  0  0  0  0  0  0
  187.1380  178.9370  135.7370 C   0  0  0  0  0  3  0  0  0  0  0  0
  188.8120  177.1230  136.9510 C   0  0  1  0  0  3  0  0  0  0  0  0
  186.6640  178.0250  136.8510 C   0  0  2  0  0  3  0  0  0  0  0  0
  189.6710  175.9390  137.4520 C   0  0  1  0  0  3  0  0  0  0  0  0
  187.3390  172.0930  135.5810 C   0  0  0  0  0  0  0  0  0  0  0  0
  183.5840  176.3850  137.3080 C   0  0  2  0  0  0  0  0  0  0  0  0
  191.9430  173.9720  138.0850 O   0  0  0  0  0  0  0  0  0  0  0  0
  186.3250  178.7790  138.1430 C   0  0  2  0  0  3  0  0  0  0  0  0
  192.1650  175.1620  135.4650 C   0  0  0  0  0  2  0  0  0  0  0  0
  184.4520  175.9800  138.3470 O   0  0  0  0  0  1  0  0  0  0  0  0
  183.7890  178.4820  138.5900 C   0  0  2  0  0  3  0  0  0  0  0  0
  192.1670  175.2240  138.7230 C   0  0  2  0  0  3  0  0  0  0  0  0
  182.8010  179.3220  139.4240 C   0  0  0  0  0  2  0  0  0  0  0  0
  181.7150  178.4900  139.9520 N   0  0  0  0  0  2  0  0  0  0  0  0
  180.3780  178.9860  139.9950 C   0  0  0  0  0  0  0  0  0  0  0  0
  179.9800  179.5640  141.0470 O   0  0  0  0  0  0  0  0  0  0  0  0
  179.5510  178.9040  138.8760 O   0  0  0  0  0  0  0  0  0  0  0  0
  179.5800  179.8990  137.8580 C   0  0  2  0  0  3  0  0  0  0  0  0
  180.3260  177.9850  136.6130 O   0  0  0  0  0  1  0  0  0  0  0  0
  179.3020  179.7350  135.3750 C   0  0  0  0  0  1  0  0  0  0  0  0
  180.1860  179.3740  136.5500 C   0  0  1  0  0  3  0  0  0  0  0  0
  180.2250  181.0620  138.3100 O   0  0  0  0  0  0  0  0  0  0  0  0
  181.1850  181.3340  137.4250 O   0  0  0  0  0  0  0  0  0  0  0  0
  181.8780  183.5330  137.7160 O   0  0  0  0  0  1  0  0  0  0  0  0
  181.0070  182.6840  137.0020 C   0  0  2  0  0  3  0  0  0  0  0  0
  179.3790  184.5490  137.6720 C   0  0  0  0  0  1  0  0  0  0  0  0
  179.0020  183.2370  135.5840 C   0  0  0  0  0  1  0  0  0  0  0  0
  179.5390  183.1830  137.0050 C   0  0  0  0  0  3  0  0  0  0  0  0
  186.4380  177.9510  139.2700 O   0  0  0  0  0  0  0  0  0  0  0  0
  187.5870  178.4050  139.9340 C   0  0  0  0  0  2  0  0  0  0  0  0
  187.2820  178.5780  141.4130 C   0  0  0  0  0  2  0  0  0  0  0  0
  185.7870  178.4270  141.6710 C   0  0  0  0  0  1  0  0  0  0  0  0
  1 13  1  0  0  0  0
  2 31  2  0  0  0  0
  2 28  1  0  0  0  0
  3 46  1  0  0  0  0
  5 10  2  0  0  0  0
  6  3  1  6  0  0  0
  6 41  1  0  0  0  0
  7 49  1  0  0  0  0
  8 45  1  0  0  0  0
  8 48  1  0  0  0  0
  9 15  1  0  0  0  0
  9  6  1  0  0  0  0
 10  9  1  0  0  0  0
 11 28  1  0  0  0  0
 11 42  2  0  0  0  0
 12 20  1  0  0  0  0
 12 43  1  0  0  0  0
 14 27  2  6  0  0  0
 14 35  1  0  0  0  0
 14 44  1  0  0  0  0
 16 17  1  0  0  0  0
 16 36  1  6  0  0  0
 17 25  1  1  0  0  0
 19 48  1  0  0  0  0
 21 25  1  0  0  0  0
 22 34  1  6  0  0  0
 22 26  1  0  0  0  0
 22 20  1  0  0  0  0
 23 43  1  0  0  0  0
 24  4  1  0  0  0  0
 24 38  2  0  0  0  0
 26 33  1  1  0  0  0
 29 13  1  6  0  0  0
 29 32  1  0  0  0  0
 29 17  1  0  0  0  0
 30 42  1  1  0  0  0
 30 15  1  0  0  0  0
 30 26  1  0  0  0  0
 31  5  1  0  0  0  0
 32 21  1  0  0  0  0
 34 23  1  0  0  0  0
 35  1  1  6  0  0  0
 35 16  1  0  0  0  0
 37 22  1  0  0  0  0
 37 26  1  0  0  0  0
 39  4  1  6  0  0  0
 39 18  1  0  0  0  0
 39 41  1  0  0  0  0
 40 38  1  6  0  0  0
 40 18  1  0  0  0  0
 40 45  1  0  0  0  0
 41  7  1  6  0  0  0
 42 10  1  0  0  0  0
 43 19  1  0  0  0  0
 43 47  1  1  0  0  0
 44 49  1  0  0  0  0
 45 66  1  1  0  0  0
 46 14  1  0  0  0  0
 48 50  1  6  0  0  0
 49 36  1  6  0  0  0
 50 51  1  0  0  0  0
 51 52  1  0  0  0  0
 52 53  2  0  0  0  0
 54 52  1  0  0  0  0
 55 59  1  1  0  0  0
 55 54  1  0  0  0  0
 58 57  1  6  0  0  0
 58 56  1  0  0  0  0
 58 55  1  0  0  0  0
 60 59  1  0  0  0  0
 62 65  1  0  0  0  0
 62 60  1  0  0  0  0
 62 61  1  1  0  0  0
 64 65  1  0  0  0  0
 65 63  1  0  0  0  0
 66 67  1  0  0  0  0
 67 68  1  0  0  0  0
 68 69  1  0  0  0  0
M  END
>  <MODEL>
2

>  <REMARK>
 VINA RESULT:      -3.8      2.275      4.644
  Name = 
  12 active torsions:
  status: ('A' for Active; 'I' for Inactive)
    1  A    between atoms: C_1  and  C_15
    2  A    between atoms: O_6  and  O_39
    3  A    between atoms: O_6  and  C_58
    4  A    between atoms: C_11  and  O_39
    5  A    between atoms: C_11  and  C_43
    6  A    between atoms: C_11  and  O_57
    7  A    between atoms: C_15  and  O_56
    8  A    between atoms: C_28  and  N_40
    9  A    between atoms: C_28  and  C_67
   10  A    between atoms: C_44  and  O_57
   11  A    between atoms: O_56  and  C_64
   12  A    between atoms: C_58  and  C_68
                            x       y       z     vdW  Elec       q    Type
                         _______ _______ _______ _____ _____    ______ ____

>  <TORSDO>
F 12

$$$$
