=
 OpenBabel11062414023D

 49 55  0  0  1  0  0  0  0  0999 V2000
  190.9700  175.6150  135.9160 C   0  0  0  0  0  3  0  0  0  0  0  0
  187.4410  177.9710  141.9400 C   0  0  0  0  0  3  0  0  0  0  0  0
  186.4920  178.6840  135.7430 O   0  0  0  0  0  0  0  0  0  0  0  0
  187.7410  177.8450  140.5680 C   0  0  0  0  0  0  0  0  0  0  0  0
  189.2740  177.2770  138.6930 C   0  0  2  0  0  3  0  0  0  0  0  0
  188.0630  176.9920  138.0020 O   0  0  0  0  0  0  0  0  0  0  0  0
  185.8150  177.5070  135.9440 C   0  0  1  0  0  3  0  0  0  0  0  0
  185.4550  178.6250  140.0710 C   0  0  0  0  0  0  0  0  0  0  0  0
  190.2380  176.1780  138.3630 C   0  0  0  0  0  3  0  0  0  0  0  0
  188.9930  177.4350  140.1840 C   0  0  1  0  0  3  0  0  0  0  0  0
  190.6040  175.9380  137.1320 C   0  0  0  0  0  0  0  0  0  0  0  0
  186.6820  178.0510  139.6180 C   0  0  0  0  0  0  0  0  0  0  0  0
  188.0950  176.6050  135.0910 N   0  0  0  0  0  0  0  0  0  0  0  0
  185.1960  178.6760  141.4340 C   0  0  0  0  0  3  0  0  0  0  0  0
  189.3610  177.2210  134.7350 C   0  0  0  0  0  2  0  0  0  0  0  0
  186.1540  178.3140  142.3710 C   0  0  0  0  0  0  0  0  0  0  0  0
  186.8280  177.5190  138.3720 C   0  0  2  0  0  3  0  0  0  0  0  0
  190.4160  176.2190  134.7380 N   0  0  0  0  0  2  0  0  0  0  0  0
  187.1000  177.3360  135.4690 C   0  0  0  0  0  0  0  0  0  0  0  0
  185.6600  177.2150  137.4570 C   0  0  0  0  0  2  0  0  0  0  0  0
  184.4690  179.2950  139.1790 C   0  0  0  0  0  0  0  0  0  0  0  0
  184.6060  180.5140  138.8970 O   0  0  0  0  0  0  0  0  0  0  0  0
  183.2140  178.5980  138.7370 C   0  0  0  0  0  2  0  0  0  0  0  0
  180.0420  181.5440  139.4230 N   0  0  0  0  0  0  0  0  0  0  0  0
  180.8550  180.5960  139.0870 C   0  0  0  0  0  0  0  0  0  0  0  0
  181.1670  179.5200  139.9820 N   0  0  0  0  0  2  0  0  0  0  0  0
  182.1880  177.5410  140.6330 O   0  0  0  0  0  0  0  0  0  0  0  0
  182.1870  178.5200  139.8340 C   0  0  0  0  0  0  0  0  0  0  0  0
  180.7330  182.0320  137.3230 N   0  0  0  0  0  0  0  0  0  0  0  0
  179.9940  182.4230  138.3100 C   0  0  0  0  0  3  0  0  0  0  0  0
  181.3860  180.7870  137.7080 C   0  0  0  0  0  2  0  0  0  0  0  0
  185.8090  178.3200  143.8020 C   0  0  0  0  0  0  0  0  0  0  0  0
  186.2840  177.4210  144.5650 O   0  0  0  0  0  0  0  0  0  0  0  0
  185.0080  179.3440  144.3350 O   0  0  0  0  0  0  0  0  0  0  0  0
  183.8460  179.0330  145.1030 C   0  0  0  0  0  2  0  0  0  0  0  0
  182.6740  178.8020  144.1740 C   0  0  0  0  0  1  0  0  0  0  0  0
  191.4490  177.7970  140.5620 C   0  0  0  0  0  1  0  0  0  0  0  0
  190.1240  177.4210  141.2110 C   0  0  2  0  0  3  0  0  0  0  0  0
  190.2780  176.1740  141.8270 O   0  0  0  0  0  0  0  0  0  0  0  0
  191.4840  176.2560  142.5280 C   0  0  0  0  0  2  0  0  0  0  0  0
  191.2680  175.8420  143.9860 C   0  0  0  0  0  2  0  0  0  0  0  0
  189.7180  177.6030  144.9750 C   0  0  1  0  0  3  0  0  0  0  0  0
  189.2270  177.9770  146.3810 C   0  0  0  0  0  2  0  0  0  0  0  0
  190.2390  178.8760  144.3280 C   0  0  0  0  0  2  0  0  0  0  0  0
  190.7000  176.0360  147.2070 C   0  0  0  0  0  2  0  0  0  0  0  0
  191.1450  177.0300  144.9580 C   0  0  1  0  0  0  0  0  0  0  0  0
  191.7280  176.7730  146.3570 C   0  0  0  0  0  2  0  0  0  0  0  0
  191.6600  178.3250  144.3520 C   0  0  0  0  0  2  0  0  0  0  0  0
  189.4050  176.8360  147.3940 C   0  0  0  0  0  2  0  0  0  0  0  0
  1 11  2  0  0  0  0
  2 16  1  0  0  0  0
  3  7  1  0  0  0  0
  4  2  2  0  0  0  0
  5  9  1  1  0  0  0
  5 10  1  0  0  0  0
  6 17  1  0  0  0  0
  6  5  1  0  0  0  0
  7 20  1  1  0  0  0
  8 14  1  0  0  0  0
 10  4  1  0  0  0  0
 10 38  1  6  0  0  0
 11  9  2  0  0  0  0
 12  8  2  0  0  0  0
 12  4  1  0  0  0  0
 13 19  2  0  0  0  0
 14 16  2  0  0  0  0
 15 18  1  0  0  0  0
 15 13  1  0  0  0  0
 16 32  1  0  0  0  0
 17 20  1  1  0  0  0
 17 12  1  0  0  0  0
 18  1  1  0  0  0  0
 19  3  1  0  0  0  0
 19  7  1  0  0  0  0
 21  8  1  0  0  0  0
 22 21  2  0  0  0  0
 23 21  1  0  0  0  0
 23 28  1  0  0  0  0
 25 24  2  0  0  0  0
 25 26  1  0  0  0  0
 28 26  1  0  0  0  0
 28 27  2  0  0  0  0
 29 31  1  0  0  0  0
 29 30  2  0  0  0  0
 30 24  1  0  0  0  0
 31 25  1  0  0  0  0
 32 34  1  0  0  0  0
 32 33  2  0  0  0  0
 34 35  1  0  0  0  0
 36 35  1  0  0  0  0
 38 37  1  6  0  0  0
 38 39  1  0  0  0  0
 39 40  1  0  0  0  0
 40 41  1  0  0  0  0
 42 44  1  6  0  0  0
 42 43  1  0  0  0  0
 43 49  1  0  0  0  0
 44 48  1  0  0  0  0
 45 49  1  0  0  0  0
 46 41  1  6  0  0  0
 46 42  1  0  0  0  0
 46 47  1  0  0  0  0
 47 45  1  0  0  0  0
 48 46  1  0  0  0  0
M  END
>  <MODEL>
1

>  <REMARK>
 VINA RESULT:      -9.0      0.000      0.000
  Name = 
  11 active torsions:
  status: ('A' for Active; 'I' for Inactive)
    1  A    between atoms: C_6  and  O_13
    2  A    between atoms: C_12  and  C_21
    3  A    between atoms: O_13  and  C_23
    4  A    between atoms: C_17  and  C_39
    5  A    between atoms: C_21  and  C_48
    6  A    between atoms: C_23  and  C_28
    7  A    between atoms: C_24  and  C_32
    8  A    between atoms: C_24  and  C_47
    9  A    between atoms: C_36  and  C_48
   10  A    between atoms: C_39  and  O_45
   11  A    between atoms: O_45  and  C_47
                            x       y       z     vdW  Elec       q    Type
                         _______ _______ _______ _____ _____    ______ ____

>  <TORSDO>
F 11

$$$$
=
 OpenBabel11062414023D

 49 55  0  0  1  0  0  0  0  0999 V2000
  187.9140  178.3010  136.2280 C   0  0  0  0  0  3  0  0  0  0  0  0
  182.5890  178.6490  141.3100 C   0  0  0  0  0  3  0  0  0  0  0  0
  188.7160  177.1480  141.4740 O   0  0  0  0  0  0  0  0  0  0  0  0
  183.8660  178.3850  140.7720 C   0  0  0  0  0  0  0  0  0  0  0  0
  185.4070  177.9640  138.8650 C   0  0  2  0  0  3  0  0  0  0  0  0
  186.3780  178.5390  139.7330 O   0  0  0  0  0  0  0  0  0  0  0  0
  188.8090  178.5070  141.6420 C   0  0  1  0  0  3  0  0  0  0  0  0
  184.7630  178.4310  143.0690 C   0  0  0  0  0  0  0  0  0  0  0  0
  185.6420  178.5390  137.5020 C   0  0  0  0  0  3  0  0  0  0  0  0
  184.0080  178.2160  139.4180 C   0  0  1  0  0  3  0  0  0  0  0  0
  186.7800  178.3810  136.8800 C   0  0  0  0  0  0  0  0  0  0  0  0
  184.9970  178.4070  141.6600 C   0  0  0  0  0  0  0  0  0  0  0  0
  189.2340  178.3120  139.0880 N   0  0  0  0  0  0  0  0  0  0  0  0
  183.4950  178.7460  143.5380 C   0  0  0  0  0  3  0  0  0  0  0  0
  189.2260  177.2130  138.1400 C   0  0  0  0  0  2  0  0  0  0  0  0
  182.4180  178.9010  142.6770 C   0  0  0  0  0  0  0  0  0  0  0  0
  186.2320  178.5920  141.1170 C   0  0  2  0  0  3  0  0  0  0  0  0
  189.1060  177.7290  136.7850 N   0  0  0  0  0  2  0  0  0  0  0  0
  189.0040  178.0910  140.3400 C   0  0  0  0  0  0  0  0  0  0  0  0
  187.4120  179.1240  141.9030 C   0  0  0  0  0  2  0  0  0  0  0  0
  185.7660  178.0150  144.0870 C   0  0  0  0  0  0  0  0  0  0  0  0
  186.1760  176.8250  144.1150 O   0  0  0  0  0  0  0  0  0  0  0  0
  186.1840  178.9390  145.1950 C   0  0  0  0  0  2  0  0  0  0  0  0
  189.1700  176.6010  147.3940 N   0  0  0  0  0  0  0  0  0  0  0  0
  188.3800  177.4490  146.8200 C   0  0  0  0  0  0  0  0  0  0  0  0
  187.0100  177.5900  147.2180 N   0  0  0  0  0  2  0  0  0  0  0  0
  184.8740  178.4930  147.1570 O   0  0  0  0  0  0  0  0  0  0  0  0
  185.9730  178.3300  146.5560 C   0  0  0  0  0  0  0  0  0  0  0  0
  190.4100  177.6260  145.8010 N   0  0  0  0  0  0  0  0  0  0  0  0
  190.4190  176.7290  146.7330 C   0  0  0  0  0  3  0  0  0  0  0  0
  189.0760  178.2100  145.7440 C   0  0  0  0  0  2  0  0  0  0  0  0
  181.1080  179.3030  143.2160 C   0  0  0  0  0  0  0  0  0  0  0  0
  180.5090  178.5430  144.0380 O   0  0  0  0  0  0  0  0  0  0  0  0
  180.5490  180.5450  142.8690 O   0  0  0  0  0  0  0  0  0  0  0  0
  179.3340  180.6130  142.1230 C   0  0  0  0  0  2  0  0  0  0  0  0
  179.6480  180.9120  140.6730 C   0  0  0  0  0  1  0  0  0  0  0  0
  182.0660  179.3350  138.2850 C   0  0  0  0  0  1  0  0  0  0  0  0
  182.7650  178.0090  138.5550 C   0  0  2  0  0  3  0  0  0  0  0  0
  181.8390  177.1400  139.1420 O   0  0  0  0  0  0  0  0  0  0  0  0
  181.6480  176.1180  138.2070 C   0  0  0  0  0  2  0  0  0  0  0  0
  182.5990  174.9570  138.5030 C   0  0  0  0  0  2  0  0  0  0  0  0
  184.5680  173.6270  137.5870 C   0  0  1  0  0  3  0  0  0  0  0  0
  184.7490  172.3090  136.8230 C   0  0  0  0  0  2  0  0  0  0  0  0
  185.3400  174.6950  136.8290 C   0  0  0  0  0  2  0  0  0  0  0  0
  182.1840  172.1250  136.9060 C   0  0  0  0  0  2  0  0  0  0  0  0
  183.2580  174.3560  137.2470 C   0  0  1  0  0  0  0  0  0  0  0  0
  182.3060  173.5420  136.3550 C   0  0  0  0  0  2  0  0  0  0  0  0
  184.0370  175.3920  136.4550 C   0  0  0  0  0  2  0  0  0  0  0  0
  183.5270  171.3850  136.9360 C   0  0  0  0  0  2  0  0  0  0  0  0
  1 18  1  0  0  0  0
  1 11  2  0  0  0  0
  2 16  1  0  0  0  0
  3  7  1  0  0  0  0
  4  2  2  0  0  0  0
  4 12  1  0  0  0  0
  5  9  1  6  0  0  0
  5 10  1  0  0  0  0
  5  6  1  0  0  0  0
  6 17  1  0  0  0  0
  7 20  1  6  0  0  0
  8 14  1  0  0  0  0
  8 21  1  0  0  0  0
 10 38  1  1  0  0  0
 10  4  1  0  0  0  0
 11  9  2  0  0  0  0
 12  8  2  0  0  0  0
 13 19  2  0  0  0  0
 15 13  1  0  0  0  0
 16 32  1  0  0  0  0
 16 14  2  0  0  0  0
 17 12  1  0  0  0  0
 17 20  1  6  0  0  0
 18 15  1  0  0  0  0
 19  3  1  0  0  0  0
 19  7  1  0  0  0  0
 21 22  2  0  0  0  0
 21 23  1  0  0  0  0
 23 28  1  0  0  0  0
 25 26  1  0  0  0  0
 25 24  2  0  0  0  0
 28 27  2  0  0  0  0
 28 26  1  0  0  0  0
 29 30  2  0  0  0  0
 30 24  1  0  0  0  0
 31 29  1  0  0  0  0
 31 25  1  0  0  0  0
 32 33  2  0  0  0  0
 34 32  1  0  0  0  0
 35 34  1  0  0  0  0
 36 35  1  0  0  0  0
 38 37  1  1  0  0  0
 38 39  1  0  0  0  0
 40 41  1  0  0  0  0
 40 39  1  0  0  0  0
 42 43  1  6  0  0  0
 43 49  1  0  0  0  0
 44 42  1  0  0  0  0
 45 49  1  0  0  0  0
 46 42  1  0  0  0  0
 46 41  1  1  0  0  0
 47 45  1  0  0  0  0
 47 46  1  0  0  0  0
 48 44  1  0  0  0  0
 48 46  1  0  0  0  0
M  END
>  <MODEL>
2

>  <REMARK>
 VINA RESULT:      -9.0      3.701      8.188
  Name = 
  11 active torsions:
  status: ('A' for Active; 'I' for Inactive)
    1  A    between atoms: C_6  and  O_13
    2  A    between atoms: C_12  and  C_21
    3  A    between atoms: O_13  and  C_23
    4  A    between atoms: C_17  and  C_39
    5  A    between atoms: C_21  and  C_48
    6  A    between atoms: C_23  and  C_28
    7  A    between atoms: C_24  and  C_32
    8  A    between atoms: C_24  and  C_47
    9  A    between atoms: C_36  and  C_48
   10  A    between atoms: C_39  and  O_45
   11  A    between atoms: O_45  and  C_47
                            x       y       z     vdW  Elec       q    Type
                         _______ _______ _______ _____ _____    ______ ____

>  <TORSDO>
F 11

$$$$
=
 OpenBabel11062414023D

 49 55  0  0  1  0  0  0  0  0999 V2000
  188.5490  178.2520  135.9250 C   0  0  0  0  0  3  0  0  0  0  0  0
  184.0260  178.7120  141.7240 C   0  0  0  0  0  3  0  0  0  0  0  0
  189.8450  176.4240  140.8730 O   0  0  0  0  0  0  0  0  0  0  0  0
  185.1720  178.3470  140.9870 C   0  0  0  0  0  0  0  0  0  0  0  0
  186.3800  177.9480  138.8500 C   0  0  2  0  0  3  0  0  0  0  0  0
  187.5260  178.2920  139.6200 O   0  0  0  0  0  0  0  0  0  0  0  0
  190.1520  177.7330  141.1520 C   0  0  1  0  0  3  0  0  0  0  0  0
  186.3540  178.0190  143.1270 C   0  0  0  0  0  0  0  0  0  0  0  0
  186.5170  178.6370  137.5260 C   0  0  0  0  0  3  0  0  0  0  0  0
  185.1130  178.3140  139.6170 C   0  0  1  0  0  3  0  0  0  0  0  0
  187.5320  178.4040  136.7370 C   0  0  0  0  0  0  0  0  0  0  0  0
  186.3990  178.1230  141.7030 C   0  0  0  0  0  0  0  0  0  0  0  0
  190.2130  177.7720  138.5560 N   0  0  0  0  0  0  0  0  0  0  0  0
  185.2150  178.4410  143.7990 C   0  0  0  0  0  3  0  0  0  0  0  0
  189.9270  176.7960  137.5200 C   0  0  0  0  0  2  0  0  0  0  0  0
  184.0690  178.8290  143.1190 C   0  0  0  0  0  0  0  0  0  0  0  0
  187.5680  178.2080  141.0100 C   0  0  2  0  0  3  0  0  0  0  0  0
  189.7090  177.4720  136.2510 N   0  0  0  0  0  2  0  0  0  0  0  0
  190.1170  177.4440  139.8020 C   0  0  0  0  0  0  0  0  0  0  0  0
  188.9030  178.4920  141.6650 C   0  0  0  0  0  2  0  0  0  0  0  0
  187.4100  177.3670  143.9490 C   0  0  0  0  0  0  0  0  0  0  0  0
  187.6470  176.1390  143.8050 O   0  0  0  0  0  0  0  0  0  0  0  0
  188.0930  178.0980  145.0680 C   0  0  0  0  0  2  0  0  0  0  0  0
  190.7350  175.7300  147.6420 N   0  0  0  0  0  0  0  0  0  0  0  0
  190.0460  176.5860  146.9610 C   0  0  0  0  0  0  0  0  0  0  0  0
  188.6490  176.7970  147.2110 N   0  0  0  0  0  2  0  0  0  0  0  0
  186.5710  177.7810  146.8990 O   0  0  0  0  0  0  0  0  0  0  0  0
  187.7180  177.5510  146.4200 C   0  0  0  0  0  0  0  0  0  0  0  0
  192.1740  176.6430  146.1520 N   0  0  0  0  0  0  0  0  0  0  0  0
  192.0500  175.7830  147.1100 C   0  0  0  0  0  3  0  0  0  0  0  0
  190.8790  177.2770  145.9370 C   0  0  0  0  0  2  0  0  0  0  0  0
  182.9100  179.3340  143.8740 C   0  0  0  0  0  0  0  0  0  0  0  0
  182.9660  179.3920  145.1420 O   0  0  0  0  0  0  0  0  0  0  0  0
  181.7720  179.8030  143.1970 O   0  0  0  0  0  0  0  0  0  0  0  0
  180.6960  178.9180  142.8840 C   0  0  0  0  0  2  0  0  0  0  0  0
  179.5610  179.1380  143.8600 C   0  0  0  0  0  1  0  0  0  0  0  0
  183.1670  179.7710  138.9880 C   0  0  0  0  0  1  0  0  0  0  0  0
  183.7530  178.3670  138.9240 C   0  0  2  0  0  3  0  0  0  0  0  0
  182.8270  177.4810  139.4860 O   0  0  0  0  0  0  0  0  0  0  0  0
  182.4910  176.5960  138.4570 C   0  0  0  0  0  2  0  0  0  0  0  0
  183.1370  175.2330  138.7120 C   0  0  0  0  0  2  0  0  0  0  0  0
  184.6580  173.4140  137.7840 C   0  0  1  0  0  3  0  0  0  0  0  0
  184.4840  172.1810  136.8870 C   0  0  0  0  0  2  0  0  0  0  0  0
  185.8050  174.2300  137.2080 C   0  0  0  0  0  2  0  0  0  0  0  0
  182.0010  172.8460  136.7750 C   0  0  0  0  0  2  0  0  0  0  0  0
  183.6930  174.5600  137.4420 C   0  0  1  0  0  0  0  0  0  0  0  0
  182.6260  174.1850  136.4010 C   0  0  0  0  0  2  0  0  0  0  0  0
  184.8390  175.3470  136.8290 C   0  0  0  0  0  2  0  0  0  0  0  0
  183.0260  171.7050  136.8090 C   0  0  0  0  0  2  0  0  0  0  0  0
  1 18  1  0  0  0  0
  1 11  2  0  0  0  0
  2 16  1  0  0  0  0
  3  7  1  0  0  0  0
  4 12  1  0  0  0  0
  4  2  2  0  0  0  0
  5  9  1  6  0  0  0
  5 10  1  0  0  0  0
  5  6  1  0  0  0  0
  6 17  1  0  0  0  0
  7 20  1  6  0  0  0
  8 14  1  0  0  0  0
  8 21  1  0  0  0  0
 10 38  1  1  0  0  0
 10  4  1  0  0  0  0
 11  9  2  0  0  0  0
 12  8  2  0  0  0  0
 13 19  2  0  0  0  0
 15 13  1  0  0  0  0
 16 14  2  0  0  0  0
 16 32  1  0  0  0  0
 17 20  1  1  0  0  0
 17 12  1  0  0  0  0
 18 15  1  0  0  0  0
 19  3  1  0  0  0  0
 19  7  1  0  0  0  0
 21 23  1  0  0  0  0
 22 21  2  0  0  0  0
 23 28  1  0  0  0  0
 25 26  1  0  0  0  0
 25 24  2  0  0  0  0
 28 27  2  0  0  0  0
 28 26  1  0  0  0  0
 29 30  2  0  0  0  0
 30 24  1  0  0  0  0
 31 29  1  0  0  0  0
 31 25  1  0  0  0  0
 32 33  2  0  0  0  0
 34 32  1  0  0  0  0
 35 34  1  0  0  0  0
 35 36  1  0  0  0  0
 38 37  1  1  0  0  0
 38 39  1  0  0  0  0
 40 41  1  0  0  0  0
 40 39  1  0  0  0  0
 42 43  1  6  0  0  0
 44 42  1  0  0  0  0
 45 49  1  0  0  0  0
 46 42  1  0  0  0  0
 46 41  1  1  0  0  0
 47 45  1  0  0  0  0
 47 46  1  0  0  0  0
 48 44  1  0  0  0  0
 48 46  1  0  0  0  0
 49 43  1  0  0  0  0
M  END
>  <MODEL>
3

>  <REMARK>
 VINA RESULT:      -8.8      3.762      8.238
  Name = 
  11 active torsions:
  status: ('A' for Active; 'I' for Inactive)
    1  A    between atoms: C_6  and  O_13
    2  A    between atoms: C_12  and  C_21
    3  A    between atoms: O_13  and  C_23
    4  A    between atoms: C_17  and  C_39
    5  A    between atoms: C_21  and  C_48
    6  A    between atoms: C_23  and  C_28
    7  A    between atoms: C_24  and  C_32
    8  A    between atoms: C_24  and  C_47
    9  A    between atoms: C_36  and  C_48
   10  A    between atoms: C_39  and  O_45
   11  A    between atoms: O_45  and  C_47
                            x       y       z     vdW  Elec       q    Type
                         _______ _______ _______ _____ _____    ______ ____

>  <TORSDO>
F 11

$$$$
=
 OpenBabel11062414023D

 49 55  0  0  1  0  0  0  0  0999 V2000
  191.1330  175.7570  135.9320 C   0  0  0  0  0  3  0  0  0  0  0  0
  187.4710  177.9830  141.9260 C   0  0  0  0  0  3  0  0  0  0  0  0
  186.5830  178.7150  135.7220 O   0  0  0  0  0  0  0  0  0  0  0  0
  187.7910  177.8740  140.5570 C   0  0  0  0  0  0  0  0  0  0  0  0
  189.3620  177.3580  138.6980 C   0  0  2  0  0  3  0  0  0  0  0  0
  188.1670  177.0470  137.9900 O   0  0  0  0  0  0  0  0  0  0  0  0
  185.9330  177.5200  135.9070 C   0  0  1  0  0  3  0  0  0  0  0  0
  185.4930  178.6000  140.0360 C   0  0  0  0  0  0  0  0  0  0  0  0
  190.3560  176.2850  138.3730 C   0  0  0  0  0  3  0  0  0  0  0  0
  189.0580  177.4980  140.1860 C   0  0  1  0  0  3  0  0  0  0  0  0
  190.7440  176.0630  137.1450 C   0  0  0  0  0  0  0  0  0  0  0  0
  186.7400  178.0600  139.5940 C   0  0  0  0  0  0  0  0  0  0  0  0
  188.2460  176.6810  135.0770 N   0  0  0  0  0  0  0  0  0  0  0  0
  185.2160  178.6360  141.3950 C   0  0  0  0  0  3  0  0  0  0  0  0
  189.5000  177.3310  134.7410 C   0  0  0  0  0  2  0  0  0  0  0  0
  186.1700  178.2910  142.3430 C   0  0  0  0  0  0  0  0  0  0  0  0
  186.9150  177.5410  138.3470 C   0  0  2  0  0  3  0  0  0  0  0  0
  190.5800  176.3560  134.7510 N   0  0  0  0  0  2  0  0  0  0  0  0
  187.2280  177.3850  135.4470 C   0  0  0  0  0  0  0  0  0  0  0  0
  185.7670  177.2140  137.4160 C   0  0  0  0  0  2  0  0  0  0  0  0
  184.5020  179.2510  139.1360 C   0  0  0  0  0  0  0  0  0  0  0  0
  184.5590  180.4930  138.9350 O   0  0  0  0  0  0  0  0  0  0  0  0
  183.3270  178.4940  138.5880 C   0  0  0  0  0  2  0  0  0  0  0  0
  180.3610  175.2730  138.7860 N   0  0  0  0  0  0  0  0  0  0  0  0
  181.3490  176.1050  138.8390 C   0  0  0  0  0  0  0  0  0  0  0  0
  181.2590  177.3340  139.5730 N   0  0  0  0  0  2  0  0  0  0  0  0
  182.0310  179.3520  140.4180 O   0  0  0  0  0  0  0  0  0  0  0  0
  182.1810  178.4350  139.5620 C   0  0  0  0  0  0  0  0  0  0  0  0
  182.0150  174.3540  137.5440 N   0  0  0  0  0  0  0  0  0  0  0  0
  180.8030  174.2010  137.9680 C   0  0  0  0  0  3  0  0  0  0  0  0
  182.5230  175.6180  138.0630 C   0  0  0  0  0  2  0  0  0  0  0  0
  185.8070  178.2780  143.7690 C   0  0  0  0  0  0  0  0  0  0  0  0
  186.2590  177.3600  144.5230 O   0  0  0  0  0  0  0  0  0  0  0  0
  185.0150  179.3050  144.3090 O   0  0  0  0  0  0  0  0  0  0  0  0
  183.7810  179.0050  144.9610 C   0  0  0  0  0  2  0  0  0  0  0  0
  182.6890  178.8420  143.9260 C   0  0  0  0  0  1  0  0  0  0  0  0
  191.5130  177.8440  140.5840 C   0  0  0  0  0  1  0  0  0  0  0  0
  190.1750  177.5050  141.2270 C   0  0  2  0  0  3  0  0  0  0  0  0
  190.3070  176.2780  141.8860 O   0  0  0  0  0  0  0  0  0  0  0  0
  191.5350  176.3460  142.5520 C   0  0  0  0  0  2  0  0  0  0  0  0
  191.3620  175.9070  144.0080 C   0  0  0  0  0  2  0  0  0  0  0  0
  189.7470  177.6220  144.9720 C   0  0  1  0  0  3  0  0  0  0  0  0
  189.2030  177.9650  146.3660 C   0  0  0  0  0  2  0  0  0  0  0  0
  190.2630  178.9150  144.3620 C   0  0  0  0  0  2  0  0  0  0  0  0
  190.6860  176.0400  147.2110 C   0  0  0  0  0  2  0  0  0  0  0  0
  191.1840  177.0770  144.9930 C   0  0  1  0  0  0  0  0  0  0  0  0
  191.7260  176.8090  146.4060 C   0  0  0  0  0  2  0  0  0  0  0  0
  191.6930  178.3910  144.4240 C   0  0  0  0  0  2  0  0  0  0  0  0
  189.3700  176.8120  147.3670 C   0  0  0  0  0  2  0  0  0  0  0  0
  1 11  2  0  0  0  0
  2 16  1  0  0  0  0
  3  7  1  0  0  0  0
  4  2  2  0  0  0  0
  5  9  1  1  0  0  0
  5 10  1  0  0  0  0
  6 17  1  0  0  0  0
  6  5  1  0  0  0  0
  7 20  1  1  0  0  0
  8 14  1  0  0  0  0
 10  4  1  0  0  0  0
 10 38  1  6  0  0  0
 11  9  2  0  0  0  0
 12  8  2  0  0  0  0
 12  4  1  0  0  0  0
 13 19  2  0  0  0  0
 14 16  2  0  0  0  0
 15 18  1  0  0  0  0
 15 13  1  0  0  0  0
 16 32  1  0  0  0  0
 17 20  1  1  0  0  0
 17 12  1  0  0  0  0
 18  1  1  0  0  0  0
 19  3  1  0  0  0  0
 19  7  1  0  0  0  0
 21  8  1  0  0  0  0
 22 21  2  0  0  0  0
 23 21  1  0  0  0  0
 23 28  1  0  0  0  0
 24 25  2  0  0  0  0
 25 26  1  0  0  0  0
 28 26  1  0  0  0  0
 28 27  2  0  0  0  0
 29 30  2  0  0  0  0
 29 31  1  0  0  0  0
 30 24  1  0  0  0  0
 31 25  1  0  0  0  0
 32 34  1  0  0  0  0
 32 33  2  0  0  0  0
 34 35  1  0  0  0  0
 36 35  1  0  0  0  0
 38 37  1  6  0  0  0
 38 39  1  0  0  0  0
 39 40  1  0  0  0  0
 40 41  1  0  0  0  0
 42 44  1  6  0  0  0
 42 46  1  0  0  0  0
 42 43  1  0  0  0  0
 43 49  1  0  0  0  0
 44 48  1  0  0  0  0
 45 49  1  0  0  0  0
 46 41  1  6  0  0  0
 46 47  1  0  0  0  0
 47 45  1  0  0  0  0
 48 46  1  0  0  0  0
M  END
>  <MODEL>
4

>  <REMARK>
 VINA RESULT:      -8.8      1.456      2.150
  Name = 
  11 active torsions:
  status: ('A' for Active; 'I' for Inactive)
    1  A    between atoms: C_6  and  O_13
    2  A    between atoms: C_12  and  C_21
    3  A    between atoms: O_13  and  C_23
    4  A    between atoms: C_17  and  C_39
    5  A    between atoms: C_21  and  C_48
    6  A    between atoms: C_23  and  C_28
    7  A    between atoms: C_24  and  C_32
    8  A    between atoms: C_24  and  C_47
    9  A    between atoms: C_36  and  C_48
   10  A    between atoms: C_39  and  O_45
   11  A    between atoms: O_45  and  C_47
                            x       y       z     vdW  Elec       q    Type
                         _______ _______ _______ _____ _____    ______ ____

>  <TORSDO>
F 11

$$$$
=
 OpenBabel11062414023D

 49 55  0  0  1  0  0  0  0  0999 V2000
  187.5990  178.1590  135.2050 C   0  0  0  0  0  3  0  0  0  0  0  0
  184.6110  178.6940  141.9200 C   0  0  0  0  0  3  0  0  0  0  0  0
  189.9770  176.2320  139.6920 O   0  0  0  0  0  0  0  0  0  0  0  0
  185.5350  178.3010  140.9290 C   0  0  0  0  0  0  0  0  0  0  0  0
  186.1820  177.8890  138.5630 C   0  0  2  0  0  3  0  0  0  0  0  0
  187.4900  178.1870  139.0370 O   0  0  0  0  0  0  0  0  0  0  0  0
  190.3860  177.5270  139.8950 C   0  0  1  0  0  3  0  0  0  0  0  0
  187.1820  177.9110  142.7220 C   0  0  0  0  0  0  0  0  0  0  0  0
  186.0220  178.5890  137.2470 C   0  0  0  0  0  3  0  0  0  0  0  0
  185.1490  178.2870  139.6120 C   0  0  1  0  0  3  0  0  0  0  0  0
  186.8110  178.3330  136.2370 C   0  0  0  0  0  0  0  0  0  0  0  0
  186.8880  178.0300  141.3290 C   0  0  0  0  0  0  0  0  0  0  0  0
  189.8270  177.5940  137.3600 N   0  0  0  0  0  0  0  0  0  0  0  0
  186.2510  178.3600  143.6490 C   0  0  0  0  0  3  0  0  0  0  0  0
  189.2680  176.6410  136.4190 C   0  0  0  0  0  2  0  0  0  0  0  0
  184.9900  178.7930  143.2640 C   0  0  0  0  0  0  0  0  0  0  0  0
  187.8600  178.0850  140.3770 C   0  0  2  0  0  3  0  0  0  0  0  0
  188.7760  177.3380  135.2410 N   0  0  0  0  0  2  0  0  0  0  0  0
  190.0190  177.2550  138.5910 C   0  0  0  0  0  0  0  0  0  0  0  0
  189.3220  178.3190  140.6950 C   0  0  0  0  0  2  0  0  0  0  0  0
  188.3810  177.2160  143.2650 C   0  0  0  0  0  0  0  0  0  0  0  0
  188.4490  175.9590  143.2230 O   0  0  0  0  0  0  0  0  0  0  0  0
  189.4450  177.9620  144.0160 C   0  0  0  0  0  2  0  0  0  0  0  0
  189.1610  177.2920  148.3390 N   0  0  0  0  0  0  0  0  0  0  0  0
  189.1020  177.3530  147.0480 C   0  0  0  0  0  0  0  0  0  0  0  0
  190.1680  176.8660  146.2220 N   0  0  0  0  0  2  0  0  0  0  0  0
  191.2400  176.3810  144.2220 O   0  0  0  0  0  0  0  0  0  0  0  0
  190.3370  177.0440  144.8080 C   0  0  0  0  0  0  0  0  0  0  0  0
  187.1780  178.2700  147.8530 N   0  0  0  0  0  0  0  0  0  0  0  0
  187.9560  177.8760  148.8080 C   0  0  0  0  0  3  0  0  0  0  0  0
  187.8300  177.9750  146.5830 C   0  0  0  0  0  2  0  0  0  0  0  0
  184.0630  179.3260  144.2760 C   0  0  0  0  0  0  0  0  0  0  0  0
  184.4220  179.3680  145.4940 O   0  0  0  0  0  0  0  0  0  0  0  0
  182.8120  179.8380  143.8930 O   0  0  0  0  0  0  0  0  0  0  0  0
  181.6620  178.9930  143.8530 C   0  0  0  0  0  2  0  0  0  0  0  0
  180.8670  179.2810  142.5980 C   0  0  0  0  0  1  0  0  0  0  0  0
  183.2060  177.1720  138.4780 C   0  0  0  0  0  1  0  0  0  0  0  0
  183.6650  178.3910  139.2650 C   0  0  2  0  0  3  0  0  0  0  0  0
  183.3650  179.5330  138.5150 O   0  0  0  0  0  0  0  0  0  0  0  0
  181.9720  179.6420  138.5490 C   0  0  0  0  0  2  0  0  0  0  0  0
  181.4440  180.0160  137.1620 C   0  0  0  0  0  2  0  0  0  0  0  0
  180.8100  182.3370  137.9950 C   0  0  1  0  0  3  0  0  0  0  0  0
  180.4210  183.6730  137.3480 C   0  0  0  0  0  2  0  0  0  0  0  0
  179.7490  182.0160  139.0350 C   0  0  0  0  0  2  0  0  0  0  0  0
  180.6970  182.4520  135.1010 C   0  0  0  0  0  2  0  0  0  0  0  0
  180.3610  181.1110  137.1830 C   0  0  1  0  0  0  0  0  0  0  0  0
  179.7790  181.4580  135.8040 C   0  0  0  0  0  2  0  0  0  0  0  0
  179.2760  180.8270  138.2070 C   0  0  0  0  0  2  0  0  0  0  0  0
  180.8480  183.7670  135.8760 C   0  0  0  0  0  2  0  0  0  0  0  0
  1 18  1  0  0  0  0
  1 11  2  0  0  0  0
  2 16  1  0  0  0  0
  3  7  1  0  0  0  0
  4 12  1  0  0  0  0
  4  2  2  0  0  0  0
  5  9  1  6  0  0  0
  5  6  1  0  0  0  0
  5 10  1  0  0  0  0
  6 17  1  0  0  0  0
  7 20  1  1  0  0  0
  8 21  1  0  0  0  0
  8 14  1  0  0  0  0
 10 38  1  1  0  0  0
 10  4  1  0  0  0  0
 11  9  2  0  0  0  0
 12  8  2  0  0  0  0
 13 19  2  0  0  0  0
 15 13  1  0  0  0  0
 16 14  2  0  0  0  0
 16 32  1  0  0  0  0
 17 20  1  1  0  0  0
 17 12  1  0  0  0  0
 18 15  1  0  0  0  0
 19  3  1  0  0  0  0
 19  7  1  0  0  0  0
 21 23  1  0  0  0  0
 22 21  2  0  0  0  0
 23 28  1  0  0  0  0
 24 30  1  0  0  0  0
 25 24  2  0  0  0  0
 26 25  1  0  0  0  0
 27 28  2  0  0  0  0
 28 26  1  0  0  0  0
 29 30  2  0  0  0  0
 31 25  1  0  0  0  0
 31 29  1  0  0  0  0
 32 33  2  0  0  0  0
 34 32  1  0  0  0  0
 35 34  1  0  0  0  0
 36 35  1  0  0  0  0
 38 37  1  6  0  0  0
 39 40  1  0  0  0  0
 39 38  1  0  0  0  0
 41 40  1  0  0  0  0
 42 43  1  6  0  0  0
 42 44  1  0  0  0  0
 45 47  1  0  0  0  0
 45 49  1  0  0  0  0
 46 41  1  6  0  0  0
 46 42  1  0  0  0  0
 46 48  1  0  0  0  0
 47 46  1  0  0  0  0
 48 44  1  0  0  0  0
 49 43  1  0  0  0  0
M  END
>  <MODEL>
5

>  <REMARK>
 VINA RESULT:      -8.2      3.133      8.743
  Name = 
  11 active torsions:
  status: ('A' for Active; 'I' for Inactive)
    1  A    between atoms: C_6  and  O_13
    2  A    between atoms: C_12  and  C_21
    3  A    between atoms: O_13  and  C_23
    4  A    between atoms: C_17  and  C_39
    5  A    between atoms: C_21  and  C_48
    6  A    between atoms: C_23  and  C_28
    7  A    between atoms: C_24  and  C_32
    8  A    between atoms: C_24  and  C_47
    9  A    between atoms: C_36  and  C_48
   10  A    between atoms: C_39  and  O_45
   11  A    between atoms: O_45  and  C_47
                            x       y       z     vdW  Elec       q    Type
                         _______ _______ _______ _____ _____    ______ ____

>  <TORSDO>
F 11

$$$$
=
 OpenBabel11062414023D

 49 55  0  0  1  0  0  0  0  0999 V2000
  187.1570  177.8270  135.7600 C   0  0  0  0  0  3  0  0  0  0  0  0
  182.3260  178.4970  141.2840 C   0  0  0  0  0  3  0  0  0  0  0  0
  188.4600  177.0500  140.9750 O   0  0  0  0  0  0  0  0  0  0  0  0
  183.5500  178.2030  140.6480 C   0  0  0  0  0  0  0  0  0  0  0  0
  184.9120  177.6600  138.6380 C   0  0  2  0  0  3  0  0  0  0  0  0
  185.9520  178.3000  139.3690 O   0  0  0  0  0  0  0  0  0  0  0  0
  188.5510  178.4180  141.0390 C   0  0  1  0  0  3  0  0  0  0  0  0
  184.6570  178.4160  142.8410 C   0  0  0  0  0  0  0  0  0  0  0  0
  185.0100  178.1390  137.2220 C   0  0  0  0  0  3  0  0  0  0  0  0
  183.5670  177.9410  139.3010 C   0  0  1  0  0  3  0  0  0  0  0  0
  186.0880  177.9450  136.5090 C   0  0  0  0  0  0  0  0  0  0  0  0
  184.7580  178.2950  141.4220 C   0  0  0  0  0  0  0  0  0  0  0  0
  188.7380  178.0470  138.4760 N   0  0  0  0  0  0  0  0  0  0  0  0
  183.4340  178.7550  143.4050 C   0  0  0  0  0  3  0  0  0  0  0  0
  188.6560  176.8830  137.6110 C   0  0  0  0  0  2  0  0  0  0  0  0
  182.2790  178.8430  142.6400 C   0  0  0  0  0  0  0  0  0  0  0  0
  185.9350  178.4490  140.7540 C   0  0  2  0  0  3  0  0  0  0  0  0
  188.4030  177.3020  136.2410 N   0  0  0  0  0  2  0  0  0  0  0  0
  188.6280  177.9130  139.7550 C   0  0  0  0  0  0  0  0  0  0  0  0
  187.1770  179.0430  141.3860 C   0  0  0  0  0  2  0  0  0  0  0  0
  185.7560  178.0800  143.7870 C   0  0  0  0  0  0  0  0  0  0  0  0
  186.3080  176.9500  143.7310 O   0  0  0  0  0  0  0  0  0  0  0  0
  186.1180  178.9940  144.9230 C   0  0  0  0  0  2  0  0  0  0  0  0
  188.7760  176.6610  147.5110 N   0  0  0  0  0  0  0  0  0  0  0  0
  188.0770  177.5080  146.8300 C   0  0  0  0  0  0  0  0  0  0  0  0
  186.6720  177.6800  147.0580 N   0  0  0  0  0  2  0  0  0  0  0  0
  184.5750  178.6160  146.7230 O   0  0  0  0  0  0  0  0  0  0  0  0
  185.7350  178.4210  146.2610 C   0  0  0  0  0  0  0  0  0  0  0  0
  190.2160  177.6280  146.0570 N   0  0  0  0  0  0  0  0  0  0  0  0
  190.0980  176.7530  147.0020 C   0  0  0  0  0  3  0  0  0  0  0  0
  188.9090  178.2310  145.8280 C   0  0  0  0  0  2  0  0  0  0  0  0
  181.0200  179.2740  143.2700 C   0  0  0  0  0  0  0  0  0  0  0  0
  180.4800  178.5400  144.1550 O   0  0  0  0  0  0  0  0  0  0  0  0
  180.4500  180.5140  142.9400 O   0  0  0  0  0  0  0  0  0  0  0  0
  179.1110  180.5910  142.4520 C   0  0  0  0  0  2  0  0  0  0  0  0
  178.9360  179.6270  141.2990 C   0  0  0  0  0  1  0  0  0  0  0  0
  181.7870  176.2360  138.8200 C   0  0  0  0  0  1  0  0  0  0  0  0
  182.2510  177.6650  138.5760 C   0  0  2  0  0  3  0  0  0  0  0  0
  182.3460  177.8630  137.1940 O   0  0  0  0  0  0  0  0  0  0  0  0
  181.0910  178.3400  136.8030 C   0  0  0  0  0  2  0  0  0  0  0  0
  181.2270  179.7490  136.2220 C   0  0  0  0  0  2  0  0  0  0  0  0
  181.3880  181.9970  137.4070 C   0  0  1  0  0  3  0  0  0  0  0  0
  180.7200  183.3720  137.2610 C   0  0  0  0  0  2  0  0  0  0  0  0
  181.2640  181.5900  138.8660 C   0  0  0  0  0  2  0  0  0  0  0  0
  179.4010  182.3170  135.3210 C   0  0  0  0  0  2  0  0  0  0  0  0
  180.4690  180.8270  137.0190 C   0  0  1  0  0  0  0  0  0  0  0  0
  179.1360  181.2650  136.3920 C   0  0  0  0  0  2  0  0  0  0  0  0
  180.3170  180.4580  138.4850 C   0  0  0  0  0  2  0  0  0  0  0  0
  180.0750  183.5750  135.8820 C   0  0  0  0  0  2  0  0  0  0  0  0
  1 18  1  0  0  0  0
  1 11  2  0  0  0  0
  2 16  1  0  0  0  0
  3  7  1  0  0  0  0
  4  2  2  0  0  0  0
  4 12  1  0  0  0  0
  5  9  1  6  0  0  0
  5 10  1  0  0  0  0
  5  6  1  0  0  0  0
  6 17  1  0  0  0  0
  7 20  1  6  0  0  0
  8 14  1  0  0  0  0
  8 21  1  0  0  0  0
 10 38  1  1  0  0  0
 10  4  1  0  0  0  0
 11  9  2  0  0  0  0
 12  8  2  0  0  0  0
 13 19  2  0  0  0  0
 15 13  1  0  0  0  0
 16 32  1  0  0  0  0
 16 14  2  0  0  0  0
 17 20  1  6  0  0  0
 17 12  1  0  0  0  0
 18 15  1  0  0  0  0
 19  3  1  0  0  0  0
 19  7  1  0  0  0  0
 21 23  1  0  0  0  0
 22 21  2  0  0  0  0
 23 28  1  0  0  0  0
 25 26  1  0  0  0  0
 25 24  2  0  0  0  0
 28 27  2  0  0  0  0
 28 26  1  0  0  0  0
 29 30  2  0  0  0  0
 30 24  1  0  0  0  0
 31 29  1  0  0  0  0
 31 25  1  0  0  0  0
 32 33  2  0  0  0  0
 34 32  1  0  0  0  0
 35 34  1  0  0  0  0
 36 35  1  0  0  0  0
 38 37  1  6  0  0  0
 39 38  1  0  0  0  0
 40 39  1  0  0  0  0
 41 40  1  0  0  0  0
 42 43  1  1  0  0  0
 42 44  1  0  0  0  0
 45 49  1  0  0  0  0
 45 47  1  0  0  0  0
 46 41  1  6  0  0  0
 46 42  1  0  0  0  0
 46 48  1  0  0  0  0
 47 46  1  0  0  0  0
 48 44  1  0  0  0  0
 49 43  1  0  0  0  0
M  END
>  <MODEL>
6

>  <REMARK>
 VINA RESULT:      -8.1      3.248      8.854
  Name = 
  11 active torsions:
  status: ('A' for Active; 'I' for Inactive)
    1  A    between atoms: C_6  and  O_13
    2  A    between atoms: C_12  and  C_21
    3  A    between atoms: O_13  and  C_23
    4  A    between atoms: C_17  and  C_39
    5  A    between atoms: C_21  and  C_48
    6  A    between atoms: C_23  and  C_28
    7  A    between atoms: C_24  and  C_32
    8  A    between atoms: C_24  and  C_47
    9  A    between atoms: C_36  and  C_48
   10  A    between atoms: C_39  and  O_45
   11  A    between atoms: O_45  and  C_47
                            x       y       z     vdW  Elec       q    Type
                         _______ _______ _______ _____ _____    ______ ____

>  <TORSDO>
F 11

$$$$
=
 OpenBabel11062414023D

 49 55  0  0  1  0  0  0  0  0999 V2000
  188.2800  177.1890  147.0680 C   0  0  0  0  0  3  0  0  0  0  0  0
  184.6510  178.7100  140.8380 C   0  0  0  0  0  3  0  0  0  0  0  0
  190.7520  178.0700  142.3130 O   0  0  0  0  0  0  0  0  0  0  0  0
  185.7570  178.5240  141.6930 C   0  0  0  0  0  0  0  0  0  0  0  0
  186.7960  178.3800  143.9480 C   0  0  2  0  0  3  0  0  0  0  0  0
  187.7220  177.5230  143.2900 O   0  0  0  0  0  0  0  0  0  0  0  0
  190.4440  176.7600  142.0400 C   0  0  1  0  0  3  0  0  0  0  0  0
  187.1590  178.2070  139.6890 C   0  0  0  0  0  0  0  0  0  0  0  0
  186.4680  177.7430  145.2640 C   0  0  0  0  0  3  0  0  0  0  0  0
  185.5860  178.6190  143.0510 C   0  0  1  0  0  3  0  0  0  0  0  0
  187.3930  177.5020  146.1560 C   0  0  0  0  0  0  0  0  0  0  0  0
  187.0110  178.1350  141.1080 C   0  0  0  0  0  0  0  0  0  0  0  0
  190.2260  176.7710  144.6270 N   0  0  0  0  0  0  0  0  0  0  0  0
  186.0270  178.3420  138.8980 C   0  0  0  0  0  3  0  0  0  0  0  0
  190.3240  177.7970  145.6490 C   0  0  0  0  0  2  0  0  0  0  0  0
  184.7710  178.5460  139.4530 C   0  0  0  0  0  0  0  0  0  0  0  0
  187.9340  177.5390  141.9130 C   0  0  2  0  0  3  0  0  0  0  0  0
  189.6940  177.3350  146.8760 N   0  0  0  0  0  2  0  0  0  0  0  0
  190.4140  177.0710  143.3850 C   0  0  0  0  0  0  0  0  0  0  0  0
  189.0430  176.6510  141.3890 C   0  0  0  0  0  2  0  0  0  0  0  0
  188.4720  178.2740  138.9910 C   0  0  0  0  0  0  0  0  0  0  0  0
  189.0590  179.3800  138.8630 O   0  0  0  0  0  0  0  0  0  0  0  0
  189.0430  177.0780  138.2830 C   0  0  0  0  0  2  0  0  0  0  0  0
  192.2890  175.6960  135.6820 N   0  0  0  0  0  0  0  0  0  0  0  0
  191.2600  175.9200  136.4330 C   0  0  0  0  0  0  0  0  0  0  0  0
  190.1880  176.7700  136.0060 N   0  0  0  0  0  2  0  0  0  0  0  0
  188.1420  177.8490  136.1950 O   0  0  0  0  0  0  0  0  0  0  0  0
  189.0940  177.2680  136.7910 C   0  0  0  0  0  0  0  0  0  0  0  0
  192.6490  174.5340  137.5920 N   0  0  0  0  0  0  0  0  0  0  0  0
  193.1360  174.8400  136.4340 C   0  0  0  0  0  3  0  0  0  0  0  0
  191.3610  175.2020  137.7350 C   0  0  0  0  0  2  0  0  0  0  0  0
  183.5900  178.6140  138.5750 C   0  0  0  0  0  0  0  0  0  0  0  0
  182.9330  179.6980  138.4910 O   0  0  0  0  0  0  0  0  0  0  0  0
  183.2260  177.5070  137.7910 O   0  0  0  0  0  0  0  0  0  0  0  0
  183.2360  176.1900  138.3420 C   0  0  0  0  0  2  0  0  0  0  0  0
  183.7560  175.2140  137.3090 C   0  0  0  0  0  1  0  0  0  0  0  0
  184.5940  180.2120  144.7200 C   0  0  0  0  0  1  0  0  0  0  0  0
  184.2950  179.2210  143.6030 C   0  0  2  0  0  3  0  0  0  0  0  0
  183.4180  178.2520  144.1020 O   0  0  0  0  0  0  0  0  0  0  0  0
  182.1390  178.7940  143.9420 C   0  0  0  0  0  2  0  0  0  0  0  0
  181.9010  179.1390  142.4700 C   0  0  0  0  0  2  0  0  0  0  0  0
  180.0990  180.1310  140.9700 C   0  0  1  0  0  3  0  0  0  0  0  0
  179.1670  179.6050  139.8690 C   0  0  0  0  0  2  0  0  0  0  0  0
  179.2340  180.8770  141.9720 C   0  0  0  0  0  2  0  0  0  0  0  0
  180.2680  177.3180  140.2890 C   0  0  0  0  0  2  0  0  0  0  0  0
  180.4200  179.0850  142.0500 C   0  0  1  0  0  0  0  0  0  0  0  0
  179.9010  177.6760  141.7250 C   0  0  0  0  0  2  0  0  0  0  0  0
  179.5180  179.8160  143.0290 C   0  0  0  0  0  2  0  0  0  0  0  0
  179.6510  178.2790  139.2650 C   0  0  0  0  0  2  0  0  0  0  0  0
  2  4  1  0  0  0  0
  3 19  1  0  0  0  0
  4 10  1  0  0  0  0
  5  9  1  1  0  0  0
  6  5  1  0  0  0  0
  7 20  1  6  0  0  0
  7  3  1  0  0  0  0
  7 19  1  0  0  0  0
  8 12  1  0  0  0  0
  9 11  2  0  0  0  0
 10 38  1  6  0  0  0
 10  5  1  0  0  0  0
 11  1  2  0  0  0  0
 12  4  2  0  0  0  0
 12 17  1  0  0  0  0
 13 15  1  0  0  0  0
 14 16  1  0  0  0  0
 14  8  2  0  0  0  0
 15 18  1  0  0  0  0
 16  2  2  0  0  0  0
 17 20  1  6  0  0  0
 17  6  1  0  0  0  0
 18  1  1  0  0  0  0
 19 13  2  0  0  0  0
 21  8  1  0  0  0  0
 22 21  2  0  0  0  0
 23 21  1  0  0  0  0
 24 25  2  0  0  0  0
 24 30  1  0  0  0  0
 25 31  1  0  0  0  0
 26 25  1  0  0  0  0
 26 28  1  0  0  0  0
 27 28  2  0  0  0  0
 28 23  1  0  0  0  0
 29 31  1  0  0  0  0
 30 29  2  0  0  0  0
 32 16  1  0  0  0  0
 33 32  2  0  0  0  0
 34 35  1  0  0  0  0
 34 32  1  0  0  0  0
 36 35  1  0  0  0  0
 38 39  1  0  0  0  0
 38 37  1  1  0  0  0
 40 39  1  0  0  0  0
 41 40  1  0  0  0  0
 42 43  1  6  0  0  0
 42 44  1  0  0  0  0
 42 46  1  0  0  0  0
 44 48  1  0  0  0  0
 45 47  1  0  0  0  0
 46 41  1  1  0  0  0
 46 48  1  0  0  0  0
 47 46  1  0  0  0  0
 49 43  1  0  0  0  0
 49 45  1  0  0  0  0
M  END
>  <MODEL>
7

>  <REMARK>
 VINA RESULT:      -8.0      3.191      9.011
  Name = 
  11 active torsions:
  status: ('A' for Active; 'I' for Inactive)
    1  A    between atoms: C_6  and  O_13
    2  A    between atoms: C_12  and  C_21
    3  A    between atoms: O_13  and  C_23
    4  A    between atoms: C_17  and  C_39
    5  A    between atoms: C_21  and  C_48
    6  A    between atoms: C_23  and  C_28
    7  A    between atoms: C_24  and  C_32
    8  A    between atoms: C_24  and  C_47
    9  A    between atoms: C_36  and  C_48
   10  A    between atoms: C_39  and  O_45
   11  A    between atoms: O_45  and  C_47
                            x       y       z     vdW  Elec       q    Type
                         _______ _______ _______ _____ _____    ______ ____

>  <TORSDO>
F 11

$$$$
=
 OpenBabel11062414023D

 49 55  0  0  1  0  0  0  0  0999 V2000
  188.8870  177.9790  146.7350 C   0  0  0  0  0  3  0  0  0  0  0  0
  188.3020  177.8880  139.3900 C   0  0  0  0  0  3  0  0  0  0  0  0
  184.1310  178.1440  144.1180 O   0  0  0  0  0  0  0  0  0  0  0  0
  187.8760  177.8740  140.7350 C   0  0  0  0  0  0  0  0  0  0  0  0
  188.2680  177.5130  143.1650 C   0  0  2  0  0  3  0  0  0  0  0  0
  187.2400  178.4860  143.3110 O   0  0  0  0  0  0  0  0  0  0  0  0
  184.3890  179.4840  143.9680 C   0  0  1  0  0  3  0  0  0  0  0  0
  185.6540  178.6120  139.9620 C   0  0  0  0  0  0  0  0  0  0  0  0
  189.3350  177.8480  144.1620 C   0  0  0  0  0  3  0  0  0  0  0  0
  188.7510  177.4850  141.7180 C   0  0  1  0  0  3  0  0  0  0  0  0
  189.0860  177.8800  145.4440 C   0  0  0  0  0  0  0  0  0  0  0  0
  186.5620  178.3730  141.0380 C   0  0  0  0  0  0  0  0  0  0  0  0
  185.9860  178.9080  145.9320 N   0  0  0  0  0  0  0  0  0  0  0  0
  186.1430  178.6620  138.6630 C   0  0  0  0  0  3  0  0  0  0  0  0
  186.3450  177.6820  146.6220 C   0  0  0  0  0  2  0  0  0  0  0  0
  187.4630  178.3500  138.3700 C   0  0  0  0  0  0  0  0  0  0  0  0
  186.3080  178.7710  142.3150 C   0  0  2  0  0  3  0  0  0  0  0  0
  187.5930  177.8690  147.3460 N   0  0  0  0  0  2  0  0  0  0  0  0
  185.1150  178.8870  144.9800 C   0  0  0  0  0  0  0  0  0  0  0  0
  185.2060  179.7440  142.6780 C   0  0  0  0  0  2  0  0  0  0  0  0
  184.1760  178.6900  140.1210 C   0  0  0  0  0  0  0  0  0  0  0  0
  183.5740  179.7670  139.8670 O   0  0  0  0  0  0  0  0  0  0  0  0
  183.3950  177.5660  140.7370 C   0  0  0  0  0  2  0  0  0  0  0  0
  179.1470  178.0440  141.7060 N   0  0  0  0  0  0  0  0  0  0  0  0
  180.3900  178.0890  141.3530 C   0  0  0  0  0  0  0  0  0  0  0  0
  180.8860  177.3250  140.2460 N   0  0  0  0  0  2  0  0  0  0  0  0
  182.4900  176.5690  138.7490 O   0  0  0  0  0  0  0  0  0  0  0  0
  182.2540  177.1160  139.8640 C   0  0  0  0  0  0  0  0  0  0  0  0
  180.1530  179.4620  143.1560 N   0  0  0  0  0  0  0  0  0  0  0  0
  179.0340  178.9000  142.8330 C   0  0  0  0  0  3  0  0  0  0  0  0
  181.1790  179.0020  142.2270 C   0  0  0  0  0  2  0  0  0  0  0  0
  187.9520  178.4850  136.9880 C   0  0  0  0  0  0  0  0  0  0  0  0
  189.1050  178.9750  136.7760 O   0  0  0  0  0  0  0  0  0  0  0  0
  187.1760  178.0230  135.9120 O   0  0  0  0  0  0  0  0  0  0  0  0
  186.8830  176.6320  135.7720 C   0  0  0  0  0  2  0  0  0  0  0  0
  185.3840  176.4270  135.7970 C   0  0  0  0  0  1  0  0  0  0  0  0
  190.5550  175.9060  142.4650 C   0  0  0  0  0  1  0  0  0  0  0  0
  190.0520  176.7860  141.3290 C   0  0  2  0  0  3  0  0  0  0  0  0
  191.0680  177.6860  140.9920 O   0  0  0  0  0  0  0  0  0  0  0  0
  191.8870  176.9980  140.0910 C   0  0  0  0  0  2  0  0  0  0  0  0
  191.0300  176.3330  139.0120 C   0  0  0  0  0  2  0  0  0  0  0  0
  192.4380  174.6100  137.7760 C   0  0  1  0  0  3  0  0  0  0  0  0
  192.3240  173.8320  136.4570 C   0  0  0  0  0  2  0  0  0  0  0  0
  193.8140  175.2560  137.7980 C   0  0  0  0  0  2  0  0  0  0  0  0
  190.1080  175.0960  136.1210 C   0  0  0  0  0  2  0  0  0  0  0  0
  191.8000  176.0070  137.7190 C   0  0  1  0  0  0  0  0  0  0  0  0
  191.0180  176.2810  136.4240 C   0  0  0  0  0  2  0  0  0  0  0  0
  193.1810  176.6390  137.6970 C   0  0  0  0  0  2  0  0  0  0  0  0
  190.8880  173.7910  135.9150 C   0  0  0  0  0  2  0  0  0  0  0  0
  1 18  1  0  0  0  0
  2  4  1  0  0  0  0
  3 19  1  0  0  0  0
  4 12  2  0  0  0  0
  4 10  1  0  0  0  0
  5  6  1  0  0  0  0
  5  9  1  1  0  0  0
  7 20  1  6  0  0  0
  7  3  1  0  0  0  0
  7 19  1  0  0  0  0
  8 21  1  0  0  0  0
  8 12  1  0  0  0  0
  9 11  2  0  0  0  0
 10 38  1  6  0  0  0
 10  5  1  0  0  0  0
 11  1  2  0  0  0  0
 12 17  1  0  0  0  0
 13 15  1  0  0  0  0
 14  8  2  0  0  0  0
 15 18  1  0  0  0  0
 16 14  1  0  0  0  0
 16  2  2  0  0  0  0
 17 20  1  6  0  0  0
 17  6  1  0  0  0  0
 19 13  2  0  0  0  0
 21 23  1  0  0  0  0
 22 21  2  0  0  0  0
 24 30  1  0  0  0  0
 25 24  2  0  0  0  0
 25 31  1  0  0  0  0
 26 25  1  0  0  0  0
 27 28  2  0  0  0  0
 28 26  1  0  0  0  0
 28 23  1  0  0  0  0
 30 29  2  0  0  0  0
 31 29  1  0  0  0  0
 32 16  1  0  0  0  0
 33 32  2  0  0  0  0
 34 32  1  0  0  0  0
 35 36  1  0  0  0  0
 35 34  1  0  0  0  0
 38 37  1  1  0  0  0
 39 38  1  0  0  0  0
 40 39  1  0  0  0  0
 41 40  1  0  0  0  0
 42 43  1  6  0  0  0
 42 44  1  0  0  0  0
 45 47  1  0  0  0  0
 46 42  1  0  0  0  0
 46 41  1  1  0  0  0
 47 46  1  0  0  0  0
 48 46  1  0  0  0  0
 48 44  1  0  0  0  0
 49 45  1  0  0  0  0
 49 43  1  0  0  0  0
M  END
>  <MODEL>
8

>  <REMARK>
 VINA RESULT:      -8.0      2.898      6.971
  Name = 
  11 active torsions:
  status: ('A' for Active; 'I' for Inactive)
    1  A    between atoms: C_6  and  O_13
    2  A    between atoms: C_12  and  C_21
    3  A    between atoms: O_13  and  C_23
    4  A    between atoms: C_17  and  C_39
    5  A    between atoms: C_21  and  C_48
    6  A    between atoms: C_23  and  C_28
    7  A    between atoms: C_24  and  C_32
    8  A    between atoms: C_24  and  C_47
    9  A    between atoms: C_36  and  C_48
   10  A    between atoms: C_39  and  O_45
   11  A    between atoms: O_45  and  C_47
                            x       y       z     vdW  Elec       q    Type
                         _______ _______ _______ _____ _____    ______ ____

>  <TORSDO>
F 11

$$$$
=
 OpenBabel11062414023D

 49 55  0  0  1  0  0  0  0  0999 V2000
  187.3040  177.5010  147.1820 C   0  0  0  0  0  3  0  0  0  0  0  0
  187.0900  178.2500  139.8540 C   0  0  0  0  0  3  0  0  0  0  0  0
  191.7340  177.4010  144.0420 O   0  0  0  0  0  0  0  0  0  0  0  0
  187.6600  178.1240  141.1380 C   0  0  0  0  0  0  0  0  0  0  0  0
  187.5530  178.2730  143.6190 C   0  0  2  0  0  3  0  0  0  0  0  0
  188.5430  177.2520  143.5630 O   0  0  0  0  0  0  0  0  0  0  0  0
  191.3970  176.0920  143.8040 C   0  0  1  0  0  3  0  0  0  0  0  0
  189.7480  177.3780  140.0580 C   0  0  0  0  0  0  0  0  0  0  0  0
  186.5860  177.8870  144.6970 C   0  0  0  0  0  3  0  0  0  0  0  0
  186.9170  178.4530  142.2440 C   0  0  1  0  0  3  0  0  0  0  0  0
  186.9710  177.7270  145.9350 C   0  0  0  0  0  0  0  0  0  0  0  0
  188.9740  177.5500  141.2460 C   0  0  0  0  0  0  0  0  0  0  0  0
  190.0520  176.5420  145.9790 N   0  0  0  0  0  0  0  0  0  0  0  0
  189.1190  177.4660  138.8240 C   0  0  0  0  0  3  0  0  0  0  0  0
  189.8290  177.7120  146.8090 C   0  0  0  0  0  2  0  0  0  0  0  0
  187.7910  177.8540  138.7090 C   0  0  0  0  0  0  0  0  0  0  0  0
  189.3460  177.0260  142.4470 C   0  0  2  0  0  3  0  0  0  0  0  0
  188.6600  177.5060  147.6500 N   0  0  0  0  0  2  0  0  0  0  0  0
  190.8150  176.6200  144.9400 C   0  0  0  0  0  0  0  0  0  0  0  0
  190.4340  175.9830  142.5970 C   0  0  0  0  0  2  0  0  0  0  0  0
  191.2290  177.2300  140.0420 C   0  0  0  0  0  0  0  0  0  0  0  0
  191.9330  177.8800  140.8590 O   0  0  0  0  0  0  0  0  0  0  0  0
  191.9250  176.4500  138.9650 C   0  0  0  0  0  2  0  0  0  0  0  0
  194.8130  173.6110  137.2850 N   0  0  0  0  0  0  0  0  0  0  0  0
  193.9510  174.5240  137.5980 C   0  0  0  0  0  0  0  0  0  0  0  0
  194.3020  175.6350  138.4340 N   0  0  0  0  0  2  0  0  0  0  0  0
  193.9310  177.6200  139.5750 O   0  0  0  0  0  0  0  0  0  0  0  0
  193.4220  176.6030  139.0240 C   0  0  0  0  0  0  0  0  0  0  0  0
  192.8750  173.0060  136.2840 N   0  0  0  0  0  0  0  0  0  0  0  0
  194.1120  172.6800  136.4760 C   0  0  0  0  0  3  0  0  0  0  0  0
  192.6170  174.2540  136.9920 C   0  0  0  0  0  2  0  0  0  0  0  0
  187.1490  177.8660  137.3840 C   0  0  0  0  0  0  0  0  0  0  0  0
  186.8090  178.9730  136.8620 O   0  0  0  0  0  0  0  0  0  0  0  0
  186.9640  176.6670  136.6750 O   0  0  0  0  0  0  0  0  0  0  0  0
  187.7140  176.4010  135.4900 C   0  0  0  0  0  2  0  0  0  0  0  0
  188.7920  175.3830  135.7910 C   0  0  0  0  0  1  0  0  0  0  0  0
  184.4370  178.4540  142.6330 C   0  0  0  0  0  1  0  0  0  0  0  0
  185.6160  179.2330  142.0670 C   0  0  2  0  0  3  0  0  0  0  0  0
  185.3420  179.5280  140.7270 O   0  0  0  0  0  0  0  0  0  0  0  0
  184.0310  179.0900  140.5140 C   0  0  0  0  0  2  0  0  0  0  0  0
  183.6450  179.2970  139.0470 C   0  0  0  0  0  2  0  0  0  0  0  0
  183.0590  176.8260  139.2170 C   0  0  1  0  0  3  0  0  0  0  0  0
  181.7770  176.0070  139.4280 C   0  0  0  0  0  2  0  0  0  0  0  0
  183.7620  176.2530  137.9970 C   0  0  0  0  0  2  0  0  0  0  0  0
  180.5650  178.2750  139.5000 C   0  0  0  0  0  2  0  0  0  0  0  0
  182.8280  178.1370  138.4490 C   0  0  1  0  0  0  0  0  0  0  0  0
  181.3450  178.4610  138.2040 C   0  0  0  0  0  2  0  0  0  0  0  0
  183.4930  177.5370  137.2220 C   0  0  0  0  0  2  0  0  0  0  0  0
  180.6360  176.8380  140.0320 C   0  0  0  0  0  2  0  0  0  0  0  0
  1 18  1  0  0  0  0
  2  4  1  0  0  0  0
  3 19  1  0  0  0  0
  4 12  2  0  0  0  0
  4 10  1  0  0  0  0
  5  9  1  1  0  0  0
  6  5  1  0  0  0  0
  7 20  1  6  0  0  0
  7  3  1  0  0  0  0
  7 19  1  0  0  0  0
  8 12  1  0  0  0  0
  9 11  2  0  0  0  0
 10 38  1  6  0  0  0
 10  5  1  0  0  0  0
 11  1  2  0  0  0  0
 12 17  1  0  0  0  0
 13 15  1  0  0  0  0
 14  8  2  0  0  0  0
 15 18  1  0  0  0  0
 16 14  1  0  0  0  0
 16  2  2  0  0  0  0
 17 20  1  6  0  0  0
 17  6  1  0  0  0  0
 19 13  2  0  0  0  0
 21  8  1  0  0  0  0
 21 22  2  0  0  0  0
 23 28  1  0  0  0  0
 23 21  1  0  0  0  0
 24 25  2  0  0  0  0
 25 26  1  0  0  0  0
 26 28  1  0  0  0  0
 28 27  2  0  0  0  0
 29 30  2  0  0  0  0
 29 31  1  0  0  0  0
 30 24  1  0  0  0  0
 31 25  1  0  0  0  0
 32 16  1  0  0  0  0
 33 32  2  0  0  0  0
 34 32  1  0  0  0  0
 35 36  1  0  0  0  0
 35 34  1  0  0  0  0
 38 37  1  6  0  0  0
 39 38  1  0  0  0  0
 40 39  1  0  0  0  0
 41 40  1  0  0  0  0
 42 44  1  6  0  0  0
 42 43  1  0  0  0  0
 43 49  1  0  0  0  0
 45 49  1  0  0  0  0
 46 41  1  1  0  0  0
 46 42  1  0  0  0  0
 47 46  1  0  0  0  0
 47 45  1  0  0  0  0
 48 44  1  0  0  0  0
 48 46  1  0  0  0  0
M  END
>  <MODEL>
9

>  <REMARK>
 VINA RESULT:      -7.9      3.711      9.859
  Name = 
  11 active torsions:
  status: ('A' for Active; 'I' for Inactive)
    1  A    between atoms: C_6  and  O_13
    2  A    between atoms: C_12  and  C_21
    3  A    between atoms: O_13  and  C_23
    4  A    between atoms: C_17  and  C_39
    5  A    between atoms: C_21  and  C_48
    6  A    between atoms: C_23  and  C_28
    7  A    between atoms: C_24  and  C_32
    8  A    between atoms: C_24  and  C_47
    9  A    between atoms: C_36  and  C_48
   10  A    between atoms: C_39  and  O_45
   11  A    between atoms: O_45  and  C_47
                            x       y       z     vdW  Elec       q    Type
                         _______ _______ _______ _____ _____    ______ ____

>  <TORSDO>
F 11

$$$$
