=
 OpenBabel11062413563D

 53 56  0  0  1  0  0  0  0  0999 V2000
  184.4750  178.9550  141.5480 C   0  0  0  0  0  2  0  0  0  0  0  0
  185.9890  178.9250  141.3860 C   0  0  1  0  0  3  0  0  0  0  0  0
  188.6350  176.7610  143.2130 C   0  0  2  0  0  3  0  0  0  0  0  0
  187.9420  177.6940  142.2720 C   0  0  0  0  0  3  0  0  0  0  0  0
  186.1910  177.2350  144.7590 C   0  0  0  0  0  3  0  0  0  0  0  0
  185.8250  177.4550  143.4940 C   0  0  0  0  0  3  0  0  0  0  0  0
  186.6660  178.0780  142.4410 C   0  0  0  0  0  0  0  0  0  0  0  0
  190.0570  177.1340  145.4010 C   0  0  1  0  0  3  0  0  0  0  0  0
  189.7720  178.5280  144.8480 C   0  0  2  0  0  3  0  0  0  0  0  0
  189.8620  177.1280  146.9140 C   0  0  0  0  0  1  0  0  0  0  0  0
  187.4730  177.7040  145.3910 C   0  0  0  0  0  2  0  0  0  0  0  0
  188.7670  177.3940  144.6190 C   0  0  1  0  0  0  0  0  0  0  0  0
  190.4780  176.6180  141.6700 O   0  0  0  0  0  0  0  0  0  0  0  0
  189.8550  176.1000  142.6330 C   0  0  0  0  0  0  0  0  0  0  0  0
  190.3040  174.9010  143.1700 O   0  0  0  0  0  1  0  0  0  0  0  0
  192.1440  178.7960  144.1690 C   0  0  0  0  0  1  0  0  0  0  0  0
  190.7090  178.8200  143.6860 C   0  0  0  0  0  2  0  0  0  0  0  0
  186.3070  178.4690  140.0990 O   0  0  0  0  0  0  0  0  0  0  0  0
  187.6970  178.5680  140.0060 C   0  0  0  0  0  2  0  0  0  0  0  0
  188.1990  177.5640  138.9890 C   0  0  0  0  0  2  0  0  0  0  0  0
  188.9950  179.4120  137.7640 O   0  0  0  0  0  0  0  0  0  0  0  0
  189.1030  178.2200  138.0010 C   0  0  0  0  0  0  0  0  0  0  0  0
  190.0970  177.3880  137.2530 C   0  0  0  0  0  2  0  0  0  0  0  0
  190.6220  175.1170  137.1390 C   0  0  0  0  0  1  0  0  0  0  0  0
  190.4970  176.2430  138.0550 N   0  0  0  0  0  0  0  0  0  0  0  0
  191.8360  176.5340  138.5490 C   0  0  0  0  0  2  0  0  0  0  0  0
  192.8380  176.3880  137.4180 C   0  0  0  0  0  1  0  0  0  0  0  0
  183.7860  179.2000  140.2090 C   0  0  0  0  0  2  0  0  0  0  0  0
  182.9200  176.8530  140.3990 C   0  0  0  0  0  1  0  0  0  0  0  0
  182.5920  178.2660  139.9130 C   0  0  1  0  0  0  0  0  0  0  0  0
  180.7010  179.6370  142.5800 C   0  0  2  0  0  3  0  0  0  0  0  0
  181.5020  179.8480  141.4460 O   0  0  0  0  0  0  0  0  0  0  0  0
  180.4780  177.7010  141.2820 C   0  0  0  0  0  2  0  0  0  0  0  0
  181.2830  178.7630  140.5730 C   0  0  2  0  0  3  0  0  0  0  0  0
  179.6120  177.7360  143.4810 O   0  0  0  0  0  1  0  0  0  0  0  0
  179.7620  178.4890  142.3190 C   0  0  1  0  0  3  0  0  0  0  0  0
  179.9810  180.7940  142.8800 O   0  0  0  0  0  0  0  0  0  0  0  0
  179.1870  181.0190  141.7630 C   0  0  0  0  0  1  0  0  0  0  0  0
  182.4230  178.2030  138.3740 C   0  0  2  0  0  3  0  0  0  0  0  0
  181.8260  179.4730  137.7690 C   0  0  0  0  0  2  0  0  0  0  0  0
  181.3470  179.2010  136.3620 C   0  0  0  0  0  1  0  0  0  0  0  0
  181.7100  176.9760  137.8950 C   0  0  0  0  0  0  0  0  0  0  0  0
  180.4510  176.9470  137.9470 O   0  0  0  0  0  0  0  0  0  0  0  0
  182.4230  175.9150  137.3440 O   0  0  0  0  0  0  0  0  0  0  0  0
  183.1790  176.0700  136.1480 C   0  0  0  0  0  2  0  0  0  0  0  0
  182.9650  173.7080  136.2040 C   0  0  0  0  0  2  0  0  0  0  0  0
  183.8070  174.8090  135.7310 N   0  0  0  0  0  0  0  0  0  0  0  0
  185.1400  174.5750  136.3140 C   0  0  2  0  0  3  0  0  0  0  0  0
  186.0830  172.8590  137.6780 O   0  0  0  0  0  1  0  0  0  0  0  0
  183.7610  172.8650  137.1940 C   0  0  0  0  0  2  0  0  0  0  0  0
  184.9720  173.6930  137.5320 C   0  0  2  0  0  3  0  0  0  0  0  0
  187.2510  175.7010  136.1210 O   0  0  0  0  0  1  0  0  0  0  0  0
  185.9550  175.8370  136.6240 C   0  0  0  0  0  2  0  0  0  0  0  0
  2  1  1  1  0  0  0
  2  7  1  0  0  0  0
  3 14  1  6  0  0  0
  3 12  1  0  0  0  0
  4  7  2  0  0  0  0
  4  3  1  0  0  0  0
  5 11  1  0  0  0  0
  6  5  2  0  0  0  0
  7  6  1  0  0  0  0
  8 10  1  1  0  0  0
  9 17  1  6  0  0  0
  9  8  1  0  0  0  0
 12  9  1  0  0  0  0
 12 11  1  1  0  0  0
 12  8  1  0  0  0  0
 13 14  2  0  0  0  0
 14 15  1  0  0  0  0
 17 16  1  0  0  0  0
 18  2  1  0  0  0  0
 19 18  1  0  0  0  0
 20 19  1  0  0  0  0
 21 22  2  0  0  0  0
 22 20  1  0  0  0  0
 23 22  1  0  0  0  0
 23 25  1  0  0  0  0
 24 25  1  0  0  0  0
 25 26  1  0  0  0  0
 27 26  1  0  0  0  0
 28  1  1  0  0  0  0
 30 28  1  0  0  0  0
 30 29  1  1  0  0  0
 31 37  1  6  0  0  0
 32 31  1  0  0  0  0
 33 36  1  0  0  0  0
 34 30  1  1  0  0  0
 34 33  1  0  0  0  0
 34 32  1  0  0  0  0
 36 31  1  0  0  0  0
 36 35  1  1  0  0  0
 38 37  1  0  0  0  0
 39 40  1  1  0  0  0
 39 30  1  0  0  0  0
 41 40  1  0  0  0  0
 42 43  2  0  0  0  0
 42 39  1  0  0  0  0
 44 42  1  0  0  0  0
 45 44  1  0  0  0  0
 46 50  1  0  0  0  0
 47 45  1  0  0  0  0
 47 46  1  0  0  0  0
 47 48  1  0  0  0  0
 48 53  1  1  0  0  0
 48 51  1  0  0  0  0
 50 51  1  0  0  0  0
 51 49  1  6  0  0  0
 52 53  1  0  0  0  0
M  END
>  <MODEL>
1

>  <REMARK>
 VINA RESULT:      -7.2      0.000      0.000
  Name = 
  22 active torsions:
  status: ('A' for Active; 'I' for Inactive)
    1  A    between atoms: C_3  and  C_18
    2  A    between atoms: C_3  and  C_25
    3  A    between atoms: C_4  and  C_18
    4  A    between atoms: C_4  and  N_51
    5  A    between atoms: C_5  and  C_16
    6  A    between atoms: C_5  and  C_24
    7  A    between atoms: C_6  and  C_13
    8  A    between atoms: N_7  and  C_21
    9  A    between atoms: C_9  and  O_35
   10  A    between atoms: C_9  and  C_48
   11  A    between atoms: C_10  and  O_29
   12  A    between atoms: C_16  and  C_31
   13  A    between atoms: C_16  and  O_45
   14  A    between atoms: C_17  and  C_39
   15  A    between atoms: C_20  and  N_51
   16  A    between atoms: C_21  and  O_35
   17  A    between atoms: C_22  and  C_48
   18  A    between atoms: C_24  and  C_34
   19  A    between atoms: C_25  and  O_45
   20  A    between atoms: C_28  and  C_34
   21  A    between atoms: C_33  and  C_41
   22  A    between atoms: C_34  and  C_48
                            x       y       z     vdW  Elec       q    Type
                         _______ _______ _______ _____ _____    ______ ____

>  <TORSDO>
F 22

$$$$
=
 OpenBabel11062413563D

 53 56  0  0  1  0  0  0  0  0999 V2000
  185.1920  179.0700  141.3500 C   0  0  0  0  0  2  0  0  0  0  0  0
  186.7080  178.9290  141.3450 C   0  0  1  0  0  3  0  0  0  0  0  0
  188.9900  176.5770  143.4150 C   0  0  2  0  0  3  0  0  0  0  0  0
  188.4670  177.5630  142.4190 C   0  0  0  0  0  3  0  0  0  0  0  0
  186.4260  177.1970  144.6910 C   0  0  0  0  0  3  0  0  0  0  0  0
  186.2170  177.4530  143.3970 C   0  0  0  0  0  3  0  0  0  0  0  0
  187.2080  178.0290  142.4540 C   0  0  0  0  0  0  0  0  0  0  0  0
  190.1820  176.8340  145.7520 C   0  0  1  0  0  3  0  0  0  0  0  0
  190.0510  178.2490  145.1950 C   0  0  2  0  0  3  0  0  0  0  0  0
  189.8210  176.8270  147.2340 C   0  0  0  0  0  1  0  0  0  0  0  0
  187.6580  177.5740  145.4680 C   0  0  0  0  0  2  0  0  0  0  0  0
  189.0060  177.1860  144.8380 C   0  0  1  0  0  0  0  0  0  0  0  0
  190.4340  174.6530  143.3100 O   0  0  0  0  0  1  0  0  0  0  0  0
  190.2210  175.8430  142.9610 C   0  0  0  0  0  0  0  0  0  0  0  0
  191.1370  176.4870  142.1400 O   0  0  0  0  0  0  0  0  0  0  0  0
  191.2030  179.9670  143.8230 C   0  0  0  0  0  1  0  0  0  0  0  0
  191.1280  178.4890  144.1470 C   0  0  0  0  0  2  0  0  0  0  0  0
  187.1240  178.4580  140.0930 O   0  0  0  0  0  0  0  0  0  0  0  0
  188.5140  178.5950  140.0910 C   0  0  0  0  0  2  0  0  0  0  0  0
  189.0240  178.4740  138.6690 C   0  0  0  0  0  2  0  0  0  0  0  0
  190.9880  177.2130  138.9830 O   0  0  0  0  0  0  0  0  0  0  0  0
  189.8630  177.2520  138.5110 C   0  0  0  0  0  0  0  0  0  0  0  0
  189.3400  176.1030  137.7100 C   0  0  0  0  0  2  0  0  0  0  0  0
  190.6360  174.2510  137.1310 C   0  0  0  0  0  1  0  0  0  0  0  0
  190.3540  175.6360  136.7790 N   0  0  0  0  0  0  0  0  0  0  0  0
  189.7280  175.6170  135.4640 C   0  0  0  0  0  2  0  0  0  0  0  0
  189.3780  177.0340  135.0480 C   0  0  0  0  0  1  0  0  0  0  0  0
  184.6530  179.2440  139.9330 C   0  0  0  0  0  2  0  0  0  0  0  0
  183.2540  177.3110  140.7070 C   0  0  0  0  0  1  0  0  0  0  0  0
  183.5650  178.2280  139.5230 C   0  0  1  0  0  0  0  0  0  0  0  0
  181.5740  181.0610  138.7610 C   0  0  2  0  0  3  0  0  0  0  0  0
  182.5350  180.1240  138.3460 O   0  0  0  0  0  0  0  0  0  0  0  0
  181.2350  179.1740  140.1050 C   0  0  0  0  0  2  0  0  0  0  0  0
  182.2700  178.9230  139.0360 C   0  0  2  0  0  3  0  0  0  0  0  0
  180.1120  181.1890  140.6200 O   0  0  0  0  0  1  0  0  0  0  0  0
  180.5170  180.3630  139.5750 C   0  0  1  0  0  3  0  0  0  0  0  0
  181.0000  181.6820  137.6510 O   0  0  0  0  0  0  0  0  0  0  0  0
  181.3810  183.0130  137.7520 C   0  0  0  0  0  1  0  0  0  0  0  0
  184.1550  177.3480  138.3930 C   0  0  2  0  0  3  0  0  0  0  0  0
  185.3240  177.9970  137.6550 C   0  0  0  0  0  2  0  0  0  0  0  0
  186.0430  176.9660  136.8140 C   0  0  0  0  0  1  0  0  0  0  0  0
  183.1260  176.8190  137.4410 C   0  0  0  0  0  0  0  0  0  0  0  0
  182.8010  177.5230  136.4470 O   0  0  0  0  0  0  0  0  0  0  0  0
  182.5890  175.5470  137.6160 O   0  0  0  0  0  0  0  0  0  0  0  0
  183.1300  174.4130  136.9460 C   0  0  0  0  0  2  0  0  0  0  0  0
  180.8560  174.4460  136.2710 C   0  0  0  0  0  2  0  0  0  0  0  0
  182.1420  173.7770  136.0650 N   0  0  0  0  0  0  0  0  0  0  0  0
  181.9060  172.3510  136.3510 C   0  0  2  0  0  3  0  0  0  0  0  0
  179.9830  171.0700  136.9480 O   0  0  0  0  0  1  0  0  0  0  0  0
  179.8540  173.4340  136.8190 C   0  0  0  0  0  2  0  0  0  0  0  0
  180.6800  172.2460  137.2320 C   0  0  2  0  0  3  0  0  0  0  0  0
  183.1480  170.2970  136.3980 O   0  0  0  0  0  1  0  0  0  0  0  0
  183.1010  171.5880  136.9320 C   0  0  0  0  0  2  0  0  0  0  0  0
  2  1  1  6  0  0  0
  2  7  1  0  0  0  0
  3 14  1  6  0  0  0
  3 12  1  0  0  0  0
  4  7  2  0  0  0  0
  4  3  1  0  0  0  0
  5 11  1  0  0  0  0
  6  5  2  0  0  0  0
  7  6  1  0  0  0  0
  8 10  1  1  0  0  0
  9 17  1  6  0  0  0
  9  8  1  0  0  0  0
 12  9  1  0  0  0  0
 12 11  1  1  0  0  0
 12  8  1  0  0  0  0
 14 13  1  0  0  0  0
 15 14  2  0  0  0  0
 16 17  1  0  0  0  0
 18  2  1  0  0  0  0
 19 18  1  0  0  0  0
 20 19  1  0  0  0  0
 22 20  1  0  0  0  0
 22 21  2  0  0  0  0
 23 22  1  0  0  0  0
 25 24  1  0  0  0  0
 25 23  1  0  0  0  0
 26 25  1  0  0  0  0
 27 26  1  0  0  0  0
 28  1  1  0  0  0  0
 30 28  1  0  0  0  0
 30 29  1  1  0  0  0
 31 37  1  6  0  0  0
 31 36  1  0  0  0  0
 32 31  1  0  0  0  0
 32 34  1  0  0  0  0
 34 30  1  1  0  0  0
 34 33  1  0  0  0  0
 36 33  1  0  0  0  0
 36 35  1  1  0  0  0
 37 38  1  0  0  0  0
 39 40  1  6  0  0  0
 39 30  1  0  0  0  0
 41 40  1  0  0  0  0
 42 44  1  0  0  0  0
 42 39  1  0  0  0  0
 43 42  2  0  0  0  0
 45 44  1  0  0  0  0
 46 50  1  0  0  0  0
 47 46  1  0  0  0  0
 47 48  1  0  0  0  0
 47 45  1  0  0  0  0
 48 53  1  1  0  0  0
 48 51  1  0  0  0  0
 50 51  1  0  0  0  0
 51 49  1  6  0  0  0
 52 53  1  0  0  0  0
M  END
>  <MODEL>
2

>  <REMARK>
 VINA RESULT:      -7.1      1.877      2.840
  Name = 
  22 active torsions:
  status: ('A' for Active; 'I' for Inactive)
    1  A    between atoms: C_3  and  C_18
    2  A    between atoms: C_3  and  C_25
    3  A    between atoms: C_4  and  C_18
    4  A    between atoms: C_4  and  N_51
    5  A    between atoms: C_5  and  C_16
    6  A    between atoms: C_5  and  C_24
    7  A    between atoms: C_6  and  C_13
    8  A    between atoms: N_7  and  C_21
    9  A    between atoms: C_9  and  O_35
   10  A    between atoms: C_9  and  C_48
   11  A    between atoms: C_10  and  O_29
   12  A    between atoms: C_16  and  C_31
   13  A    between atoms: C_16  and  O_45
   14  A    between atoms: C_17  and  C_39
   15  A    between atoms: C_20  and  N_51
   16  A    between atoms: C_21  and  O_35
   17  A    between atoms: C_22  and  C_48
   18  A    between atoms: C_24  and  C_34
   19  A    between atoms: C_25  and  O_45
   20  A    between atoms: C_28  and  C_34
   21  A    between atoms: C_33  and  C_41
   22  A    between atoms: C_34  and  C_48
                            x       y       z     vdW  Elec       q    Type
                         _______ _______ _______ _____ _____    ______ ____

>  <TORSDO>
F 22

$$$$
=
 OpenBabel11062413563D

 53 56  0  0  1  0  0  0  0  0999 V2000
  189.2920  176.9960  141.1950 C   0  0  0  0  0  2  0  0  0  0  0  0
  189.3870  177.2950  139.7050 C   0  0  1  0  0  3  0  0  0  0  0  0
  191.4020  174.8320  137.4920 C   0  0  2  0  0  3  0  0  0  0  0  0
  190.3130  175.6590  138.0990 C   0  0  0  0  0  3  0  0  0  0  0  0
  193.0540  176.7270  138.9960 C   0  0  0  0  0  3  0  0  0  0  0  0
  191.8940  176.7090  139.6570 C   0  0  0  0  0  3  0  0  0  0  0  0
  190.5470  176.5820  139.0460 C   0  0  0  0  0  0  0  0  0  0  0  0
  192.9680  175.1710  135.3990 C   0  0  1  0  0  3  0  0  0  0  0  0
  191.9750  176.3290  135.3660 C   0  0  2  0  0  3  0  0  0  0  0  0
  194.3700  175.6840  135.0830 C   0  0  0  0  0  1  0  0  0  0  0  0
  193.2060  176.7620  137.4990 C   0  0  0  0  0  2  0  0  0  0  0  0
  192.3960  175.7210  136.7080 C   0  0  1  0  0  0  0  0  0  0  0  0
  191.7190  172.7830  136.2670 O   0  0  0  0  0  0  0  0  0  0  0  0
  190.9150  173.5780  136.8200 C   0  0  0  0  0  0  0  0  0  0  0  0
  189.5570  173.2890  136.8130 O   0  0  0  0  0  1  0  0  0  0  0  0
  189.7220  177.0280  134.5940 C   0  0  0  0  0  1  0  0  0  0  0  0
  190.6410  175.8450  134.8160 C   0  0  0  0  0  2  0  0  0  0  0  0
  188.1750  176.9540  139.0880 O   0  0  0  0  0  0  0  0  0  0  0  0
  187.7120  178.1370  138.5080 C   0  0  0  0  0  2  0  0  0  0  0  0
  186.3600  177.8840  137.8740 C   0  0  0  0  0  2  0  0  0  0  0  0
  186.7760  178.3830  135.6100 O   0  0  0  0  0  0  0  0  0  0  0  0
  186.5100  177.5240  136.4350 C   0  0  0  0  0  0  0  0  0  0  0  0
  186.2640  176.1130  136.0030 C   0  0  0  0  0  2  0  0  0  0  0  0
  184.1950  175.0960  136.3630 C   0  0  0  0  0  1  0  0  0  0  0  0
  185.4660  175.4150  136.9980 N   0  0  0  0  0  0  0  0  0  0  0  0
  186.1400  174.1500  137.2530 C   0  0  0  0  0  2  0  0  0  0  0  0
  185.1320  173.1280  137.7490 C   0  0  0  0  0  1  0  0  0  0  0  0
  188.6140  178.1410  141.9410 C   0  0  0  0  0  2  0  0  0  0  0  0
  187.6610  176.2630  143.3050 C   0  0  0  0  0  1  0  0  0  0  0  0
  188.0020  177.7540  143.3050 C   0  0  1  0  0  0  0  0  0  0  0  0
  190.3580  176.9060  145.8150 C   0  0  2  0  0  3  0  0  0  0  0  0
  190.1050  177.2720  144.4820 O   0  0  0  0  0  0  0  0  0  0  0  0
  188.3110  178.0420  145.8520 C   0  0  0  0  0  2  0  0  0  0  0  0
  188.9500  178.0800  144.4850 C   0  0  2  0  0  3  0  0  0  0  0  0
  189.0450  176.8970  147.7850 O   0  0  0  0  0  1  0  0  0  0  0  0
  189.4630  177.7000  146.7270 C   0  0  1  0  0  3  0  0  0  0  0  0
  191.6980  177.1380  146.1280 O   0  0  0  0  0  0  0  0  0  0  0  0
  192.1240  175.9730  146.7520 C   0  0  0  0  0  1  0  0  0  0  0  0
  186.6740  178.5370  143.4570 C   0  0  2  0  0  3  0  0  0  0  0  0
  185.8220  178.0800  144.6400 C   0  0  0  0  0  2  0  0  0  0  0  0
  184.7670  179.1170  144.9500 C   0  0  0  0  0  1  0  0  0  0  0  0
  185.8700  178.6110  142.1950 C   0  0  0  0  0  0  0  0  0  0  0  0
  186.1040  179.5450  141.3800 O   0  0  0  0  0  0  0  0  0  0  0  0
  184.9280  177.6310  141.8990 O   0  0  0  0  0  0  0  0  0  0  0  0
  183.8960  177.8570  140.9430 C   0  0  0  0  0  2  0  0  0  0  0  0
  181.9500  178.4940  142.1420 C   0  0  0  0  0  2  0  0  0  0  0  0
  183.0490  178.9980  141.3140 N   0  0  0  0  0  0  0  0  0  0  0  0
  182.4140  179.6770  140.1710 C   0  0  2  0  0  3  0  0  0  0  0  0
  180.1550  180.1210  139.5440 O   0  0  0  0  0  1  0  0  0  0  0  0
  180.6300  178.7560  141.4240 C   0  0  0  0  0  2  0  0  0  0  0  0
  181.0140  179.1260  140.0160 C   0  0  2  0  0  3  0  0  0  0  0  0
  184.1940  180.6130  138.8600 O   0  0  0  0  0  1  0  0  0  0  0  0
  183.2010  179.6300  138.8560 C   0  0  0  0  0  2  0  0  0  0  0  0
  1 28  1  0  0  0  0
  2  1  1  1  0  0  0
  3 14  1  6  0  0  0
  3  4  1  0  0  0  0
  4  7  2  0  0  0  0
  5  6  2  0  0  0  0
  7  6  1  0  0  0  0
  7  2  1  0  0  0  0
  8 10  1  1  0  0  0
  8 12  1  0  0  0  0
  9 17  1  6  0  0  0
  9  8  1  0  0  0  0
  9 12  1  0  0  0  0
 11  5  1  0  0  0  0
 12  3  1  0  0  0  0
 12 11  1  1  0  0  0
 13 14  2  0  0  0  0
 15 14  1  0  0  0  0
 16 17  1  0  0  0  0
 18  2  1  0  0  0  0
 19 18  1  0  0  0  0
 20 19  1  0  0  0  0
 21 22  2  0  0  0  0
 22 20  1  0  0  0  0
 23 22  1  0  0  0  0
 23 25  1  0  0  0  0
 24 25  1  0  0  0  0
 25 26  1  0  0  0  0
 26 27  1  0  0  0  0
 28 30  1  0  0  0  0
 30 29  1  1  0  0  0
 30 39  1  0  0  0  0
 31 37  1  1  0  0  0
 31 36  1  0  0  0  0
 32 34  1  0  0  0  0
 32 31  1  0  0  0  0
 33 36  1  0  0  0  0
 34 30  1  6  0  0  0
 34 33  1  0  0  0  0
 36 35  1  1  0  0  0
 37 38  1  0  0  0  0
 39 40  1  1  0  0  0
 40 41  1  0  0  0  0
 42 39  1  0  0  0  0
 43 42  2  0  0  0  0
 44 42  1  0  0  0  0
 45 47  1  0  0  0  0
 45 44  1  0  0  0  0
 47 46  1  0  0  0  0
 48 53  1  6  0  0  0
 48 47  1  0  0  0  0
 50 46  1  0  0  0  0
 51 49  1  1  0  0  0
 51 48  1  0  0  0  0
 51 50  1  0  0  0  0
 53 52  1  0  0  0  0
M  END
>  <MODEL>
3

>  <REMARK>
 VINA RESULT:      -7.0      2.280      7.776
  Name = 
  22 active torsions:
  status: ('A' for Active; 'I' for Inactive)
    1  A    between atoms: C_3  and  C_18
    2  A    between atoms: C_3  and  C_25
    3  A    between atoms: C_4  and  C_18
    4  A    between atoms: C_4  and  N_51
    5  A    between atoms: C_5  and  C_16
    6  A    between atoms: C_5  and  C_24
    7  A    between atoms: C_6  and  C_13
    8  A    between atoms: N_7  and  C_21
    9  A    between atoms: C_9  and  O_35
   10  A    between atoms: C_9  and  C_48
   11  A    between atoms: C_10  and  O_29
   12  A    between atoms: C_16  and  C_31
   13  A    between atoms: C_16  and  O_45
   14  A    between atoms: C_17  and  C_39
   15  A    between atoms: C_20  and  N_51
   16  A    between atoms: C_21  and  O_35
   17  A    between atoms: C_22  and  C_48
   18  A    between atoms: C_24  and  C_34
   19  A    between atoms: C_25  and  O_45
   20  A    between atoms: C_28  and  C_34
   21  A    between atoms: C_33  and  C_41
   22  A    between atoms: C_34  and  C_48
                            x       y       z     vdW  Elec       q    Type
                         _______ _______ _______ _____ _____    ______ ____

>  <TORSDO>
F 22

$$$$
=
 OpenBabel11062413563D

 53 56  0  0  1  0  0  0  0  0999 V2000
  185.3210  177.9470  140.5960 C   0  0  0  0  0  2  0  0  0  0  0  0
  186.3180  178.7300  141.4390 C   0  0  1  0  0  3  0  0  0  0  0  0
  188.8050  176.5190  143.4260 C   0  0  2  0  0  3  0  0  0  0  0  0
  188.1850  177.4480  142.4310 C   0  0  0  0  0  3  0  0  0  0  0  0
  186.3370  177.1530  144.8730 C   0  0  0  0  0  3  0  0  0  0  0  0
  186.0220  177.3440  143.5890 C   0  0  0  0  0  3  0  0  0  0  0  0
  186.9230  177.8930  142.5450 C   0  0  0  0  0  0  0  0  0  0  0  0
  190.1720  176.9070  145.6460 C   0  0  1  0  0  3  0  0  0  0  0  0
  189.9680  178.2920  145.0380 C   0  0  2  0  0  3  0  0  0  0  0  0
  189.9290  176.9630  147.1510 C   0  0  0  0  0  1  0  0  0  0  0  0
  187.6180  177.5880  145.5310 C   0  0  0  0  0  2  0  0  0  0  0  0
  188.9210  177.1950  144.8140 C   0  0  1  0  0  0  0  0  0  0  0  0
  190.6000  174.9240  143.6130 O   0  0  0  0  0  1  0  0  0  0  0  0
  190.0130  175.7860  142.9100 C   0  0  0  0  0  0  0  0  0  0  0  0
  190.4860  176.0630  141.6330 O   0  0  0  0  0  0  0  0  0  0  0  0
  191.3610  179.9590  143.8380 C   0  0  0  0  0  1  0  0  0  0  0  0
  190.9530  178.5010  143.8980 C   0  0  0  0  0  2  0  0  0  0  0  0
  187.3160  179.2540  140.6060 O   0  0  0  0  0  0  0  0  0  0  0  0
  187.2620  178.4860  139.4400 C   0  0  0  0  0  2  0  0  0  0  0  0
  188.6680  178.0900  139.0410 C   0  0  0  0  0  2  0  0  0  0  0  0
  188.8120  179.7330  137.3590 O   0  0  0  0  0  0  0  0  0  0  0  0
  188.9790  178.5620  137.6610 C   0  0  0  0  0  0  0  0  0  0  0  0
  189.4310  177.5740  136.6340 C   0  0  0  0  0  2  0  0  0  0  0  0
  189.0790  175.2670  136.6650 C   0  0  0  0  0  1  0  0  0  0  0  0
  189.8530  176.3390  137.2760 N   0  0  0  0  0  0  0  0  0  0  0  0
  191.2410  176.1290  136.8910 C   0  0  0  0  0  2  0  0  0  0  0  0
  191.8820  175.1240  137.8310 C   0  0  0  0  0  1  0  0  0  0  0  0
  183.8860  178.3180  140.9590 C   0  0  0  0  0  2  0  0  0  0  0  0
  183.7080  180.0690  139.1710 C   0  0  0  0  0  1  0  0  0  0  0  0
  183.0330  178.8390  139.7820 C   0  0  1  0  0  0  0  0  0  0  0  0
  183.3120  175.5620  138.4590 C   0  0  2  0  0  3  0  0  0  0  0  0
  182.5990  176.4800  139.2470 O   0  0  0  0  0  0  0  0  0  0  0  0
  183.8970  177.6780  137.6440 C   0  0  0  0  0  2  0  0  0  0  0  0
  182.8150  177.7590  138.6940 C   0  0  2  0  0  3  0  0  0  0  0  0
  185.0860  175.7740  136.9030 O   0  0  0  0  0  1  0  0  0  0  0  0
  183.8180  176.2540  137.2220 C   0  0  1  0  0  3  0  0  0  0  0  0
  182.4910  174.4880  138.1120 O   0  0  0  0  0  0  0  0  0  0  0  0
  181.1970  174.9680  138.2600 C   0  0  0  0  0  1  0  0  0  0  0  0
  181.6710  179.2940  140.3620 C   0  0  2  0  0  3  0  0  0  0  0  0
  181.3930  178.7640  141.7670 C   0  0  0  0  0  2  0  0  0  0  0  0
  180.5930  179.7760  142.5550 C   0  0  0  0  0  1  0  0  0  0  0  0
  180.5130  179.0530  139.4430 C   0  0  0  0  0  0  0  0  0  0  0  0
  179.6340  178.2140  139.7810 O   0  0  0  0  0  0  0  0  0  0  0  0
  180.3780  179.7880  138.2680 O   0  0  0  0  0  0  0  0  0  0  0  0
  180.2260  181.2040  138.2920 C   0  0  0  0  0  2  0  0  0  0  0  0
  181.7090  183.0150  137.9090 C   0  0  0  0  0  2  0  0  0  0  0  0
  181.0660  181.8590  137.2810 N   0  0  0  0  0  0  0  0  0  0  0  0
  180.3200  182.3910  136.1270 C   0  0  2  0  0  3  0  0  0  0  0  0
  180.0700  184.5600  135.1620 O   0  0  0  0  0  1  0  0  0  0  0  0
  181.2410  184.2860  137.2060 C   0  0  0  0  0  2  0  0  0  0  0  0
  180.0620  183.8620  136.3730 C   0  0  2  0  0  3  0  0  0  0  0  0
  179.3310  180.5980  134.8750 O   0  0  0  0  0  1  0  0  0  0  0  0
  179.0360  181.6340  135.7650 C   0  0  0  0  0  2  0  0  0  0  0  0
  1 28  1  0  0  0  0
  2  1  1  6  0  0  0
  2  7  1  0  0  0  0
  3 14  1  6  0  0  0
  3 12  1  0  0  0  0
  4  7  2  0  0  0  0
  4  3  1  0  0  0  0
  5 11  1  0  0  0  0
  6  5  2  0  0  0  0
  7  6  1  0  0  0  0
  8 10  1  1  0  0  0
  9 17  1  6  0  0  0
  9  8  1  0  0  0  0
 12  9  1  0  0  0  0
 12 11  1  1  0  0  0
 12  8  1  0  0  0  0
 14 13  1  0  0  0  0
 15 14  2  0  0  0  0
 16 17  1  0  0  0  0
 18  2  1  0  0  0  0
 19 18  1  0  0  0  0
 20 19  1  0  0  0  0
 21 22  2  0  0  0  0
 22 20  1  0  0  0  0
 23 25  1  0  0  0  0
 23 22  1  0  0  0  0
 24 25  1  0  0  0  0
 26 25  1  0  0  0  0
 26 27  1  0  0  0  0
 30 29  1  6  0  0  0
 30 39  1  0  0  0  0
 30 28  1  0  0  0  0
 31 37  1  6  0  0  0
 31 32  1  0  0  0  0
 33 34  1  0  0  0  0
 34 32  1  0  0  0  0
 34 30  1  1  0  0  0
 36 35  1  1  0  0  0
 36 33  1  0  0  0  0
 36 31  1  0  0  0  0
 37 38  1  0  0  0  0
 39 40  1  1  0  0  0
 40 41  1  0  0  0  0
 42 43  2  0  0  0  0
 42 39  1  0  0  0  0
 44 45  1  0  0  0  0
 44 42  1  0  0  0  0
 47 46  1  0  0  0  0
 47 45  1  0  0  0  0
 48 53  1  1  0  0  0
 48 51  1  0  0  0  0
 48 47  1  0  0  0  0
 50 46  1  0  0  0  0
 51 49  1  6  0  0  0
 51 50  1  0  0  0  0
 52 53  1  0  0  0  0
M  END
>  <MODEL>
4

>  <REMARK>
 VINA RESULT:      -6.9      2.382      5.078
  Name = 
  22 active torsions:
  status: ('A' for Active; 'I' for Inactive)
    1  A    between atoms: C_3  and  C_18
    2  A    between atoms: C_3  and  C_25
    3  A    between atoms: C_4  and  C_18
    4  A    between atoms: C_4  and  N_51
    5  A    between atoms: C_5  and  C_16
    6  A    between atoms: C_5  and  C_24
    7  A    between atoms: C_6  and  C_13
    8  A    between atoms: N_7  and  C_21
    9  A    between atoms: C_9  and  O_35
   10  A    between atoms: C_9  and  C_48
   11  A    between atoms: C_10  and  O_29
   12  A    between atoms: C_16  and  C_31
   13  A    between atoms: C_16  and  O_45
   14  A    between atoms: C_17  and  C_39
   15  A    between atoms: C_20  and  N_51
   16  A    between atoms: C_21  and  O_35
   17  A    between atoms: C_22  and  C_48
   18  A    between atoms: C_24  and  C_34
   19  A    between atoms: C_25  and  O_45
   20  A    between atoms: C_28  and  C_34
   21  A    between atoms: C_33  and  C_41
   22  A    between atoms: C_34  and  C_48
                            x       y       z     vdW  Elec       q    Type
                         _______ _______ _______ _____ _____    ______ ____

>  <TORSDO>
F 22

$$$$
=
 OpenBabel11062413563D

 53 56  0  0  1  0  0  0  0  0999 V2000
  188.0620  178.4870  141.3160 C   0  0  0  0  0  2  0  0  0  0  0  0
  187.0320  178.2200  140.2270 C   0  0  1  0  0  3  0  0  0  0  0  0
  183.3710  179.4500  139.9050 C   0  0  2  0  0  3  0  0  0  0  0  0
  184.7090  178.8340  139.6450 C   0  0  0  0  0  3  0  0  0  0  0  0
  184.3760  179.3680  142.6560 C   0  0  0  0  0  3  0  0  0  0  0  0
  185.4800  179.4040  141.9060 C   0  0  0  0  0  3  0  0  0  0  0  0
  185.6590  178.7410  140.5900 C   0  0  0  0  0  0  0  0  0  0  0  0
  181.0710  178.4760  140.7460 C   0  0  1  0  0  3  0  0  0  0  0  0
  181.9880  177.2710  140.5580 C   0  0  2  0  0  3  0  0  0  0  0  0
  180.2900  178.3330  142.0500 C   0  0  0  0  0  1  0  0  0  0  0  0
  183.1560  178.5340  142.3740 C   0  0  0  0  0  2  0  0  0  0  0  0
  182.5800  178.6290  140.9510 C   0  0  1  0  0  0  0  0  0  0  0  0
  182.7910  179.2550  137.5760 O   0  0  0  0  0  0  0  0  0  0  0  0
  182.6410  179.8740  138.6610 C   0  0  0  0  0  0  0  0  0  0  0  0
  181.7840  180.9670  138.7100 O   0  0  0  0  0  1  0  0  0  0  0  0
  182.2510  175.4230  138.9230 C   0  0  0  0  0  1  0  0  0  0  0  0
  182.0750  176.9190  139.0810 C   0  0  0  0  0  2  0  0  0  0  0  0
  187.4780  178.7800  139.0220 O   0  0  0  0  0  0  0  0  0  0  0  0
  187.8430  177.6940  138.2230 C   0  0  0  0  0  2  0  0  0  0  0  0
  187.1700  177.8230  136.8730 C   0  0  0  0  0  2  0  0  0  0  0  0
  187.5000  176.6580  134.8530 O   0  0  0  0  0  0  0  0  0  0  0  0
  187.3670  176.5870  136.0640 C   0  0  0  0  0  0  0  0  0  0  0  0
  187.3310  175.2540  136.7430 C   0  0  0  0  0  2  0  0  0  0  0  0
  186.8680  173.1030  135.9650 C   0  0  0  0  0  1  0  0  0  0  0  0
  186.2870  174.4240  136.1640 N   0  0  0  0  0  0  0  0  0  0  0  0
  185.2590  174.2830  137.1870 C   0  0  0  0  0  2  0  0  0  0  0  0
  185.2880  172.8710  137.7450 C   0  0  0  0  0  1  0  0  0  0  0  0
  188.4510  177.1970  142.0320 C   0  0  0  0  0  2  0  0  0  0  0  0
  190.2530  175.5080  142.4750 C   0  0  0  0  0  1  0  0  0  0  0  0
  189.9700  176.9890  142.2160 C   0  0  1  0  0  0  0  0  0  0  0  0
  191.6880  176.5170  139.1510 C   0  0  2  0  0  3  0  0  0  0  0  0
  190.4760  176.7480  139.8230 O   0  0  0  0  0  0  0  0  0  0  0  0
  192.2760  177.5180  141.1850 C   0  0  0  0  0  2  0  0  0  0  0  0
  190.7800  177.4780  140.9910 C   0  0  2  0  0  3  0  0  0  0  0  0
  193.9620  176.5960  139.8080 O   0  0  0  0  0  1  0  0  0  0  0  0
  192.7780  177.3280  139.7980 C   0  0  1  0  0  3  0  0  0  0  0  0
  191.5620  176.8610  137.8050 O   0  0  0  0  0  0  0  0  0  0  0  0
  191.8240  175.6870  137.1120 C   0  0  0  0  0  1  0  0  0  0  0  0
  190.3940  177.7740  143.4830 C   0  0  2  0  0  3  0  0  0  0  0  0
  191.3840  178.9040  143.2030 C   0  0  0  0  0  2  0  0  0  0  0  0
  191.2960  179.9510  144.2900 C   0  0  0  0  0  1  0  0  0  0  0  0
  190.8590  176.8990  144.6060 C   0  0  0  0  0  0  0  0  0  0  0  0
  191.9220  176.2370  144.4600 O   0  0  0  0  0  0  0  0  0  0  0  0
  190.1640  176.8690  145.8120 O   0  0  0  0  0  0  0  0  0  0  0  0
  189.1300  177.8060  146.0970 C   0  0  0  0  0  2  0  0  0  0  0  0
  187.1180  177.0960  145.0590 C   0  0  0  0  0  2  0  0  0  0  0  0
  187.8410  177.1420  146.3320 N   0  0  0  0  0  0  0  0  0  0  0  0
  186.9570  177.8520  147.2730 C   0  0  2  0  0  3  0  0  0  0  0  0
  184.7590  178.7680  147.1220 O   0  0  0  0  0  1  0  0  0  0  0  0
  185.8310  177.9050  145.1910 C   0  0  0  0  0  2  0  0  0  0  0  0
  185.9890  178.6900  146.4650 C   0  0  2  0  0  3  0  0  0  0  0  0
  188.1150  177.8310  149.3750 O   0  0  0  0  0  1  0  0  0  0  0  0
  187.6680  178.6740  148.3540 C   0  0  0  0  0  2  0  0  0  0  0  0
  1 28  1  0  0  0  0
  2  7  1  0  0  0  0
  2  1  1  1  0  0  0
  3 14  1  6  0  0  0
  3 12  1  0  0  0  0
  4  3  1  0  0  0  0
  4  7  2  0  0  0  0
  6  5  2  0  0  0  0
  7  6  1  0  0  0  0
  8 12  1  0  0  0  0
  8 10  1  1  0  0  0
  9 17  1  6  0  0  0
  9  8  1  0  0  0  0
  9 12  1  0  0  0  0
 11  5  1  0  0  0  0
 12 11  1  1  0  0  0
 13 14  2  0  0  0  0
 14 15  1  0  0  0  0
 16 17  1  0  0  0  0
 18  2  1  0  0  0  0
 19 18  1  0  0  0  0
 20 19  1  0  0  0  0
 21 22  2  0  0  0  0
 22 23  1  0  0  0  0
 22 20  1  0  0  0  0
 24 25  1  0  0  0  0
 25 23  1  0  0  0  0
 25 26  1  0  0  0  0
 26 27  1  0  0  0  0
 28 30  1  0  0  0  0
 30 29  1  1  0  0  0
 30 39  1  0  0  0  0
 31 37  1  6  0  0  0
 31 36  1  0  0  0  0
 31 32  1  0  0  0  0
 32 34  1  0  0  0  0
 34 33  1  0  0  0  0
 34 30  1  1  0  0  0
 36 35  1  1  0  0  0
 36 33  1  0  0  0  0
 38 37  1  0  0  0  0
 39 40  1  6  0  0  0
 39 42  1  0  0  0  0
 40 41  1  0  0  0  0
 42 44  1  0  0  0  0
 43 42  2  0  0  0  0
 44 45  1  0  0  0  0
 45 47  1  0  0  0  0
 46 50  1  0  0  0  0
 46 47  1  0  0  0  0
 47 48  1  0  0  0  0
 48 53  1  1  0  0  0
 50 51  1  0  0  0  0
 51 49  1  1  0  0  0
 51 48  1  0  0  0  0
 53 52  1  0  0  0  0
M  END
>  <MODEL>
5

>  <REMARK>
 VINA RESULT:      -6.9      2.506      9.327
  Name = 
  22 active torsions:
  status: ('A' for Active; 'I' for Inactive)
    1  A    between atoms: C_3  and  C_18
    2  A    between atoms: C_3  and  C_25
    3  A    between atoms: C_4  and  C_18
    4  A    between atoms: C_4  and  N_51
    5  A    between atoms: C_5  and  C_16
    6  A    between atoms: C_5  and  C_24
    7  A    between atoms: C_6  and  C_13
    8  A    between atoms: N_7  and  C_21
    9  A    between atoms: C_9  and  O_35
   10  A    between atoms: C_9  and  C_48
   11  A    between atoms: C_10  and  O_29
   12  A    between atoms: C_16  and  C_31
   13  A    between atoms: C_16  and  O_45
   14  A    between atoms: C_17  and  C_39
   15  A    between atoms: C_20  and  N_51
   16  A    between atoms: C_21  and  O_35
   17  A    between atoms: C_22  and  C_48
   18  A    between atoms: C_24  and  C_34
   19  A    between atoms: C_25  and  O_45
   20  A    between atoms: C_28  and  C_34
   21  A    between atoms: C_33  and  C_41
   22  A    between atoms: C_34  and  C_48
                            x       y       z     vdW  Elec       q    Type
                         _______ _______ _______ _____ _____    ______ ____

>  <TORSDO>
F 22

$$$$
=
 OpenBabel11062413563D

 53 56  0  0  1  0  0  0  0  0999 V2000
  185.4050  179.2600  141.4170 C   0  0  0  0  0  2  0  0  0  0  0  0
  186.8850  178.9250  141.2840 C   0  0  1  0  0  3  0  0  0  0  0  0
  189.1490  176.5570  143.3540 C   0  0  2  0  0  3  0  0  0  0  0  0
  188.6370  177.5620  142.3710 C   0  0  0  0  0  3  0  0  0  0  0  0
  186.5370  177.0910  144.5690 C   0  0  0  0  0  3  0  0  0  0  0  0
  186.3620  177.3800  143.2770 C   0  0  0  0  0  3  0  0  0  0  0  0
  187.3690  178.0030  142.3810 C   0  0  0  0  0  0  0  0  0  0  0  0
  190.2660  176.7680  145.7320 C   0  0  1  0  0  3  0  0  0  0  0  0
  190.1240  178.1960  145.2120 C   0  0  2  0  0  3  0  0  0  0  0  0
  189.8610  176.7110  147.2020 C   0  0  0  0  0  1  0  0  0  0  0  0
  187.7370  177.4680  145.3940 C   0  0  0  0  0  2  0  0  0  0  0  0
  189.1120  177.1240  144.7930 C   0  0  1  0  0  0  0  0  0  0  0  0
  190.8010  174.8090  143.4870 O   0  0  0  0  0  1  0  0  0  0  0  0
  190.4080  175.8600  142.9170 C   0  0  0  0  0  0  0  0  0  0  0  0
  191.1480  176.3830  141.8640 O   0  0  0  0  0  0  0  0  0  0  0  0
  191.2450  179.9670  143.8840 C   0  0  0  0  0  1  0  0  0  0  0  0
  191.2260  178.4870  144.2060 C   0  0  0  0  0  2  0  0  0  0  0  0
  187.1190  178.3660  140.0200 O   0  0  0  0  0  0  0  0  0  0  0  0
  188.4940  178.4970  139.8100 C   0  0  0  0  0  2  0  0  0  0  0  0
  188.9180  177.5580  138.6990 C   0  0  0  0  0  2  0  0  0  0  0  0
  188.9700  179.4520  137.3000 O   0  0  0  0  0  0  0  0  0  0  0  0
  188.8490  178.2410  137.3760 C   0  0  0  0  0  0  0  0  0  0  0  0
  188.5600  177.4330  136.1500 C   0  0  0  0  0  2  0  0  0  0  0  0
  188.8960  175.4260  135.0060 C   0  0  0  0  0  1  0  0  0  0  0  0
  189.2640  176.1620  136.2080 N   0  0  0  0  0  0  0  0  0  0  0  0
  190.6830  176.4720  136.0950 C   0  0  0  0  0  2  0  0  0  0  0  0
  191.5010  175.2410  136.4400 C   0  0  0  0  0  1  0  0  0  0  0  0
  184.6460  178.9060  140.1410 C   0  0  0  0  0  2  0  0  0  0  0  0
  182.9850  177.0450  140.4080 C   0  0  0  0  0  1  0  0  0  0  0  0
  183.1550  178.5640  140.3470 C   0  0  1  0  0  0  0  0  0  0  0  0
  182.6030  178.7480  143.8440 C   0  0  2  0  0  3  0  0  0  0  0  0
  183.4230  179.0440  142.7420 O   0  0  0  0  0  0  0  0  0  0  0  0
  181.1750  178.7850  141.9890 C   0  0  0  0  0  2  0  0  0  0  0  0
  182.5760  179.2140  141.6280 C   0  0  2  0  0  3  0  0  0  0  0  0
  180.3710  177.9860  144.0630 O   0  0  0  0  0  1  0  0  0  0  0  0
  181.1630  178.9630  143.4650 C   0  0  1  0  0  3  0  0  0  0  0  0
  182.9460  179.5590  144.9270 O   0  0  0  0  0  0  0  0  0  0  0  0
  183.8840  178.8230  145.6390 C   0  0  0  0  0  1  0  0  0  0  0  0
  182.3870  179.0700  139.1000 C   0  0  2  0  0  3  0  0  0  0  0  0
  181.5590  180.3280  139.3560 C   0  0  0  0  0  2  0  0  0  0  0  0
  181.5920  181.2260  138.1410 C   0  0  0  0  0  1  0  0  0  0  0  0
  181.5810  178.0080  138.4170 C   0  0  0  0  0  0  0  0  0  0  0  0
  180.3420  177.9460  138.6450 O   0  0  0  0  0  0  0  0  0  0  0  0
  182.1780  177.1480  137.4990 O   0  0  0  0  0  0  0  0  0  0  0  0
  181.4460  176.0900  136.8880 C   0  0  0  0  0  2  0  0  0  0  0  0
  182.4710  174.1330  136.0240 C   0  0  0  0  0  2  0  0  0  0  0  0
  181.9880  174.7730  137.2490 N   0  0  0  0  0  0  0  0  0  0  0  0
  180.9960  173.8470  137.8230 C   0  0  2  0  0  3  0  0  0  0  0  0
  180.1880  171.6860  137.2130 O   0  0  0  0  0  1  0  0  0  0  0  0
  181.6660  172.8610  135.7780 C   0  0  0  0  0  2  0  0  0  0  0  0
  180.4890  172.9540  136.7110 C   0  0  2  0  0  3  0  0  0  0  0  0
  180.2310  174.7040  139.9310 O   0  0  0  0  0  1  0  0  0  0  0  0
  179.8510  174.5060  138.6010 C   0  0  0  0  0  2  0  0  0  0  0  0
  2  1  1  1  0  0  0
  2  7  1  0  0  0  0
  3 14  1  6  0  0  0
  3 12  1  0  0  0  0
  4  7  2  0  0  0  0
  4  3  1  0  0  0  0
  5 11  1  0  0  0  0
  6  5  2  0  0  0  0
  7  6  1  0  0  0  0
  8 10  1  1  0  0  0
  9 17  1  6  0  0  0
  9  8  1  0  0  0  0
 12  9  1  0  0  0  0
 12 11  1  1  0  0  0
 12  8  1  0  0  0  0
 14 13  1  0  0  0  0
 15 14  2  0  0  0  0
 16 17  1  0  0  0  0
 18  2  1  0  0  0  0
 19 18  1  0  0  0  0
 20 19  1  0  0  0  0
 21 22  2  0  0  0  0
 22 20  1  0  0  0  0
 23 25  1  0  0  0  0
 23 22  1  0  0  0  0
 24 25  1  0  0  0  0
 26 25  1  0  0  0  0
 26 27  1  0  0  0  0
 28 30  1  0  0  0  0
 28  1  1  0  0  0  0
 30 29  1  1  0  0  0
 31 37  1  1  0  0  0
 32 31  1  0  0  0  0
 33 36  1  0  0  0  0
 34 30  1  6  0  0  0
 34 33  1  0  0  0  0
 34 32  1  0  0  0  0
 36 31  1  0  0  0  0
 36 35  1  1  0  0  0
 37 38  1  0  0  0  0
 39 40  1  1  0  0  0
 39 30  1  0  0  0  0
 41 40  1  0  0  0  0
 42 43  2  0  0  0  0
 42 39  1  0  0  0  0
 44 42  1  0  0  0  0
 45 47  1  0  0  0  0
 45 44  1  0  0  0  0
 46 47  1  0  0  0  0
 47 48  1  0  0  0  0
 48 53  1  6  0  0  0
 50 46  1  0  0  0  0
 50 51  1  0  0  0  0
 51 49  1  1  0  0  0
 51 48  1  0  0  0  0
 53 52  1  0  0  0  0
M  END
>  <MODEL>
6

>  <REMARK>
 VINA RESULT:      -6.4      1.783      2.559
  Name = 
  22 active torsions:
  status: ('A' for Active; 'I' for Inactive)
    1  A    between atoms: C_3  and  C_18
    2  A    between atoms: C_3  and  C_25
    3  A    between atoms: C_4  and  C_18
    4  A    between atoms: C_4  and  N_51
    5  A    between atoms: C_5  and  C_16
    6  A    between atoms: C_5  and  C_24
    7  A    between atoms: C_6  and  C_13
    8  A    between atoms: N_7  and  C_21
    9  A    between atoms: C_9  and  O_35
   10  A    between atoms: C_9  and  C_48
   11  A    between atoms: C_10  and  O_29
   12  A    between atoms: C_16  and  C_31
   13  A    between atoms: C_16  and  O_45
   14  A    between atoms: C_17  and  C_39
   15  A    between atoms: C_20  and  N_51
   16  A    between atoms: C_21  and  O_35
   17  A    between atoms: C_22  and  C_48
   18  A    between atoms: C_24  and  C_34
   19  A    between atoms: C_25  and  O_45
   20  A    between atoms: C_28  and  C_34
   21  A    between atoms: C_33  and  C_41
   22  A    between atoms: C_34  and  C_48
                            x       y       z     vdW  Elec       q    Type
                         _______ _______ _______ _____ _____    ______ ____

>  <TORSDO>
F 22

$$$$
=
 OpenBabel11062413563D

 53 56  0  0  1  0  0  0  0  0999 V2000
  187.6970  178.0440  140.1310 C   0  0  0  0  0  2  0  0  0  0  0  0
  186.9770  178.0180  138.7890 C   0  0  1  0  0  3  0  0  0  0  0  0
  183.1860  178.0070  137.9850 C   0  0  2  0  0  3  0  0  0  0  0  0
  184.6600  177.7580  137.9660 C   0  0  0  0  0  3  0  0  0  0  0  0
  183.8420  178.9550  140.6790 C   0  0  0  0  0  3  0  0  0  0  0  0
  184.9780  179.1070  139.9930 C   0  0  0  0  0  3  0  0  0  0  0  0
  185.4820  178.1990  138.9330 C   0  0  0  0  0  0  0  0  0  0  0  0
  181.1440  176.6720  138.9840 C   0  0  1  0  0  3  0  0  0  0  0  0
  182.3640  175.7780  139.1870 C   0  0  2  0  0  3  0  0  0  0  0  0
  180.2810  176.6620  140.2420 C   0  0  0  0  0  1  0  0  0  0  0  0
  182.9300  177.7600  140.6040 C   0  0  0  0  0  2  0  0  0  0  0  0
  182.5230  177.3020  139.1930 C   0  0  1  0  0  0  0  0  0  0  0  0
  183.0680  177.1990  135.7200 O   0  0  0  0  0  0  0  0  0  0  0  0
  182.5220  177.8550  136.6450 C   0  0  0  0  0  0  0  0  0  0  0  0
  181.2850  178.4470  136.4230 O   0  0  0  0  0  1  0  0  0  0  0  0
  181.5670  174.2030  137.4430 C   0  0  0  0  0  1  0  0  0  0  0  0
  182.7170  175.0860  137.8800 C   0  0  0  0  0  2  0  0  0  0  0  0
  187.5220  179.0030  137.9540 O   0  0  0  0  0  0  0  0  0  0  0  0
  187.6950  178.3820  136.7160 C   0  0  0  0  0  2  0  0  0  0  0  0
  189.1270  177.9020  136.5970 C   0  0  0  0  0  2  0  0  0  0  0  0
  190.0650  177.0620  134.6070 O   0  0  0  0  0  0  0  0  0  0  0  0
  189.2580  176.8940  135.5060 C   0  0  0  0  0  0  0  0  0  0  0  0
  188.3410  175.7120  135.4880 C   0  0  0  0  0  2  0  0  0  0  0  0
  187.0890  174.7220  137.1900 C   0  0  0  0  0  1  0  0  0  0  0  0
  188.4500  174.9730  136.7350 N   0  0  0  0  0  0  0  0  0  0  0  0
  189.0260  173.6790  136.3970 C   0  0  0  0  0  2  0  0  0  0  0  0
  188.3630  173.1390  135.1430 C   0  0  0  0  0  1  0  0  0  0  0  0
  189.1480  178.4860  139.9660 C   0  0  0  0  0  2  0  0  0  0  0  0
  189.7030  176.0410  140.0510 C   0  0  0  0  0  1  0  0  0  0  0  0
  190.1980  177.4440  140.4070 C   0  0  1  0  0  0  0  0  0  0  0  0
  193.0540  176.4870  138.5380 C   0  0  2  0  0  3  0  0  0  0  0  0
  191.7440  176.9930  138.5510 O   0  0  0  0  0  0  0  0  0  0  0  0
  192.7670  177.4380  140.6580 C   0  0  0  0  0  2  0  0  0  0  0  0
  191.5820  177.6980  139.7610 C   0  0  2  0  0  3  0  0  0  0  0  0
  194.6830  176.1250  140.2180 O   0  0  0  0  0  1  0  0  0  0  0  0
  193.8300  177.0850  139.6800 C   0  0  1  0  0  3  0  0  0  0  0  0
  193.6710  176.7860  137.3230 O   0  0  0  0  0  0  0  0  0  0  0  0
  193.5100  175.6430  136.5510 C   0  0  0  0  0  1  0  0  0  0  0  0
  190.3090  177.5220  141.9510 C   0  0  2  0  0  3  0  0  0  0  0  0
  191.7030  177.8990  142.4490 C   0  0  0  0  0  2  0  0  0  0  0  0
  191.6090  178.5510  143.8100 C   0  0  0  0  0  1  0  0  0  0  0  0
  189.7800  176.3110  142.6550 C   0  0  0  0  0  0  0  0  0  0  0  0
  190.5440  175.3210  142.8180 O   0  0  0  0  0  0  0  0  0  0  0  0
  188.4890  176.3040  143.1770 O   0  0  0  0  0  0  0  0  0  0  0  0
  188.0240  177.3510  144.0220 C   0  0  0  0  0  2  0  0  0  0  0  0
  185.7440  177.9160  143.6860 C   0  0  0  0  0  2  0  0  0  0  0  0
  186.6560  177.1040  144.4960 N   0  0  0  0  0  0  0  0  0  0  0  0
  186.4180  177.5030  145.8940 C   0  0  2  0  0  3  0  0  0  0  0  0
  184.9140  179.0190  146.9590 O   0  0  0  0  0  1  0  0  0  0  0  0
  185.0360  178.9180  144.5930 C   0  0  0  0  0  2  0  0  0  0  0  0
  185.8010  178.8850  145.8890 C   0  0  2  0  0  3  0  0  0  0  0  0
  187.6660  178.5290  147.6690 O   0  0  0  0  0  1  0  0  0  0  0  0
  187.6370  177.4200  146.8200 C   0  0  0  0  0  2  0  0  0  0  0  0
  2  7  1  0  0  0  0
  2  1  1  1  0  0  0
  3 14  1  6  0  0  0
  3 12  1  0  0  0  0
  4  3  1  0  0  0  0
  4  7  2  0  0  0  0
  6  5  2  0  0  0  0
  7  6  1  0  0  0  0
  8  9  1  0  0  0  0
  8 12  1  0  0  0  0
  8 10  1  1  0  0  0
  9 17  1  6  0  0  0
  9 12  1  0  0  0  0
 11  5  1  0  0  0  0
 12 11  1  1  0  0  0
 13 14  2  0  0  0  0
 15 14  1  0  0  0  0
 16 17  1  0  0  0  0
 18  2  1  0  0  0  0
 19 18  1  0  0  0  0
 20 19  1  0  0  0  0
 21 22  2  0  0  0  0
 22 20  1  0  0  0  0
 23 22  1  0  0  0  0
 23 25  1  0  0  0  0
 25 24  1  0  0  0  0
 26 25  1  0  0  0  0
 27 26  1  0  0  0  0
 28  1  1  0  0  0  0
 28 30  1  0  0  0  0
 30 29  1  6  0  0  0
 30 39  1  0  0  0  0
 31 37  1  6  0  0  0
 31 32  1  0  0  0  0
 31 36  1  0  0  0  0
 32 34  1  0  0  0  0
 34 30  1  1  0  0  0
 34 33  1  0  0  0  0
 36 35  1  1  0  0  0
 36 33  1  0  0  0  0
 38 37  1  0  0  0  0
 39 40  1  6  0  0  0
 39 42  1  0  0  0  0
 40 41  1  0  0  0  0
 42 43  2  0  0  0  0
 42 44  1  0  0  0  0
 44 45  1  0  0  0  0
 45 47  1  0  0  0  0
 46 47  1  0  0  0  0
 46 50  1  0  0  0  0
 47 48  1  0  0  0  0
 48 53  1  1  0  0  0
 50 51  1  0  0  0  0
 51 48  1  0  0  0  0
 51 49  1  1  0  0  0
 53 52  1  0  0  0  0
M  END
>  <MODEL>
7

>  <REMARK>
 VINA RESULT:      -6.0      2.609      9.302
  Name = 
  22 active torsions:
  status: ('A' for Active; 'I' for Inactive)
    1  A    between atoms: C_3  and  C_18
    2  A    between atoms: C_3  and  C_25
    3  A    between atoms: C_4  and  C_18
    4  A    between atoms: C_4  and  N_51
    5  A    between atoms: C_5  and  C_16
    6  A    between atoms: C_5  and  C_24
    7  A    between atoms: C_6  and  C_13
    8  A    between atoms: N_7  and  C_21
    9  A    between atoms: C_9  and  O_35
   10  A    between atoms: C_9  and  C_48
   11  A    between atoms: C_10  and  O_29
   12  A    between atoms: C_16  and  C_31
   13  A    between atoms: C_16  and  O_45
   14  A    between atoms: C_17  and  C_39
   15  A    between atoms: C_20  and  N_51
   16  A    between atoms: C_21  and  O_35
   17  A    between atoms: C_22  and  C_48
   18  A    between atoms: C_24  and  C_34
   19  A    between atoms: C_25  and  O_45
   20  A    between atoms: C_28  and  C_34
   21  A    between atoms: C_33  and  C_41
   22  A    between atoms: C_34  and  C_48
                            x       y       z     vdW  Elec       q    Type
                         _______ _______ _______ _____ _____    ______ ____

>  <TORSDO>
F 22

$$$$
=
 OpenBabel11062413563D

 53 56  0  0  1  0  0  0  0  0999 V2000
  190.8830  176.8570  137.8120 C   0  0  0  0  0  2  0  0  0  0  0  0
  190.5790  176.2800  136.4360 C   0  0  1  0  0  3  0  0  0  0  0  0
  194.0720  174.8970  135.4850 C   0  0  2  0  0  3  0  0  0  0  0  0
  192.9550  175.7130  136.0520 C   0  0  0  0  0  3  0  0  0  0  0  0
  191.8790  172.9930  135.1000 C   0  0  0  0  0  3  0  0  0  0  0  0
  191.2780  174.1860  135.1100 C   0  0  0  0  0  3  0  0  0  0  0  0
  191.6660  175.3480  135.9480 C   0  0  0  0  0  0  0  0  0  0  0  0
  195.5560  172.9470  136.4580 C   0  0  1  0  0  3  0  0  0  0  0  0
  194.6980  173.4360  137.6220 C   0  0  2  0  0  3  0  0  0  0  0  0
  195.5980  171.4220  136.4520 C   0  0  0  0  0  1  0  0  0  0  0  0
  192.9730  172.5580  136.0370 C   0  0  0  0  0  2  0  0  0  0  0  0
  194.1630  173.5210  136.1880 C   0  0  1  0  0  0  0  0  0  0  0  0
  195.4900  176.8250  135.7550 O   0  0  0  0  0  1  0  0  0  0  0  0
  195.3530  175.6630  135.2930 C   0  0  0  0  0  0  0  0  0  0  0  0
  196.4020  175.0770  134.5960 O   0  0  0  0  0  0  0  0  0  0  0  0
  196.0490  174.4260  139.4530 C   0  0  0  0  0  1  0  0  0  0  0  0
  195.2810  174.7240  138.1820 C   0  0  0  0  0  2  0  0  0  0  0  0
  189.3390  175.6270  136.4730 O   0  0  0  0  0  0  0  0  0  0  0  0
  188.5810  176.2190  135.4610 C   0  0  0  0  0  2  0  0  0  0  0  0
  187.6980  175.1680  134.8220 C   0  0  0  0  0  2  0  0  0  0  0  0
  185.8670  176.6120  135.1530 O   0  0  0  0  0  0  0  0  0  0  0  0
  186.2580  175.4590  135.0790 C   0  0  0  0  0  0  0  0  0  0  0  0
  185.3130  174.3230  135.3140 C   0  0  0  0  0  2  0  0  0  0  0  0
  183.6240  174.1820  136.9190 C   0  0  0  0  0  1  0  0  0  0  0  0
  185.0700  174.1600  136.7380 N   0  0  0  0  0  0  0  0  0  0  0  0
  185.5170  172.8160  137.0800 C   0  0  0  0  0  2  0  0  0  0  0  0
  186.9960  172.8440  137.4180 C   0  0  0  0  0  1  0  0  0  0  0  0
  189.7730  176.5230  138.8040 C   0  0  0  0  0  2  0  0  0  0  0  0
  189.3610  178.9880  138.5870 C   0  0  0  0  0  1  0  0  0  0  0  0
  189.0760  177.7470  139.4360 C   0  0  1  0  0  0  0  0  0  0  0  0
  185.7110  178.0990  138.3780 C   0  0  2  0  0  3  0  0  0  0  0  0
  186.9130  177.3730  138.3330 O   0  0  0  0  0  0  0  0  0  0  0  0
  186.8300  178.6070  140.3710 C   0  0  0  0  0  2  0  0  0  0  0  0
  187.5490  177.5420  139.5790 C   0  0  2  0  0  3  0  0  0  0  0  0
  184.9040  179.8380  139.7680 O   0  0  0  0  0  1  0  0  0  0  0  0
  185.4630  178.5630  139.7880 C   0  0  1  0  0  3  0  0  0  0  0  0
  184.6540  177.3040  137.9360 O   0  0  0  0  0  0  0  0  0  0  0  0
  183.5510  178.1470  137.9330 C   0  0  0  0  0  1  0  0  0  0  0  0
  189.7170  177.9770  140.8280 C   0  0  2  0  0  3  0  0  0  0  0  0
  191.2260  177.7430  140.8560 C   0  0  0  0  0  2  0  0  0  0  0  0
  191.6720  177.4080  142.2610 C   0  0  0  0  0  1  0  0  0  0  0  0
  189.0240  177.2490  141.9380 C   0  0  0  0  0  0  0  0  0  0  0  0
  189.0960  175.9900  141.9760 O   0  0  0  0  0  0  0  0  0  0  0  0
  188.3680  177.9520  142.9440 O   0  0  0  0  0  0  0  0  0  0  0  0
  188.4310  177.5350  144.3040 C   0  0  0  0  0  2  0  0  0  0  0  0
  186.0940  177.8200  144.0170 C   0  0  0  0  0  2  0  0  0  0  0  0
  187.1130  177.1350  144.8140 N   0  0  0  0  0  0  0  0  0  0  0  0
  186.8610  177.5250  146.2130 C   0  0  2  0  0  3  0  0  0  0  0  0
  185.2120  178.8680  147.2940 O   0  0  0  0  0  1  0  0  0  0  0  0
  185.2920  178.7460  144.9280 C   0  0  0  0  0  2  0  0  0  0  0  0
  186.0850  178.8240  146.2050 C   0  0  2  0  0  3  0  0  0  0  0  0
  187.7250  177.4980  148.4520 O   0  0  0  0  0  1  0  0  0  0  0  0
  188.1020  177.6010  147.1100 C   0  0  0  0  0  2  0  0  0  0  0  0
  1 28  1  0  0  0  0
  2 18  1  0  0  0  0
  2  1  1  1  0  0  0
  3 14  1  1  0  0  0
  3  4  1  0  0  0  0
  3 12  1  0  0  0  0
  5  6  2  0  0  0  0
  5 11  1  0  0  0  0
  6  7  1  0  0  0  0
  7  4  2  0  0  0  0
  7  2  1  0  0  0  0
  8 10  1  1  0  0  0
  8  9  1  0  0  0  0
  9 17  1  6  0  0  0
 12 11  1  6  0  0  0
 12  8  1  0  0  0  0
 12  9  1  0  0  0  0
 14 13  1  0  0  0  0
 15 14  2  0  0  0  0
 17 16  1  0  0  0  0
 19 18  1  0  0  0  0
 20 22  1  0  0  0  0
 20 19  1  0  0  0  0
 22 21  2  0  0  0  0
 22 23  1  0  0  0  0
 23 25  1  0  0  0  0
 25 24  1  0  0  0  0
 25 26  1  0  0  0  0
 26 27  1  0  0  0  0
 28 30  1  0  0  0  0
 30 29  1  6  0  0  0
 30 39  1  0  0  0  0
 31 37  1  1  0  0  0
 31 36  1  0  0  0  0
 32 31  1  0  0  0  0
 32 34  1  0  0  0  0
 34 30  1  6  0  0  0
 34 33  1  0  0  0  0
 36 35  1  6  0  0  0
 36 33  1  0  0  0  0
 38 37  1  0  0  0  0
 39 40  1  6  0  0  0
 39 42  1  0  0  0  0
 40 41  1  0  0  0  0
 42 43  2  0  0  0  0
 42 44  1  0  0  0  0
 44 45  1  0  0  0  0
 45 47  1  0  0  0  0
 46 47  1  0  0  0  0
 46 50  1  0  0  0  0
 47 48  1  0  0  0  0
 48 53  1  1  0  0  0
 50 51  1  0  0  0  0
 51 48  1  0  0  0  0
 51 49  1  1  0  0  0
 53 52  1  0  0  0  0
M  END
>  <MODEL>
8

>  <REMARK>
 VINA RESULT:      -5.8      3.234      8.717
  Name = 
  22 active torsions:
  status: ('A' for Active; 'I' for Inactive)
    1  A    between atoms: C_3  and  C_18
    2  A    between atoms: C_3  and  C_25
    3  A    between atoms: C_4  and  C_18
    4  A    between atoms: C_4  and  N_51
    5  A    between atoms: C_5  and  C_16
    6  A    between atoms: C_5  and  C_24
    7  A    between atoms: C_6  and  C_13
    8  A    between atoms: N_7  and  C_21
    9  A    between atoms: C_9  and  O_35
   10  A    between atoms: C_9  and  C_48
   11  A    between atoms: C_10  and  O_29
   12  A    between atoms: C_16  and  C_31
   13  A    between atoms: C_16  and  O_45
   14  A    between atoms: C_17  and  C_39
   15  A    between atoms: C_20  and  N_51
   16  A    between atoms: C_21  and  O_35
   17  A    between atoms: C_22  and  C_48
   18  A    between atoms: C_24  and  C_34
   19  A    between atoms: C_25  and  O_45
   20  A    between atoms: C_28  and  C_34
   21  A    between atoms: C_33  and  C_41
   22  A    between atoms: C_34  and  C_48
                            x       y       z     vdW  Elec       q    Type
                         _______ _______ _______ _____ _____    ______ ____

>  <TORSDO>
F 22

$$$$
=
 OpenBabel11062413563D

 53 56  0  0  1  0  0  0  0  0999 V2000
  186.5270  177.9960  139.3070 C   0  0  0  0  0  2  0  0  0  0  0  0
  185.2940  178.8540  139.0500 C   0  0  1  0  0  3  0  0  0  0  0  0
  182.9560  176.7030  136.8300 C   0  0  2  0  0  3  0  0  0  0  0  0
  184.1370  177.4270  137.3960 C   0  0  0  0  0  3  0  0  0  0  0  0
  181.9410  177.1840  139.5360 C   0  0  0  0  0  3  0  0  0  0  0  0
  182.8320  178.1590  139.3440 C   0  0  0  0  0  3  0  0  0  0  0  0
  184.1070  178.0350  138.5930 C   0  0  0  0  0  0  0  0  0  0  0  0
  182.1250  174.2070  136.9930 C   0  0  1  0  0  3  0  0  0  0  0  0
  183.4850  174.2370  137.6840 C   0  0  2  0  0  3  0  0  0  0  0  0
  181.1470  173.3720  137.8130 C   0  0  0  0  0  1  0  0  0  0  0  0
  182.1250  175.7420  139.1480 C   0  0  0  0  0  2  0  0  0  0  0  0
  182.5890  175.4800  137.7040 C   0  0  1  0  0  0  0  0  0  0  0  0
  184.0940  176.6720  134.7080 O   0  0  0  0  0  1  0  0  0  0  0  0
  183.0210  176.4970  135.3420 C   0  0  0  0  0  0  0  0  0  0  0  0
  181.8790  176.1040  134.6560 O   0  0  0  0  0  0  0  0  0  0  0  0
  185.8410  173.6120  137.2170 C   0  0  0  0  0  1  0  0  0  0  0  0
  184.5910  174.2420  136.6400 C   0  0  0  0  0  2  0  0  0  0  0  0
  184.9870  179.5780  140.2100 O   0  0  0  0  0  0  0  0  0  0  0  0
  185.5670  178.8590  141.2580 C   0  0  0  0  0  2  0  0  0  0  0  0
  184.5210  178.6030  142.3230 C   0  0  0  0  0  2  0  0  0  0  0  0
  184.8360  180.0380  144.1640 O   0  0  0  0  0  0  0  0  0  0  0  0
  185.0500  178.9410  143.6750 C   0  0  0  0  0  0  0  0  0  0  0  0
  185.9040  177.9460  144.3960 C   0  0  0  0  0  2  0  0  0  0  0  0
  185.2510  178.3960  146.5910 C   0  0  0  0  0  1  0  0  0  0  0  0
  186.3650  178.5020  145.6580 N   0  0  0  0  0  0  0  0  0  0  0  0
  187.4080  177.6080  146.1440 C   0  0  0  0  0  2  0  0  0  0  0  0
  188.1320  178.2580  147.3090 C   0  0  0  0  0  1  0  0  0  0  0  0
  187.1440  177.5170  137.9960 C   0  0  0  0  0  2  0  0  0  0  0  0
  188.9760  179.2320  137.9770 C   0  0  0  0  0  1  0  0  0  0  0  0
  188.6680  177.7360  137.8790 C   0  0  1  0  0  0  0  0  0  0  0  0
  190.2040  177.3950  141.0550 C   0  0  2  0  0  3  0  0  0  0  0  0
  189.0450  177.2990  140.2670 O   0  0  0  0  0  0  0  0  0  0  0  0
  190.9580  177.0670  138.8630 C   0  0  0  0  0  2  0  0  0  0  0  0
  189.4560  176.9600  138.9620 C   0  0  2  0  0  3  0  0  0  0  0  0
  192.5050  177.6450  140.5540 O   0  0  0  0  0  1  0  0  0  0  0  0
  191.3800  176.8730  140.2750 C   0  0  1  0  0  3  0  0  0  0  0  0
  190.0420  176.6670  142.2350 O   0  0  0  0  0  0  0  0  0  0  0  0
  188.7340  176.9140  142.6290 C   0  0  0  0  0  1  0  0  0  0  0  0
  189.0960  177.2630  136.4670 C   0  0  2  0  0  3  0  0  0  0  0  0
  188.1020  177.6330  135.3670 C   0  0  0  0  0  2  0  0  0  0  0  0
  187.6490  176.3880  134.6380 C   0  0  0  0  0  1  0  0  0  0  0  0
  189.4750  175.8160  136.4040 C   0  0  0  0  0  0  0  0  0  0  0  0
  188.7330  174.9690  136.9730 O   0  0  0  0  0  0  0  0  0  0  0  0
  190.5900  175.4070  135.6780 O   0  0  0  0  0  0  0  0  0  0  0  0
  191.6940  174.7660  136.3100 C   0  0  0  0  0  2  0  0  0  0  0  0
  192.2020  172.5280  135.7090 C   0  0  0  0  0  2  0  0  0  0  0  0
  192.4520  173.9310  135.3690 N   0  0  0  0  0  0  0  0  0  0  0  0
  193.9120  174.1100  135.4420 C   0  0  2  0  0  3  0  0  0  0  0  0
  195.7480  172.6520  135.8900 O   0  0  0  0  0  1  0  0  0  0  0  0
  193.5180  171.8780  136.1240 C   0  0  0  0  0  2  0  0  0  0  0  0
  194.4750  173.0210  136.3300 C   0  0  2  0  0  3  0  0  0  0  0  0
  194.6580  175.5150  137.2400 O   0  0  0  0  0  1  0  0  0  0  0  0
  194.3850  175.5040  135.8690 C   0  0  0  0  0  2  0  0  0  0  0  0
  2  1  1  1  0  0  0
  2 18  1  0  0  0  0
  3 14  1  6  0  0  0
  3  4  1  0  0  0  0
  3 12  1  0  0  0  0
  4  7  2  0  0  0  0
  6  5  2  0  0  0  0
  7  2  1  0  0  0  0
  7  6  1  0  0  0  0
  8  9  1  0  0  0  0
  8 12  1  0  0  0  0
  8 10  1  1  0  0  0
  9 17  1  6  0  0  0
  9 12  1  0  0  0  0
 11  5  1  0  0  0  0
 12 11  1  1  0  0  0
 13 14  1  0  0  0  0
 15 14  2  0  0  0  0
 17 16  1  0  0  0  0
 18 19  1  0  0  0  0
 19 20  1  0  0  0  0
 20 22  1  0  0  0  0
 22 21  2  0  0  0  0
 22 23  1  0  0  0  0
 23 25  1  0  0  0  0
 25 26  1  0  0  0  0
 25 24  1  0  0  0  0
 26 27  1  0  0  0  0
 28  1  1  0  0  0  0
 30 29  1  1  0  0  0
 30 28  1  0  0  0  0
 31 37  1  1  0  0  0
 32 31  1  0  0  0  0
 33 34  1  0  0  0  0
 33 36  1  0  0  0  0
 34 30  1  6  0  0  0
 34 32  1  0  0  0  0
 36 35  1  1  0  0  0
 36 31  1  0  0  0  0
 37 38  1  0  0  0  0
 39 40  1  6  0  0  0
 39 30  1  0  0  0  0
 41 40  1  0  0  0  0
 42 39  1  0  0  0  0
 42 43  2  0  0  0  0
 44 45  1  0  0  0  0
 44 42  1  0  0  0  0
 46 50  1  0  0  0  0
 47 48  1  0  0  0  0
 47 46  1  0  0  0  0
 47 45  1  0  0  0  0
 48 53  1  1  0  0  0
 48 51  1  0  0  0  0
 50 51  1  0  0  0  0
 51 49  1  6  0  0  0
 53 52  1  0  0  0  0
M  END
>  <MODEL>
9

>  <REMARK>
 VINA RESULT:      -5.5      2.830      8.767
  Name = 
  22 active torsions:
  status: ('A' for Active; 'I' for Inactive)
    1  A    between atoms: C_3  and  C_18
    2  A    between atoms: C_3  and  C_25
    3  A    between atoms: C_4  and  C_18
    4  A    between atoms: C_4  and  N_51
    5  A    between atoms: C_5  and  C_16
    6  A    between atoms: C_5  and  C_24
    7  A    between atoms: C_6  and  C_13
    8  A    between atoms: N_7  and  C_21
    9  A    between atoms: C_9  and  O_35
   10  A    between atoms: C_9  and  C_48
   11  A    between atoms: C_10  and  O_29
   12  A    between atoms: C_16  and  C_31
   13  A    between atoms: C_16  and  O_45
   14  A    between atoms: C_17  and  C_39
   15  A    between atoms: C_20  and  N_51
   16  A    between atoms: C_21  and  O_35
   17  A    between atoms: C_22  and  C_48
   18  A    between atoms: C_24  and  C_34
   19  A    between atoms: C_25  and  O_45
   20  A    between atoms: C_28  and  C_34
   21  A    between atoms: C_33  and  C_41
   22  A    between atoms: C_34  and  C_48
                            x       y       z     vdW  Elec       q    Type
                         _______ _______ _______ _____ _____    ______ ____

>  <TORSDO>
F 22

$$$$
