=
 OpenBabel11062412003D

 64 70  0  0  1  0  0  0  0  0999 V2000
  183.4660  177.9850  138.3080 C   0  0  2  0  0  3  0  0  0  0  0  0
  179.4110  177.7040  136.7230 C   0  0  0  0  0  2  0  0  0  0  0  0
  182.9730  182.3510  138.2740 N   0  0  0  0  0  2  0  0  0  0  0  0
  180.7860  181.5020  137.9140 C   0  0  1  0  0  3  0  0  0  0  0  0
  181.6470  182.7290  138.0850 C   0  0  0  0  0  0  0  0  0  0  0  0
  181.1390  179.0520  138.0860 C   0  0  2  0  0  3  0  0  0  0  0  0
  181.3790  176.5780  137.6920 C   0  0  0  0  0  2  0  0  0  0  0  0
  181.2750  183.8550  138.4960 O   0  0  0  0  0  0  0  0  0  0  0  0
  182.9080  181.0020  138.6560 C   0  0  0  0  0  2  0  0  0  0  0  0
  182.0760  177.9370  137.6140 C   0  0  2  0  0  3  0  0  0  0  0  0
  178.9450  182.4830  136.8930 O   0  0  0  0  0  1  0  0  0  0  0  0
  182.2530  180.4030  136.4530 O   0  0  0  0  0  1  0  0  0  0  0  0
  179.6450  178.8970  137.5980 C   0  0  1  0  0  3  0  0  0  0  0  0
  180.1690  176.6140  136.8130 C   0  0  1  0  0  3  0  0  0  0  0  0
  179.7840  181.3950  136.8210 C   0  0  2  0  0  3  0  0  0  0  0  0
  181.8210  180.4230  137.7560 C   0  0  2  0  0  0  0  0  0  0  0  0
  178.9440  180.1400  137.0030 C   0  0  0  0  0  2  0  0  0  0  0  0
  179.4620  175.3930  136.2820 C   0  0  0  0  0  2  0  0  0  0  0  0
  179.4760  174.1720  137.2080 C   0  0  0  0  0  0  0  0  0  0  0  0
  179.0120  174.2840  138.3480 O   0  0  0  0  0  0  0  0  0  0  0  0
  180.1000  172.8610  136.7600 C   0  0  0  0  0  2  0  0  0  0  0  0
  179.8400  171.8030  137.6510 O   0  0  0  0  0  1  0  0  0  0  0  0
  186.0500  175.7210  137.1910 C   0  0  2  0  0  3  0  0  0  0  0  0
  184.6320  176.3890  135.4950 O   0  0  0  0  0  0  0  0  0  0  0  0
  184.6830  176.3110  136.8710 C   0  0  2  0  0  3  0  0  0  0  0  0
  186.7140  176.6390  138.2420 C   0  0  2  0  0  3  0  0  0  0  0  0
  185.9330  177.9190  138.0710 C   0  0  0  0  0  0  0  0  0  0  0  0
  184.6500  177.7170  137.3800 C   0  0  2  0  0  3  0  0  0  0  0  0
  186.2590  178.9830  138.6590 O   0  0  0  0  0  0  0  0  0  0  0  0
  185.6790  175.5970  135.0780 C   0  0  0  0  0  2  0  0  0  0  0  0
  186.7550  175.7540  135.9750 O   0  0  0  0  0  0  0  0  0  0  0  0
  189.4480  175.6050  138.0470 O   0  0  0  0  0  0  0  0  0  0  0  0
  188.5950  176.8690  138.2010 P   0  0  1  0  0  0  0  0  0  0  0  0
  189.6970  177.1250  135.9280 C   0  0  0  0  0  1  0  0  0  0  0  0
  188.9040  177.8540  136.8460 O   0  0  0  0  0  0  0  0  0  0  0  0
  188.9760  177.5570  139.7300 O   0  0  0  0  0  0  0  0  0  0  0  0
  189.8130  176.6780  140.4900 C   0  0  1  0  0  3  0  0  0  0  0  0
  191.2420  177.1420  140.3640 C   0  0  0  0  0  0  0  0  0  0  0  0
  191.8840  177.2620  139.0620 N   0  0  0  0  0  2  0  0  0  0  0  0
  191.8120  177.6200  141.3760 O   0  0  0  0  0  0  0  0  0  0  0  0
  192.4360  175.0690  137.5030 O   0  0  0  0  0  0  0  0  0  0  0  0
  193.1950  176.8520  138.8140 N   0  0  0  0  0  2  0  0  0  0  0  0
  193.4450  175.6780  138.0510 C   0  0  0  0  0  0  0  0  0  0  0  0
  195.2800  174.0960  138.9080 C   0  0  0  0  0  3  0  0  0  0  0  0
  194.7380  174.9770  137.9730 C   0  0  0  0  0  0  0  0  0  0  0  0
  195.6290  175.0940  136.9640 N   0  0  0  0  0  0  0  0  0  0  0  0
  196.4580  173.6560  138.4440 N   0  0  0  0  0  2  0  0  0  0  0  0
  196.6460  174.2710  137.2440 C   0  0  0  0  0  3  0  0  0  0  0  0
  189.4620  176.8160  142.0210 C   0  0  2  0  0  3  0  0  0  0  0  0
  188.4850  175.9230  142.5520 O   0  0  0  0  0  1  0  0  0  0  0  0
  189.5830  178.2060  142.7630 C   0  0  0  0  0  2  0  0  0  0  0  0
  189.5520  177.9240  144.2350 C   0  0  0  0  0  1  0  0  0  0  0  0
  182.5600  176.1150  140.1550 O   0  0  0  0  0  0  0  0  0  0  0  0
  183.6560  177.2680  139.9930 S   0  0  2  0  0  0  0  0  0  0  0  0
  183.1900  178.5190  141.1460 C   0  0  1  0  0  3  0  0  0  0  0  0
  180.2930  179.0420  141.6780 C   0  0  0  0  0  0  0  0  0  0  0  0
  181.4470  178.7770  142.5700 O   0  0  0  0  0  0  0  0  0  0  0  0
  181.6340  178.2900  141.2930 C   0  0  2  0  0  3  0  0  0  0  0  0
  179.2740  178.5940  142.4870 F   0  0  0  0  0  0  0  0  0  0  0  0
  180.2080  180.3930  141.1020 F   0  0  0  0  0  0  0  0  0  0  0  0
  184.1560  178.1540  142.4100 C   0  0  0  0  0  2  0  0  0  0  0  0
  185.0920  179.1480  143.0700 C   0  0  0  0  0  2  0  0  0  0  0  0
  185.8410  178.2360  144.1960 C   0  0  0  0  0  2  0  0  0  0  0  0
  185.3840  178.4800  145.5870 F   0  0  0  0  0  0  0  0  0  0  0  0
  1 54  1  1  0  0  0
  2 14  1  0  0  0  0
  2 13  1  0  0  0  0
  3  9  1  0  0  0  0
  4  5  1  6  0  0  0
  5  3  1  0  0  0  0
  5  8  2  0  0  0  0
 10  7  1  0  0  0  0
 10  6  1  0  0  0  0
 10  1  1  0  0  0  0
 12 16  1  0  0  0  0
 13  6  1  0  0  0  0
 14  7  1  0  0  0  0
 15 11  1  0  0  0  0
 15 17  1  0  0  0  0
 15  4  1  0  0  0  0
 16  4  1  0  0  0  0
 16  6  1  0  0  0  0
 16  9  1  0  0  0  0
 17 13  1  0  0  0  0
 18 14  1  0  0  0  0
 18 19  1  0  0  0  0
 19 20  2  0  0  0  0
 21 19  1  0  0  0  0
 21 22  1  0  0  0  0
 23 26  1  0  0  0  0
 24 25  1  0  0  0  0
 25 23  1  0  0  0  0
 25 28  1  0  0  0  0
 27 26  1  0  0  0  0
 27 29  2  0  0  0  0
 28 27  1  0  0  0  0
 28  1  1  0  0  0  0
 30 24  1  0  0  0  0
 30 31  1  0  0  0  0
 31 23  1  0  0  0  0
 32 33  2  0  0  0  0
 33 26  1  0  0  0  0
 33 36  1  0  0  0  0
 34 35  1  0  0  0  0
 35 33  1  0  0  0  0
 36 37  1  0  0  0  0
 37 49  1  0  0  0  0
 38 37  1  0  0  0  0
 38 40  2  0  0  0  0
 39 38  1  0  0  0  0
 41 43  2  0  0  0  0
 42 39  1  0  0  0  0
 43 42  1  0  0  0  0
 45 43  1  0  0  0  0
 45 44  2  0  0  0  0
 46 48  2  0  0  0  0
 46 45  1  0  0  0  0
 47 44  1  0  0  0  0
 48 47  1  0  0  0  0
 49 50  1  0  0  0  0
 49 51  1  0  0  0  0
 51 52  1  0  0  0  0
 54 53  2  0  0  0  0
 54 55  1  0  0  0  0
 55 58  1  0  0  0  0
 55 61  1  0  0  0  0
 56 59  1  0  0  0  0
 56 57  1  0  0  0  0
 58 56  1  0  0  0  0
 58 57  1  0  0  0  0
 60 56  1  0  0  0  0
 61 62  1  0  0  0  0
 62 63  1  0  0  0  0
 63 64  1  0  0  0  0
M  END
>  <MODEL>
1

>  <REMARK>
 VINA RESULT:      -4.7      0.000      0.000
  Name = 
  20 active torsions:
  status: ('A' for Active; 'I' for Inactive)
    1  A    between atoms: C_1  and  C_60
    2  A    between atoms: C_1  and  C_61
    3  A    between atoms: C_2  and  C_40
    4  A    between atoms: C_2  and  C_53
    5  A    between atoms: C_4  and  C_16
    6  A    between atoms: C_16  and  C_37
    7  A    between atoms: C_16  and  O_56
    8  A    between atoms: C_18  and  P_49
    9  A    between atoms: N_19  and  N_32
   10  A    between atoms: C_20  and  C_37
   11  A    between atoms: C_21  and  C_52
   12  A    between atoms: C_22  and  C_40
   13  A    between atoms: C_23  and  C_33
   14  A    between atoms: C_23  and  C_42
   15  A    between atoms: C_23  and  S_63
   16  A    between atoms: C_27  and  C_61
   17  A    between atoms: C_28  and  C_60
   18  A    between atoms: P_49  and  O_56
   19  A    between atoms: P_49  and  O_64
   20  A    between atoms: C_60  and  S_63
                            x       y       z     vdW  Elec       q    Type
                         _______ _______ _______ _____ _____    ______ ____

>  <TORSDO>
F 20

$$$$
=
 OpenBabel11062412003D

 64 70  0  0  1  0  0  0  0  0999 V2000
  182.1340  177.7240  137.7830 C   0  0  2  0  0  3  0  0  0  0  0  0
  185.4920  175.5950  135.9860 C   0  0  0  0  0  2  0  0  0  0  0  0
  179.9750  173.8970  137.8210 N   0  0  0  0  0  2  0  0  0  0  0  0
  182.2210  173.3080  137.3300 C   0  0  1  0  0  3  0  0  0  0  0  0
  180.8150  172.8170  137.5720 C   0  0  0  0  0  0  0  0  0  0  0  0
  183.3790  175.4980  137.4650 C   0  0  2  0  0  3  0  0  0  0  0  0
  184.6120  177.6490  137.0300 C   0  0  0  0  0  2  0  0  0  0  0  0
  180.4800  171.6810  137.9890 O   0  0  0  0  0  0  0  0  0  0  0  0
  180.8380  174.9470  138.1690 C   0  0  0  0  0  2  0  0  0  0  0  0
  183.2480  176.9570  137.0170 C   0  0  2  0  0  3  0  0  0  0  0  0
  183.0800  171.4470  136.2370 O   0  0  0  0  0  1  0  0  0  0  0  0
  181.5970  175.0760  135.9230 O   0  0  0  0  0  1  0  0  0  0  0  0
  184.6510  174.7550  136.8980 C   0  0  1  0  0  3  0  0  0  0  0  0
  185.5210  176.9220  136.0900 C   0  0  1  0  0  3  0  0  0  0  0  0
  183.0340  172.8210  136.1850 C   0  0  2  0  0  3  0  0  0  0  0  0
  182.0070  174.7910  137.2020 C   0  0  2  0  0  0  0  0  0  0  0  0
  184.4580  173.3440  136.2950 C   0  0  0  0  0  2  0  0  0  0  0  0
  186.7790  177.5030  135.4970 C   0  0  0  0  0  2  0  0  0  0  0  0
  188.0480  177.3170  136.3350 C   0  0  0  0  0  0  0  0  0  0  0  0
  188.8250  176.4010  136.0430 O   0  0  0  0  0  0  0  0  0  0  0  0
  188.3230  178.1990  137.5410 C   0  0  0  0  0  2  0  0  0  0  0  0
  188.8340  179.4610  137.1850 O   0  0  0  0  0  1  0  0  0  0  0  0
  181.4540  178.8410  141.1510 C   0  0  2  0  0  3  0  0  0  0  0  0
  180.1030  177.0900  140.4850 O   0  0  0  0  0  0  0  0  0  0  0  0
  180.9020  178.0800  139.9520 C   0  0  2  0  0  3  0  0  0  0  0  0
  182.9860  178.9320  140.9730 C   0  0  2  0  0  3  0  0  0  0  0  0
  183.2500  177.8140  139.9950 C   0  0  0  0  0  0  0  0  0  0  0  0
  182.0410  177.3910  139.2710 C   0  0  2  0  0  3  0  0  0  0  0  0
  184.4180  177.4580  139.6890 O   0  0  0  0  0  0  0  0  0  0  0  0
  179.9250  177.4750  141.7950 C   0  0  0  0  0  2  0  0  0  0  0  0
  181.1210  178.0530  142.2670 O   0  0  0  0  0  0  0  0  0  0  0  0
  184.6100  180.2340  143.0350 O   0  0  0  0  0  0  0  0  0  0  0  0
  184.0910  178.8900  142.5130 P   0  0  1  0  0  0  0  0  0  0  0  0
  183.3290  178.9480  144.9340 C   0  0  0  0  0  1  0  0  0  0  0  0
  183.1310  178.2080  143.7440 O   0  0  0  0  0  0  0  0  0  0  0  0
  185.4600  177.9670  142.0330 O   0  0  0  0  0  0  0  0  0  0  0  0
  186.6450  178.4340  142.6890 C   0  0  1  0  0  3  0  0  0  0  0  0
  186.8730  177.6020  143.9260 C   0  0  0  0  0  0  0  0  0  0  0  0
  187.2840  178.2150  145.1810 N   0  0  0  0  0  2  0  0  0  0  0  0
  186.5080  176.4000  143.9190 O   0  0  0  0  0  0  0  0  0  0  0  0
  189.9650  178.5550  144.6920 O   0  0  0  0  0  0  0  0  0  0  0  0
  188.2560  177.6670  146.0190 N   0  0  0  0  0  2  0  0  0  0  0  0
  189.6360  177.8110  145.7050 C   0  0  0  0  0  0  0  0  0  0  0  0
  191.0520  176.9650  147.6750 C   0  0  0  0  0  3  0  0  0  0  0  0
  190.7310  177.0410  146.3200 C   0  0  0  0  0  0  0  0  0  0  0  0
  191.6250  176.2830  145.6490 N   0  0  0  0  0  0  0  0  0  0  0  0
  192.0970  176.1360  147.8170 N   0  0  0  0  0  2  0  0  0  0  0  0
  192.4230  175.7190  146.5630 C   0  0  0  0  0  3  0  0  0  0  0  0
  187.8950  178.1630  141.7660 C   0  0  2  0  0  3  0  0  0  0  0  0
  187.8500  178.6760  140.4360 O   0  0  0  0  0  1  0  0  0  0  0  0
  188.7930  176.8790  141.9670 C   0  0  0  0  0  2  0  0  0  0  0  0
  189.9160  176.9680  140.9790 C   0  0  0  0  0  1  0  0  0  0  0  0
  180.6350  177.5070  135.4530 O   0  0  0  0  0  0  0  0  0  0  0  0
  180.5050  177.9930  136.9710 S   0  0  2  0  0  0  0  0  0  0  0  0
  180.2470  179.7350  136.8820 C   0  0  1  0  0  3  0  0  0  0  0  0
  181.8960  181.4940  138.6540 C   0  0  0  0  0  0  0  0  0  0  0  0
  181.4650  181.6110  137.2400 O   0  0  0  0  0  0  0  0  0  0  0  0
  181.4780  180.3080  137.6900 C   0  0  2  0  0  3  0  0  0  0  0  0
  183.0380  182.2600  138.6070 F   0  0  0  0  0  0  0  0  0  0  0  0
  180.8780  181.7880  139.6740 F   0  0  0  0  0  0  0  0  0  0  0  0
  180.1990  179.9630  135.2670 C   0  0  0  0  0  2  0  0  0  0  0  0
  179.3940  181.0580  134.5940 C   0  0  0  0  0  2  0  0  0  0  0  0
  178.9320  181.9850  135.8540 C   0  0  0  0  0  2  0  0  0  0  0  0
  179.5360  183.3400  135.8730 F   0  0  0  0  0  0  0  0  0  0  0  0
  1 54  1  6  0  0  0
  1 28  1  0  0  0  0
  2 14  1  0  0  0  0
  2 13  1  0  0  0  0
  3  9  1  0  0  0  0
  4  5  1  6  0  0  0
  5  3  1  0  0  0  0
  5  8  2  0  0  0  0
 10  7  1  0  0  0  0
 10  6  1  0  0  0  0
 10  1  1  0  0  0  0
 12 16  1  0  0  0  0
 13  6  1  0  0  0  0
 14  7  1  0  0  0  0
 15 11  1  0  0  0  0
 15 17  1  0  0  0  0
 15  4  1  0  0  0  0
 16  4  1  0  0  0  0
 16  6  1  0  0  0  0
 16  9  1  0  0  0  0
 17 13  1  0  0  0  0
 18 14  1  0  0  0  0
 18 19  1  0  0  0  0
 19 21  1  0  0  0  0
 20 19  2  0  0  0  0
 22 21  1  0  0  0  0
 23 31  1  0  0  0  0
 24 30  1  0  0  0  0
 25 24  1  0  0  0  0
 25 23  1  0  0  0  0
 26 23  1  0  0  0  0
 26 33  1  0  0  0  0
 27 26  1  0  0  0  0
 28 25  1  0  0  0  0
 28 27  1  0  0  0  0
 29 27  2  0  0  0  0
 30 31  1  0  0  0  0
 33 32  2  0  0  0  0
 33 35  1  0  0  0  0
 35 34  1  0  0  0  0
 36 33  1  0  0  0  0
 36 37  1  0  0  0  0
 37 38  1  0  0  0  0
 38 39  1  0  0  0  0
 39 42  1  0  0  0  0
 40 38  2  0  0  0  0
 41 43  2  0  0  0  0
 43 42  1  0  0  0  0
 43 45  1  0  0  0  0
 44 47  1  0  0  0  0
 45 44  2  0  0  0  0
 46 45  1  0  0  0  0
 46 48  2  0  0  0  0
 48 47  1  0  0  0  0
 49 51  1  0  0  0  0
 49 37  1  0  0  0  0
 50 49  1  0  0  0  0
 52 51  1  0  0  0  0
 53 54  2  0  0  0  0
 55 54  1  0  0  0  0
 55 58  1  0  0  0  0
 56 60  1  0  0  0  0
 57 58  1  0  0  0  0
 57 56  1  0  0  0  0
 58 56  1  0  0  0  0
 59 56  1  0  0  0  0
 61 55  1  0  0  0  0
 62 61  1  0  0  0  0
 62 63  1  0  0  0  0
 63 64  1  0  0  0  0
M  END
>  <MODEL>
2

>  <REMARK>
 VINA RESULT:      -4.5      3.633      7.570
  Name = 
  20 active torsions:
  status: ('A' for Active; 'I' for Inactive)
    1  A    between atoms: C_1  and  C_60
    2  A    between atoms: C_1  and  C_61
    3  A    between atoms: C_2  and  C_40
    4  A    between atoms: C_2  and  C_53
    5  A    between atoms: C_4  and  C_16
    6  A    between atoms: C_16  and  C_37
    7  A    between atoms: C_16  and  O_56
    8  A    between atoms: C_18  and  P_49
    9  A    between atoms: N_19  and  N_32
   10  A    between atoms: C_20  and  C_37
   11  A    between atoms: C_21  and  C_52
   12  A    between atoms: C_22  and  C_40
   13  A    between atoms: C_23  and  C_33
   14  A    between atoms: C_23  and  C_42
   15  A    between atoms: C_23  and  S_63
   16  A    between atoms: C_27  and  C_61
   17  A    between atoms: C_28  and  C_60
   18  A    between atoms: P_49  and  O_56
   19  A    between atoms: P_49  and  O_64
   20  A    between atoms: C_60  and  S_63
                            x       y       z     vdW  Elec       q    Type
                         _______ _______ _______ _____ _____    ______ ____

>  <TORSDO>
F 20

$$$$
=
 OpenBabel11062412003D

 64 70  0  0  1  0  0  0  0  0999 V2000
  182.4860  177.3450  139.6390 C   0  0  2  0  0  3  0  0  0  0  0  0
  182.2680  178.7530  135.5150 C   0  0  0  0  0  2  0  0  0  0  0  0
  180.4370  181.0510  140.8110 N   0  0  0  0  0  2  0  0  0  0  0  0
  180.2190  180.9730  138.4490 C   0  0  1  0  0  3  0  0  0  0  0  0
  179.8970  181.7220  139.7180 C   0  0  0  0  0  0  0  0  0  0  0  0
  181.2760  178.7970  137.8970 C   0  0  2  0  0  3  0  0  0  0  0  0
  182.7550  176.9250  137.0960 C   0  0  0  0  0  2  0  0  0  0  0  0
  178.9310  182.5020  139.9040 O   0  0  0  0  0  0  0  0  0  0  0  0
  180.6820  179.7510  140.3450 C   0  0  0  0  0  2  0  0  0  0  0  0
  182.5130  177.9480  138.2060 C   0  0  2  0  0  3  0  0  0  0  0  0
  179.8880  182.6850  136.9150 O   0  0  0  0  0  1  0  0  0  0  0  0
  182.4610  180.5620  138.9980 O   0  0  0  0  0  1  0  0  0  0  0  0
  181.1400  179.2220  136.3830 C   0  0  1  0  0  3  0  0  0  0  0  0
  182.9670  177.6610  135.8110 C   0  0  1  0  0  3  0  0  0  0  0  0
  180.7490  181.6650  137.2450 C   0  0  2  0  0  3  0  0  0  0  0  0
  181.2250  179.9670  138.9360 C   0  0  2  0  0  0  0  0  0  0  0  0
  180.8070  180.6990  136.0710 C   0  0  0  0  0  2  0  0  0  0  0  0
  183.6400  177.0780  134.5940 C   0  0  0  0  0  2  0  0  0  0  0  0
  185.0510  176.5270  134.8240 C   0  0  0  0  0  0  0  0  0  0  0  0
  185.9900  177.3230  134.9340 O   0  0  0  0  0  0  0  0  0  0  0  0
  185.3080  175.0300  134.8580 C   0  0  0  0  0  2  0  0  0  0  0  0
  184.6660  174.3930  135.9360 O   0  0  0  0  0  1  0  0  0  0  0  0
  185.3530  179.3360  140.5680 C   0  0  2  0  0  3  0  0  0  0  0  0
  184.1590  178.5590  142.3860 O   0  0  0  0  0  0  0  0  0  0  0  0
  184.0110  178.7850  141.0330 C   0  0  2  0  0  3  0  0  0  0  0  0
  185.7910  178.5050  139.3400 C   0  0  2  0  0  3  0  0  0  0  0  0
  184.9590  177.2570  139.4990 C   0  0  0  0  0  0  0  0  0  0  0  0
  183.8080  177.4470  140.3960 C   0  0  2  0  0  3  0  0  0  0  0  0
  185.1220  176.2480  138.7640 O   0  0  0  0  0  0  0  0  0  0  0  0
  185.3070  179.2450  142.7150 C   0  0  0  0  0  2  0  0  0  0  0  0
  186.2260  179.1320  141.6520 O   0  0  0  0  0  0  0  0  0  0  0  0
  188.0230  176.8110  138.4870 O   0  0  0  0  0  0  0  0  0  0  0  0
  187.6380  178.1760  139.0680 P   0  0  1  0  0  0  0  0  0  0  0  0
  188.5980  178.7120  136.7790 C   0  0  0  0  0  1  0  0  0  0  0  0
  188.1520  179.3590  137.9560 O   0  0  0  0  0  0  0  0  0  0  0  0
  188.3270  178.2750  140.6400 O   0  0  0  0  0  0  0  0  0  0  0  0
  189.0340  177.0710  140.9620 C   0  0  1  0  0  3  0  0  0  0  0  0
  190.5100  177.3120  140.7720 C   0  0  0  0  0  0  0  0  0  0  0  0
  191.0880  177.4410  139.4420 N   0  0  0  0  0  2  0  0  0  0  0  0
  191.2070  177.6050  141.7760 O   0  0  0  0  0  0  0  0  0  0  0  0
  191.4590  176.3600  136.9440 O   0  0  0  0  0  0  0  0  0  0  0  0
  192.2970  176.8510  139.0710 N   0  0  0  0  0  2  0  0  0  0  0  0
  192.4370  176.2480  137.7910 C   0  0  0  0  0  0  0  0  0  0  0  0
  194.1590  175.2720  136.1520 C   0  0  0  0  0  3  0  0  0  0  0  0
  193.5300  175.3430  137.3950 C   0  0  2  0  0  3  0  0  0  0  0  0
  194.0960  174.4080  138.1890 N   0  0  0  0  0  0  0  0  0  0  0  0
  195.1190  174.3380  136.2160 N   0  0  0  0  0  0  0  0  0  0  0  0
  195.0720  173.8310  137.4780 C   0  0  0  0  0  3  0  0  0  0  0  0
  188.8560  176.7560  142.4970 C   0  0  2  0  0  3  0  0  0  0  0  0
  188.4490  175.4360  142.8520 O   0  0  0  0  0  1  0  0  0  0  0  0
  188.4450  177.8890  143.5200 C   0  0  0  0  0  2  0  0  0  0  0  0
  187.6800  177.2270  144.6250 C   0  0  0  0  0  1  0  0  0  0  0  0
  182.3690  174.6010  139.2110 O   0  0  0  0  0  0  0  0  0  0  0  0
  181.5680  175.7780  139.9380 S   0  0  2  0  0  0  0  0  0  0  0  0
  180.0340  175.9000  139.0760 C   0  0  1  0  0  3  0  0  0  0  0  0
  179.8270  174.8490  136.2830 C   0  0  0  0  0  0  0  0  0  0  0  0
  178.9960  174.6540  137.4950 O   0  0  0  0  0  0  0  0  0  0  0  0
  180.2920  175.0230  137.7880 C   0  0  2  0  0  3  0  0  0  0  0  0
  179.5350  173.6810  135.6160 F   0  0  0  0  0  0  0  0  0  0  0  0
  179.6680  176.1320  135.5810 F   0  0  0  0  0  0  0  0  0  0  0  0
  178.9960  175.3420  140.2050 C   0  0  0  0  0  2  0  0  0  0  0  0
  179.3400  175.2130  141.6760 C   0  0  0  0  0  2  0  0  0  0  0  0
  179.2990  173.5990  141.9110 C   0  0  0  0  0  2  0  0  0  0  0  0
  179.9440  172.8060  140.8360 F   0  0  0  0  0  0  0  0  0  0  0  0
  1 54  1  6  0  0  0
  1 28  1  0  0  0  0
  2 14  1  0  0  0  0
  2 13  1  0  0  0  0
  4 16  1  0  0  0  0
  4  5  1  1  0  0  0
  5  8  2  0  0  0  0
  5  3  1  0  0  0  0
  6 10  1  0  0  0  0
  6 16  1  0  0  0  0
  7 10  1  0  0  0  0
  9  3  1  0  0  0  0
 10  1  1  0  0  0  0
 11 15  1  0  0  0  0
 13  6  1  0  0  0  0
 14  7  1  0  0  0  0
 15  4  1  0  0  0  0
 16 12  1  0  0  0  0
 16  9  1  0  0  0  0
 17 13  1  0  0  0  0
 17 15  1  0  0  0  0
 18 19  1  0  0  0  0
 18 14  1  0  0  0  0
 19 21  1  0  0  0  0
 19 20  2  0  0  0  0
 21 22  1  0  0  0  0
 23 25  1  0  0  0  0
 23 31  1  0  0  0  0
 24 30  1  0  0  0  0
 25 24  1  0  0  0  0
 26 27  1  0  0  0  0
 26 23  1  0  0  0  0
 27 28  1  0  0  0  0
 28 25  1  0  0  0  0
 29 27  2  0  0  0  0
 31 30  1  0  0  0  0
 32 33  2  0  0  0  0
 33 26  1  0  0  0  0
 33 36  1  0  0  0  0
 34 35  1  0  0  0  0
 35 33  1  0  0  0  0
 36 37  1  0  0  0  0
 37 49  1  0  0  0  0
 38 37  1  0  0  0  0
 38 40  2  0  0  0  0
 39 38  1  0  0  0  0
 41 43  2  0  0  0  0
 42 39  1  0  0  0  0
 43 42  1  0  0  0  0
 44 47  2  0  0  0  0
 44 45  1  0  0  0  0
 45 43  1  0  0  0  0
 45 46  1  0  0  0  0
 47 48  1  0  0  0  0
 48 46  2  0  0  0  0
 49 50  1  0  0  0  0
 49 51  1  0  0  0  0
 51 52  1  0  0  0  0
 53 54  2  0  0  0  0
 55 54  1  0  0  0  0
 55 61  1  0  0  0  0
 56 57  1  0  0  0  0
 56 58  1  0  0  0  0
 57 58  1  0  0  0  0
 58 55  1  0  0  0  0
 59 56  1  0  0  0  0
 60 56  1  0  0  0  0
 61 62  1  0  0  0  0
 62 63  1  0  0  0  0
 64 63  1  0  0  0  0
M  END
>  <MODEL>
3

>  <REMARK>
 VINA RESULT:      -3.8      2.436      4.163
  Name = 
  20 active torsions:
  status: ('A' for Active; 'I' for Inactive)
    1  A    between atoms: C_1  and  C_60
    2  A    between atoms: C_1  and  C_61
    3  A    between atoms: C_2  and  C_40
    4  A    between atoms: C_2  and  C_53
    5  A    between atoms: C_4  and  C_16
    6  A    between atoms: C_16  and  C_37
    7  A    between atoms: C_16  and  O_56
    8  A    between atoms: C_18  and  P_49
    9  A    between atoms: N_19  and  N_32
   10  A    between atoms: C_20  and  C_37
   11  A    between atoms: C_21  and  C_52
   12  A    between atoms: C_22  and  C_40
   13  A    between atoms: C_23  and  C_33
   14  A    between atoms: C_23  and  C_42
   15  A    between atoms: C_23  and  S_63
   16  A    between atoms: C_27  and  C_61
   17  A    between atoms: C_28  and  C_60
   18  A    between atoms: P_49  and  O_56
   19  A    between atoms: P_49  and  O_64
   20  A    between atoms: C_60  and  S_63
                            x       y       z     vdW  Elec       q    Type
                         _______ _______ _______ _____ _____    ______ ____

>  <TORSDO>
F 20

$$$$
=
 OpenBabel11062412003D

 64 70  0  0  1  0  0  0  0  0999 V2000
  189.8430  177.1750  137.5050 C   0  0  2  0  0  3  0  0  0  0  0  0
  188.8720  172.9650  136.8930 C   0  0  0  0  0  2  0  0  0  0  0  0
  193.9000  176.2470  136.0960 N   0  0  0  0  0  2  0  0  0  0  0  0
  192.6260  174.3210  135.5480 C   0  0  1  0  0  3  0  0  0  0  0  0
  193.9750  174.9940  135.4960 C   0  0  0  0  0  0  0  0  0  0  0  0
  190.3410  174.9870  136.2500 C   0  0  2  0  0  3  0  0  0  0  0  0
  188.1040  175.2580  137.3700 C   0  0  0  0  0  2  0  0  0  0  0  0
  194.8900  174.7740  134.6650 O   0  0  0  0  0  0  0  0  0  0  0  0
  192.5310  176.5500  136.1170 C   0  0  0  0  0  2  0  0  0  0  0  0
  189.5830  175.6450  137.4070 C   0  0  2  0  0  3  0  0  0  0  0  0
  193.2960  172.1220  135.2170 O   0  0  0  0  0  1  0  0  0  0  0  0
  192.1820  174.8900  137.7780 O   0  0  0  0  0  1  0  0  0  0  0  0
  189.9180  173.4940  135.9600 C   0  0  1  0  0  3  0  0  0  0  0  0
  187.9990  173.7710  137.4910 C   0  0  1  0  0  3  0  0  0  0  0  0
  192.4710  172.9090  135.9870 C   0  0  2  0  0  3  0  0  0  0  0  0
  191.8720  175.2250  136.4830 C   0  0  2  0  0  0  0  0  0  0  0  0
  191.0390  172.4470  135.7660 C   0  0  0  0  0  2  0  0  0  0  0  0
  186.7540  173.0340  137.9150 C   0  0  0  0  0  2  0  0  0  0  0  0
  185.6540  172.9380  136.8520 C   0  0  0  0  0  0  0  0  0  0  0  0
  184.8040  173.8340  136.7920 O   0  0  0  0  0  0  0  0  0  0  0  0
  185.5670  171.7380  135.9250 C   0  0  0  0  0  2  0  0  0  0  0  0
  184.3820  171.0010  136.1000 O   0  0  0  0  0  1  0  0  0  0  0  0
  190.9860  176.3340  140.8270 C   0  0  2  0  0  3  0  0  0  0  0  0
  192.5030  177.6090  139.6400 O   0  0  0  0  0  0  0  0  0  0  0  0
  191.4130  176.7890  139.4370 C   0  0  2  0  0  3  0  0  0  0  0  0
  189.4690  176.6020  140.9530 C   0  0  2  0  0  3  0  0  0  0  0  0
  189.2450  177.6250  139.8680 C   0  0  0  0  0  0  0  0  0  0  0  0
  190.3280  177.6500  138.8730 C   0  0  2  0  0  3  0  0  0  0  0  0
  188.1430  178.2180  139.7280 O   0  0  0  0  0  0  0  0  0  0  0  0
  192.8770  177.3510  140.9400 C   0  0  0  0  0  2  0  0  0  0  0  0
  191.7170  177.1440  141.7150 O   0  0  0  0  0  0  0  0  0  0  0  0
  188.8560  176.0600  143.7660 O   0  0  0  0  0  0  0  0  0  0  0  0
  188.7630  177.0970  142.6420 P   0  0  1  0  0  0  0  0  0  0  0  0
  190.0770  178.2650  144.4740 C   0  0  0  0  0  1  0  0  0  0  0  0
  189.6670  178.4540  143.1330 O   0  0  0  0  0  0  0  0  0  0  0  0
  187.0940  177.3770  142.3430 O   0  0  0  0  0  0  0  0  0  0  0  0
  186.6430  178.5500  143.0310 C   0  0  1  0  0  3  0  0  0  0  0  0
  185.3460  179.0060  142.4130 C   0  0  0  0  0  0  0  0  0  0  0  0
  184.2320  178.0860  142.2330 N   0  0  0  0  0  2  0  0  0  0  0  0
  185.1600  180.2370  142.2420 O   0  0  0  0  0  0  0  0  0  0  0  0
  181.5140  178.4710  142.3240 O   0  0  0  0  0  0  0  0  0  0  0  0
  183.4480  178.0500  141.0790 N   0  0  0  0  0  2  0  0  0  0  0  0
  182.0370  178.1940  141.1670 C   0  0  0  0  0  0  0  0  0  0  0  0
  180.4920  178.7690  139.1960 C   0  0  0  0  0  3  0  0  0  0  0  0
  181.0820  177.8770  140.0910 C   0  0  2  0  0  3  0  0  0  0  0  0
  180.6070  176.6450  139.8060 N   0  0  0  0  0  0  0  0  0  0  0  0
  179.7100  178.0740  138.3580 N   0  0  0  0  0  0  0  0  0  0  0  0
  179.8060  176.7710  138.7420 C   0  0  0  0  0  3  0  0  0  0  0  0
  186.2870  178.1760  144.5220 C   0  0  2  0  0  3  0  0  0  0  0  0
  186.1640  176.7910  144.8380 O   0  0  0  0  0  1  0  0  0  0  0  0
  185.4410  179.1560  145.4280 C   0  0  0  0  0  2  0  0  0  0  0  0
  185.4890  178.6150  146.8250 C   0  0  0  0  0  1  0  0  0  0  0  0
  188.5270  179.6210  137.6150 O   0  0  0  0  0  0  0  0  0  0  0  0
  188.6870  178.3390  136.6720 S   0  0  2  0  0  0  0  0  0  0  0  0
  187.0990  177.5730  136.6530 C   0  0  1  0  0  3  0  0  0  0  0  0
  184.9170  178.4840  138.4860 C   0  0  0  0  0  0  0  0  0  0  0  0
  185.3550  178.9330  137.1420 O   0  0  0  0  0  0  0  0  0  0  0  0
  186.3540  178.2930  137.8450 C   0  0  2  0  0  3  0  0  0  0  0  0
  184.3400  179.6490  138.9370 F   0  0  0  0  0  0  0  0  0  0  0  0
  184.1430  177.2350  138.5370 F   0  0  0  0  0  0  0  0  0  0  0  0
  186.6170  177.8900  135.1260 C   0  0  0  0  0  2  0  0  0  0  0  0
  185.2080  177.6460  134.6190 C   0  0  0  0  0  2  0  0  0  0  0  0
  185.0420  176.0330  134.7940 C   0  0  0  0  0  2  0  0  0  0  0  0
  183.6380  175.5540  134.7650 F   0  0  0  0  0  0  0  0  0  0  0  0
  1 54  1  1  0  0  0
  1 28  1  0  0  0  0
  2 14  1  0  0  0  0
  3  9  1  0  0  0  0
  4  5  1  1  0  0  0
  4 15  1  0  0  0  0
  4 16  1  0  0  0  0
  5  3  1  0  0  0  0
  6 16  1  0  0  0  0
  6 10  1  0  0  0  0
  7 10  1  0  0  0  0
  7 14  1  0  0  0  0
  8  5  2  0  0  0  0
  9 16  1  0  0  0  0
 10  1  1  0  0  0  0
 11 15  1  0  0  0  0
 13  6  1  0  0  0  0
 13  2  1  0  0  0  0
 14 18  1  0  0  0  0
 16 12  1  0  0  0  0
 17 13  1  0  0  0  0
 17 15  1  0  0  0  0
 19 18  1  0  0  0  0
 20 19  2  0  0  0  0
 21 22  1  0  0  0  0
 21 19  1  0  0  0  0
 23 26  1  0  0  0  0
 23 31  1  0  0  0  0
 24 30  1  0  0  0  0
 25 24  1  0  0  0  0
 25 23  1  0  0  0  0
 26 33  1  0  0  0  0
 27 26  1  0  0  0  0
 28 25  1  0  0  0  0
 28 27  1  0  0  0  0
 29 27  2  0  0  0  0
 30 31  1  0  0  0  0
 33 35  1  0  0  0  0
 33 32  2  0  0  0  0
 35 34  1  0  0  0  0
 36 33  1  0  0  0  0
 36 37  1  0  0  0  0
 37 49  1  0  0  0  0
 38 37  1  0  0  0  0
 39 38  1  0  0  0  0
 40 38  2  0  0  0  0
 42 43  1  0  0  0  0
 42 39  1  0  0  0  0
 43 41  2  0  0  0  0
 44 45  1  0  0  0  0
 45 43  1  0  0  0  0
 46 45  1  0  0  0  0
 47 48  1  0  0  0  0
 47 44  2  0  0  0  0
 48 46  2  0  0  0  0
 49 50  1  0  0  0  0
 49 51  1  0  0  0  0
 51 52  1  0  0  0  0
 54 53  2  0  0  0  0
 55 54  1  0  0  0  0
 55 58  1  0  0  0  0
 56 60  1  0  0  0  0
 56 59  1  0  0  0  0
 57 58  1  0  0  0  0
 57 56  1  0  0  0  0
 58 56  1  0  0  0  0
 61 55  1  0  0  0  0
 62 63  1  0  0  0  0
 62 61  1  0  0  0  0
 64 63  1  0  0  0  0
M  END
>  <MODEL>
4

>  <REMARK>
 VINA RESULT:      -3.5      3.184      9.624
  Name = 
  20 active torsions:
  status: ('A' for Active; 'I' for Inactive)
    1  A    between atoms: C_1  and  C_60
    2  A    between atoms: C_1  and  C_61
    3  A    between atoms: C_2  and  C_40
    4  A    between atoms: C_2  and  C_53
    5  A    between atoms: C_4  and  C_16
    6  A    between atoms: C_16  and  C_37
    7  A    between atoms: C_16  and  O_56
    8  A    between atoms: C_18  and  P_49
    9  A    between atoms: N_19  and  N_32
   10  A    between atoms: C_20  and  C_37
   11  A    between atoms: C_21  and  C_52
   12  A    between atoms: C_22  and  C_40
   13  A    between atoms: C_23  and  C_33
   14  A    between atoms: C_23  and  C_42
   15  A    between atoms: C_23  and  S_63
   16  A    between atoms: C_27  and  C_61
   17  A    between atoms: C_28  and  C_60
   18  A    between atoms: P_49  and  O_56
   19  A    between atoms: P_49  and  O_64
   20  A    between atoms: C_60  and  S_63
                            x       y       z     vdW  Elec       q    Type
                         _______ _______ _______ _____ _____    ______ ____

>  <TORSDO>
F 20

$$$$
=
 OpenBabel11062412003D

 64 70  0  0  1  0  0  0  0  0999 V2000
  188.8850  175.9360  137.1500 C   0  0  2  0  0  3  0  0  0  0  0  0
  192.3380  174.4530  134.9330 C   0  0  0  0  0  2  0  0  0  0  0  0
  187.0940  171.9550  136.6480 N   0  0  0  0  0  2  0  0  0  0  0  0
  189.3590  171.6730  135.9990 C   0  0  1  0  0  3  0  0  0  0  0  0
  188.0180  171.0140  136.2050 C   0  0  0  0  0  0  0  0  0  0  0  0
  190.3150  173.9200  136.4440 C   0  0  2  0  0  3  0  0  0  0  0  0
  191.3220  176.2230  136.3160 C   0  0  0  0  0  2  0  0  0  0  0  0
  187.8090  169.8000  136.4460 O   0  0  0  0  0  0  0  0  0  0  0  0
  187.8710  173.0180  137.1300 C   0  0  0  0  0  2  0  0  0  0  0  0
  190.0290  175.4100  136.2370 C   0  0  2  0  0  3  0  0  0  0  0  0
  190.3350  170.0990  134.5980 O   0  0  0  0  0  1  0  0  0  0  0  0
  188.5100  173.5680  134.9110 O   0  0  0  0  0  1  0  0  0  0  0  0
  191.6220  173.4030  135.7250 C   0  0  1  0  0  3  0  0  0  0  0  0
  192.2500  175.7430  135.2450 C   0  0  1  0  0  3  0  0  0  0  0  0
  190.1590  171.4530  134.7660 C   0  0  2  0  0  3  0  0  0  0  0  0
  189.0030  173.1300  136.1140 C   0  0  2  0  0  0  0  0  0  0  0  0
  191.5330  172.0900  134.9130 C   0  0  0  0  0  2  0  0  0  0  0  0
  193.4190  176.5310  134.7120 C   0  0  0  0  0  2  0  0  0  0  0  0
  194.7100  176.4270  135.5320 C   0  0  0  0  0  0  0  0  0  0  0  0
  195.1550  175.3050  135.8000 O   0  0  0  0  0  0  0  0  0  0  0  0
  195.4020  177.6720  136.0590 C   0  0  0  0  0  2  0  0  0  0  0  0
  195.4530  178.7080  135.1090 O   0  0  0  0  0  1  0  0  0  0  0  0
  186.0250  178.0950  136.6980 C   0  0  2  0  0  3  0  0  0  0  0  0
  187.2460  177.7870  134.7610 O   0  0  0  0  0  0  0  0  0  0  0  0
  187.3740  177.6740  136.1300 C   0  0  2  0  0  3  0  0  0  0  0  0
  185.5730  176.9890  137.6790 C   0  0  2  0  0  3  0  0  0  0  0  0
  186.4110  175.8170  137.2300 C   0  0  0  0  0  0  0  0  0  0  0  0
  187.5720  176.2210  136.4230 C   0  0  2  0  0  3  0  0  0  0  0  0
  186.2400  174.6600  137.6940 O   0  0  0  0  0  0  0  0  0  0  0  0
  186.1000  178.5330  134.5950 C   0  0  0  0  0  2  0  0  0  0  0  0
  185.1670  178.1640  135.5850 O   0  0  0  0  0  0  0  0  0  0  0  0
  182.8440  176.9000  136.6180 O   0  0  0  0  0  0  0  0  0  0  0  0
  183.7240  176.6040  137.8370 P   0  0  1  0  0  0  0  0  0  0  0  0
  183.0520  174.3030  137.0000 C   0  0  0  0  0  1  0  0  0  0  0  0
  183.6310  174.9290  138.1300 O   0  0  0  0  0  0  0  0  0  0  0  0
  183.1830  177.6190  139.1150 O   0  0  0  0  0  0  0  0  0  0  0  0
  181.7930  177.3970  139.3870 C   0  0  1  0  0  3  0  0  0  0  0  0
  181.4820  177.9150  140.7680 C   0  0  0  0  0  0  0  0  0  0  0  0
  182.2810  178.9710  141.3760 N   0  0  0  0  0  2  0  0  0  0  0  0
  180.4020  177.5730  141.3110 O   0  0  0  0  0  0  0  0  0  0  0  0
  184.9230  179.2050  142.0910 O   0  0  0  0  0  0  0  0  0  0  0  0
  182.6820  178.9550  142.7120 N   0  0  0  0  0  2  0  0  0  0  0  0
  184.0620  179.0190  143.0470 C   0  0  0  0  0  0  0  0  0  0  0  0
  184.0210  178.8910  145.6130 C   0  0  0  0  0  3  0  0  0  0  0  0
  184.6290  178.7100  144.3710 C   0  0  0  0  0  0  0  0  0  0  0  0
  185.8630  178.2070  144.5940 N   0  0  0  0  0  0  0  0  0  0  0  0
  184.8620  178.4590  146.5640 N   0  0  0  0  0  2  0  0  0  0  0  0
  185.9800  178.0310  145.9150 C   0  0  0  0  0  3  0  0  0  0  0  0
  180.9230  178.2730  138.4060 C   0  0  2  0  0  3  0  0  0  0  0  0
  181.1310  179.6840  138.4270 O   0  0  0  0  0  1  0  0  0  0  0  0
  179.4790  177.8080  137.9630 C   0  0  0  0  0  2  0  0  0  0  0  0
  179.4840  176.3100  137.9480 C   0  0  0  0  0  1  0  0  0  0  0  0
  190.0570  178.3660  137.8190 O   0  0  0  0  0  0  0  0  0  0  0  0
  189.2810  177.1370  138.4870 S   0  0  2  0  0  0  0  0  0  0  0  0
  190.4560  176.3650  139.5510 C   0  0  1  0  0  3  0  0  0  0  0  0
  193.3040  177.2750  139.6600 C   0  0  0  0  0  0  0  0  0  0  0  0
  192.1090  177.6140  140.4690 O   0  0  0  0  0  0  0  0  0  0  0  0
  191.7900  177.1410  139.2130 C   0  0  2  0  0  3  0  0  0  0  0  0
  194.0350  178.4270  139.8420 F   0  0  0  0  0  0  0  0  0  0  0  0
  193.9350  175.9760  139.9380 F   0  0  0  0  0  0  0  0  0  0  0  0
  189.7630  176.6030  141.0080 C   0  0  0  0  0  2  0  0  0  0  0  0
  188.6230  177.5740  141.2510 C   0  0  0  0  0  2  0  0  0  0  0  0
  189.0180  178.2320  142.6900 C   0  0  0  0  0  2  0  0  0  0  0  0
  189.2750  177.2440  143.7670 F   0  0  0  0  0  0  0  0  0  0  0  0
  1 54  1  6  0  0  0
  2 14  1  0  0  0  0
  2 13  1  0  0  0  0
  3  9  1  0  0  0  0
  4 16  1  0  0  0  0
  4  5  1  6  0  0  0
  5  8  2  0  0  0  0
  5  3  1  0  0  0  0
 10  7  1  0  0  0  0
 10  6  1  0  0  0  0
 10  1  1  0  0  0  0
 11 15  1  0  0  0  0
 12 16  1  0  0  0  0
 13  6  1  0  0  0  0
 14  7  1  0  0  0  0
 15 17  1  0  0  0  0
 15  4  1  0  0  0  0
 16  6  1  0  0  0  0
 16  9  1  0  0  0  0
 17 13  1  0  0  0  0
 18 14  1  0  0  0  0
 18 19  1  0  0  0  0
 19 20  2  0  0  0  0
 19 21  1  0  0  0  0
 22 21  1  0  0  0  0
 23 26  1  0  0  0  0
 24 25  1  0  0  0  0
 25 28  1  0  0  0  0
 25 23  1  0  0  0  0
 26 33  1  0  0  0  0
 27 26  1  0  0  0  0
 27 29  2  0  0  0  0
 28  1  1  0  0  0  0
 28 27  1  0  0  0  0
 30 24  1  0  0  0  0
 30 31  1  0  0  0  0
 31 23  1  0  0  0  0
 32 33  2  0  0  0  0
 33 35  1  0  0  0  0
 33 36  1  0  0  0  0
 34 35  1  0  0  0  0
 36 37  1  0  0  0  0
 37 38  1  0  0  0  0
 38 40  2  0  0  0  0
 38 39  1  0  0  0  0
 39 42  1  0  0  0  0
 41 43  2  0  0  0  0
 42 43  1  0  0  0  0
 43 45  1  0  0  0  0
 44 47  1  0  0  0  0
 45 46  1  0  0  0  0
 45 44  2  0  0  0  0
 46 48  2  0  0  0  0
 48 47  1  0  0  0  0
 49 50  1  0  0  0  0
 49 37  1  0  0  0  0
 51 49  1  0  0  0  0
 52 51  1  0  0  0  0
 53 54  2  0  0  0  0
 54 55  1  0  0  0  0
 55 61  1  0  0  0  0
 56 59  1  0  0  0  0
 56 60  1  0  0  0  0
 56 57  1  0  0  0  0
 58 55  1  0  0  0  0
 58 56  1  0  0  0  0
 58 57  1  0  0  0  0
 61 62  1  0  0  0  0
 62 63  1  0  0  0  0
 63 64  1  0  0  0  0
M  END
>  <MODEL>
5

>  <REMARK>
 VINA RESULT:      -2.6      4.001     10.694
  Name = 
  20 active torsions:
  status: ('A' for Active; 'I' for Inactive)
    1  A    between atoms: C_1  and  C_60
    2  A    between atoms: C_1  and  C_61
    3  A    between atoms: C_2  and  C_40
    4  A    between atoms: C_2  and  C_53
    5  A    between atoms: C_4  and  C_16
    6  A    between atoms: C_16  and  C_37
    7  A    between atoms: C_16  and  O_56
    8  A    between atoms: C_18  and  P_49
    9  A    between atoms: N_19  and  N_32
   10  A    between atoms: C_20  and  C_37
   11  A    between atoms: C_21  and  C_52
   12  A    between atoms: C_22  and  C_40
   13  A    between atoms: C_23  and  C_33
   14  A    between atoms: C_23  and  C_42
   15  A    between atoms: C_23  and  S_63
   16  A    between atoms: C_27  and  C_61
   17  A    between atoms: C_28  and  C_60
   18  A    between atoms: P_49  and  O_56
   19  A    between atoms: P_49  and  O_64
   20  A    between atoms: C_60  and  S_63
                            x       y       z     vdW  Elec       q    Type
                         _______ _______ _______ _____ _____    ______ ____

>  <TORSDO>
F 20

$$$$
=
 OpenBabel11062412003D

 64 70  0  0  1  0  0  0  0  0999 V2000
  181.9370  176.0610  138.1740 C   0  0  2  0  0  3  0  0  0  0  0  0
  179.4420  178.7030  140.5900 C   0  0  0  0  0  2  0  0  0  0  0  0
  181.3910  178.8920  134.8580 N   0  0  0  0  0  2  0  0  0  0  0  0
  180.5860  180.0500  136.7670 C   0  0  1  0  0  3  0  0  0  0  0  0
  180.8510  180.1020  135.2830 C   0  0  0  0  0  0  0  0  0  0  0  0
  181.0580  178.4400  138.5950 C   0  0  2  0  0  3  0  0  0  0  0  0
  180.9590  176.7630  140.4690 C   0  0  0  0  0  2  0  0  0  0  0  0
  181.0560  181.1310  134.5940 O   0  0  0  0  0  0  0  0  0  0  0  0
  181.8650  178.2830  136.0300 C   0  0  0  0  0  2  0  0  0  0  0  0
  180.9310  176.9560  138.9530 C   0  0  2  0  0  3  0  0  0  0  0  0
  179.0630  181.7950  136.9320 O   0  0  0  0  0  1  0  0  0  0  0  0
  179.6320  177.9090  136.7460 O   0  0  0  0  0  1  0  0  0  0  0  0
  180.2360  179.4080  139.5330 C   0  0  1  0  0  3  0  0  0  0  0  0
  179.8110  177.5160  141.0640 C   0  0  1  0  0  3  0  0  0  0  0  0
  179.2960  180.5050  137.3480 C   0  0  2  0  0  3  0  0  0  0  0  0
  180.7830  178.5890  137.0600 C   0  0  2  0  0  0  0  0  0  0  0  0
  179.3790  180.5090  138.8670 C   0  0  0  0  0  2  0  0  0  0  0  0
  179.2360  177.2550  142.4330 C   0  0  0  0  0  2  0  0  0  0  0  0
  179.9950  177.8990  143.5980 C   0  0  0  0  0  0  0  0  0  0  0  0
  179.6050  177.6880  144.7520 O   0  0  0  0  0  0  0  0  0  0  0  0
  181.1690  178.8290  143.3450 C   0  0  0  0  0  2  0  0  0  0  0  0
  182.4120  178.1980  143.5340 O   0  0  0  0  0  1  0  0  0  0  0  0
  185.0010  177.3780  136.7880 C   0  0  2  0  0  3  0  0  0  0  0  0
  184.2560  178.5580  138.6290 O   0  0  0  0  0  0  0  0  0  0  0  0
  183.7950  177.6840  137.6660 C   0  0  2  0  0  3  0  0  0  0  0  0
  185.1060  175.8410  136.6690 C   0  0  2  0  0  3  0  0  0  0  0  0
  184.3000  175.3840  137.8600 C   0  0  0  0  0  0  0  0  0  0  0  0
  183.4050  176.4290  138.3790 C   0  0  2  0  0  3  0  0  0  0  0  0
  184.2520  174.1750  138.2080 O   0  0  0  0  0  0  0  0  0  0  0  0
  185.4690  178.9850  138.1360 C   0  0  0  0  0  2  0  0  0  0  0  0
  186.1020  177.9070  137.4850 O   0  0  0  0  0  0  0  0  0  0  0  0
  187.0680  173.7840  137.3790 O   0  0  0  0  0  0  0  0  0  0  0  0
  186.8230  175.0460  136.5460 P   0  0  1  0  0  0  0  0  0  0  0  0
  188.0290  173.6390  134.8100 C   0  0  0  0  0  1  0  0  0  0  0  0
  187.0070  174.6130  134.9090 O   0  0  0  0  0  0  0  0  0  0  0  0
  187.8980  176.2560  137.1250 O   0  0  0  0  0  0  0  0  0  0  0  0
  188.8690  175.6910  138.0140 C   0  0  1  0  0  3  0  0  0  0  0  0
  190.0940  175.3180  137.2190 C   0  0  0  0  0  0  0  0  0  0  0  0
  190.9490  174.2110  137.6260 N   0  0  0  0  0  2  0  0  0  0  0  0
  190.2600  175.8390  136.0880 O   0  0  0  0  0  0  0  0  0  0  0  0
  192.4230  172.5040  136.0580 O   0  0  0  0  0  0  0  0  0  0  0  0
  192.3430  174.2680  137.5930 N   0  0  0  0  0  2  0  0  0  0  0  0
  193.0790  173.3310  136.8160 C   0  0  0  0  0  0  0  0  0  0  0  0
  195.3460  172.4230  136.0170 C   0  0  0  0  0  3  0  0  0  0  0  0
  194.5270  173.0880  136.9290 C   0  0  2  0  0  3  0  0  0  0  0  0
  195.3040  173.4690  137.9670 N   0  0  0  0  0  0  0  0  0  0  0  0
  196.6030  172.4450  136.4800 N   0  0  0  0  0  0  0  0  0  0  0  0
  196.5570  173.1040  137.6710 C   0  0  0  0  0  3  0  0  0  0  0  0
  189.3510  176.7960  139.0320 C   0  0  2  0  0  3  0  0  0  0  0  0
  189.5270  178.1190  138.5280 O   0  0  0  0  0  1  0  0  0  0  0  0
  190.2470  176.4210  140.2780 C   0  0  0  0  0  2  0  0  0  0  0  0
  191.1010  177.6150  140.5810 C   0  0  0  0  0  1  0  0  0  0  0  0
  179.9390  175.5960  136.2990 O   0  0  0  0  0  0  0  0  0  0  0  0
  181.5280  175.5290  136.4610 S   0  0  2  0  0  0  0  0  0  0  0  0
  181.9370  173.8170  136.3350 C   0  0  1  0  0  3  0  0  0  0  0  0
  179.6580  172.3810  137.6360 C   0  0  0  0  0  0  0  0  0  0  0  0
  180.9580  171.9200  137.0920 O   0  0  0  0  0  0  0  0  0  0  0  0
  180.5380  173.1130  136.5400 C   0  0  2  0  0  3  0  0  0  0  0  0
  178.9310  171.2200  137.5020 F   0  0  0  0  0  0  0  0  0  0  0  0
  179.6980  173.0520  138.9440 F   0  0  0  0  0  0  0  0  0  0  0  0
  182.6270  173.7680  134.8570 C   0  0  0  0  0  2  0  0  0  0  0  0
  184.0290  173.2510  134.5980 C   0  0  0  0  0  2  0  0  0  0  0  0
  184.1270  171.9720  135.6060 C   0  0  0  0  0  2  0  0  0  0  0  0
  184.7390  170.7610  135.0040 F   0  0  0  0  0  0  0  0  0  0  0  0
  1 54  1  6  0  0  0
  1 28  1  0  0  0  0
  1 10  1  0  0  0  0
  2 14  1  0  0  0  0
  3  5  1  0  0  0  0
  3  9  1  0  0  0  0
  4  5  1  6  0  0  0
  4 16  1  0  0  0  0
  4 15  1  0  0  0  0
  6 10  1  0  0  0  0
  6 13  1  0  0  0  0
  7 14  1  0  0  0  0
  8  5  2  0  0  0  0
  9 16  1  0  0  0  0
 10  7  1  0  0  0  0
 11 15  1  0  0  0  0
 12 16  1  0  0  0  0
 13  2  1  0  0  0  0
 14 18  1  0  0  0  0
 15 17  1  0  0  0  0
 16  6  1  0  0  0  0
 17 13  1  0  0  0  0
 18 19  1  0  0  0  0
 19 20  2  0  0  0  0
 21 22  1  0  0  0  0
 21 19  1  0  0  0  0
 23 31  1  0  0  0  0
 23 25  1  0  0  0  0
 25 28  1  0  0  0  0
 25 24  1  0  0  0  0
 26 23  1  0  0  0  0
 26 27  1  0  0  0  0
 27 29  2  0  0  0  0
 27 28  1  0  0  0  0
 30 24  1  0  0  0  0
 31 30  1  0  0  0  0
 33 26  1  0  0  0  0
 33 36  1  0  0  0  0
 33 32  2  0  0  0  0
 34 35  1  0  0  0  0
 35 33  1  0  0  0  0
 36 37  1  0  0  0  0
 37 49  1  0  0  0  0
 38 39  1  0  0  0  0
 38 37  1  0  0  0  0
 40 38  2  0  0  0  0
 41 43  2  0  0  0  0
 42 39  1  0  0  0  0
 43 45  1  0  0  0  0
 43 42  1  0  0  0  0
 44 47  2  0  0  0  0
 44 45  1  0  0  0  0
 45 46  1  0  0  0  0
 47 48  1  0  0  0  0
 48 46  2  0  0  0  0
 49 51  1  0  0  0  0
 50 49  1  0  0  0  0
 51 52  1  0  0  0  0
 53 54  2  0  0  0  0
 55 54  1  0  0  0  0
 55 58  1  0  0  0  0
 56 60  1  0  0  0  0
 57 56  1  0  0  0  0
 58 57  1  0  0  0  0
 58 56  1  0  0  0  0
 59 56  1  0  0  0  0
 61 55  1  0  0  0  0
 62 61  1  0  0  0  0
 62 63  1  0  0  0  0
 64 63  1  0  0  0  0
M  END
>  <MODEL>
6

>  <REMARK>
 VINA RESULT:      -1.9      2.989      5.156
  Name = 
  20 active torsions:
  status: ('A' for Active; 'I' for Inactive)
    1  A    between atoms: C_1  and  C_60
    2  A    between atoms: C_1  and  C_61
    3  A    between atoms: C_2  and  C_40
    4  A    between atoms: C_2  and  C_53
    5  A    between atoms: C_4  and  C_16
    6  A    between atoms: C_16  and  C_37
    7  A    between atoms: C_16  and  O_56
    8  A    between atoms: C_18  and  P_49
    9  A    between atoms: N_19  and  N_32
   10  A    between atoms: C_20  and  C_37
   11  A    between atoms: C_21  and  C_52
   12  A    between atoms: C_22  and  C_40
   13  A    between atoms: C_23  and  C_33
   14  A    between atoms: C_23  and  C_42
   15  A    between atoms: C_23  and  S_63
   16  A    between atoms: C_27  and  C_61
   17  A    between atoms: C_28  and  C_60
   18  A    between atoms: P_49  and  O_56
   19  A    between atoms: P_49  and  O_64
   20  A    between atoms: C_60  and  S_63
                            x       y       z     vdW  Elec       q    Type
                         _______ _______ _______ _____ _____    ______ ____

>  <TORSDO>
F 20

$$$$
