=
 OpenBabel11062414033D

 53 58  0  0  1  0  0  0  0  0999 V2000
  185.1870  178.6840  142.2000 C   0  0  0  0  0  0  0  0  0  0  0  0
  183.7540  178.6800  141.8130 C   0  0  0  0  0  0  0  0  0  0  0  0
  182.7990  178.7580  142.8330 C   0  0  0  0  0  3  0  0  0  0  0  0
  185.4540  178.7050  143.6130 C   0  0  0  0  0  3  0  0  0  0  0  0
  183.1690  178.8200  144.1520 C   0  0  0  0  0  3  0  0  0  0  0  0
  184.4500  178.8060  144.5190 N   0  0  0  0  0  0  0  0  0  0  0  0
  183.0400  177.0210  140.2840 O   0  0  0  0  0  0  0  0  0  0  0  0
  182.7230  179.2200  139.5550 N   0  0  0  0  0  2  0  0  0  0  0  0
  183.1400  178.2680  140.5600 C   0  0  0  0  0  0  0  0  0  0  0  0
  182.6380  178.9710  138.1110 C   0  0  0  0  0  2  0  0  0  0  0  0
  180.9340  178.9030  137.5660 S   0  0  0  0  0  0  0  0  0  0  0  0
  181.2720  177.1390  137.2190 C   0  0  0  0  0  2  0  0  0  0  0  0
  179.9020  177.0740  139.1120 O   0  0  0  0  0  1  0  0  0  0  0  0
  180.2750  176.3460  138.0000 C   0  0  2  0  0  3  0  0  0  0  0  0
  180.4370  174.8100  138.1800 C   0  0  0  0  0  2  0  0  0  0  0  0
  179.2990  173.9240  138.5450 C   0  0  2  0  0  3  0  0  0  0  0  0
  179.4250  173.6830  139.8940 O   0  0  0  0  0  1  0  0  0  0  0  0
  179.4830  172.7210  137.7500 C   0  0  0  0  0  2  0  0  0  0  0  0
  180.6530  171.0660  136.3360 C   0  0  0  0  0  2  0  0  0  0  0  0
  180.8230  172.3750  137.1770 C   0  0  1  0  0  3  0  0  0  0  0  0
  180.7580  172.4390  135.6180 C   0  0  1  0  0  3  0  0  0  0  0  0
  182.1740  172.5130  135.0440 C   0  0  0  0  0  2  0  0  0  0  0  0
  183.2470  171.9950  136.0630 C   0  0  0  0  0  2  0  0  0  0  0  0
  184.8810  173.0080  137.7950 C   0  0  0  0  0  2  0  0  0  0  0  0
  185.9060  171.0940  135.1430 C   0  0  0  0  0  1  0  0  0  0  0  0
  186.2480  172.5950  137.2630 C   0  0  0  0  0  2  0  0  0  0  0  0
  184.3840  173.0630  136.3150 C   0  0  2  0  0  0  0  0  0  0  0  0
  184.1550  174.5250  135.9340 C   0  0  0  0  0  1  0  0  0  0  0  0
  185.7570  172.5150  135.8130 C   0  0  2  0  0  3  0  0  0  0  0  0
  186.3690  178.6220  141.2750 C   0  0  0  0  0  0  0  0  0  0  0  0
  186.1390  178.5880  139.9850 N   0  0  0  0  0  0  0  0  0  0  0  0
  187.7710  178.5490  141.9780 C   0  0  0  0  0  2  0  0  0  0  0  0
  188.7340  177.4900  141.8200 C   0  0  0  0  0  2  0  0  0  0  0  0
  189.2140  176.4400  144.0480 C   0  0  0  0  0  2  0  0  0  0  0  0
  189.3700  177.5510  145.0380 N   0  0  2  0  0  0  0  0  0  0  0  0
  189.8330  177.2530  142.9090 C   0  0  2  0  0  3  0  0  0  0  0  0
  190.0700  178.3050  143.9790 C   0  0  0  0  0  2  0  0  0  0  0  0
  191.5830  177.5010  146.1530 O   0  0  0  0  0  1  0  0  0  0  0  0
  189.9070  176.0980  146.8890 O   0  0  0  0  0  0  0  0  0  0  0  0
  189.7670  177.2910  147.5370 C   0  0  1  0  0  3  0  0  0  0  0  0
  190.2490  177.1700  146.1180 C   0  0  2  0  0  0  0  0  0  0  0  0
  188.3570  177.3580  148.0420 C   0  0  0  0  0  2  0  0  0  0  0  0
  187.8960  178.6860  148.0390 O   0  0  0  0  0  0  0  0  0  0  0  0
  186.6230  178.5100  147.4260 C   0  0  0  0  0  1  0  0  0  0  0  0
  187.1130  178.5480  138.9220 N   0  0  0  0  0  2  0  0  0  0  0  0
  186.5590  176.8160  137.4050 C   0  0  0  0  0  3  0  0  0  0  0  0
  187.8980  178.9490  136.6330 C   0  0  0  0  0  3  0  0  0  0  0  0
  189.8640  174.5670  137.3600 Cl  0  0  0  0  0  0  0  0  0  0  0  0
  188.9320  176.0420  137.1690 C   0  0  0  0  0  0  0  0  0  0  0  0
  186.8150  178.3040  137.5360 C   0  0  2  0  0  3  0  0  0  0  0  0
  187.4550  175.8380  137.3590 C   0  0  0  0  0  3  0  0  0  0  0  0
  189.1010  178.4620  136.3540 C   0  0  0  0  0  3  0  0  0  0  0  0
  189.5780  177.1170  136.7360 C   0  0  0  0  0  3  0  0  0  0  0  0
  1  4  1  0  0  0  0
  2  1  2  0  0  0  0
  2  3  1  0  0  0  0
  3  5  2  0  0  0  0
  4  6  2  0  0  0  0
  5  6  1  0  0  0  0
  7  9  2  0  0  0  0
  8  9  1  0  0  0  0
  9  2  1  0  0  0  0
 10  8  1  0  0  0  0
 11 10  1  0  0  0  0
 12 11  1  0  0  0  0
 12 14  1  0  0  0  0
 14 15  1  0  0  0  0
 14 13  1  1  0  0  0
 15 16  1  0  0  0  0
 16 17  1  1  0  0  0
 18 16  1  0  0  0  0
 19 20  1  0  0  0  0
 20 18  1  1  0  0  0
 21 22  1  6  0  0  0
 21 19  1  0  0  0  0
 21 20  1  0  0  0  0
 22 23  1  0  0  0  0
 23 27  1  0  0  0  0
 26 24  1  0  0  0  0
 27 28  1  6  0  0  0
 27 24  1  0  0  0  0
 29 25  1  1  0  0  0
 29 27  1  0  0  0  0
 29 26  1  0  0  0  0
 30 32  1  0  0  0  0
 30  1  1  0  0  0  0
 31 30  2  0  0  0  0
 33 32  1  0  0  0  0
 34 35  1  0  0  0  0
 35 37  1  6  0  0  0
 35 41  1  0  0  0  0
 36 33  1  6  0  0  0
 36 37  1  0  0  0  0
 36 34  1  0  0  0  0
 39 40  1  0  0  0  0
 40 42  1  6  0  0  0
 41 38  1  6  0  0  0
 41 39  1  0  0  0  0
 41 40  1  0  0  0  0
 43 42  1  0  0  0  0
 44 43  1  0  0  0  0
 45 31  1  0  0  0  0
 46 50  1  0  0  0  0
 47 50  1  0  0  0  0
 49 51  1  0  0  0  0
 49 48  1  0  0  0  0
 50 45  1  1  0  0  0
 51 46  2  0  0  0  0
 52 47  2  0  0  0  0
 52 53  1  0  0  0  0
 53 49  2  0  0  0  0
M  END
>  <MODEL>
1

>  <REMARK>
 VINA RESULT:      -6.9      0.000      0.000
  Name = 
  20 active torsions:
  status: ('A' for Active; 'I' for Inactive)
    1  A    between atoms: C_1  and  C_8
    2  A    between atoms: C_2  and  O_10
    3  A    between atoms: C_2  and  C_30
    4  A    between atoms: C_4  and  C_46
    5  A    between atoms: C_6  and  C_11
    6  A    between atoms: C_6  and  C_40
    7  A    between atoms: C_7  and  C_20
    8  A    between atoms: C_7  and  C_37
    9  A    between atoms: C_8  and  C_21
   10  A    between atoms: C_11  and  C_22
   11  A    between atoms: S_12  and  C_23
   12  A    between atoms: S_12  and  C_27
   13  A    between atoms: N_18  and  C_28
   14  A    between atoms: N_18  and  N_49
   15  A    between atoms: C_20  and  C_50
   16  A    between atoms: C_22  and  C_42
   17  A    between atoms: C_23  and  N_41
   18  A    between atoms: N_24  and  C_44
   19  A    between atoms: C_27  and  C_40
   20  A    between atoms: C_33  and  C_51
                            x       y       z     vdW  Elec       q    Type
                         _______ _______ _______ _____ _____    ______ ____

>  <TORSDO>
F 20

$$$$
=
 OpenBabel11062414033D

 53 58  0  0  1  0  0  0  0  0999 V2000
  189.0940  174.7620  137.0230 C   0  0  0  0  0  0  0  0  0  0  0  0
  189.7540  176.0580  137.3160 C   0  0  0  0  0  0  0  0  0  0  0  0
  191.1530  176.0870  137.3530 C   0  0  0  0  0  3  0  0  0  0  0  0
  189.9700  173.6330  136.8640 C   0  0  0  0  0  3  0  0  0  0  0  0
  191.8950  174.9540  137.1410 C   0  0  0  0  0  3  0  0  0  0  0  0
  191.3190  173.7780  136.8940 N   0  0  0  0  0  0  0  0  0  0  0  0
  189.1590  178.3470  137.2320 O   0  0  0  0  0  0  0  0  0  0  0  0
  188.7680  177.3120  139.2930 N   0  0  0  0  0  2  0  0  0  0  0  0
  189.1960  177.2610  137.9130 C   0  0  0  0  0  0  0  0  0  0  0  0
  188.7380  178.5070  140.1460 C   0  0  0  0  0  2  0  0  0  0  0  0
  188.2790  178.0910  141.8250 S   0  0  0  0  0  0  0  0  0  0  0  0
  186.5970  177.8440  141.1460 C   0  0  0  0  0  2  0  0  0  0  0  0
  185.3240  179.7780  141.4690 O   0  0  0  0  0  1  0  0  0  0  0  0
  185.6550  178.5700  142.0500 C   0  0  2  0  0  3  0  0  0  0  0  0
  185.8550  178.5560  143.5930 C   0  0  0  0  0  2  0  0  0  0  0  0
  184.7270  178.3570  144.5420 C   0  0  2  0  0  3  0  0  0  0  0  0
  183.9320  179.4740  144.4230 O   0  0  0  0  0  1  0  0  0  0  0  0
  185.3460  178.2570  145.8530 C   0  0  0  0  0  2  0  0  0  0  0  0
  187.1010  178.6430  147.5490 C   0  0  0  0  0  2  0  0  0  0  0  0
  186.8220  178.4420  146.0230 C   0  0  1  0  0  3  0  0  0  0  0  0
  187.4010  177.2730  146.8820 C   0  0  1  0  0  3  0  0  0  0  0  0
  188.9200  177.2070  146.7090 C   0  0  0  0  0  2  0  0  0  0  0  0
  189.3510  177.4540  145.2230 C   0  0  0  0  0  2  0  0  0  0  0  0
  190.9700  176.1650  143.6690 C   0  0  0  0  0  2  0  0  0  0  0  0
  190.9590  179.5800  143.9480 C   0  0  0  0  0  1  0  0  0  0  0  0
  191.8370  177.2700  143.0780 C   0  0  0  0  0  2  0  0  0  0  0  0
  190.8510  177.0270  144.9660 C   0  0  2  0  0  0  0  0  0  0  0  0
  191.6510  176.3460  146.0760 C   0  0  0  0  0  1  0  0  0  0  0  0
  191.6330  178.1940  144.2860 C   0  0  2  0  0  3  0  0  0  0  0  0
  187.6160  174.5070  136.9220 C   0  0  0  0  0  0  0  0  0  0  0  0
  187.2060  173.2620  136.9220 N   0  0  0  0  0  0  0  0  0  0  0  0
  186.7210  175.7870  136.7700 C   0  0  0  0  0  2  0  0  0  0  0  0
  185.6720  176.1890  137.6710 C   0  0  0  0  0  2  0  0  0  0  0  0
  184.5360  178.3870  138.0910 C   0  0  0  0  0  2  0  0  0  0  0  0
  183.1760  178.0860  138.6380 N   0  0  2  0  0  0  0  0  0  0  0  0
  184.5390  177.1530  137.1860 C   0  0  2  0  0  3  0  0  0  0  0  0
  183.1190  176.9560  137.6890 C   0  0  0  0  0  2  0  0  0  0  0  0
  181.6570  179.2580  137.0700 O   0  0  0  0  0  1  0  0  0  0  0  0
  182.2510  180.2760  139.0520 O   0  0  0  0  0  0  0  0  0  0  0  0
  181.1620  179.4910  139.2970 C   0  0  1  0  0  3  0  0  0  0  0  0
  182.2370  179.1320  138.3100 C   0  0  2  0  0  0  0  0  0  0  0  0
  181.1230  179.2320  140.7730 C   0  0  0  0  0  2  0  0  0  0  0  0
  179.9930  179.8390  141.3490 O   0  0  0  0  0  0  0  0  0  0  0  0
  180.3840  179.8480  142.7180 C   0  0  0  0  0  1  0  0  0  0  0  0
  185.8460  172.7880  136.8560 N   0  0  0  0  0  2  0  0  0  0  0  0
  184.2860  173.5520  135.2450 C   0  0  0  0  0  3  0  0  0  0  0  0
  184.5110  170.9960  135.8430 C   0  0  0  0  0  3  0  0  0  0  0  0
  180.9040  173.8770  137.3520 Cl  0  0  0  0  0  0  0  0  0  0  0  0
  182.3000  173.0460  136.6910 C   0  0  0  0  0  0  0  0  0  0  0  0
  185.1670  172.3880  135.6510 C   0  0  2  0  0  3  0  0  0  0  0  0
  183.1130  173.9020  135.7600 C   0  0  0  0  0  3  0  0  0  0  0  0
  183.3630  170.7300  136.4550 C   0  0  0  0  0  3  0  0  0  0  0  0
  182.4090  171.7460  136.9400 C   0  0  0  0  0  3  0  0  0  0  0  0
  1  2  1  0  0  0  0
  2  3  2  0  0  0  0
  2  9  1  0  0  0  0
  4  6  1  0  0  0  0
  4  1  2  0  0  0  0
  5  3  1  0  0  0  0
  6  5  2  0  0  0  0
  7  9  2  0  0  0  0
  8 10  1  0  0  0  0
  9  8  1  0  0  0  0
 10 11  1  0  0  0  0
 12 11  1  0  0  0  0
 12 14  1  0  0  0  0
 14 13  1  6  0  0  0
 14 15  1  0  0  0  0
 15 16  1  0  0  0  0
 16 17  1  1  0  0  0
 16 18  1  0  0  0  0
 20 18  1  1  0  0  0
 20 21  1  0  0  0  0
 20 19  1  0  0  0  0
 21 22  1  6  0  0  0
 21 19  1  0  0  0  0
 23 22  1  0  0  0  0
 24 27  1  0  0  0  0
 26 24  1  0  0  0  0
 26 29  1  0  0  0  0
 27 23  1  0  0  0  0
 27 28  1  1  0  0  0
 29 25  1  6  0  0  0
 29 27  1  0  0  0  0
 30 31  2  0  0  0  0
 30  1  1  0  0  0  0
 32 30  1  0  0  0  0
 32 33  1  0  0  0  0
 34 35  1  0  0  0  0
 35 37  1  6  0  0  0
 36 33  1  1  0  0  0
 36 37  1  0  0  0  0
 36 34  1  0  0  0  0
 39 40  1  0  0  0  0
 40 42  1  1  0  0  0
 41 38  1  6  0  0  0
 41 35  1  0  0  0  0
 41 39  1  0  0  0  0
 41 40  1  0  0  0  0
 42 43  1  0  0  0  0
 43 44  1  0  0  0  0
 45 31  1  0  0  0  0
 46 50  1  0  0  0  0
 46 51  2  0  0  0  0
 47 52  2  0  0  0  0
 49 53  2  0  0  0  0
 49 48  1  0  0  0  0
 50 47  1  0  0  0  0
 50 45  1  1  0  0  0
 51 49  1  0  0  0  0
 52 53  1  0  0  0  0
M  END
>  <MODEL>
2

>  <REMARK>
 VINA RESULT:      -6.9      3.322      9.572
  Name = 
  20 active torsions:
  status: ('A' for Active; 'I' for Inactive)
    1  A    between atoms: C_1  and  C_8
    2  A    between atoms: C_2  and  O_10
    3  A    between atoms: C_2  and  C_30
    4  A    between atoms: C_4  and  C_46
    5  A    between atoms: C_6  and  C_11
    6  A    between atoms: C_6  and  C_40
    7  A    between atoms: C_7  and  C_20
    8  A    between atoms: C_7  and  C_37
    9  A    between atoms: C_8  and  C_21
   10  A    between atoms: C_11  and  C_22
   11  A    between atoms: S_12  and  C_23
   12  A    between atoms: S_12  and  C_27
   13  A    between atoms: N_18  and  C_28
   14  A    between atoms: N_18  and  N_49
   15  A    between atoms: C_20  and  C_50
   16  A    between atoms: C_22  and  C_42
   17  A    between atoms: C_23  and  N_41
   18  A    between atoms: N_24  and  C_44
   19  A    between atoms: C_27  and  C_40
   20  A    between atoms: C_33  and  C_51
                            x       y       z     vdW  Elec       q    Type
                         _______ _______ _______ _____ _____    ______ ____

>  <TORSDO>
F 20

$$$$
=
 OpenBabel11062414033D

 53 58  0  0  1  0  0  0  0  0999 V2000
  189.9670  175.1000  136.4420 C   0  0  0  0  0  0  0  0  0  0  0  0
  190.5240  176.2490  137.1970 C   0  0  0  0  0  0  0  0  0  0  0  0
  191.9160  176.3810  137.2580 C   0  0  0  0  0  3  0  0  0  0  0  0
  190.9300  174.1860  135.8900 C   0  0  0  0  0  3  0  0  0  0  0  0
  192.7440  175.4700  136.6530 C   0  0  0  0  0  3  0  0  0  0  0  0
  192.2620  174.4230  135.9860 N   0  0  0  0  0  0  0  0  0  0  0  0
  189.5190  178.2850  137.8640 O   0  0  0  0  0  0  0  0  0  0  0  0
  189.7230  176.6940  139.5660 N   0  0  0  0  0  2  0  0  0  0  0  0
  189.8810  177.0990  138.1870 C   0  0  0  0  0  0  0  0  0  0  0  0
  189.6390  177.5900  140.7270 C   0  0  0  0  0  2  0  0  0  0  0  0
  190.1420  176.7520  142.2270 S   0  0  0  0  0  0  0  0  0  0  0  0
  190.2310  178.4280  142.9560 C   0  0  0  0  0  2  0  0  0  0  0  0
  192.0060  179.0950  144.3230 O   0  0  0  0  0  1  0  0  0  0  0  0
  190.8880  178.2850  144.2900 C   0  0  2  0  0  3  0  0  0  0  0  0
  190.9970  176.8980  144.9850 C   0  0  0  0  0  2  0  0  0  0  0  0
  191.7270  176.7030  146.2660 C   0  0  2  0  0  3  0  0  0  0  0  0
  192.1200  175.3840  146.2790 O   0  0  0  0  0  1  0  0  0  0  0  0
  190.7560  176.9990  147.3060 C   0  0  0  0  0  2  0  0  0  0  0  0
  188.4870  176.4330  148.1060 C   0  0  0  0  0  2  0  0  0  0  0  0
  189.3020  177.1520  146.9800 C   0  0  1  0  0  3  0  0  0  0  0  0
  188.5980  177.9820  148.1010 C   0  0  1  0  0  3  0  0  0  0  0  0
  187.2540  178.5050  147.5910 C   0  0  0  0  0  2  0  0  0  0  0  0
  187.0700  178.2470  146.0560 C   0  0  0  0  0  2  0  0  0  0  0  0
  185.3090  179.9760  145.2790 C   0  0  0  0  0  2  0  0  0  0  0  0
  186.6190  177.5750  143.2150 C   0  0  0  0  0  1  0  0  0  0  0  0
  185.0360  179.5680  143.8360 C   0  0  0  0  0  2  0  0  0  0  0  0
  185.5750  178.4700  145.5960 C   0  0  2  0  0  0  0  0  0  0  0  0
  184.4260  177.9460  146.4580 C   0  0  0  0  0  1  0  0  0  0  0  0
  185.4160  178.1030  144.0880 C   0  0  2  0  0  3  0  0  0  0  0  0
  188.5140  174.7770  136.2380 C   0  0  0  0  0  0  0  0  0  0  0  0
  188.2140  173.7180  135.5240 N   0  0  0  0  0  0  0  0  0  0  0  0
  187.5010  175.7960  136.8700 C   0  0  0  0  0  2  0  0  0  0  0  0
  186.4240  176.4490  136.1750 C   0  0  0  0  0  2  0  0  0  0  0  0
  186.1170  177.8600  138.2280 C   0  0  0  0  0  2  0  0  0  0  0  0
  184.6720  177.7820  138.6080 N   0  0  2  0  0  0  0  0  0  0  0  0
  185.8170  177.7810  136.7300 C   0  0  2  0  0  3  0  0  0  0  0  0
  184.3610  177.8180  137.1650 C   0  0  0  0  0  2  0  0  0  0  0  0
  184.4240  180.2420  138.7830 O   0  0  0  0  0  1  0  0  0  0  0  0
  184.0860  178.9300  140.6480 O   0  0  0  0  0  0  0  0  0  0  0  0
  182.9040  179.0010  139.9700 C   0  0  1  0  0  3  0  0  0  0  0  0
  184.2470  178.9780  139.2950 C   0  0  2  0  0  0  0  0  0  0  0  0
  182.0630  177.8440  140.4180 C   0  0  0  0  0  2  0  0  0  0  0  0
  180.9900  177.6430  139.5330 O   0  0  0  0  0  0  0  0  0  0  0  0
  180.6550  176.2950  139.8440 C   0  0  0  0  0  1  0  0  0  0  0  0
  186.8990  173.2110  135.2200 N   0  0  0  0  0  2  0  0  0  0  0  0
  185.1080  171.6690  135.0510 C   0  0  0  0  0  3  0  0  0  0  0  0
  185.8740  172.6430  137.3750 C   0  0  0  0  0  3  0  0  0  0  0  0
  181.8870  174.0370  134.9760 Cl  0  0  0  0  0  0  0  0  0  0  0  0
  183.3690  173.3760  135.6440 C   0  0  0  0  0  0  0  0  0  0  0  0
  186.2280  172.1640  135.9440 C   0  0  2  0  0  3  0  0  0  0  0  0
  183.9290  172.2400  134.8340 C   0  0  0  0  0  3  0  0  0  0  0  0
  184.8480  173.4060  137.7330 C   0  0  0  0  0  3  0  0  0  0  0  0
  183.7490  173.8190  136.8370 C   0  0  0  0  0  3  0  0  0  0  0  0
  1  2  1  0  0  0  0
  2  3  2  0  0  0  0
  2  9  1  0  0  0  0
  4  6  1  0  0  0  0
  4  1  2  0  0  0  0
  5  3  1  0  0  0  0
  6  5  2  0  0  0  0
  7  9  2  0  0  0  0
  8 10  1  0  0  0  0
  9  8  1  0  0  0  0
 10 11  1  0  0  0  0
 11 12  1  0  0  0  0
 12 14  1  0  0  0  0
 14 13  1  6  0  0  0
 14 15  1  0  0  0  0
 15 16  1  0  0  0  0
 16 17  1  1  0  0  0
 16 18  1  0  0  0  0
 20 18  1  1  0  0  0
 20 21  1  0  0  0  0
 20 19  1  0  0  0  0
 21 22  1  6  0  0  0
 21 19  1  0  0  0  0
 23 22  1  0  0  0  0
 24 27  1  0  0  0  0
 26 29  1  0  0  0  0
 26 24  1  0  0  0  0
 27 23  1  0  0  0  0
 27 28  1  1  0  0  0
 29 25  1  6  0  0  0
 29 27  1  0  0  0  0
 30  1  1  0  0  0  0
 30 32  1  0  0  0  0
 31 30  2  0  0  0  0
 33 32  1  0  0  0  0
 34 35  1  0  0  0  0
 35 37  1  6  0  0  0
 35 41  1  0  0  0  0
 36 33  1  1  0  0  0
 36 37  1  0  0  0  0
 36 34  1  0  0  0  0
 40 42  1  6  0  0  0
 40 39  1  0  0  0  0
 41 38  1  6  0  0  0
 41 40  1  0  0  0  0
 41 39  1  0  0  0  0
 43 44  1  0  0  0  0
 43 42  1  0  0  0  0
 45 31  1  0  0  0  0
 46 50  1  0  0  0  0
 47 52  2  0  0  0  0
 48 49  1  0  0  0  0
 49 53  2  0  0  0  0
 50 45  1  6  0  0  0
 50 47  1  0  0  0  0
 51 46  2  0  0  0  0
 51 49  1  0  0  0  0
 53 52  1  0  0  0  0
M  END
>  <MODEL>
3

>  <REMARK>
 VINA RESULT:      -6.8      3.083     10.163
  Name = 
  20 active torsions:
  status: ('A' for Active; 'I' for Inactive)
    1  A    between atoms: C_1  and  C_8
    2  A    between atoms: C_2  and  O_10
    3  A    between atoms: C_2  and  C_30
    4  A    between atoms: C_4  and  C_46
    5  A    between atoms: C_6  and  C_11
    6  A    between atoms: C_6  and  C_40
    7  A    between atoms: C_7  and  C_20
    8  A    between atoms: C_7  and  C_37
    9  A    between atoms: C_8  and  C_21
   10  A    between atoms: C_11  and  C_22
   11  A    between atoms: S_12  and  C_23
   12  A    between atoms: S_12  and  C_27
   13  A    between atoms: N_18  and  C_28
   14  A    between atoms: N_18  and  N_49
   15  A    between atoms: C_20  and  C_50
   16  A    between atoms: C_22  and  C_42
   17  A    between atoms: C_23  and  N_41
   18  A    between atoms: N_24  and  C_44
   19  A    between atoms: C_27  and  C_40
   20  A    between atoms: C_33  and  C_51
                            x       y       z     vdW  Elec       q    Type
                         _______ _______ _______ _____ _____    ______ ____

>  <TORSDO>
F 20

$$$$
=
 OpenBabel11062414033D

 53 58  0  0  1  0  0  0  0  0999 V2000
  185.6270  177.0600  137.0590 C   0  0  0  0  0  0  0  0  0  0  0  0
  186.5930  176.0130  136.6450 C   0  0  0  0  0  0  0  0  0  0  0  0
  187.6970  176.4050  135.8780 C   0  0  0  0  0  3  0  0  0  0  0  0
  185.8920  178.3860  136.5700 C   0  0  0  0  0  3  0  0  0  0  0  0
  187.8750  177.7110  135.5040 C   0  0  0  0  0  3  0  0  0  0  0  0
  187.0090  178.6620  135.8510 N   0  0  0  0  0  0  0  0  0  0  0  0
  185.8810  173.9690  137.6030 O   0  0  0  0  0  0  0  0  0  0  0  0
  186.9480  173.7570  135.5330 N   0  0  0  0  0  2  0  0  0  0  0  0
  186.4260  174.5680  136.6100 C   0  0  0  0  0  0  0  0  0  0  0  0
  187.3520  172.3480  135.6280 C   0  0  0  0  0  2  0  0  0  0  0  0
  189.0860  172.1450  135.2330 S   0  0  0  0  0  0  0  0  0  0  0  0
  189.3940  173.0360  136.8020 C   0  0  0  0  0  2  0  0  0  0  0  0
  191.3750  173.4030  135.6170 O   0  0  0  0  0  1  0  0  0  0  0  0
  190.5320  173.9710  136.5520 C   0  0  2  0  0  3  0  0  0  0  0  0
  191.1950  174.7560  137.7190 C   0  0  0  0  0  2  0  0  0  0  0  0
  191.7570  176.1220  137.5440 C   0  0  2  0  0  3  0  0  0  0  0  0
  192.6800  176.2820  138.5520 O   0  0  0  0  0  1  0  0  0  0  0  0
  190.6240  177.0210  137.6870 C   0  0  0  0  0  2  0  0  0  0  0  0
  189.1970  178.7220  138.7720 C   0  0  0  0  0  2  0  0  0  0  0  0
  190.2740  177.6140  139.0160 C   0  0  1  0  0  3  0  0  0  0  0  0
  188.7700  177.3380  139.3340 C   0  0  1  0  0  3  0  0  0  0  0  0
  188.5090  177.5460  140.8270 C   0  0  0  0  0  2  0  0  0  0  0  0
  189.8400  177.5960  141.6520 C   0  0  0  0  0  2  0  0  0  0  0  0
  190.7660  175.7700  143.2340 C   0  0  0  0  0  2  0  0  0  0  0  0
  191.0740  179.1250  143.8590 C   0  0  0  0  0  1  0  0  0  0  0  0
  191.3310  176.5740  144.3990 C   0  0  0  0  0  2  0  0  0  0  0  0
  189.6900  176.8880  143.0570 C   0  0  2  0  0  0  0  0  0  0  0  0
  188.3340  176.3290  143.4870 C   0  0  0  0  0  1  0  0  0  0  0  0
  190.3700  177.7470  144.1680 C   0  0  2  0  0  3  0  0  0  0  0  0
  184.3900  176.8660  137.8900 C   0  0  0  0  0  0  0  0  0  0  0  0
  183.6190  175.8420  137.6140 N   0  0  0  0  0  0  0  0  0  0  0  0
  184.1310  177.9660  138.9790 C   0  0  0  0  0  2  0  0  0  0  0  0
  184.9640  178.2250  140.1250 C   0  0  0  0  0  2  0  0  0  0  0  0
  185.5230  179.2200  142.3600 C   0  0  0  0  0  2  0  0  0  0  0  0
  184.9450  178.3180  143.4040 N   0  0  2  0  0  0  0  0  0  0  0  0
  184.3790  178.9590  141.3780 C   0  0  2  0  0  3  0  0  0  0  0  0
  183.7810  178.1440  142.5120 C   0  0  0  0  0  2  0  0  0  0  0  0
  183.3700  179.5730  144.8480 O   0  0  0  0  0  1  0  0  0  0  0  0
  185.6290  179.6360  145.3060 O   0  0  0  0  0  0  0  0  0  0  0  0
  185.1080  178.5410  145.9320 C   0  0  1  0  0  3  0  0  0  0  0  0
  184.6180  179.0490  144.6050 C   0  0  2  0  0  0  0  0  0  0  0  0
  186.2450  177.6060  146.2130 C   0  0  0  0  0  2  0  0  0  0  0  0
  186.9510  178.0190  147.3560 O   0  0  0  0  0  0  0  0  0  0  0  0
  188.2100  177.4010  147.1120 C   0  0  0  0  0  1  0  0  0  0  0  0
  182.4050  175.4540  138.2880 N   0  0  0  0  0  2  0  0  0  0  0  0
  180.6360  176.5640  139.4060 C   0  0  0  0  0  3  0  0  0  0  0  0
  180.1990  175.0550  137.2920 C   0  0  0  0  0  3  0  0  0  0  0  0
  179.2200  173.7500  141.8670 Cl  0  0  0  0  0  0  0  0  0  0  0  0
  179.6610  174.4400  140.3160 C   0  0  0  0  0  0  0  0  0  0  0  0
  181.1100  176.0430  138.0650 C   0  0  2  0  0  3  0  0  0  0  0  0
  180.1190  175.8690  140.4120 C   0  0  0  0  0  3  0  0  0  0  0  0
  179.5290  174.0240  137.7940 C   0  0  0  0  0  3  0  0  0  0  0  0
  179.4060  173.7160  139.2330 C   0  0  0  0  0  3  0  0  0  0  0  0
  1 30  1  0  0  0  0
  2  1  1  0  0  0  0
  3  2  2  0  0  0  0
  4  1  2  0  0  0  0
  5  6  2  0  0  0  0
  5  3  1  0  0  0  0
  6  4  1  0  0  0  0
  8 10  1  0  0  0  0
  8  9  1  0  0  0  0
  9  2  1  0  0  0  0
  9  7  2  0  0  0  0
 11 10  1  0  0  0  0
 11 12  1  0  0  0  0
 14 13  1  1  0  0  0
 14 12  1  0  0  0  0
 14 15  1  0  0  0  0
 16 18  1  0  0  0  0
 16 15  1  0  0  0  0
 16 17  1  1  0  0  0
 19 20  1  0  0  0  0
 19 21  1  0  0  0  0
 20 18  1  6  0  0  0
 20 21  1  0  0  0  0
 21 22  1  1  0  0  0
 22 23  1  0  0  0  0
 23 27  1  0  0  0  0
 24 26  1  0  0  0  0
 27 24  1  0  0  0  0
 27 28  1  1  0  0  0
 27 29  1  0  0  0  0
 29 25  1  6  0  0  0
 29 26  1  0  0  0  0
 30 32  1  0  0  0  0
 31 30  2  0  0  0  0
 31 45  1  0  0  0  0
 32 33  1  0  0  0  0
 35 34  1  6  0  0  0
 35 41  1  0  0  0  0
 36 33  1  6  0  0  0
 36 34  1  0  0  0  0
 36 37  1  0  0  0  0
 37 35  1  0  0  0  0
 39 40  1  0  0  0  0
 40 42  1  6  0  0  0
 41 38  1  1  0  0  0
 41 39  1  0  0  0  0
 41 40  1  0  0  0  0
 42 43  1  0  0  0  0
 44 43  1  0  0  0  0
 46 51  2  0  0  0  0
 47 52  2  0  0  0  0
 47 50  1  0  0  0  0
 49 51  1  0  0  0  0
 49 48  1  0  0  0  0
 50 45  1  1  0  0  0
 50 46  1  0  0  0  0
 52 53  1  0  0  0  0
 53 49  2  0  0  0  0
M  END
>  <MODEL>
4

>  <REMARK>
 VINA RESULT:      -6.7      3.578      8.617
  Name = 
  20 active torsions:
  status: ('A' for Active; 'I' for Inactive)
    1  A    between atoms: C_1  and  C_8
    2  A    between atoms: C_2  and  O_10
    3  A    between atoms: C_2  and  C_30
    4  A    between atoms: C_4  and  C_46
    5  A    between atoms: C_6  and  C_11
    6  A    between atoms: C_6  and  C_40
    7  A    between atoms: C_7  and  C_20
    8  A    between atoms: C_7  and  C_37
    9  A    between atoms: C_8  and  C_21
   10  A    between atoms: C_11  and  C_22
   11  A    between atoms: S_12  and  C_23
   12  A    between atoms: S_12  and  C_27
   13  A    between atoms: N_18  and  C_28
   14  A    between atoms: N_18  and  N_49
   15  A    between atoms: C_20  and  C_50
   16  A    between atoms: C_22  and  C_42
   17  A    between atoms: C_23  and  N_41
   18  A    between atoms: N_24  and  C_44
   19  A    between atoms: C_27  and  C_40
   20  A    between atoms: C_33  and  C_51
                            x       y       z     vdW  Elec       q    Type
                         _______ _______ _______ _____ _____    ______ ____

>  <TORSDO>
F 20

$$$$
=
 OpenBabel11062414033D

 53 58  0  0  1  0  0  0  0  0999 V2000
  188.3610  175.8020  137.2620 C   0  0  0  0  0  0  0  0  0  0  0  0
  189.1920  176.8070  137.9700 C   0  0  0  0  0  0  0  0  0  0  0  0
  190.5800  176.6270  137.9710 C   0  0  0  0  0  3  0  0  0  0  0  0
  189.0730  174.6910  136.6900 C   0  0  0  0  0  3  0  0  0  0  0  0
  191.1580  175.5480  137.3520 C   0  0  0  0  0  3  0  0  0  0  0  0
  190.4270  174.6270  136.7270 N   0  0  0  0  0  0  0  0  0  0  0  0
  188.6780  179.0200  138.6310 O   0  0  0  0  0  0  0  0  0  0  0  0
  188.6330  177.4500  140.3630 N   0  0  0  0  0  2  0  0  0  0  0  0
  188.7980  177.7900  138.9670 C   0  0  0  0  0  0  0  0  0  0  0  0
  188.8040  178.3610  141.5010 C   0  0  0  0  0  2  0  0  0  0  0  0
  188.8790  177.4580  143.0460 S   0  0  0  0  0  0  0  0  0  0  0  0
  190.4070  178.4160  143.3580 C   0  0  0  0  0  2  0  0  0  0  0  0
  192.0840  176.8860  142.7970 O   0  0  0  0  0  1  0  0  0  0  0  0
  191.4250  177.4500  143.8720 C   0  0  2  0  0  3  0  0  0  0  0  0
  191.1090  176.5190  145.0770 C   0  0  0  0  0  2  0  0  0  0  0  0
  191.8550  176.5960  146.3620 C   0  0  2  0  0  3  0  0  0  0  0  0
  192.1840  175.3000  146.6850 O   0  0  0  0  0  1  0  0  0  0  0  0
  190.9220  177.1820  147.3100 C   0  0  0  0  0  2  0  0  0  0  0  0
  188.7490  177.6500  148.3890 C   0  0  0  0  0  2  0  0  0  0  0  0
  189.4910  176.7440  147.3520 C   0  0  1  0  0  3  0  0  0  0  0  0
  188.5710  177.9100  146.8670 C   0  0  1  0  0  3  0  0  0  0  0  0
  187.1910  177.3610  146.5000 C   0  0  0  0  0  2  0  0  0  0  0  0
  186.6640  177.9590  145.1510 C   0  0  0  0  0  2  0  0  0  0  0  0
  185.2380  180.1170  145.2100 C   0  0  0  0  0  2  0  0  0  0  0  0
  185.1020  177.8490  142.6450 C   0  0  0  0  0  1  0  0  0  0  0  0
  184.3880  180.0060  143.9500 C   0  0  0  0  0  2  0  0  0  0  0  0
  185.2090  178.5590  145.3010 C   0  0  2  0  0  0  0  0  0  0  0  0
  184.3390  178.1580  146.4910 C   0  0  0  0  0  1  0  0  0  0  0  0
  184.4500  178.4730  143.9400 C   0  0  2  0  0  3  0  0  0  0  0  0
  186.8650  175.8080  137.1240 C   0  0  0  0  0  0  0  0  0  0  0  0
  186.2490  176.9650  137.1590 N   0  0  0  0  0  0  0  0  0  0  0  0
  186.1940  174.3940  137.0060 C   0  0  0  0  0  2  0  0  0  0  0  0
  185.7420  173.7780  135.7860 C   0  0  0  0  0  2  0  0  0  0  0  0
  183.3610  173.1980  135.2470 C   0  0  0  0  0  2  0  0  0  0  0  0
  182.6310  173.0660  136.5460 N   0  0  2  0  0  0  0  0  0  0  0  0
  184.6650  172.6440  135.8240 C   0  0  2  0  0  3  0  0  0  0  0  0
  183.8480  172.4270  137.0860 C   0  0  0  0  0  2  0  0  0  0  0  0
  181.6870  170.8080  136.1590 O   0  0  0  0  0  1  0  0  0  0  0  0
  180.2900  172.6430  136.1400 O   0  0  0  0  0  0  0  0  0  0  0  0
  180.4030  172.2190  137.4320 C   0  0  1  0  0  3  0  0  0  0  0  0
  181.5250  172.1460  136.4340 C   0  0  2  0  0  0  0  0  0  0  0  0
  180.0080  173.3660  138.3120 C   0  0  0  0  0  2  0  0  0  0  0  0
  179.4450  174.4020  137.5480 O   0  0  0  0  0  0  0  0  0  0  0  0
  179.0880  175.3130  138.5820 C   0  0  0  0  0  1  0  0  0  0  0  0
  184.8340  177.2080  137.0270 N   0  0  0  0  0  2  0  0  0  0  0  0
  182.5450  176.6090  137.1600 C   0  0  0  0  0  3  0  0  0  0  0  0
  183.8150  177.6680  139.2110 C   0  0  0  0  0  3  0  0  0  0  0  0
  180.6680  180.0520  136.3810 Cl  0  0  0  0  0  0  0  0  0  0  0  0
  181.7610  178.9890  137.2500 C   0  0  0  0  0  0  0  0  0  0  0  0
  183.8270  176.7610  137.9540 C   0  0  2  0  0  3  0  0  0  0  0  0
  181.7170  177.5680  136.7630 C   0  0  0  0  0  3  0  0  0  0  0  0
  183.2470  178.8630  139.3300 C   0  0  0  0  0  3  0  0  0  0  0  0
  182.3760  179.4890  138.3150 C   0  0  0  0  0  3  0  0  0  0  0  0
  1  2  1  0  0  0  0
  2  3  2  0  0  0  0
  2  9  1  0  0  0  0
  4  6  1  0  0  0  0
  4  1  2  0  0  0  0
  5  3  1  0  0  0  0
  6  5  2  0  0  0  0
  7  9  2  0  0  0  0
  8 10  1  0  0  0  0
  9  8  1  0  0  0  0
 10 11  1  0  0  0  0
 11 12  1  0  0  0  0
 12 14  1  0  0  0  0
 14 13  1  6  0  0  0
 14 15  1  0  0  0  0
 15 16  1  0  0  0  0
 16 17  1  1  0  0  0
 16 18  1  0  0  0  0
 20 18  1  1  0  0  0
 20 19  1  0  0  0  0
 21 22  1  6  0  0  0
 21 20  1  0  0  0  0
 21 19  1  0  0  0  0
 23 27  1  0  0  0  0
 23 22  1  0  0  0  0
 24 27  1  0  0  0  0
 26 24  1  0  0  0  0
 27 28  1  1  0  0  0
 29 25  1  6  0  0  0
 29 26  1  0  0  0  0
 29 27  1  0  0  0  0
 30 31  2  0  0  0  0
 30  1  1  0  0  0  0
 32 30  1  0  0  0  0
 33 32  1  0  0  0  0
 34 36  1  0  0  0  0
 35 34  1  6  0  0  0
 35 37  1  0  0  0  0
 36 33  1  1  0  0  0
 36 37  1  0  0  0  0
 39 41  1  0  0  0  0
 39 40  1  0  0  0  0
 40 42  1  1  0  0  0
 41 38  1  6  0  0  0
 41 35  1  0  0  0  0
 41 40  1  0  0  0  0
 43 42  1  0  0  0  0
 43 44  1  0  0  0  0
 45 31  1  0  0  0  0
 46 50  1  0  0  0  0
 47 52  2  0  0  0  0
 48 49  1  0  0  0  0
 49 53  2  0  0  0  0
 50 45  1  6  0  0  0
 50 47  1  0  0  0  0
 51 46  2  0  0  0  0
 51 49  1  0  0  0  0
 53 52  1  0  0  0  0
M  END
>  <MODEL>
5

>  <REMARK>
 VINA RESULT:      -6.6      3.076     10.695
  Name = 
  20 active torsions:
  status: ('A' for Active; 'I' for Inactive)
    1  A    between atoms: C_1  and  C_8
    2  A    between atoms: C_2  and  O_10
    3  A    between atoms: C_2  and  C_30
    4  A    between atoms: C_4  and  C_46
    5  A    between atoms: C_6  and  C_11
    6  A    between atoms: C_6  and  C_40
    7  A    between atoms: C_7  and  C_20
    8  A    between atoms: C_7  and  C_37
    9  A    between atoms: C_8  and  C_21
   10  A    between atoms: C_11  and  C_22
   11  A    between atoms: S_12  and  C_23
   12  A    between atoms: S_12  and  C_27
   13  A    between atoms: N_18  and  C_28
   14  A    between atoms: N_18  and  N_49
   15  A    between atoms: C_20  and  C_50
   16  A    between atoms: C_22  and  C_42
   17  A    between atoms: C_23  and  N_41
   18  A    between atoms: N_24  and  C_44
   19  A    between atoms: C_27  and  C_40
   20  A    between atoms: C_33  and  C_51
                            x       y       z     vdW  Elec       q    Type
                         _______ _______ _______ _____ _____    ______ ____

>  <TORSDO>
F 20

$$$$
=
 OpenBabel11062414033D

 53 58  0  0  1  0  0  0  0  0999 V2000
  180.9860  178.6400  136.7600 C   0  0  0  0  0  0  0  0  0  0  0  0
  181.1020  179.0320  138.1860 C   0  0  0  0  0  0  0  0  0  0  0  0
  180.9440  180.3850  138.5090 C   0  0  0  0  0  3  0  0  0  0  0  0
  180.7820  179.7170  135.8280 C   0  0  0  0  0  3  0  0  0  0  0  0
  180.7070  181.3250  137.5390 C   0  0  0  0  0  3  0  0  0  0  0  0
  180.6180  180.9950  136.2520 N   0  0  0  0  0  0  0  0  0  0  0  0
  181.0590  178.2240  140.4090 O   0  0  0  0  0  0  0  0  0  0  0  0
  183.0190  177.7360  139.2320 N   0  0  0  0  0  2  0  0  0  0  0  0
  181.6900  178.3010  139.2970 C   0  0  0  0  0  0  0  0  0  0  0  0
  183.9170  177.5020  140.3710 C   0  0  0  0  0  2  0  0  0  0  0  0
  184.7310  179.0150  140.8730 S   0  0  0  0  0  0  0  0  0  0  0  0
  184.5420  178.3750  142.5770 C   0  0  0  0  0  2  0  0  0  0  0  0
  186.6980  177.4780  142.6850 O   0  0  0  0  0  1  0  0  0  0  0  0
  185.8870  178.4590  143.2220 C   0  0  2  0  0  3  0  0  0  0  0  0
  186.0300  178.7420  144.7440 C   0  0  0  0  0  2  0  0  0  0  0  0
  184.9990  178.3270  145.7330 C   0  0  2  0  0  3  0  0  0  0  0  0
  184.1040  179.3700  145.8060 O   0  0  0  0  0  1  0  0  0  0  0  0
  185.7230  178.1340  146.9790 C   0  0  0  0  0  2  0  0  0  0  0  0
  187.6480  178.0940  148.5270 C   0  0  0  0  0  2  0  0  0  0  0  0
  187.2080  178.3130  147.0420 C   0  0  1  0  0  3  0  0  0  0  0  0
  187.8800  176.9720  147.4780 C   0  0  1  0  0  3  0  0  0  0  0  0
  189.3710  177.0070  147.1400 C   0  0  0  0  0  2  0  0  0  0  0  0
  189.6610  177.8560  145.8550 C   0  0  0  0  0  2  0  0  0  0  0  0
  189.9520  176.4520  143.7010 C   0  0  0  0  0  2  0  0  0  0  0  0
  190.9710  179.7130  143.9680 C   0  0  0  0  0  1  0  0  0  0  0  0
  190.6930  177.4010  142.7660 C   0  0  0  0  0  2  0  0  0  0  0  0
  190.6890  177.1380  144.8930 C   0  0  2  0  0  0  0  0  0  0  0  0
  191.7070  176.1520  145.4660 C   0  0  0  0  0  1  0  0  0  0  0  0
  191.3340  178.1780  143.9240 C   0  0  2  0  0  3  0  0  0  0  0  0
  181.1060  177.2530  136.1950 C   0  0  0  0  0  0  0  0  0  0  0  0
  180.0910  176.4370  136.3490 N   0  0  0  0  0  0  0  0  0  0  0  0
  182.4820  176.9160  135.5200 C   0  0  0  0  0  2  0  0  0  0  0  0
  183.5790  176.2280  136.1490 C   0  0  0  0  0  2  0  0  0  0  0  0
  185.8340  175.1410  135.9810 C   0  0  0  0  0  2  0  0  0  0  0  0
  186.7640  175.9070  136.8680 N   0  0  2  0  0  0  0  0  0  0  0  0
  185.0350  176.3870  135.5970 C   0  0  2  0  0  3  0  0  0  0  0  0
  186.0720  177.1320  136.4200 C   0  0  0  0  0  2  0  0  0  0  0  0
  188.4690  176.0360  135.0740 O   0  0  0  0  0  1  0  0  0  0  0  0
  189.0310  175.1170  137.1130 O   0  0  0  0  0  0  0  0  0  0  0  0
  189.2230  176.4660  137.1960 C   0  0  1  0  0  3  0  0  0  0  0  0
  188.1240  175.8330  136.3890 C   0  0  2  0  0  0  0  0  0  0  0  0
  189.2260  176.8250  138.6510 C   0  0  0  0  0  2  0  0  0  0  0  0
  190.1870  176.0680  139.3430 O   0  0  0  0  0  0  0  0  0  0  0  0
  191.3750  176.7430  138.9450 C   0  0  0  0  0  1  0  0  0  0  0  0
  179.9780  175.0800  135.8750 N   0  0  0  0  0  2  0  0  0  0  0  0
  180.9810  173.6280  137.4560 C   0  0  0  0  0  3  0  0  0  0  0  0
  179.0530  172.8080  135.8600 C   0  0  0  0  0  3  0  0  0  0  0  0
  183.7540  171.7240  135.2950 Cl  0  0  0  0  0  0  0  0  0  0  0  0
  182.1310  172.2520  135.7040 C   0  0  0  0  0  0  0  0  0  0  0  0
  179.7030  173.9350  136.7030 C   0  0  2  0  0  3  0  0  0  0  0  0
  182.0630  173.0080  137.0010 C   0  0  0  0  0  3  0  0  0  0  0  0
  179.6730  171.9500  135.0580 C   0  0  0  0  0  3  0  0  0  0  0  0
  181.1380  171.8120  134.9400 C   0  0  0  0  0  3  0  0  0  0  0  0
  1  2  1  0  0  0  0
  2  3  2  0  0  0  0
  2  9  1  0  0  0  0
  4  6  1  0  0  0  0
  4  1  2  0  0  0  0
  5  3  1  0  0  0  0
  6  5  2  0  0  0  0
  8  9  1  0  0  0  0
  8 10  1  0  0  0  0
  9  7  2  0  0  0  0
 10 11  1  0  0  0  0
 11 12  1  0  0  0  0
 12 14  1  0  0  0  0
 14 13  1  1  0  0  0
 14 15  1  0  0  0  0
 15 16  1  0  0  0  0
 16 17  1  1  0  0  0
 16 18  1  0  0  0  0
 20 18  1  1  0  0  0
 20 21  1  0  0  0  0
 20 19  1  0  0  0  0
 21 22  1  6  0  0  0
 21 19  1  0  0  0  0
 23 22  1  0  0  0  0
 24 27  1  0  0  0  0
 26 24  1  0  0  0  0
 26 29  1  0  0  0  0
 27 28  1  1  0  0  0
 27 23  1  0  0  0  0
 29 25  1  1  0  0  0
 29 27  1  0  0  0  0
 30 31  2  0  0  0  0
 30  1  1  0  0  0  0
 32 33  1  0  0  0  0
 32 30  1  0  0  0  0
 35 34  1  6  0  0  0
 36 34  1  0  0  0  0
 36 33  1  1  0  0  0
 36 37  1  0  0  0  0
 37 35  1  0  0  0  0
 39 40  1  0  0  0  0
 40 42  1  1  0  0  0
 41 38  1  6  0  0  0
 41 35  1  0  0  0  0
 41 39  1  0  0  0  0
 41 40  1  0  0  0  0
 42 43  1  0  0  0  0
 44 43  1  0  0  0  0
 45 31  1  0  0  0  0
 47 50  1  0  0  0  0
 48 49  1  0  0  0  0
 49 51  1  0  0  0  0
 50 45  1  6  0  0  0
 50 46  1  0  0  0  0
 51 46  2  0  0  0  0
 52 47  2  0  0  0  0
 53 52  1  0  0  0  0
 53 49  2  0  0  0  0
M  END
>  <MODEL>
6

>  <REMARK>
 VINA RESULT:      -6.3      2.979      9.386
  Name = 
  20 active torsions:
  status: ('A' for Active; 'I' for Inactive)
    1  A    between atoms: C_1  and  C_8
    2  A    between atoms: C_2  and  O_10
    3  A    between atoms: C_2  and  C_30
    4  A    between atoms: C_4  and  C_46
    5  A    between atoms: C_6  and  C_11
    6  A    between atoms: C_6  and  C_40
    7  A    between atoms: C_7  and  C_20
    8  A    between atoms: C_7  and  C_37
    9  A    between atoms: C_8  and  C_21
   10  A    between atoms: C_11  and  C_22
   11  A    between atoms: S_12  and  C_23
   12  A    between atoms: S_12  and  C_27
   13  A    between atoms: N_18  and  C_28
   14  A    between atoms: N_18  and  N_49
   15  A    between atoms: C_20  and  C_50
   16  A    between atoms: C_22  and  C_42
   17  A    between atoms: C_23  and  N_41
   18  A    between atoms: N_24  and  C_44
   19  A    between atoms: C_27  and  C_40
   20  A    between atoms: C_33  and  C_51
                            x       y       z     vdW  Elec       q    Type
                         _______ _______ _______ _____ _____    ______ ____

>  <TORSDO>
F 20

$$$$
=
 OpenBabel11062414033D

 53 58  0  0  1  0  0  0  0  0999 V2000
  187.0050  177.8580  144.0110 C   0  0  0  0  0  0  0  0  0  0  0  0
  185.7930  178.6200  143.6210 C   0  0  0  0  0  0  0  0  0  0  0  0
  184.9000  178.9950  144.6320 C   0  0  0  0  0  3  0  0  0  0  0  0
  187.1120  177.5200  145.4040 C   0  0  0  0  0  3  0  0  0  0  0  0
  185.1250  178.6550  145.9420 C   0  0  0  0  0  3  0  0  0  0  0  0
  186.1980  177.9560  146.3080 N   0  0  0  0  0  0  0  0  0  0  0  0
  185.4900  179.7720  141.5760 O   0  0  0  0  0  0  0  0  0  0  0  0
  184.1470  177.8760  141.8360 N   0  0  0  0  0  2  0  0  0  0  0  0
  185.1800  178.7690  142.3100 C   0  0  0  0  0  0  0  0  0  0  0  0
  183.0940  178.2070  140.8670 C   0  0  0  0  0  2  0  0  0  0  0  0
  183.0710  177.0370  139.5120 S   0  0  0  0  0  0  0  0  0  0  0  0
  181.8320  178.1560  138.7630 C   0  0  0  0  0  2  0  0  0  0  0  0
  180.4470  178.3120  136.8860 O   0  0  0  0  0  1  0  0  0  0  0  0
  181.2570  177.4380  137.5860 C   0  0  2  0  0  3  0  0  0  0  0  0
  180.7760  175.9640  137.7030 C   0  0  0  0  0  2  0  0  0  0  0  0
  179.3660  175.6080  138.0180 C   0  0  2  0  0  3  0  0  0  0  0  0
  179.1400  176.0570  139.2980 O   0  0  0  0  0  1  0  0  0  0  0  0
  179.3110  174.1580  137.9240 C   0  0  0  0  0  2  0  0  0  0  0  0
  180.1280  171.8500  137.5940 C   0  0  0  0  0  2  0  0  0  0  0  0
  180.5370  173.3600  137.6050 C   0  0  1  0  0  3  0  0  0  0  0  0
  180.3350  172.6050  136.2530 C   0  0  1  0  0  3  0  0  0  0  0  0
  181.6890  172.1470  135.7090 C   0  0  0  0  0  2  0  0  0  0  0  0
  182.7910  172.1280  136.8230 C   0  0  0  0  0  2  0  0  0  0  0  0
  184.9270  173.2830  137.7170 C   0  0  0  0  0  2  0  0  0  0  0  0
  184.9870  170.7860  135.3700 C   0  0  0  0  0  1  0  0  0  0  0  0
  186.0400  172.6300  136.9050 C   0  0  0  0  0  2  0  0  0  0  0  0
  183.9920  173.0970  136.4810 C   0  0  2  0  0  0  0  0  0  0  0  0
  183.7110  174.4720  135.8740 C   0  0  0  0  0  1  0  0  0  0  0  0
  185.1120  172.3190  135.7230 C   0  0  2  0  0  3  0  0  0  0  0  0
  188.0940  177.3720  143.0970 C   0  0  0  0  0  0  0  0  0  0  0  0
  188.9170  176.4580  143.5540 N   0  0  0  0  0  0  0  0  0  0  0  0
  188.1560  178.0680  141.6920 C   0  0  0  0  0  2  0  0  0  0  0  0
  187.6820  177.5040  140.4550 C   0  0  0  0  0  2  0  0  0  0  0  0
  187.7420  177.0900  137.9800 C   0  0  0  0  0  2  0  0  0  0  0  0
  189.1250  176.6330  137.6400 N   0  0  2  0  0  0  0  0  0  0  0  0
  188.2310  178.0280  139.0860 C   0  0  2  0  0  3  0  0  0  0  0  0
  189.6190  177.6160  138.6260 C   0  0  0  0  0  2  0  0  0  0  0  0
  189.4180  178.2740  135.8060 O   0  0  0  0  0  1  0  0  0  0  0  0
  189.4210  176.0190  135.3250 O   0  0  0  0  0  0  0  0  0  0  0  0
  190.6950  176.3760  135.6560 C   0  0  1  0  0  3  0  0  0  0  0  0
  189.4740  176.9860  136.2840 C   0  0  2  0  0  0  0  0  0  0  0  0
  191.4200  175.1230  136.0460 C   0  0  0  0  0  2  0  0  0  0  0  0
  192.6480  175.4340  136.6560 O   0  0  0  0  0  0  0  0  0  0  0  0
  192.7620  174.3430  137.5630 C   0  0  0  0  0  1  0  0  0  0  0  0
  190.0120  175.8370  142.8520 N   0  0  0  0  0  2  0  0  0  0  0  0
  191.8900  175.4520  144.2440 C   0  0  0  0  0  3  0  0  0  0  0  0
  191.5780  177.7230  142.9470 C   0  0  0  0  0  3  0  0  0  0  0  0
  190.8040  177.1330  147.7050 Cl  0  0  0  0  0  0  0  0  0  0  0  0
  191.1410  177.0950  145.9840 C   0  0  0  0  0  0  0  0  0  0  0  0
  191.4000  176.1840  143.0110 C   0  0  2  0  0  3  0  0  0  0  0  0
  191.6890  175.7760  145.5160 C   0  0  0  0  0  3  0  0  0  0  0  0
  191.3550  178.5960  143.9220 C   0  0  0  0  0  3  0  0  0  0  0  0
  191.0360  178.2400  145.3190 C   0  0  0  0  0  3  0  0  0  0  0  0
  1  4  1  0  0  0  0
  2  1  2  0  0  0  0
  2  3  1  0  0  0  0
  3  5  2  0  0  0  0
  4  6  2  0  0  0  0
  5  6  1  0  0  0  0
  7  9  2  0  0  0  0
  8  9  1  0  0  0  0
  9  2  1  0  0  0  0
 10  8  1  0  0  0  0
 11 10  1  0  0  0  0
 12 11  1  0  0  0  0
 14 13  1  1  0  0  0
 14 15  1  0  0  0  0
 14 12  1  0  0  0  0
 15 16  1  0  0  0  0
 16 17  1  1  0  0  0
 18 16  1  0  0  0  0
 19 20  1  0  0  0  0
 20 18  1  6  0  0  0
 21 22  1  1  0  0  0
 21 19  1  0  0  0  0
 21 20  1  0  0  0  0
 22 23  1  0  0  0  0
 26 24  1  0  0  0  0
 27 28  1  6  0  0  0
 27 23  1  0  0  0  0
 27 24  1  0  0  0  0
 29 25  1  1  0  0  0
 29 27  1  0  0  0  0
 29 26  1  0  0  0  0
 30 31  2  0  0  0  0
 30  1  1  0  0  0  0
 32 30  1  0  0  0  0
 33 32  1  0  0  0  0
 34 36  1  0  0  0  0
 35 34  1  6  0  0  0
 35 37  1  0  0  0  0
 36 33  1  1  0  0  0
 37 36  1  0  0  0  0
 39 40  1  0  0  0  0
 39 41  1  0  0  0  0
 40 42  1  1  0  0  0
 40 41  1  0  0  0  0
 41 38  1  6  0  0  0
 41 35  1  0  0  0  0
 42 43  1  0  0  0  0
 43 44  1  0  0  0  0
 45 31  1  0  0  0  0
 46 51  2  0  0  0  0
 47 50  1  0  0  0  0
 47 52  2  0  0  0  0
 49 48  1  0  0  0  0
 50 45  1  1  0  0  0
 50 46  1  0  0  0  0
 51 49  1  0  0  0  0
 52 53  1  0  0  0  0
 53 49  2  0  0  0  0
M  END
>  <MODEL>
7

>  <REMARK>
 VINA RESULT:      -6.2      3.085      6.001
  Name = 
  20 active torsions:
  status: ('A' for Active; 'I' for Inactive)
    1  A    between atoms: C_1  and  C_8
    2  A    between atoms: C_2  and  O_10
    3  A    between atoms: C_2  and  C_30
    4  A    between atoms: C_4  and  C_46
    5  A    between atoms: C_6  and  C_11
    6  A    between atoms: C_6  and  C_40
    7  A    between atoms: C_7  and  C_20
    8  A    between atoms: C_7  and  C_37
    9  A    between atoms: C_8  and  C_21
   10  A    between atoms: C_11  and  C_22
   11  A    between atoms: S_12  and  C_23
   12  A    between atoms: S_12  and  C_27
   13  A    between atoms: N_18  and  C_28
   14  A    between atoms: N_18  and  N_49
   15  A    between atoms: C_20  and  C_50
   16  A    between atoms: C_22  and  C_42
   17  A    between atoms: C_23  and  N_41
   18  A    between atoms: N_24  and  C_44
   19  A    between atoms: C_27  and  C_40
   20  A    between atoms: C_33  and  C_51
                            x       y       z     vdW  Elec       q    Type
                         _______ _______ _______ _____ _____    ______ ____

>  <TORSDO>
F 20

$$$$
=
 OpenBabel11062414033D

 53 58  0  0  1  0  0  0  0  0999 V2000
  186.8020  177.7700  143.5360 C   0  0  0  0  0  0  0  0  0  0  0  0
  185.7350  178.6470  142.9940 C   0  0  0  0  0  0  0  0  0  0  0  0
  184.8060  179.1830  143.8940 C   0  0  0  0  0  3  0  0  0  0  0  0
  186.7370  177.5030  144.9470 C   0  0  0  0  0  3  0  0  0  0  0  0
  184.8660  178.8960  145.2330 C   0  0  0  0  0  3  0  0  0  0  0  0
  185.8060  178.0960  145.7350 N   0  0  0  0  0  0  0  0  0  0  0  0
  185.8240  179.6510  140.8530 O   0  0  0  0  0  0  0  0  0  0  0  0
  184.1240  178.0670  141.1180 N   0  0  0  0  0  2  0  0  0  0  0  0
  185.2690  178.7910  141.6240 C   0  0  0  0  0  0  0  0  0  0  0  0
  183.2360  178.5020  140.0320 C   0  0  0  0  0  2  0  0  0  0  0  0
  181.5650  178.7470  140.6240 S   0  0  0  0  0  0  0  0  0  0  0  0
  181.4010  176.9320  140.4660 C   0  0  0  0  0  2  0  0  0  0  0  0
  179.8030  175.3260  139.8900 O   0  0  0  0  0  1  0  0  0  0  0  0
  180.0940  176.6730  139.7900 C   0  0  2  0  0  3  0  0  0  0  0  0
  179.7280  177.3800  138.4540 C   0  0  0  0  0  2  0  0  0  0  0  0
  179.8670  176.7110  137.1330 C   0  0  2  0  0  3  0  0  0  0  0  0
  181.1290  176.1630  137.1170 O   0  0  0  0  0  1  0  0  0  0  0  0
  179.7140  177.7710  136.1510 C   0  0  0  0  0  2  0  0  0  0  0  0
  181.3730  179.0840  134.8750 C   0  0  0  0  0  2  0  0  0  0  0  0
  180.5630  179.0030  136.2110 C   0  0  1  0  0  3  0  0  0  0  0  0
  180.1300  179.9930  135.0820 C   0  0  1  0  0  3  0  0  0  0  0  0
  180.6710  181.3910  135.3850 C   0  0  0  0  0  2  0  0  0  0  0  0
  179.5410  182.3640  135.8700 C   0  0  0  0  0  2  0  0  0  0  0  0
  181.2840  182.5580  137.7720 C   0  0  0  0  0  2  0  0  0  0  0  0
  180.8160  184.9880  135.4010 C   0  0  0  0  0  1  0  0  0  0  0  0
  181.8780  183.9450  137.5570 C   0  0  0  0  0  2  0  0  0  0  0  0
  179.9370  183.1080  137.2060 C   0  0  2  0  0  0  0  0  0  0  0  0
  178.9310  183.2000  138.3530 C   0  0  0  0  0  1  0  0  0  0  0  0
  180.6090  184.4780  136.8800 C   0  0  2  0  0  3  0  0  0  0  0  0
  187.9030  177.1050  142.7580 C   0  0  0  0  0  0  0  0  0  0  0  0
  188.8480  176.4950  143.4300 N   0  0  0  0  0  0  0  0  0  0  0  0
  187.8200  177.2700  141.1990 C   0  0  0  0  0  2  0  0  0  0  0  0
  188.8960  177.6900  140.3410 C   0  0  0  0  0  2  0  0  0  0  0  0
  187.2700  177.7150  138.4300 C   0  0  0  0  0  2  0  0  0  0  0  0
  187.9200  177.0040  137.2850 N   0  0  2  0  0  0  0  0  0  0  0  0
  188.5930  178.2980  138.9310 C   0  0  2  0  0  3  0  0  0  0  0  0
  189.1850  177.6490  137.6910 C   0  0  0  0  0  2  0  0  0  0  0  0
  188.2020  178.2270  135.1490 O   0  0  0  0  0  1  0  0  0  0  0  0
  186.0850  177.6470  135.8560 O   0  0  0  0  0  0  0  0  0  0  0  0
  186.5940  176.5930  135.1550 C   0  0  1  0  0  3  0  0  0  0  0  0
  187.4300  177.4940  136.0190 C   0  0  2  0  0  0  0  0  0  0  0  0
  185.8140  175.3760  135.5520 C   0  0  0  0  0  2  0  0  0  0  0  0
  186.6590  174.2570  135.6420 O   0  0  0  0  0  0  0  0  0  0  0  0
  186.2790  173.7550  136.9190 C   0  0  0  0  0  1  0  0  0  0  0  0
  189.9800  175.7790  142.8960 N   0  0  0  0  0  2  0  0  0  0  0  0
  191.9670  175.4610  144.1460 C   0  0  0  0  0  3  0  0  0  0  0  0
  191.4230  177.7610  142.9850 C   0  0  0  0  0  3  0  0  0  0  0  0
  191.0070  176.9060  147.7480 Cl  0  0  0  0  0  0  0  0  0  0  0  0
  191.2310  176.9690  146.0090 C   0  0  0  0  0  0  0  0  0  0  0  0
  191.3500  176.2130  142.9840 C   0  0  2  0  0  3  0  0  0  0  0  0
  191.8310  175.7130  145.4420 C   0  0  0  0  0  3  0  0  0  0  0  0
  191.2080  178.5730  144.0140 C   0  0  0  0  0  3  0  0  0  0  0  0
  191.0070  178.1320  145.4090 C   0  0  0  0  0  3  0  0  0  0  0  0
  1  4  1  0  0  0  0
  2  1  2  0  0  0  0
  2  3  1  0  0  0  0
  3  5  2  0  0  0  0
  4  6  2  0  0  0  0
  5  6  1  0  0  0  0
  7  9  2  0  0  0  0
  8  9  1  0  0  0  0
  9  2  1  0  0  0  0
 10 11  1  0  0  0  0
 10  8  1  0  0  0  0
 12 11  1  0  0  0  0
 14 13  1  6  0  0  0
 14 12  1  0  0  0  0
 15 14  1  0  0  0  0
 16 17  1  1  0  0  0
 16 15  1  0  0  0  0
 18 16  1  0  0  0  0
 19 21  1  0  0  0  0
 19 20  1  0  0  0  0
 20 18  1  6  0  0  0
 21 22  1  1  0  0  0
 21 20  1  0  0  0  0
 22 23  1  0  0  0  0
 23 27  1  0  0  0  0
 26 24  1  0  0  0  0
 27 24  1  0  0  0  0
 27 28  1  1  0  0  0
 29 25  1  6  0  0  0
 29 27  1  0  0  0  0
 29 26  1  0  0  0  0
 30 31  2  0  0  0  0
 30  1  1  0  0  0  0
 32 30  1  0  0  0  0
 33 32  1  0  0  0  0
 34 36  1  0  0  0  0
 35 37  1  6  0  0  0
 35 34  1  0  0  0  0
 36 33  1  1  0  0  0
 37 36  1  0  0  0  0
 39 41  1  0  0  0  0
 40 42  1  1  0  0  0
 40 39  1  0  0  0  0
 40 41  1  0  0  0  0
 41 38  1  6  0  0  0
 41 35  1  0  0  0  0
 42 43  1  0  0  0  0
 43 44  1  0  0  0  0
 45 31  1  0  0  0  0
 46 51  2  0  0  0  0
 47 52  2  0  0  0  0
 49 48  1  0  0  0  0
 50 45  1  1  0  0  0
 50 47  1  0  0  0  0
 50 46  1  0  0  0  0
 51 49  1  0  0  0  0
 52 53  1  0  0  0  0
 53 49  2  0  0  0  0
M  END
>  <MODEL>
8

>  <REMARK>
 VINA RESULT:      -6.1      3.450      7.829
  Name = 
  20 active torsions:
  status: ('A' for Active; 'I' for Inactive)
    1  A    between atoms: C_1  and  C_8
    2  A    between atoms: C_2  and  O_10
    3  A    between atoms: C_2  and  C_30
    4  A    between atoms: C_4  and  C_46
    5  A    between atoms: C_6  and  C_11
    6  A    between atoms: C_6  and  C_40
    7  A    between atoms: C_7  and  C_20
    8  A    between atoms: C_7  and  C_37
    9  A    between atoms: C_8  and  C_21
   10  A    between atoms: C_11  and  C_22
   11  A    between atoms: S_12  and  C_23
   12  A    between atoms: S_12  and  C_27
   13  A    between atoms: N_18  and  C_28
   14  A    between atoms: N_18  and  N_49
   15  A    between atoms: C_20  and  C_50
   16  A    between atoms: C_22  and  C_42
   17  A    between atoms: C_23  and  N_41
   18  A    between atoms: N_24  and  C_44
   19  A    between atoms: C_27  and  C_40
   20  A    between atoms: C_33  and  C_51
                            x       y       z     vdW  Elec       q    Type
                         _______ _______ _______ _____ _____    ______ ____

>  <TORSDO>
F 20

$$$$
=
 OpenBabel11062414033D

 53 58  0  0  1  0  0  0  0  0999 V2000
  190.6610  175.1360  137.3480 C   0  0  0  0  0  0  0  0  0  0  0  0
  191.3890  176.0810  138.2300 C   0  0  0  0  0  0  0  0  0  0  0  0
  192.7810  175.9570  138.3180 C   0  0  0  0  0  3  0  0  0  0  0  0
  191.4650  174.1300  136.7080 C   0  0  0  0  0  3  0  0  0  0  0  0
  193.4530  174.9830  137.6250 C   0  0  0  0  0  3  0  0  0  0  0  0
  192.8140  174.1150  136.8430 N   0  0  0  0  0  0  0  0  0  0  0  0
  191.4890  178.0070  139.6020 O   0  0  0  0  0  0  0  0  0  0  0  0
  189.7510  176.5310  140.1190 N   0  0  0  0  0  2  0  0  0  0  0  0
  190.8780  176.9220  139.3010 C   0  0  0  0  0  0  0  0  0  0  0  0
  189.5000  176.9500  141.5030 C   0  0  0  0  0  2  0  0  0  0  0  0
  190.5000  176.0120  142.6540 S   0  0  0  0  0  0  0  0  0  0  0  0
  191.3850  177.5880  142.9380 C   0  0  0  0  0  2  0  0  0  0  0  0
  192.0540  178.9600  144.7090 O   0  0  0  0  0  1  0  0  0  0  0  0
  191.1750  177.9490  144.3730 C   0  0  2  0  0  3  0  0  0  0  0  0
  190.9130  176.8530  145.4450 C   0  0  0  0  0  2  0  0  0  0  0  0
  190.9750  177.1330  146.9040 C   0  0  2  0  0  3  0  0  0  0  0  0
  191.3980  175.9640  147.4950 O   0  0  0  0  0  1  0  0  0  0  0  0
  189.6170  177.4820  147.2830 C   0  0  0  0  0  2  0  0  0  0  0  0
  187.2140  177.8780  146.8610 C   0  0  0  0  0  2  0  0  0  0  0  0
  188.4450  176.9870  146.4920 C   0  0  1  0  0  3  0  0  0  0  0  0
  187.9590  178.1060  145.5170 C   0  0  1  0  0  3  0  0  0  0  0  0
  187.0730  177.4960  144.4300 C   0  0  0  0  0  2  0  0  0  0  0  0
  185.5890  177.9840  144.5420 C   0  0  0  0  0  2  0  0  0  0  0  0
  184.7490  177.8720  142.0970 C   0  0  0  0  0  2  0  0  0  0  0  0
  182.7970  178.9390  144.7050 C   0  0  0  0  0  1  0  0  0  0  0  0
  183.3360  178.4360  142.1910 C   0  0  0  0  0  2  0  0  0  0  0  0
  185.1440  178.8170  143.2750 C   0  0  2  0  0  0  0  0  0  0  0  0
  186.0540  179.9180  142.7300 C   0  0  0  0  0  1  0  0  0  0  0  0
  183.6610  179.2800  143.4300 C   0  0  2  0  0  3  0  0  0  0  0  0
  189.1800  175.1000  137.0960 C   0  0  0  0  0  0  0  0  0  0  0  0
  188.4840  176.1780  137.3630 N   0  0  0  0  0  0  0  0  0  0  0  0
  188.6180  173.7270  136.5840 C   0  0  0  0  0  2  0  0  0  0  0  0
  188.1420  173.4600  135.2520 C   0  0  0  0  0  2  0  0  0  0  0  0
  185.8000  172.8430  134.5960 C   0  0  0  0  0  2  0  0  0  0  0  0
  185.1260  172.2970  135.8150 N   0  0  2  0  0  0  0  0  0  0  0  0
  187.1630  172.2680  134.9860 C   0  0  2  0  0  3  0  0  0  0  0  0
  186.4080  171.6430  136.1470 C   0  0  0  0  0  2  0  0  0  0  0  0
  184.3640  170.0520  135.0950 O   0  0  0  0  0  1  0  0  0  0  0  0
  182.8900  171.8240  135.0430 O   0  0  0  0  0  0  0  0  0  0  0  0
  182.8450  171.2810  136.2940 C   0  0  1  0  0  3  0  0  0  0  0  0
  184.0960  171.3490  135.4640 C   0  0  2  0  0  0  0  0  0  0  0  0
  182.2730  172.3220  137.2090 C   0  0  0  0  0  2  0  0  0  0  0  0
  181.0290  172.7680  136.7310 O   0  0  0  0  0  0  0  0  0  0  0  0
  180.8410  173.9160  137.5510 C   0  0  0  0  0  1  0  0  0  0  0  0
  187.0680  176.3740  137.1810 N   0  0  0  0  0  2  0  0  0  0  0  0
  185.8720  178.3090  137.8430 C   0  0  0  0  0  3  0  0  0  0  0  0
  185.5240  177.2170  135.4710 C   0  0  0  0  0  3  0  0  0  0  0  0
  182.4120  176.8160  139.1800 Cl  0  0  0  0  0  0  0  0  0  0  0  0
  183.6810  177.0990  138.0010 C   0  0  0  0  0  0  0  0  0  0  0  0
  186.4580  177.5680  136.6580 C   0  0  2  0  0  3  0  0  0  0  0  0
  184.7430  178.0460  138.4890 C   0  0  0  0  0  3  0  0  0  0  0  0
  184.2870  176.7400  135.5410 C   0  0  0  0  0  3  0  0  0  0  0  0
  183.5040  176.5980  136.7850 C   0  0  0  0  0  3  0  0  0  0  0  0
  1  2  1  0  0  0  0
  2  3  2  0  0  0  0
  2  9  1  0  0  0  0
  4  6  1  0  0  0  0
  4  1  2  0  0  0  0
  5  3  1  0  0  0  0
  6  5  2  0  0  0  0
  8 10  1  0  0  0  0
  9  7  2  0  0  0  0
  9  8  1  0  0  0  0
 10 11  1  0  0  0  0
 11 12  1  0  0  0  0
 12 14  1  0  0  0  0
 14 13  1  1  0  0  0
 14 15  1  0  0  0  0
 15 16  1  0  0  0  0
 16 18  1  0  0  0  0
 16 17  1  1  0  0  0
 20 19  1  0  0  0  0
 20 18  1  1  0  0  0
 21 22  1  6  0  0  0
 21 20  1  0  0  0  0
 21 19  1  0  0  0  0
 22 23  1  0  0  0  0
 24 26  1  0  0  0  0
 24 27  1  0  0  0  0
 26 29  1  0  0  0  0
 27 28  1  6  0  0  0
 27 29  1  0  0  0  0
 27 23  1  0  0  0  0
 29 25  1  1  0  0  0
 30  1  1  0  0  0  0
 30 31  2  0  0  0  0
 32 30  1  0  0  0  0
 33 32  1  0  0  0  0
 34 36  1  0  0  0  0
 35 34  1  6  0  0  0
 35 37  1  0  0  0  0
 36 33  1  1  0  0  0
 36 37  1  0  0  0  0
 39 41  1  0  0  0  0
 39 40  1  0  0  0  0
 40 42  1  1  0  0  0
 41 38  1  6  0  0  0
 41 35  1  0  0  0  0
 41 40  1  0  0  0  0
 43 42  1  0  0  0  0
 43 44  1  0  0  0  0
 45 31  1  0  0  0  0
 46 51  2  0  0  0  0
 47 52  2  0  0  0  0
 47 50  1  0  0  0  0
 49 51  1  0  0  0  0
 49 48  1  0  0  0  0
 50 45  1  1  0  0  0
 50 46  1  0  0  0  0
 52 53  1  0  0  0  0
 53 49  2  0  0  0  0
M  END
>  <MODEL>
9

>  <REMARK>
 VINA RESULT:      -5.8      3.465     10.544
  Name = 
  20 active torsions:
  status: ('A' for Active; 'I' for Inactive)
    1  A    between atoms: C_1  and  C_8
    2  A    between atoms: C_2  and  O_10
    3  A    between atoms: C_2  and  C_30
    4  A    between atoms: C_4  and  C_46
    5  A    between atoms: C_6  and  C_11
    6  A    between atoms: C_6  and  C_40
    7  A    between atoms: C_7  and  C_20
    8  A    between atoms: C_7  and  C_37
    9  A    between atoms: C_8  and  C_21
   10  A    between atoms: C_11  and  C_22
   11  A    between atoms: S_12  and  C_23
   12  A    between atoms: S_12  and  C_27
   13  A    between atoms: N_18  and  C_28
   14  A    between atoms: N_18  and  N_49
   15  A    between atoms: C_20  and  C_50
   16  A    between atoms: C_22  and  C_42
   17  A    between atoms: C_23  and  N_41
   18  A    between atoms: N_24  and  C_44
   19  A    between atoms: C_27  and  C_40
   20  A    between atoms: C_33  and  C_51
                            x       y       z     vdW  Elec       q    Type
                         _______ _______ _______ _____ _____    ______ ____

>  <TORSDO>
F 20

$$$$
