=
 OpenBabel11062417463D

 39 45  0  0  1  0  0  0  0  0999 V2000
  189.3540  177.9700  144.5740 C   0  0  0  0  0  2  0  0  0  0  0  0
  187.3130  178.3290  146.9150 N   0  0  0  0  0  2  0  0  0  0  0  0
  188.2760  177.2600  145.2860 N   0  0  1  0  0  0  0  0  0  0  0  0
  191.9530  175.4390  145.3970 N   0  0  0  0  0  2  0  0  0  0  0  0
  189.6880  177.7980  147.3640 C   0  0  0  0  0  2  0  0  0  0  0  0
  190.8110  176.7730  147.1530 C   0  0  0  0  0  2  0  0  0  0  0  0
  190.7820  176.2200  145.7330 C   0  0  1  0  0  3  0  0  0  0  0  0
  188.3480  177.3240  146.7620 C   0  0  2  0  0  0  0  0  0  0  0  0
  187.2140  178.2450  145.4600 C   0  0  1  0  0  0  0  0  0  0  0  0
  192.0480  175.4730  143.9860 N   0  0  0  0  0  2  0  0  0  0  0  0
  190.7360  177.3100  144.7170 C   0  0  1  0  0  3  0  0  0  0  0  0
  191.2070  176.5720  143.5010 C   0  0  1  0  0  3  0  0  0  0  0  0
  185.8620  177.6590  145.0460 C   0  0  2  0  0  3  0  0  0  0  0  0
  184.6120  179.3410  143.7870 C   0  0  2  0  0  3  0  0  0  0  0  0
  185.8860  177.2680  143.5800 C   0  0  0  0  0  2  0  0  0  0  0  0
  185.2980  178.4260  142.7910 C   0  0  1  0  0  3  0  0  0  0  0  0
  184.7830  178.7180  145.1600 C   0  0  0  0  0  2  0  0  0  0  0  0
  183.7850  178.4230  142.9060 C   0  0  2  0  0  3  0  0  0  0  0  0
  181.6650  179.0110  141.6390 C   0  0  1  0  0  3  0  0  0  0  0  0
  183.1760  179.2240  141.7570 C   0  0  2  0  0  3  0  0  0  0  0  0
  181.9720  177.3550  140.0720 C   0  0  2  0  0  3  0  0  0  0  0  0
  181.3670  177.6720  141.3130 O   0  0  0  0  0  0  0  0  0  0  0  0
  183.3870  177.4440  140.1210 O   0  0  0  0  0  0  0  0  0  0  0  0
  183.7680  178.7700  140.4260 C   0  0  0  0  0  2  0  0  0  0  0  0
  181.8240  177.5210  137.6860 O   0  0  0  0  0  1  0  0  0  0  0  0
  181.3540  178.0830  138.8730 C   0  0  0  0  0  2  0  0  0  0  0  0
  180.9200  179.4380  142.8980 C   0  0  0  0  0  2  0  0  0  0  0  0
  179.6710  177.9080  144.2420 O   0  0  0  0  0  1  0  0  0  0  0  0
  179.6310  178.6490  143.0600 C   0  0  0  0  0  2  0  0  0  0  0  0
  192.0190  177.5030  142.6170 C   0  0  0  0  0  2  0  0  0  0  0  0
  191.3290  177.7140  141.2710 C   0  0  1  0  0  3  0  0  0  0  0  0
  193.5480  177.1310  140.5520 O   0  0  0  0  0  1  0  0  0  0  0  0
  191.7970  176.5530  139.2030 O   0  0  0  0  0  1  0  0  0  0  0  0
  192.2850  177.5120  140.0950 C   0  0  0  0  0  3  0  0  0  0  0  0
  190.1330  176.7810  141.1350 C   0  0  0  0  0  2  0  0  0  0  0  0
  188.8510  177.5650  140.8820 C   0  0  0  0  0  2  0  0  0  0  0  0
  188.7680  179.0580  139.0260 O   0  0  0  0  0  0  0  0  0  0  0  0
  188.6890  177.8690  139.4310 C   0  0  0  0  0  0  0  0  0  0  0  0
  188.4220  176.8210  138.5060 N   0  0  0  0  0  1  0  0  0  0  0  0
  3  1  1  6  0  0  0
  3  9  1  0  0  0  0
  3  8  1  0  0  0  0
  4  7  1  0  0  0  0
  6  5  1  0  0  0  0
  7  6  1  1  0  0  0
  8  2  1  0  0  0  0
  8  5  1  6  0  0  0
  9  8  1  0  0  0  0
  9  2  1  6  0  0  0
 10  4  1  0  0  0  0
 11  1  1  6  0  0  0
 11  7  1  0  0  0  0
 12 30  1  6  0  0  0
 12 10  1  0  0  0  0
 12 11  1  0  0  0  0
 13 15  1  6  0  0  0
 13 17  1  0  0  0  0
 13  9  1  0  0  0  0
 14 17  1  1  0  0  0
 16 18  1  0  0  0  0
 16 15  1  1  0  0  0
 16 14  1  0  0  0  0
 18 20  1  6  0  0  0
 18 14  1  0  0  0  0
 19 20  1  0  0  0  0
 19 27  1  1  0  0  0
 20 24  1  6  0  0  0
 21 26  1  6  0  0  0
 21 23  1  0  0  0  0
 21 22  1  0  0  0  0
 22 19  1  0  0  0  0
 23 24  1  0  0  0  0
 25 26  1  0  0  0  0
 27 29  1  0  0  0  0
 29 28  1  0  0  0  0
 31 35  1  6  0  0  0
 31 30  1  0  0  0  0
 33 34  1  0  0  0  0
 34 32  1  0  0  0  0
 34 31  1  0  0  0  0
 36 35  1  0  0  0  0
 37 38  2  0  0  0  0
 38 36  1  0  0  0  0
 39 38  1  0  0  0  0
M  END
>  <MODEL>
1

>  <REMARK>
 VINA RESULT:      -7.8      0.000      0.000
  Name = 
  11 active torsions:
  status: ('A' for Active; 'I' for Inactive)
    1  A    between atoms: C_2  and  C_28
    2  A    between atoms: C_7  and  C_8
    3  A    between atoms: C_7  and  C_27
    4  A    between atoms: C_9  and  C_21
    5  A    between atoms: C_10  and  C_11
    6  A    between atoms: C_10  and  C_12
    7  A    between atoms: C_11  and  C_34
    8  A    between atoms: C_12  and  C_36
    9  A    between atoms: C_12  and  C_37
   10  A    between atoms: C_24  and  C_30
   11  A    between atoms: C_36  and  C_38
                            x       y       z     vdW  Elec       q    Type
                         _______ _______ _______ _____ _____    ______ ____

>  <TORSDO>
F 11

$$$$
=
 OpenBabel11062417463D

 39 45  0  0  1  0  0  0  0  0999 V2000
  181.7340  178.1900  141.3160 C   0  0  0  0  0  2  0  0  0  0  0  0
  181.9590  178.7930  144.3770 N   0  0  0  0  0  2  0  0  0  0  0  0
  182.1860  179.2290  142.2600 N   0  0  1  0  0  0  0  0  0  0  0  0
  179.2140  180.3750  139.6690 N   0  0  0  0  0  2  0  0  0  0  0  0
  179.8000  179.0150  143.1870 C   0  0  0  0  0  2  0  0  0  0  0  0
  179.0480  179.7490  142.0670 C   0  0  0  0  0  2  0  0  0  0  0  0
  179.9340  179.9140  140.8380 C   0  0  1  0  0  3  0  0  0  0  0  0
  181.2430  179.5360  143.3560 C   0  0  2  0  0  0  0  0  0  0  0  0
  182.9110  178.5150  143.3040 C   0  0  1  0  0  0  0  0  0  0  0  0
  179.9830  179.9640  138.5560 N   0  0  0  0  0  2  0  0  0  0  0  0
  180.5570  178.6240  140.4280 C   0  0  1  0  0  3  0  0  0  0  0  0
  180.9240  178.9340  139.0090 C   0  0  1  0  0  3  0  0  0  0  0  0
  184.2540  179.1920  143.5890 C   0  0  2  0  0  3  0  0  0  0  0  0
  185.8110  177.5380  144.4930 C   0  0  2  0  0  3  0  0  0  0  0  0
  185.2570  178.8440  142.5050 C   0  0  0  0  0  2  0  0  0  0  0  0
  186.0760  177.6660  143.0050 C   0  0  1  0  0  3  0  0  0  0  0  0
  184.8470  178.6470  144.8730 C   0  0  0  0  0  2  0  0  0  0  0  0
  187.1160  178.1380  144.0040 C   0  0  2  0  0  3  0  0  0  0  0  0
  189.3500  177.5560  145.0610 C   0  0  1  0  0  3  0  0  0  0  0  0
  188.2330  177.1030  144.1200 C   0  0  2  0  0  3  0  0  0  0  0  0
  190.5640  178.3920  143.2940 C   0  0  2  0  0  3  0  0  0  0  0  0
  190.0020  178.7020  144.5570 O   0  0  0  0  0  0  0  0  0  0  0  0
  189.5800  178.0430  142.3340 O   0  0  0  0  0  0  0  0  0  0  0  0
  188.8920  176.8860  142.7610 C   0  0  0  0  0  2  0  0  0  0  0  0
  192.2500  177.2010  142.0780 O   0  0  0  0  0  1  0  0  0  0  0  0
  191.7350  177.4060  143.3580 C   0  0  0  0  0  2  0  0  0  0  0  0
  188.8500  177.8020  146.4790 C   0  0  0  0  0  2  0  0  0  0  0  0
  190.8830  176.6690  147.0160 O   0  0  0  0  0  1  0  0  0  0  0  0
  189.5900  176.9260  147.4760 C   0  0  0  0  0  2  0  0  0  0  0  0
  180.7840  177.6850  138.1560 C   0  0  0  0  0  2  0  0  0  0  0  0
  182.1270  176.9760  138.0040 C   0  0  1  0  0  3  0  0  0  0  0  0
  181.5500  174.6560  137.7540 O   0  0  0  0  0  1  0  0  0  0  0  0
  181.2300  176.0400  135.9640 O   0  0  0  0  0  1  0  0  0  0  0  0
  182.0420  175.7690  137.0700 C   0  0  0  0  0  3  0  0  0  0  0  0
  183.1870  177.9490  137.5020 C   0  0  0  0  0  2  0  0  0  0  0  0
  184.5720  177.5620  138.0070 C   0  0  0  0  0  2  0  0  0  0  0  0
  186.3780  178.5850  139.1780 O   0  0  0  0  0  0  0  0  0  0  0  0
  185.1840  178.6740  138.7900 C   0  0  0  0  0  0  0  0  0  0  0  0
  184.4160  179.8260  139.1160 N   0  0  0  0  0  1  0  0  0  0  0  0
  3  1  1  6  0  0  0
  3  9  1  0  0  0  0
  3  8  1  0  0  0  0
  4  7  1  0  0  0  0
  6  5  1  0  0  0  0
  7  6  1  1  0  0  0
  8  5  1  6  0  0  0
  8  2  1  0  0  0  0
  9  8  1  0  0  0  0
  9 13  1  0  0  0  0
  9  2  1  1  0  0  0
 10 12  1  0  0  0  0
 10  4  1  0  0  0  0
 11  7  1  0  0  0  0
 11  1  1  1  0  0  0
 12 30  1  6  0  0  0
 12 11  1  0  0  0  0
 13 15  1  6  0  0  0
 13 17  1  0  0  0  0
 14 17  1  1  0  0  0
 16 15  1  1  0  0  0
 16 18  1  0  0  0  0
 16 14  1  0  0  0  0
 18 20  1  6  0  0  0
 18 14  1  0  0  0  0
 19 27  1  1  0  0  0
 20 24  1  6  0  0  0
 20 19  1  0  0  0  0
 21 26  1  1  0  0  0
 21 22  1  0  0  0  0
 22 19  1  0  0  0  0
 23 24  1  0  0  0  0
 23 21  1  0  0  0  0
 25 26  1  0  0  0  0
 27 29  1  0  0  0  0
 28 29  1  0  0  0  0
 31 35  1  6  0  0  0
 31 30  1  0  0  0  0
 33 34  1  0  0  0  0
 34 32  1  0  0  0  0
 34 31  1  0  0  0  0
 35 36  1  0  0  0  0
 36 38  1  0  0  0  0
 38 39  1  0  0  0  0
 38 37  2  0  0  0  0
M  END
>  <MODEL>
2

>  <REMARK>
 VINA RESULT:      -7.5      3.560      8.935
  Name = 
  11 active torsions:
  status: ('A' for Active; 'I' for Inactive)
    1  A    between atoms: C_2  and  C_28
    2  A    between atoms: C_7  and  C_8
    3  A    between atoms: C_7  and  C_27
    4  A    between atoms: C_9  and  C_21
    5  A    between atoms: C_10  and  C_11
    6  A    between atoms: C_10  and  C_12
    7  A    between atoms: C_11  and  C_34
    8  A    between atoms: C_12  and  C_36
    9  A    between atoms: C_12  and  C_37
   10  A    between atoms: C_24  and  C_30
   11  A    between atoms: C_36  and  C_38
                            x       y       z     vdW  Elec       q    Type
                         _______ _______ _______ _____ _____    ______ ____

>  <TORSDO>
F 11

$$$$
=
 OpenBabel11062417463D

 39 45  0  0  1  0  0  0  0  0999 V2000
  188.4800  177.2330  142.1950 C   0  0  0  0  0  2  0  0  0  0  0  0
  188.0690  177.5640  139.1130 N   0  0  0  0  0  2  0  0  0  0  0  0
  188.3220  178.2650  141.1540 N   0  0  1  0  0  0  0  0  0  0  0  0
  191.8400  178.4150  143.2650 N   0  0  0  0  0  2  0  0  0  0  0  0
  190.2980  177.0450  140.0540 C   0  0  0  0  0  2  0  0  0  0  0  0
  191.4190  177.5350  140.9810 C   0  0  0  0  0  2  0  0  0  0  0  0
  190.8440  178.1560  142.2480 C   0  0  1  0  0  3  0  0  0  0  0  0
  189.1470  178.0680  139.9430 C   0  0  2  0  0  0  0  0  0  0  0  0
  187.2430  177.7890  140.2970 C   0  0  1  0  0  0  0  0  0  0  0  0
  191.1390  178.4510  144.4930 N   0  0  0  0  0  2  0  0  0  0  0  0
  189.8460  177.2600  142.8990 C   0  0  1  0  0  3  0  0  0  0  0  0
  189.8270  177.8300  144.2840 C   0  0  1  0  0  3  0  0  0  0  0  0
  186.2270  178.9050  140.0390 C   0  0  2  0  0  3  0  0  0  0  0  0
  184.0870  177.9080  139.4030 C   0  0  2  0  0  3  0  0  0  0  0  0
  185.2770  179.0310  141.2160 C   0  0  0  0  0  2  0  0  0  0  0  0
  184.0350  178.2210  140.8860 C   0  0  1  0  0  3  0  0  0  0  0  0
  185.3520  178.5440  138.8560 C   0  0  0  0  0  2  0  0  0  0  0  0
  183.1530  178.9870  139.9180 C   0  0  2  0  0  3  0  0  0  0  0  0
  180.6790  179.5460  139.7930 C   0  0  1  0  0  3  0  0  0  0  0  0
  181.7260  178.4450  139.9760 C   0  0  2  0  0  3  0  0  0  0  0  0
  180.4750  179.8010  142.0700 C   0  0  2  0  0  3  0  0  0  0  0  0
  180.7310  180.4760  140.8510 O   0  0  0  0  0  0  0  0  0  0  0  0
  181.4550  178.8160  142.3590 O   0  0  0  0  0  0  0  0  0  0  0  0
  181.4510  177.8320  141.3470 C   0  0  0  0  0  2  0  0  0  0  0  0
  178.9310  178.4800  143.3390 O   0  0  0  0  0  1  0  0  0  0  0  0
  179.0370  179.2920  142.2110 C   0  0  0  0  0  2  0  0  0  0  0  0
  180.8110  180.2520  138.4480 C   0  0  0  0  0  2  0  0  0  0  0  0
  180.3240  182.4090  137.5430 O   0  0  0  0  0  1  0  0  0  0  0  0
  180.9060  181.7580  138.6320 C   0  0  0  0  0  2  0  0  0  0  0  0
  189.6060  176.7180  145.2950 C   0  0  0  0  0  2  0  0  0  0  0  0
  188.5410  177.1130  146.3150 C   0  0  1  0  0  3  0  0  0  0  0  0
  188.3060  177.6240  148.6530 O   0  0  0  0  0  1  0  0  0  0  0  0
  190.4130  177.2850  147.8340 O   0  0  0  0  0  1  0  0  0  0  0  0
  189.1420  177.7910  147.5460 C   0  0  0  0  0  3  0  0  0  0  0  0
  187.5030  178.0250  145.6730 C   0  0  0  0  0  2  0  0  0  0  0  0
  186.0890  177.5480  145.9770 C   0  0  0  0  0  2  0  0  0  0  0  0
  184.0950  178.8510  145.8950 O   0  0  0  0  0  0  0  0  0  0  0  0
  185.2260  178.6820  146.4190 C   0  0  0  0  0  0  0  0  0  0  0  0
  185.6890  179.5860  147.4160 N   0  0  0  0  0  1  0  0  0  0  0  0
  2  8  1  0  0  0  0
  3  1  1  1  0  0  0
  4 10  1  0  0  0  0
  5  6  1  0  0  0  0
  7  6  1  6  0  0  0
  7 11  1  0  0  0  0
  7  4  1  0  0  0  0
  8  5  1  1  0  0  0
  8  9  1  0  0  0  0
  8  3  1  0  0  0  0
  9  2  1  1  0  0  0
  9  3  1  0  0  0  0
 11  1  1  6  0  0  0
 11 12  1  0  0  0  0
 12 10  1  0  0  0  0
 12 30  1  1  0  0  0
 13 17  1  6  0  0  0
 13  9  1  0  0  0  0
 13 15  1  0  0  0  0
 14 17  1  6  0  0  0
 14 18  1  0  0  0  0
 14 16  1  0  0  0  0
 16 15  1  6  0  0  0
 18 20  1  1  0  0  0
 18 16  1  0  0  0  0
 19 27  1  6  0  0  0
 19 20  1  0  0  0  0
 19 22  1  0  0  0  0
 20 24  1  1  0  0  0
 21 26  1  6  0  0  0
 21 23  1  0  0  0  0
 22 21  1  0  0  0  0
 24 23  1  0  0  0  0
 26 25  1  0  0  0  0
 27 29  1  0  0  0  0
 28 29  1  0  0  0  0
 31 30  1  6  0  0  0
 31 34  1  0  0  0  0
 34 33  1  0  0  0  0
 34 32  1  0  0  0  0
 35 36  1  0  0  0  0
 35 31  1  0  0  0  0
 36 38  1  0  0  0  0
 37 38  2  0  0  0  0
 38 39  1  0  0  0  0
M  END
>  <MODEL>
3

>  <REMARK>
 VINA RESULT:      -7.0      2.886      5.572
  Name = 
  11 active torsions:
  status: ('A' for Active; 'I' for Inactive)
    1  A    between atoms: C_2  and  C_28
    2  A    between atoms: C_7  and  C_8
    3  A    between atoms: C_7  and  C_27
    4  A    between atoms: C_9  and  C_21
    5  A    between atoms: C_10  and  C_11
    6  A    between atoms: C_10  and  C_12
    7  A    between atoms: C_11  and  C_34
    8  A    between atoms: C_12  and  C_36
    9  A    between atoms: C_12  and  C_37
   10  A    between atoms: C_24  and  C_30
   11  A    between atoms: C_36  and  C_38
                            x       y       z     vdW  Elec       q    Type
                         _______ _______ _______ _____ _____    ______ ____

>  <TORSDO>
F 11

$$$$
=
 OpenBabel11062417463D

 39 45  0  0  1  0  0  0  0  0999 V2000
  188.5790  177.1860  142.2940 C   0  0  0  0  0  2  0  0  0  0  0  0
  188.4130  177.3690  139.1770 N   0  0  0  0  0  2  0  0  0  0  0  0
  188.5490  178.1670  141.1940 N   0  0  1  0  0  0  0  0  0  0  0  0
  191.9040  178.2730  143.5560 N   0  0  0  0  0  2  0  0  0  0  0  0
  190.5380  176.8030  140.3100 C   0  0  0  0  0  2  0  0  0  0  0  0
  191.6110  177.2920  141.2930 C   0  0  0  0  0  2  0  0  0  0  0  0
  190.9740  178.0050  142.4810 C   0  0  1  0  0  3  0  0  0  0  0  0
  189.4500  177.8680  140.0600 C   0  0  2  0  0  0  0  0  0  0  0  0
  187.5140  177.6940  140.2820 C   0  0  1  0  0  0  0  0  0  0  0  0
  191.1170  178.4060  144.7240 N   0  0  0  0  0  2  0  0  0  0  0  0
  189.8890  177.1900  143.0980 C   0  0  1  0  0  3  0  0  0  0  0  0
  189.7950  177.8340  144.4470 C   0  0  1  0  0  3  0  0  0  0  0  0
  186.5740  178.8380  139.8920 C   0  0  2  0  0  3  0  0  0  0  0  0
  184.5250  177.9030  138.9400 C   0  0  2  0  0  3  0  0  0  0  0  0
  185.4670  178.9800  140.9190 C   0  0  0  0  0  2  0  0  0  0  0  0
  184.2650  178.2060  140.4030 C   0  0  1  0  0  3  0  0  0  0  0  0
  185.8720  178.5090  138.5900 C   0  0  0  0  0  2  0  0  0  0  0  0
  183.5530  179.0020  139.3260 C   0  0  2  0  0  3  0  0  0  0  0  0
  181.6220  178.5990  137.7270 C   0  0  1  0  0  3  0  0  0  0  0  0
  182.1200  178.4980  139.1700 C   0  0  2  0  0  3  0  0  0  0  0  0
  180.6570  180.6440  138.1510 C   0  0  2  0  0  3  0  0  0  0  0  0
  181.5550  179.9440  137.3080 O   0  0  0  0  0  0  0  0  0  0  0  0
  181.0930  180.6720  139.5010 O   0  0  0  0  0  0  0  0  0  0  0  0
  181.1680  179.3530  140.0020 C   0  0  0  0  0  2  0  0  0  0  0  0
  178.9310  179.9330  136.6500 O   0  0  0  0  0  1  0  0  0  0  0  0
  179.1930  180.2240  137.9890 C   0  0  0  0  0  2  0  0  0  0  0  0
  182.4690  177.7770  136.7630 C   0  0  0  0  0  2  0  0  0  0  0  0
  183.0940  175.4710  136.7640 O   0  0  0  0  0  1  0  0  0  0  0  0
  181.9970  176.3330  136.7200 C   0  0  0  0  0  2  0  0  0  0  0  0
  189.4480  176.7880  145.4930 C   0  0  0  0  0  2  0  0  0  0  0  0
  188.3030  177.2680  146.3820 C   0  0  1  0  0  3  0  0  0  0  0  0
  187.9400  177.6860  148.7210 O   0  0  0  0  0  1  0  0  0  0  0  0
  190.0960  177.5190  147.9830 O   0  0  0  0  0  1  0  0  0  0  0  0
  188.8060  177.9450  147.6570 C   0  0  0  0  0  3  0  0  0  0  0  0
  187.3940  178.2170  145.6120 C   0  0  0  0  0  2  0  0  0  0  0  0
  185.9740  177.6700  145.5270 C   0  0  0  0  0  2  0  0  0  0  0  0
  185.2010  179.0320  147.3230 O   0  0  0  0  0  0  0  0  0  0  0  0
  185.0020  178.6100  146.1550 C   0  0  0  0  0  0  0  0  0  0  0  0
  183.8370  179.0150  145.4440 N   0  0  0  0  0  1  0  0  0  0  0  0
  2  8  1  0  0  0  0
  3  1  1  1  0  0  0
  4 10  1  0  0  0  0
  5  6  1  0  0  0  0
  7  6  1  6  0  0  0
  7 11  1  0  0  0  0
  7  4  1  0  0  0  0
  8  9  1  0  0  0  0
  8  5  1  1  0  0  0
  8  3  1  0  0  0  0
  9  2  1  1  0  0  0
  9  3  1  0  0  0  0
 11  1  1  6  0  0  0
 11 12  1  0  0  0  0
 12 10  1  0  0  0  0
 12 30  1  1  0  0  0
 13 17  1  6  0  0  0
 13  9  1  0  0  0  0
 13 15  1  0  0  0  0
 14 17  1  6  0  0  0
 14 18  1  0  0  0  0
 14 16  1  0  0  0  0
 16 15  1  6  0  0  0
 18 20  1  1  0  0  0
 18 16  1  0  0  0  0
 19 27  1  6  0  0  0
 19 20  1  0  0  0  0
 20 24  1  1  0  0  0
 21 26  1  1  0  0  0
 21 23  1  0  0  0  0
 22 19  1  0  0  0  0
 22 21  1  0  0  0  0
 23 24  1  0  0  0  0
 25 26  1  0  0  0  0
 29 27  1  0  0  0  0
 29 28  1  0  0  0  0
 31 30  1  6  0  0  0
 31 34  1  0  0  0  0
 34 33  1  0  0  0  0
 34 32  1  0  0  0  0
 35 31  1  0  0  0  0
 36 35  1  0  0  0  0
 36 38  1  0  0  0  0
 38 37  2  0  0  0  0
 39 38  1  0  0  0  0
M  END
>  <MODEL>
4

>  <REMARK>
 VINA RESULT:      -6.9      3.116      5.706
  Name = 
  11 active torsions:
  status: ('A' for Active; 'I' for Inactive)
    1  A    between atoms: C_2  and  C_28
    2  A    between atoms: C_7  and  C_8
    3  A    between atoms: C_7  and  C_27
    4  A    between atoms: C_9  and  C_21
    5  A    between atoms: C_10  and  C_11
    6  A    between atoms: C_10  and  C_12
    7  A    between atoms: C_11  and  C_34
    8  A    between atoms: C_12  and  C_36
    9  A    between atoms: C_12  and  C_37
   10  A    between atoms: C_24  and  C_30
   11  A    between atoms: C_36  and  C_38
                            x       y       z     vdW  Elec       q    Type
                         _______ _______ _______ _____ _____    ______ ____

>  <TORSDO>
F 11

$$$$
=
 OpenBabel11062417463D

 39 45  0  0  1  0  0  0  0  0999 V2000
  187.6010  178.3230  139.1240 C   0  0  0  0  0  2  0  0  0  0  0  0
  190.5700  177.4000  138.7850 N   0  0  0  0  0  2  0  0  0  0  0  0
  188.4590  177.1290  139.2270 N   0  0  1  0  0  0  0  0  0  0  0  0
  185.4050  176.8730  136.4960 N   0  0  0  0  0  2  0  0  0  0  0  0
  189.1070  177.7430  136.8180 C   0  0  0  0  0  2  0  0  0  0  0  0
  187.8230  177.2900  136.1090 C   0  0  0  0  0  2  0  0  0  0  0  0
  186.7000  177.0620  137.1140 C   0  0  1  0  0  3  0  0  0  0  0  0
  189.3870  176.9210  138.0950 C   0  0  2  0  0  0  0  0  0  0  0  0
  189.6630  177.5760  139.9180 C   0  0  1  0  0  0  0  0  0  0  0  0
  184.4520  177.2200  137.4810 N   0  0  0  0  0  2  0  0  0  0  0  0
  186.5290  178.2290  138.0260 C   0  0  1  0  0  3  0  0  0  0  0  0
  185.1380  177.9850  138.5270 C   0  0  1  0  0  3  0  0  0  0  0  0
  190.0250  176.6110  141.0500 C   0  0  2  0  0  3  0  0  0  0  0  0
  191.0580  177.8690  142.8750 C   0  0  2  0  0  3  0  0  0  0  0  0
  189.0160  176.7240  142.1780 C   0  0  0  0  0  2  0  0  0  0  0  0
  189.5890  177.6850  143.2060 C   0  0  1  0  0  3  0  0  0  0  0  0
  191.3540  177.0070  141.6610 C   0  0  0  0  0  2  0  0  0  0  0  0
  190.6480  176.9890  144.0410 C   0  0  2  0  0  3  0  0  0  0  0  0
  190.9110  176.8070  146.5590 C   0  0  1  0  0  3  0  0  0  0  0  0
  190.8540  177.7440  145.3520 C   0  0  2  0  0  3  0  0  0  0  0  0
  188.6650  177.1050  146.9590 C   0  0  2  0  0  3  0  0  0  0  0  0
  189.6810  176.1410  146.7430 O   0  0  0  0  0  0  0  0  0  0  0  0
  188.4880  177.9650  145.8450 O   0  0  0  0  0  0  0  0  0  0  0  0
  189.6800  178.6850  145.6080 C   0  0  0  0  0  2  0  0  0  0  0  0
  187.6490  178.6270  148.5050 O   0  0  0  0  0  1  0  0  0  0  0  0
  188.7860  177.8490  148.2940 C   0  0  0  0  0  2  0  0  0  0  0  0
  192.0560  175.8050  146.4610 C   0  0  0  0  0  2  0  0  0  0  0  0
  192.5520  176.7690  148.5900 O   0  0  0  0  0  1  0  0  0  0  0  0
  192.7410  175.6290  147.8060 C   0  0  0  0  0  2  0  0  0  0  0  0
  184.4340  179.3110  138.7540 C   0  0  0  0  0  2  0  0  0  0  0  0
  183.4970  179.2310  139.9570 C   0  0  1  0  0  3  0  0  0  0  0  0
  181.8090  179.3250  138.2470 O   0  0  0  0  0  1  0  0  0  0  0  0
  181.8190  177.5190  139.6470 O   0  0  0  0  0  1  0  0  0  0  0  0
  182.0620  178.8920  139.5500 C   0  0  0  0  0  3  0  0  0  0  0  0
  184.0080  178.2070  140.9620 C   0  0  0  0  0  2  0  0  0  0  0  0
  183.6830  178.6270  142.3890 C   0  0  0  0  0  2  0  0  0  0  0  0
  185.8990  177.9110  142.8940 O   0  0  0  0  0  0  0  0  0  0  0  0
  184.9020  178.5920  143.2480 C   0  0  0  0  0  0  0  0  0  0  0  0
  184.9320  179.3100  144.4760 N   0  0  0  0  0  1  0  0  0  0  0  0
  3  1  1  6  0  0  0
  3  9  1  0  0  0  0
  4  7  1  0  0  0  0
  4 10  1  0  0  0  0
  6  5  1  0  0  0  0
  7  6  1  6  0  0  0
  7 11  1  0  0  0  0
  8  5  1  6  0  0  0
  8  2  1  0  0  0  0
  8  3  1  0  0  0  0
  8  9  1  0  0  0  0
  9  2  1  1  0  0  0
  9 13  1  0  0  0  0
 10 12  1  0  0  0  0
 11 12  1  0  0  0  0
 11  1  1  1  0  0  0
 12 30  1  6  0  0  0
 13 17  1  1  0  0  0
 13 15  1  0  0  0  0
 14 17  1  6  0  0  0
 14 16  1  0  0  0  0
 14 18  1  0  0  0  0
 16 15  1  6  0  0  0
 16 18  1  0  0  0  0
 18 20  1  1  0  0  0
 19 27  1  6  0  0  0
 19 22  1  0  0  0  0
 20 24  1  1  0  0  0
 20 19  1  0  0  0  0
 21 26  1  1  0  0  0
 22 21  1  0  0  0  0
 23 21  1  0  0  0  0
 24 23  1  0  0  0  0
 26 25  1  0  0  0  0
 27 29  1  0  0  0  0
 29 28  1  0  0  0  0
 31 30  1  6  0  0  0
 31 35  1  0  0  0  0
 32 34  1  0  0  0  0
 34 33  1  0  0  0  0
 34 31  1  0  0  0  0
 35 36  1  0  0  0  0
 36 38  1  0  0  0  0
 37 38  2  0  0  0  0
 38 39  1  0  0  0  0
M  END
>  <MODEL>
5

>  <REMARK>
 VINA RESULT:      -6.9      3.174      9.031
  Name = 
  11 active torsions:
  status: ('A' for Active; 'I' for Inactive)
    1  A    between atoms: C_2  and  C_28
    2  A    between atoms: C_7  and  C_8
    3  A    between atoms: C_7  and  C_27
    4  A    between atoms: C_9  and  C_21
    5  A    between atoms: C_10  and  C_11
    6  A    between atoms: C_10  and  C_12
    7  A    between atoms: C_11  and  C_34
    8  A    between atoms: C_12  and  C_36
    9  A    between atoms: C_12  and  C_37
   10  A    between atoms: C_24  and  C_30
   11  A    between atoms: C_36  and  C_38
                            x       y       z     vdW  Elec       q    Type
                         _______ _______ _______ _____ _____    ______ ____

>  <TORSDO>
F 11

$$$$
=
 OpenBabel11062417463D

 39 45  0  0  1  0  0  0  0  0999 V2000
  187.9810  175.9200  137.5430 C   0  0  0  0  0  2  0  0  0  0  0  0
  188.1190  179.0400  137.3730 N   0  0  0  0  0  2  0  0  0  0  0  0
  188.9070  177.0490  137.7450 N   0  0  1  0  0  0  0  0  0  0  0  0
  190.0610  174.3100  134.9130 N   0  0  0  0  0  2  0  0  0  0  0  0
  188.2510  177.6440  135.3340 C   0  0  0  0  0  2  0  0  0  0  0  0
  189.0500  176.5580  134.6000 C   0  0  0  0  0  2  0  0  0  0  0  0
  189.5170  175.4790  135.5710 C   0  0  1  0  0  3  0  0  0  0  0  0
  188.9170  178.0570  136.6640 C   0  0  2  0  0  0  0  0  0  0  0  0
  188.1350  178.0600  138.4570 C   0  0  1  0  0  0  0  0  0  0  0  0
  189.9300  173.2500  135.8380 N   0  0  0  0  0  2  0  0  0  0  0  0
  188.3960  174.9670  136.4090 C   0  0  1  0  0  3  0  0  0  0  0  0
  188.9690  173.6610  136.8670 C   0  0  1  0  0  3  0  0  0  0  0  0
  188.9240  178.5970  139.6550 C   0  0  2  0  0  3  0  0  0  0  0  0
  188.2700  177.3650  141.6630 C   0  0  2  0  0  3  0  0  0  0  0  0
  190.0480  177.6430  140.0120 C   0  0  0  0  0  2  0  0  0  0  0  0
  189.5410  176.7390  141.1230 C   0  0  1  0  0  3  0  0  0  0  0  0
  188.0340  178.6440  140.8810 C   0  0  0  0  0  2  0  0  0  0  0  0
  189.5620  177.4760  142.4490 C   0  0  2  0  0  3  0  0  0  0  0  0
  189.1580  177.1190  144.9300 C   0  0  1  0  0  3  0  0  0  0  0  0
  189.5510  176.4730  143.6000 C   0  0  2  0  0  3  0  0  0  0  0  0
  191.3680  177.4420  145.4820 C   0  0  2  0  0  3  0  0  0  0  0  0
  190.1120  178.0790  145.3280 O   0  0  0  0  0  0  0  0  0  0  0  0
  191.8470  176.8880  144.2680 O   0  0  0  0  0  0  0  0  0  0  0  0
  190.9490  175.8980  143.8120 C   0  0  0  0  0  2  0  0  0  0  0  0
  192.0660  177.0860  147.7460 O   0  0  0  0  0  1  0  0  0  0  0  0
  191.4330  176.4720  146.6660 C   0  0  0  0  0  2  0  0  0  0  0  0
  187.7630  177.7320  144.8860 C   0  0  0  0  0  2  0  0  0  0  0  0
  185.7470  177.7000  146.1690 O   0  0  0  0  0  1  0  0  0  0  0  0
  187.1390  177.7620  146.2720 C   0  0  0  0  0  2  0  0  0  0  0  0
  187.8620  172.6290  136.9930 C   0  0  0  0  0  2  0  0  0  0  0  0
  186.8050  172.8310  135.9090 C   0  0  1  0  0  3  0  0  0  0  0  0
  187.5190  170.5880  135.4220 O   0  0  0  0  0  1  0  0  0  0  0  0
  185.3730  171.1690  134.8950 O   0  0  0  0  0  1  0  0  0  0  0  0
  186.6920  171.6220  134.9800 C   0  0  0  0  0  3  0  0  0  0  0  0
  185.4500  173.1320  136.5380 C   0  0  0  0  0  2  0  0  0  0  0  0
  184.8390  174.3960  135.9470 C   0  0  0  0  0  2  0  0  0  0  0  0
  183.8130  174.8460  138.0500 O   0  0  0  0  0  0  0  0  0  0  0  0
  184.3670  175.3150  137.0230 C   0  0  0  0  0  0  0  0  0  0  0  0
  184.5240  176.7220  136.8810 N   0  0  0  0  0  1  0  0  0  0  0  0
  3  1  1  6  0  0  0
  3  9  1  0  0  0  0
  4  7  1  0  0  0  0
  4 10  1  0  0  0  0
  6  5  1  0  0  0  0
  7  6  1  6  0  0  0
  7 11  1  0  0  0  0
  8  5  1  6  0  0  0
  8  2  1  0  0  0  0
  8  3  1  0  0  0  0
  8  9  1  0  0  0  0
  9  2  1  1  0  0  0
  9 13  1  0  0  0  0
 10 12  1  0  0  0  0
 11 12  1  0  0  0  0
 11  1  1  1  0  0  0
 12 30  1  6  0  0  0
 13 15  1  1  0  0  0
 13 17  1  0  0  0  0
 14 17  1  6  0  0  0
 14 18  1  0  0  0  0
 16 15  1  6  0  0  0
 16 14  1  0  0  0  0
 16 18  1  0  0  0  0
 18 20  1  1  0  0  0
 19 27  1  6  0  0  0
 19 22  1  0  0  0  0
 20 24  1  1  0  0  0
 20 19  1  0  0  0  0
 21 26  1  1  0  0  0
 22 21  1  0  0  0  0
 23 21  1  0  0  0  0
 24 23  1  0  0  0  0
 26 25  1  0  0  0  0
 27 29  1  0  0  0  0
 28 29  1  0  0  0  0
 31 35  1  1  0  0  0
 31 30  1  0  0  0  0
 33 34  1  0  0  0  0
 34 32  1  0  0  0  0
 34 31  1  0  0  0  0
 36 35  1  0  0  0  0
 36 38  1  0  0  0  0
 38 37  2  0  0  0  0
 39 38  1  0  0  0  0
M  END
>  <MODEL>
6

>  <REMARK>
 VINA RESULT:      -6.8      4.453      8.674
  Name = 
  11 active torsions:
  status: ('A' for Active; 'I' for Inactive)
    1  A    between atoms: C_2  and  C_28
    2  A    between atoms: C_7  and  C_8
    3  A    between atoms: C_7  and  C_27
    4  A    between atoms: C_9  and  C_21
    5  A    between atoms: C_10  and  C_11
    6  A    between atoms: C_10  and  C_12
    7  A    between atoms: C_11  and  C_34
    8  A    between atoms: C_12  and  C_36
    9  A    between atoms: C_12  and  C_37
   10  A    between atoms: C_24  and  C_30
   11  A    between atoms: C_36  and  C_38
                            x       y       z     vdW  Elec       q    Type
                         _______ _______ _______ _____ _____    ______ ____

>  <TORSDO>
F 11

$$$$
=
 OpenBabel11062417463D

 39 45  0  0  1  0  0  0  0  0999 V2000
  188.7080  178.2590  145.3320 C   0  0  0  0  0  2  0  0  0  0  0  0
  186.3070  178.9750  147.2040 N   0  0  0  0  0  2  0  0  0  0  0  0
  187.5310  177.6560  145.9850 N   0  0  1  0  0  0  0  0  0  0  0  0
  191.1520  176.0280  147.0300 N   0  0  0  0  0  2  0  0  0  0  0  0
  188.5800  178.6280  148.1200 C   0  0  0  0  0  2  0  0  0  0  0  0
  189.7290  177.6240  148.2930 C   0  0  0  0  0  2  0  0  0  0  0  0
  189.9370  176.8130  147.0180 C   0  0  1  0  0  3  0  0  0  0  0  0
  187.3600  177.9990  147.4130 C   0  0  2  0  0  0  0  0  0  0  0  0
  186.4500  178.6160  145.7950 C   0  0  1  0  0  0  0  0  0  0  0  0
  191.4770  175.7990  145.6720 N   0  0  0  0  0  2  0  0  0  0  0  0
  190.0510  177.6900  145.8180 C   0  0  1  0  0  3  0  0  0  0  0  0
  190.7200  176.7550  144.8570 C   0  0  1  0  0  3  0  0  0  0  0  0
  185.1870  177.9120  145.2900 C   0  0  2  0  0  3  0  0  0  0  0  0
  183.9060  179.4640  143.9020 C   0  0  2  0  0  3  0  0  0  0  0  0
  185.3600  177.5030  143.8390 C   0  0  0  0  0  2  0  0  0  0  0  0
  184.7420  178.5950  142.9820 C   0  0  1  0  0  3  0  0  0  0  0  0
  184.0190  178.8770  145.2970 C   0  0  0  0  0  2  0  0  0  0  0  0
  183.2300  178.4660  142.9800 C   0  0  2  0  0  3  0  0  0  0  0  0
  181.1340  179.0170  141.6570 C   0  0  1  0  0  3  0  0  0  0  0  0
  182.6490  179.1960  141.7710 C   0  0  2  0  0  3  0  0  0  0  0  0
  181.4020  177.2410  140.2200 C   0  0  2  0  0  3  0  0  0  0  0  0
  180.7990  177.6660  141.4300 O   0  0  0  0  0  0  0  0  0  0  0  0
  182.8180  177.2940  140.2720 O   0  0  0  0  0  0  0  0  0  0  0  0
  183.2350  178.6270  140.4810 C   0  0  0  0  0  2  0  0  0  0  0  0
  181.6150  177.6110  137.8630 O   0  0  0  0  0  1  0  0  0  0  0  0
  180.8110  177.8940  138.9660 C   0  0  0  0  0  2  0  0  0  0  0  0
  180.3940  179.5570  142.8760 C   0  0  0  0  0  2  0  0  0  0  0  0
  179.6810  181.2520  141.3500 O   0  0  0  0  0  1  0  0  0  0  0  0
  179.2810  180.5040  142.4600 C   0  0  0  0  0  2  0  0  0  0  0  0
  191.6600  177.5330  143.9530 C   0  0  0  0  0  2  0  0  0  0  0  0
  191.5770  177.0250  142.5160 C   0  0  1  0  0  3  0  0  0  0  0  0
  189.4020  176.0000  142.5380 O   0  0  0  0  0  1  0  0  0  0  0  0
  189.5190  178.2630  142.2420 O   0  0  0  0  0  1  0  0  0  0  0  0
  190.1450  177.0420  141.9790 C   0  0  0  0  0  3  0  0  0  0  0  0
  192.4830  177.8470  141.6080 C   0  0  0  0  0  2  0  0  0  0  0  0
  192.2490  177.5040  140.1420 C   0  0  0  0  0  2  0  0  0  0  0  0
  194.5100  176.7550  140.2200 O   0  0  0  0  0  0  0  0  0  0  0  0
  193.4950  176.9790  139.5120 C   0  0  0  0  0  0  0  0  0  0  0  0
  193.5440  176.7520  138.1070 N   0  0  0  0  0  1  0  0  0  0  0  0
  2  8  1  0  0  0  0
  3  1  1  6  0  0  0
  3  8  1  0  0  0  0
  5  6  1  0  0  0  0
  7  4  1  0  0  0  0
  7  6  1  1  0  0  0
  8  5  1  6  0  0  0
  9  3  1  0  0  0  0
  9  2  1  6  0  0  0
  9  8  1  0  0  0  0
 10  4  1  0  0  0  0
 11  1  1  6  0  0  0
 11  7  1  0  0  0  0
 12 30  1  6  0  0  0
 12 10  1  0  0  0  0
 12 11  1  0  0  0  0
 13 15  1  6  0  0  0
 13 17  1  0  0  0  0
 13  9  1  0  0  0  0
 14 17  1  1  0  0  0
 16 15  1  1  0  0  0
 16 14  1  0  0  0  0
 18 20  1  6  0  0  0
 18 16  1  0  0  0  0
 18 14  1  0  0  0  0
 19 20  1  0  0  0  0
 19 27  1  1  0  0  0
 20 24  1  6  0  0  0
 21 26  1  6  0  0  0
 21 23  1  0  0  0  0
 21 22  1  0  0  0  0
 22 19  1  0  0  0  0
 23 24  1  0  0  0  0
 25 26  1  0  0  0  0
 28 29  1  0  0  0  0
 29 27  1  0  0  0  0
 31 35  1  6  0  0  0
 31 30  1  0  0  0  0
 34 33  1  0  0  0  0
 34 31  1  0  0  0  0
 34 32  1  0  0  0  0
 36 35  1  0  0  0  0
 38 36  1  0  0  0  0
 38 37  2  0  0  0  0
 39 38  1  0  0  0  0
M  END
>  <MODEL>
7

>  <REMARK>
 VINA RESULT:      -6.7      1.635      2.352
  Name = 
  11 active torsions:
  status: ('A' for Active; 'I' for Inactive)
    1  A    between atoms: C_2  and  C_28
    2  A    between atoms: C_7  and  C_8
    3  A    between atoms: C_7  and  C_27
    4  A    between atoms: C_9  and  C_21
    5  A    between atoms: C_10  and  C_11
    6  A    between atoms: C_10  and  C_12
    7  A    between atoms: C_11  and  C_34
    8  A    between atoms: C_12  and  C_36
    9  A    between atoms: C_12  and  C_37
   10  A    between atoms: C_24  and  C_30
   11  A    between atoms: C_36  and  C_38
                            x       y       z     vdW  Elec       q    Type
                         _______ _______ _______ _____ _____    ______ ____

>  <TORSDO>
F 11

$$$$
=
 OpenBabel11062417463D

 39 45  0  0  1  0  0  0  0  0999 V2000
  181.6670  178.4620  141.2100 C   0  0  0  0  0  2  0  0  0  0  0  0
  181.8850  178.8240  144.3080 N   0  0  0  0  0  2  0  0  0  0  0  0
  182.1190  179.4230  142.2330 N   0  0  1  0  0  0  0  0  0  0  0  0
  179.1560  180.7750  139.7320 N   0  0  0  0  0  2  0  0  0  0  0  0
  179.7290  179.1430  143.1350 C   0  0  0  0  0  2  0  0  0  0  0  0
  178.9820  179.9630  142.0730 C   0  0  0  0  0  2  0  0  0  0  0  0
  179.8720  180.2220  140.8630 C   0  0  1  0  0  3  0  0  0  0  0  0
  181.1730  179.6460  143.3480 C   0  0  2  0  0  0  0  0  0  0  0  0
  182.8390  178.6280  143.2200 C   0  0  1  0  0  0  0  0  0  0  0  0
  179.9270  180.4500  138.5920 N   0  0  0  0  0  2  0  0  0  0  0  0
  180.4930  178.9660  140.3550 C   0  0  1  0  0  3  0  0  0  0  0  0
  180.8650  179.3860  138.9650 C   0  0  1  0  0  3  0  0  0  0  0  0
  184.1830  179.2780  143.5600 C   0  0  2  0  0  3  0  0  0  0  0  0
  185.6900  177.5780  144.4620 C   0  0  2  0  0  3  0  0  0  0  0  0
  185.2110  178.9440  142.4960 C   0  0  0  0  0  2  0  0  0  0  0  0
  185.9990  177.7410  142.9860 C   0  0  1  0  0  3  0  0  0  0  0  0
  184.7310  178.6900  144.8450 C   0  0  0  0  0  2  0  0  0  0  0  0
  187.0170  178.1710  144.0270 C   0  0  2  0  0  3  0  0  0  0  0  0
  189.1030  177.4310  145.2710 C   0  0  1  0  0  3  0  0  0  0  0  0
  188.1150  177.1170  144.1460 C   0  0  2  0  0  3  0  0  0  0  0  0
  190.5260  178.4770  143.7970 C   0  0  2  0  0  3  0  0  0  0  0  0
  189.8070  178.6250  145.0080 O   0  0  0  0  0  0  0  0  0  0  0  0
  189.6730  178.2670  142.6830 O   0  0  0  0  0  0  0  0  0  0  0  0
  188.9420  177.0720  142.8640 C   0  0  0  0  0  2  0  0  0  0  0  0
  192.0950  177.1260  142.5920 O   0  0  0  0  0  1  0  0  0  0  0  0
  191.6840  177.4770  143.8780 C   0  0  0  0  0  2  0  0  0  0  0  0
  188.4250  177.4950  146.6350 C   0  0  0  0  0  2  0  0  0  0  0  0
  188.7370  178.2220  148.8900 O   0  0  0  0  0  1  0  0  0  0  0  0
  189.4180  177.8880  147.7170 C   0  0  0  0  0  2  0  0  0  0  0  0
  180.7240  178.2080  138.0170 C   0  0  0  0  0  2  0  0  0  0  0  0
  181.7680  178.2770  136.9050 C   0  0  1  0  0  3  0  0  0  0  0  0
  183.6600  177.1610  135.9280 O   0  0  0  0  0  1  0  0  0  0  0  0
  183.6540  177.4820  138.1900 O   0  0  0  0  0  1  0  0  0  0  0  0
  182.8600  177.2200  137.0710 C   0  0  0  0  0  3  0  0  0  0  0  0
  181.1030  178.1280  135.5420 C   0  0  0  0  0  2  0  0  0  0  0  0
  181.3310  179.3640  134.6820 C   0  0  0  0  0  2  0  0  0  0  0  0
  179.1310  180.0920  135.2350 O   0  0  0  0  0  0  0  0  0  0  0  0
  180.3190  180.4180  134.9810 C   0  0  0  0  0  0  0  0  0  0  0  0
  180.6890  181.7920  134.9580 N   0  0  0  0  0  1  0  0  0  0  0  0
  3  1  1  6  0  0  0
  3  9  1  0  0  0  0
  3  8  1  0  0  0  0
  4  7  1  0  0  0  0
  6  5  1  0  0  0  0
  7  6  1  1  0  0  0
  8  5  1  6  0  0  0
  8  2  1  0  0  0  0
  9  8  1  0  0  0  0
  9 13  1  0  0  0  0
  9  2  1  6  0  0  0
 10 12  1  0  0  0  0
 10  4  1  0  0  0  0
 11  7  1  0  0  0  0
 11  1  1  1  0  0  0
 12 30  1  6  0  0  0
 12 11  1  0  0  0  0
 13 15  1  6  0  0  0
 13 17  1  0  0  0  0
 14 17  1  1  0  0  0
 16 15  1  1  0  0  0
 16 18  1  0  0  0  0
 16 14  1  0  0  0  0
 18 20  1  6  0  0  0
 18 14  1  0  0  0  0
 19 27  1  1  0  0  0
 20 24  1  6  0  0  0
 20 19  1  0  0  0  0
 21 26  1  1  0  0  0
 21 22  1  0  0  0  0
 22 19  1  0  0  0  0
 23 24  1  0  0  0  0
 23 21  1  0  0  0  0
 25 26  1  0  0  0  0
 27 29  1  0  0  0  0
 29 28  1  0  0  0  0
 31 35  1  6  0  0  0
 31 34  1  0  0  0  0
 31 30  1  0  0  0  0
 32 34  1  0  0  0  0
 34 33  1  0  0  0  0
 36 38  1  0  0  0  0
 36 35  1  0  0  0  0
 38 37  2  0  0  0  0
 39 38  1  0  0  0  0
M  END
>  <MODEL>
8

>  <REMARK>
 VINA RESULT:      -6.5      4.072      9.340
  Name = 
  11 active torsions:
  status: ('A' for Active; 'I' for Inactive)
    1  A    between atoms: C_2  and  C_28
    2  A    between atoms: C_7  and  C_8
    3  A    between atoms: C_7  and  C_27
    4  A    between atoms: C_9  and  C_21
    5  A    between atoms: C_10  and  C_11
    6  A    between atoms: C_10  and  C_12
    7  A    between atoms: C_11  and  C_34
    8  A    between atoms: C_12  and  C_36
    9  A    between atoms: C_12  and  C_37
   10  A    between atoms: C_24  and  C_30
   11  A    between atoms: C_36  and  C_38
                            x       y       z     vdW  Elec       q    Type
                         _______ _______ _______ _____ _____    ______ ____

>  <TORSDO>
F 11

$$$$
=
 OpenBabel11062417463D

 39 45  0  0  1  0  0  0  0  0999 V2000
  186.2270  178.9170  140.8470 C   0  0  0  0  0  2  0  0  0  0  0  0
  186.6440  178.6250  137.7610 N   0  0  0  0  0  2  0  0  0  0  0  0
  186.1690  177.9210  139.7610 N   0  0  1  0  0  0  0  0  0  0  0  0
  182.6510  178.5210  141.7900 N   0  0  0  0  0  2  0  0  0  0  0  0
  184.5720  179.6190  138.6800 C   0  0  0  0  0  2  0  0  0  0  0  0
  183.3380  179.3700  139.5590 C   0  0  0  0  0  2  0  0  0  0  0  0
  183.7110  178.5780  140.8070 C   0  0  1  0  0  3  0  0  0  0  0  0
  185.4520  178.3580  138.5440 C   0  0  2  0  0  0  0  0  0  0  0  0
  187.3560  178.1630  138.9500 C   0  0  1  0  0  0  0  0  0  0  0  0
  183.2850  178.2700  143.0290 N   0  0  0  0  0  2  0  0  0  0  0  0
  184.8710  179.1860  141.5200 C   0  0  1  0  0  3  0  0  0  0  0  0
  184.7130  178.5700  142.8770 C   0  0  1  0  0  3  0  0  0  0  0  0
  188.0890  176.8500  138.6610 C   0  0  2  0  0  3  0  0  0  0  0  0
  189.7830  177.2400  136.9420 C   0  0  2  0  0  3  0  0  0  0  0  0
  189.4510  176.8510  139.3300 C   0  0  0  0  0  2  0  0  0  0  0  0
  190.4650  177.3070  138.2950 C   0  0  1  0  0  3  0  0  0  0  0  0
  188.3720  176.7320  137.1770 C   0  0  0  0  0  2  0  0  0  0  0  0
  190.7850  176.1720  137.3400 C   0  0  2  0  0  3  0  0  0  0  0  0
  192.5360  175.2870  135.7280 C   0  0  1  0  0  3  0  0  0  0  0  0
  192.1200  176.4370  136.6480 C   0  0  2  0  0  3  0  0  0  0  0  0
  193.8040  174.3430  137.3990 C   0  0  2  0  0  3  0  0  0  0  0  0
  192.7650  174.1070  136.4650 O   0  0  0  0  0  0  0  0  0  0  0  0
  193.4620  175.3420  138.3470 O   0  0  0  0  0  0  0  0  0  0  0  0
  193.2330  176.5670  137.6840 C   0  0  0  0  0  2  0  0  0  0  0  0
  196.1090  174.8970  137.7430 O   0  0  0  0  0  1  0  0  0  0  0  0
  195.1810  174.5510  136.7610 C   0  0  0  0  0  2  0  0  0  0  0  0
  191.5220  175.0400  134.6160 C   0  0  0  0  0  2  0  0  0  0  0  0
  189.6280  173.7450  135.2800 O   0  0  0  0  0  1  0  0  0  0  0  0
  190.9110  173.6530  134.7380 C   0  0  0  0  0  2  0  0  0  0  0  0
  185.1570  179.5560  143.9440 C   0  0  0  0  0  2  0  0  0  0  0  0
  185.9620  178.8520  145.0340 C   0  0  1  0  0  3  0  0  0  0  0  0
  185.6870  179.3340  147.3730 O   0  0  0  0  0  1  0  0  0  0  0  0
  183.8070  179.0000  146.1180 O   0  0  0  0  0  1  0  0  0  0  0  0
  185.1400  178.6230  146.3030 C   0  0  0  0  0  3  0  0  0  0  0  0
  186.5050  177.5250  144.5200 C   0  0  0  0  0  2  0  0  0  0  0  0
  187.8870  177.2370  145.0940 C   0  0  0  0  0  2  0  0  0  0  0  0
  190.0590  176.9820  144.1480 O   0  0  0  0  0  0  0  0  0  0  0  0
  188.8230  176.7790  144.0280 C   0  0  0  0  0  0  0  0  0  0  0  0
  188.3200  176.1340  142.8630 N   0  0  0  0  0  1  0  0  0  0  0  0
  2  8  1  0  0  0  0
  3  1  1  1  0  0  0
  4 10  1  0  0  0  0
  5  6  1  0  0  0  0
  7  6  1  6  0  0  0
  7 11  1  0  0  0  0
  7  4  1  0  0  0  0
  8  5  1  1  0  0  0
  8  9  1  0  0  0  0
  8  3  1  0  0  0  0
  9  2  1  1  0  0  0
  9  3  1  0  0  0  0
 11  1  1  6  0  0  0
 11 12  1  0  0  0  0
 12 10  1  0  0  0  0
 12 30  1  1  0  0  0
 13 17  1  6  0  0  0
 13  9  1  0  0  0  0
 13 15  1  0  0  0  0
 14 17  1  1  0  0  0
 14 18  1  0  0  0  0
 14 16  1  0  0  0  0
 16 15  1  1  0  0  0
 18 20  1  6  0  0  0
 18 16  1  0  0  0  0
 19 27  1  6  0  0  0
 19 22  1  0  0  0  0
 19 20  1  0  0  0  0
 20 24  1  1  0  0  0
 21 26  1  6  0  0  0
 21 23  1  0  0  0  0
 22 21  1  0  0  0  0
 24 23  1  0  0  0  0
 26 25  1  0  0  0  0
 27 29  1  0  0  0  0
 29 28  1  0  0  0  0
 31 30  1  6  0  0  0
 31 34  1  0  0  0  0
 33 34  1  0  0  0  0
 34 32  1  0  0  0  0
 35 31  1  0  0  0  0
 35 36  1  0  0  0  0
 38 37  2  0  0  0  0
 38 36  1  0  0  0  0
 39 38  1  0  0  0  0
M  END
>  <MODEL>
9

>  <REMARK>
 VINA RESULT:      -6.4      3.575      9.629
  Name = 
  11 active torsions:
  status: ('A' for Active; 'I' for Inactive)
    1  A    between atoms: C_2  and  C_28
    2  A    between atoms: C_7  and  C_8
    3  A    between atoms: C_7  and  C_27
    4  A    between atoms: C_9  and  C_21
    5  A    between atoms: C_10  and  C_11
    6  A    between atoms: C_10  and  C_12
    7  A    between atoms: C_11  and  C_34
    8  A    between atoms: C_12  and  C_36
    9  A    between atoms: C_12  and  C_37
   10  A    between atoms: C_24  and  C_30
   11  A    between atoms: C_36  and  C_38
                            x       y       z     vdW  Elec       q    Type
                         _______ _______ _______ _____ _____    ______ ____

>  <TORSDO>
F 11

$$$$
