=
 OpenBabel11062413263D

 30 33  0  0  1  0  0  0  0  0999 V2000
  189.4370  178.1960  141.6310 C   0  0  0  0  0  2  0  0  0  0  0  0
  189.9350  177.3450  137.9360 C   0  0  0  0  0  2  0  0  0  0  0  0
  188.1110  178.1270  140.8690 C   0  0  2  0  0  3  0  0  0  0  0  0
  190.3470  176.3010  140.2350 C   0  0  0  0  0  2  0  0  0  0  0  0
  190.6440  176.2490  138.7330 C   0  0  2  0  0  3  0  0  0  0  0  0
  187.5700  177.6960  138.7980 N   0  0  1  0  0  0  0  0  0  0  0  0
  190.6220  177.6840  140.8190 C   0  0  0  0  0  2  0  0  0  0  0  0
  188.2620  178.5890  139.5560 O   0  0  0  0  0  0  0  0  0  0  0  0
  186.9590  178.4580  137.7160 C   0  0  0  0  0  2  0  0  0  0  0  0
  187.8470  177.8420  136.6570 C   0  0  0  0  0  2  0  0  0  0  0  0
  188.4380  177.0490  137.7970 C   0  0  1  0  0  3  0  0  0  0  0  0
  190.8460  173.8870  137.2480 O   0  0  0  0  0  0  0  0  0  0  0  0
  192.0950  174.0310  137.1740 C   0  0  0  0  0  0  0  0  0  0  0  0
  192.7460  175.1760  137.7400 N   0  0  0  0  0  2  0  0  0  0  0  0
  192.8330  177.1930  138.8830 O   0  0  0  0  0  0  0  0  0  0  0  0
  192.1190  176.2450  138.4600 C   0  0  0  0  0  0  0  0  0  0  0  0
  192.9060  173.0120  136.4560 C   0  0  0  0  0  2  0  0  0  0  0  0
  194.3360  173.0440  136.9590 C   0  0  0  0  0  1  0  0  0  0  0  0
  187.0490  178.9450  141.5880 C   0  0  0  0  0  2  0  0  0  0  0  0
  187.6190  177.6230  145.8140 C   0  0  0  0  0  2  0  0  0  0  0  0
  185.3680  178.6980  145.9750 C   0  0  0  0  0  2  0  0  0  0  0  0
  186.2930  177.6340  146.5670 C   0  0  0  0  0  2  0  0  0  0  0  0
  186.0270  178.0410  142.2650 C   0  0  2  0  0  3  0  0  0  0  0  0
  185.3020  178.6090  144.4730 C   0  0  0  0  0  0  0  0  0  0  0  0
  184.6510  178.5960  142.1020 C   0  0  0  0  0  0  0  0  0  0  0  0
  184.0410  179.4640  143.5420 S   0  0  0  0  0  0  0  0  0  0  0  0
  186.2590  178.0270  143.7380 C   0  0  0  0  0  0  0  0  0  0  0  0
  183.0050  177.4010  140.5780 O   0  0  0  0  0  0  0  0  0  0  0  0
  187.3850  177.2350  144.3540 C   0  0  0  0  0  2  0  0  0  0  0  0
  183.8060  177.9830  141.3200 C   0  0  0  0  0  0  0  0  0  0  0  0
  2  5  1  0  0  0  0
  3 19  1  1  0  0  0
  3  1  1  0  0  0  0
  4  7  1  0  0  0  0
  5 16  1  1  0  0  0
  5  4  1  0  0  0  0
  6  9  1  6  0  0  0
  6  8  1  0  0  0  0
  7  1  1  0  0  0  0
  8  3  1  0  0  0  0
 10  9  1  0  0  0  0
 11 10  1  6  0  0  0
 11  2  1  0  0  0  0
 11  6  1  0  0  0  0
 13 12  2  0  0  0  0
 13 14  1  0  0  0  0
 14 16  1  0  0  0  0
 16 15  2  0  0  0  0
 17 18  1  0  0  0  0
 17 13  1  0  0  0  0
 20 22  1  0  0  0  0
 21 22  1  0  0  0  0
 23 19  1  6  0  0  0
 23 27  1  0  0  0  0
 24 21  1  0  0  0  0
 25 23  1  0  0  0  0
 25 26  1  0  0  0  0
 26 24  1  0  0  0  0
 27 29  1  0  0  0  0
 27 24  2  0  0  0  0
 28 30  2  0  0  0  0
 29 20  1  0  0  0  0
 30 25  2  0  0  0  0
M  END
>  <MODEL>
1

>  <REMARK>
 VINA RESULT:      -8.1      0.000      0.000
  Name = 
  4 active torsions:
  status: ('A' for Active; 'I' for Inactive)
    1  A    between atoms: C_5  and  C_6
    2  A    between atoms: C_5  and  C_13
    3  A    between atoms: C_10  and  C_27
    4  A    between atoms: C_11  and  C_14
                            x       y       z     vdW  Elec       q    Type
                         _______ _______ _______ _____ _____    ______ ____

>  <TORSDO>
F 4

$$$$
=
 OpenBabel11062413263D

 30 33  0  0  1  0  0  0  0  0999 V2000
  187.2300  178.1540  139.6880 C   0  0  0  0  0  2  0  0  0  0  0  0
  190.4950  176.3150  140.4540 C   0  0  0  0  0  2  0  0  0  0  0  0
  187.8800  178.6420  140.9850 C   0  0  2  0  0  3  0  0  0  0  0  0
  189.5120  177.8440  138.6550 C   0  0  0  0  0  2  0  0  0  0  0  0
  190.6350  176.8760  139.0390 C   0  0  2  0  0  3  0  0  0  0  0  0
  189.7050  178.1190  142.0610 N   0  0  1  0  0  0  0  0  0  0  0  0
  188.1330  177.2290  138.8780 C   0  0  0  0  0  2  0  0  0  0  0  0
  188.5200  177.5920  141.6530 O   0  0  0  0  0  0  0  0  0  0  0  0
  189.9980  177.5240  143.3590 C   0  0  0  0  0  2  0  0  0  0  0  0
  191.1610  176.7150  142.8290 C   0  0  0  0  0  2  0  0  0  0  0  0
  190.8490  177.3710  141.5070 C   0  0  1  0  0  3  0  0  0  0  0  0
  193.4260  176.7570  138.8830 O   0  0  0  0  0  0  0  0  0  0  0  0
  193.3460  175.8680  137.9950 C   0  0  0  0  0  0  0  0  0  0  0  0
  192.0780  175.3560  137.5660 N   0  0  0  0  0  2  0  0  0  0  0  0
  189.7620  175.2130  137.5640 O   0  0  0  0  0  0  0  0  0  0  0  0
  190.7880  175.7760  138.0300 C   0  0  0  0  0  0  0  0  0  0  0  0
  194.5920  175.3140  137.4030 C   0  0  0  0  0  2  0  0  0  0  0  0
  195.1530  174.2310  138.3020 C   0  0  0  0  0  1  0  0  0  0  0  0
  186.8320  179.2720  141.8910 C   0  0  0  0  0  2  0  0  0  0  0  0
  186.9450  178.0050  146.1710 C   0  0  0  0  0  2  0  0  0  0  0  0
  184.5620  178.7370  145.9780 C   0  0  0  0  0  2  0  0  0  0  0  0
  185.5330  177.8140  146.7150 C   0  0  0  0  0  2  0  0  0  0  0  0
  185.8620  178.2210  142.4180 C   0  0  2  0  0  3  0  0  0  0  0  0
  184.7380  178.6550  144.4840 C   0  0  0  0  0  0  0  0  0  0  0  0
  184.4600  178.5710  142.0420 C   0  0  0  0  0  0  0  0  0  0  0  0
  183.5200  179.3260  143.3630 S   0  0  0  0  0  0  0  0  0  0  0  0
  185.8690  178.2270  143.9090 C   0  0  0  0  0  0  0  0  0  0  0  0
  183.2550  177.1630  140.3020 O   0  0  0  0  0  0  0  0  0  0  0  0
  186.9930  177.6010  144.6970 C   0  0  0  0  0  2  0  0  0  0  0  0
  183.8420  177.8480  141.1500 C   0  0  0  0  0  0  0  0  0  0  0  0
  1  3  1  0  0  0  0
  3  8  1  0  0  0  0
  3 19  1  1  0  0  0
  4  7  1  0  0  0  0
  4  5  1  0  0  0  0
  5 16  1  6  0  0  0
  5  2  1  0  0  0  0
  6  9  1  1  0  0  0
  7  1  1  0  0  0  0
  8  6  1  0  0  0  0
 10  9  1  0  0  0  0
 11  2  1  6  0  0  0
 11  6  1  0  0  0  0
 11 10  1  0  0  0  0
 13 12  2  0  0  0  0
 14 13  1  0  0  0  0
 14 16  1  0  0  0  0
 15 16  2  0  0  0  0
 17 13  1  0  0  0  0
 17 18  1  0  0  0  0
 20 22  1  0  0  0  0
 21 22  1  0  0  0  0
 23 19  1  6  0  0  0
 23 27  1  0  0  0  0
 24 21  1  0  0  0  0
 25 23  1  0  0  0  0
 25 26  1  0  0  0  0
 26 24  1  0  0  0  0
 27 24  2  0  0  0  0
 27 29  1  0  0  0  0
 28 30  2  0  0  0  0
 29 20  1  0  0  0  0
 30 25  2  0  0  0  0
M  END
>  <MODEL>
2

>  <REMARK>
 VINA RESULT:      -8.0      1.472      2.730
  Name = 
  4 active torsions:
  status: ('A' for Active; 'I' for Inactive)
    1  A    between atoms: C_5  and  C_6
    2  A    between atoms: C_5  and  C_13
    3  A    between atoms: C_10  and  C_27
    4  A    between atoms: C_11  and  C_14
                            x       y       z     vdW  Elec       q    Type
                         _______ _______ _______ _____ _____    ______ ____

>  <TORSDO>
F 4

$$$$
=
 OpenBabel11062413263D

 30 33  0  0  1  0  0  0  0  0999 V2000
  184.2560  179.0640  144.0970 C   0  0  0  0  0  2  0  0  0  0  0  0
  187.9760  178.2560  144.4660 C   0  0  0  0  0  2  0  0  0  0  0  0
  184.8700  178.5520  142.7910 C   0  0  2  0  0  3  0  0  0  0  0  0
  185.7260  177.4920  145.4130 C   0  0  0  0  0  2  0  0  0  0  0  0
  187.2510  177.4720  145.5590 C   0  0  2  0  0  3  0  0  0  0  0  0
  186.8660  177.8860  142.2090 N   0  0  1  0  0  0  0  0  0  0  0  0
  185.1870  178.9140  145.2960 C   0  0  0  0  0  2  0  0  0  0  0  0
  186.1950  178.9820  142.6570 O   0  0  0  0  0  0  0  0  0  0  0  0
  187.8820  178.3730  141.2840 C   0  0  0  0  0  2  0  0  0  0  0  0
  189.0250  178.0220  142.2100 C   0  0  0  0  0  2  0  0  0  0  0  0
  187.9500  177.5020  143.1320 C   0  0  1  0  0  3  0  0  0  0  0  0
  189.8800  176.5150  145.5660 O   0  0  0  0  0  0  0  0  0  0  0  0
  190.0310  176.9170  146.7490 C   0  0  0  0  0  0  0  0  0  0  0  0
  188.9870  177.6170  147.4370 N   0  0  0  0  0  2  0  0  0  0  0  0
  186.8780  178.5590  147.6530 O   0  0  0  0  0  0  0  0  0  0  0  0
  187.6820  177.9170  146.9260 C   0  0  0  0  0  0  0  0  0  0  0  0
  191.3310  176.6910  147.4360 C   0  0  0  0  0  2  0  0  0  0  0  0
  192.0880  175.5710  146.7520 C   0  0  0  0  0  1  0  0  0  0  0  0
  184.0470  179.0270  141.6030 C   0  0  0  0  0  2  0  0  0  0  0  0
  180.0420  179.9110  143.3660 C   0  0  0  0  0  2  0  0  0  0  0  0
  179.4490  179.7730  140.9410 C   0  0  0  0  0  2  0  0  0  0  0  0
  178.9310  179.5960  142.3690 C   0  0  0  0  0  2  0  0  0  0  0  0
  182.8640  178.1000  141.3510 C   0  0  2  0  0  3  0  0  0  0  0  0
  180.7710  179.0810  140.7360 C   0  0  0  0  0  0  0  0  0  0  0  0
  182.7130  177.8330  139.8900 C   0  0  0  0  0  0  0  0  0  0  0  0
  181.4340  178.8020  139.1010 S   0  0  0  0  0  0  0  0  0  0  0  0
  181.5960  178.7780  141.7460 C   0  0  0  0  0  0  0  0  0  0  0  0
  183.2550  175.5170  138.9920 O   0  0  0  0  0  0  0  0  0  0  0  0
  181.1920  178.9190  143.1930 C   0  0  0  0  0  2  0  0  0  0  0  0
  182.9910  176.6450  139.4290 C   0  0  0  0  0  0  0  0  0  0  0  0
  1  7  1  0  0  0  0
  2  5  1  0  0  0  0
  3 19  1  6  0  0  0
  3  1  1  0  0  0  0
  4  5  1  0  0  0  0
  5 16  1  1  0  0  0
  6  9  1  6  0  0  0
  6  8  1  0  0  0  0
  6 11  1  0  0  0  0
  7  4  1  0  0  0  0
  8  3  1  0  0  0  0
  9 10  1  0  0  0  0
 11 10  1  6  0  0  0
 11  2  1  0  0  0  0
 12 13  2  0  0  0  0
 13 17  1  0  0  0  0
 13 14  1  0  0  0  0
 16 14  1  0  0  0  0
 16 15  2  0  0  0  0
 18 17  1  0  0  0  0
 21 22  1  0  0  0  0
 22 20  1  0  0  0  0
 23 19  1  6  0  0  0
 23 27  1  0  0  0  0
 24 21  1  0  0  0  0
 24 27  2  0  0  0  0
 25 23  1  0  0  0  0
 26 25  1  0  0  0  0
 26 24  1  0  0  0  0
 27 29  1  0  0  0  0
 28 30  2  0  0  0  0
 29 20  1  0  0  0  0
 30 25  2  0  0  0  0
M  END
>  <MODEL>
3

>  <REMARK>
 VINA RESULT:      -7.7      4.396      7.028
  Name = 
  4 active torsions:
  status: ('A' for Active; 'I' for Inactive)
    1  A    between atoms: C_5  and  C_6
    2  A    between atoms: C_5  and  C_13
    3  A    between atoms: C_10  and  C_27
    4  A    between atoms: C_11  and  C_14
                            x       y       z     vdW  Elec       q    Type
                         _______ _______ _______ _____ _____    ______ ____

>  <TORSDO>
F 4

$$$$
=
 OpenBabel11062413263D

 30 33  0  0  1  0  0  0  0  0999 V2000
  188.6810  178.6280  140.2120 C   0  0  0  0  0  2  0  0  0  0  0  0
  187.4080  177.3890  136.8250 C   0  0  0  0  0  2  0  0  0  0  0  0
  187.1830  178.3140  140.2350 C   0  0  2  0  0  3  0  0  0  0  0  0
  189.0690  176.6910  138.6410 C   0  0  0  0  0  2  0  0  0  0  0  0
  188.5850  176.4880  137.2020 C   0  0  2  0  0  3  0  0  0  0  0  0
  185.7620  177.5720  138.7530 N   0  0  1  0  0  0  0  0  0  0  0  0
  189.3720  178.1570  138.9350 C   0  0  0  0  0  2  0  0  0  0  0  0
  186.5860  178.6250  139.0080 O   0  0  0  0  0  0  0  0  0  0  0  0
  184.5810  178.1200  138.0970 C   0  0  0  0  0  2  0  0  0  0  0  0
  184.9120  177.4840  136.7650 C   0  0  0  0  0  2  0  0  0  0  0  0
  186.1090  176.9100  137.4810 C   0  0  1  0  0  3  0  0  0  0  0  0
  189.8380  174.0150  137.5800 O   0  0  0  0  0  0  0  0  0  0  0  0
  190.7330  174.3340  136.7530 C   0  0  0  0  0  0  0  0  0  0  0  0
  190.6920  175.5880  136.0580 N   0  0  0  0  0  2  0  0  0  0  0  0
  189.8040  177.6610  135.5160 O   0  0  0  0  0  0  0  0  0  0  0  0
  189.7090  176.6180  136.2160 C   0  0  0  0  0  0  0  0  0  0  0  0
  191.8340  173.3770  136.4640 C   0  0  0  0  0  2  0  0  0  0  0  0
  193.1450  173.9260  136.9900 C   0  0  0  0  0  1  0  0  0  0  0  0
  186.5030  179.0890  141.3540 C   0  0  0  0  0  2  0  0  0  0  0  0
  187.7490  177.4830  145.3290 C   0  0  0  0  0  2  0  0  0  0  0  0
  185.6220  178.6390  145.9540 C   0  0  0  0  0  2  0  0  0  0  0  0
  186.5810  177.5020  146.3090 C   0  0  0  0  0  2  0  0  0  0  0  0
  185.5720  178.1870  142.1560 C   0  0  2  0  0  3  0  0  0  0  0  0
  185.2840  178.6460  144.4850 C   0  0  0  0  0  0  0  0  0  0  0  0
  184.2190  178.8090  142.2750 C   0  0  0  0  0  0  0  0  0  0  0  0
  183.9230  179.6100  143.8470 S   0  0  0  0  0  0  0  0  0  0  0  0
  186.0620  178.0720  143.5600 C   0  0  0  0  0  0  0  0  0  0  0  0
  182.2670  177.7810  141.0140 O   0  0  0  0  0  0  0  0  0  0  0  0
  187.2370  177.1970  143.9170 C   0  0  0  0  0  2  0  0  0  0  0  0
  183.2180  178.2810  141.6280 C   0  0  0  0  0  0  0  0  0  0  0  0
  1  3  1  0  0  0  0
  2  5  1  0  0  0  0
  2 11  1  0  0  0  0
  3 19  1  1  0  0  0
  4  7  1  0  0  0  0
  5 16  1  6  0  0  0
  5  4  1  0  0  0  0
  6  9  1  6  0  0  0
  6  8  1  0  0  0  0
  7  1  1  0  0  0  0
  8  3  1  0  0  0  0
 10  9  1  0  0  0  0
 11 10  1  6  0  0  0
 11  6  1  0  0  0  0
 13 12  2  0  0  0  0
 14 16  1  0  0  0  0
 14 13  1  0  0  0  0
 15 16  2  0  0  0  0
 17 13  1  0  0  0  0
 17 18  1  0  0  0  0
 20 22  1  0  0  0  0
 21 22  1  0  0  0  0
 23 19  1  6  0  0  0
 23 25  1  0  0  0  0
 23 27  1  0  0  0  0
 24 21  1  0  0  0  0
 25 26  1  0  0  0  0
 26 24  1  0  0  0  0
 27 29  1  0  0  0  0
 27 24  2  0  0  0  0
 28 30  2  0  0  0  0
 29 20  1  0  0  0  0
 30 25  2  0  0  0  0
M  END
>  <MODEL>
4

>  <REMARK>
 VINA RESULT:      -7.6      1.552      1.857
  Name = 
  4 active torsions:
  status: ('A' for Active; 'I' for Inactive)
    1  A    between atoms: C_5  and  C_6
    2  A    between atoms: C_5  and  C_13
    3  A    between atoms: C_10  and  C_27
    4  A    between atoms: C_11  and  C_14
                            x       y       z     vdW  Elec       q    Type
                         _______ _______ _______ _____ _____    ______ ____

>  <TORSDO>
F 4

$$$$
=
 OpenBabel11062413263D

 30 33  0  0  1  0  0  0  0  0999 V2000
  186.9630  178.3010  141.1480 C   0  0  0  0  0  2  0  0  0  0  0  0
  189.9840  177.7080  143.4170 C   0  0  0  0  0  2  0  0  0  0  0  0
  188.1450  177.6900  140.3910 C   0  0  2  0  0  3  0  0  0  0  0  0
  187.5560  176.9370  143.1870 C   0  0  0  0  0  2  0  0  0  0  0  0
  188.8000  177.0030  144.0780 C   0  0  2  0  0  3  0  0  0  0  0  0
  190.1570  177.0650  140.9640 N   0  0  1  0  0  0  0  0  0  0  0  0
  187.1630  178.3140  142.6600 C   0  0  0  0  0  2  0  0  0  0  0  0
  189.3620  178.1670  140.8920 O   0  0  0  0  0  0  0  0  0  0  0  0
  191.5050  177.5040  140.6250 C   0  0  0  0  0  2  0  0  0  0  0  0
  192.0240  177.3000  142.0310 C   0  0  0  0  0  2  0  0  0  0  0  0
  190.6260  176.8250  142.3410 C   0  0  1  0  0  3  0  0  0  0  0  0
  191.1240  176.2950  145.4670 O   0  0  0  0  0  0  0  0  0  0  0  0
  190.6600  176.8090  146.5190 C   0  0  0  0  0  0  0  0  0  0  0  0
  189.3870  177.4670  146.5280 N   0  0  0  0  0  2  0  0  0  0  0  0
  187.4090  178.2270  145.5850 O   0  0  0  0  0  0  0  0  0  0  0  0
  188.4890  177.6020  145.4190 C   0  0  0  0  0  0  0  0  0  0  0  0
  191.4650  176.7630  147.7690 C   0  0  0  0  0  2  0  0  0  0  0  0
  192.4320  175.5970  147.7180 C   0  0  0  0  0  1  0  0  0  0  0  0
  188.0360  178.0060  138.9070 C   0  0  0  0  0  2  0  0  0  0  0  0
  184.5640  177.1280  136.2410 C   0  0  0  0  0  2  0  0  0  0  0  0
  186.4410  177.0110  134.5940 C   0  0  0  0  0  2  0  0  0  0  0  0
  185.0340  176.5130  134.9270 C   0  0  0  0  0  2  0  0  0  0  0  0
  187.9960  176.7290  138.0770 C   0  0  2  0  0  3  0  0  0  0  0  0
  187.3690  176.8960  135.7750 C   0  0  0  0  0  0  0  0  0  0  0  0
  189.2640  176.5670  137.3060 C   0  0  0  0  0  0  0  0  0  0  0  0
  189.1390  177.0500  135.5890 S   0  0  0  0  0  0  0  0  0  0  0  0
  186.9310  176.8320  137.0380 C   0  0  0  0  0  0  0  0  0  0  0  0
  190.8910  174.7300  137.9690 O   0  0  0  0  0  0  0  0  0  0  0  0
  185.4710  176.6690  137.3830 C   0  0  0  0  0  2  0  0  0  0  0  0
  190.0990  175.6240  137.6460 C   0  0  0  0  0  0  0  0  0  0  0  0
  1  7  1  0  0  0  0
  2  5  1  0  0  0  0
  3 19  1  6  0  0  0
  3  8  1  0  0  0  0
  3  1  1  0  0  0  0
  4  5  1  0  0  0  0
  5 16  1  1  0  0  0
  6  9  1  6  0  0  0
  6 11  1  0  0  0  0
  7  4  1  0  0  0  0
  8  6  1  0  0  0  0
  9 10  1  0  0  0  0
 11 10  1  6  0  0  0
 11  2  1  0  0  0  0
 12 13  2  0  0  0  0
 13 14  1  0  0  0  0
 13 17  1  0  0  0  0
 16 15  2  0  0  0  0
 16 14  1  0  0  0  0
 18 17  1  0  0  0  0
 20 29  1  0  0  0  0
 21 22  1  0  0  0  0
 21 24  1  0  0  0  0
 22 20  1  0  0  0  0
 23 19  1  6  0  0  0
 24 27  2  0  0  0  0
 25 30  2  0  0  0  0
 25 23  1  0  0  0  0
 26 24  1  0  0  0  0
 26 25  1  0  0  0  0
 27 29  1  0  0  0  0
 27 23  1  0  0  0  0
 30 28  2  0  0  0  0
M  END
>  <MODEL>
5

>  <REMARK>
 VINA RESULT:      -7.6      3.568      7.655
  Name = 
  4 active torsions:
  status: ('A' for Active; 'I' for Inactive)
    1  A    between atoms: C_5  and  C_6
    2  A    between atoms: C_5  and  C_13
    3  A    between atoms: C_10  and  C_27
    4  A    between atoms: C_11  and  C_14
                            x       y       z     vdW  Elec       q    Type
                         _______ _______ _______ _____ _____    ______ ____

>  <TORSDO>
F 4

$$$$
=
 OpenBabel11062413263D

 30 33  0  0  1  0  0  0  0  0999 V2000
  187.4160  178.3870  140.8040 C   0  0  0  0  0  2  0  0  0  0  0  0
  188.2230  176.8150  144.1960 C   0  0  0  0  0  2  0  0  0  0  0  0
  186.5650  178.9760  141.9320 C   0  0  2  0  0  3  0  0  0  0  0  0
  189.3800  178.1920  142.3770 C   0  0  0  0  0  2  0  0  0  0  0  0
  189.5480  177.3230  143.6260 C   0  0  2  0  0  3  0  0  0  0  0  0
  186.4440  178.6280  144.0840 N   0  0  1  0  0  0  0  0  0  0  0  0
  188.5440  177.4930  141.3080 C   0  0  0  0  0  2  0  0  0  0  0  0
  186.2590  178.0020  142.8900 O   0  0  0  0  0  0  0  0  0  0  0  0
  185.4220  178.1110  144.9850 C   0  0  0  0  0  2  0  0  0  0  0  0
  186.4220  177.3630  145.8390 C   0  0  0  0  0  2  0  0  0  0  0  0
  187.4570  177.9380  144.9040 C   0  0  1  0  0  3  0  0  0  0  0  0
  190.6890  177.1260  146.1740 O   0  0  0  0  0  0  0  0  0  0  0  0
  191.4590  176.2170  145.7660 C   0  0  0  0  0  0  0  0  0  0  0  0
  191.3870  175.7280  144.4210 N   0  0  0  0  0  2  0  0  0  0  0  0
  190.5560  175.6450  142.2570 O   0  0  0  0  0  0  0  0  0  0  0  0
  190.5070  176.1930  143.3900 C   0  0  0  0  0  0  0  0  0  0  0  0
  192.4390  175.6140  146.7090 C   0  0  0  0  0  2  0  0  0  0  0  0
  192.2400  176.1880  148.0970 C   0  0  0  0  0  1  0  0  0  0  0  0
  185.2830  179.5700  141.3670 C   0  0  0  0  0  2  0  0  0  0  0  0
  181.4820  178.8490  143.5950 C   0  0  0  0  0  2  0  0  0  0  0  0
  180.5900  179.2400  141.2920 C   0  0  0  0  0  2  0  0  0  0  0  0
  180.3400  178.5440  142.6300 C   0  0  0  0  0  2  0  0  0  0  0  0
  184.3200  178.4730  140.9290 C   0  0  2  0  0  3  0  0  0  0  0  0
  181.9920  179.0030  140.7920 C   0  0  0  0  0  0  0  0  0  0  0  0
  184.0240  178.5930  139.4700 C   0  0  0  0  0  0  0  0  0  0  0  0
  182.4560  179.3730  139.1080 S   0  0  0  0  0  0  0  0  0  0  0  0
  183.0010  178.6580  141.6000 C   0  0  0  0  0  0  0  0  0  0  0  0
  184.9440  176.8440  137.8720 O   0  0  0  0  0  0  0  0  0  0  0  0
  182.7910  178.2810  143.0460 C   0  0  0  0  0  2  0  0  0  0  0  0
  184.4960  177.6960  138.6500 C   0  0  0  0  0  0  0  0  0  0  0  0
  1  7  1  0  0  0  0
  1  3  1  0  0  0  0
  3 19  1  6  0  0  0
  3  8  1  0  0  0  0
  4  5  1  0  0  0  0
  5 16  1  6  0  0  0
  5  2  1  0  0  0  0
  6 11  1  0  0  0  0
  6  9  1  1  0  0  0
  7  4  1  0  0  0  0
  8  6  1  0  0  0  0
  9 10  1  0  0  0  0
 11  2  1  6  0  0  0
 11 10  1  0  0  0  0
 13 12  2  0  0  0  0
 13 17  1  0  0  0  0
 14 13  1  0  0  0  0
 15 16  2  0  0  0  0
 16 14  1  0  0  0  0
 17 18  1  0  0  0  0
 21 22  1  0  0  0  0
 22 20  1  0  0  0  0
 23 19  1  1  0  0  0
 23 27  1  0  0  0  0
 24 21  1  0  0  0  0
 24 27  2  0  0  0  0
 25 23  1  0  0  0  0
 26 25  1  0  0  0  0
 26 24  1  0  0  0  0
 27 29  1  0  0  0  0
 28 30  2  0  0  0  0
 29 20  1  0  0  0  0
 30 25  2  0  0  0  0
M  END
>  <MODEL>
6

>  <REMARK>
 VINA RESULT:      -7.5      3.864      6.070
  Name = 
  4 active torsions:
  status: ('A' for Active; 'I' for Inactive)
    1  A    between atoms: C_5  and  C_6
    2  A    between atoms: C_5  and  C_13
    3  A    between atoms: C_10  and  C_27
    4  A    between atoms: C_11  and  C_14
                            x       y       z     vdW  Elec       q    Type
                         _______ _______ _______ _____ _____    ______ ____

>  <TORSDO>
F 4

$$$$
=
 OpenBabel11062413263D

 30 33  0  0  1  0  0  0  0  0999 V2000
  190.6470  177.3460  139.5890 C   0  0  0  0  0  2  0  0  0  0  0  0
  188.5640  177.2230  142.7940 C   0  0  0  0  0  2  0  0  0  0  0  0
  189.4290  178.2710  139.5250 C   0  0  2  0  0  3  0  0  0  0  0  0
  190.9220  177.8690  142.0430 C   0  0  0  0  0  2  0  0  0  0  0  0
  189.9960  177.5480  143.2200 C   0  0  2  0  0  3  0  0  0  0  0  0
  187.8150  178.7580  140.9120 N   0  0  1  0  0  0  0  0  0  0  0  0
  190.8910  176.7730  140.9820 C   0  0  0  0  0  2  0  0  0  0  0  0
  188.3410  177.7170  140.2110 O   0  0  0  0  0  0  0  0  0  0  0  0
  186.3700  178.5650  140.9160 C   0  0  0  0  0  2  0  0  0  0  0  0
  186.3230  178.2520  142.3950 C   0  0  0  0  0  2  0  0  0  0  0  0
  187.8130  178.4860  142.3610 C   0  0  1  0  0  3  0  0  0  0  0  0
  188.9070  178.3040  145.6840 O   0  0  0  0  0  0  0  0  0  0  0  0
  189.5170  177.3600  146.2510 C   0  0  0  0  0  0  0  0  0  0  0  0
  190.3210  176.4370  145.5050 N   0  0  0  0  0  2  0  0  0  0  0  0
  191.2850  175.5700  143.5810 O   0  0  0  0  0  0  0  0  0  0  0  0
  190.5640  176.4680  144.0920 C   0  0  0  0  0  0  0  0  0  0  0  0
  189.3740  177.1770  147.7200 C   0  0  0  0  0  2  0  0  0  0  0  0
  188.4740  178.2560  148.2890 C   0  0  0  0  0  1  0  0  0  0  0  0
  189.0480  178.5350  138.0750 C   0  0  0  0  0  2  0  0  0  0  0  0
  184.8830  177.5030  136.8400 C   0  0  0  0  0  2  0  0  0  0  0  0
  186.0550  177.3770  134.6350 C   0  0  0  0  0  2  0  0  0  0  0  0
  184.8740  176.8590  135.4570 C   0  0  0  0  0  2  0  0  0  0  0  0
  188.7540  177.2320  137.3410 C   0  0  2  0  0  3  0  0  0  0  0  0
  187.3450  177.3170  135.4100 C   0  0  0  0  0  0  0  0  0  0  0  0
  189.6700  177.0750  136.1730 C   0  0  0  0  0  0  0  0  0  0  0  0
  188.9270  177.5030  134.6030 S   0  0  0  0  0  0  0  0  0  0  0  0
  187.3860  177.2820  136.7480 C   0  0  0  0  0  0  0  0  0  0  0  0
  191.4810  175.2930  136.2500 O   0  0  0  0  0  0  0  0  0  0  0  0
  186.1510  177.0980  137.5930 C   0  0  0  0  0  2  0  0  0  0  0  0
  190.5990  176.1610  136.2120 C   0  0  0  0  0  0  0  0  0  0  0  0
  1  7  1  0  0  0  0
  2  5  1  0  0  0  0
  3 19  1  6  0  0  0
  3  1  1  0  0  0  0
  3  8  1  0  0  0  0
  4  5  1  0  0  0  0
  5 16  1  6  0  0  0
  6  9  1  6  0  0  0
  6 11  1  0  0  0  0
  7  4  1  0  0  0  0
  8  6  1  0  0  0  0
  9 10  1  0  0  0  0
 11 10  1  6  0  0  0
 11  2  1  0  0  0  0
 12 13  2  0  0  0  0
 13 17  1  0  0  0  0
 14 13  1  0  0  0  0
 15 16  2  0  0  0  0
 16 14  1  0  0  0  0
 17 18  1  0  0  0  0
 20 29  1  0  0  0  0
 21 24  1  0  0  0  0
 21 22  1  0  0  0  0
 22 20  1  0  0  0  0
 23 19  1  6  0  0  0
 24 27  2  0  0  0  0
 25 30  2  0  0  0  0
 25 23  1  0  0  0  0
 26 24  1  0  0  0  0
 26 25  1  0  0  0  0
 27 23  1  0  0  0  0
 27 29  1  0  0  0  0
 30 28  2  0  0  0  0
M  END
>  <MODEL>
7

>  <REMARK>
 VINA RESULT:      -7.3      3.279      7.597
  Name = 
  4 active torsions:
  status: ('A' for Active; 'I' for Inactive)
    1  A    between atoms: C_5  and  C_6
    2  A    between atoms: C_5  and  C_13
    3  A    between atoms: C_10  and  C_27
    4  A    between atoms: C_11  and  C_14
                            x       y       z     vdW  Elec       q    Type
                         _______ _______ _______ _____ _____    ______ ____

>  <TORSDO>
F 4

$$$$
=
 OpenBabel11062413263D

 30 33  0  0  1  0  0  0  0  0999 V2000
  185.7020  179.0900  140.9310 C   0  0  0  0  0  2  0  0  0  0  0  0
  187.7800  178.3200  144.0480 C   0  0  0  0  0  2  0  0  0  0  0  0
  186.9710  178.3000  140.6010 C   0  0  2  0  0  3  0  0  0  0  0  0
  185.4620  177.8120  143.0940 C   0  0  0  0  0  2  0  0  0  0  0  0
  186.3700  177.7990  144.3280 C   0  0  2  0  0  3  0  0  0  0  0  0
  188.6120  177.4930  141.7930 N   0  0  1  0  0  0  0  0  0  0  0  0
  185.4280  179.1850  142.4290 C   0  0  0  0  0  2  0  0  0  0  0  0
  188.0260  178.6700  141.4430 O   0  0  0  0  0  0  0  0  0  0  0  0
  190.0440  177.7540  141.8800 C   0  0  0  0  0  2  0  0  0  0  0  0
  190.0760  177.5910  143.3840 C   0  0  0  0  0  2  0  0  0  0  0  0
  188.6020  177.2980  143.2550 C   0  0  1  0  0  3  0  0  0  0  0  0
  188.1860  177.1290  146.3480 O   0  0  0  0  0  0  0  0  0  0  0  0
  187.4850  177.7460  147.1930 C   0  0  0  0  0  0  0  0  0  0  0  0
  186.2970  178.4480  146.8040 N   0  0  0  0  0  2  0  0  0  0  0  0
  184.6950  179.1950  145.3030 O   0  0  0  0  0  0  0  0  0  0  0  0
  185.7420  178.5200  145.4850 C   0  0  0  0  0  0  0  0  0  0  0  0
  187.9170  177.7780  148.6150 C   0  0  0  0  0  2  0  0  0  0  0  0
  189.3530  178.2540  148.7080 C   0  0  0  0  0  1  0  0  0  0  0  0
  187.3640  178.5230  139.1480 C   0  0  0  0  0  2  0  0  0  0  0  0
  184.4980  176.9750  136.0950 C   0  0  0  0  0  2  0  0  0  0  0  0
  186.6090  177.0120  134.7570 C   0  0  0  0  0  2  0  0  0  0  0  0
  185.2450  176.3430  134.9250 C   0  0  0  0  0  2  0  0  0  0  0  0
  187.6210  177.1980  138.4410 C   0  0  2  0  0  3  0  0  0  0  0  0
  187.3470  177.1130  136.0670 C   0  0  0  0  0  0  0  0  0  0  0  0
  189.0050  177.1650  137.8820 C   0  0  0  0  0  0  0  0  0  0  0  0
  189.0890  177.5040  136.1280 S   0  0  0  0  0  0  0  0  0  0  0  0
  186.7280  177.0760  137.2530 C   0  0  0  0  0  0  0  0  0  0  0  0
  190.7320  175.6290  138.9390 O   0  0  0  0  0  0  0  0  0  0  0  0
  185.2660  176.7310  137.3940 C   0  0  0  0  0  2  0  0  0  0  0  0
  189.8910  176.3770  138.4240 C   0  0  0  0  0  0  0  0  0  0  0  0
  1  7  1  0  0  0  0
  2  5  1  0  0  0  0
  3 19  1  6  0  0  0
  3  1  1  0  0  0  0
  3  8  1  0  0  0  0
  4  5  1  0  0  0  0
  5 16  1  1  0  0  0
  6  9  1  1  0  0  0
  6 11  1  0  0  0  0
  7  4  1  0  0  0  0
  8  6  1  0  0  0  0
  9 10  1  0  0  0  0
 11 10  1  1  0  0  0
 11  2  1  0  0  0  0
 12 13  2  0  0  0  0
 13 17  1  0  0  0  0
 14 13  1  0  0  0  0
 15 16  2  0  0  0  0
 16 14  1  0  0  0  0
 17 18  1  0  0  0  0
 20 29  1  0  0  0  0
 21 22  1  0  0  0  0
 21 24  1  0  0  0  0
 22 20  1  0  0  0  0
 23 19  1  6  0  0  0
 24 26  1  0  0  0  0
 24 27  2  0  0  0  0
 25 30  2  0  0  0  0
 25 23  1  0  0  0  0
 26 25  1  0  0  0  0
 27 29  1  0  0  0  0
 27 23  1  0  0  0  0
 30 28  2  0  0  0  0
M  END
>  <MODEL>
8

>  <REMARK>
 VINA RESULT:      -6.9      3.291      8.304
  Name = 
  4 active torsions:
  status: ('A' for Active; 'I' for Inactive)
    1  A    between atoms: C_5  and  C_6
    2  A    between atoms: C_5  and  C_13
    3  A    between atoms: C_10  and  C_27
    4  A    between atoms: C_11  and  C_14
                            x       y       z     vdW  Elec       q    Type
                         _______ _______ _______ _____ _____    ______ ____

>  <TORSDO>
F 4

$$$$
=
 OpenBabel11062413263D

 30 33  0  0  1  0  0  0  0  0999 V2000
  188.1250  178.7050  140.8560 C   0  0  0  0  0  2  0  0  0  0  0  0
  186.1310  178.2530  137.6240 C   0  0  0  0  0  2  0  0  0  0  0  0
  186.6170  178.6280  141.1110 C   0  0  2  0  0  3  0  0  0  0  0  0
  187.9030  177.0170  138.9930 C   0  0  0  0  0  2  0  0  0  0  0  0
  187.1690  177.1310  137.6540 C   0  0  2  0  0  3  0  0  0  0  0  0
  184.8700  178.3690  139.8280 N   0  0  1  0  0  0  0  0  0  0  0  0
  188.5090  178.3500  139.4230 C   0  0  0  0  0  2  0  0  0  0  0  0
  185.9000  179.2250  140.0670 O   0  0  0  0  0  0  0  0  0  0  0  0
  183.7190  179.1930  139.4800 C   0  0  0  0  0  2  0  0  0  0  0  0
  183.7150  178.7420  138.0360 C   0  0  0  0  0  2  0  0  0  0  0  0
  184.8870  177.8790  138.4370 C   0  0  1  0  0  3  0  0  0  0  0  0
  187.1290  174.4890  136.7340 O   0  0  0  0  0  0  0  0  0  0  0  0
  187.9910  174.7720  135.8600 C   0  0  0  0  0  0  0  0  0  0  0  0
  188.4880  176.1080  135.7110 N   0  0  0  0  0  2  0  0  0  0  0  0
  188.6440  178.3620  136.2350 O   0  0  0  0  0  0  0  0  0  0  0  0
  188.1280  177.2460  136.5050 C   0  0  0  0  0  0  0  0  0  0  0  0
  188.4770  173.7070  134.9420 C   0  0  0  0  0  2  0  0  0  0  0  0
  188.5550  172.3860  135.6810 C   0  0  0  0  0  1  0  0  0  0  0  0
  186.2740  179.3040  142.4300 C   0  0  0  0  0  2  0  0  0  0  0  0
  189.0530  176.8870  144.9530 C   0  0  0  0  0  2  0  0  0  0  0  0
  187.6620  177.9730  146.7240 C   0  0  0  0  0  2  0  0  0  0  0  0
  188.5140  176.7530  146.3730 C   0  0  0  0  0  2  0  0  0  0  0  0
  185.7330  178.2960  143.4370 C   0  0  2  0  0  3  0  0  0  0  0  0
  186.6650  178.2890  145.6390 C   0  0  0  0  0  0  0  0  0  0  0  0
  184.7010  178.9320  144.3080 C   0  0  0  0  0  0  0  0  0  0  0  0
  185.3060  179.4120  145.9210 S   0  0  0  0  0  0  0  0  0  0  0  0
  186.8180  177.8830  144.3730 C   0  0  0  0  0  0  0  0  0  0  0  0
  182.2660  178.2540  144.0410 O   0  0  0  0  0  0  0  0  0  0  0  0
  187.8920  176.9090  143.9570 C   0  0  0  0  0  2  0  0  0  0  0  0
  183.4520  178.5840  144.1710 C   0  0  0  0  0  0  0  0  0  0  0  0
  1  3  1  0  0  0  0
  2  5  1  0  0  0  0
  3 19  1  1  0  0  0
  4  7  1  0  0  0  0
  5 16  1  6  0  0  0
  5  4  1  0  0  0  0
  6  9  1  6  0  0  0
  6  8  1  0  0  0  0
  7  1  1  0  0  0  0
  8  3  1  0  0  0  0
 10 11  1  0  0  0  0
 10  9  1  0  0  0  0
 11  2  1  6  0  0  0
 11  6  1  0  0  0  0
 13 12  2  0  0  0  0
 14 13  1  0  0  0  0
 14 16  1  0  0  0  0
 15 16  2  0  0  0  0
 17 18  1  0  0  0  0
 17 13  1  0  0  0  0
 20 22  1  0  0  0  0
 22 21  1  0  0  0  0
 23 19  1  6  0  0  0
 23 25  1  0  0  0  0
 23 27  1  0  0  0  0
 24 26  1  0  0  0  0
 24 21  1  0  0  0  0
 25 26  1  0  0  0  0
 27 24  2  0  0  0  0
 28 30  2  0  0  0  0
 29 27  1  0  0  0  0
 29 20  1  0  0  0  0
 30 25  2  0  0  0  0
M  END
>  <MODEL>
9

>  <REMARK>
 VINA RESULT:      -6.9      2.822      3.319
  Name = 
  4 active torsions:
  status: ('A' for Active; 'I' for Inactive)
    1  A    between atoms: C_5  and  C_6
    2  A    between atoms: C_5  and  C_13
    3  A    between atoms: C_10  and  C_27
    4  A    between atoms: C_11  and  C_14
                            x       y       z     vdW  Elec       q    Type
                         _______ _______ _______ _____ _____    ______ ____

>  <TORSDO>
F 4

$$$$
