=
 OpenBabel11062417113D

 36 40  0  0  1  0  0  0  0  0999 V2000
  188.7060  177.3390  140.7720 C   0  0  2  0  0  3  0  0  0  0  0  0
  189.5410  177.7260  146.9170 C   0  0  0  0  0  0  0  0  0  0  0  0
  188.1510  177.8300  147.4910 C   0  0  1  0  0  3  0  0  0  0  0  0
  187.1250  177.2430  146.5610 C   0  0  0  0  0  3  0  0  0  0  0  0
  190.4470  177.0740  147.5040 O   0  0  0  0  0  0  0  0  0  0  0  0
  187.0320  177.6670  145.3270 C   0  0  0  0  0  0  0  0  0  0  0  0
  187.2900  177.2470  142.9060 C   0  0  2  0  0  3  0  0  0  0  0  0
  190.8990  178.0170  144.8130 C   0  0  0  0  0  3  0  0  0  0  0  0
  188.4060  176.2220  143.1120 C   0  0  0  0  0  2  0  0  0  0  0  0
  189.5190  178.4390  142.9380 O   0  0  0  0  0  0  0  0  0  0  0  0
  189.7890  178.3280  145.6470 N   0  0  0  0  0  2  0  0  0  0  0  0
  188.6800  177.4690  142.2970 C   0  0  1  0  0  0  0  0  0  0  0  0
  187.0490  178.1240  144.1000 C   0  0  0  0  0  3  0  0  0  0  0  0
  188.0680  177.1730  148.7860 N   0  0  0  0  0  1  0  0  0  0  0  0
  190.7620  178.1050  143.4940 C   0  0  0  0  0  0  0  0  0  0  0  0
  191.9280  177.8030  142.6230 C   0  0  0  0  0  1  0  0  0  0  0  0
  190.7410  177.6580  139.3330 O   0  0  0  0  0  0  0  0  0  0  0  0
  190.0420  176.8950  140.2620 C   0  0  0  0  0  0  0  0  0  0  0  0
  190.5450  175.8240  140.6880 O   0  0  0  0  0  1  0  0  0  0  0  0
  188.2430  178.6230  140.0920 C   0  0  0  0  0  2  0  0  0  0  0  0
  186.8740  178.5180  139.7300 O   0  0  0  0  0  0  0  0  0  0  0  0
  187.3240  177.8410  137.5680 O   0  0  0  0  0  0  0  0  0  0  0  0
  186.4740  178.1390  138.4490 C   0  0  0  0  0  0  0  0  0  0  0  0
  185.0240  178.0970  138.1160 C   0  0  0  0  0  2  0  0  0  0  0  0
  184.2200  178.7440  139.2290 C   0  0  0  0  0  2  0  0  0  0  0  0
  183.7010  178.9780  145.7790 O   0  0  0  0  0  1  0  0  0  0  0  0
  184.3760  179.0180  142.1540 C   0  0  0  0  0  2  0  0  0  0  0  0
  183.4220  178.5650  144.4780 C   0  0  1  0  0  3  0  0  0  0  0  0
  181.4970  178.7140  142.9030 C   0  0  0  0  0  2  0  0  0  0  0  0
  182.0350  178.7540  141.4910 C   0  0  1  0  0  3  0  0  0  0  0  0
  182.4050  179.5140  143.8580 C   0  0  2  0  0  3  0  0  0  0  0  0
  183.3480  178.0930  141.5160 C   0  0  1  0  0  3  0  0  0  0  0  0
  183.5270  177.6740  140.0710 C   0  0  1  0  0  3  0  0  0  0  0  0
  183.9090  179.6200  143.5050 C   0  0  2  0  0  3  0  0  0  0  0  0
  181.3010  177.8800  140.5110 C   0  0  0  0  0  2  0  0  0  0  0  0
  182.2340  177.4240  139.5490 O   0  0  0  0  0  0  0  0  0  0  0  0
  1 20  1  6  0  0  0
  2  3  1  0  0  0  0
  2  5  2  0  0  0  0
  3 14  1  1  0  0  0
  4  3  1  0  0  0  0
  6  4  2  0  0  0  0
  7  9  1  1  0  0  0
  7 13  1  0  0  0  0
  8 11  1  0  0  0  0
 10 15  1  0  0  0  0
 11  2  1  0  0  0  0
 12  1  1  6  0  0  0
 12  7  1  0  0  0  0
 12 10  1  0  0  0  0
 12  9  1  0  0  0  0
 13  6  2  0  0  0  0
 15  8  2  0  0  0  0
 16 15  1  0  0  0  0
 17 18  2  0  0  0  0
 18 19  1  0  0  0  0
 18  1  1  0  0  0  0
 21 20  1  0  0  0  0
 22 23  2  0  0  0  0
 23 21  1  0  0  0  0
 24 23  1  0  0  0  0
 24 25  1  0  0  0  0
 28 26  1  1  0  0  0
 30 35  1  6  0  0  0
 30 32  1  0  0  0  0
 30 29  1  0  0  0  0
 31 29  1  6  0  0  0
 31 28  1  0  0  0  0
 32 27  1  6  0  0  0
 33 25  1  6  0  0  0
 33 32  1  0  0  0  0
 34 27  1  6  0  0  0
 34 31  1  0  0  0  0
 34 28  1  0  0  0  0
 36 33  1  0  0  0  0
 36 35  1  0  0  0  0
M  END
>  <MODEL>
1

>  <REMARK>
 VINA RESULT:      -8.7      0.000      0.000
  Name = 
  8 active torsions:
  status: ('A' for Active; 'I' for Inactive)
    1  A    between atoms: C_10  and  C_16
    2  A    between atoms: C_10  and  C_22
    3  A    between atoms: C_15  and  C_17
    4  A    between atoms: C_16  and  C_34
    5  A    between atoms: C_17  and  C_25
    6  A    between atoms: C_17  and  C_31
    7  A    between atoms: O_21  and  C_25
    8  A    between atoms: O_21  and  C_34
                            x       y       z     vdW  Elec       q    Type
                         _______ _______ _______ _____ _____    ______ ____

>  <TORSDO>
F 8

$$$$
=
 OpenBabel11062417113D

 36 40  0  0  1  0  0  0  0  0999 V2000
  182.7790  178.5800  140.3330 C   0  0  2  0  0  3  0  0  0  0  0  0
  181.1120  173.8340  136.6850 C   0  0  0  0  0  0  0  0  0  0  0  0
  179.8490  173.2930  137.3060 C   0  0  1  0  0  3  0  0  0  0  0  0
  179.1490  174.3380  138.1300 C   0  0  0  0  0  3  0  0  0  0  0  0
  181.2630  173.8770  135.4330 O   0  0  0  0  0  0  0  0  0  0  0  0
  179.7830  174.9540  139.0950 C   0  0  0  0  0  0  0  0  0  0  0  0
  180.7670  177.0250  140.0140 C   0  0  2  0  0  3  0  0  0  0  0  0
  183.1630  175.2300  137.1340 C   0  0  0  0  0  3  0  0  0  0  0  0
  181.0560  177.6080  138.6300 C   0  0  0  0  0  2  0  0  0  0  0  0
  183.0580  176.2720  139.2560 O   0  0  0  0  0  0  0  0  0  0  0  0
  182.1120  174.3680  137.5530 N   0  0  0  0  0  2  0  0  0  0  0  0
  182.2010  177.3710  139.5930 C   0  0  1  0  0  0  0  0  0  0  0  0
  180.5160  175.5450  140.0050 C   0  0  0  0  0  3  0  0  0  0  0  0
  178.9410  172.7840  136.2890 N   0  0  0  0  0  1  0  0  0  0  0  0
  183.6350  176.1340  137.9850 C   0  0  0  0  0  0  0  0  0  0  0  0
  184.7500  177.0200  137.5570 C   0  0  0  0  0  1  0  0  0  0  0  0
  184.5570  179.9510  139.2040 O   0  0  0  0  0  1  0  0  0  0  0  0
  183.2090  179.6670  139.3970 C   0  0  0  0  0  0  0  0  0  0  0  0
  182.3410  180.3230  138.7660 O   0  0  0  0  0  0  0  0  0  0  0  0
  183.9050  178.1730  141.2780 C   0  0  0  0  0  2  0  0  0  0  0  0
  183.9850  179.0870  142.3620 O   0  0  0  0  0  0  0  0  0  0  0  0
  181.8710  179.1560  143.2910 O   0  0  0  0  0  0  0  0  0  0  0  0
  183.1140  179.0240  143.4490 C   0  0  0  0  0  0  0  0  0  0  0  0
  183.6620  178.8070  144.8160 C   0  0  0  0  0  2  0  0  0  0  0  0
  185.1750  178.9110  144.7880 C   0  0  0  0  0  2  0  0  0  0  0  0
  190.3070  175.7020  142.2180 O   0  0  0  0  0  1  0  0  0  0  0  0
  187.3020  177.5670  143.2610 C   0  0  0  0  0  2  0  0  0  0  0  0
  189.3790  176.0860  143.1840 C   0  0  1  0  0  3  0  0  0  0  0  0
  189.4220  177.3100  145.3540 C   0  0  0  0  0  2  0  0  0  0  0  0
  188.0990  178.0190  145.5300 C   0  0  1  0  0  3  0  0  0  0  0  0
  189.8710  177.3480  143.8800 C   0  0  2  0  0  3  0  0  0  0  0  0
  187.1060  177.2730  144.7430 C   0  0  1  0  0  3  0  0  0  0  0  0
  185.8030  177.6650  145.4090 C   0  0  1  0  0  3  0  0  0  0  0  0
  188.7720  177.4180  142.7910 C   0  0  2  0  0  3  0  0  0  0  0  0
  187.5020  177.9090  146.9070 C   0  0  0  0  0  2  0  0  0  0  0  0
  186.0930  177.9100  146.7730 O   0  0  0  0  0  0  0  0  0  0  0  0
  1 20  1  6  0  0  0
  2  3  1  0  0  0  0
  2 11  1  0  0  0  0
  3 14  1  6  0  0  0
  3  4  1  0  0  0  0
  4  6  2  0  0  0  0
  5  2  2  0  0  0  0
  6 13  2  0  0  0  0
  7  9  1  6  0  0  0
  8 11  1  0  0  0  0
  8 15  2  0  0  0  0
  9 12  1  0  0  0  0
 10 12  1  0  0  0  0
 12  7  1  0  0  0  0
 12  1  1  1  0  0  0
 13  7  1  0  0  0  0
 15 10  1  0  0  0  0
 16 15  1  0  0  0  0
 17 18  1  0  0  0  0
 18  1  1  0  0  0  0
 19 18  2  0  0  0  0
 20 21  1  0  0  0  0
 21 23  1  0  0  0  0
 22 23  2  0  0  0  0
 23 24  1  0  0  0  0
 25 24  1  0  0  0  0
 28 26  1  6  0  0  0
 28 31  1  0  0  0  0
 30 29  1  1  0  0  0
 30 35  1  0  0  0  0
 31 29  1  1  0  0  0
 32 27  1  6  0  0  0
 32 33  1  0  0  0  0
 32 30  1  0  0  0  0
 33 25  1  6  0  0  0
 33 36  1  0  0  0  0
 34 28  1  0  0  0  0
 34 27  1  1  0  0  0
 34 31  1  0  0  0  0
 36 35  1  0  0  0  0
M  END
>  <MODEL>
2

>  <REMARK>
 VINA RESULT:      -8.1      4.110      8.885
  Name = 
  8 active torsions:
  status: ('A' for Active; 'I' for Inactive)
    1  A    between atoms: C_10  and  C_16
    2  A    between atoms: C_10  and  C_22
    3  A    between atoms: C_15  and  C_17
    4  A    between atoms: C_16  and  C_34
    5  A    between atoms: C_17  and  C_25
    6  A    between atoms: C_17  and  C_31
    7  A    between atoms: O_21  and  C_25
    8  A    between atoms: O_21  and  C_34
                            x       y       z     vdW  Elec       q    Type
                         _______ _______ _______ _____ _____    ______ ____

>  <TORSDO>
F 8

$$$$
=
 OpenBabel11062417113D

 36 40  0  0  1  0  0  0  0  0999 V2000
  183.3490  178.6170  140.3490 C   0  0  2  0  0  3  0  0  0  0  0  0
  179.5800  174.6850  137.3580 C   0  0  0  0  0  0  0  0  0  0  0  0
  180.2820  174.3900  136.0560 C   0  0  1  0  0  3  0  0  0  0  0  0
  181.7640  174.6140  136.1660 C   0  0  0  0  0  3  0  0  0  0  0  0
  178.9320  173.7930  137.9710 O   0  0  0  0  0  0  0  0  0  0  0  0
  182.2310  175.7690  136.5680 C   0  0  0  0  0  0  0  0  0  0  0  0
  183.4070  177.1130  138.2750 C   0  0  2  0  0  3  0  0  0  0  0  0
  179.4560  176.3130  139.2780 C   0  0  0  0  0  3  0  0  0  0  0  0
  182.9630  176.2070  139.4230 C   0  0  0  0  0  2  0  0  0  0  0  0
  181.1840  177.9260  139.1640 O   0  0  0  0  0  0  0  0  0  0  0  0
  179.7280  175.9880  137.9200 N   0  0  0  0  0  2  0  0  0  0  0  0
  182.5690  177.6690  139.4330 C   0  0  1  0  0  0  0  0  0  0  0  0
  182.5970  176.9400  137.0220 C   0  0  0  0  0  3  0  0  0  0  0  0
  180.0250  173.0260  135.6190 N   0  0  0  0  0  1  0  0  0  0  0  0
  180.1540  177.2810  139.8630 C   0  0  0  0  0  0  0  0  0  0  0  0
  179.8540  177.6370  141.2750 C   0  0  0  0  0  1  0  0  0  0  0  0
  185.7320  178.9750  139.6390 O   0  0  0  0  0  1  0  0  0  0  0  0
  184.4030  179.3820  139.6100 C   0  0  0  0  0  0  0  0  0  0  0  0
  184.0800  180.3980  138.9430 O   0  0  0  0  0  0  0  0  0  0  0  0
  183.9280  177.8820  141.5530 C   0  0  0  0  0  2  0  0  0  0  0  0
  184.1760  178.7980  142.6100 O   0  0  0  0  0  0  0  0  0  0  0  0
  182.0570  179.1690  143.4500 O   0  0  0  0  0  0  0  0  0  0  0  0
  183.2820  178.9690  143.6660 C   0  0  0  0  0  0  0  0  0  0  0  0
  183.7840  178.9280  145.0660 C   0  0  0  0  0  2  0  0  0  0  0  0
  185.2990  179.0110  145.0740 C   0  0  0  0  0  2  0  0  0  0  0  0
  190.2460  175.7450  142.2280 O   0  0  0  0  0  1  0  0  0  0  0  0
  187.3370  177.6640  143.4320 C   0  0  0  0  0  2  0  0  0  0  0  0
  189.3570  176.1170  143.2350 C   0  0  1  0  0  3  0  0  0  0  0  0
  189.4990  177.2400  145.4540 C   0  0  0  0  0  2  0  0  0  0  0  0
  188.2060  177.9850  145.6970 C   0  0  1  0  0  3  0  0  0  0  0  0
  189.9110  177.3280  143.9720 C   0  0  2  0  0  3  0  0  0  0  0  0
  187.1680  177.3100  144.9050 C   0  0  1  0  0  3  0  0  0  0  0  0
  185.8970  177.7160  145.6220 C   0  0  1  0  0  3  0  0  0  0  0  0
  188.7880  177.4860  142.9180 C   0  0  2  0  0  3  0  0  0  0  0  0
  187.6410  177.8340  147.0830 C   0  0  0  0  0  2  0  0  0  0  0  0
  186.2300  177.8900  146.9880 O   0  0  0  0  0  0  0  0  0  0  0  0
  1 20  1  1  0  0  0
  2 11  1  0  0  0  0
  2  5  2  0  0  0  0
  3 14  1  1  0  0  0
  3  4  1  0  0  0  0
  3  2  1  0  0  0  0
  4  6  2  0  0  0  0
  6 13  2  0  0  0  0
  7 13  1  6  0  0  0
  7  9  1  0  0  0  0
  7 12  1  0  0  0  0
  8 15  2  0  0  0  0
  9 12  1  0  0  0  0
 10 12  1  0  0  0  0
 10 15  1  0  0  0  0
 11  8  1  0  0  0  0
 12  1  1  1  0  0  0
 15 16  1  0  0  0  0
 18 17  1  0  0  0  0
 18  1  1  0  0  0  0
 19 18  2  0  0  0  0
 20 21  1  0  0  0  0
 21 23  1  0  0  0  0
 22 23  2  0  0  0  0
 23 24  1  0  0  0  0
 24 25  1  0  0  0  0
 28 26  1  6  0  0  0
 28 31  1  0  0  0  0
 30 29  1  1  0  0  0
 30 35  1  0  0  0  0
 31 29  1  1  0  0  0
 32 27  1  6  0  0  0
 32 33  1  0  0  0  0
 32 30  1  0  0  0  0
 33 25  1  6  0  0  0
 33 36  1  0  0  0  0
 34 28  1  0  0  0  0
 34 27  1  1  0  0  0
 34 31  1  0  0  0  0
 36 35  1  0  0  0  0
M  END
>  <MODEL>
3

>  <REMARK>
 VINA RESULT:      -7.9      4.102      9.084
  Name = 
  8 active torsions:
  status: ('A' for Active; 'I' for Inactive)
    1  A    between atoms: C_10  and  C_16
    2  A    between atoms: C_10  and  C_22
    3  A    between atoms: C_15  and  C_17
    4  A    between atoms: C_16  and  C_34
    5  A    between atoms: C_17  and  C_25
    6  A    between atoms: C_17  and  C_31
    7  A    between atoms: O_21  and  C_25
    8  A    between atoms: O_21  and  C_34
                            x       y       z     vdW  Elec       q    Type
                         _______ _______ _______ _____ _____    ______ ____

>  <TORSDO>
F 8

$$$$
=
 OpenBabel11062417113D

 36 40  0  0  1  0  0  0  0  0999 V2000
  190.0010  176.5120  144.2400 C   0  0  2  0  0  3  0  0  0  0  0  0
  184.3560  178.9680  145.0840 C   0  0  0  0  0  0  0  0  0  0  0  0
  183.8510  179.2670  143.6950 C   0  0  1  0  0  3  0  0  0  0  0  0
  184.5260  178.4020  142.6660 C   0  0  0  0  0  3  0  0  0  0  0  0
  183.5810  178.5520  145.9890 O   0  0  0  0  0  0  0  0  0  0  0  0
  185.8310  178.3800  142.5730 C   0  0  0  0  0  0  0  0  0  0  0  0
  187.9630  177.1590  142.8270 C   0  0  2  0  0  3  0  0  0  0  0  0
  186.4320  178.5180  146.4410 C   0  0  0  0  0  3  0  0  0  0  0  0
  187.4200  176.2610  143.9390 C   0  0  0  0  0  2  0  0  0  0  0  0
  188.3390  178.2820  145.0600 O   0  0  0  0  0  0  0  0  0  0  0  0
  185.7540  179.1000  145.3330 N   0  0  0  0  0  2  0  0  0  0  0  0
  188.6110  177.1550  144.2170 C   0  0  1  0  0  0  0  0  0  0  0  0
  187.1390  178.3920  142.5900 C   0  0  0  0  0  3  0  0  0  0  0  0
  182.4100  179.0910  143.6110 N   0  0  0  0  0  1  0  0  0  0  0  0
  187.7020  178.1520  146.3030 C   0  0  0  0  0  0  0  0  0  0  0  0
  188.4180  177.5670  147.4670 C   0  0  0  0  0  1  0  0  0  0  0  0
  191.2110  178.7130  144.3120 O   0  0  0  0  0  0  0  0  0  0  0  0
  191.0400  177.4270  144.8110 C   0  0  0  0  0  0  0  0  0  0  0  0
  191.7590  177.0310  145.7640 O   0  0  0  0  0  1  0  0  0  0  0  0
  190.4020  175.9960  142.8630 C   0  0  0  0  0  2  0  0  0  0  0  0
  191.5080  176.7370  142.3680 O   0  0  0  0  0  0  0  0  0  0  0  0
  192.5760  177.4640  140.4530 O   0  0  0  0  0  0  0  0  0  0  0  0
  191.5040  177.3120  141.0980 C   0  0  0  0  0  0  0  0  0  0  0  0
  190.2170  177.7630  140.5010 C   0  0  0  0  0  2  0  0  0  0  0  0
  190.2660  177.6080  138.9920 C   0  0  0  0  0  2  0  0  0  0  0  0
  184.0120  177.4550  136.9680 O   0  0  0  0  0  1  0  0  0  0  0  0
  187.3980  177.8410  138.3760 C   0  0  0  0  0  2  0  0  0  0  0  0
  185.3170  177.0050  137.1580 C   0  0  1  0  0  3  0  0  0  0  0  0
  187.2800  176.4770  135.7180 C   0  0  0  0  0  2  0  0  0  0  0  0
  188.5400  176.7510  136.5060 C   0  0  1  0  0  3  0  0  0  0  0  0
  186.1980  177.5290  136.0320 C   0  0  2  0  0  3  0  0  0  0  0  0
  188.1910  176.6190  137.9280 C   0  0  1  0  0  3  0  0  0  0  0  0
  189.5350  176.3360  138.5670 C   0  0  1  0  0  3  0  0  0  0  0  0
  186.2200  178.1910  137.4320 C   0  0  2  0  0  3  0  0  0  0  0  0
  189.6050  175.6960  136.3820 C   0  0  0  0  0  2  0  0  0  0  0  0
  190.3120  175.6420  137.6070 O   0  0  0  0  0  0  0  0  0  0  0  0
  1 20  1  6  0  0  0
  1 18  1  0  0  0  0
  2 11  1  0  0  0  0
  2  5  2  0  0  0  0
  3 14  1  1  0  0  0
  3  2  1  0  0  0  0
  4  3  1  0  0  0  0
  6 13  2  0  0  0  0
  6  4  2  0  0  0  0
  7 13  1  1  0  0  0
  7  9  1  0  0  0  0
  7 12  1  0  0  0  0
  9 12  1  0  0  0  0
 10 15  1  0  0  0  0
 11  8  1  0  0  0  0
 12  1  1  1  0  0  0
 12 10  1  0  0  0  0
 15  8  2  0  0  0  0
 15 16  1  0  0  0  0
 17 18  2  0  0  0  0
 18 19  1  0  0  0  0
 21 20  1  0  0  0  0
 22 23  2  0  0  0  0
 23 21  1  0  0  0  0
 24 23  1  0  0  0  0
 25 24  1  0  0  0  0
 28 26  1  6  0  0  0
 28 34  1  0  0  0  0
 30 29  1  6  0  0  0
 30 32  1  0  0  0  0
 31 29  1  1  0  0  0
 31 28  1  0  0  0  0
 31 34  1  0  0  0  0
 32 27  1  1  0  0  0
 32 33  1  0  0  0  0
 33 25  1  6  0  0  0
 34 27  1  1  0  0  0
 35 30  1  0  0  0  0
 35 36  1  0  0  0  0
 36 33  1  0  0  0  0
M  END
>  <MODEL>
4

>  <REMARK>
 VINA RESULT:      -7.9      2.373      5.995
  Name = 
  8 active torsions:
  status: ('A' for Active; 'I' for Inactive)
    1  A    between atoms: C_10  and  C_16
    2  A    between atoms: C_10  and  C_22
    3  A    between atoms: C_15  and  C_17
    4  A    between atoms: C_16  and  C_34
    5  A    between atoms: C_17  and  C_25
    6  A    between atoms: C_17  and  C_31
    7  A    between atoms: O_21  and  C_25
    8  A    between atoms: O_21  and  C_34
                            x       y       z     vdW  Elec       q    Type
                         _______ _______ _______ _____ _____    ______ ____

>  <TORSDO>
F 8

$$$$
=
 OpenBabel11062417113D

 36 40  0  0  1  0  0  0  0  0999 V2000
  186.7350  177.1390  136.9230 C   0  0  2  0  0  3  0  0  0  0  0  0
  183.8060  171.6770  136.4810 C   0  0  0  0  0  0  0  0  0  0  0  0
  182.3760  171.9720  136.8560 C   0  0  1  0  0  3  0  0  0  0  0  0
  182.0350  173.4190  136.6280 C   0  0  0  0  0  3  0  0  0  0  0  0
  184.0890  170.8450  135.5760 O   0  0  0  0  0  0  0  0  0  0  0  0
  182.7500  174.3630  137.1840 C   0  0  0  0  0  0  0  0  0  0  0  0
  184.3340  176.2460  136.9590 C   0  0  2  0  0  3  0  0  0  0  0  0
  186.1710  172.5340  136.6470 C   0  0  0  0  0  3  0  0  0  0  0  0
  184.9590  175.6840  135.6820 C   0  0  0  0  0  2  0  0  0  0  0  0
  186.2450  174.7100  137.5740 O   0  0  0  0  0  0  0  0  0  0  0  0
  184.8380  172.4190  137.1300 N   0  0  0  0  0  2  0  0  0  0  0  0
  185.8280  175.9060  136.9020 C   0  0  1  0  0  0  0  0  0  0  0  0
  183.5520  175.2320  137.7440 C   0  0  0  0  0  3  0  0  0  0  0  0
  181.4540  171.1290  136.1120 N   0  0  0  0  0  1  0  0  0  0  0  0
  186.8560  173.6440  136.8980 C   0  0  0  0  0  0  0  0  0  0  0  0
  188.2580  173.7550  136.4150 C   0  0  0  0  0  1  0  0  0  0  0  0
  186.8260  178.3700  134.7340 O   0  0  0  0  0  0  0  0  0  0  0  0
  187.3580  177.4100  135.5880 C   0  0  0  0  0  0  0  0  0  0  0  0
  188.3830  176.7700  135.2400 O   0  0  0  0  0  1  0  0  0  0  0  0
  187.7860  177.0430  138.0240 C   0  0  0  0  0  2  0  0  0  0  0  0
  187.8120  178.2460  138.7790 O   0  0  0  0  0  0  0  0  0  0  0  0
  187.0080  178.7580  140.8830 O   0  0  0  0  0  0  0  0  0  0  0  0
  187.9110  178.2440  140.1700 C   0  0  0  0  0  0  0  0  0  0  0  0
  189.1030  177.6360  140.8200 C   0  0  0  0  0  2  0  0  0  0  0  0
  188.8340  177.4240  142.2980 C   0  0  0  0  0  2  0  0  0  0  0  0
  188.4430  178.0550  148.8320 O   0  0  0  0  0  1  0  0  0  0  0  0
  188.2390  177.7050  145.1660 C   0  0  0  0  0  2  0  0  0  0  0  0
  189.0170  178.1100  147.5630 C   0  0  1  0  0  3  0  0  0  0  0  0
  190.8770  176.9650  146.3640 C   0  0  0  0  0  2  0  0  0  0  0  0
  190.5380  176.9150  144.8920 C   0  0  1  0  0  3  0  0  0  0  0  0
  189.6150  176.7520  147.2230 C   0  0  2  0  0  3  0  0  0  0  0  0
  189.6250  178.0350  144.6260 C   0  0  1  0  0  3  0  0  0  0  0  0
  189.8040  178.2530  143.1370 C   0  0  1  0  0  3  0  0  0  0  0  0
  188.2540  177.1920  146.6300 C   0  0  2  0  0  3  0  0  0  0  0  0
  191.6770  177.2590  143.9710 C   0  0  0  0  0  2  0  0  0  0  0  0
  191.1350  177.8860  142.8230 O   0  0  0  0  0  0  0  0  0  0  0  0
  1 20  1  1  0  0  0
  2  3  1  0  0  0  0
  2 11  1  0  0  0  0
  3 14  1  6  0  0  0
  4  3  1  0  0  0  0
  4  6  2  0  0  0  0
  5  2  2  0  0  0  0
  6 13  2  0  0  0  0
  7  9  1  6  0  0  0
  7 13  1  0  0  0  0
  8 15  2  0  0  0  0
  8 11  1  0  0  0  0
  9 12  1  0  0  0  0
 12  1  1  6  0  0  0
 12  7  1  0  0  0  0
 12 10  1  0  0  0  0
 15 10  1  0  0  0  0
 16 15  1  0  0  0  0
 17 18  2  0  0  0  0
 18  1  1  0  0  0  0
 19 18  1  0  0  0  0
 20 21  1  0  0  0  0
 21 23  1  0  0  0  0
 23 24  1  0  0  0  0
 23 22  2  0  0  0  0
 24 25  1  0  0  0  0
 28 26  1  1  0  0  0
 30 35  1  6  0  0  0
 30 29  1  0  0  0  0
 31 29  1  6  0  0  0
 31 28  1  0  0  0  0
 32 30  1  0  0  0  0
 32 27  1  6  0  0  0
 33 25  1  6  0  0  0
 33 32  1  0  0  0  0
 34 27  1  6  0  0  0
 34 31  1  0  0  0  0
 34 28  1  0  0  0  0
 36 33  1  0  0  0  0
 36 35  1  0  0  0  0
M  END
>  <MODEL>
5

>  <REMARK>
 VINA RESULT:      -7.7      4.522      8.543
  Name = 
  8 active torsions:
  status: ('A' for Active; 'I' for Inactive)
    1  A    between atoms: C_10  and  C_16
    2  A    between atoms: C_10  and  C_22
    3  A    between atoms: C_15  and  C_17
    4  A    between atoms: C_16  and  C_34
    5  A    between atoms: C_17  and  C_25
    6  A    between atoms: C_17  and  C_31
    7  A    between atoms: O_21  and  C_25
    8  A    between atoms: O_21  and  C_34
                            x       y       z     vdW  Elec       q    Type
                         _______ _______ _______ _____ _____    ______ ____

>  <TORSDO>
F 8

$$$$
=
 OpenBabel11062417113D

 36 40  0  0  1  0  0  0  0  0999 V2000
  186.9150  176.8870  136.5350 C   0  0  2  0  0  3  0  0  0  0  0  0
  192.6890  174.8500  137.5940 C   0  0  0  0  0  0  0  0  0  0  0  0
  192.7700  173.5240  136.8810 C   0  0  1  0  0  3  0  0  0  0  0  0
  191.7660  173.4370  135.7650 C   0  0  0  0  0  3  0  0  0  0  0  0
  193.6740  175.6390  137.6260 O   0  0  0  0  0  0  0  0  0  0  0  0
  190.4950  173.6370  136.0010 C   0  0  0  0  0  0  0  0  0  0  0  0
  188.4680  175.0210  135.7140 C   0  0  2  0  0  3  0  0  0  0  0  0
  191.0950  176.5570  138.5420 C   0  0  0  0  0  3  0  0  0  0  0  0
  189.2660  176.3150  135.5540 C   0  0  0  0  0  2  0  0  0  0  0  0
  188.8490  176.0500  137.9910 O   0  0  0  0  0  0  0  0  0  0  0  0
  191.4410  175.2270  138.1730 N   0  0  0  0  0  2  0  0  0  0  0  0
  188.2700  176.1890  136.6880 C   0  0  1  0  0  0  0  0  0  0  0  0
  189.2550  173.8990  136.3290 C   0  0  0  0  0  3  0  0  0  0  0  0
  194.1060  173.2900  136.3560 N   0  0  0  0  0  1  0  0  0  0  0  0
  189.8220  176.9350  138.4770 C   0  0  0  0  0  0  0  0  0  0  0  0
  189.4560  178.3170  138.8850 C   0  0  0  0  0  1  0  0  0  0  0  0
  187.3960  179.3420  136.7670 O   0  0  0  0  0  1  0  0  0  0  0  0
  187.0470  178.2640  135.9610 C   0  0  0  0  0  0  0  0  0  0  0  0
  186.8540  178.4470  134.7320 O   0  0  0  0  0  0  0  0  0  0  0  0
  186.1380  176.8960  137.8470 C   0  0  0  0  0  2  0  0  0  0  0  0
  184.7750  177.2150  137.6040 O   0  0  0  0  0  0  0  0  0  0  0  0
  182.8110  177.3430  138.8120 O   0  0  0  0  0  0  0  0  0  0  0  0
  183.9650  177.7920  138.5800 C   0  0  0  0  0  0  0  0  0  0  0  0
  184.4660  178.9630  139.3510 C   0  0  0  0  0  2  0  0  0  0  0  0
  184.4940  178.6320  140.8320 C   0  0  0  0  0  2  0  0  0  0  0  0
  185.3280  178.9900  147.3440 O   0  0  0  0  0  1  0  0  0  0  0  0
  184.4460  178.8340  143.7670 C   0  0  0  0  0  2  0  0  0  0  0  0
  185.6730  179.0480  145.9950 C   0  0  1  0  0  3  0  0  0  0  0  0
  187.1620  177.7840  144.4480 C   0  0  0  0  0  2  0  0  0  0  0  0
  186.5660  177.8370  143.0600 C   0  0  1  0  0  3  0  0  0  0  0  0
  186.0560  177.6550  145.5140 C   0  0  2  0  0  3  0  0  0  0  0  0
  185.7420  179.0520  142.9950 C   0  0  1  0  0  3  0  0  0  0  0  0
  185.6780  179.3220  141.5060 C   0  0  1  0  0  3  0  0  0  0  0  0
  184.6650  178.2540  145.1880 C   0  0  2  0  0  3  0  0  0  0  0  0
  187.5540  178.1110  141.9590 C   0  0  0  0  0  2  0  0  0  0  0  0
  186.8870  178.8420  140.9460 O   0  0  0  0  0  0  0  0  0  0  0  0
  1 20  1  1  0  0  0
  2  5  2  0  0  0  0
  2 11  1  0  0  0  0
  3 14  1  6  0  0  0
  3  2  1  0  0  0  0
  4  6  2  0  0  0  0
  4  3  1  0  0  0  0
  6 13  2  0  0  0  0
  7  9  1  6  0  0  0
  7 13  1  0  0  0  0
  7 12  1  0  0  0  0
  9 12  1  0  0  0  0
 10 15  1  0  0  0  0
 11  8  1  0  0  0  0
 12  1  1  6  0  0  0
 12 10  1  0  0  0  0
 15  8  2  0  0  0  0
 15 16  1  0  0  0  0
 18  1  1  0  0  0  0
 18 17  1  0  0  0  0
 19 18  2  0  0  0  0
 21 20  1  0  0  0  0
 21 23  1  0  0  0  0
 23 22  2  0  0  0  0
 23 24  1  0  0  0  0
 24 25  1  0  0  0  0
 28 26  1  1  0  0  0
 30 35  1  6  0  0  0
 30 29  1  0  0  0  0
 31 29  1  6  0  0  0
 31 28  1  0  0  0  0
 32 30  1  0  0  0  0
 32 27  1  6  0  0  0
 33 25  1  6  0  0  0
 33 32  1  0  0  0  0
 34 27  1  6  0  0  0
 34 31  1  0  0  0  0
 34 28  1  0  0  0  0
 36 33  1  0  0  0  0
 36 35  1  0  0  0  0
M  END
>  <MODEL>
6

>  <REMARK>
 VINA RESULT:      -7.6      3.644      6.730
  Name = 
  8 active torsions:
  status: ('A' for Active; 'I' for Inactive)
    1  A    between atoms: C_10  and  C_16
    2  A    between atoms: C_10  and  C_22
    3  A    between atoms: C_15  and  C_17
    4  A    between atoms: C_16  and  C_34
    5  A    between atoms: C_17  and  C_25
    6  A    between atoms: C_17  and  C_31
    7  A    between atoms: O_21  and  C_25
    8  A    between atoms: O_21  and  C_34
                            x       y       z     vdW  Elec       q    Type
                         _______ _______ _______ _____ _____    ______ ____

>  <TORSDO>
F 8

$$$$
=
 OpenBabel11062417113D

 36 40  0  0  1  0  0  0  0  0999 V2000
  187.9920  177.3030  137.9770 C   0  0  2  0  0  3  0  0  0  0  0  0
  192.8750  173.6800  136.6940 C   0  0  0  0  0  0  0  0  0  0  0  0
  192.3070  172.5300  135.9010 C   0  0  1  0  0  3  0  0  0  0  0  0
  191.0190  172.9110  135.2250 C   0  0  0  0  0  3  0  0  0  0  0  0
  194.0080  174.1660  136.4260 O   0  0  0  0  0  0  0  0  0  0  0  0
  190.0200  173.3880  135.9230 C   0  0  0  0  0  0  0  0  0  0  0  0
  188.5400  175.2790  136.5040 C   0  0  2  0  0  3  0  0  0  0  0  0
  192.2820  175.5410  138.2880 C   0  0  0  0  0  3  0  0  0  0  0  0
  189.5980  176.3280  136.1650 C   0  0  0  0  0  2  0  0  0  0  0  0
  189.9400  175.7430  138.5580 O   0  0  0  0  0  0  0  0  0  0  0  0
  192.0630  174.2570  137.7160 N   0  0  0  0  0  2  0  0  0  0  0  0
  189.0390  176.2620  137.5700 C   0  0  1  0  0  0  0  0  0  0  0  0
  189.1000  173.8990  136.7010 C   0  0  0  0  0  3  0  0  0  0  0  0
  193.2580  172.0570  134.9090 N   0  0  0  0  0  1  0  0  0  0  0  0
  191.2400  176.2420  138.7220 C   0  0  0  0  0  0  0  0  0  0  0  0
  191.4700  177.5740  139.3410 C   0  0  0  0  0  1  0  0  0  0  0  0
  187.2510  178.8730  136.1600 O   0  0  0  0  0  0  0  0  0  0  0  0
  188.1260  178.5760  137.1990 C   0  0  0  0  0  0  0  0  0  0  0  0
  189.0330  179.3950  137.4990 O   0  0  0  0  0  1  0  0  0  0  0  0
  188.0100  177.5590  139.4800 C   0  0  0  0  0  2  0  0  0  0  0  0
  187.2300  178.7050  139.7890 O   0  0  0  0  0  0  0  0  0  0  0  0
  185.4420  179.5250  141.0000 O   0  0  0  0  0  0  0  0  0  0  0  0
  186.4600  178.7850  140.9490 C   0  0  0  0  0  0  0  0  0  0  0  0
  186.8530  177.9930  142.1460 C   0  0  0  0  0  2  0  0  0  0  0  0
  186.3290  178.6630  143.4020 C   0  0  0  0  0  2  0  0  0  0  0  0
  190.8390  176.3900  147.6130 O   0  0  0  0  0  1  0  0  0  0  0  0
  188.6190  177.6740  144.9630 C   0  0  0  0  0  2  0  0  0  0  0  0
  189.5700  176.6450  147.0960 C   0  0  1  0  0  3  0  0  0  0  0  0
  187.5870  178.0040  147.7500 C   0  0  0  0  0  2  0  0  0  0  0  0
  186.8690  178.4390  146.4930 C   0  0  1  0  0  3  0  0  0  0  0  0
  189.1140  178.0270  147.5440 C   0  0  2  0  0  3  0  0  0  0  0  0
  187.1930  177.4530  145.4530 C   0  0  1  0  0  3  0  0  0  0  0  0
  186.0440  177.6170  144.4790 C   0  0  1  0  0  3  0  0  0  0  0  0
  189.6540  177.7940  146.1120 C   0  0  2  0  0  3  0  0  0  0  0  0
  185.3720  178.3090  146.5440 C   0  0  0  0  0  2  0  0  0  0  0  0
  184.9140  178.0130  145.2370 O   0  0  0  0  0  0  0  0  0  0  0  0
  1 20  1  1  0  0  0
  2 11  1  0  0  0  0
  3 14  1  6  0  0  0
  3  2  1  0  0  0  0
  4  3  1  0  0  0  0
  4  6  2  0  0  0  0
  5  2  2  0  0  0  0
  6 13  2  0  0  0  0
  7  9  1  6  0  0  0
  7 13  1  0  0  0  0
  7 12  1  0  0  0  0
  8 15  2  0  0  0  0
  9 12  1  0  0  0  0
 10 15  1  0  0  0  0
 11  8  1  0  0  0  0
 12  1  1  1  0  0  0
 12 10  1  0  0  0  0
 15 16  1  0  0  0  0
 17 18  2  0  0  0  0
 18 19  1  0  0  0  0
 18  1  1  0  0  0  0
 20 21  1  0  0  0  0
 21 23  1  0  0  0  0
 23 22  2  0  0  0  0
 23 24  1  0  0  0  0
 24 25  1  0  0  0  0
 28 31  1  0  0  0  0
 28 26  1  1  0  0  0
 30 35  1  1  0  0  0
 30 29  1  0  0  0  0
 31 29  1  6  0  0  0
 32 27  1  6  0  0  0
 32 30  1  0  0  0  0
 33 25  1  6  0  0  0
 33 36  1  0  0  0  0
 33 32  1  0  0  0  0
 34 27  1  6  0  0  0
 34 28  1  0  0  0  0
 34 31  1  0  0  0  0
 36 35  1  0  0  0  0
M  END
>  <MODEL>
7

>  <REMARK>
 VINA RESULT:      -7.6      3.956      7.485
  Name = 
  8 active torsions:
  status: ('A' for Active; 'I' for Inactive)
    1  A    between atoms: C_10  and  C_16
    2  A    between atoms: C_10  and  C_22
    3  A    between atoms: C_15  and  C_17
    4  A    between atoms: C_16  and  C_34
    5  A    between atoms: C_17  and  C_25
    6  A    between atoms: C_17  and  C_31
    7  A    between atoms: O_21  and  C_25
    8  A    between atoms: O_21  and  C_34
                            x       y       z     vdW  Elec       q    Type
                         _______ _______ _______ _____ _____    ______ ____

>  <TORSDO>
F 8

$$$$
=
 OpenBabel11062417113D

 36 40  0  0  1  0  0  0  0  0999 V2000
  188.6430  177.3880  140.8470 C   0  0  2  0  0  3  0  0  0  0  0  0
  189.4330  177.6940  147.0030 C   0  0  0  0  0  0  0  0  0  0  0  0
  188.0460  177.8810  147.5630 C   0  0  1  0  0  3  0  0  0  0  0  0
  186.9960  177.3630  146.6190 C   0  0  0  0  0  3  0  0  0  0  0  0
  190.2910  176.9840  147.5960 O   0  0  0  0  0  0  0  0  0  0  0  0
  186.9430  177.7980  145.3860 C   0  0  0  0  0  0  0  0  0  0  0  0
  187.2010  177.3730  142.9660 C   0  0  2  0  0  3  0  0  0  0  0  0
  190.8300  177.9090  144.9150 C   0  0  0  0  0  3  0  0  0  0  0  0
  188.2490  176.2810  143.1780 C   0  0  0  0  0  2  0  0  0  0  0  0
  189.4990  178.4260  143.0280 O   0  0  0  0  0  0  0  0  0  0  0  0
  189.7320  178.2850  145.7390 N   0  0  0  0  0  2  0  0  0  0  0  0
  188.6090  177.5120  142.3730 C   0  0  1  0  0  0  0  0  0  0  0  0
  187.0010  178.2590  144.1620 C   0  0  0  0  0  3  0  0  0  0  0  0
  187.9080  177.2240  148.8540 N   0  0  0  0  0  1  0  0  0  0  0  0
  190.7130  178.0120  143.5960 C   0  0  0  0  0  0  0  0  0  0  0  0
  191.8670  177.6420  142.7350 C   0  0  0  0  0  1  0  0  0  0  0  0
  190.7480  178.1430  139.7020 O   0  0  0  0  0  0  0  0  0  0  0  0
  190.0240  177.1340  140.3290 C   0  0  0  0  0  0  0  0  0  0  0  0
  190.5430  175.9970  140.4730 O   0  0  0  0  0  1  0  0  0  0  0  0
  188.0020  178.5960  140.1720 C   0  0  0  0  0  2  0  0  0  0  0  0
  187.2930  178.1860  139.0110 O   0  0  0  0  0  0  0  0  0  0  0  0
  188.4440  179.3590  137.3870 O   0  0  0  0  0  0  0  0  0  0  0  0
  187.8340  178.3120  137.7320 C   0  0  0  0  0  0  0  0  0  0  0  0
  187.6770  177.1980  136.7570 C   0  0  0  0  0  2  0  0  0  0  0  0
  188.5170  176.0110  137.1920 C   0  0  0  0  0  2  0  0  0  0  0  0
  195.0520  175.9650  136.4670 O   0  0  0  0  0  1  0  0  0  0  0  0
  191.4340  176.3730  137.0500 C   0  0  0  0  0  2  0  0  0  0  0  0
  193.7270  175.6020  136.2360 C   0  0  1  0  0  3  0  0  0  0  0  0
  192.3260  173.5640  136.5430 C   0  0  0  0  0  2  0  0  0  0  0  0
  190.9020  173.9970  136.8030 C   0  0  1  0  0  3  0  0  0  0  0  0
  193.3230  174.5200  137.2290 C   0  0  2  0  0  3  0  0  0  0  0  0
  190.7390  175.3230  136.1910 C   0  0  1  0  0  3  0  0  0  0  0  0
  189.2400  175.4070  135.9890 C   0  0  1  0  0  3  0  0  0  0  0  0
  192.8860  175.9910  137.4360 C   0  0  2  0  0  3  0  0  0  0  0  0
  189.8580  173.2150  136.0550 C   0  0  0  0  0  2  0  0  0  0  0  0
  188.7770  174.0860  135.7730 O   0  0  0  0  0  0  0  0  0  0  0  0
  1 20  1  6  0  0  0
  2  3  1  0  0  0  0
  2  5  2  0  0  0  0
  3 14  1  1  0  0  0
  4  3  1  0  0  0  0
  6  4  2  0  0  0  0
  7  9  1  1  0  0  0
  7 13  1  0  0  0  0
  8 11  1  0  0  0  0
 10 15  1  0  0  0  0
 11  2  1  0  0  0  0
 12  1  1  6  0  0  0
 12  7  1  0  0  0  0
 12 10  1  0  0  0  0
 12  9  1  0  0  0  0
 13  6  2  0  0  0  0
 15  8  2  0  0  0  0
 16 15  1  0  0  0  0
 17 18  2  0  0  0  0
 18 19  1  0  0  0  0
 18  1  1  0  0  0  0
 21 20  1  0  0  0  0
 22 23  2  0  0  0  0
 23 21  1  0  0  0  0
 24 25  1  0  0  0  0
 24 23  1  0  0  0  0
 28 26  1  1  0  0  0
 28 31  1  0  0  0  0
 28 34  1  0  0  0  0
 29 30  1  0  0  0  0
 30 35  1  6  0  0  0
 31 29  1  6  0  0  0
 31 34  1  0  0  0  0
 32 30  1  0  0  0  0
 32 27  1  1  0  0  0
 33 32  1  0  0  0  0
 33 25  1  1  0  0  0
 34 27  1  6  0  0  0
 36 33  1  0  0  0  0
 36 35  1  0  0  0  0
M  END
>  <MODEL>
8

>  <REMARK>
 VINA RESULT:      -7.6      2.882      6.438
  Name = 
  8 active torsions:
  status: ('A' for Active; 'I' for Inactive)
    1  A    between atoms: C_10  and  C_16
    2  A    between atoms: C_10  and  C_22
    3  A    between atoms: C_15  and  C_17
    4  A    between atoms: C_16  and  C_34
    5  A    between atoms: C_17  and  C_25
    6  A    between atoms: C_17  and  C_31
    7  A    between atoms: O_21  and  C_25
    8  A    between atoms: O_21  and  C_34
                            x       y       z     vdW  Elec       q    Type
                         _______ _______ _______ _____ _____    ______ ____

>  <TORSDO>
F 8

$$$$
=
 OpenBabel11062417113D

 36 40  0  0  1  0  0  0  0  0999 V2000
  188.7110  177.3870  140.8400 C   0  0  2  0  0  3  0  0  0  0  0  0
  189.4300  177.7790  146.9990 C   0  0  0  0  0  0  0  0  0  0  0  0
  188.0300  177.8770  147.5480 C   0  0  1  0  0  3  0  0  0  0  0  0
  187.0230  177.2870  146.5990 C   0  0  0  0  0  3  0  0  0  0  0  0
  190.3280  177.1290  147.6030 O   0  0  0  0  0  0  0  0  0  0  0  0
  186.9510  177.7100  145.3630 C   0  0  0  0  0  0  0  0  0  0  0  0
  187.2560  177.2910  142.9470 C   0  0  2  0  0  3  0  0  0  0  0  0
  190.8270  178.0730  144.9210 C   0  0  0  0  0  3  0  0  0  0  0  0
  188.3720  176.2700  143.1740 C   0  0  0  0  0  2  0  0  0  0  0  0
  189.4800  178.4910  143.0200 O   0  0  0  0  0  0  0  0  0  0  0  0
  189.7000  178.3810  145.7340 N   0  0  0  0  0  2  0  0  0  0  0  0
  188.6570  177.5170  142.3640 C   0  0  1  0  0  0  0  0  0  0  0  0
  186.9900  178.1680  144.1370 C   0  0  0  0  0  3  0  0  0  0  0  0
  187.9250  177.2210  148.8410 N   0  0  0  0  0  1  0  0  0  0  0  0
  190.7140  178.1600  143.6000 C   0  0  0  0  0  0  0  0  0  0  0  0
  191.8970  177.8620  142.7500 C   0  0  0  0  0  1  0  0  0  0  0  0
  190.7330  177.5900  139.3620 O   0  0  0  0  0  0  0  0  0  0  0  0
  190.0440  176.9060  140.3570 C   0  0  0  0  0  0  0  0  0  0  0  0
  190.5550  175.8760  140.8680 O   0  0  0  0  0  1  0  0  0  0  0  0
  188.2990  178.6840  140.1510 C   0  0  0  0  0  2  0  0  0  0  0  0
  187.4560  178.4020  139.0440 O   0  0  0  0  0  0  0  0  0  0  0  0
  188.8160  179.4210  137.4790 O   0  0  0  0  0  0  0  0  0  0  0  0
  187.8530  178.6480  137.7300 C   0  0  0  0  0  0  0  0  0  0  0  0
  187.1220  177.9970  136.6090 C   0  0  0  0  0  2  0  0  0  0  0  0
  187.9000  176.7890  136.1190 C   0  0  0  0  0  2  0  0  0  0  0  0
  183.6690  171.8780  137.2180 O   0  0  0  0  0  1  0  0  0  0  0  0
  185.7050  174.8660  136.4960 C   0  0  0  0  0  2  0  0  0  0  0  0
  184.8590  172.5980  137.3040 C   0  0  1  0  0  3  0  0  0  0  0  0
  187.2200  172.2890  136.5710 C   0  0  0  0  0  2  0  0  0  0  0  0
  187.8200  173.6510  136.3020 C   0  0  1  0  0  3  0  0  0  0  0  0
  185.7470  172.2420  136.1190 C   0  0  2  0  0  3  0  0  0  0  0  0
  187.0720  174.6160  137.1210 C   0  0  1  0  0  3  0  0  0  0  0  0
  188.0500  175.7660  137.2420 C   0  0  1  0  0  3  0  0  0  0  0  0
  184.9420  173.5640  136.1390 C   0  0  2  0  0  3  0  0  0  0  0  0
  189.2100  173.8450  136.8430 C   0  0  0  0  0  2  0  0  0  0  0  0
  189.3520  175.2070  137.2030 O   0  0  0  0  0  0  0  0  0  0  0  0
  1 20  1  6  0  0  0
  2  3  1  0  0  0  0
  2  5  2  0  0  0  0
  3 14  1  1  0  0  0
  4  3  1  0  0  0  0
  6  4  2  0  0  0  0
  7  9  1  1  0  0  0
  7 13  1  0  0  0  0
  8 11  1  0  0  0  0
 10 15  1  0  0  0  0
 11  2  1  0  0  0  0
 12  1  1  6  0  0  0
 12  7  1  0  0  0  0
 12 10  1  0  0  0  0
 12  9  1  0  0  0  0
 13  6  2  0  0  0  0
 15  8  2  0  0  0  0
 16 15  1  0  0  0  0
 17 18  2  0  0  0  0
 18  1  1  0  0  0  0
 18 19  1  0  0  0  0
 21 20  1  0  0  0  0
 22 23  2  0  0  0  0
 23 21  1  0  0  0  0
 24 23  1  0  0  0  0
 25 24  1  0  0  0  0
 28 26  1  6  0  0  0
 30 29  1  1  0  0  0
 30 35  1  0  0  0  0
 30 32  1  0  0  0  0
 31 34  1  0  0  0  0
 31 29  1  1  0  0  0
 31 28  1  0  0  0  0
 32 27  1  6  0  0  0
 32 33  1  0  0  0  0
 33 25  1  6  0  0  0
 34 27  1  1  0  0  0
 34 28  1  0  0  0  0
 35 36  1  0  0  0  0
 36 33  1  0  0  0  0
M  END
>  <MODEL>
9

>  <REMARK>
 VINA RESULT:      -7.5      2.902      5.146
  Name = 
  8 active torsions:
  status: ('A' for Active; 'I' for Inactive)
    1  A    between atoms: C_10  and  C_16
    2  A    between atoms: C_10  and  C_22
    3  A    between atoms: C_15  and  C_17
    4  A    between atoms: C_16  and  C_34
    5  A    between atoms: C_17  and  C_25
    6  A    between atoms: C_17  and  C_31
    7  A    between atoms: O_21  and  C_25
    8  A    between atoms: O_21  and  C_34
                            x       y       z     vdW  Elec       q    Type
                         _______ _______ _______ _____ _____    ______ ____

>  <TORSDO>
F 8

$$$$
