=
 OpenBabel11062415443D

 27 33  0  0  1  0  0  0  0  0999 V2000
  183.3020  179.9380  144.8790 F   0  0  0  0  0  0  0  0  0  0  0  0
  185.9480  178.0110  143.5530 C   0  0  0  0  0  0  0  0  0  0  0  0
  191.4150  176.0860  145.1910 O   0  0  0  0  0  1  0  0  0  0  0  0
  185.7890  178.3560  145.7720 C   0  0  0  0  0  0  0  0  0  0  0  0
  191.0750  176.8720  141.9570 C   0  0  0  0  0  2  0  0  0  0  0  0
  188.4330  177.4100  143.4330 N   0  0  0  0  0  2  0  0  0  0  0  0
  185.0850  178.4070  144.5020 C   0  0  0  0  0  0  0  0  0  0  0  0
  190.8430  179.0720  143.7540 C   0  0  0  0  0  2  0  0  0  0  0  0
  183.7350  179.1820  142.6630 C   0  0  1  0  0  3  0  0  0  0  0  0
  190.2080  175.8570  142.6920 C   0  0  0  0  0  2  0  0  0  0  0  0
  189.2920  176.5640  146.6040 S   0  0  0  0  0  0  0  0  0  0  0  0
  183.6070  177.8490  140.7160 N   0  0  0  0  0  2  0  0  0  0  0  0
  192.0590  178.6440  142.9280 C   0  0  0  0  0  2  0  0  0  0  0  0
  192.1440  177.2530  142.7780 O   0  0  0  0  0  0  0  0  0  0  0  0
  187.2460  177.7200  144.1660 C   0  0  0  0  0  0  0  0  0  0  0  0
  184.0120  177.8410  142.0760 C   0  0  2  0  0  0  0  0  0  0  0  0
  189.4330  176.4470  143.8800 C   0  0  1  0  0  3  0  0  0  0  0  0
  182.8490  178.6270  141.6620 N   0  0  1  0  0  0  0  0  0  0  0  0
  190.7550  178.3700  145.1080 C   0  0  0  0  0  2  0  0  0  0  0  0
  188.2330  178.0420  146.5130 C   0  0  0  0  0  0  0  0  0  0  0  0
  190.2810  176.8970  145.1010 C   0  0  2  0  0  0  0  0  0  0  0  0
  185.3940  178.7400  146.9810 C   0  0  0  0  0  3  0  0  0  0  0  0
  183.6590  178.8170  144.1540 C   0  0  2  0  0  3  0  0  0  0  0  0
  186.3700  178.6720  148.0900 C   0  0  0  0  0  3  0  0  0  0  0  0
  187.1440  177.9080  145.4850 C   0  0  1  0  0  3  0  0  0  0  0  0
  187.6570  178.3350  147.8850 C   0  0  0  0  0  3  0  0  0  0  0  0
  185.5410  178.0440  142.0810 C   0  0  0  0  0  2  0  0  0  0  0  0
  2 15  2  0  0  0  0
  2  7  1  0  0  0  0
  4 22  1  0  0  0  0
  5 10  1  0  0  0  0
  5 14  1  0  0  0  0
  6 17  1  0  0  0  0
  6 15  1  0  0  0  0
  7  4  2  0  0  0  0
  8 19  1  0  0  0  0
  9 23  1  0  0  0  0
 10 17  1  0  0  0  0
 12 18  1  0  0  0  0
 12 16  1  0  0  0  0
 13  8  1  0  0  0  0
 14 13  1  0  0  0  0
 15 25  1  0  0  0  0
 16 27  1  0  0  0  0
 16  9  1  0  0  0  0
 17 21  1  0  0  0  0
 18 16  1  0  0  0  0
 18  9  1  0  0  0  0
 20 11  1  0  0  0  0
 20 26  2  0  0  0  0
 21 19  1  0  0  0  0
 21  3  1  0  0  0  0
 21 11  1  0  0  0  0
 22 24  2  0  0  0  0
 23  7  1  0  0  0  0
 23  1  1  0  0  0  0
 25  4  1  0  0  0  0
 25 20  1  0  0  0  0
 26 24  1  0  0  0  0
 27  2  1  0  0  0  0
M  END
>  <MODEL>
1

>  <REMARK>
 VINA RESULT:      -9.2      0.000      0.000
  Name = 
  0 active torsions:
  status: ('A' for Active; 'I' for Inactive)
                            x       y       z     vdW  Elec       q    Type
                         _______ _______ _______ _____ _____    ______ ____

>  <TORSDO>
F 0

$$$$
=
 OpenBabel11062415443D

 27 33  0  0  1  0  0  0  0  0999 V2000
  187.0460  177.4930  143.7160 F   0  0  0  0  0  0  0  0  0  0  0  0
  189.7570  176.9850  141.5110 C   0  0  0  0  0  0  0  0  0  0  0  0
  190.7870  176.7210  135.5820 O   0  0  0  0  0  1  0  0  0  0  0  0
  187.8630  177.9600  140.7830 C   0  0  0  0  0  0  0  0  0  0  0  0
  192.6090  174.6310  137.4540 C   0  0  0  0  0  2  0  0  0  0  0  0
  190.6880  176.2190  139.2530 N   0  0  0  0  0  2  0  0  0  0  0  0
  188.6410  177.5870  141.9510 C   0  0  0  0  0  0  0  0  0  0  0  0
  189.8130  174.0820  137.4240 C   0  0  0  0  0  2  0  0  0  0  0  0
  189.2530  176.6910  144.1030 C   0  0  1  0  0  3  0  0  0  0  0  0
  192.5650  176.1420  137.6460 C   0  0  0  0  0  2  0  0  0  0  0  0
  189.0460  178.0820  136.9420 S   0  0  0  0  0  0  0  0  0  0  0  0
  191.5340  176.7010  144.7220 N   0  0  0  0  0  2  0  0  0  0  0  0
  190.9220  173.4050  136.6150 C   0  0  0  0  0  2  0  0  0  0  0  0
  191.9500  174.2930  136.2660 O   0  0  0  0  0  0  0  0  0  0  0  0
  189.7280  176.9180  140.0480 C   0  0  0  0  0  0  0  0  0  0  0  0
  190.6070  177.2270  143.7860 C   0  0  2  0  0  0  0  0  0  0  0  0
  191.1630  176.6880  137.9560 C   0  0  1  0  0  3  0  0  0  0  0  0
  190.1920  176.9780  145.1670 N   0  0  1  0  0  0  0  0  0  0  0  0
  189.2490  175.3310  136.7500 C   0  0  0  0  0  2  0  0  0  0  0  0
  187.9630  177.4520  138.2630 C   0  0  0  0  0  0  0  0  0  0  0  0
  190.1220  176.6080  136.8060 C   0  0  2  0  0  0  0  0  0  0  0  0
  186.6470  178.4910  140.7030 C   0  0  0  0  0  3  0  0  0  0  0  0
  188.3730  177.7630  143.4420 C   0  0  2  0  0  3  0  0  0  0  0  0
  186.0480  178.6690  139.3630 C   0  0  0  0  0  3  0  0  0  0  0  0
  188.6120  177.5140  139.6180 C   0  0  1  0  0  3  0  0  0  0  0  0
  186.6530  178.2160  138.2490 C   0  0  0  0  0  3  0  0  0  0  0  0
  190.7500  176.3840  142.5030 C   0  0  0  0  0  2  0  0  0  0  0  0
  2  7  1  0  0  0  0
  2 27  1  0  0  0  0
  3 21  1  0  0  0  0
  4  7  2  0  0  0  0
  5 10  1  0  0  0  0
  6 15  1  0  0  0  0
  7 23  1  0  0  0  0
  9 18  1  0  0  0  0
 10 17  1  0  0  0  0
 11 20  1  0  0  0  0
 12 18  1  0  0  0  0
 13  8  1  0  0  0  0
 14 13  1  0  0  0  0
 14  5  1  0  0  0  0
 15  2  2  0  0  0  0
 16  9  1  0  0  0  0
 16 12  1  0  0  0  0
 16 18  1  0  0  0  0
 17  6  1  0  0  0  0
 19 21  1  0  0  0  0
 19  8  1  0  0  0  0
 20 25  1  0  0  0  0
 21 11  1  0  0  0  0
 21 17  1  0  0  0  0
 22  4  1  0  0  0  0
 23  1  1  0  0  0  0
 23  9  1  0  0  0  0
 24 22  2  0  0  0  0
 25 15  1  0  0  0  0
 25  4  1  0  0  0  0
 26 20  2  0  0  0  0
 26 24  1  0  0  0  0
 27 16  1  0  0  0  0
M  END
>  <MODEL>
2

>  <REMARK>
 VINA RESULT:      -7.8      4.546      7.110
  Name = 
  0 active torsions:
  status: ('A' for Active; 'I' for Inactive)
                            x       y       z     vdW  Elec       q    Type
                         _______ _______ _______ _____ _____    ______ ____

>  <TORSDO>
F 0

$$$$
=
 OpenBabel11062415443D

 27 33  0  0  1  0  0  0  0  0999 V2000
  184.5120  177.8780  146.2460 F   0  0  0  0  0  0  0  0  0  0  0  0
  185.2990  178.1610  142.8150 C   0  0  0  0  0  0  0  0  0  0  0  0
  182.4430  178.7650  137.5470 O   0  0  0  0  0  1  0  0  0  0  0  0
  183.2870  178.8190  143.5820 C   0  0  0  0  0  0  0  0  0  0  0  0
  185.2050  176.8800  137.4780 C   0  0  0  0  0  2  0  0  0  0  0  0
  184.6880  177.8480  140.3490 N   0  0  0  0  0  2  0  0  0  0  0  0
  184.6510  178.4790  143.9470 C   0  0  0  0  0  0  0  0  0  0  0  0
  183.0550  175.7980  139.0050 C   0  0  0  0  0  2  0  0  0  0  0  0
  186.5420  177.4870  145.0650 C   0  0  1  0  0  3  0  0  0  0  0  0
  185.1590  178.3220  137.9690 C   0  0  0  0  0  2  0  0  0  0  0  0
  181.8130  179.5970  139.9230 S   0  0  0  0  0  0  0  0  0  0  0  0
  188.7020  177.8780  144.1890 N   0  0  0  0  0  2  0  0  0  0  0  0
  183.4760  175.4470  137.5760 C   0  0  0  0  0  2  0  0  0  0  0  0
  183.9830  176.5520  136.8780 O   0  0  0  0  0  0  0  0  0  0  0  0
  184.3740  178.2530  141.6840 C   0  0  0  0  0  0  0  0  0  0  0  0
  187.3530  178.3120  144.1250 C   0  0  2  0  0  0  0  0  0  0  0  0
  184.2120  178.5430  139.1590 C   0  0  1  0  0  3  0  0  0  0  0  0
  187.9090  177.8340  145.3910 N   0  0  1  0  0  0  0  0  0  0  0  0
  182.0900  176.9790  139.0780 C   0  0  0  0  0  2  0  0  0  0  0  0
  181.8440  178.6240  141.4610 C   0  0  0  0  0  0  0  0  0  0  0  0
  182.6940  178.3880  138.8690 C   0  0  2  0  0  0  0  0  0  0  0  0
  182.2450  179.1060  144.3550 C   0  0  0  0  0  3  0  0  0  0  0  0
  185.3530  178.4320  145.3000 C   0  0  2  0  0  3  0  0  0  0  0  0
  180.9300  179.3100  143.7090 C   0  0  0  0  0  3  0  0  0  0  0  0
  183.1850  178.6610  142.1390 C   0  0  1  0  0  3  0  0  0  0  0  0
  180.7490  179.1120  142.3900 C   0  0  0  0  0  3  0  0  0  0  0  0
  186.7410  177.6610  142.8680 C   0  0  0  0  0  2  0  0  0  0  0  0
  2 27  1  0  0  0  0
  2  7  1  0  0  0  0
  3 21  1  0  0  0  0
  4  7  2  0  0  0  0
  4 22  1  0  0  0  0
  5 10  1  0  0  0  0
  6 15  1  0  0  0  0
  7 23  1  0  0  0  0
  8 19  1  0  0  0  0
  9 23  1  0  0  0  0
  9 18  1  0  0  0  0
 10 17  1  0  0  0  0
 11 20  1  0  0  0  0
 12 18  1  0  0  0  0
 13  8  1  0  0  0  0
 14  5  1  0  0  0  0
 14 13  1  0  0  0  0
 15 25  1  0  0  0  0
 15  2  2  0  0  0  0
 16 12  1  0  0  0  0
 16  9  1  0  0  0  0
 16 18  1  0  0  0  0
 17  6  1  0  0  0  0
 20 25  1  0  0  0  0
 20 26  2  0  0  0  0
 21 19  1  0  0  0  0
 21 17  1  0  0  0  0
 21 11  1  0  0  0  0
 23  1  1  0  0  0  0
 24 22  2  0  0  0  0
 25  4  1  0  0  0  0
 26 24  1  0  0  0  0
 27 16  1  0  0  0  0
M  END
>  <MODEL>
3

>  <REMARK>
 VINA RESULT:      -7.7      4.281      7.079
  Name = 
  0 active torsions:
  status: ('A' for Active; 'I' for Inactive)
                            x       y       z     vdW  Elec       q    Type
                         _______ _______ _______ _____ _____    ______ ____

>  <TORSDO>
F 0

$$$$
=
 OpenBabel11062415443D

 27 33  0  0  1  0  0  0  0  0999 V2000
  187.7060  177.4310  143.8860 F   0  0  0  0  0  0  0  0  0  0  0  0
  185.7370  178.3920  141.1170 C   0  0  0  0  0  0  0  0  0  0  0  0
  179.9480  179.4290  139.8160 O   0  0  0  0  0  1  0  0  0  0  0  0
  184.9410  178.6080  143.2110 C   0  0  0  0  0  0  0  0  0  0  0  0
  181.7400  178.0120  137.3720 C   0  0  0  0  0  2  0  0  0  0  0  0
  183.5090  178.4050  139.8550 N   0  0  0  0  0  2  0  0  0  0  0  0
  186.1300  178.4180  142.4000 C   0  0  0  0  0  0  0  0  0  0  0  0
  181.3720  176.3860  139.6830 C   0  0  0  0  0  2  0  0  0  0  0  0
  188.2160  177.5480  141.5630 C   0  0  1  0  0  3  0  0  0  0  0  0
  182.0980  179.3300  138.0490 C   0  0  0  0  0  2  0  0  0  0  0  0
  181.2740  179.7530  142.0220 S   0  0  0  0  0  0  0  0  0  0  0  0
  189.0550  178.3950  139.5220 N   0  0  0  0  0  2  0  0  0  0  0  0
  180.6050  176.3420  138.3590 C   0  0  0  0  0  2  0  0  0  0  0  0
  180.4620  177.6110  137.7790 O   0  0  0  0  0  0  0  0  0  0  0  0
  184.2800  178.5320  141.0520 C   0  0  0  0  0  0  0  0  0  0  0  0
  188.0980  178.6280  140.5430 C   0  0  2  0  0  0  0  0  0  0  0  0
  182.3280  179.2080  139.5630 C   0  0  1  0  0  3  0  0  0  0  0  0
  189.3930  178.0350  140.8750 N   0  0  1  0  0  0  0  0  0  0  0  0
  180.7920  177.3810  140.6850 C   0  0  0  0  0  2  0  0  0  0  0  0
  182.4020  178.5550  142.8010 C   0  0  0  0  0  0  0  0  0  0  0  0
  181.0790  178.8800  140.4250 C   0  0  2  0  0  0  0  0  0  0  0  0
  184.8020  178.6050  144.5330 C   0  0  0  0  0  3  0  0  0  0  0  0
  187.5980  178.2530  142.7800 C   0  0  2  0  0  3  0  0  0  0  0  0
  183.4380  178.7160  145.0930 C   0  0  0  0  0  3  0  0  0  0  0  0
  183.8120  178.6770  142.2950 C   0  0  1  0  0  3  0  0  0  0  0  0
  182.3450  178.7140  144.3080 C   0  0  0  0  0  3  0  0  0  0  0  0
  186.7470  178.1100  140.0070 C   0  0  0  0  0  2  0  0  0  0  0  0
  2  7  1  0  0  0  0
  3 21  1  0  0  0  0
  4 22  1  0  0  0  0
  5 14  1  0  0  0  0
  5 10  1  0  0  0  0
  6 15  1  0  0  0  0
  7 23  1  0  0  0  0
  7  4  2  0  0  0  0
  8 19  1  0  0  0  0
  9 23  1  0  0  0  0
 10 17  1  0  0  0  0
 11 20  1  0  0  0  0
 12 16  1  0  0  0  0
 12 18  1  0  0  0  0
 13  8  1  0  0  0  0
 14 13  1  0  0  0  0
 15  2  2  0  0  0  0
 15 25  1  0  0  0  0
 16 18  1  0  0  0  0
 16  9  1  0  0  0  0
 17  6  1  0  0  0  0
 17 21  1  0  0  0  0
 18  9  1  0  0  0  0
 20 26  2  0  0  0  0
 21 19  1  0  0  0  0
 21 11  1  0  0  0  0
 22 24  2  0  0  0  0
 23  1  1  0  0  0  0
 25 20  1  0  0  0  0
 25  4  1  0  0  0  0
 26 24  1  0  0  0  0
 27 16  1  0  0  0  0
 27  2  1  0  0  0  0
M  END
>  <MODEL>
4

>  <REMARK>
 VINA RESULT:      -6.9      4.847      7.687
  Name = 
  0 active torsions:
  status: ('A' for Active; 'I' for Inactive)
                            x       y       z     vdW  Elec       q    Type
                         _______ _______ _______ _____ _____    ______ ____

>  <TORSDO>
F 0

$$$$
=
 OpenBabel11062415443D

 27 33  0  0  1  0  0  0  0  0999 V2000
  188.3980  176.7650  145.5340 F   0  0  0  0  0  0  0  0  0  0  0  0
  187.1440  177.9290  142.4450 C   0  0  0  0  0  0  0  0  0  0  0  0
  181.8840  179.5970  140.0290 O   0  0  0  0  0  1  0  0  0  0  0  0
  185.9710  178.2380  144.3410 C   0  0  0  0  0  0  0  0  0  0  0  0
  183.9670  177.9820  137.9680 C   0  0  0  0  0  2  0  0  0  0  0  0
  185.2310  178.1840  140.7630 N   0  0  0  0  0  2  0  0  0  0  0  0
  187.2710  177.9160  143.7810 C   0  0  0  0  0  0  0  0  0  0  0  0
  182.9650  176.4140  140.1270 C   0  0  0  0  0  2  0  0  0  0  0  0
  189.3750  176.8160  143.3640 C   0  0  1  0  0  3  0  0  0  0  0  0
  184.3220  179.2540  138.7280 C   0  0  0  0  0  2  0  0  0  0  0  0
  182.7670  179.7790  142.4620 S   0  0  0  0  0  0  0  0  0  0  0  0
  190.6950  177.5570  141.5490 N   0  0  0  0  0  2  0  0  0  0  0  0
  182.4800  176.4520  138.6750 C   0  0  0  0  0  2  0  0  0  0  0  0
  182.5960  177.7260  138.1030 O   0  0  0  0  0  0  0  0  0  0  0  0
  185.7550  178.2290  142.0920 C   0  0  0  0  0  0  0  0  0  0  0  0
  189.5830  177.8990  142.3610 C   0  0  2  0  0  0  0  0  0  0  0  0
  184.2280  179.1130  140.2550 C   0  0  1  0  0  3  0  0  0  0  0  0
  190.7120  177.1670  142.9350 N   0  0  1  0  0  0  0  0  0  0  0  0
  182.3070  177.4710  141.0110 C   0  0  0  0  0  2  0  0  0  0  0  0
  183.5770  178.4660  143.4290 C   0  0  0  0  0  0  0  0  0  0  0  0
  182.8020  178.9280  140.8430 C   0  0  2  0  0  0  0  0  0  0  0  0
  185.5700  178.2560  145.6080 C   0  0  0  0  0  3  0  0  0  0  0  0
  188.6050  177.5900  144.4450 C   0  0  2  0  0  3  0  0  0  0  0  0
  184.1410  178.5190  145.8850 C   0  0  0  0  0  3  0  0  0  0  0  0
  185.0640  178.4300  143.2190 C   0  0  1  0  0  3  0  0  0  0  0  0
  183.2350  178.6360  144.8970 C   0  0  0  0  0  3  0  0  0  0  0  0
  188.3200  177.5320  141.5550 C   0  0  0  0  0  2  0  0  0  0  0  0
  2  7  1  0  0  0  0
  3 21  1  0  0  0  0
  4 22  1  0  0  0  0
  5 14  1  0  0  0  0
  5 10  1  0  0  0  0
  6 15  1  0  0  0  0
  7  4  2  0  0  0  0
  7 23  1  0  0  0  0
  8 19  1  0  0  0  0
  9 23  1  0  0  0  0
 10 17  1  0  0  0  0
 11 20  1  0  0  0  0
 12 16  1  0  0  0  0
 12 18  1  0  0  0  0
 13  8  1  0  0  0  0
 14 13  1  0  0  0  0
 15  2  2  0  0  0  0
 15 25  1  0  0  0  0
 16 18  1  0  0  0  0
 16  9  1  0  0  0  0
 17  6  1  0  0  0  0
 17 21  1  0  0  0  0
 18  9  1  0  0  0  0
 20 26  2  0  0  0  0
 21 19  1  0  0  0  0
 21 11  1  0  0  0  0
 22 24  2  0  0  0  0
 23  1  1  0  0  0  0
 25 20  1  0  0  0  0
 25  4  1  0  0  0  0
 26 24  1  0  0  0  0
 27 16  1  0  0  0  0
 27  2  1  0  0  0  0
M  END
>  <MODEL>
5

>  <REMARK>
 VINA RESULT:      -6.9      4.054      6.742
  Name = 
  0 active torsions:
  status: ('A' for Active; 'I' for Inactive)
                            x       y       z     vdW  Elec       q    Type
                         _______ _______ _______ _____ _____    ______ ____

>  <TORSDO>
F 0

$$$$
=
 OpenBabel11062415443D

 27 33  0  0  1  0  0  0  0  0999 V2000
  191.7900  178.5640  143.0720 F   0  0  0  0  0  0  0  0  0  0  0  0
  189.3260  177.1340  140.9850 C   0  0  0  0  0  0  0  0  0  0  0  0
  188.7160  175.3340  135.2700 O   0  0  0  0  0  1  0  0  0  0  0  0
  191.5010  177.0250  140.4200 C   0  0  0  0  0  0  0  0  0  0  0  0
  185.9940  176.7110  136.6430 C   0  0  0  0  0  2  0  0  0  0  0  0
  188.3050  176.7530  138.6690 N   0  0  0  0  0  2  0  0  0  0  0  0
  190.5590  177.2720  141.4960 C   0  0  0  0  0  0  0  0  0  0  0  0
  188.1910  178.4930  136.2950 C   0  0  0  0  0  2  0  0  0  0  0  0
  189.4440  178.2910  143.3750 C   0  0  1  0  0  3  0  0  0  0  0  0
  186.7350  175.5100  137.2190 C   0  0  0  0  0  2  0  0  0  0  0  0
  190.7930  175.3680  136.8250 S   0  0  0  0  0  0  0  0  0  0  0  0
  187.4030  177.3580  144.1170 N   0  0  0  0  0  2  0  0  0  0  0  0
  186.9530  178.3260  135.4090 C   0  0  0  0  0  2  0  0  0  0  0  0
  186.4970  177.0010  135.3680 O   0  0  0  0  0  0  0  0  0  0  0  0
  189.4230  176.8260  139.5570 C   0  0  0  0  0  0  0  0  0  0  0  0
  188.5330  177.1140  143.2940 C   0  0  2  0  0  0  0  0  0  0  0  0
  188.2030  175.7970  137.5720 C   0  0  1  0  0  3  0  0  0  0  0  0
  188.6810  177.8780  144.5330 N   0  0  1  0  0  0  0  0  0  0  0  0
  189.3250  177.5350  135.9360 C   0  0  0  0  0  2  0  0  0  0  0  0
  191.3520  176.7530  137.8660 C   0  0  0  0  0  0  0  0  0  0  0  0
  189.1600  176.0610  136.3770 C   0  0  2  0  0  0  0  0  0  0  0  0
  192.8260  177.1350  140.4050 C   0  0  0  0  0  3  0  0  0  0  0  0
  190.7710  177.6360  142.9620 C   0  0  2  0  0  3  0  0  0  0  0  0
  193.5310  176.9230  139.1220 C   0  0  0  0  0  3  0  0  0  0  0  0
  190.7150  176.7440  139.2270 C   0  0  1  0  0  3  0  0  0  0  0  0
  192.8650  176.7290  137.9680 C   0  0  0  0  0  3  0  0  0  0  0  0
  188.0980  177.4240  141.8470 C   0  0  0  0  0  2  0  0  0  0  0  0
  2  7  1  0  0  0  0
  2 27  1  0  0  0  0
  3 21  1  0  0  0  0
  4  7  2  0  0  0  0
  5 10  1  0  0  0  0
  6 15  1  0  0  0  0
  7 23  1  0  0  0  0
  9 18  1  0  0  0  0
 10 17  1  0  0  0  0
 11 20  1  0  0  0  0
 12 18  1  0  0  0  0
 13  8  1  0  0  0  0
 14 13  1  0  0  0  0
 14  5  1  0  0  0  0
 15  2  2  0  0  0  0
 16  9  1  0  0  0  0
 16 12  1  0  0  0  0
 16 18  1  0  0  0  0
 17  6  1  0  0  0  0
 19  8  1  0  0  0  0
 19 21  1  0  0  0  0
 20 26  2  0  0  0  0
 20 25  1  0  0  0  0
 21 11  1  0  0  0  0
 21 17  1  0  0  0  0
 22  4  1  0  0  0  0
 23  1  1  0  0  0  0
 23  9  1  0  0  0  0
 24 22  2  0  0  0  0
 25 15  1  0  0  0  0
 25  4  1  0  0  0  0
 26 24  1  0  0  0  0
 27 16  1  0  0  0  0
M  END
>  <MODEL>
6

>  <REMARK>
 VINA RESULT:      -6.9      5.116      7.886
  Name = 
  0 active torsions:
  status: ('A' for Active; 'I' for Inactive)
                            x       y       z     vdW  Elec       q    Type
                         _______ _______ _______ _____ _____    ______ ____

>  <TORSDO>
F 0

$$$$
=
 OpenBabel11062415443D

 27 33  0  0  1  0  0  0  0  0999 V2000
  188.2220  178.0970  142.5370 F   0  0  0  0  0  0  0  0  0  0  0  0
  185.9920  178.3310  139.8090 C   0  0  0  0  0  0  0  0  0  0  0  0
  180.0560  178.5850  138.8180 O   0  0  0  0  0  1  0  0  0  0  0  0
  185.3140  178.8740  141.8860 C   0  0  0  0  0  0  0  0  0  0  0  0
  181.8240  176.8880  136.5410 C   0  0  0  0  0  2  0  0  0  0  0  0
  183.6990  177.9050  138.7540 N   0  0  0  0  0  2  0  0  0  0  0  0
  186.4620  178.6370  141.0280 C   0  0  0  0  0  0  0  0  0  0  0  0
  181.7720  175.7100  139.1350 C   0  0  0  0  0  2  0  0  0  0  0  0
  188.5680  177.8090  140.1990 C   0  0  1  0  0  3  0  0  0  0  0  0
  182.0880  178.3380  136.9290 C   0  0  0  0  0  2  0  0  0  0  0  0
  181.4810  179.4420  140.8100 S   0  0  0  0  0  0  0  0  0  0  0  0
  189.1840  178.3180  137.9750 N   0  0  0  0  0  2  0  0  0  0  0  0
  180.9300  175.3460  137.9090 C   0  0  0  0  0  2  0  0  0  0  0  0
  180.6220  176.4610  137.1180 O   0  0  0  0  0  0  0  0  0  0  0  0
  184.5280  178.3260  139.8400 C   0  0  0  0  0  0  0  0  0  0  0  0
  188.2750  178.6580  139.0100 C   0  0  2  0  0  0  0  0  0  0  0  0
  182.4250  178.5300  138.4160 C   0  0  1  0  0  3  0  0  0  0  0  0
  189.6430  178.2570  139.3390 N   0  0  1  0  0  0  0  0  0  0  0  0
  181.1580  176.8250  139.9800 C   0  0  0  0  0  2  0  0  0  0  0  0
  182.7730  178.5200  141.7020 C   0  0  0  0  0  0  0  0  0  0  0  0
  181.2740  178.2650  139.4240 C   0  0  2  0  0  0  0  0  0  0  0  0
  185.2610  179.1130  143.1920 C   0  0  0  0  0  3  0  0  0  0  0  0
  187.9600  178.6780  141.3110 C   0  0  2  0  0  3  0  0  0  0  0  0
  183.9310  179.2090  143.8320 C   0  0  0  0  0  3  0  0  0  0  0  0
  184.1280  178.6670  141.0680 C   0  0  1  0  0  3  0  0  0  0  0  0
  182.7960  178.9600  143.1530 C   0  0  0  0  0  3  0  0  0  0  0  0
  186.9530  177.9300  138.6920 C   0  0  0  0  0  2  0  0  0  0  0  0
  2 15  2  0  0  0  0
  2  7  1  0  0  0  0
  3 21  1  0  0  0  0
  4 22  1  0  0  0  0
  5 10  1  0  0  0  0
  5 14  1  0  0  0  0
  6 15  1  0  0  0  0
  7 23  1  0  0  0  0
  7  4  2  0  0  0  0
  8 19  1  0  0  0  0
  9 23  1  0  0  0  0
 10 17  1  0  0  0  0
 11 20  1  0  0  0  0
 12 16  1  0  0  0  0
 12 18  1  0  0  0  0
 13  8  1  0  0  0  0
 14 13  1  0  0  0  0
 15 25  1  0  0  0  0
 16 18  1  0  0  0  0
 16  9  1  0  0  0  0
 17  6  1  0  0  0  0
 17 21  1  0  0  0  0
 18  9  1  0  0  0  0
 20 26  2  0  0  0  0
 21 19  1  0  0  0  0
 21 11  1  0  0  0  0
 22 24  2  0  0  0  0
 23  1  1  0  0  0  0
 25 20  1  0  0  0  0
 25  4  1  0  0  0  0
 26 24  1  0  0  0  0
 27 16  1  0  0  0  0
 27  2  1  0  0  0  0
M  END
>  <MODEL>
7

>  <REMARK>
 VINA RESULT:      -6.8      5.273      8.083
  Name = 
  0 active torsions:
  status: ('A' for Active; 'I' for Inactive)
                            x       y       z     vdW  Elec       q    Type
                         _______ _______ _______ _____ _____    ______ ____

>  <TORSDO>
F 0

$$$$
=
 OpenBabel11062415443D

 27 33  0  0  1  0  0  0  0  0999 V2000
  185.3180  177.7360  144.4770 F   0  0  0  0  0  0  0  0  0  0  0  0
  184.1840  178.5550  141.2340 C   0  0  0  0  0  0  0  0  0  0  0  0
  178.9760  179.0970  138.2570 O   0  0  0  0  0  1  0  0  0  0  0  0
  182.7870  178.6740  142.9940 C   0  0  0  0  0  0  0  0  0  0  0  0
  181.5300  177.8730  136.4770 C   0  0  0  0  0  2  0  0  0  0  0  0
  182.4400  178.3880  139.3680 N   0  0  0  0  0  2  0  0  0  0  0  0
  184.1750  178.6000  142.5750 C   0  0  0  0  0  0  0  0  0  0  0  0
  180.6350  176.1920  138.5980 C   0  0  0  0  0  2  0  0  0  0  0  0
  186.4830  177.9250  142.4090 C   0  0  1  0  0  3  0  0  0  0  0  0
  181.5540  179.2080  137.2100 C   0  0  0  0  0  2  0  0  0  0  0  0
  179.5540  179.5090  140.7530 S   0  0  0  0  0  0  0  0  0  0  0  0
  187.8130  178.8670  140.6970 N   0  0  0  0  0  2  0  0  0  0  0  0
  180.3030  176.0980  137.1060 C   0  0  0  0  0  2  0  0  0  0  0  0
  180.2280  177.3560  136.4920 O   0  0  0  0  0  0  0  0  0  0  0  0
  182.8060  178.5670  140.7380 C   0  0  0  0  0  0  0  0  0  0  0  0
  186.5790  179.0030  141.3840 C   0  0  2  0  0  0  0  0  0  0  0  0
  181.3330  179.0890  138.7260 C   0  0  1  0  0  3  0  0  0  0  0  0
  187.7640  178.5220  142.0950 N   0  0  1  0  0  0  0  0  0  0  0  0
  179.6980  177.1210  139.3680 C   0  0  0  0  0  2  0  0  0  0  0  0
  180.4990  178.4040  141.8490 C   0  0  0  0  0  0  0  0  0  0  0  0
  179.9180  178.6420  139.1830 C   0  0  2  0  0  0  0  0  0  0  0  0
  182.2620  178.6430  144.2150 C   0  0  0  0  0  3  0  0  0  0  0  0
  185.4720  178.5590  143.3770 C   0  0  2  0  0  3  0  0  0  0  0  0
  180.7890  178.6280  144.3440 C   0  0  0  0  0  3  0  0  0  0  0  0
  181.9790  178.6560  141.7840 C   0  0  1  0  0  3  0  0  0  0  0  0
  179.9830  178.5400  143.2690 C   0  0  0  0  0  3  0  0  0  0  0  0
  185.4990  178.3760  140.4790 C   0  0  0  0  0  2  0  0  0  0  0  0
  2  7  1  0  0  0  0
  3 21  1  0  0  0  0
  4 22  1  0  0  0  0
  5 14  1  0  0  0  0
  5 10  1  0  0  0  0
  6 15  1  0  0  0  0
  7  4  2  0  0  0  0
  7 23  1  0  0  0  0
  8 19  1  0  0  0  0
  9 23  1  0  0  0  0
 10 17  1  0  0  0  0
 11 20  1  0  0  0  0
 12 16  1  0  0  0  0
 12 18  1  0  0  0  0
 13  8  1  0  0  0  0
 14 13  1  0  0  0  0
 15  2  2  0  0  0  0
 15 25  1  0  0  0  0
 16 18  1  0  0  0  0
 16  9  1  0  0  0  0
 17 21  1  0  0  0  0
 17  6  1  0  0  0  0
 18  9  1  0  0  0  0
 20 26  2  0  0  0  0
 21 19  1  0  0  0  0
 21 11  1  0  0  0  0
 22 24  2  0  0  0  0
 23  1  1  0  0  0  0
 25 20  1  0  0  0  0
 25  4  1  0  0  0  0
 26 24  1  0  0  0  0
 27  2  1  0  0  0  0
 27 16  1  0  0  0  0
M  END
>  <MODEL>
8

>  <REMARK>
 VINA RESULT:      -6.8      5.462      8.490
  Name = 
  0 active torsions:
  status: ('A' for Active; 'I' for Inactive)
                            x       y       z     vdW  Elec       q    Type
                         _______ _______ _______ _____ _____    ______ ____

>  <TORSDO>
F 0

$$$$
=
 OpenBabel11062415443D

 27 33  0  0  1  0  0  0  0  0999 V2000
  187.1820  177.1540  145.1190 F   0  0  0  0  0  0  0  0  0  0  0  0
  188.6070  177.8600  141.9660 C   0  0  0  0  0  0  0  0  0  0  0  0
  186.8230  178.7400  136.2810 O   0  0  0  0  0  1  0  0  0  0  0  0
  186.4230  178.2490  142.3430 C   0  0  0  0  0  0  0  0  0  0  0  0
  189.7330  177.1310  136.6430 C   0  0  0  0  0  2  0  0  0  0  0  0
  188.5440  177.7480  139.4100 N   0  0  0  0  0  2  0  0  0  0  0  0
  187.7140  177.9990  142.9580 C   0  0  0  0  0  0  0  0  0  0  0  0
  187.4530  175.7070  137.5890 C   0  0  0  0  0  2  0  0  0  0  0  0
  189.4390  177.0740  144.3650 C   0  0  1  0  0  3  0  0  0  0  0  0
  189.4300  178.5050  137.2290 C   0  0  0  0  0  2  0  0  0  0  0  0
  185.6390  179.2620  138.5310 S   0  0  0  0  0  0  0  0  0  0  0  0
  191.6740  177.7470  144.0000 N   0  0  0  0  0  2  0  0  0  0  0  0
  188.1890  175.5440  136.2560 C   0  0  0  0  0  2  0  0  0  0  0  0
  188.7010  176.7570  135.7740 O   0  0  0  0  0  0  0  0  0  0  0  0
  187.9250  177.9830  140.6770 C   0  0  0  0  0  0  0  0  0  0  0  0
  190.3260  178.0610  143.6880 C   0  0  2  0  0  0  0  0  0  0  0  0
  188.2450  178.5150  138.2060 C   0  0  1  0  0  3  0  0  0  0  0  0
  190.6650  177.5080  144.9990 N   0  0  1  0  0  0  0  0  0  0  0  0
  186.3680  176.7810  137.5530 C   0  0  0  0  0  2  0  0  0  0  0  0
  185.4670  178.1430  139.9570 C   0  0  0  0  0  0  0  0  0  0  0  0
  186.8430  178.2540  137.5910 C   0  0  2  0  0  0  0  0  0  0  0  0
  185.2210  178.3590  142.8990 C   0  0  0  0  0  3  0  0  0  0  0  0
  188.1300  177.8770  144.4200 C   0  0  2  0  0  3  0  0  0  0  0  0
  184.0490  178.5090  142.0090 C   0  0  0  0  0  3  0  0  0  0  0  0
  186.6320  178.2320  140.9030 C   0  0  1  0  0  3  0  0  0  0  0  0
  184.1600  178.4320  140.6690 C   0  0  0  0  0  3  0  0  0  0  0  0
  190.0550  177.4900  142.2810 C   0  0  0  0  0  2  0  0  0  0  0  0
  2 27  1  0  0  0  0
  2  7  1  0  0  0  0
  3 21  1  0  0  0  0
  4 22  1  0  0  0  0
  4  7  2  0  0  0  0
  5 10  1  0  0  0  0
  6 15  1  0  0  0  0
  7 23  1  0  0  0  0
  9 23  1  0  0  0  0
  9 18  1  0  0  0  0
 10 17  1  0  0  0  0
 11 20  1  0  0  0  0
 12 18  1  0  0  0  0
 13  8  1  0  0  0  0
 14 13  1  0  0  0  0
 14  5  1  0  0  0  0
 15 25  1  0  0  0  0
 15  2  2  0  0  0  0
 16 12  1  0  0  0  0
 16  9  1  0  0  0  0
 16 18  1  0  0  0  0
 17  6  1  0  0  0  0
 19  8  1  0  0  0  0
 19 21  1  0  0  0  0
 20 26  2  0  0  0  0
 20 25  1  0  0  0  0
 21 17  1  0  0  0  0
 21 11  1  0  0  0  0
 23  1  1  0  0  0  0
 24 22  2  0  0  0  0
 25  4  1  0  0  0  0
 26 24  1  0  0  0  0
 27 16  1  0  0  0  0
M  END
>  <MODEL>
9

>  <REMARK>
 VINA RESULT:      -6.7      4.329      6.641
  Name = 
  0 active torsions:
  status: ('A' for Active; 'I' for Inactive)
                            x       y       z     vdW  Elec       q    Type
                         _______ _______ _______ _____ _____    ______ ____

>  <TORSDO>
F 0

$$$$
