=
 OpenBabel11062416253D

 46 49  0  0  1  0  0  0  0  0999 V2000
  187.3840  174.2010  136.6440 C   0  0  1  0  0  3  0  0  0  0  0  0
  189.4790  175.4190  137.5520 C   0  0  0  0  0  2  0  0  0  0  0  0
  187.6420  176.7010  136.4770 C   0  0  1  0  0  0  0  0  0  0  0  0
  188.6090  179.1200  136.7550 C   0  0  0  0  0  1  0  0  0  0  0  0
  188.8370  177.6730  136.3430 C   0  0  1  0  0  3  0  0  0  0  0  0
  187.0310  173.1090  135.8490 O   0  0  0  0  0  1  0  0  0  0  0  0
  188.8490  174.5550  136.4790 C   0  0  2  0  0  0  0  0  0  0  0  0
  187.8060  175.3630  135.7390 C   0  0  1  0  0  3  0  0  0  0  0  0
  188.7340  176.7460  137.5560 C   0  0  2  0  0  0  0  0  0  0  0  0
  190.8790  174.0560  135.3880 O   0  0  0  0  0  0  0  0  0  0  0  0
  189.7200  173.7300  135.5840 C   0  0  0  0  0  3  0  0  0  0  0  0
  186.2070  177.0790  136.9840 C   0  0  2  0  0  3  0  0  0  0  0  0
  185.2380  177.3580  135.8240 C   0  0  0  0  0  2  0  0  0  0  0  0
  183.9990  176.4850  135.8720 C   0  0  2  0  0  3  0  0  0  0  0  0
  181.9930  177.6460  134.9490 O   0  0  0  0  0  0  0  0  0  0  0  0
  182.4960  177.8300  137.1820 O   0  0  0  0  0  1  0  0  0  0  0  0
  182.7900  177.3550  136.0530 C   0  0  0  0  0  0  0  0  0  0  0  0
  184.1080  175.5600  136.9240 O   0  0  0  0  0  0  0  0  0  0  0  0
  183.8070  174.3530  136.3760 N   0  0  0  0  0  2  0  0  0  0  0  0
  182.5760  173.8760  136.9900 C   0  0  0  0  0  1  0  0  0  0  0  0
  186.0990  178.1840  138.0390 C   0  0  0  0  0  2  0  0  0  0  0  0
  185.1160  177.8480  139.0640 N   0  0  0  0  0  2  0  0  0  0  0  0
  185.0920  178.9490  140.0150 C   0  0  1  0  0  3  0  0  0  0  0  0
  184.5180  180.0800  139.4300 O   0  0  0  0  0  1  0  0  0  0  0  0
  184.2910  178.5470  141.2430 C   0  0  0  0  0  2  0  0  0  0  0  0
  185.0890  178.7990  142.5030 C   0  0  0  0  0  2  0  0  0  0  0  0
  184.1790  178.9010  143.6470 C   0  0  0  0  0  0  0  0  0  0  0  0
  183.4500  178.9820  144.5400 N   0  0  0  0  0  0  0  0  0  0  0  0
  188.2700  177.2460  138.7930 O   0  0  0  0  0  0  0  0  0  0  0  0
  189.7710  177.0050  142.1970 C   0  0  1  0  0  3  0  0  0  0  0  0
  191.6540  176.8720  140.3660 C   0  0  2  0  0  3  0  0  0  0  0  0
  188.8750  177.5660  141.1010 C   0  0  0  0  0  2  0  0  0  0  0  0
  190.5900  177.3120  139.3510 C   0  0  0  0  0  2  0  0  0  0  0  0
  189.1950  176.8770  139.7810 C   0  0  2  0  0  3  0  0  0  0  0  0
  192.0930  177.1680  142.6710 O   0  0  0  0  0  0  0  0  0  0  0  0
  191.2370  177.1010  141.8070 C   0  0  0  0  0  0  0  0  0  0  0  0
  189.9910  178.8760  143.9040 S   0  0  0  0  0  0  0  0  0  0  0  0
  189.4540  177.5910  143.5510 C   0  0  0  0  0  0  0  0  0  0  0  0
  188.6200  176.8510  144.5570 C   0  0  0  0  0  2  0  0  0  0  0  0
  186.8330  177.9380  145.7300 O   0  0  0  0  0  1  0  0  0  0  0  0
  188.2200  177.7730  145.6990 C   0  0  1  0  0  3  0  0  0  0  0  0
  188.7160  177.2390  147.0040 C   0  0  0  0  0  0  0  0  0  0  0  0
  190.1120  176.7280  147.1100 C   0  0  0  0  0  1  0  0  0  0  0  0
  187.9780  177.1810  147.9680 O   0  0  0  0  0  0  0  0  0  0  0  0
  193.6700  177.0840  139.1350 O   0  0  0  0  0  0  0  0  0  0  0  0
  192.9680  177.5120  140.0370 C   0  0  0  0  0  3  0  0  0  0  0  0
  1  6  1  6  0  0  0
  2  9  1  0  0  0  0
  3 12  1  1  0  0  0
  3  9  1  0  0  0  0
  5  3  1  0  0  0  0
  5  4  1  1  0  0  0
  5  9  1  0  0  0  0
  7 11  1  6  0  0  0
  7  1  1  0  0  0  0
  7  2  1  0  0  0  0
  8  3  1  0  0  0  0
  8  7  1  0  0  0  0
  8  1  1  0  0  0  0
  9 29  1  0  0  0  0
 10 11  2  0  0  0  0
 12 21  1  0  0  0  0
 13 14  1  0  0  0  0
 13 12  1  0  0  0  0
 14 17  1  0  0  0  0
 14 18  1  0  0  0  0
 15 17  2  0  0  0  0
 17 16  1  0  0  0  0
 19 18  1  0  0  0  0
 19 20  1  0  0  0  0
 21 22  1  0  0  0  0
 22 23  1  0  0  0  0
 23 25  1  0  0  0  0
 24 23  1  0  0  0  0
 25 26  1  0  0  0  0
 26 27  1  0  0  0  0
 27 28  3  0  0  0  0
 29 34  1  0  0  0  0
 30 38  1  0  0  0  0
 31 36  1  0  0  0  0
 32 30  1  0  0  0  0
 33 34  1  0  0  0  0
 33 31  1  0  0  0  0
 34 32  1  0  0  0  0
 36 30  1  0  0  0  0
 36 35  2  0  0  0  0
 38 37  2  0  0  0  0
 38 39  1  0  0  0  0
 39 41  1  0  0  0  0
 41 40  1  0  0  0  0
 41 42  1  0  0  0  0
 42 43  1  0  0  0  0
 42 44  2  0  0  0  0
 45 46  2  0  0  0  0
 46 31  1  0  0  0  0
M  END
>  <MODEL>
1

>  <REMARK>
 VINA RESULT:      -6.1      0.000      0.000
  Name = 
  20 active torsions:
  status: ('A' for Active; 'I' for Inactive)
    1  A    between atoms: C_2  and  C_16
    2  A    between atoms: C_2  and  N_22
    3  A    between atoms: C_3  and  C_30
    4  A    between atoms: C_4  and  C_7
    5  A    between atoms: C_4  and  C_11
    6  A    between atoms: C_5  and  C_21
    7  A    between atoms: C_7  and  N_22
    8  A    between atoms: C_9  and  O_23
    9  A    between atoms: C_9  and  C_25
   10  A    between atoms: C_9  and  C_27
   11  A    between atoms: C_10  and  C_35
   12  A    between atoms: C_11  and  C_26
   13  A    between atoms: N_15  and  O_23
   14  A    between atoms: C_16  and  C_27
   15  A    between atoms: C_16  and  C_32
   16  A    between atoms: C_18  and  C_39
   17  A    between atoms: C_19  and  C_21
   18  A    between atoms: C_19  and  C_30
   19  A    between atoms: O_20  and  C_42
   20  A    between atoms: O_20  and  C_46
                            x       y       z     vdW  Elec       q    Type
                         _______ _______ _______ _____ _____    ______ ____

>  <TORSDO>
F 20

$$$$
=
 OpenBabel11062416253D

 46 49  0  0  1  0  0  0  0  0999 V2000
  186.4190  176.7230  137.5890 C   0  0  1  0  0  3  0  0  0  0  0  0
  186.2630  178.2630  139.6630 C   0  0  0  0  0  2  0  0  0  0  0  0
  184.4930  178.3120  137.9200 C   0  0  1  0  0  0  0  0  0  0  0  0
  182.8960  180.0850  139.0010 C   0  0  0  0  0  1  0  0  0  0  0  0
  184.3100  179.6860  138.6050 C   0  0  1  0  0  3  0  0  0  0  0  0
  187.3240  176.3340  136.6000 O   0  0  0  0  0  1  0  0  0  0  0  0
  186.8960  177.9630  138.3200 C   0  0  2  0  0  0  0  0  0  0  0  0
  185.8510  178.1010  137.2350 C   0  0  1  0  0  3  0  0  0  0  0  0
  184.7760  178.4770  139.4210 C   0  0  2  0  0  0  0  0  0  0  0  0
  188.2710  179.4910  137.1650 O   0  0  0  0  0  0  0  0  0  0  0  0
  188.2160  178.5740  137.9680 C   0  0  0  0  0  3  0  0  0  0  0  0
  183.3450  177.2980  137.5800 C   0  0  2  0  0  3  0  0  0  0  0  0
  183.7370  175.8480  137.9040 C   0  0  0  0  0  2  0  0  0  0  0  0
  183.2680  174.8640  136.8500 C   0  0  2  0  0  3  0  0  0  0  0  0
  181.6300  172.9890  136.7030 O   0  0  0  0  0  0  0  0  0  0  0  0
  181.4030  174.5820  138.3420 O   0  0  0  0  0  1  0  0  0  0  0  0
  182.0510  174.1460  137.3530 C   0  0  0  0  0  0  0  0  0  0  0  0
  184.2970  173.9530  136.5580 O   0  0  0  0  0  0  0  0  0  0  0  0
  184.7400  173.5090  137.7640 N   0  0  0  0  0  2  0  0  0  0  0  0
  186.0390  172.8830  137.5630 C   0  0  0  0  0  1  0  0  0  0  0  0
  182.7240  177.3760  136.1820 C   0  0  0  0  0  2  0  0  0  0  0  0
  182.1030  178.6770  135.9470 N   0  0  0  0  0  2  0  0  0  0  0  0
  180.6980  178.4370  135.6560 C   0  0  1  0  0  3  0  0  0  0  0  0
  180.2890  177.2270  136.2210 O   0  0  0  0  0  1  0  0  0  0  0  0
  179.8580  179.5720  136.2150 C   0  0  0  0  0  2  0  0  0  0  0  0
  180.4740  180.9090  135.8710 C   0  0  0  0  0  2  0  0  0  0  0  0
  180.3260  181.8240  137.0060 C   0  0  0  0  0  0  0  0  0  0  0  0
  180.2120  182.5560  137.8930 N   0  0  0  0  0  0  0  0  0  0  0  0
  183.8600  177.7780  140.2370 O   0  0  0  0  0  0  0  0  0  0  0  0
  184.7260  178.7720  143.7250 C   0  0  1  0  0  3  0  0  0  0  0  0
  182.1520  179.1050  143.3010 C   0  0  2  0  0  3  0  0  0  0  0  0
  184.7210  177.8910  142.4830 C   0  0  0  0  0  2  0  0  0  0  0  0
  182.3420  178.3130  142.0010 C   0  0  0  0  0  2  0  0  0  0  0  0
  183.7560  178.4670  141.4550 C   0  0  2  0  0  3  0  0  0  0  0  0
  183.1460  179.2040  145.4450 O   0  0  0  0  0  0  0  0  0  0  0  0
  183.3180  178.9670  144.2630 C   0  0  0  0  0  0  0  0  0  0  0  0
  185.7710  178.9540  146.0350 S   0  0  0  0  0  0  0  0  0  0  0  0
  185.7210  178.3000  144.7570 C   0  0  0  0  0  0  0  0  0  0  0  0
  186.6880  177.1880  144.4720 C   0  0  0  0  0  2  0  0  0  0  0  0
  188.7510  177.0600  145.6870 O   0  0  0  0  0  1  0  0  0  0  0  0
  188.1200  177.6800  144.6050 C   0  0  1  0  0  3  0  0  0  0  0  0
  188.8800  177.4340  143.3410 C   0  0  0  0  0  0  0  0  0  0  0  0
  189.2170  176.0390  142.9410 C   0  0  0  0  0  1  0  0  0  0  0  0
  189.2590  178.3650  142.6560 O   0  0  0  0  0  0  0  0  0  0  0  0
  179.8490  179.4400  143.7610 O   0  0  0  0  0  0  0  0  0  0  0  0
  180.8400  178.7470  143.9290 C   0  0  0  0  0  3  0  0  0  0  0  0
  1  6  1  6  0  0  0
  1  7  1  0  0  0  0
  3 12  1  6  0  0  0
  3  5  1  0  0  0  0
  3  9  1  0  0  0  0
  5  4  1  1  0  0  0
  5  9  1  0  0  0  0
  7 11  1  6  0  0  0
  7  2  1  0  0  0  0
  8  1  1  0  0  0  0
  8  3  1  0  0  0  0
  8  7  1  0  0  0  0
  9  2  1  0  0  0  0
  9 29  1  0  0  0  0
 10 11  2  0  0  0  0
 12 13  1  0  0  0  0
 14 17  1  0  0  0  0
 14 13  1  0  0  0  0
 15 17  2  0  0  0  0
 17 16  1  0  0  0  0
 18 14  1  0  0  0  0
 18 19  1  0  0  0  0
 20 19  1  0  0  0  0
 21 12  1  0  0  0  0
 22 21  1  0  0  0  0
 23 22  1  0  0  0  0
 23 25  1  0  0  0  0
 23 24  1  0  0  0  0
 26 25  1  0  0  0  0
 26 27  1  0  0  0  0
 27 28  3  0  0  0  0
 29 34  1  0  0  0  0
 30 36  1  0  0  0  0
 30 38  1  0  0  0  0
 31 46  1  0  0  0  0
 31 36  1  0  0  0  0
 32 30  1  0  0  0  0
 33 31  1  0  0  0  0
 34 33  1  0  0  0  0
 34 32  1  0  0  0  0
 36 35  2  0  0  0  0
 38 37  2  0  0  0  0
 39 41  1  0  0  0  0
 39 38  1  0  0  0  0
 41 40  1  0  0  0  0
 42 41  1  0  0  0  0
 43 42  1  0  0  0  0
 44 42  2  0  0  0  0
 45 46  2  0  0  0  0
M  END
>  <MODEL>
2

>  <REMARK>
 VINA RESULT:      -5.9      2.884      5.983
  Name = 
  20 active torsions:
  status: ('A' for Active; 'I' for Inactive)
    1  A    between atoms: C_2  and  C_16
    2  A    between atoms: C_2  and  N_22
    3  A    between atoms: C_3  and  C_30
    4  A    between atoms: C_4  and  C_7
    5  A    between atoms: C_4  and  C_11
    6  A    between atoms: C_5  and  C_21
    7  A    between atoms: C_7  and  N_22
    8  A    between atoms: C_9  and  O_23
    9  A    between atoms: C_9  and  C_25
   10  A    between atoms: C_9  and  C_27
   11  A    between atoms: C_10  and  C_35
   12  A    between atoms: C_11  and  C_26
   13  A    between atoms: N_15  and  O_23
   14  A    between atoms: C_16  and  C_27
   15  A    between atoms: C_16  and  C_32
   16  A    between atoms: C_18  and  C_39
   17  A    between atoms: C_19  and  C_21
   18  A    between atoms: C_19  and  C_30
   19  A    between atoms: O_20  and  C_42
   20  A    between atoms: O_20  and  C_46
                            x       y       z     vdW  Elec       q    Type
                         _______ _______ _______ _____ _____    ______ ____

>  <TORSDO>
F 20

$$$$
=
 OpenBabel11062416253D

 46 49  0  0  1  0  0  0  0  0999 V2000
  191.2200  178.9120  143.6960 C   0  0  1  0  0  3  0  0  0  0  0  0
  190.0740  177.8880  141.6130 C   0  0  0  0  0  2  0  0  0  0  0  0
  189.3020  177.2920  143.8980 C   0  0  1  0  0  0  0  0  0  0  0  0
  187.3250  175.6940  143.2630 C   0  0  0  0  0  1  0  0  0  0  0  0
  188.7760  176.1050  143.0590 C   0  0  1  0  0  3  0  0  0  0  0  0
  192.4910  179.1320  144.2280 O   0  0  0  0  0  1  0  0  0  0  0  0
  191.2640  177.9190  142.5500 C   0  0  2  0  0  0  0  0  0  0  0  0
  190.8300  177.4470  143.9210 C   0  0  1  0  0  3  0  0  0  0  0  0
  188.8580  177.5030  142.4430 C   0  0  2  0  0  0  0  0  0  0  0  0
  192.8720  177.3560  140.9210 O   0  0  0  0  0  0  0  0  0  0  0  0
  192.5750  177.3520  142.1040 C   0  0  0  0  0  3  0  0  0  0  0  0
  188.4750  178.1020  144.9570 C   0  0  2  0  0  3  0  0  0  0  0  0
  189.2340  178.2650  146.2830 C   0  0  0  0  0  2  0  0  0  0  0  0
  188.8220  177.2430  147.3250 C   0  0  2  0  0  3  0  0  0  0  0  0
  187.5300  177.7300  149.4020 O   0  0  0  0  0  1  0  0  0  0  0  0
  189.6050  178.6660  149.0990 O   0  0  0  0  0  0  0  0  0  0  0  0
  188.6900  177.9210  148.6570 C   0  0  0  0  0  0  0  0  0  0  0  0
  189.7750  176.2120  147.3850 O   0  0  0  0  0  0  0  0  0  0  0  0
  190.9810  176.8300  147.2760 N   0  0  0  0  0  2  0  0  0  0  0  0
  192.0170  175.8450  147.5570 C   0  0  0  0  0  1  0  0  0  0  0  0
  187.0360  177.6490  145.2260 C   0  0  0  0  0  2  0  0  0  0  0  0
  186.0880  178.7420  145.0250 N   0  0  0  0  0  2  0  0  0  0  0  0
  184.9740  178.5170  145.9330 C   0  0  1  0  0  3  0  0  0  0  0  0
  185.2050  179.1620  147.1500 O   0  0  0  0  0  1  0  0  0  0  0  0
  183.6920  179.0440  145.3100 C   0  0  0  0  0  2  0  0  0  0  0  0
  183.5880  178.6160  143.8640 C   0  0  0  0  0  2  0  0  0  0  0  0
  182.2750  178.9930  143.3340 C   0  0  0  0  0  0  0  0  0  0  0  0
  181.2340  179.2900  142.9300 N   0  0  0  0  0  0  0  0  0  0  0  0
  187.6950  178.2960  142.3290 O   0  0  0  0  0  0  0  0  0  0  0  0
  187.3520  177.6620  138.6700 C   0  0  1  0  0  3  0  0  0  0  0  0
  185.0540  178.4580  139.6710 C   0  0  2  0  0  3  0  0  0  0  0  0
  187.9880  178.2120  139.9400 C   0  0  0  0  0  2  0  0  0  0  0  0
  185.8250  178.8310  140.9440 C   0  0  0  0  0  2  0  0  0  0  0  0
  187.0610  177.9590  141.1230 C   0  0  2  0  0  3  0  0  0  0  0  0
  185.4850  178.3080  137.3500 O   0  0  0  0  0  0  0  0  0  0  0  0
  185.9540  178.2250  138.4710 C   0  0  0  0  0  0  0  0  0  0  0  0
  188.9150  179.0650  137.2380 S   0  0  0  0  0  0  0  0  0  0  0  0
  188.2530  177.8110  137.4690 C   0  0  0  0  0  0  0  0  0  0  0  0
  188.4490  176.6940  136.4850 C   0  0  0  0  0  2  0  0  0  0  0  0
  190.1110  176.2230  138.1480 O   0  0  0  0  0  1  0  0  0  0  0  0
  189.5830  175.7840  136.9310 C   0  0  1  0  0  3  0  0  0  0  0  0
  189.1080  174.3710  137.0430 C   0  0  0  0  0  0  0  0  0  0  0  0
  187.6690  174.0550  136.8240 C   0  0  0  0  0  1  0  0  0  0  0  0
  189.8800  173.4820  137.3510 O   0  0  0  0  0  0  0  0  0  0  0  0
  184.2700  180.5960  139.0070 O   0  0  0  0  0  0  0  0  0  0  0  0
  183.9880  179.4760  139.4030 C   0  0  0  0  0  3  0  0  0  0  0  0
  1  8  1  0  0  0  0
  1  6  1  1  0  0  0
  2  9  1  0  0  0  0
  2  7  1  0  0  0  0
  3  8  1  0  0  0  0
  3 12  1  1  0  0  0
  5  4  1  1  0  0  0
  5  3  1  0  0  0  0
  7 11  1  6  0  0  0
  7  1  1  0  0  0  0
  7  8  1  0  0  0  0
  9  5  1  0  0  0  0
  9  3  1  0  0  0  0
 10 11  2  0  0  0  0
 12 21  1  0  0  0  0
 12 13  1  0  0  0  0
 13 14  1  0  0  0  0
 14 18  1  0  0  0  0
 14 17  1  0  0  0  0
 17 16  2  0  0  0  0
 17 15  1  0  0  0  0
 19 18  1  0  0  0  0
 19 20  1  0  0  0  0
 22 21  1  0  0  0  0
 22 23  1  0  0  0  0
 23 24  1  0  0  0  0
 25 23  1  0  0  0  0
 26 25  1  0  0  0  0
 27 26  1  0  0  0  0
 28 27  3  0  0  0  0
 29  9  1  0  0  0  0
 30 32  1  0  0  0  0
 31 33  1  0  0  0  0
 32 34  1  0  0  0  0
 33 34  1  0  0  0  0
 34 29  1  0  0  0  0
 35 36  2  0  0  0  0
 36 30  1  0  0  0  0
 36 31  1  0  0  0  0
 37 38  2  0  0  0  0
 38 30  1  0  0  0  0
 39 41  1  0  0  0  0
 39 38  1  0  0  0  0
 41 42  1  0  0  0  0
 41 40  1  0  0  0  0
 42 44  2  0  0  0  0
 43 42  1  0  0  0  0
 45 46  2  0  0  0  0
 46 31  1  0  0  0  0
M  END
>  <MODEL>
3

>  <REMARK>
 VINA RESULT:      -5.9      2.743      8.687
  Name = 
  20 active torsions:
  status: ('A' for Active; 'I' for Inactive)
    1  A    between atoms: C_2  and  C_16
    2  A    between atoms: C_2  and  N_22
    3  A    between atoms: C_3  and  C_30
    4  A    between atoms: C_4  and  C_7
    5  A    between atoms: C_4  and  C_11
    6  A    between atoms: C_5  and  C_21
    7  A    between atoms: C_7  and  N_22
    8  A    between atoms: C_9  and  O_23
    9  A    between atoms: C_9  and  C_25
   10  A    between atoms: C_9  and  C_27
   11  A    between atoms: C_10  and  C_35
   12  A    between atoms: C_11  and  C_26
   13  A    between atoms: N_15  and  O_23
   14  A    between atoms: C_16  and  C_27
   15  A    between atoms: C_16  and  C_32
   16  A    between atoms: C_18  and  C_39
   17  A    between atoms: C_19  and  C_21
   18  A    between atoms: C_19  and  C_30
   19  A    between atoms: O_20  and  C_42
   20  A    between atoms: O_20  and  C_46
                            x       y       z     vdW  Elec       q    Type
                         _______ _______ _______ _____ _____    ______ ____

>  <TORSDO>
F 20

$$$$
=
 OpenBabel11062416253D

 46 49  0  0  1  0  0  0  0  0999 V2000
  186.9460  174.1980  137.2010 C   0  0  1  0  0  3  0  0  0  0  0  0
  189.0100  175.7350  137.4690 C   0  0  0  0  0  2  0  0  0  0  0  0
  186.8190  176.6760  136.7710 C   0  0  1  0  0  0  0  0  0  0  0  0
  187.4890  179.2040  136.6040 C   0  0  0  0  0  1  0  0  0  0  0  0
  187.8080  177.7540  136.2700 C   0  0  1  0  0  3  0  0  0  0  0  0
  186.5690  172.9910  136.6100 O   0  0  0  0  0  1  0  0  0  0  0  0
  188.2720  174.6920  136.6560 C   0  0  2  0  0  0  0  0  0  0  0  0
  186.9860  175.2910  136.1280 C   0  0  1  0  0  3  0  0  0  0  0  0
  188.1150  176.9630  137.5440 C   0  0  2  0  0  0  0  0  0  0  0  0
  190.2000  174.0800  135.4460 O   0  0  0  0  0  0  0  0  0  0  0  0
  189.0140  173.8730  135.6470 C   0  0  0  0  0  3  0  0  0  0  0  0
  185.5020  176.9470  137.5790 C   0  0  2  0  0  3  0  0  0  0  0  0
  184.2430  176.6310  136.7570 C   0  0  0  0  0  2  0  0  0  0  0  0
  183.4390  175.4810  137.3340 C   0  0  2  0  0  3  0  0  0  0  0  0
  183.1620  173.0820  136.7090 O   0  0  0  0  0  1  0  0  0  0  0  0
  183.3290  174.6810  135.0690 O   0  0  0  0  0  0  0  0  0  0  0  0
  183.3040  174.4050  136.2980 C   0  0  0  0  0  0  0  0  0  0  0  0
  182.1760  175.9410  137.7420 O   0  0  0  0  0  0  0  0  0  0  0  0
  182.0280  175.5030  139.0210 N   0  0  0  0  0  2  0  0  0  0  0  0
  180.9420  176.2580  139.6310 C   0  0  0  0  0  1  0  0  0  0  0  0
  185.3590  178.3120  138.2590 C   0  0  0  0  0  2  0  0  0  0  0  0
  184.3970  178.2630  139.3560 N   0  0  0  0  0  2  0  0  0  0  0  0
  183.6730  179.5250  139.3510 C   0  0  1  0  0  3  0  0  0  0  0  0
  184.5040  180.5540  138.9010 O   0  0  0  0  0  1  0  0  0  0  0  0
  182.4580  179.4160  138.4460 C   0  0  0  0  0  2  0  0  0  0  0  0
  181.3120  180.2370  138.9940 C   0  0  0  0  0  2  0  0  0  0  0  0
  181.1240  181.4300  138.1640 C   0  0  0  0  0  0  0  0  0  0  0  0
  180.9850  182.3770  137.5170 N   0  0  0  0  0  0  0  0  0  0  0  0
  187.8860  177.5440  138.8110 O   0  0  0  0  0  0  0  0  0  0  0  0
  189.7170  177.0750  142.0250 C   0  0  1  0  0  3  0  0  0  0  0  0
  191.4010  177.0190  140.0070 C   0  0  2  0  0  3  0  0  0  0  0  0
  188.7280  177.7160  141.0600 C   0  0  0  0  0  2  0  0  0  0  0  0
  190.2510  177.5370  139.1330 C   0  0  0  0  0  2  0  0  0  0  0  0
  188.8970  177.1010  139.6770 C   0  0  2  0  0  3  0  0  0  0  0  0
  192.0780  177.1680  142.2680 O   0  0  0  0  0  0  0  0  0  0  0  0
  191.1380  177.1680  141.4940 C   0  0  0  0  0  0  0  0  0  0  0  0
  190.1910  178.8130  143.8190 S   0  0  0  0  0  0  0  0  0  0  0  0
  189.5510  177.5850  143.4360 C   0  0  0  0  0  0  0  0  0  0  0  0
  188.7650  176.8240  144.4640 C   0  0  0  0  0  2  0  0  0  0  0  0
  186.7540  177.8350  145.2920 O   0  0  0  0  0  1  0  0  0  0  0  0
  188.1390  177.7790  145.4690 C   0  0  1  0  0  3  0  0  0  0  0  0
  188.4750  177.3650  146.8660 C   0  0  0  0  0  0  0  0  0  0  0  0
  189.8400  176.8560  147.1780 C   0  0  0  0  0  1  0  0  0  0  0  0
  187.6320  177.4030  147.7410 O   0  0  0  0  0  0  0  0  0  0  0  0
  193.6800  176.9780  139.3500 O   0  0  0  0  0  0  0  0  0  0  0  0
  192.6900  177.6530  139.5830 C   0  0  0  0  0  3  0  0  0  0  0  0
  1  6  1  6  0  0  0
  2  9  1  0  0  0  0
  3  9  1  0  0  0  0
  3 12  1  1  0  0  0
  5  4  1  1  0  0  0
  5  3  1  0  0  0  0
  5  9  1  0  0  0  0
  7 11  1  6  0  0  0
  7  1  1  0  0  0  0
  7  2  1  0  0  0  0
  8  7  1  0  0  0  0
  8  3  1  0  0  0  0
  8  1  1  0  0  0  0
  9 29  1  0  0  0  0
 10 11  2  0  0  0  0
 12 21  1  0  0  0  0
 13 14  1  0  0  0  0
 13 12  1  0  0  0  0
 14 18  1  0  0  0  0
 16 17  2  0  0  0  0
 17 15  1  0  0  0  0
 17 14  1  0  0  0  0
 18 19  1  0  0  0  0
 19 20  1  0  0  0  0
 21 22  1  0  0  0  0
 23 22  1  0  0  0  0
 24 23  1  0  0  0  0
 25 26  1  0  0  0  0
 25 23  1  0  0  0  0
 27 26  1  0  0  0  0
 28 27  3  0  0  0  0
 29 34  1  0  0  0  0
 30 38  1  0  0  0  0
 31 36  1  0  0  0  0
 32 30  1  0  0  0  0
 33 34  1  0  0  0  0
 33 31  1  0  0  0  0
 34 32  1  0  0  0  0
 36 30  1  0  0  0  0
 36 35  2  0  0  0  0
 38 37  2  0  0  0  0
 38 39  1  0  0  0  0
 39 41  1  0  0  0  0
 40 41  1  0  0  0  0
 41 42  1  0  0  0  0
 42 43  1  0  0  0  0
 42 44  2  0  0  0  0
 45 46  2  0  0  0  0
 46 31  1  0  0  0  0
M  END
>  <MODEL>
4

>  <REMARK>
 VINA RESULT:      -5.8      1.827      2.355
  Name = 
  20 active torsions:
  status: ('A' for Active; 'I' for Inactive)
    1  A    between atoms: C_2  and  C_16
    2  A    between atoms: C_2  and  N_22
    3  A    between atoms: C_3  and  C_30
    4  A    between atoms: C_4  and  C_7
    5  A    between atoms: C_4  and  C_11
    6  A    between atoms: C_5  and  C_21
    7  A    between atoms: C_7  and  N_22
    8  A    between atoms: C_9  and  O_23
    9  A    between atoms: C_9  and  C_25
   10  A    between atoms: C_9  and  C_27
   11  A    between atoms: C_10  and  C_35
   12  A    between atoms: C_11  and  C_26
   13  A    between atoms: N_15  and  O_23
   14  A    between atoms: C_16  and  C_27
   15  A    between atoms: C_16  and  C_32
   16  A    between atoms: C_18  and  C_39
   17  A    between atoms: C_19  and  C_21
   18  A    between atoms: C_19  and  C_30
   19  A    between atoms: O_20  and  C_42
   20  A    between atoms: O_20  and  C_46
                            x       y       z     vdW  Elec       q    Type
                         _______ _______ _______ _____ _____    ______ ____

>  <TORSDO>
F 20

$$$$
=
 OpenBabel11062416253D

 46 49  0  0  1  0  0  0  0  0999 V2000
  191.2020  178.9080  143.6490 C   0  0  1  0  0  3  0  0  0  0  0  0
  189.8090  178.0840  141.6300 C   0  0  0  0  0  2  0  0  0  0  0  0
  189.2410  177.3530  143.9360 C   0  0  1  0  0  0  0  0  0  0  0  0
  187.1400  175.8840  143.3980 C   0  0  0  0  0  1  0  0  0  0  0  0
  188.5800  176.2510  143.0760 C   0  0  1  0  0  3  0  0  0  0  0  0
  192.5290  179.0390  144.0620 O   0  0  0  0  0  1  0  0  0  0  0  0
  191.0860  178.0000  142.4390 C   0  0  2  0  0  0  0  0  0  0  0  0
  190.7690  177.4470  143.8120 C   0  0  1  0  0  3  0  0  0  0  0  0
  188.6650  177.6870  142.5520 C   0  0  2  0  0  0  0  0  0  0  0  0
  192.4350  177.3750  140.6100 O   0  0  0  0  0  0  0  0  0  0  0  0
  192.3190  177.4170  141.8240 C   0  0  0  0  0  3  0  0  0  0  0  0
  188.5620  178.1150  145.1270 C   0  0  2  0  0  3  0  0  0  0  0  0
  189.4500  178.1390  146.3810 C   0  0  0  0  0  2  0  0  0  0  0  0
  189.0090  177.1380  147.4310 C   0  0  2  0  0  3  0  0  0  0  0  0
  187.5160  177.6090  149.3720 O   0  0  0  0  0  1  0  0  0  0  0  0
  189.5270  178.7020  149.1830 O   0  0  0  0  0  0  0  0  0  0  0  0
  188.7140  177.8640  148.7110 C   0  0  0  0  0  0  0  0  0  0  0  0
  190.0160  176.1770  147.6250 O   0  0  0  0  0  0  0  0  0  0  0  0
  191.1710  176.7810  147.2380 N   0  0  0  0  0  2  0  0  0  0  0  0
  192.2060  175.7600  147.1600 C   0  0  0  0  0  1  0  0  0  0  0  0
  187.1330  177.7100  145.5010 C   0  0  0  0  0  2  0  0  0  0  0  0
  186.2260  178.8530  145.4560 N   0  0  0  0  0  2  0  0  0  0  0  0
  184.8700  178.3270  145.4180 C   0  0  1  0  0  3  0  0  0  0  0  0
  184.2650  178.4630  146.6700 O   0  0  0  0  0  1  0  0  0  0  0  0
  184.0590  179.0750  144.3750 C   0  0  0  0  0  2  0  0  0  0  0  0
  182.5780  178.8820  144.6130 C   0  0  0  0  0  2  0  0  0  0  0  0
  181.8510  179.0680  143.3550 C   0  0  0  0  0  0  0  0  0  0  0  0
  181.2720  179.2270  142.3670 N   0  0  0  0  0  0  0  0  0  0  0  0
  187.5340  178.5300  142.6120 O   0  0  0  0  0  0  0  0  0  0  0  0
  185.1120  178.8260  139.7920 C   0  0  1  0  0  3  0  0  0  0  0  0
  187.4720  178.0980  138.8870 C   0  0  2  0  0  3  0  0  0  0  0  0
  185.6120  178.4010  141.1660 C   0  0  0  0  0  2  0  0  0  0  0  0
  187.8700  177.8500  140.3480 C   0  0  0  0  0  2  0  0  0  0  0  0
  187.0900  178.7490  141.2990 C   0  0  2  0  0  3  0  0  0  0  0  0
  185.4990  178.0420  137.5830 O   0  0  0  0  0  0  0  0  0  0  0  0
  185.9730  178.2310  138.6890 C   0  0  0  0  0  0  0  0  0  0  0  0
  182.8170  179.5970  139.0190 S   0  0  0  0  0  0  0  0  0  0  0  0
  183.6330  178.5800  139.6200 C   0  0  0  0  0  0  0  0  0  0  0  0
  182.9820  177.3130  140.0950 C   0  0  0  0  0  2  0  0  0  0  0  0
  183.3230  175.5030  138.5600 O   0  0  0  0  0  1  0  0  0  0  0  0
  182.4350  176.5210  138.9180 C   0  0  1  0  0  3  0  0  0  0  0  0
  181.0900  175.9560  139.2450 C   0  0  0  0  0  0  0  0  0  0  0  0
  180.5050  174.8930  138.3790 C   0  0  0  0  0  1  0  0  0  0  0  0
  180.4530  176.3830  140.1880 O   0  0  0  0  0  0  0  0  0  0  0  0
  189.2880  176.8980  137.9440 O   0  0  0  0  0  0  0  0  0  0  0  0
  188.0780  177.0470  138.0080 C   0  0  0  0  0  3  0  0  0  0  0  0
  1  8  1  0  0  0  0
  1  6  1  1  0  0  0
  2  7  1  0  0  0  0
  2  9  1  0  0  0  0
  3 12  1  1  0  0  0
  5  4  1  1  0  0  0
  5  3  1  0  0  0  0
  7 11  1  6  0  0  0
  7  1  1  0  0  0  0
  7  8  1  0  0  0  0
  8  3  1  0  0  0  0
  9 29  1  0  0  0  0
  9  5  1  0  0  0  0
  9  3  1  0  0  0  0
 10 11  2  0  0  0  0
 12 21  1  0  0  0  0
 12 13  1  0  0  0  0
 13 14  1  0  0  0  0
 14 18  1  0  0  0  0
 14 17  1  0  0  0  0
 17 16  2  0  0  0  0
 17 15  1  0  0  0  0
 19 18  1  0  0  0  0
 20 19  1  0  0  0  0
 22 21  1  0  0  0  0
 23 22  1  0  0  0  0
 23 24  1  0  0  0  0
 25 26  1  0  0  0  0
 25 23  1  0  0  0  0
 27 26  1  0  0  0  0
 28 27  3  0  0  0  0
 30 32  1  0  0  0  0
 31 33  1  0  0  0  0
 32 34  1  0  0  0  0
 33 34  1  0  0  0  0
 34 29  1  0  0  0  0
 35 36  2  0  0  0  0
 36 31  1  0  0  0  0
 36 30  1  0  0  0  0
 37 38  2  0  0  0  0
 38 30  1  0  0  0  0
 38 39  1  0  0  0  0
 40 41  1  0  0  0  0
 41 42  1  0  0  0  0
 41 39  1  0  0  0  0
 42 44  2  0  0  0  0
 43 42  1  0  0  0  0
 45 46  2  0  0  0  0
 46 31  1  0  0  0  0
M  END
>  <MODEL>
5

>  <REMARK>
 VINA RESULT:      -5.7      3.001      8.592
  Name = 
  20 active torsions:
  status: ('A' for Active; 'I' for Inactive)
    1  A    between atoms: C_2  and  C_16
    2  A    between atoms: C_2  and  N_22
    3  A    between atoms: C_3  and  C_30
    4  A    between atoms: C_4  and  C_7
    5  A    between atoms: C_4  and  C_11
    6  A    between atoms: C_5  and  C_21
    7  A    between atoms: C_7  and  N_22
    8  A    between atoms: C_9  and  O_23
    9  A    between atoms: C_9  and  C_25
   10  A    between atoms: C_9  and  C_27
   11  A    between atoms: C_10  and  C_35
   12  A    between atoms: C_11  and  C_26
   13  A    between atoms: N_15  and  O_23
   14  A    between atoms: C_16  and  C_27
   15  A    between atoms: C_16  and  C_32
   16  A    between atoms: C_18  and  C_39
   17  A    between atoms: C_19  and  C_21
   18  A    between atoms: C_19  and  C_30
   19  A    between atoms: O_20  and  C_42
   20  A    between atoms: O_20  and  C_46
                            x       y       z     vdW  Elec       q    Type
                         _______ _______ _______ _____ _____    ______ ____

>  <TORSDO>
F 20

$$$$
=
 OpenBabel11062416253D

 46 49  0  0  1  0  0  0  0  0999 V2000
  188.2070  173.3460  136.8030 C   0  0  1  0  0  3  0  0  0  0  0  0
  190.0540  175.1470  136.5900 C   0  0  0  0  0  2  0  0  0  0  0  0
  187.8160  175.5110  135.5750 C   0  0  1  0  0  0  0  0  0  0  0  0
  188.1910  177.9120  134.5970 C   0  0  0  0  0  1  0  0  0  0  0  0
  188.7000  176.4880  134.7670 C   0  0  1  0  0  3  0  0  0  0  0  0
  188.0140  171.9750  136.6360 O   0  0  0  0  0  1  0  0  0  0  0  0
  189.4970  173.8080  136.1530 C   0  0  2  0  0  0  0  0  0  0  0  0
  188.1860  174.0270  135.4300 C   0  0  1  0  0  3  0  0  0  0  0  0
  189.0170  176.2030  136.2370 C   0  0  2  0  0  0  0  0  0  0  0  0
  191.5520  172.6930  135.8500 O   0  0  0  0  0  0  0  0  0  0  0  0
  190.3940  172.8120  135.4870 C   0  0  0  0  0  3  0  0  0  0  0  0
  186.4280  175.8530  136.2220 C   0  0  2  0  0  3  0  0  0  0  0  0
  185.2910  175.0020  135.6350 C   0  0  0  0  0  2  0  0  0  0  0  0
  184.6330  174.1090  136.6690 C   0  0  2  0  0  3  0  0  0  0  0  0
  183.9440  171.7230  136.9040 O   0  0  0  0  0  1  0  0  0  0  0  0
  185.0270  172.4200  135.0020 O   0  0  0  0  0  0  0  0  0  0  0  0
  184.5490  172.7110  136.1310 C   0  0  0  0  0  0  0  0  0  0  0  0
  183.3530  174.6000  136.9780 O   0  0  0  0  0  0  0  0  0  0  0  0
  183.3460  174.7670  138.3270 N   0  0  0  0  0  2  0  0  0  0  0  0
  182.1150  175.4550  138.6880 C   0  0  0  0  0  1  0  0  0  0  0  0
  186.0150  177.3270  136.2670 C   0  0  0  0  0  2  0  0  0  0  0  0
  184.7730  177.5090  137.0140 N   0  0  0  0  0  2  0  0  0  0  0  0
  185.1290  178.0570  138.3140 C   0  0  1  0  0  3  0  0  0  0  0  0
  186.1730  178.9760  138.1800 O   0  0  0  0  0  1  0  0  0  0  0  0
  183.9210  178.7420  138.9300 C   0  0  0  0  0  2  0  0  0  0  0  0
  183.8170  178.4150  140.4020 C   0  0  0  0  0  2  0  0  0  0  0  0
  182.4300  178.5770  140.8440 C   0  0  0  0  0  0  0  0  0  0  0  0
  181.3340  178.7170  141.1850 N   0  0  0  0  0  0  0  0  0  0  0  0
  188.6420  177.1280  137.2360 O   0  0  0  0  0  0  0  0  0  0  0  0
  189.1090  176.7430  140.9150 C   0  0  1  0  0  3  0  0  0  0  0  0
  191.4440  176.8460  139.7110 C   0  0  2  0  0  3  0  0  0  0  0  0
  188.5280  177.3240  139.6330 C   0  0  0  0  0  2  0  0  0  0  0  0
  190.6900  177.2910  138.4520 C   0  0  0  0  0  2  0  0  0  0  0  0
  189.2670  176.7470  138.4330 C   0  0  2  0  0  3  0  0  0  0  0  0
  191.1760  177.0080  142.0560 O   0  0  0  0  0  0  0  0  0  0  0  0
  190.6130  176.9500  140.9770 C   0  0  0  0  0  0  0  0  0  0  0  0
  187.4990  178.3540  142.0450 S   0  0  0  0  0  0  0  0  0  0  0  0
  188.3700  177.2150  142.1430 C   0  0  0  0  0  0  0  0  0  0  0  0
  188.5480  176.5500  143.4780 C   0  0  0  0  0  2  0  0  0  0  0  0
  186.9500  177.0300  145.2000 O   0  0  0  0  0  1  0  0  0  0  0  0
  188.1260  177.4860  144.6000 C   0  0  1  0  0  3  0  0  0  0  0  0
  189.2180  177.6180  145.6120 C   0  0  0  0  0  0  0  0  0  0  0  0
  189.0350  177.0450  146.9760 C   0  0  0  0  0  1  0  0  0  0  0  0
  190.2390  178.2220  145.3450 O   0  0  0  0  0  0  0  0  0  0  0  0
  193.8120  176.9920  139.7410 O   0  0  0  0  0  0  0  0  0  0  0  0
  192.7450  177.5820  139.8130 C   0  0  0  0  0  3  0  0  0  0  0  0
  1  6  1  6  0  0  0
  3 12  1  1  0  0  0
  3  9  1  0  0  0  0
  5  4  1  1  0  0  0
  5  3  1  0  0  0  0
  5  9  1  0  0  0  0
  7 11  1  6  0  0  0
  7  2  1  0  0  0  0
  7  1  1  0  0  0  0
  8  3  1  0  0  0  0
  8  7  1  0  0  0  0
  8  1  1  0  0  0  0
  9  2  1  0  0  0  0
  9 29  1  0  0  0  0
 11 10  2  0  0  0  0
 12 21  1  0  0  0  0
 13 12  1  0  0  0  0
 13 14  1  0  0  0  0
 14 18  1  0  0  0  0
 16 17  2  0  0  0  0
 17 14  1  0  0  0  0
 17 15  1  0  0  0  0
 18 19  1  0  0  0  0
 19 20  1  0  0  0  0
 21 22  1  0  0  0  0
 22 23  1  0  0  0  0
 23 25  1  0  0  0  0
 24 23  1  0  0  0  0
 25 26  1  0  0  0  0
 26 27  1  0  0  0  0
 27 28  3  0  0  0  0
 29 34  1  0  0  0  0
 30 36  1  0  0  0  0
 30 38  1  0  0  0  0
 31 46  1  0  0  0  0
 31 36  1  0  0  0  0
 32 30  1  0  0  0  0
 33 31  1  0  0  0  0
 34 33  1  0  0  0  0
 34 32  1  0  0  0  0
 36 35  2  0  0  0  0
 37 38  2  0  0  0  0
 38 39  1  0  0  0  0
 39 41  1  0  0  0  0
 41 40  1  0  0  0  0
 41 42  1  0  0  0  0
 42 43  1  0  0  0  0
 44 42  2  0  0  0  0
 45 46  2  0  0  0  0
M  END
>  <MODEL>
6

>  <REMARK>
 VINA RESULT:      -5.6      1.839      2.393
  Name = 
  20 active torsions:
  status: ('A' for Active; 'I' for Inactive)
    1  A    between atoms: C_2  and  C_16
    2  A    between atoms: C_2  and  N_22
    3  A    between atoms: C_3  and  C_30
    4  A    between atoms: C_4  and  C_7
    5  A    between atoms: C_4  and  C_11
    6  A    between atoms: C_5  and  C_21
    7  A    between atoms: C_7  and  N_22
    8  A    between atoms: C_9  and  O_23
    9  A    between atoms: C_9  and  C_25
   10  A    between atoms: C_9  and  C_27
   11  A    between atoms: C_10  and  C_35
   12  A    between atoms: C_11  and  C_26
   13  A    between atoms: N_15  and  O_23
   14  A    between atoms: C_16  and  C_27
   15  A    between atoms: C_16  and  C_32
   16  A    between atoms: C_18  and  C_39
   17  A    between atoms: C_19  and  C_21
   18  A    between atoms: C_19  and  C_30
   19  A    between atoms: O_20  and  C_42
   20  A    between atoms: O_20  and  C_46
                            x       y       z     vdW  Elec       q    Type
                         _______ _______ _______ _____ _____    ______ ____

>  <TORSDO>
F 20

$$$$
=
 OpenBabel11062416253D

 46 49  0  0  1  0  0  0  0  0999 V2000
  187.0330  176.5100  137.7630 C   0  0  1  0  0  3  0  0  0  0  0  0
  186.9700  178.4060  139.5240 C   0  0  0  0  0  2  0  0  0  0  0  0
  185.0010  177.9660  138.0740 C   0  0  1  0  0  0  0  0  0  0  0  0
  183.3680  179.7760  139.0340 C   0  0  0  0  0  1  0  0  0  0  0  0
  184.7560  179.4260  138.5170 C   0  0  1  0  0  3  0  0  0  0  0  0
  187.8450  176.0140  136.7420 O   0  0  0  0  0  1  0  0  0  0  0  0
  187.4600  177.9050  138.1810 C   0  0  2  0  0  0  0  0  0  0  0  0
  186.2780  177.7410  137.2500 C   0  0  1  0  0  3  0  0  0  0  0  0
  185.4500  178.4430  139.4630 C   0  0  2  0  0  0  0  0  0  0  0  0
  188.6750  179.7510  137.3600 O   0  0  0  0  0  0  0  0  0  0  0  0
  188.6500  178.5440  137.5380 C   0  0  0  0  0  3  0  0  0  0  0  0
  183.9380  176.8130  138.0920 C   0  0  2  0  0  3  0  0  0  0  0  0
  183.8300  176.1020  136.7340 C   0  0  0  0  0  2  0  0  0  0  0  0
  183.5650  174.6150  136.8690 C   0  0  2  0  0  3  0  0  0  0  0  0
  185.6800  173.8660  135.7790 O   0  0  0  0  0  0  0  0  0  0  0  0
  185.2450  173.2810  137.9570 O   0  0  0  0  0  1  0  0  0  0  0  0
  184.8750  173.8830  136.9140 C   0  0  0  0  0  0  0  0  0  0  0  0
  182.7840  174.1700  135.7890 O   0  0  0  0  0  0  0  0  0  0  0  0
  181.5050  174.1610  136.2490 N   0  0  0  0  0  2  0  0  0  0  0  0
  181.4120  173.1580  137.3000 C   0  0  0  0  0  1  0  0  0  0  0  0
  182.5410  177.1490  138.6240 C   0  0  0  0  0  2  0  0  0  0  0  0
  181.6220  177.4770  137.5370 N   0  0  0  0  0  2  0  0  0  0  0  0
  180.2780  177.4720  138.0930 C   0  0  1  0  0  3  0  0  0  0  0  0
  179.8980  176.1690  138.4230 O   0  0  0  0  0  1  0  0  0  0  0  0
  180.2340  178.3480  139.3340 C   0  0  0  0  0  2  0  0  0  0  0  0
  178.9990  178.0470  140.1530 C   0  0  0  0  0  2  0  0  0  0  0  0
  179.3590  177.9620  141.5710 C   0  0  0  0  0  0  0  0  0  0  0  0
  179.6360  177.9070  142.6920 N   0  0  0  0  0  0  0  0  0  0  0  0
  184.7260  177.8420  140.5160 O   0  0  0  0  0  0  0  0  0  0  0  0
  186.8690  178.2690  143.5380 C   0  0  1  0  0  3  0  0  0  0  0  0
  184.4340  179.1340  144.0250 C   0  0  2  0  0  3  0  0  0  0  0  0
  186.2710  177.5440  142.3390 C   0  0  0  0  0  2  0  0  0  0  0  0
  184.0160  178.4650  142.7090 C   0  0  0  0  0  2  0  0  0  0  0  0
  185.1740  178.4030  141.7210 C   0  0  2  0  0  3  0  0  0  0  0  0
  186.0640  178.8070  145.7070 O   0  0  0  0  0  0  0  0  0  0  0  0
  185.7890  178.6710  144.5280 C   0  0  0  0  0  0  0  0  0  0  0  0
  188.3440  176.2020  143.6460 S   0  0  0  0  0  0  0  0  0  0  0  0
  188.0160  177.5060  144.1520 C   0  0  0  0  0  0  0  0  0  0  0  0
  188.8050  178.0560  145.3060 C   0  0  0  0  0  2  0  0  0  0  0  0
  191.1710  177.7830  145.0340 O   0  0  0  0  0  1  0  0  0  0  0  0
  190.0260  177.1930  145.5770 C   0  0  1  0  0  3  0  0  0  0  0  0
  190.1960  176.9670  147.0450 C   0  0  0  0  0  0  0  0  0  0  0  0
  189.2780  177.6410  148.0060 C   0  0  0  0  0  1  0  0  0  0  0  0
  191.1000  176.2700  147.4630 O   0  0  0  0  0  0  0  0  0  0  0  0
  182.2130  178.6730  144.7200 O   0  0  0  0  0  0  0  0  0  0  0  0
  183.3510  178.9690  145.0470 C   0  0  0  0  0  3  0  0  0  0  0  0
  1  6  1  6  0  0  0
  1  7  1  0  0  0  0
  3 12  1  6  0  0  0
  3  5  1  0  0  0  0
  3  9  1  0  0  0  0
  5  4  1  1  0  0  0
  5  9  1  0  0  0  0
  7 11  1  6  0  0  0
  7  2  1  0  0  0  0
  8  1  1  0  0  0  0
  8  3  1  0  0  0  0
  8  7  1  0  0  0  0
  9  2  1  0  0  0  0
  9 29  1  0  0  0  0
 10 11  2  0  0  0  0
 12 21  1  0  0  0  0
 13 14  1  0  0  0  0
 13 12  1  0  0  0  0
 14 17  1  0  0  0  0
 15 17  2  0  0  0  0
 17 16  1  0  0  0  0
 18 19  1  0  0  0  0
 18 14  1  0  0  0  0
 19 20  1  0  0  0  0
 22 23  1  0  0  0  0
 22 21  1  0  0  0  0
 23 24  1  0  0  0  0
 23 25  1  0  0  0  0
 25 26  1  0  0  0  0
 26 27  1  0  0  0  0
 27 28  3  0  0  0  0
 29 34  1  0  0  0  0
 30 38  1  0  0  0  0
 30 36  1  0  0  0  0
 31 36  1  0  0  0  0
 31 46  1  0  0  0  0
 32 30  1  0  0  0  0
 33 31  1  0  0  0  0
 34 32  1  0  0  0  0
 34 33  1  0  0  0  0
 36 35  2  0  0  0  0
 37 38  2  0  0  0  0
 38 39  1  0  0  0  0
 39 41  1  0  0  0  0
 40 41  1  0  0  0  0
 41 42  1  0  0  0  0
 42 44  2  0  0  0  0
 42 43  1  0  0  0  0
 45 46  2  0  0  0  0
M  END
>  <MODEL>
7

>  <REMARK>
 VINA RESULT:      -5.5      2.669      4.969
  Name = 
  20 active torsions:
  status: ('A' for Active; 'I' for Inactive)
    1  A    between atoms: C_2  and  C_16
    2  A    between atoms: C_2  and  N_22
    3  A    between atoms: C_3  and  C_30
    4  A    between atoms: C_4  and  C_7
    5  A    between atoms: C_4  and  C_11
    6  A    between atoms: C_5  and  C_21
    7  A    between atoms: C_7  and  N_22
    8  A    between atoms: C_9  and  O_23
    9  A    between atoms: C_9  and  C_25
   10  A    between atoms: C_9  and  C_27
   11  A    between atoms: C_10  and  C_35
   12  A    between atoms: C_11  and  C_26
   13  A    between atoms: N_15  and  O_23
   14  A    between atoms: C_16  and  C_27
   15  A    between atoms: C_16  and  C_32
   16  A    between atoms: C_18  and  C_39
   17  A    between atoms: C_19  and  C_21
   18  A    between atoms: C_19  and  C_30
   19  A    between atoms: O_20  and  C_42
   20  A    between atoms: O_20  and  C_46
                            x       y       z     vdW  Elec       q    Type
                         _______ _______ _______ _____ _____    ______ ____

>  <TORSDO>
F 20

$$$$
=
 OpenBabel11062416253D

 46 49  0  0  1  0  0  0  0  0999 V2000
  186.6910  176.6820  137.5860 C   0  0  1  0  0  3  0  0  0  0  0  0
  186.6450  178.2810  139.6200 C   0  0  0  0  0  2  0  0  0  0  0  0
  184.7900  178.2910  137.9670 C   0  0  1  0  0  0  0  0  0  0  0  0
  183.2580  180.1040  139.0760 C   0  0  0  0  0  1  0  0  0  0  0  0
  184.6480  179.6840  138.6210 C   0  0  1  0  0  3  0  0  0  0  0  0
  187.5430  176.2600  136.5640 O   0  0  0  0  0  1  0  0  0  0  0  0
  187.2090  177.9390  138.2570 C   0  0  2  0  0  0  0  0  0  0  0  0
  186.1120  178.0530  137.2210 C   0  0  1  0  0  3  0  0  0  0  0  0
  185.1490  178.4970  139.4460 C   0  0  2  0  0  0  0  0  0  0  0  0
  189.0540  179.3860  138.5050 O   0  0  0  0  0  0  0  0  0  0  0  0
  188.5130  178.5320  137.8220 C   0  0  0  0  0  3  0  0  0  0  0  0
  183.6220  177.2750  137.7140 C   0  0  2  0  0  3  0  0  0  0  0  0
  183.7660  176.5510  136.3660 C   0  0  0  0  0  2  0  0  0  0  0  0
  183.4380  175.0730  136.4560 C   0  0  2  0  0  3  0  0  0  0  0  0
  181.3270  173.7450  136.4870 O   0  0  0  0  0  1  0  0  0  0  0  0
  181.4640  175.6480  135.2080 O   0  0  0  0  0  0  0  0  0  0  0  0
  182.0230  174.8530  136.0110 C   0  0  0  0  0  0  0  0  0  0  0  0
  183.6200  174.6240  137.7750 O   0  0  0  0  0  0  0  0  0  0  0  0
  184.7690  173.8980  137.7540 N   0  0  0  0  0  2  0  0  0  0  0  0
  184.4480  172.5640  137.2670 C   0  0  0  0  0  1  0  0  0  0  0  0
  182.1890  177.7890  137.8860 C   0  0  0  0  0  2  0  0  0  0  0  0
  181.4600  177.0100  138.8820 N   0  0  0  0  0  2  0  0  0  0  0  0
  180.0890  176.8840  138.4110 C   0  0  1  0  0  3  0  0  0  0  0  0
  179.5980  175.6070  138.6960 O   0  0  0  0  0  1  0  0  0  0  0  0
  179.2170  177.9290  139.0860 C   0  0  0  0  0  2  0  0  0  0  0  0
  179.7500  178.2570  140.4630 C   0  0  0  0  0  2  0  0  0  0  0  0
  179.9100  179.7080  140.5930 C   0  0  0  0  0  0  0  0  0  0  0  0
  180.0230  180.8540  140.6940 N   0  0  0  0  0  0  0  0  0  0  0  0
  184.2720  177.8260  140.3270 O   0  0  0  0  0  0  0  0  0  0  0  0
  185.5690  178.5020  143.7570 C   0  0  1  0  0  3  0  0  0  0  0  0
  183.0250  179.1510  143.6070 C   0  0  2  0  0  3  0  0  0  0  0  0
  185.3450  177.7040  142.4790 C   0  0  0  0  0  2  0  0  0  0  0  0
  182.9980  178.4220  142.2570 C   0  0  0  0  0  2  0  0  0  0  0  0
  184.3640  178.4480  141.5810 C   0  0  2  0  0  3  0  0  0  0  0  0
  184.2180  179.0060  145.6440 O   0  0  0  0  0  0  0  0  0  0  0  0
  184.2500  178.8230  144.4410 C   0  0  0  0  0  0  0  0  0  0  0  0
  187.8490  177.4350  144.1090 S   0  0  0  0  0  0  0  0  0  0  0  0
  186.5920  177.8580  144.6610 C   0  0  0  0  0  0  0  0  0  0  0  0
  186.3180  177.6140  146.1170 C   0  0  0  0  0  2  0  0  0  0  0  0
  186.4580  179.3230  147.7920 O   0  0  0  0  0  1  0  0  0  0  0  0
  187.2210  178.4790  146.9810 C   0  0  1  0  0  3  0  0  0  0  0  0
  188.1260  177.6270  147.8120 C   0  0  0  0  0  0  0  0  0  0  0  0
  188.9890  178.2590  148.8500 C   0  0  0  0  0  1  0  0  0  0  0  0
  188.1930  176.4280  147.6220 O   0  0  0  0  0  0  0  0  0  0  0  0
  180.7210  178.6070  143.7490 O   0  0  0  0  0  0  0  0  0  0  0  0
  181.7440  178.9070  144.3430 C   0  0  0  0  0  3  0  0  0  0  0  0
  1  6  1  6  0  0  0
  1  7  1  0  0  0  0
  3 12  1  6  0  0  0
  3  5  1  0  0  0  0
  3  9  1  0  0  0  0
  5  4  1  1  0  0  0
  5  9  1  0  0  0  0
  7 11  1  6  0  0  0
  7  2  1  0  0  0  0
  8  1  1  0  0  0  0
  8  3  1  0  0  0  0
  8  7  1  0  0  0  0
  9  2  1  0  0  0  0
  9 29  1  0  0  0  0
 11 10  2  0  0  0  0
 12 21  1  0  0  0  0
 13 14  1  0  0  0  0
 13 12  1  0  0  0  0
 14 18  1  0  0  0  0
 16 17  2  0  0  0  0
 17 14  1  0  0  0  0
 17 15  1  0  0  0  0
 19 18  1  0  0  0  0
 20 19  1  0  0  0  0
 21 22  1  0  0  0  0
 23 24  1  0  0  0  0
 23 22  1  0  0  0  0
 23 25  1  0  0  0  0
 25 26  1  0  0  0  0
 26 27  1  0  0  0  0
 27 28  3  0  0  0  0
 29 34  1  0  0  0  0
 30 36  1  0  0  0  0
 30 38  1  0  0  0  0
 31 46  1  0  0  0  0
 31 36  1  0  0  0  0
 32 30  1  0  0  0  0
 33 31  1  0  0  0  0
 34 33  1  0  0  0  0
 34 32  1  0  0  0  0
 36 35  2  0  0  0  0
 37 38  2  0  0  0  0
 38 39  1  0  0  0  0
 39 41  1  0  0  0  0
 41 40  1  0  0  0  0
 41 42  1  0  0  0  0
 42 43  1  0  0  0  0
 44 42  2  0  0  0  0
 45 46  2  0  0  0  0
M  END
>  <MODEL>
8

>  <REMARK>
 VINA RESULT:      -5.4      2.896      5.264
  Name = 
  20 active torsions:
  status: ('A' for Active; 'I' for Inactive)
    1  A    between atoms: C_2  and  C_16
    2  A    between atoms: C_2  and  N_22
    3  A    between atoms: C_3  and  C_30
    4  A    between atoms: C_4  and  C_7
    5  A    between atoms: C_4  and  C_11
    6  A    between atoms: C_5  and  C_21
    7  A    between atoms: C_7  and  N_22
    8  A    between atoms: C_9  and  O_23
    9  A    between atoms: C_9  and  C_25
   10  A    between atoms: C_9  and  C_27
   11  A    between atoms: C_10  and  C_35
   12  A    between atoms: C_11  and  C_26
   13  A    between atoms: N_15  and  O_23
   14  A    between atoms: C_16  and  C_27
   15  A    between atoms: C_16  and  C_32
   16  A    between atoms: C_18  and  C_39
   17  A    between atoms: C_19  and  C_21
   18  A    between atoms: C_19  and  C_30
   19  A    between atoms: O_20  and  C_42
   20  A    between atoms: O_20  and  C_46
                            x       y       z     vdW  Elec       q    Type
                         _______ _______ _______ _____ _____    ______ ____

>  <TORSDO>
F 20

$$$$
=
 OpenBabel11062416253D

 46 49  0  0  1  0  0  0  0  0999 V2000
  191.2270  178.8710  143.6080 C   0  0  1  0  0  3  0  0  0  0  0  0
  189.8490  177.9940  141.6000 C   0  0  0  0  0  2  0  0  0  0  0  0
  189.3450  177.2240  143.9080 C   0  0  1  0  0  0  0  0  0  0  0  0
  187.3080  175.6600  143.3850 C   0  0  0  0  0  1  0  0  0  0  0  0
  188.7260  176.0970  143.0480 C   0  0  1  0  0  3  0  0  0  0  0  0
  192.5510  179.0620  144.0060 O   0  0  0  0  0  1  0  0  0  0  0  0
  191.1390  177.9650  142.3940 C   0  0  2  0  0  0  0  0  0  0  0  0
  190.8650  177.3900  143.7670 C   0  0  1  0  0  3  0  0  0  0  0  0
  188.7360  177.5380  142.5330 C   0  0  2  0  0  0  0  0  0  0  0  0
  192.5190  177.4740  140.5470 O   0  0  0  0  0  0  0  0  0  0  0  0
  192.3900  177.4450  141.7600 C   0  0  0  0  0  3  0  0  0  0  0  0
  188.6450  177.9460  145.1120 C   0  0  2  0  0  3  0  0  0  0  0  0
  189.5510  178.0170  146.3500 C   0  0  0  0  0  2  0  0  0  0  0  0
  189.0780  177.1180  147.4760 C   0  0  2  0  0  3  0  0  0  0  0  0
  189.9380  178.5460  149.3310 O   0  0  0  0  0  1  0  0  0  0  0  0
  187.6910  178.0930  149.1820 O   0  0  0  0  0  0  0  0  0  0  0  0
  188.8480  177.9460  148.7060 C   0  0  0  0  0  0  0  0  0  0  0  0
  190.0350  176.1180  147.7210 O   0  0  0  0  0  0  0  0  0  0  0  0
  191.1520  176.5180  147.0570 N   0  0  0  0  0  2  0  0  0  0  0  0
  192.3100  176.0080  147.7780 C   0  0  0  0  0  1  0  0  0  0  0  0
  187.2460  177.4620  145.5090 C   0  0  0  0  0  2  0  0  0  0  0  0
  186.4180  178.5640  145.9890 N   0  0  0  0  0  2  0  0  0  0  0  0
  185.0290  178.1620  145.8280 C   0  0  1  0  0  3  0  0  0  0  0  0
  184.1980  178.9810  146.5960 O   0  0  0  0  0  1  0  0  0  0  0  0
  184.6340  178.2620  144.3640 C   0  0  0  0  0  2  0  0  0  0  0  0
  183.7280  179.4510  144.1380 C   0  0  0  0  0  2  0  0  0  0  0  0
  182.4900  179.0080  143.4910 C   0  0  0  0  0  0  0  0  0  0  0  0
  181.5090  178.6540  142.9930 N   0  0  0  0  0  0  0  0  0  0  0  0
  187.5680  178.3270  142.6120 O   0  0  0  0  0  0  0  0  0  0  0  0
  185.2490  178.9940  139.7690 C   0  0  1  0  0  3  0  0  0  0  0  0
  187.5390  178.0660  138.8710 C   0  0  2  0  0  3  0  0  0  0  0  0
  185.6740  178.4610  141.1310 C   0  0  0  0  0  2  0  0  0  0  0  0
  187.8790  177.7150  140.3250 C   0  0  0  0  0  2  0  0  0  0  0  0
  187.1760  178.6480  141.3030 C   0  0  2  0  0  3  0  0  0  0  0  0
  185.5980  178.2710  137.5340 O   0  0  0  0  0  0  0  0  0  0  0  0
  186.0660  178.3620  138.6550 C   0  0  0  0  0  0  0  0  0  0  0  0
  183.0840  177.6620  139.7970 S   0  0  0  0  0  0  0  0  0  0  0  0
  183.7560  178.9100  139.5630 C   0  0  0  0  0  0  0  0  0  0  0  0
  182.9560  180.0870  139.0840 C   0  0  0  0  0  2  0  0  0  0  0  0
  180.6590  180.4340  139.6750 O   0  0  0  0  0  1  0  0  0  0  0  0
  181.5070  179.6880  138.8530 C   0  0  1  0  0  3  0  0  0  0  0  0
  181.1360  179.8650  137.4160 C   0  0  0  0  0  0  0  0  0  0  0  0
  180.2490  180.9930  137.0140 C   0  0  0  0  0  1  0  0  0  0  0  0
  181.5210  179.0730  136.5760 O   0  0  0  0  0  0  0  0  0  0  0  0
  189.1890  177.0380  137.5110 O   0  0  0  0  0  0  0  0  0  0  0  0
  188.0520  176.9980  137.9550 C   0  0  0  0  0  3  0  0  0  0  0  0
  1  8  1  0  0  0  0
  1  6  1  1  0  0  0
  2  7  1  0  0  0  0
  2  9  1  0  0  0  0
  3 12  1  1  0  0  0
  5  4  1  1  0  0  0
  5  3  1  0  0  0  0
  7 11  1  6  0  0  0
  7  1  1  0  0  0  0
  7  8  1  0  0  0  0
  8  3  1  0  0  0  0
  9 29  1  0  0  0  0
  9  5  1  0  0  0  0
  9  3  1  0  0  0  0
 10 11  2  0  0  0  0
 12 21  1  0  0  0  0
 12 13  1  0  0  0  0
 13 14  1  0  0  0  0
 14 18  1  0  0  0  0
 14 17  1  0  0  0  0
 17 16  2  0  0  0  0
 17 15  1  0  0  0  0
 19 18  1  0  0  0  0
 19 20  1  0  0  0  0
 21 22  1  0  0  0  0
 23 22  1  0  0  0  0
 23 24  1  0  0  0  0
 25 23  1  0  0  0  0
 26 25  1  0  0  0  0
 27 26  1  0  0  0  0
 28 27  3  0  0  0  0
 30 32  1  0  0  0  0
 31 33  1  0  0  0  0
 32 34  1  0  0  0  0
 33 34  1  0  0  0  0
 34 29  1  0  0  0  0
 35 36  2  0  0  0  0
 36 31  1  0  0  0  0
 36 30  1  0  0  0  0
 38 30  1  0  0  0  0
 38 37  2  0  0  0  0
 39 38  1  0  0  0  0
 41 39  1  0  0  0  0
 41 40  1  0  0  0  0
 42 41  1  0  0  0  0
 43 42  1  0  0  0  0
 44 42  2  0  0  0  0
 45 46  2  0  0  0  0
 46 31  1  0  0  0  0
M  END
>  <MODEL>
9

>  <REMARK>
 VINA RESULT:      -5.3      3.024      8.835
  Name = 
  20 active torsions:
  status: ('A' for Active; 'I' for Inactive)
    1  A    between atoms: C_2  and  C_16
    2  A    between atoms: C_2  and  N_22
    3  A    between atoms: C_3  and  C_30
    4  A    between atoms: C_4  and  C_7
    5  A    between atoms: C_4  and  C_11
    6  A    between atoms: C_5  and  C_21
    7  A    between atoms: C_7  and  N_22
    8  A    between atoms: C_9  and  O_23
    9  A    between atoms: C_9  and  C_25
   10  A    between atoms: C_9  and  C_27
   11  A    between atoms: C_10  and  C_35
   12  A    between atoms: C_11  and  C_26
   13  A    between atoms: N_15  and  O_23
   14  A    between atoms: C_16  and  C_27
   15  A    between atoms: C_16  and  C_32
   16  A    between atoms: C_18  and  C_39
   17  A    between atoms: C_19  and  C_21
   18  A    between atoms: C_19  and  C_30
   19  A    between atoms: O_20  and  C_42
   20  A    between atoms: O_20  and  C_46
                            x       y       z     vdW  Elec       q    Type
                         _______ _______ _______ _____ _____    ______ ____

>  <TORSDO>
F 20

$$$$
