=
 OpenBabel11062413153D

 42 48  0  0  1  0  0  0  0  0999 V2000
  189.8310  176.8810  141.9930 C   0  0  1  0  0  3  0  0  0  0  0  0
  191.6110  178.3250  143.8100 C   0  0  1  0  0  3  0  0  0  0  0  0
  191.7540  176.8870  143.3450 C   0  0  1  0  0  3  0  0  0  0  0  0
  190.1790  178.8180  143.7440 C   0  0  1  0  0  3  0  0  0  0  0  0
  190.8210  176.4220  144.4570 C   0  0  0  0  0  2  0  0  0  0  0  0
  191.2400  176.7370  142.0270 O   0  0  0  0  0  0  0  0  0  0  0  0
  189.3720  178.2410  142.5520 C   0  0  2  0  0  3  0  0  0  0  0  0
  190.6100  177.8720  144.8720 C   0  0  1  0  0  3  0  0  0  0  0  0
  185.1280  178.2500  143.3010 C   0  0  0  0  0  0  0  0  0  0  0  0
  185.6320  178.7040  142.0730 C   0  0  0  0  0  0  0  0  0  0  0  0
  187.8990  178.2510  142.8360 C   0  0  0  0  0  0  0  0  0  0  0  0
  187.3930  177.7920  144.0530 C   0  0  0  0  0  3  0  0  0  0  0  0
  187.0170  178.6850  141.8460 C   0  0  0  0  0  3  0  0  0  0  0  0
  186.0150  177.7960  144.2850 C   0  0  0  0  0  3  0  0  0  0  0  0
  183.1880  179.0150  144.5310 N   0  0  0  0  0  1  0  0  0  0  0  0
  183.7480  178.2500  143.5340 O   0  0  0  0  0  0  0  0  0  0  0  0
  184.6840  179.0810  140.9710 C   0  0  0  0  0  2  0  0  0  0  0  0
  182.5670  176.1550  139.8780 O   0  0  0  0  0  0  0  0  0  0  0  0
  183.0850  178.3640  138.3110 C   0  0  1  0  0  0  0  0  0  0  0  0
  183.0110  177.4090  137.1420 C   0  0  0  0  0  2  0  0  0  0  0  0
  182.8360  177.6320  139.8810 S   0  0  0  0  0  0  0  0  0  0  0  0
  184.5500  178.6070  138.6610 C   0  0  1  0  0  3  0  0  0  0  0  0
  184.5250  178.0000  140.0060 N   0  0  0  0  0  0  0  0  0  0  0  0
  181.9570  178.4110  140.8190 O   0  0  0  0  0  0  0  0  0  0  0  0
  182.3670  179.5450  138.1330 O   0  0  0  0  0  1  0  0  0  0  0  0
  185.3540  177.7320  137.7160 C   0  0  0  0  0  2  0  0  0  0  0  0
  184.4220  177.3380  136.5850 C   0  0  0  0  0  2  0  0  0  0  0  0
  189.3270  176.7130  140.5650 C   0  0  0  0  0  2  0  0  0  0  0  0
  190.4720  176.4500  139.5990 C   0  0  0  0  0  2  0  0  0  0  0  0
  190.3550  177.3060  138.3410 C   0  0  2  0  0  3  0  0  0  0  0  0
  189.1430  178.2100  138.3790 C   0  0  0  0  0  2  0  0  0  0  0  0
  191.6530  176.2040  136.5240 C   0  0  0  0  0  1  0  0  0  0  0  0
  190.2580  176.5410  137.0200 C   0  0  2  0  0  0  0  0  0  0  0  0
  188.8200  178.5180  136.9310 C   0  0  0  0  0  2  0  0  0  0  0  0
  189.6300  177.5550  136.0770 C   0  0  0  0  0  2  0  0  0  0  0  0
  189.3690  175.2760  137.1190 C   0  0  2  0  0  3  0  0  0  0  0  0
  190.1010  174.1530  137.5220 O   0  0  0  0  0  1  0  0  0  0  0  0
  189.1780  173.9070  134.9770 C   0  0  0  0  0  1  0  0  0  0  0  0
  188.5440  174.9740  135.8600 C   0  0  1  0  0  3  0  0  0  0  0  0
  187.1370  174.6200  136.2220 C   0  0  0  0  0  0  0  0  0  0  0  0
  186.7720  174.5730  137.4240 O   0  0  0  0  0  1  0  0  0  0  0  0
  186.2020  174.4390  135.2150 O   0  0  0  0  0  0  0  0  0  0  0  0
  1 28  1  6  0  0  0
  1  6  1  0  0  0  0
  1  7  1  0  0  0  0
  2  8  1  0  0  0  0
  3  2  1  0  0  0  0
  3  5  1  0  0  0  0
  4  2  1  0  0  0  0
  4  8  1  0  0  0  0
  5  8  1  0  0  0  0
  6  3  1  0  0  0  0
  7 11  1  0  0  0  0
  7  4  1  0  0  0  0
  9 16  1  0  0  0  0
  9 14  1  0  0  0  0
 10  9  2  0  0  0  0
 11 12  1  0  0  0  0
 12 14  2  0  0  0  0
 13 10  1  0  0  0  0
 13 11  2  0  0  0  0
 16 15  1  0  0  0  0
 17 10  1  0  0  0  0
 18 21  2  0  0  0  0
 19 22  1  0  0  0  0
 19 21  1  0  0  0  0
 20 19  1  0  0  0  0
 21 23  1  0  0  0  0
 21 24  2  0  0  0  0
 22 23  1  0  0  0  0
 23 17  1  0  0  0  0
 25 19  1  0  0  0  0
 26 22  1  0  0  0  0
 27 20  1  0  0  0  0
 27 26  1  0  0  0  0
 29 28  1  0  0  0  0
 30 31  1  0  0  0  0
 30 29  1  0  0  0  0
 32 33  1  0  0  0  0
 33 36  1  0  0  0  0
 33 30  1  0  0  0  0
 34 31  1  0  0  0  0
 35 34  1  0  0  0  0
 35 33  1  0  0  0  0
 36 37  1  0  0  0  0
 38 39  1  0  0  0  0
 39 40  1  0  0  0  0
 39 36  1  0  0  0  0
 40 41  1  0  0  0  0
 42 40  2  0  0  0  0
M  END
>  <MODEL>
1

>  <REMARK>
 VINA RESULT:      -8.0      0.000      0.000
  Name = 
  10 active torsions:
  status: ('A' for Active; 'I' for Inactive)
    1  A    between atoms: C_1  and  C_6
    2  A    between atoms: C_2  and  O_12
    3  A    between atoms: C_4  and  C_42
    4  A    between atoms: C_5  and  C_21
    5  A    between atoms: C_6  and  C_21
    6  A    between atoms: C_10  and  C_37
    7  A    between atoms: C_13  and  C_36
    8  A    between atoms: C_19  and  C_20
    9  A    between atoms: C_19  and  C_37
   10  A    between atoms: N_22  and  C_42
                            x       y       z     vdW  Elec       q    Type
                         _______ _______ _______ _____ _____    ______ ____

>  <TORSDO>
F 10

$$$$
=
 OpenBabel11062413153D

 42 48  0  0  1  0  0  0  0  0999 V2000
  183.5290  179.2150  139.8180 C   0  0  1  0  0  3  0  0  0  0  0  0
  180.9500  177.8370  139.8030 C   0  0  1  0  0  3  0  0  0  0  0  0
  181.2920  179.1390  139.1010 C   0  0  1  0  0  3  0  0  0  0  0  0
  181.8470  177.5640  140.9940 C   0  0  1  0  0  3  0  0  0  0  0  0
  180.9890  179.9190  140.3750 C   0  0  0  0  0  2  0  0  0  0  0  0
  182.6580  179.1460  138.7040 O   0  0  0  0  0  0  0  0  0  0  0  0
  183.3060  178.0520  140.8040 C   0  0  2  0  0  3  0  0  0  0  0  0
  180.7280  178.6070  141.1040 C   0  0  1  0  0  3  0  0  0  0  0  0
  185.2750  178.8060  144.5630 C   0  0  0  0  0  0  0  0  0  0  0  0
  185.8500  177.9390  143.6230 C   0  0  0  0  0  0  0  0  0  0  0  0
  183.9690  178.3150  142.1240 C   0  0  0  0  0  0  0  0  0  0  0  0
  183.4050  179.1830  143.0580 C   0  0  0  0  0  3  0  0  0  0  0  0
  185.1970  177.7130  142.4010 C   0  0  0  0  0  3  0  0  0  0  0  0
  184.0520  179.4240  144.2720 C   0  0  0  0  0  3  0  0  0  0  0  0
  185.2380  179.0380  146.9730 N   0  0  0  0  0  1  0  0  0  0  0  0
  185.9220  179.0500  145.7790 O   0  0  0  0  0  0  0  0  0  0  0  0
  187.2140  177.3640  143.8760 C   0  0  0  0  0  2  0  0  0  0  0  0
  190.5920  179.0470  143.8480 O   0  0  0  0  0  0  0  0  0  0  0  0
  189.9910  176.7550  142.4380 C   0  0  1  0  0  0  0  0  0  0  0  0
  190.9830  177.2620  141.4160 C   0  0  0  0  0  2  0  0  0  0  0  0
  189.7670  177.7930  143.8290 S   0  0  0  0  0  0  0  0  0  0  0  0
  188.5790  177.0880  141.9670 C   0  0  1  0  0  3  0  0  0  0  0  0
  188.2310  178.0170  143.0600 N   0  0  0  0  0  0  0  0  0  0  0  0
  189.7040  177.0840  145.1540 O   0  0  0  0  0  0  0  0  0  0  0  0
  190.1490  175.4110  142.7720 O   0  0  0  0  0  1  0  0  0  0  0  0
  188.7450  177.8580  140.6690 C   0  0  0  0  0  2  0  0  0  0  0  0
  190.1600  177.6020  140.1860 C   0  0  0  0  0  2  0  0  0  0  0  0
  184.9780  179.2190  139.3440 C   0  0  0  0  0  2  0  0  0  0  0  0
  185.3680  177.8780  138.7380 C   0  0  0  0  0  2  0  0  0  0  0  0
  185.4410  177.9500  137.2160 C   0  0  2  0  0  3  0  0  0  0  0  0
  184.2600  177.2720  136.5560 C   0  0  0  0  0  2  0  0  0  0  0  0
  187.8130  178.3400  136.5670 C   0  0  0  0  0  1  0  0  0  0  0  0
  186.6840  177.3260  136.5780 C   0  0  2  0  0  0  0  0  0  0  0  0
  184.7320  176.8940  135.1670 C   0  0  0  0  0  2  0  0  0  0  0  0
  186.2430  177.0610  135.1470 C   0  0  0  0  0  2  0  0  0  0  0  0
  187.1130  176.0040  137.2610 C   0  0  2  0  0  3  0  0  0  0  0  0
  188.4370  176.0560  137.7140 O   0  0  0  0  0  1  0  0  0  0  0  0
  188.1520  174.1230  135.8870 C   0  0  0  0  0  1  0  0  0  0  0  0
  186.8670  174.7410  136.4230 C   0  0  1  0  0  3  0  0  0  0  0  0
  186.0600  173.7450  137.1930 C   0  0  0  0  0  0  0  0  0  0  0  0
  186.5530  172.6400  137.5340 O   0  0  0  0  0  0  0  0  0  0  0  0
  184.7860  174.0880  137.6190 O   0  0  0  0  0  1  0  0  0  0  0  0
  1 28  1  6  0  0  0
  1  7  1  0  0  0  0
  2  4  1  0  0  0  0
  2  8  1  0  0  0  0
  3  2  1  0  0  0  0
  3  5  1  0  0  0  0
  4  8  1  0  0  0  0
  5  8  1  0  0  0  0
  6  3  1  0  0  0  0
  6  1  1  0  0  0  0
  7  4  1  0  0  0  0
  7 11  1  0  0  0  0
  9 16  1  0  0  0  0
 10 17  1  0  0  0  0
 10  9  2  0  0  0  0
 11 13  2  0  0  0  0
 11 12  1  0  0  0  0
 12 14  2  0  0  0  0
 13 10  1  0  0  0  0
 14  9  1  0  0  0  0
 16 15  1  0  0  0  0
 19 25  1  0  0  0  0
 19 21  1  0  0  0  0
 20 19  1  0  0  0  0
 21 18  2  0  0  0  0
 21 24  2  0  0  0  0
 22 19  1  0  0  0  0
 22 23  1  0  0  0  0
 23 21  1  0  0  0  0
 23 17  1  0  0  0  0
 26 22  1  0  0  0  0
 27 26  1  0  0  0  0
 27 20  1  0  0  0  0
 29 28  1  0  0  0  0
 30 29  1  0  0  0  0
 31 30  1  0  0  0  0
 32 33  1  0  0  0  0
 33 30  1  0  0  0  0
 33 36  1  0  0  0  0
 34 31  1  0  0  0  0
 35 34  1  0  0  0  0
 35 33  1  0  0  0  0
 36 37  1  0  0  0  0
 38 39  1  0  0  0  0
 39 40  1  0  0  0  0
 39 36  1  0  0  0  0
 40 41  2  0  0  0  0
 40 42  1  0  0  0  0
M  END
>  <MODEL>
2

>  <REMARK>
 VINA RESULT:      -7.9      2.422      6.282
  Name = 
  10 active torsions:
  status: ('A' for Active; 'I' for Inactive)
    1  A    between atoms: C_1  and  C_6
    2  A    between atoms: C_2  and  O_12
    3  A    between atoms: C_4  and  C_42
    4  A    between atoms: C_5  and  C_21
    5  A    between atoms: C_6  and  C_21
    6  A    between atoms: C_10  and  C_37
    7  A    between atoms: C_13  and  C_36
    8  A    between atoms: C_19  and  C_20
    9  A    between atoms: C_19  and  C_37
   10  A    between atoms: N_22  and  C_42
                            x       y       z     vdW  Elec       q    Type
                         _______ _______ _______ _____ _____    ______ ____

>  <TORSDO>
F 10

$$$$
=
 OpenBabel11062413153D

 42 48  0  0  1  0  0  0  0  0999 V2000
  183.6730  178.8590  139.1870 C   0  0  1  0  0  3  0  0  0  0  0  0
  181.4300  177.0570  138.6620 C   0  0  1  0  0  3  0  0  0  0  0  0
  181.7350  178.3640  137.9520 C   0  0  1  0  0  3  0  0  0  0  0  0
  182.0210  177.0010  140.0570 C   0  0  1  0  0  3  0  0  0  0  0  0
  180.9980  179.1400  139.0370 C   0  0  0  0  0  2  0  0  0  0  0  0
  183.1390  178.5870  137.9030 O   0  0  0  0  0  0  0  0  0  0  0  0
  183.3860  177.7240  140.1880 C   0  0  2  0  0  3  0  0  0  0  0  0
  180.7640  177.8390  139.7940 C   0  0  1  0  0  3  0  0  0  0  0  0
  184.1670  179.0130  144.2260 C   0  0  0  0  0  0  0  0  0  0  0  0
  185.2290  178.7080  143.3620 C   0  0  0  0  0  0  0  0  0  0  0  0
  183.6390  178.1590  141.6010 C   0  0  0  0  0  0  0  0  0  0  0  0
  182.5860  178.4720  142.4620 C   0  0  0  0  0  3  0  0  0  0  0  0
  184.9530  178.2980  142.0480 C   0  0  0  0  0  3  0  0  0  0  0  0
  182.8490  178.8920  143.7680 C   0  0  0  0  0  3  0  0  0  0  0  0
  184.4830  178.5440  146.5800 N   0  0  0  0  0  1  0  0  0  0  0  0
  184.4290  179.4360  145.5330 O   0  0  0  0  0  0  0  0  0  0  0  0
  186.6430  178.9460  143.8050 C   0  0  0  0  0  2  0  0  0  0  0  0
  188.5980  175.7600  143.2860 O   0  0  0  0  0  0  0  0  0  0  0  0
  189.4160  177.8330  144.9110 C   0  0  1  0  0  0  0  0  0  0  0  0
  190.0580  176.7610  145.7610 C   0  0  0  0  0  2  0  0  0  0  0  0
  188.5720  177.2460  143.4950 S   0  0  0  0  0  0  0  0  0  0  0  0
  188.0820  178.2300  145.5360 C   0  0  1  0  0  3  0  0  0  0  0  0
  187.2140  177.7630  144.4380 N   0  0  0  0  0  0  0  0  0  0  0  0
  188.7980  178.0430  142.2390 O   0  0  0  0  0  0  0  0  0  0  0  0
  190.2390  178.9260  144.6490 O   0  0  0  0  0  1  0  0  0  0  0  0
  187.9080  177.3320  146.7490 C   0  0  0  0  0  2  0  0  0  0  0  0
  189.2740  176.7500  147.0620 C   0  0  0  0  0  2  0  0  0  0  0  0
  185.1760  179.0900  139.0850 C   0  0  0  0  0  2  0  0  0  0  0  0
  185.8880  177.8710  138.5180 C   0  0  0  0  0  2  0  0  0  0  0  0
  186.5330  178.1730  137.1690 C   0  0  2  0  0  3  0  0  0  0  0  0
  185.9460  177.3310  136.0570 C   0  0  0  0  0  2  0  0  0  0  0  0
  188.7570  179.2120  137.5820 C   0  0  0  0  0  1  0  0  0  0  0  0
  188.0460  177.9640  137.0900 C   0  0  2  0  0  0  0  0  0  0  0  0
  187.0120  177.2790  134.9810 C   0  0  0  0  0  2  0  0  0  0  0  0
  188.2980  177.8070  135.5990 C   0  0  0  0  0  2  0  0  0  0  0  0
  188.5210  176.7010  137.8520 C   0  0  2  0  0  3  0  0  0  0  0  0
  188.8870  176.9940  139.1710 O   0  0  0  0  0  1  0  0  0  0  0  0
  190.9960  176.0940  137.7640 C   0  0  0  0  0  1  0  0  0  0  0  0
  189.6200  175.9010  137.1400 C   0  0  1  0  0  3  0  0  0  0  0  0
  189.2530  174.4540  137.0610 C   0  0  0  0  0  0  0  0  0  0  0  0
  188.1110  174.0970  136.6750 O   0  0  0  0  0  0  0  0  0  0  0  0
  190.2190  173.4930  137.3230 O   0  0  0  0  0  1  0  0  0  0  0  0
  1 28  1  6  0  0  0
  1  7  1  0  0  0  0
  2  8  1  0  0  0  0
  2  4  1  0  0  0  0
  3  2  1  0  0  0  0
  3  5  1  0  0  0  0
  4  7  1  0  0  0  0
  5  8  1  0  0  0  0
  6  3  1  0  0  0  0
  6  1  1  0  0  0  0
  7 11  1  0  0  0  0
  8  4  1  0  0  0  0
  9 16  1  0  0  0  0
 10 17  1  0  0  0  0
 10  9  2  0  0  0  0
 11 13  2  0  0  0  0
 11 12  1  0  0  0  0
 12 14  2  0  0  0  0
 13 10  1  0  0  0  0
 14  9  1  0  0  0  0
 16 15  1  0  0  0  0
 17 23  1  0  0  0  0
 18 21  2  0  0  0  0
 19 22  1  0  0  0  0
 19 20  1  0  0  0  0
 20 27  1  0  0  0  0
 21 23  1  0  0  0  0
 21 19  1  0  0  0  0
 22 26  1  0  0  0  0
 23 22  1  0  0  0  0
 24 21  2  0  0  0  0
 25 19  1  0  0  0  0
 26 27  1  0  0  0  0
 29 28  1  0  0  0  0
 30 29  1  0  0  0  0
 31 30  1  0  0  0  0
 33 30  1  0  0  0  0
 33 32  1  0  0  0  0
 33 36  1  0  0  0  0
 34 35  1  0  0  0  0
 34 31  1  0  0  0  0
 35 33  1  0  0  0  0
 36 37  1  0  0  0  0
 39 38  1  0  0  0  0
 39 36  1  0  0  0  0
 40 39  1  0  0  0  0
 40 42  1  0  0  0  0
 41 40  2  0  0  0  0
M  END
>  <MODEL>
3

>  <REMARK>
 VINA RESULT:      -7.6      2.288      6.579
  Name = 
  10 active torsions:
  status: ('A' for Active; 'I' for Inactive)
    1  A    between atoms: C_1  and  C_6
    2  A    between atoms: C_2  and  O_12
    3  A    between atoms: C_4  and  C_42
    4  A    between atoms: C_5  and  C_21
    5  A    between atoms: C_6  and  C_21
    6  A    between atoms: C_10  and  C_37
    7  A    between atoms: C_13  and  C_36
    8  A    between atoms: C_19  and  C_20
    9  A    between atoms: C_19  and  C_37
   10  A    between atoms: N_22  and  C_42
                            x       y       z     vdW  Elec       q    Type
                         _______ _______ _______ _____ _____    ______ ____

>  <TORSDO>
F 10

$$$$
=
 OpenBabel11062413153D

 42 48  0  0  1  0  0  0  0  0999 V2000
  185.0630  178.5610  143.8050 C   0  0  1  0  0  3  0  0  0  0  0  0
  184.9700  177.8300  146.6350 C   0  0  1  0  0  3  0  0  0  0  0  0
  184.3340  179.0460  145.9860 C   0  0  1  0  0  3  0  0  0  0  0  0
  186.1520  177.3010  145.8460 C   0  0  1  0  0  3  0  0  0  0  0  0
  185.6420  179.8160  146.1170 C   0  0  0  0  0  2  0  0  0  0  0  0
  183.9430  178.7490  144.6510 O   0  0  0  0  0  0  0  0  0  0  0  0
  185.9920  177.4400  144.3100 C   0  0  2  0  0  3  0  0  0  0  0  0
  186.3060  178.5720  146.6910 C   0  0  1  0  0  3  0  0  0  0  0  0
  189.8030  177.6080  142.3040 C   0  0  0  0  0  0  0  0  0  0  0  0
  188.6200  177.8860  141.6030 C   0  0  0  0  0  0  0  0  0  0  0  0
  187.3260  177.4790  143.6250 C   0  0  0  0  0  0  0  0  0  0  0  0
  188.5060  177.2120  144.3200 C   0  0  0  0  0  3  0  0  0  0  0  0
  187.3900  177.8340  142.2770 C   0  0  0  0  0  3  0  0  0  0  0  0
  189.7360  177.2720  143.6630 C   0  0  0  0  0  3  0  0  0  0  0  0
  192.1930  177.2310  142.2480 N   0  0  0  0  0  1  0  0  0  0  0  0
  191.0360  177.6710  141.6470 O   0  0  0  0  0  0  0  0  0  0  0  0
  188.6900  178.3600  140.1810 C   0  0  0  0  0  2  0  0  0  0  0  0
  186.9900  176.1890  137.6050 O   0  0  0  0  0  0  0  0  0  0  0  0
  189.1830  177.7780  137.0880 C   0  0  1  0  0  0  0  0  0  0  0  0
  189.5710  176.7170  136.0840 C   0  0  0  0  0  2  0  0  0  0  0  0
  187.7010  177.4610  137.9630 S   0  0  0  0  0  0  0  0  0  0  0  0
  189.9810  177.5650  138.3690 C   0  0  1  0  0  3  0  0  0  0  0  0
  188.8400  177.2470  139.2510 N   0  0  0  0  0  0  0  0  0  0  0  0
  186.7890  178.6450  138.1280 O   0  0  0  0  0  0  0  0  0  0  0  0
  189.2700  179.0830  136.6050 O   0  0  0  0  0  1  0  0  0  0  0  0
  190.8150  176.3170  138.1370 C   0  0  0  0  0  2  0  0  0  0  0  0
  190.8290  176.0730  136.6390 C   0  0  0  0  0  2  0  0  0  0  0  0
  184.5970  178.2450  142.3890 C   0  0  0  0  0  2  0  0  0  0  0  0
  183.1400  178.6320  142.1840 C   0  0  0  0  0  2  0  0  0  0  0  0
  182.4870  177.8020  141.0830 C   0  0  2  0  0  3  0  0  0  0  0  0
  183.3660  177.6900  139.8570 C   0  0  0  0  0  2  0  0  0  0  0  0
  180.0270  177.7850  141.4740 C   0  0  0  0  0  1  0  0  0  0  0  0
  181.1350  178.3100  140.5780 C   0  0  2  0  0  0  0  0  0  0  0  0
  182.4230  177.4010  138.7070 C   0  0  0  0  0  2  0  0  0  0  0  0
  181.0110  177.6610  139.2080 C   0  0  0  0  0  2  0  0  0  0  0  0
  181.0810  179.8520  140.4490 C   0  0  2  0  0  3  0  0  0  0  0  0
  180.2160  180.4250  141.3890 O   0  0  0  0  0  1  0  0  0  0  0  0
  179.3900  180.9910  138.9160 C   0  0  0  0  0  1  0  0  0  0  0  0
  180.7740  180.3650  139.0350 C   0  0  1  0  0  3  0  0  0  0  0  0
  181.8410  181.3050  138.5700 C   0  0  0  0  0  0  0  0  0  0  0  0
  181.5460  182.4110  138.0510 O   0  0  0  0  0  0  0  0  0  0  0  0
  183.1710  180.9920  138.8070 O   0  0  0  0  0  1  0  0  0  0  0  0
  1 28  1  6  0  0  0
  1  7  1  0  0  0  0
  1  6  1  0  0  0  0
  2  8  1  0  0  0  0
  3  5  1  0  0  0  0
  3  2  1  0  0  0  0
  4  2  1  0  0  0  0
  4  8  1  0  0  0  0
  5  8  1  0  0  0  0
  6  3  1  0  0  0  0
  7  4  1  0  0  0  0
  9 14  1  0  0  0  0
 10 13  1  0  0  0  0
 10  9  2  0  0  0  0
 11  7  1  0  0  0  0
 11 12  1  0  0  0  0
 13 11  2  0  0  0  0
 14 12  2  0  0  0  0
 16 15  1  0  0  0  0
 16  9  1  0  0  0  0
 17 10  1  0  0  0  0
 18 21  2  0  0  0  0
 19 21  1  0  0  0  0
 19 22  1  0  0  0  0
 20 27  1  0  0  0  0
 20 19  1  0  0  0  0
 21 24  2  0  0  0  0
 21 23  1  0  0  0  0
 22 23  1  0  0  0  0
 23 17  1  0  0  0  0
 25 19  1  0  0  0  0
 26 22  1  0  0  0  0
 27 26  1  0  0  0  0
 29 28  1  0  0  0  0
 30 29  1  0  0  0  0
 31 30  1  0  0  0  0
 33 30  1  0  0  0  0
 33 32  1  0  0  0  0
 34 35  1  0  0  0  0
 34 31  1  0  0  0  0
 35 33  1  0  0  0  0
 36 33  1  0  0  0  0
 36 37  1  0  0  0  0
 38 39  1  0  0  0  0
 39 36  1  0  0  0  0
 40 42  1  0  0  0  0
 40 39  1  0  0  0  0
 41 40  2  0  0  0  0
M  END
>  <MODEL>
4

>  <REMARK>
 VINA RESULT:      -7.4      2.789      7.248
  Name = 
  10 active torsions:
  status: ('A' for Active; 'I' for Inactive)
    1  A    between atoms: C_1  and  C_6
    2  A    between atoms: C_2  and  O_12
    3  A    between atoms: C_4  and  C_42
    4  A    between atoms: C_5  and  C_21
    5  A    between atoms: C_6  and  C_21
    6  A    between atoms: C_10  and  C_37
    7  A    between atoms: C_13  and  C_36
    8  A    between atoms: C_19  and  C_20
    9  A    between atoms: C_19  and  C_37
   10  A    between atoms: N_22  and  C_42
                            x       y       z     vdW  Elec       q    Type
                         _______ _______ _______ _____ _____    ______ ____

>  <TORSDO>
F 10

$$$$
=
 OpenBabel11062413153D

 42 48  0  0  1  0  0  0  0  0999 V2000
  185.3220  178.8790  143.9990 C   0  0  1  0  0  3  0  0  0  0  0  0
  185.0910  177.6770  146.6540 C   0  0  1  0  0  3  0  0  0  0  0  0
  184.6490  179.0700  146.2420 C   0  0  1  0  0  3  0  0  0  0  0  0
  186.1890  177.1280  145.7640 C   0  0  1  0  0  3  0  0  0  0  0  0
  186.0560  179.6020  146.4880 C   0  0  0  0  0  2  0  0  0  0  0  0
  184.2330  179.0770  144.8820 O   0  0  0  0  0  0  0  0  0  0  0  0
  186.0680  177.5610  144.2810 C   0  0  2  0  0  3  0  0  0  0  0  0
  186.5210  178.1900  146.8200 C   0  0  1  0  0  3  0  0  0  0  0  0
  189.8770  177.5130  142.2640 C   0  0  0  0  0  0  0  0  0  0  0  0
  188.7080  177.8490  141.5640 C   0  0  0  0  0  0  0  0  0  0  0  0
  187.4000  177.5250  143.5920 C   0  0  0  0  0  0  0  0  0  0  0  0
  188.5660  177.2000  144.2860 C   0  0  0  0  0  3  0  0  0  0  0  0
  187.4790  177.8670  142.2410 C   0  0  0  0  0  3  0  0  0  0  0  0
  189.7960  177.1900  143.6240 C   0  0  0  0  0  3  0  0  0  0  0  0
  192.2930  177.3580  142.2910 N   0  0  0  0  0  1  0  0  0  0  0  0
  191.1100  177.5060  141.6030 O   0  0  0  0  0  0  0  0  0  0  0  0
  188.7990  178.3100  140.1380 C   0  0  0  0  0  2  0  0  0  0  0  0
  187.0210  176.1630  137.5950 O   0  0  0  0  0  0  0  0  0  0  0  0
  189.2520  177.6880  137.0460 C   0  0  1  0  0  0  0  0  0  0  0  0
  189.6040  176.6080  136.0490 C   0  0  0  0  0  2  0  0  0  0  0  0
  187.7690  177.4180  137.9360 S   0  0  0  0  0  0  0  0  0  0  0  0
  190.0540  177.4640  138.3240 C   0  0  1  0  0  3  0  0  0  0  0  0
  188.9120  177.1850  139.2170 N   0  0  0  0  0  0  0  0  0  0  0  0
  186.8900  178.6280  138.0970 O   0  0  0  0  0  0  0  0  0  0  0  0
  189.3710  178.9850  136.5520 O   0  0  0  0  0  1  0  0  0  0  0  0
  190.8530  176.1920  138.0960 C   0  0  0  0  0  2  0  0  0  0  0  0
  190.8490  175.9350  136.6010 C   0  0  0  0  0  2  0  0  0  0  0  0
  184.8290  178.8950  142.5570 C   0  0  0  0  0  2  0  0  0  0  0  0
  183.5250  178.1240  142.4070 C   0  0  0  0  0  2  0  0  0  0  0  0
  182.4060  179.0100  141.8670 C   0  0  2  0  0  3  0  0  0  0  0  0
  181.1840  178.9880  142.7580 C   0  0  0  0  0  2  0  0  0  0  0  0
  182.7820  179.3430  139.4290 C   0  0  0  0  0  1  0  0  0  0  0  0
  181.9020  178.6680  140.4650 C   0  0  2  0  0  0  0  0  0  0  0  0
  180.0230  179.3740  141.8640 C   0  0  0  0  0  2  0  0  0  0  0  0
  180.5200  179.3030  140.4290 C   0  0  0  0  0  2  0  0  0  0  0  0
  181.7980  177.1420  140.2170 C   0  0  2  0  0  3  0  0  0  0  0  0
  182.9290  176.6430  139.5580 O   0  0  0  0  0  1  0  0  0  0  0  0
  180.7280  176.3120  138.0560 C   0  0  0  0  0  1  0  0  0  0  0  0
  180.5090  176.6950  139.5140 C   0  0  1  0  0  3  0  0  0  0  0  0
  179.8480  175.5910  140.2760 C   0  0  0  0  0  0  0  0  0  0  0  0
  179.2180  175.8260  141.3380 O   0  0  0  0  0  1  0  0  0  0  0  0
  179.8480  174.3080  139.7500 O   0  0  0  0  0  0  0  0  0  0  0  0
  1 28  1  6  0  0  0
  1  7  1  0  0  0  0
  1  6  1  0  0  0  0
  2  8  1  0  0  0  0
  3  5  1  0  0  0  0
  3  2  1  0  0  0  0
  4  2  1  0  0  0  0
  4  8  1  0  0  0  0
  5  8  1  0  0  0  0
  6  3  1  0  0  0  0
  7  4  1  0  0  0  0
  9 14  1  0  0  0  0
 10 13  1  0  0  0  0
 10  9  2  0  0  0  0
 11  7  1  0  0  0  0
 11 12  1  0  0  0  0
 13 11  2  0  0  0  0
 14 12  2  0  0  0  0
 16  9  1  0  0  0  0
 16 15  1  0  0  0  0
 17 10  1  0  0  0  0
 18 21  2  0  0  0  0
 19 21  1  0  0  0  0
 19 22  1  0  0  0  0
 20 27  1  0  0  0  0
 20 19  1  0  0  0  0
 21 24  2  0  0  0  0
 21 23  1  0  0  0  0
 22 23  1  0  0  0  0
 23 17  1  0  0  0  0
 25 19  1  0  0  0  0
 26 22  1  0  0  0  0
 27 26  1  0  0  0  0
 29 28  1  0  0  0  0
 30 29  1  0  0  0  0
 30 31  1  0  0  0  0
 32 33  1  0  0  0  0
 33 30  1  0  0  0  0
 34 31  1  0  0  0  0
 35 33  1  0  0  0  0
 35 34  1  0  0  0  0
 36 33  1  0  0  0  0
 37 36  1  0  0  0  0
 38 39  1  0  0  0  0
 39 36  1  0  0  0  0
 39 40  1  0  0  0  0
 40 41  1  0  0  0  0
 42 40  2  0  0  0  0
M  END
>  <MODEL>
5

>  <REMARK>
 VINA RESULT:      -7.2      2.885      6.931
  Name = 
  10 active torsions:
  status: ('A' for Active; 'I' for Inactive)
    1  A    between atoms: C_1  and  C_6
    2  A    between atoms: C_2  and  O_12
    3  A    between atoms: C_4  and  C_42
    4  A    between atoms: C_5  and  C_21
    5  A    between atoms: C_6  and  C_21
    6  A    between atoms: C_10  and  C_37
    7  A    between atoms: C_13  and  C_36
    8  A    between atoms: C_19  and  C_20
    9  A    between atoms: C_19  and  C_37
   10  A    between atoms: N_22  and  C_42
                            x       y       z     vdW  Elec       q    Type
                         _______ _______ _______ _____ _____    ______ ____

>  <TORSDO>
F 10

$$$$
=
 OpenBabel11062413153D

 42 48  0  0  1  0  0  0  0  0999 V2000
  185.5080  178.9000  144.0240 C   0  0  1  0  0  3  0  0  0  0  0  0
  185.2390  177.5490  146.6040 C   0  0  1  0  0  3  0  0  0  0  0  0
  184.7090  178.9240  146.2350 C   0  0  1  0  0  3  0  0  0  0  0  0
  186.4200  177.1320  145.7510 C   0  0  1  0  0  3  0  0  0  0  0  0
  186.0560  179.5490  146.5810 C   0  0  0  0  0  2  0  0  0  0  0  0
  184.3630  178.9690  144.8560 O   0  0  0  0  0  0  0  0  0  0  0  0
  186.3400  177.6300  144.2850 C   0  0  2  0  0  3  0  0  0  0  0  0
  186.6140  178.1620  146.8710 C   0  0  1  0  0  3  0  0  0  0  0  0
  190.2300  177.9410  142.4540 C   0  0  0  0  0  0  0  0  0  0  0  0
  189.1220  177.5310  141.6990 C   0  0  0  0  0  0  0  0  0  0  0  0
  187.7040  177.7290  143.6680 C   0  0  0  0  0  0  0  0  0  0  0  0
  188.8080  178.1460  144.4140 C   0  0  0  0  0  3  0  0  0  0  0  0
  187.8620  177.4440  142.3120 C   0  0  0  0  0  3  0  0  0  0  0  0
  190.0640  178.2470  143.8110 C   0  0  0  0  0  3  0  0  0  0  0  0
  192.4200  177.0380  141.9550 N   0  0  0  0  0  1  0  0  0  0  0  0
  191.4880  178.0460  141.8520 O   0  0  0  0  0  0  0  0  0  0  0  0
  189.2660  177.3150  140.2200 C   0  0  0  0  0  2  0  0  0  0  0  0
  189.0570  179.7530  137.3480 O   0  0  0  0  0  0  0  0  0  0  0  0
  187.5910  177.4240  137.5130 C   0  0  1  0  0  0  0  0  0  0  0  0
  186.5200  178.1800  136.7600 C   0  0  0  0  0  2  0  0  0  0  0  0
  189.0420  178.3400  137.8530 S   0  0  0  0  0  0  0  0  0  0  0  0
  187.2470  177.4240  138.9990 C   0  0  1  0  0  3  0  0  0  0  0  0
  188.4060  178.2130  139.4590 N   0  0  0  0  0  0  0  0  0  0  0  0
  190.3330  177.6000  137.6330 O   0  0  0  0  0  0  0  0  0  0  0  0
  187.8470  176.1470  137.0160 O   0  0  0  0  0  1  0  0  0  0  0  0
  185.9770  178.2470  139.1320 C   0  0  0  0  0  2  0  0  0  0  0  0
  185.3740  178.3490  137.7430 C   0  0  0  0  0  2  0  0  0  0  0  0
  185.0890  178.9500  142.5600 C   0  0  0  0  0  2  0  0  0  0  0  0
  183.8190  178.1470  142.3170 C   0  0  0  0  0  2  0  0  0  0  0  0
  182.6380  179.0510  141.9770 C   0  0  2  0  0  3  0  0  0  0  0  0
  181.5580  178.9990  143.0350 C   0  0  0  0  0  2  0  0  0  0  0  0
  182.6560  179.4670  139.5220 C   0  0  0  0  0  1  0  0  0  0  0  0
  181.9330  178.7570  140.6520 C   0  0  2  0  0  0  0  0  0  0  0  0
  180.2820  179.4150  142.3330 C   0  0  0  0  0  2  0  0  0  0  0  0
  180.5640  179.3920  140.8390 C   0  0  0  0  0  2  0  0  0  0  0  0
  181.7880  177.2400  140.3700 C   0  0  2  0  0  3  0  0  0  0  0  0
  182.9000  176.7260  139.6920 O   0  0  0  0  0  1  0  0  0  0  0  0
  180.6920  176.4170  138.2190 C   0  0  0  0  0  1  0  0  0  0  0  0
  180.4820  176.8430  139.6660 C   0  0  1  0  0  3  0  0  0  0  0  0
  179.7600  175.7920  140.4470 C   0  0  0  0  0  0  0  0  0  0  0  0
  179.6460  174.6210  140.0030 O   0  0  0  0  0  0  0  0  0  0  0  0
  179.2990  176.0890  141.7210 O   0  0  0  0  0  1  0  0  0  0  0  0
  1 28  1  6  0  0  0
  1  7  1  0  0  0  0
  1  6  1  0  0  0  0
  2  8  1  0  0  0  0
  3  5  1  0  0  0  0
  3  2  1  0  0  0  0
  4  2  1  0  0  0  0
  4  8  1  0  0  0  0
  5  8  1  0  0  0  0
  6  3  1  0  0  0  0
  7  4  1  0  0  0  0
  9 14  1  0  0  0  0
 10 13  1  0  0  0  0
 10  9  2  0  0  0  0
 11  7  1  0  0  0  0
 11 12  1  0  0  0  0
 13 11  2  0  0  0  0
 14 12  2  0  0  0  0
 16 15  1  0  0  0  0
 16  9  1  0  0  0  0
 17 10  1  0  0  0  0
 18 21  2  0  0  0  0
 19 21  1  0  0  0  0
 19 22  1  0  0  0  0
 20 19  1  0  0  0  0
 20 27  1  0  0  0  0
 21 23  1  0  0  0  0
 22 26  1  0  0  0  0
 22 23  1  0  0  0  0
 23 17  1  0  0  0  0
 24 21  2  0  0  0  0
 25 19  1  0  0  0  0
 27 26  1  0  0  0  0
 29 28  1  0  0  0  0
 30 29  1  0  0  0  0
 30 31  1  0  0  0  0
 32 33  1  0  0  0  0
 33 35  1  0  0  0  0
 33 30  1  0  0  0  0
 34 31  1  0  0  0  0
 35 34  1  0  0  0  0
 36 33  1  0  0  0  0
 37 36  1  0  0  0  0
 38 39  1  0  0  0  0
 39 36  1  0  0  0  0
 39 40  1  0  0  0  0
 40 42  1  0  0  0  0
 41 40  2  0  0  0  0
M  END
>  <MODEL>
6

>  <REMARK>
 VINA RESULT:      -7.1      2.962      6.893
  Name = 
  10 active torsions:
  status: ('A' for Active; 'I' for Inactive)
    1  A    between atoms: C_1  and  C_6
    2  A    between atoms: C_2  and  O_12
    3  A    between atoms: C_4  and  C_42
    4  A    between atoms: C_5  and  C_21
    5  A    between atoms: C_6  and  C_21
    6  A    between atoms: C_10  and  C_37
    7  A    between atoms: C_13  and  C_36
    8  A    between atoms: C_19  and  C_20
    9  A    between atoms: C_19  and  C_37
   10  A    between atoms: N_22  and  C_42
                            x       y       z     vdW  Elec       q    Type
                         _______ _______ _______ _____ _____    ______ ____

>  <TORSDO>
F 10

$$$$
=
 OpenBabel11062413153D

 42 48  0  0  1  0  0  0  0  0999 V2000
  189.8140  177.0280  139.6150 C   0  0  1  0  0  3  0  0  0  0  0  0
  188.7200  178.9240  137.6760 C   0  0  1  0  0  3  0  0  0  0  0  0
  188.0450  178.4200  138.9400 C   0  0  1  0  0  3  0  0  0  0  0  0
  189.7680  177.9620  137.1530 C   0  0  1  0  0  3  0  0  0  0  0  0
  187.5330  177.1950  138.1920 C   0  0  0  0  0  2  0  0  0  0  0  0
  189.0130  178.1480  139.9450 O   0  0  0  0  0  0  0  0  0  0  0  0
  190.5380  177.2080  138.2670 C   0  0  2  0  0  3  0  0  0  0  0  0
  188.2790  177.6560  136.9460 C   0  0  1  0  0  3  0  0  0  0  0  0
  192.1740  173.4720  136.8730 C   0  0  0  0  0  0  0  0  0  0  0  0
  192.9990  174.4170  137.5000 C   0  0  0  0  0  0  0  0  0  0  0  0
  191.0930  175.9090  137.7620 C   0  0  0  0  0  0  0  0  0  0  0  0
  190.2740  174.9620  137.1450 C   0  0  0  0  0  3  0  0  0  0  0  0
  192.4450  175.6240  137.9540 C   0  0  0  0  0  3  0  0  0  0  0  0
  190.8120  173.7530  136.7000 C   0  0  0  0  0  3  0  0  0  0  0  0
  192.5490  171.8350  135.1300 N   0  0  0  0  0  1  0  0  0  0  0  0
  192.7110  172.2590  136.4290 O   0  0  0  0  0  0  0  0  0  0  0  0
  194.4320  174.0780  137.7940 C   0  0  0  0  0  2  0  0  0  0  0  0
  197.9010  175.5280  138.1050 O   0  0  0  0  0  0  0  0  0  0  0  0
  196.7800  174.6880  135.7300 C   0  0  1  0  0  0  0  0  0  0  0  0
  197.5970  175.7860  135.0880 C   0  0  0  0  0  2  0  0  0  0  0  0
  196.9550  174.5540  137.4660 S   0  0  0  0  0  0  0  0  0  0  0  0
  195.3480  175.1800  135.9170 C   0  0  1  0  0  3  0  0  0  0  0  0
  195.3310  175.1520  137.3930 N   0  0  0  0  0  0  0  0  0  0  0  0
  197.0790  173.1490  137.9900 O   0  0  0  0  0  0  0  0  0  0  0  0
  196.8500  173.4620  135.0710 O   0  0  0  0  0  1  0  0  0  0  0  0
  195.3360  176.6180  135.4290 C   0  0  0  0  0  2  0  0  0  0  0  0
  196.5880  176.8080  134.5940 C   0  0  0  0  0  2  0  0  0  0  0  0
  190.8350  176.7760  140.7180 C   0  0  0  0  0  2  0  0  0  0  0  0
  190.1610  176.3230  142.0050 C   0  0  0  0  0  2  0  0  0  0  0  0
  190.9400  176.7740  143.2370 C   0  0  2  0  0  3  0  0  0  0  0  0
  191.5980  175.6140  143.9510 C   0  0  0  0  0  2  0  0  0  0  0  0
  190.0500  178.9860  143.9560 C   0  0  0  0  0  1  0  0  0  0  0  0
  190.1300  177.5110  144.3060 C   0  0  2  0  0  0  0  0  0  0  0  0
  191.7950  176.0760  145.3810 C   0  0  0  0  0  2  0  0  0  0  0  0
  190.9770  177.3460  145.5580 C   0  0  0  0  0  2  0  0  0  0  0  0
  188.7240  176.9010  144.5240 C   0  0  2  0  0  3  0  0  0  0  0  0
  188.3000  176.1570  143.4160 O   0  0  0  0  0  1  0  0  0  0  0  0
  186.4070  177.8670  144.0720 C   0  0  0  0  0  1  0  0  0  0  0  0
  187.6490  177.9090  144.9530 C   0  0  1  0  0  3  0  0  0  0  0  0
  187.3020  177.7290  146.3960 C   0  0  0  0  0  0  0  0  0  0  0  0
  186.2490  178.2230  146.8750 O   0  0  0  0  0  0  0  0  0  0  0  0
  188.1020  176.9230  147.1920 O   0  0  0  0  0  1  0  0  0  0  0  0
  1  6  1  0  0  0  0
  1 28  1  1  0  0  0
  2  3  1  0  0  0  0
  3  6  1  0  0  0  0
  4  2  1  0  0  0  0
  4  7  1  0  0  0  0
  5  3  1  0  0  0  0
  7  1  1  0  0  0  0
  8  4  1  0  0  0  0
  8  2  1  0  0  0  0
  8  5  1  0  0  0  0
  9 10  1  0  0  0  0
 10 17  1  0  0  0  0
 10 13  2  0  0  0  0
 11 13  1  0  0  0  0
 11  7  1  0  0  0  0
 12 11  2  0  0  0  0
 14  9  2  0  0  0  0
 14 12  1  0  0  0  0
 15 16  1  0  0  0  0
 16  9  1  0  0  0  0
 19 22  1  0  0  0  0
 19 21  1  0  0  0  0
 20 19  1  0  0  0  0
 21 24  2  0  0  0  0
 21 18  2  0  0  0  0
 22 23  1  0  0  0  0
 23 21  1  0  0  0  0
 23 17  1  0  0  0  0
 25 19  1  0  0  0  0
 26 22  1  0  0  0  0
 27 20  1  0  0  0  0
 27 26  1  0  0  0  0
 28 29  1  0  0  0  0
 29 30  1  0  0  0  0
 30 31  1  0  0  0  0
 30 33  1  0  0  0  0
 31 34  1  0  0  0  0
 32 33  1  0  0  0  0
 33 36  1  0  0  0  0
 33 35  1  0  0  0  0
 34 35  1  0  0  0  0
 36 39  1  0  0  0  0
 37 36  1  0  0  0  0
 38 39  1  0  0  0  0
 39 40  1  0  0  0  0
 40 41  2  0  0  0  0
 40 42  1  0  0  0  0
M  END
>  <MODEL>
7

>  <REMARK>
 VINA RESULT:      -7.1      4.761     10.047
  Name = 
  10 active torsions:
  status: ('A' for Active; 'I' for Inactive)
    1  A    between atoms: C_1  and  C_6
    2  A    between atoms: C_2  and  O_12
    3  A    between atoms: C_4  and  C_42
    4  A    between atoms: C_5  and  C_21
    5  A    between atoms: C_6  and  C_21
    6  A    between atoms: C_10  and  C_37
    7  A    between atoms: C_13  and  C_36
    8  A    between atoms: C_19  and  C_20
    9  A    between atoms: C_19  and  C_37
   10  A    between atoms: N_22  and  C_42
                            x       y       z     vdW  Elec       q    Type
                         _______ _______ _______ _____ _____    ______ ____

>  <TORSDO>
F 10

$$$$
=
 OpenBabel11062413153D

 42 48  0  0  1  0  0  0  0  0999 V2000
  186.0990  177.8940  143.5970 C   0  0  1  0  0  3  0  0  0  0  0  0
  184.7790  180.0370  145.0860 C   0  0  1  0  0  3  0  0  0  0  0  0
  185.2430  178.6990  145.6330 C   0  0  1  0  0  3  0  0  0  0  0  0
  184.5100  179.9950  143.5940 C   0  0  1  0  0  3  0  0  0  0  0  0
  183.9350  178.0520  145.1940 C   0  0  0  0  0  2  0  0  0  0  0  0
  186.3980  178.2510  144.9340 O   0  0  0  0  0  0  0  0  0  0  0  0
  185.4670  179.0600  142.8120 C   0  0  2  0  0  3  0  0  0  0  0  0
  183.5020  179.3730  144.5700 C   0  0  1  0  0  3  0  0  0  0  0  0
  183.7330  177.6790  139.1150 C   0  0  0  0  0  0  0  0  0  0  0  0
  185.0050  178.2710  139.1240 C   0  0  0  0  0  0  0  0  0  0  0  0
  184.8410  178.5870  141.5330 C   0  0  0  0  0  0  0  0  0  0  0  0
  183.5800  177.9900  141.5200 C   0  0  0  0  0  3  0  0  0  0  0  0
  185.5550  178.7060  140.3400 C   0  0  0  0  0  3  0  0  0  0  0  0
  183.0280  177.5420  140.3180 C   0  0  0  0  0  3  0  0  0  0  0  0
  182.3040  176.1670  137.8770 N   0  0  0  0  0  1  0  0  0  0  0  0
  183.1800  177.2280  137.9120 O   0  0  0  0  0  0  0  0  0  0  0  0
  185.8160  178.3150  137.8610 C   0  0  0  0  0  2  0  0  0  0  0  0
  187.0940  174.8240  137.2180 O   0  0  0  0  0  0  0  0  0  0  0  0
  188.1010  177.0890  136.0110 C   0  0  1  0  0  0  0  0  0  0  0  0
  189.4260  176.3620  136.0140 C   0  0  0  0  0  2  0  0  0  0  0  0
  186.7680  176.1990  136.7130 S   0  0  0  0  0  0  0  0  0  0  0  0
  188.0650  178.0610  137.1860 C   0  0  1  0  0  3  0  0  0  0  0  0
  186.9630  177.4180  137.9280 N   0  0  0  0  0  0  0  0  0  0  0  0
  185.4730  176.2790  135.9520 O   0  0  0  0  0  0  0  0  0  0  0  0
  187.7820  177.6940  134.7970 O   0  0  0  0  0  1  0  0  0  0  0  0
  189.3740  177.8610  137.9310 C   0  0  0  0  0  2  0  0  0  0  0  0
  190.3080  177.1280  136.9860 C   0  0  0  0  0  2  0  0  0  0  0  0
  187.3630  177.4220  142.8900 C   0  0  0  0  0  2  0  0  0  0  0  0
  188.6140  177.8670  143.6330 C   0  0  0  0  0  2  0  0  0  0  0  0
  189.7980  178.0430  142.6870 C   0  0  2  0  0  3  0  0  0  0  0  0
  189.7040  177.1320  141.4830 C   0  0  0  0  0  2  0  0  0  0  0  0
  191.6810  179.0480  143.9700 C   0  0  0  0  0  1  0  0  0  0  0  0
  191.1800  177.7860  143.2920 C   0  0  2  0  0  0  0  0  0  0  0  0
  191.1270  176.9640  140.9880 C   0  0  0  0  0  2  0  0  0  0  0  0
  192.0450  177.5030  142.0730 C   0  0  0  0  0  2  0  0  0  0  0  0
  191.1990  176.5750  144.2570 C   0  0  2  0  0  3  0  0  0  0  0  0
  190.1980  175.6460  143.9500 O   0  0  0  0  0  1  0  0  0  0  0  0
  189.7560  177.0310  146.3100 C   0  0  0  0  0  1  0  0  0  0  0  0
  191.1690  176.9440  145.7470 C   0  0  1  0  0  3  0  0  0  0  0  0
  192.0180  176.0040  146.5420 C   0  0  0  0  0  0  0  0  0  0  0  0
  192.4320  174.9270  146.0420 O   0  0  0  0  0  0  0  0  0  0  0  0
  192.4340  176.3740  147.8120 O   0  0  0  0  0  1  0  0  0  0  0  0
  1 28  1  6  0  0  0
  1  6  1  0  0  0  0
  2  3  1  0  0  0  0
  4  8  1  0  0  0  0
  4  2  1  0  0  0  0
  5  3  1  0  0  0  0
  6  3  1  0  0  0  0
  7  4  1  0  0  0  0
  7  1  1  0  0  0  0
  8  2  1  0  0  0  0
  8  5  1  0  0  0  0
  9 10  2  0  0  0  0
  9 14  1  0  0  0  0
 10 13  1  0  0  0  0
 11  7  1  0  0  0  0
 12 11  1  0  0  0  0
 13 11  2  0  0  0  0
 14 12  2  0  0  0  0
 15 16  1  0  0  0  0
 16  9  1  0  0  0  0
 17 23  1  0  0  0  0
 17 10  1  0  0  0  0
 19 20  1  0  0  0  0
 19 21  1  0  0  0  0
 19 22  1  0  0  0  0
 20 27  1  0  0  0  0
 21 18  2  0  0  0  0
 21 23  1  0  0  0  0
 22 23  1  0  0  0  0
 22 26  1  0  0  0  0
 24 21  2  0  0  0  0
 25 19  1  0  0  0  0
 27 26  1  0  0  0  0
 28 29  1  0  0  0  0
 30 33  1  0  0  0  0
 30 29  1  0  0  0  0
 31 30  1  0  0  0  0
 33 32  1  0  0  0  0
 33 36  1  0  0  0  0
 34 31  1  0  0  0  0
 34 35  1  0  0  0  0
 35 33  1  0  0  0  0
 36 39  1  0  0  0  0
 37 36  1  0  0  0  0
 39 38  1  0  0  0  0
 39 40  1  0  0  0  0
 40 42  1  0  0  0  0
 41 40  2  0  0  0  0
M  END
>  <MODEL>
8

>  <REMARK>
 VINA RESULT:      -7.1      2.226      6.562
  Name = 
  10 active torsions:
  status: ('A' for Active; 'I' for Inactive)
    1  A    between atoms: C_1  and  C_6
    2  A    between atoms: C_2  and  O_12
    3  A    between atoms: C_4  and  C_42
    4  A    between atoms: C_5  and  C_21
    5  A    between atoms: C_6  and  C_21
    6  A    between atoms: C_10  and  C_37
    7  A    between atoms: C_13  and  C_36
    8  A    between atoms: C_19  and  C_20
    9  A    between atoms: C_19  and  C_37
   10  A    between atoms: N_22  and  C_42
                            x       y       z     vdW  Elec       q    Type
                         _______ _______ _______ _____ _____    ______ ____

>  <TORSDO>
F 10

$$$$
=
 OpenBabel11062413153D

 42 48  0  0  1  0  0  0  0  0999 V2000
  184.9340  177.3090  137.4870 C   0  0  1  0  0  3  0  0  0  0  0  0
  184.5780  177.0750  134.5940 C   0  0  1  0  0  3  0  0  0  0  0  0
  183.6210  176.5970  135.6720 C   0  0  1  0  0  3  0  0  0  0  0  0
  186.0080  177.1710  135.0860 C   0  0  1  0  0  3  0  0  0  0  0  0
  184.3910  175.2870  135.7910 C   0  0  0  0  0  2  0  0  0  0  0  0
  183.6960  177.4430  136.8130 O   0  0  0  0  0  0  0  0  0  0  0  0
  186.1330  177.6110  136.5670 C   0  0  2  0  0  3  0  0  0  0  0  0
  185.4000  175.7990  134.7710 C   0  0  1  0  0  3  0  0  0  0  0  0
  189.8100  176.2580  138.3630 C   0  0  0  0  0  0  0  0  0  0  0  0
  189.0770  177.3010  138.9480 C   0  0  0  0  0  0  0  0  0  0  0  0
  187.4220  177.1370  137.1700 C   0  0  0  0  0  0  0  0  0  0  0  0
  188.1500  176.0940  136.5960 C   0  0  0  0  0  3  0  0  0  0  0  0
  187.8780  177.7210  138.3520 C   0  0  0  0  0  3  0  0  0  0  0  0
  189.3390  175.6600  137.1870 C   0  0  0  0  0  3  0  0  0  0  0  0
  192.2260  176.1060  138.3990 N   0  0  0  0  0  1  0  0  0  0  0  0
  190.9990  175.8210  138.9550 O   0  0  0  0  0  0  0  0  0  0  0  0
  189.5110  177.8680  140.2690 C   0  0  0  0  0  2  0  0  0  0  0  0
  190.3480  175.2430  142.8470 O   0  0  0  0  0  0  0  0  0  0  0  0
  189.5230  177.8030  143.4540 C   0  0  1  0  0  0  0  0  0  0  0  0
  188.8790  177.1840  144.6730 C   0  0  0  0  0  2  0  0  0  0  0  0
  190.3580  176.6770  142.4060 S   0  0  0  0  0  0  0  0  0  0  0  0
  188.4600  178.0080  142.3800 C   0  0  1  0  0  3  0  0  0  0  0  0
  189.0160  177.0700  141.3840 N   0  0  0  0  0  0  0  0  0  0  0  0
  191.6920  177.1480  141.8930 O   0  0  0  0  0  0  0  0  0  0  0  0
  190.2560  178.9590  143.7180 O   0  0  0  0  0  1  0  0  0  0  0  0
  187.1730  177.4440  142.9560 C   0  0  0  0  0  2  0  0  0  0  0  0
  187.3820  177.3200  144.4540 C   0  0  0  0  0  2  0  0  0  0  0  0
  184.9680  178.2320  138.6990 C   0  0  0  0  0  2  0  0  0  0  0  0
  183.9000  179.3130  138.6040 C   0  0  0  0  0  2  0  0  0  0  0  0
  183.1830  179.5120  139.9360 C   0  0  2  0  0  3  0  0  0  0  0  0
  183.7110  178.5870  141.0110 C   0  0  0  0  0  2  0  0  0  0  0  0
  180.9820  180.5840  139.4840 C   0  0  0  0  0  1  0  0  0  0  0  0
  181.6680  179.3010  139.9170 C   0  0  2  0  0  0  0  0  0  0  0  0
  182.5880  178.4560  142.0200 C   0  0  0  0  0  2  0  0  0  0  0  0
  181.3370  179.0310  141.3760 C   0  0  0  0  0  2  0  0  0  0  0  0
  181.2380  178.1010  139.0370 C   0  0  2  0  0  3  0  0  0  0  0  0
  180.6330  178.5170  137.8450 O   0  0  0  0  0  1  0  0  0  0  0  0
  178.9320  177.0380  139.2680 C   0  0  0  0  0  1  0  0  0  0  0  0
  180.3740  177.0570  139.7580 C   0  0  1  0  0  3  0  0  0  0  0  0
  181.0000  175.7010  139.6700 C   0  0  0  0  0  0  0  0  0  0  0  0
  180.3160  174.6610  139.8450 O   0  0  0  0  0  1  0  0  0  0  0  0
  182.3300  175.5910  139.2930 O   0  0  0  0  0  0  0  0  0  0  0  0
  1 28  1  1  0  0  0
  2  8  1  0  0  0  0
  2  4  1  0  0  0  0
  2  3  1  0  0  0  0
  3  5  1  0  0  0  0
  3  6  1  0  0  0  0
  4  7  1  0  0  0  0
  6  1  1  0  0  0  0
  7 11  1  0  0  0  0
  7  1  1  0  0  0  0
  8  4  1  0  0  0  0
  8  5  1  0  0  0  0
  9 10  1  0  0  0  0
  9 16  1  0  0  0  0
 10 17  1  0  0  0  0
 11 13  1  0  0  0  0
 12 11  2  0  0  0  0
 12 14  1  0  0  0  0
 13 10  2  0  0  0  0
 14  9  2  0  0  0  0
 15 16  1  0  0  0  0
 17 23  1  0  0  0  0
 19 25  1  0  0  0  0
 19 20  1  0  0  0  0
 21 18  2  0  0  0  0
 21 19  1  0  0  0  0
 22 26  1  0  0  0  0
 22 19  1  0  0  0  0
 23 22  1  0  0  0  0
 23 21  1  0  0  0  0
 24 21  2  0  0  0  0
 26 27  1  0  0  0  0
 27 20  1  0  0  0  0
 29 28  1  0  0  0  0
 29 30  1  0  0  0  0
 30 31  1  0  0  0  0
 31 34  1  0  0  0  0
 32 33  1  0  0  0  0
 33 30  1  0  0  0  0
 33 35  1  0  0  0  0
 35 34  1  0  0  0  0
 36 39  1  0  0  0  0
 36 33  1  0  0  0  0
 37 36  1  0  0  0  0
 38 39  1  0  0  0  0
 40 39  1  0  0  0  0
 40 41  1  0  0  0  0
 42 40  2  0  0  0  0
M  END
>  <MODEL>
9

>  <REMARK>
 VINA RESULT:      -7.1      2.765      8.460
  Name = 
  10 active torsions:
  status: ('A' for Active; 'I' for Inactive)
    1  A    between atoms: C_1  and  C_6
    2  A    between atoms: C_2  and  O_12
    3  A    between atoms: C_4  and  C_42
    4  A    between atoms: C_5  and  C_21
    5  A    between atoms: C_6  and  C_21
    6  A    between atoms: C_10  and  C_37
    7  A    between atoms: C_13  and  C_36
    8  A    between atoms: C_19  and  C_20
    9  A    between atoms: C_19  and  C_37
   10  A    between atoms: N_22  and  C_42
                            x       y       z     vdW  Elec       q    Type
                         _______ _______ _______ _____ _____    ______ ____

>  <TORSDO>
F 10

$$$$
