=
 OpenBabel11062416573D

 62 67  0  0  1  0  0  0  0  0999 V2000
  184.9490  177.9880  136.5520 F   0  0  0  0  0  0  0  0  0  0  0  0
  184.2250  178.6250  139.1710 N   0  0  0  0  0  1  0  0  0  0  0  0
  186.5340  178.4560  139.8860 C   0  0  0  0  0  2  0  0  0  0  0  0
  187.5580  178.2430  135.9000 O   0  0  0  0  0  0  0  0  0  0  0  0
  187.8920  177.8490  139.5430 C   0  0  1  0  0  3  0  0  0  0  0  0
  185.4810  177.9410  138.9160 C   0  0  2  0  0  3  0  0  0  0  0  0
  185.8800  178.1410  137.5200 N   0  0  0  0  0  0  0  0  0  0  0  0
  187.2610  178.2090  137.1270 C   0  0  0  0  0  0  0  0  0  0  0  0
  188.3490  178.3460  138.1660 C   0  0  2  0  0  3  0  0  0  0  0  0
  188.8150  179.5350  141.2010 C   0  0  0  0  0  1  0  0  0  0  0  0
  188.9390  178.1190  140.6440 C   0  0  1  0  0  3  0  0  0  0  0  0
  191.3840  178.2300  142.4950 O   0  0  0  0  0  0  0  0  0  0  0  0
  190.6090  177.8200  143.4050 C   0  0  0  0  0  0  0  0  0  0  0  0
  188.8960  177.0760  141.7370 C   0  0  0  0  0  0  0  0  0  0  0  0
  188.5120  175.9030  141.4770 O   0  0  0  0  0  0  0  0  0  0  0  0
  189.2730  177.3980  143.0830 N   0  0  0  0  0  0  0  0  0  0  0  0
  192.3070  178.4130  144.9860 O   0  0  0  0  0  1  0  0  0  0  0  0
  191.1150  177.7050  144.8110 C   0  0  2  0  0  3  0  0  0  0  0  0
  191.8590  176.1800  146.4910 O   0  0  0  0  0  1  0  0  0  0  0  0
  191.2460  176.2410  145.2410 C   0  0  2  0  0  3  0  0  0  0  0  0
  192.3970  174.2810  144.5510 O   0  0  0  0  0  0  0  0  0  0  0  0
  192.0190  175.4060  144.2620 C   0  0  0  0  0  3  0  0  0  0  0  0
  188.2940  177.1830  144.1480 C   0  0  0  0  0  2  0  0  0  0  0  0
  185.3240  178.5470  144.5630 C   0  0  2  0  0  0  0  0  0  0  0  0
  187.6650  178.5170  144.5560 C   0  0  1  0  0  3  0  0  0  0  0  0
  184.2600  179.6200  144.5200 C   0  0  0  0  0  2  0  0  0  0  0  0
  186.5020  178.7920  143.6420 C   0  0  0  0  0  2  0  0  0  0  0  0
  183.9250  178.1980  144.0820 C   0  0  1  0  0  3  0  0  0  0  0  0
  185.6670  178.1640  145.8610 O   0  0  0  0  0  0  0  0  0  0  0  0
  187.0260  178.5080  145.9560 C   0  0  1  0  0  3  0  0  0  0  0  0
  189.0500  178.1470  147.1760 F   0  0  0  0  0  0  0  0  0  0  0  0
  187.7420  177.7150  147.0530 C   0  0  0  0  0  0  0  0  0  0  0  0
  187.0910  177.9260  148.2550 F   0  0  0  0  0  0  0  0  0  0  0  0
  187.7210  176.3630  146.7640 F   0  0  0  0  0  0  0  0  0  0  0  0
  183.8370  178.1400  142.5670 C   0  0  0  0  0  2  0  0  0  0  0  0
  182.6650  178.7680  142.1450 O   0  0  0  0  0  1  0  0  0  0  0  0
  189.6680  177.7150  137.7090 C   0  0  0  0  0  2  0  0  0  0  0  0
  189.7310  176.2120  137.9640 C   0  0  0  0  0  2  0  0  0  0  0  0
  187.2200  174.9540  136.5960 O   0  0  0  0  0  0  0  0  0  0  0  0
  190.4520  175.6760  135.6290 C   0  0  2  0  0  3  0  0  0  0  0  0
  190.4830  174.5290  134.6100 C   0  0  0  0  0  2  0  0  0  0  0  0
  189.4940  175.4870  136.7220 N   0  0  0  0  0  0  0  0  0  0  0  0
  188.6930  173.0900  136.8200 C   0  0  0  0  0  2  0  0  0  0  0  0
  190.6850  173.1410  135.2190 C   0  0  2  0  0  3  0  0  0  0  0  0
  188.4120  174.5480  136.6620 C   0  0  0  0  0  0  0  0  0  0  0  0
  189.3430  172.4980  135.5730 C   0  0  0  0  0  2  0  0  0  0  0  0
  190.1520  176.9740  134.9020 C   0  0  0  0  0  1  0  0  0  0  0  0
  191.5550  173.1810  136.3210 O   0  0  0  0  0  0  0  0  0  0  0  0
  192.8350  171.4110  135.3940 C   0  0  0  0  0  2  0  0  0  0  0  0
  193.4780  171.8440  136.7010 C   0  0  2  0  0  3  0  0  0  0  0  0
  192.8120  172.8730  135.8020 C   0  0  2  0  0  3  0  0  0  0  0  0
  195.5080  172.7250  138.7700 O   0  0  0  0  0  0  0  0  0  0  0  0
  195.5820  171.2960  135.5110 C   0  0  0  0  0  1  0  0  0  0  0  0
  195.7470  172.7640  137.5310 C   0  0  0  0  0  0  0  0  0  0  0  0
  194.9400  171.9770  136.6260 N   0  0  0  0  0  0  0  0  0  0  0  0
  196.8600  173.6100  137.0270 C   0  0  0  0  0  0  0  0  0  0  0  0
  196.6460  174.6180  136.0690 C   0  0  0  0  0  0  0  0  0  0  0  0
  198.1230  173.3940  137.4820 N   0  0  0  0  0  0  0  0  0  0  0  0
  198.9790  175.1090  136.1170 N   0  0  0  0  0  0  0  0  0  0  0  0
  195.4120  174.8900  135.5750 F   0  0  0  0  0  0  0  0  0  0  0  0
  197.7390  175.3630  135.6260 C   0  0  0  0  0  3  0  0  0  0  0  0
  199.1740  174.1320  137.0410 C   0  0  0  0  0  3  0  0  0  0  0  0
  1  7  1  0  0  0  0
  4  8  2  0  0  0  0
  5  3  1  0  0  0  0
  5 11  1  1  0  0  0
  6  2  1  1  0  0  0
  6  3  1  0  0  0  0
  7  6  1  0  0  0  0
  8  7  1  0  0  0  0
  8  9  1  0  0  0  0
  9 37  1  6  0  0  0
  9  5  1  0  0  0  0
 11 10  1  1  0  0  0
 11 14  1  0  0  0  0
 12 13  2  0  0  0  0
 13 18  1  0  0  0  0
 14 16  1  0  0  0  0
 15 14  2  0  0  0  0
 16 13  1  0  0  0  0
 16 23  1  0  0  0  0
 18 17  1  6  0  0  0
 18 20  1  0  0  0  0
 20 19  1  1  0  0  0
 22 21  2  0  0  0  0
 22 20  1  0  0  0  0
 24 27  1  6  0  0  0
 24 29  1  0  0  0  0
 25 23  1  6  0  0  0
 25 30  1  0  0  0  0
 26 24  1  0  0  0  0
 27 25  1  0  0  0  0
 28 35  1  6  0  0  0
 28 26  1  0  0  0  0
 28 24  1  0  0  0  0
 29 30  1  0  0  0  0
 30 32  1  1  0  0  0
 32 31  1  0  0  0  0
 32 33  1  0  0  0  0
 34 32  1  0  0  0  0
 36 35  1  0  0  0  0
 37 38  1  0  0  0  0
 39 45  2  0  0  0  0
 40 47  1  6  0  0  0
 40 42  1  0  0  0  0
 41 44  1  0  0  0  0
 41 40  1  0  0  0  0
 42 38  1  0  0  0  0
 44 46  1  0  0  0  0
 44 48  1  1  0  0  0
 45 42  1  0  0  0  0
 45 43  1  0  0  0  0
 46 43  1  0  0  0  0
 49 51  1  0  0  0  0
 49 50  1  0  0  0  0
 50 55  1  6  0  0  0
 51 48  1  1  0  0  0
 51 50  1  0  0  0  0
 53 55  1  0  0  0  0
 54 52  2  0  0  0  0
 55 54  1  0  0  0  0
 56 58  1  0  0  0  0
 56 54  1  0  0  0  0
 57 56  2  0  0  0  0
 59 62  1  0  0  0  0
 60 57  1  0  0  0  0
 61 57  1  0  0  0  0
 61 59  2  0  0  0  0
 62 58  2  0  0  0  0
M  END
>  <MODEL>
1

>  <REMARK>
 VINA RESULT:      -5.8      0.000      0.000
  Name = 
  16 active torsions:
  status: ('A' for Active; 'I' for Inactive)
    1  A    between atoms: C_1  and  C_48
    2  A    between atoms: C_1  and  C_62
    3  A    between atoms: C_6  and  C_44
    4  A    between atoms: C_8  and  C_41
    5  A    between atoms: C_11  and  C_15
    6  A    between atoms: C_15  and  C_59
    7  A    between atoms: C_16  and  C_59
    8  A    between atoms: C_17  and  C_35
    9  A    between atoms: C_18  and  C_24
   10  A    between atoms: C_18  and  N_57
   11  A    between atoms: C_19  and  N_56
   12  A    between atoms: N_20  and  C_48
   13  A    between atoms: C_23  and  O_52
   14  A    between atoms: C_32  and  O_52
   15  A    between atoms: C_35  and  C_38
   16  A    between atoms: C_39  and  C_51
                            x       y       z     vdW  Elec       q    Type
                         _______ _______ _______ _____ _____    ______ ____

>  <TORSDO>
F 16

$$$$
=
 OpenBabel11062416573D

 62 67  0  0  1  0  0  0  0  0999 V2000
  179.3270  178.2890  141.2370 F   0  0  0  0  0  0  0  0  0  0  0  0
  180.5540  179.6600  143.3350 N   0  0  0  0  0  1  0  0  0  0  0  0
  182.7440  179.1560  142.4290 C   0  0  0  0  0  2  0  0  0  0  0  0
  180.8240  177.8030  139.0420 O   0  0  0  0  0  0  0  0  0  0  0  0
  183.5150  178.2020  141.5210 C   0  0  1  0  0  3  0  0  0  0  0  0
  181.3080  178.6760  142.5780 C   0  0  2  0  0  3  0  0  0  0  0  0
  180.6680  178.4530  141.2780 N   0  0  0  0  0  0  0  0  0  0  0  0
  181.4280  178.1220  140.1050 C   0  0  0  0  0  0  0  0  0  0  0  0
  182.9330  178.2520  140.1020 C   0  0  2  0  0  3  0  0  0  0  0  0
  185.3270  179.9790  141.5340 C   0  0  0  0  0  1  0  0  0  0  0  0
  185.0320  178.4810  141.5440 C   0  0  1  0  0  3  0  0  0  0  0  0
  187.8680  177.5440  140.8380 O   0  0  0  0  0  0  0  0  0  0  0  0
  188.1430  177.7330  142.0560 C   0  0  0  0  0  0  0  0  0  0  0  0
  185.7220  177.7780  142.6910 C   0  0  0  0  0  0  0  0  0  0  0  0
  185.0830  176.9590  143.4060 O   0  0  0  0  0  0  0  0  0  0  0  0
  187.0990  178.0360  142.9970 N   0  0  0  0  0  0  0  0  0  0  0  0
  190.2600  178.7690  142.4810 O   0  0  0  0  0  1  0  0  0  0  0  0
  189.5550  177.5630  142.5310 C   0  0  2  0  0  3  0  0  0  0  0  0
  191.2540  175.8870  142.5840 O   0  0  0  0  0  1  0  0  0  0  0  0
  190.2720  176.4450  141.7680 C   0  0  2  0  0  3  0  0  0  0  0  0
  192.0160  177.3880  140.4610 O   0  0  0  0  0  0  0  0  0  0  0  0
  190.8920  176.9110  140.4830 C   0  0  0  0  0  3  0  0  0  0  0  0
  187.4340  178.5150  144.3370 C   0  0  0  0  0  2  0  0  0  0  0  0
  188.8140  177.3370  147.0860 C   0  0  2  0  0  0  0  0  0  0  0  0
  187.2370  177.3920  145.3570 C   0  0  1  0  0  3  0  0  0  0  0  0
  189.2900  176.3010  148.0790 C   0  0  0  0  0  2  0  0  0  0  0  0
  188.5850  176.8080  145.6860 C   0  0  0  0  0  2  0  0  0  0  0  0
  190.1840  177.4860  147.7280 C   0  0  1  0  0  3  0  0  0  0  0  0
  187.7880  178.1430  147.5830 O   0  0  0  0  0  0  0  0  0  0  0  0
  186.7100  177.8690  146.7230 C   0  0  1  0  0  3  0  0  0  0  0  0
  184.4140  178.4840  146.9780 F   0  0  0  0  0  0  0  0  0  0  0  0
  185.6750  178.9950  146.7250 C   0  0  0  0  0  0  0  0  0  0  0  0
  185.9950  179.8970  147.7240 F   0  0  0  0  0  0  0  0  0  0  0  0
  185.6760  179.6560  145.5100 F   0  0  0  0  0  0  0  0  0  0  0  0
  191.3010  177.0240  146.8070 C   0  0  0  0  0  2  0  0  0  0  0  0
  192.0410  176.0240  147.4390 O   0  0  0  0  0  1  0  0  0  0  0  0
  183.5980  177.2570  139.1460 C   0  0  0  0  0  2  0  0  0  0  0  0
  183.6100  177.7370  137.6970 C   0  0  0  0  0  2  0  0  0  0  0  0
  181.8660  175.1460  137.7460 O   0  0  0  0  0  0  0  0  0  0  0  0
  183.7580  176.7990  135.3820 C   0  0  2  0  0  3  0  0  0  0  0  0
  184.0790  175.5040  134.6250 C   0  0  0  0  0  2  0  0  0  0  0  0
  183.4280  176.6050  136.7970 N   0  0  0  0  0  0  0  0  0  0  0  0
  184.0860  174.2880  137.5710 C   0  0  0  0  0  2  0  0  0  0  0  0
  185.1560  174.6350  135.2760 C   0  0  2  0  0  3  0  0  0  0  0  0
  183.0460  175.3370  137.3450 C   0  0  0  0  0  0  0  0  0  0  0  0
  184.5370  173.6440  136.2640 C   0  0  0  0  0  2  0  0  0  0  0  0
  182.6150  177.5100  134.6810 C   0  0  0  0  0  1  0  0  0  0  0  0
  186.1590  175.4150  135.8740 O   0  0  0  0  0  0  0  0  0  0  0  0
  187.7130  173.6270  135.7360 C   0  0  0  0  0  2  0  0  0  0  0  0
  188.4180  174.8410  136.3160 C   0  0  2  0  0  3  0  0  0  0  0  0
  187.3440  175.0190  135.2560 C   0  0  2  0  0  3  0  0  0  0  0  0
  190.7940  173.0020  135.9280 O   0  0  0  0  0  0  0  0  0  0  0  0
  189.8750  176.2930  134.9320 C   0  0  0  0  0  1  0  0  0  0  0  0
  190.9120  174.2580  135.9570 C   0  0  0  0  0  0  0  0  0  0  0  0
  189.7470  175.0870  135.7370 N   0  0  0  0  0  0  0  0  0  0  0  0
  192.2460  174.8630  136.2050 C   0  0  0  0  0  0  0  0  0  0  0  0
  193.3990  174.4060  135.5410 C   0  0  0  0  0  0  0  0  0  0  0  0
  192.3660  175.8680  137.1130 N   0  0  0  0  0  0  0  0  0  0  0  0
  194.6860  176.0110  136.7470 N   0  0  0  0  0  0  0  0  0  0  0  0
  193.3520  173.4110  134.6200 F   0  0  0  0  0  0  0  0  0  0  0  0
  194.6230  175.0070  135.8340 C   0  0  0  0  0  3  0  0  0  0  0  0
  193.5660  176.4430  137.3840 C   0  0  0  0  0  3  0  0  0  0  0  0
  1  7  1  0  0  0  0
  3  6  1  0  0  0  0
  4  8  2  0  0  0  0
  5 11  1  6  0  0  0
  5  3  1  0  0  0  0
  6  2  1  6  0  0  0
  7  6  1  0  0  0  0
  8  7  1  0  0  0  0
  9 37  1  6  0  0  0
  9  8  1  0  0  0  0
  9  5  1  0  0  0  0
 11 10  1  1  0  0  0
 11 14  1  0  0  0  0
 12 13  2  0  0  0  0
 13 18  1  0  0  0  0
 13 16  1  0  0  0  0
 14 16  1  0  0  0  0
 14 15  2  0  0  0  0
 16 23  1  0  0  0  0
 18 17  1  6  0  0  0
 20 18  1  0  0  0  0
 20 19  1  1  0  0  0
 21 22  2  0  0  0  0
 22 20  1  0  0  0  0
 24 27  1  6  0  0  0
 24 29  1  0  0  0  0
 24 28  1  0  0  0  0
 24 26  1  0  0  0  0
 25 23  1  6  0  0  0
 25 27  1  0  0  0  0
 25 30  1  0  0  0  0
 28 35  1  6  0  0  0
 28 26  1  0  0  0  0
 30 32  1  6  0  0  0
 30 29  1  0  0  0  0
 32 31  1  0  0  0  0
 32 33  1  0  0  0  0
 34 32  1  0  0  0  0
 35 36  1  0  0  0  0
 38 37  1  0  0  0  0
 40 47  1  6  0  0  0
 40 42  1  0  0  0  0
 41 44  1  0  0  0  0
 41 40  1  0  0  0  0
 42 45  1  0  0  0  0
 42 38  1  0  0  0  0
 44 48  1  1  0  0  0
 44 46  1  0  0  0  0
 45 43  1  0  0  0  0
 45 39  2  0  0  0  0
 46 43  1  0  0  0  0
 49 50  1  0  0  0  0
 50 55  1  6  0  0  0
 51 49  1  0  0  0  0
 51 48  1  1  0  0  0
 51 50  1  0  0  0  0
 52 54  2  0  0  0  0
 53 55  1  0  0  0  0
 54 56  1  0  0  0  0
 55 54  1  0  0  0  0
 56 58  1  0  0  0  0
 57 61  1  0  0  0  0
 57 56  2  0  0  0  0
 58 62  2  0  0  0  0
 59 62  1  0  0  0  0
 60 57  1  0  0  0  0
 61 59  2  0  0  0  0
M  END
>  <MODEL>
2

>  <REMARK>
 VINA RESULT:      -4.9      2.840      5.307
  Name = 
  16 active torsions:
  status: ('A' for Active; 'I' for Inactive)
    1  A    between atoms: C_1  and  C_48
    2  A    between atoms: C_1  and  C_62
    3  A    between atoms: C_6  and  C_44
    4  A    between atoms: C_8  and  C_41
    5  A    between atoms: C_11  and  C_15
    6  A    between atoms: C_15  and  C_59
    7  A    between atoms: C_16  and  C_59
    8  A    between atoms: C_17  and  C_35
    9  A    between atoms: C_18  and  C_24
   10  A    between atoms: C_18  and  N_57
   11  A    between atoms: C_19  and  N_56
   12  A    between atoms: N_20  and  C_48
   13  A    between atoms: C_23  and  O_52
   14  A    between atoms: C_32  and  O_52
   15  A    between atoms: C_35  and  C_38
   16  A    between atoms: C_39  and  C_51
                            x       y       z     vdW  Elec       q    Type
                         _______ _______ _______ _____ _____    ______ ____

>  <TORSDO>
F 16

$$$$
=
 OpenBabel11062416573D

 62 67  0  0  1  0  0  0  0  0999 V2000
  183.9760  178.3020  146.4380 F   0  0  0  0  0  0  0  0  0  0  0  0
  186.7040  177.7270  146.5610 N   0  0  0  0  0  1  0  0  0  0  0  0
  186.9420  178.1860  144.1940 C   0  0  0  0  0  2  0  0  0  0  0  0
  183.1060  179.6900  144.2910 O   0  0  0  0  0  0  0  0  0  0  0  0
  186.1870  178.2660  142.8700 C   0  0  1  0  0  3  0  0  0  0  0  0
  186.0130  177.6740  145.2840 C   0  0  2  0  0  3  0  0  0  0  0  0
  184.7740  178.4550  145.3580 N   0  0  0  0  0  0  0  0  0  0  0  0
  184.2440  179.1480  144.2160 C   0  0  0  0  0  0  0  0  0  0  0  0
  185.0770  179.3210  142.9680 C   0  0  2  0  0  3  0  0  0  0  0  0
  188.0740  179.6930  141.9490 C   0  0  0  0  0  1  0  0  0  0  0  0
  187.1350  178.5200  141.6790 C   0  0  1  0  0  3  0  0  0  0  0  0
  187.1710  178.0690  138.6430 O   0  0  0  0  0  0  0  0  0  0  0  0
  188.2990  177.5290  138.8210 C   0  0  0  0  0  0  0  0  0  0  0  0
  187.8900  177.2730  141.2780 C   0  0  0  0  0  0  0  0  0  0  0  0
  187.7560  176.2110  141.9450 O   0  0  0  0  0  0  0  0  0  0  0  0
  188.7790  177.2760  140.1530 N   0  0  0  0  0  0  0  0  0  0  0  0
  189.2050  178.0950  136.6790 O   0  0  0  0  0  1  0  0  0  0  0  0
  189.1010  177.0820  137.6360 C   0  0  2  0  0  3  0  0  0  0  0  0
  189.4900  174.7670  137.2020 O   0  0  0  0  0  1  0  0  0  0  0  0
  188.5480  175.7830  137.0430 C   0  0  2  0  0  3  0  0  0  0  0  0
  187.0340  175.7320  135.2140 O   0  0  0  0  0  0  0  0  0  0  0  0
  188.1820  175.9050  135.5930 C   0  0  0  0  0  3  0  0  0  0  0  0
  190.1770  176.9050  140.3710 C   0  0  0  0  0  2  0  0  0  0  0  0
  191.6500  177.6180  143.2300 C   0  0  2  0  0  0  0  0  0  0  0  0
  190.9220  178.0560  141.0480 C   0  0  1  0  0  3  0  0  0  0  0  0
  192.0710  178.4580  144.4140 C   0  0  0  0  0  2  0  0  0  0  0  0
  190.4510  178.1540  142.4740 C   0  0  0  0  0  2  0  0  0  0  0  0
  191.5820  177.0290  144.6290 C   0  0  1  0  0  3  0  0  0  0  0  0
  192.7220  177.2260  142.4250 O   0  0  0  0  0  0  0  0  0  0  0  0
  192.4390  177.8280  141.1860 C   0  0  1  0  0  3  0  0  0  0  0  0
  192.2950  176.2340  139.4100 F   0  0  0  0  0  0  0  0  0  0  0  0
  193.1540  177.1230  140.0310 C   0  0  0  0  0  0  0  0  0  0  0  0
  193.5550  178.0710  139.1070 F   0  0  0  0  0  0  0  0  0  0  0  0
  194.2700  176.4490  140.4930 F   0  0  0  0  0  0  0  0  0  0  0  0
  190.1720  177.0560  145.1940 C   0  0  0  0  0  2  0  0  0  0  0  0
  190.1610  176.4470  146.4490 O   0  0  0  0  0  1  0  0  0  0  0  0
  184.2150  179.4040  141.7050 C   0  0  0  0  0  2  0  0  0  0  0  0
  183.4820  178.1010  141.3950 C   0  0  0  0  0  2  0  0  0  0  0  0
  180.6550  179.2940  141.9810 O   0  0  0  0  0  0  0  0  0  0  0  0
  182.4790  178.5550  139.1480 C   0  0  2  0  0  3  0  0  0  0  0  0
  181.2180  178.2900  138.3150 C   0  0  0  0  0  2  0  0  0  0  0  0
  182.2970  178.3770  140.5910 N   0  0  0  0  0  0  0  0  0  0  0  0
  180.1480  177.1400  141.0880 C   0  0  0  0  0  2  0  0  0  0  0  0
  180.5570  176.9350  138.5740 C   0  0  2  0  0  3  0  0  0  0  0  0
  181.0100  178.3530  141.2220 C   0  0  0  0  0  0  0  0  0  0  0  0
  179.5260  177.0350  139.6990 C   0  0  0  0  0  2  0  0  0  0  0  0
  182.9720  179.9620  138.8620 C   0  0  0  0  0  1  0  0  0  0  0  0
  181.5100  175.9340  138.8210 O   0  0  0  0  0  0  0  0  0  0  0  0
  180.6330  174.9810  136.8330 C   0  0  0  0  0  2  0  0  0  0  0  0
  181.5660  173.9740  137.4840 C   0  0  2  0  0  3  0  0  0  0  0  0
  181.8740  175.4600  137.5620 C   0  0  2  0  0  3  0  0  0  0  0  0
  182.5620  171.1170  137.3350 O   0  0  0  0  0  0  0  0  0  0  0  0
  182.7200  174.0270  135.2910 C   0  0  0  0  0  1  0  0  0  0  0  0
  183.1770  172.0740  136.7890 C   0  0  0  0  0  0  0  0  0  0  0  0
  182.4800  173.3160  136.5390 N   0  0  0  0  0  0  0  0  0  0  0  0
  184.6020  171.9050  136.4050 C   0  0  0  0  0  0  0  0  0  0  0  0
  185.6290  172.6270  137.0390 C   0  0  0  0  0  0  0  0  0  0  0  0
  184.9260  171.0480  135.3980 N   0  0  0  0  0  0  0  0  0  0  0  0
  187.2130  171.5610  135.6100 N   0  0  0  0  0  0  0  0  0  0  0  0
  185.3790  173.4940  138.0520 F   0  0  0  0  0  0  0  0  0  0  0  0
  186.9440  172.4320  136.6160 C   0  0  0  0  0  3  0  0  0  0  0  0
  186.2120  170.8690  135.0030 C   0  0  0  0  0  3  0  0  0  0  0  0
  3  6  1  0  0  0  0
  5 11  1  6  0  0  0
  5  9  1  0  0  0  0
  5  3  1  0  0  0  0
  6  7  1  0  0  0  0
  6  2  1  1  0  0  0
  7  1  1  0  0  0  0
  8  4  2  0  0  0  0
  8  7  1  0  0  0  0
  9 37  1  6  0  0  0
  9  8  1  0  0  0  0
 11 10  1  1  0  0  0
 12 13  2  0  0  0  0
 13 16  1  0  0  0  0
 14 11  1  0  0  0  0
 14 15  2  0  0  0  0
 16 23  1  0  0  0  0
 16 14  1  0  0  0  0
 18 17  1  6  0  0  0
 18 13  1  0  0  0  0
 20 19  1  6  0  0  0
 20 18  1  0  0  0  0
 21 22  2  0  0  0  0
 22 20  1  0  0  0  0
 24 27  1  6  0  0  0
 24 26  1  0  0  0  0
 24 28  1  0  0  0  0
 25 23  1  1  0  0  0
 25 30  1  0  0  0  0
 25 27  1  0  0  0  0
 26 28  1  0  0  0  0
 28 35  1  1  0  0  0
 29 24  1  0  0  0  0
 30 32  1  6  0  0  0
 30 29  1  0  0  0  0
 31 32  1  0  0  0  0
 32 34  1  0  0  0  0
 33 32  1  0  0  0  0
 35 36  1  0  0  0  0
 38 37  1  0  0  0  0
 40 47  1  1  0  0  0
 40 42  1  0  0  0  0
 41 44  1  0  0  0  0
 41 40  1  0  0  0  0
 42 45  1  0  0  0  0
 42 38  1  0  0  0  0
 43 45  1  0  0  0  0
 44 48  1  1  0  0  0
 44 46  1  0  0  0  0
 45 39  2  0  0  0  0
 46 43  1  0  0  0  0
 49 50  1  0  0  0  0
 49 51  1  0  0  0  0
 50 55  1  6  0  0  0
 50 51  1  0  0  0  0
 51 48  1  1  0  0  0
 53 55  1  0  0  0  0
 54 52  2  0  0  0  0
 55 54  1  0  0  0  0
 56 54  1  0  0  0  0
 56 57  1  0  0  0  0
 57 60  1  0  0  0  0
 58 56  2  0  0  0  0
 59 61  1  0  0  0  0
 61 57  2  0  0  0  0
 62 58  1  0  0  0  0
 62 59  2  0  0  0  0
M  END
>  <MODEL>
3

>  <REMARK>
 VINA RESULT:      -4.8      4.021      9.115
  Name = 
  16 active torsions:
  status: ('A' for Active; 'I' for Inactive)
    1  A    between atoms: C_1  and  C_48
    2  A    between atoms: C_1  and  C_62
    3  A    between atoms: C_6  and  C_44
    4  A    between atoms: C_8  and  C_41
    5  A    between atoms: C_11  and  C_15
    6  A    between atoms: C_15  and  C_59
    7  A    between atoms: C_16  and  C_59
    8  A    between atoms: C_17  and  C_35
    9  A    between atoms: C_18  and  C_24
   10  A    between atoms: C_18  and  N_57
   11  A    between atoms: C_19  and  N_56
   12  A    between atoms: N_20  and  C_48
   13  A    between atoms: C_23  and  O_52
   14  A    between atoms: C_32  and  O_52
   15  A    between atoms: C_35  and  C_38
   16  A    between atoms: C_39  and  C_51
                            x       y       z     vdW  Elec       q    Type
                         _______ _______ _______ _____ _____    ______ ____

>  <TORSDO>
F 16

$$$$
=
 OpenBabel11062416573D

 62 67  0  0  1  0  0  0  0  0999 V2000
  187.6100  178.9130  143.6870 F   0  0  0  0  0  0  0  0  0  0  0  0
  184.9200  178.4830  144.2950 N   0  0  0  0  0  1  0  0  0  0  0  0
  184.3950  178.2300  141.9430 C   0  0  0  0  0  2  0  0  0  0  0  0
  188.4540  178.1560  141.2350 O   0  0  0  0  0  0  0  0  0  0  0  0
  184.8650  178.5620  140.5300 C   0  0  1  0  0  3  0  0  0  0  0  0
  185.2980  178.9120  142.9590 C   0  0  2  0  0  3  0  0  0  0  0  0
  186.7130  178.6090  142.7230 N   0  0  0  0  0  0  0  0  0  0  0  0
  187.2090  178.2730  141.4160 C   0  0  0  0  0  0  0  0  0  0  0  0
  186.2550  177.9560  140.2900 C   0  0  2  0  0  3  0  0  0  0  0  0
  182.7170  177.2900  140.0720 C   0  0  0  0  0  1  0  0  0  0  0  0
  183.8410  178.1240  139.4620 C   0  0  1  0  0  3  0  0  0  0  0  0
  183.5010  177.4960  136.4770 O   0  0  0  0  0  0  0  0  0  0  0  0
  182.5390  178.3140  136.5000 C   0  0  0  0  0  0  0  0  0  0  0  0
  183.3090  179.2970  138.6710 C   0  0  0  0  0  0  0  0  0  0  0  0
  183.7410  180.4600  138.8960 O   0  0  0  0  0  0  0  0  0  0  0  0
  182.2980  179.1170  137.6690 N   0  0  0  0  0  0  0  0  0  0  0  0
  181.2130  179.8080  135.1790 O   0  0  0  0  0  1  0  0  0  0  0  0
  181.6970  178.5000  135.2740 C   0  0  2  0  0  3  0  0  0  0  0  0
  179.3460  178.1000  135.3950 O   0  0  0  0  0  1  0  0  0  0  0  0
  180.5720  177.4640  135.2060 C   0  0  2  0  0  3  0  0  0  0  0  0
  179.8280  176.0920  136.9970 O   0  0  0  0  0  0  0  0  0  0  0  0
  180.7240  176.3600  136.2120 C   0  0  0  0  0  3  0  0  0  0  0  0
  181.0460  179.8590  137.8040 C   0  0  0  0  0  2  0  0  0  0  0  0
  179.8390  182.9240  137.8460 C   0  0  2  0  0  0  0  0  0  0  0  0
  181.3110  181.2130  138.4660 C   0  0  1  0  0  3  0  0  0  0  0  0
  179.8610  184.4340  137.8950 C   0  0  0  0  0  2  0  0  0  0  0  0
  181.1490  182.2890  137.4270 C   0  0  0  0  0  2  0  0  0  0  0  0
  178.9390  183.7180  136.9130 C   0  0  1  0  0  3  0  0  0  0  0  0
  179.2410  182.3460  138.9680 O   0  0  0  0  0  0  0  0  0  0  0  0
  180.2820  181.5970  139.5450 C   0  0  1  0  0  3  0  0  0  0  0  0
  180.8010  179.8280  141.0660 F   0  0  0  0  0  0  0  0  0  0  0  0
  179.7510  180.4780  140.4440 C   0  0  0  0  0  0  0  0  0  0  0  0
  178.9350  181.0320  141.4150 F   0  0  0  0  0  0  0  0  0  0  0  0
  179.0130  179.5720  139.7040 F   0  0  0  0  0  0  0  0  0  0  0  0
  179.5150  183.8180  135.5110 C   0  0  0  0  0  2  0  0  0  0  0  0
  179.4780  185.1470  135.0870 O   0  0  0  0  0  1  0  0  0  0  0  0
  186.8370  178.3170  138.9200 C   0  0  0  0  0  2  0  0  0  0  0  0
  188.1700  177.6290  138.6370 C   0  0  0  0  0  2  0  0  0  0  0  0
  186.1330  175.6830  137.2860 O   0  0  0  0  0  0  0  0  0  0  0  0
  188.8810  177.4890  136.2420 C   0  0  2  0  0  3  0  0  0  0  0  0
  189.2240  176.4740  135.1440 C   0  0  0  0  0  2  0  0  0  0  0  0
  188.1080  176.9340  137.3570 N   0  0  0  0  0  0  0  0  0  0  0  0
  188.1490  174.4050  137.3170 C   0  0  0  0  0  2  0  0  0  0  0  0
  189.9090  175.2010  135.6440 C   0  0  2  0  0  3  0  0  0  0  0  0
  187.3930  175.6930  137.2740 C   0  0  0  0  0  0  0  0  0  0  0  0
  188.8790  174.1310  136.0060 C   0  0  0  0  0  2  0  0  0  0  0  0
  188.1260  178.6500  135.6220 C   0  0  0  0  0  1  0  0  0  0  0  0
  190.7840  175.4700  136.7100 O   0  0  0  0  0  0  0  0  0  0  0  0
  191.9360  173.3960  136.6290 C   0  0  0  0  0  2  0  0  0  0  0  0
  192.6710  174.3240  137.5820 C   0  0  2  0  0  3  0  0  0  0  0  0
  191.9950  174.8850  136.3410 C   0  0  2  0  0  3  0  0  0  0  0  0
  194.7990  172.4440  138.6350 O   0  0  0  0  0  0  0  0  0  0  0  0
  194.6390  175.1370  136.3130 C   0  0  0  0  0  1  0  0  0  0  0  0
  195.0650  173.6180  138.2570 C   0  0  0  0  0  0  0  0  0  0  0  0
  194.1300  174.3190  137.4050 N   0  0  0  0  0  0  0  0  0  0  0  0
  196.3370  174.2560  138.6860 C   0  0  0  0  0  0  0  0  0  0  0  0
  197.5140  174.1410  137.9240 C   0  0  0  0  0  0  0  0  0  0  0  0
  196.3760  174.9480  139.8560 N   0  0  0  0  0  0  0  0  0  0  0  0
  198.6610  175.4340  139.5670 N   0  0  0  0  0  0  0  0  0  0  0  0
  197.5450  173.4680  136.7460 F   0  0  0  0  0  0  0  0  0  0  0  0
  198.6780  174.7490  138.3940 C   0  0  0  0  0  3  0  0  0  0  0  0
  197.5180  175.5370  140.2960 C   0  0  0  0  0  3  0  0  0  0  0  0
  3  6  1  0  0  0  0
  4  8  2  0  0  0  0
  5 11  1  6  0  0  0
  5  3  1  0  0  0  0
  6  2  1  1  0  0  0
  7  6  1  0  0  0  0
  7  1  1  0  0  0  0
  8  7  1  0  0  0  0
  9 37  1  6  0  0  0
  9  5  1  0  0  0  0
  9  8  1  0  0  0  0
 11 10  1  1  0  0  0
 12 13  2  0  0  0  0
 13 16  1  0  0  0  0
 14 15  2  0  0  0  0
 14 11  1  0  0  0  0
 16 23  1  0  0  0  0
 16 14  1  0  0  0  0
 18 17  1  1  0  0  0
 18 13  1  0  0  0  0
 20 18  1  0  0  0  0
 20 19  1  1  0  0  0
 20 22  1  0  0  0  0
 22 21  2  0  0  0  0
 24 27  1  6  0  0  0
 24 26  1  0  0  0  0
 24 29  1  0  0  0  0
 25 23  1  6  0  0  0
 25 30  1  0  0  0  0
 27 25  1  0  0  0  0
 28 35  1  6  0  0  0
 28 24  1  0  0  0  0
 28 26  1  0  0  0  0
 29 30  1  0  0  0  0
 30 32  1  6  0  0  0
 32 31  1  0  0  0  0
 32 33  1  0  0  0  0
 34 32  1  0  0  0  0
 36 35  1  0  0  0  0
 38 37  1  0  0  0  0
 40 47  1  6  0  0  0
 40 42  1  0  0  0  0
 41 44  1  0  0  0  0
 41 40  1  0  0  0  0
 42 38  1  0  0  0  0
 44 46  1  0  0  0  0
 44 48  1  1  0  0  0
 45 39  2  0  0  0  0
 45 43  1  0  0  0  0
 45 42  1  0  0  0  0
 46 43  1  0  0  0  0
 49 50  1  0  0  0  0
 50 55  1  6  0  0  0
 51 49  1  0  0  0  0
 51 48  1  1  0  0  0
 51 50  1  0  0  0  0
 53 55  1  0  0  0  0
 54 52  2  0  0  0  0
 54 56  1  0  0  0  0
 55 54  1  0  0  0  0
 56 58  1  0  0  0  0
 57 61  1  0  0  0  0
 57 56  2  0  0  0  0
 58 62  2  0  0  0  0
 59 62  1  0  0  0  0
 60 57  1  0  0  0  0
 61 59  2  0  0  0  0
M  END
>  <MODEL>
4

>  <REMARK>
 VINA RESULT:      -4.5      4.419      7.603
  Name = 
  16 active torsions:
  status: ('A' for Active; 'I' for Inactive)
    1  A    between atoms: C_1  and  C_48
    2  A    between atoms: C_1  and  C_62
    3  A    between atoms: C_6  and  C_44
    4  A    between atoms: C_8  and  C_41
    5  A    between atoms: C_11  and  C_15
    6  A    between atoms: C_15  and  C_59
    7  A    between atoms: C_16  and  C_59
    8  A    between atoms: C_17  and  C_35
    9  A    between atoms: C_18  and  C_24
   10  A    between atoms: C_18  and  N_57
   11  A    between atoms: C_19  and  N_56
   12  A    between atoms: N_20  and  C_48
   13  A    between atoms: C_23  and  O_52
   14  A    between atoms: C_32  and  O_52
   15  A    between atoms: C_35  and  C_38
   16  A    between atoms: C_39  and  C_51
                            x       y       z     vdW  Elec       q    Type
                         _______ _______ _______ _____ _____    ______ ____

>  <TORSDO>
F 16

$$$$
=
 OpenBabel11062416573D

 62 67  0  0  1  0  0  0  0  0999 V2000
  180.0120  177.8690  140.0560 F   0  0  0  0  0  0  0  0  0  0  0  0
  180.7550  179.3430  142.3070 N   0  0  0  0  0  1  0  0  0  0  0  0
  183.0990  178.9990  141.8000 C   0  0  0  0  0  2  0  0  0  0  0  0
  181.8980  177.4820  138.1620 O   0  0  0  0  0  0  0  0  0  0  0  0
  184.0820  178.0990  141.0580 C   0  0  1  0  0  3  0  0  0  0  0  0
  181.6980  178.4130  141.7100 C   0  0  2  0  0  3  0  0  0  0  0  0
  181.3100  178.1340  140.3250 N   0  0  0  0  0  0  0  0  0  0  0  0
  182.2840  177.8530  139.3060 C   0  0  0  0  0  0  0  0  0  0  0  0
  183.7530  178.0950  139.5590 C   0  0  2  0  0  3  0  0  0  0  0  0
  185.7210  180.0070  141.4000 C   0  0  0  0  0  1  0  0  0  0  0  0
  185.5480  178.4920  141.3360 C   0  0  1  0  0  3  0  0  0  0  0  0
  188.4580  177.5730  141.0020 O   0  0  0  0  0  0  0  0  0  0  0  0
  188.5770  177.7790  142.2420 C   0  0  0  0  0  0  0  0  0  0  0  0
  186.0950  177.8090  142.5690 C   0  0  0  0  0  0  0  0  0  0  0  0
  185.3780  176.9930  143.2100 O   0  0  0  0  0  0  0  0  0  0  0  0
  187.4210  178.0840  143.0410 N   0  0  0  0  0  0  0  0  0  0  0  0
  190.6480  178.8210  142.8440 O   0  0  0  0  0  1  0  0  0  0  0  0
  189.9200  177.6280  142.8910 C   0  0  2  0  0  3  0  0  0  0  0  0
  191.1440  175.6250  143.3260 O   0  0  0  0  0  1  0  0  0  0  0  0
  190.7010  176.4530  142.2960 C   0  0  2  0  0  3  0  0  0  0  0  0
  191.8300  177.9080  140.7960 O   0  0  0  0  0  0  0  0  0  0  0  0
  191.8710  176.8840  141.4600 C   0  0  0  0  0  3  0  0  0  0  0  0
  187.5830  178.5830  144.4060 C   0  0  0  0  0  2  0  0  0  0  0  0
  188.6870  177.3590  147.2580 C   0  0  2  0  0  0  0  0  0  0  0  0
  187.2560  177.4740  145.4090 C   0  0  1  0  0  3  0  0  0  0  0  0
  189.0360  176.3080  148.2870 C   0  0  0  0  0  2  0  0  0  0  0  0
  188.5470  176.8330  145.8450 C   0  0  0  0  0  2  0  0  0  0  0  0
  190.0060  177.4500  148.0070 C   0  0  1  0  0  3  0  0  0  0  0  0
  187.6600  178.2110  147.6700 O   0  0  0  0  0  0  0  0  0  0  0  0
  186.6440  177.9800  146.7270 C   0  0  1  0  0  3  0  0  0  0  0  0
  184.3870  178.7290  146.9780 F   0  0  0  0  0  0  0  0  0  0  0  0
  185.6620  179.1510  146.6450 C   0  0  0  0  0  0  0  0  0  0  0  0
  186.0530  180.1280  147.5430 F   0  0  0  0  0  0  0  0  0  0  0  0
  185.6570  179.6900  145.3720 F   0  0  0  0  0  0  0  0  0  0  0  0
  191.1710  176.9350  147.1790 C   0  0  0  0  0  2  0  0  0  0  0  0
  191.2070  177.6080  145.9580 O   0  0  0  0  0  1  0  0  0  0  0  0
  184.6440  177.1470  138.7520 C   0  0  0  0  0  2  0  0  0  0  0  0
  185.4030  177.8490  137.6300 C   0  0  0  0  0  2  0  0  0  0  0  0
  183.9390  175.4750  136.2240 O   0  0  0  0  0  0  0  0  0  0  0  0
  186.8440  177.2520  135.6730 C   0  0  2  0  0  3  0  0  0  0  0  0
  187.5370  176.0560  135.0080 C   0  0  0  0  0  2  0  0  0  0  0  0
  185.7660  176.8870  136.5960 N   0  0  0  0  0  0  0  0  0  0  0  0
  185.8610  174.4260  137.1740 C   0  0  0  0  0  2  0  0  0  0  0  0
  188.0490  174.9930  135.9820 C   0  0  2  0  0  3  0  0  0  0  0  0
  185.1360  175.5980  136.5970 C   0  0  0  0  0  0  0  0  0  0  0  0
  186.9760  173.9380  136.2550 C   0  0  0  0  0  2  0  0  0  0  0  0
  186.3060  178.1730  134.5940 C   0  0  0  0  0  1  0  0  0  0  0  0
  188.5330  175.5690  137.1680 O   0  0  0  0  0  0  0  0  0  0  0  0
  190.6530  176.0530  138.1180 C   0  0  0  0  0  2  0  0  0  0  0  0
  190.8000  175.9940  136.6060 C   0  0  2  0  0  3  0  0  0  0  0  0
  189.8250  175.0670  137.3140 C   0  0  2  0  0  3  0  0  0  0  0  0
  191.3290  173.0140  136.4720 O   0  0  0  0  0  0  0  0  0  0  0  0
  192.9370  175.9850  135.3510 C   0  0  0  0  0  1  0  0  0  0  0  0
  192.2620  173.8640  136.4960 C   0  0  0  0  0  0  0  0  0  0  0  0
  191.9780  175.2400  136.1550 N   0  0  0  0  0  0  0  0  0  0  0  0
  193.6350  173.4330  136.8640 C   0  0  0  0  0  0  0  0  0  0  0  0
  194.4060  174.1450  137.8020 C   0  0  0  0  0  0  0  0  0  0  0  0
  194.1760  172.3380  136.2650 N   0  0  0  0  0  0  0  0  0  0  0  0
  196.1850  172.5920  137.4640 N   0  0  0  0  0  0  0  0  0  0  0  0
  193.9290  175.2430  138.4390 F   0  0  0  0  0  0  0  0  0  0  0  0
  195.6950  173.6950  138.0870 C   0  0  0  0  0  3  0  0  0  0  0  0
  195.4310  171.9130  136.5590 C   0  0  0  0  0  3  0  0  0  0  0  0
  1  7  1  0  0  0  0
  4  8  2  0  0  0  0
  5 11  1  6  0  0  0
  5  3  1  0  0  0  0
  6  3  1  0  0  0  0
  6  2  1  6  0  0  0
  7  6  1  0  0  0  0
  8  9  1  0  0  0  0
  8  7  1  0  0  0  0
  9 37  1  6  0  0  0
  9  5  1  0  0  0  0
 11 10  1  1  0  0  0
 11 14  1  0  0  0  0
 12 13  2  0  0  0  0
 13 18  1  0  0  0  0
 13 16  1  0  0  0  0
 14 16  1  0  0  0  0
 14 15  2  0  0  0  0
 16 23  1  0  0  0  0
 18 17  1  6  0  0  0
 20 18  1  0  0  0  0
 20 19  1  1  0  0  0
 21 22  2  0  0  0  0
 22 20  1  0  0  0  0
 24 27  1  6  0  0  0
 24 29  1  0  0  0  0
 24 28  1  0  0  0  0
 24 26  1  0  0  0  0
 25 23  1  6  0  0  0
 25 27  1  0  0  0  0
 25 30  1  0  0  0  0
 28 35  1  6  0  0  0
 28 26  1  0  0  0  0
 30 32  1  6  0  0  0
 30 29  1  0  0  0  0
 32 31  1  0  0  0  0
 32 33  1  0  0  0  0
 34 32  1  0  0  0  0
 36 35  1  0  0  0  0
 38 37  1  0  0  0  0
 39 45  2  0  0  0  0
 40 47  1  6  0  0  0
 40 42  1  0  0  0  0
 41 40  1  0  0  0  0
 41 44  1  0  0  0  0
 42 45  1  0  0  0  0
 42 38  1  0  0  0  0
 44 46  1  0  0  0  0
 44 48  1  1  0  0  0
 45 43  1  0  0  0  0
 46 43  1  0  0  0  0
 50 55  1  1  0  0  0
 50 51  1  0  0  0  0
 50 49  1  0  0  0  0
 51 48  1  6  0  0  0
 51 49  1  0  0  0  0
 52 54  2  0  0  0  0
 53 55  1  0  0  0  0
 54 56  1  0  0  0  0
 55 54  1  0  0  0  0
 56 57  1  0  0  0  0
 57 61  2  0  0  0  0
 57 60  1  0  0  0  0
 58 62  1  0  0  0  0
 58 56  2  0  0  0  0
 59 61  1  0  0  0  0
 62 59  2  0  0  0  0
M  END
>  <MODEL>
5

>  <REMARK>
 VINA RESULT:      -4.5      2.391      4.332
  Name = 
  16 active torsions:
  status: ('A' for Active; 'I' for Inactive)
    1  A    between atoms: C_1  and  C_48
    2  A    between atoms: C_1  and  C_62
    3  A    between atoms: C_6  and  C_44
    4  A    between atoms: C_8  and  C_41
    5  A    between atoms: C_11  and  C_15
    6  A    between atoms: C_15  and  C_59
    7  A    between atoms: C_16  and  C_59
    8  A    between atoms: C_17  and  C_35
    9  A    between atoms: C_18  and  C_24
   10  A    between atoms: C_18  and  N_57
   11  A    between atoms: C_19  and  N_56
   12  A    between atoms: N_20  and  C_48
   13  A    between atoms: C_23  and  O_52
   14  A    between atoms: C_32  and  O_52
   15  A    between atoms: C_35  and  C_38
   16  A    between atoms: C_39  and  C_51
                            x       y       z     vdW  Elec       q    Type
                         _______ _______ _______ _____ _____    ______ ____

>  <TORSDO>
F 16

$$$$
=
 OpenBabel11062416573D

 62 67  0  0  1  0  0  0  0  0999 V2000
  189.1400  177.3830  137.1830 F   0  0  0  0  0  0  0  0  0  0  0  0
  186.8570  178.0540  135.7250 N   0  0  0  0  0  1  0  0  0  0  0  0
  185.6690  178.5920  137.7670 C   0  0  0  0  0  2  0  0  0  0  0  0
  189.2790  178.2720  139.7300 O   0  0  0  0  0  0  0  0  0  0  0  0
  185.6290  178.3460  139.2730 C   0  0  1  0  0  3  0  0  0  0  0  0
  186.7400  177.7170  137.1330 C   0  0  2  0  0  3  0  0  0  0  0  0
  188.0390  177.8780  137.7920 N   0  0  0  0  0  0  0  0  0  0  0  0
  188.1480  178.2810  139.1670 C   0  0  0  0  0  0  0  0  0  0  0  0
  186.9450  178.8110  139.9100 C   0  0  2  0  0  3  0  0  0  0  0  0
  183.5270  179.7220  138.9040 C   0  0  0  0  0  1  0  0  0  0  0  0
  184.3950  178.9990  139.9320 C   0  0  1  0  0  3  0  0  0  0  0  0
  181.5300  179.9460  140.4890 O   0  0  0  0  0  0  0  0  0  0  0  0
  181.2120  178.7240  140.4770 C   0  0  0  0  0  0  0  0  0  0  0  0
  183.5960  178.0080  140.7480 C   0  0  0  0  0  0  0  0  0  0  0  0
  184.1320  177.4150  141.7240 O   0  0  0  0  0  0  0  0  0  0  0  0
  182.2310  177.7100  140.4220 N   0  0  0  0  0  0  0  0  0  0  0  0
  179.0700  178.5950  139.4160 O   0  0  0  0  0  1  0  0  0  0  0  0
  179.7700  178.3320  140.5960 C   0  0  2  0  0  3  0  0  0  0  0  0
  179.1350  180.3710  141.6630 O   0  0  0  0  0  1  0  0  0  0  0  0
  179.1110  178.9860  141.8140 C   0  0  2  0  0  3  0  0  0  0  0  0
  179.6880  177.4760  143.5550 O   0  0  0  0  0  0  0  0  0  0  0  0
  179.7670  178.6110  143.1110 C   0  0  0  0  0  3  0  0  0  0  0  0
  181.8720  176.3220  140.1380 C   0  0  0  0  0  2  0  0  0  0  0  0
  182.7720  174.5910  137.4840 C   0  0  2  0  0  0  0  0  0  0  0  0
  181.5060  176.1700  138.6600 C   0  0  1  0  0  3  0  0  0  0  0  0
  183.0730  174.3200  136.0270 C   0  0  0  0  0  2  0  0  0  0  0  0
  182.7790  176.0570  137.8650 C   0  0  0  0  0  2  0  0  0  0  0  0
  184.0160  173.8020  137.1090 C   0  0  1  0  0  3  0  0  0  0  0  0
  181.6780  173.8670  137.9620 O   0  0  0  0  0  0  0  0  0  0  0  0
  180.7590  174.8650  138.3290 C   0  0  1  0  0  3  0  0  0  0  0  0
  178.9320  175.3970  139.7760 F   0  0  0  0  0  0  0  0  0  0  0  0
  179.7400  174.3570  139.3510 C   0  0  0  0  0  0  0  0  0  0  0  0
  178.9450  173.3960  138.7520 F   0  0  0  0  0  0  0  0  0  0  0  0
  180.3840  173.7920  140.4360 F   0  0  0  0  0  0  0  0  0  0  0  0
  185.2690  174.6590  137.1430 C   0  0  0  0  0  2  0  0  0  0  0  0
  186.3480  173.8890  137.5790 O   0  0  0  0  0  1  0  0  0  0  0  0
  187.0190  178.5200  141.4120 C   0  0  0  0  0  2  0  0  0  0  0  0
  188.1950  179.2110  142.0970 C   0  0  0  0  0  2  0  0  0  0  0  0
  189.9530  179.2430  144.6800 O   0  0  0  0  0  0  0  0  0  0  0  0
  188.7040  176.8090  142.5780 C   0  0  2  0  0  3  0  0  0  0  0  0
  189.8750  175.8580  142.8620 C   0  0  0  0  0  2  0  0  0  0  0  0
  189.0110  178.2250  142.7960 N   0  0  0  0  0  0  0  0  0  0  0  0
  191.5060  178.5930  142.9880 C   0  0  0  0  0  2  0  0  0  0  0  0
  191.1720  176.2080  142.1310 C   0  0  2  0  0  3  0  0  0  0  0  0
  190.1320  178.6740  143.5690 C   0  0  0  0  0  0  0  0  0  0  0  0
  192.0300  177.1600  142.9660 C   0  0  0  0  0  2  0  0  0  0  0  0
  187.5190  176.4010  143.4350 C   0  0  0  0  0  1  0  0  0  0  0  0
  190.9210  176.7170  140.8470 O   0  0  0  0  0  0  0  0  0  0  0  0
  193.0770  176.9620  139.8860 C   0  0  0  0  0  2  0  0  0  0  0  0
  192.0480  176.9250  138.7690 C   0  0  2  0  0  3  0  0  0  0  0  0
  191.8460  176.0840  140.0180 C   0  0  2  0  0  3  0  0  0  0  0  0
  190.6210  174.5990  137.4550 O   0  0  0  0  0  0  0  0  0  0  0  0
  193.5060  176.5760  136.7950 C   0  0  0  0  0  1  0  0  0  0  0  0
  191.8670  174.7690  137.3550 C   0  0  0  0  0  0  0  0  0  0  0  0
  192.4330  176.0690  137.6380 N   0  0  0  0  0  0  0  0  0  0  0  0
  192.7290  173.6330  136.9370 C   0  0  0  0  0  0  0  0  0  0  0  0
  194.0420  173.4840  137.4210 C   0  0  0  0  0  0  0  0  0  0  0  0
  192.2510  172.7230  136.0450 N   0  0  0  0  0  0  0  0  0  0  0  0
  194.2740  171.5220  136.0860 N   0  0  0  0  0  0  0  0  0  0  0  0
  194.5810  174.3510  138.3150 F   0  0  0  0  0  0  0  0  0  0  0  0
  194.8020  172.4040  136.9740 C   0  0  0  0  0  3  0  0  0  0  0  0
  193.0050  171.6760  135.6230 C   0  0  0  0  0  3  0  0  0  0  0  0
  1  7  1  0  0  0  0
  3  5  1  0  0  0  0
  5  9  1  0  0  0  0
  5 11  1  1  0  0  0
  6  2  1  6  0  0  0
  6  3  1  0  0  0  0
  6  7  1  0  0  0  0
  7  8  1  0  0  0  0
  8  4  2  0  0  0  0
  8  9  1  0  0  0  0
  9 37  1  1  0  0  0
 11 10  1  6  0  0  0
 11 14  1  0  0  0  0
 13 12  2  0  0  0  0
 13 18  1  0  0  0  0
 14 15  2  0  0  0  0
 16 13  1  0  0  0  0
 16 14  1  0  0  0  0
 18 17  1  6  0  0  0
 18 20  1  0  0  0  0
 20 19  1  6  0  0  0
 20 22  1  0  0  0  0
 22 21  2  0  0  0  0
 23 16  1  0  0  0  0
 24 26  1  6  0  0  0
 24 27  1  0  0  0  0
 24 29  1  0  0  0  0
 25 23  1  1  0  0  0
 26 28  1  0  0  0  0
 27 25  1  0  0  0  0
 28 35  1  6  0  0  0
 28 24  1  0  0  0  0
 29 30  1  0  0  0  0
 30 25  1  0  0  0  0
 30 32  1  1  0  0  0
 32 31  1  0  0  0  0
 32 34  1  0  0  0  0
 33 32  1  0  0  0  0
 35 36  1  0  0  0  0
 37 38  1  0  0  0  0
 38 42  1  0  0  0  0
 40 42  1  0  0  0  0
 40 41  1  0  0  0  0
 40 47  1  1  0  0  0
 42 45  1  0  0  0  0
 43 45  1  0  0  0  0
 44 48  1  6  0  0  0
 44 41  1  0  0  0  0
 44 46  1  0  0  0  0
 45 39  2  0  0  0  0
 46 43  1  0  0  0  0
 49 51  1  0  0  0  0
 50 55  1  6  0  0  0
 50 49  1  0  0  0  0
 50 51  1  0  0  0  0
 51 48  1  1  0  0  0
 53 55  1  0  0  0  0
 54 52  2  0  0  0  0
 54 55  1  0  0  0  0
 56 54  1  0  0  0  0
 56 57  1  0  0  0  0
 57 60  1  0  0  0  0
 58 56  2  0  0  0  0
 59 61  1  0  0  0  0
 61 57  2  0  0  0  0
 62 58  1  0  0  0  0
 62 59  2  0  0  0  0
M  END
>  <MODEL>
6

>  <REMARK>
 VINA RESULT:      -3.7      3.616      7.956
  Name = 
  16 active torsions:
  status: ('A' for Active; 'I' for Inactive)
    1  A    between atoms: C_1  and  C_48
    2  A    between atoms: C_1  and  C_62
    3  A    between atoms: C_6  and  C_44
    4  A    between atoms: C_8  and  C_41
    5  A    between atoms: C_11  and  C_15
    6  A    between atoms: C_15  and  C_59
    7  A    between atoms: C_16  and  C_59
    8  A    between atoms: C_17  and  C_35
    9  A    between atoms: C_18  and  C_24
   10  A    between atoms: C_18  and  N_57
   11  A    between atoms: C_19  and  N_56
   12  A    between atoms: N_20  and  C_48
   13  A    between atoms: C_23  and  O_52
   14  A    between atoms: C_32  and  O_52
   15  A    between atoms: C_35  and  C_38
   16  A    between atoms: C_39  and  C_51
                            x       y       z     vdW  Elec       q    Type
                         _______ _______ _______ _____ _____    ______ ____

>  <TORSDO>
F 16

$$$$
=
 OpenBabel11062416573D

 62 67  0  0  1  0  0  0  0  0999 V2000
  194.2130  176.2940  137.4760 F   0  0  0  0  0  0  0  0  0  0  0  0
  194.0740  177.0510  140.1580 N   0  0  0  0  0  1  0  0  0  0  0  0
  191.6590  177.1910  140.0280 C   0  0  0  0  0  2  0  0  0  0  0  0
  191.9400  175.3890  136.3320 O   0  0  0  0  0  0  0  0  0  0  0  0
  190.4810  177.3660  139.0720 C   0  0  1  0  0  3  0  0  0  0  0  0
  192.9660  177.3480  139.2670 C   0  0  2  0  0  3  0  0  0  0  0  0
  193.0240  176.4710  138.0940 N   0  0  0  0  0  0  0  0  0  0  0  0
  191.8360  176.0280  137.4170 C   0  0  0  0  0  0  0  0  0  0  0  0
  190.4760  176.2280  138.0420 C   0  0  2  0  0  3  0  0  0  0  0  0
  188.3450  176.1820  139.7620 C   0  0  0  0  0  1  0  0  0  0  0  0
  189.1390  177.4840  139.8240 C   0  0  1  0  0  3  0  0  0  0  0  0
  186.5860  178.7000  141.0160 O   0  0  0  0  0  0  0  0  0  0  0  0
  187.0030  178.2730  142.1290 C   0  0  0  0  0  0  0  0  0  0  0  0
  189.3250  177.9650  141.2450 C   0  0  0  0  0  0  0  0  0  0  0  0
  190.3770  178.5780  141.5730 O   0  0  0  0  0  0  0  0  0  0  0  0
  188.3260  177.7220  142.2450 N   0  0  0  0  0  0  0  0  0  0  0  0
  185.7290  177.1690  143.8300 O   0  0  0  0  0  1  0  0  0  0  0  0
  186.1380  178.4140  143.3460 C   0  0  2  0  0  3  0  0  0  0  0  0
  184.9080  180.3220  144.0840 O   0  0  0  0  0  1  0  0  0  0  0  0
  184.9540  179.3490  143.0870 C   0  0  2  0  0  3  0  0  0  0  0  0
  183.2160  178.1730  141.9750 O   0  0  0  0  0  0  0  0  0  0  0  0
  183.6370  178.6320  143.0260 C   0  0  0  0  0  3  0  0  0  0  0  0
  188.7130  176.9890  143.4500 C   0  0  0  0  0  2  0  0  0  0  0  0
  189.9030  177.3160  146.5040 C   0  0  2  0  0  0  0  0  0  0  0  0
  189.7900  177.7660  144.2090 C   0  0  1  0  0  3  0  0  0  0  0  0
  190.4780  178.0190  147.7120 C   0  0  0  0  0  2  0  0  0  0  0  0
  189.2080  178.2300  145.5170 C   0  0  0  0  0  2  0  0  0  0  0  0
  189.3660  176.9890  147.8880 C   0  0  1  0  0  3  0  0  0  0  0  0
  190.7860  176.3990  145.9300 O   0  0  0  0  0  0  0  0  0  0  0  0
  190.9970  176.9100  144.6380 C   0  0  1  0  0  3  0  0  0  0  0  0
  192.4030  176.3590  142.7850 F   0  0  0  0  0  0  0  0  0  0  0  0
  191.4770  175.8300  143.6660 C   0  0  0  0  0  0  0  0  0  0  0  0
  192.0800  174.8150  144.3860 F   0  0  0  0  0  0  0  0  0  0  0  0
  190.4100  175.3050  142.9610 F   0  0  0  0  0  0  0  0  0  0  0  0
  188.0560  177.7020  148.1760 C   0  0  0  0  0  2  0  0  0  0  0  0
  188.0590  178.1680  149.4910 O   0  0  0  0  0  1  0  0  0  0  0  0
  189.3720  176.3760  136.9910 C   0  0  0  0  0  2  0  0  0  0  0  0
  188.3960  175.2030  136.9800 C   0  0  0  0  0  2  0  0  0  0  0  0
  187.9760  177.2820  134.6860 O   0  0  0  0  0  0  0  0  0  0  0  0
  186.5450  174.2730  135.5780 C   0  0  2  0  0  3  0  0  0  0  0  0
  185.1890  174.6510  134.9650 C   0  0  0  0  0  2  0  0  0  0  0  0
  187.3730  175.4180  135.9640 N   0  0  0  0  0  0  0  0  0  0  0  0
  186.0090  177.5480  136.0110 C   0  0  0  0  0  2  0  0  0  0  0  0
  184.3530  175.6110  135.8120 C   0  0  2  0  0  3  0  0  0  0  0  0
  187.1500  176.7480  135.4740 C   0  0  0  0  0  0  0  0  0  0  0  0
  184.6690  177.0660  135.4630 C   0  0  0  0  0  2  0  0  0  0  0  0
  187.3030  173.3990  134.5950 C   0  0  0  0  0  1  0  0  0  0  0  0
  184.5040  175.3560  137.1850 O   0  0  0  0  0  0  0  0  0  0  0  0
  182.3490  174.4050  136.9000 C   0  0  0  0  0  2  0  0  0  0  0  0
  182.2590  175.9000  136.6420 C   0  0  2  0  0  3  0  0  0  0  0  0
  183.2090  175.3650  137.7010 C   0  0  2  0  0  3  0  0  0  0  0  0
  181.7430  178.7900  137.3870 O   0  0  0  0  0  0  0  0  0  0  0  0
  179.8690  175.7660  137.2840 C   0  0  0  0  0  1  0  0  0  0  0  0
  181.1240  177.8330  137.9300 C   0  0  0  0  0  0  0  0  0  0  0  0
  181.1010  176.5420  137.2790 N   0  0  0  0  0  0  0  0  0  0  0  0
  180.4220  178.0530  139.2210 C   0  0  0  0  0  0  0  0  0  0  0  0
  180.5300  177.1400  140.2850 C   0  0  0  0  0  0  0  0  0  0  0  0
  179.6340  179.1510  139.3750 N   0  0  0  0  0  0  0  0  0  0  0  0
  179.0610  178.5140  141.5660 N   0  0  0  0  0  0  0  0  0  0  0  0
  181.3000  176.0260  140.2020 F   0  0  0  0  0  0  0  0  0  0  0  0
  179.8290  177.3990  141.4630 C   0  0  0  0  0  3  0  0  0  0  0  0
  178.9620  179.3890  140.5300 C   0  0  0  0  0  3  0  0  0  0  0  0
  1  7  1  0  0  0  0
  4  8  2  0  0  0  0
  5 11  1  1  0  0  0
  5  3  1  0  0  0  0
  6  3  1  0  0  0  0
  6  2  1  1  0  0  0
  7  6  1  0  0  0  0
  8  9  1  0  0  0  0
  8  7  1  0  0  0  0
  9 37  1  6  0  0  0
  9  5  1  0  0  0  0
 11 10  1  1  0  0  0
 11 14  1  0  0  0  0
 12 13  2  0  0  0  0
 13 16  1  0  0  0  0
 13 18  1  0  0  0  0
 14 15  2  0  0  0  0
 14 16  1  0  0  0  0
 16 23  1  0  0  0  0
 18 17  1  6  0  0  0
 20 18  1  0  0  0  0
 20 19  1  1  0  0  0
 21 22  2  0  0  0  0
 22 20  1  0  0  0  0
 24 27  1  6  0  0  0
 24 26  1  0  0  0  0
 24 28  1  0  0  0  0
 25 23  1  1  0  0  0
 25 30  1  0  0  0  0
 25 27  1  0  0  0  0
 26 28  1  0  0  0  0
 28 35  1  6  0  0  0
 29 24  1  0  0  0  0
 30 32  1  6  0  0  0
 30 29  1  0  0  0  0
 31 32  1  0  0  0  0
 32 33  1  0  0  0  0
 34 32  1  0  0  0  0
 35 36  1  0  0  0  0
 38 37  1  0  0  0  0
 39 45  2  0  0  0  0
 40 47  1  6  0  0  0
 40 42  1  0  0  0  0
 41 40  1  0  0  0  0
 41 44  1  0  0  0  0
 42 38  1  0  0  0  0
 44 48  1  1  0  0  0
 45 42  1  0  0  0  0
 45 43  1  0  0  0  0
 46 44  1  0  0  0  0
 46 43  1  0  0  0  0
 49 51  1  0  0  0  0
 50 49  1  0  0  0  0
 50 55  1  1  0  0  0
 50 51  1  0  0  0  0
 51 48  1  6  0  0  0
 52 54  2  0  0  0  0
 54 56  1  0  0  0  0
 55 53  1  0  0  0  0
 55 54  1  0  0  0  0
 56 58  2  0  0  0  0
 56 57  1  0  0  0  0
 57 61  2  0  0  0  0
 58 62  1  0  0  0  0
 60 57  1  0  0  0  0
 61 59  1  0  0  0  0
 62 59  2  0  0  0  0
M  END
>  <MODEL>
7

>  <REMARK>
 VINA RESULT:      -3.4      3.413      9.262
  Name = 
  16 active torsions:
  status: ('A' for Active; 'I' for Inactive)
    1  A    between atoms: C_1  and  C_48
    2  A    between atoms: C_1  and  C_62
    3  A    between atoms: C_6  and  C_44
    4  A    between atoms: C_8  and  C_41
    5  A    between atoms: C_11  and  C_15
    6  A    between atoms: C_15  and  C_59
    7  A    between atoms: C_16  and  C_59
    8  A    between atoms: C_17  and  C_35
    9  A    between atoms: C_18  and  C_24
   10  A    between atoms: C_18  and  N_57
   11  A    between atoms: C_19  and  N_56
   12  A    between atoms: N_20  and  C_48
   13  A    between atoms: C_23  and  O_52
   14  A    between atoms: C_32  and  O_52
   15  A    between atoms: C_35  and  C_38
   16  A    between atoms: C_39  and  C_51
                            x       y       z     vdW  Elec       q    Type
                         _______ _______ _______ _____ _____    ______ ____

>  <TORSDO>
F 16

$$$$
=
 OpenBabel11062416573D

 62 67  0  0  1  0  0  0  0  0999 V2000
  187.5570  178.5160  142.9810 F   0  0  0  0  0  0  0  0  0  0  0  0
  184.8720  179.2290  143.2400 N   0  0  0  0  0  1  0  0  0  0  0  0
  184.5370  178.9650  140.8550 C   0  0  0  0  0  2  0  0  0  0  0  0
  188.2800  177.2480  140.7080 O   0  0  0  0  0  0  0  0  0  0  0  0
  185.2450  178.9440  139.5030 C   0  0  1  0  0  3  0  0  0  0  0  0
  185.5260  179.3410  141.9480 C   0  0  2  0  0  3  0  0  0  0  0  0
  186.7190  178.4900  141.9210 N   0  0  0  0  0  0  0  0  0  0  0  0
  187.1740  177.8570  140.7130 C   0  0  0  0  0  0  0  0  0  0  0  0
  186.2950  177.8250  139.4850 C   0  0  2  0  0  3  0  0  0  0  0  0
  184.0670  177.3860  137.8820 C   0  0  0  0  0  1  0  0  0  0  0  0
  184.2490  178.8340  138.3300 C   0  0  1  0  0  3  0  0  0  0  0  0
  182.3590  178.9310  135.9140 O   0  0  0  0  0  0  0  0  0  0  0  0
  181.4180  178.8530  136.7530 C   0  0  0  0  0  0  0  0  0  0  0  0
  182.9270  179.4980  138.6440 C   0  0  0  0  0  0  0  0  0  0  0  0
  182.8950  180.5410  139.3520 O   0  0  0  0  0  0  0  0  0  0  0  0
  181.6920  178.9520  138.1610 N   0  0  0  0  0  0  0  0  0  0  0  0
  179.9050  177.8470  135.1920 O   0  0  0  0  0  1  0  0  0  0  0  0
  180.0040  178.7320  136.2690 C   0  0  2  0  0  3  0  0  0  0  0  0
  179.0660  180.1510  134.5940 O   0  0  0  0  0  1  0  0  0  0  0  0
  179.4040  180.1030  135.9460 C   0  0  2  0  0  3  0  0  0  0  0  0
  180.1680  181.9090  137.2860 O   0  0  0  0  0  0  0  0  0  0  0  0
  180.3230  181.2420  136.2740 C   0  0  0  0  0  3  0  0  0  0  0  0
  180.6620  178.5970  139.1360 C   0  0  0  0  0  2  0  0  0  0  0  0
  180.0470  178.1530  142.3420 C   0  0  2  0  0  0  0  0  0  0  0  0
  181.3100  177.9820  140.3780 C   0  0  1  0  0  3  0  0  0  0  0  0
  180.3390  178.0650  143.8220 C   0  0  0  0  0  2  0  0  0  0  0  0
  181.0840  178.9110  141.5410 C   0  0  0  0  0  2  0  0  0  0  0  0
  179.0950  178.8010  143.3340 C   0  0  1  0  0  3  0  0  0  0  0  0
  179.6530  176.9340  141.7850 O   0  0  0  0  0  0  0  0  0  0  0  0
  180.6590  176.6660  140.8410 C   0  0  1  0  0  3  0  0  0  0  0  0
  178.9950  176.1440  139.2060 F   0  0  0  0  0  0  0  0  0  0  0  0
  180.1820  175.6960  139.7570 C   0  0  0  0  0  0  0  0  0  0  0  0
  181.1380  175.6330  138.7590 F   0  0  0  0  0  0  0  0  0  0  0  0
  180.0030  174.4310  140.2850 F   0  0  0  0  0  0  0  0  0  0  0  0
  179.3170  180.3000  143.4450 C   0  0  0  0  0  2  0  0  0  0  0  0
  179.4060  180.8530  142.1680 O   0  0  0  0  0  1  0  0  0  0  0  0
  187.1120  177.7910  138.1900 C   0  0  0  0  0  2  0  0  0  0  0  0
  187.6890  176.4120  137.8830 C   0  0  0  0  0  2  0  0  0  0  0  0
  187.1290  174.4260  135.5380 O   0  0  0  0  0  0  0  0  0  0  0  0
  188.4820  177.5870  135.8210 C   0  0  2  0  0  3  0  0  0  0  0  0
  189.3820  177.3920  134.5940 C   0  0  0  0  0  2  0  0  0  0  0  0
  188.0850  176.3400  136.4810 N   0  0  0  0  0  0  0  0  0  0  0  0
  189.5100  174.4040  135.6950 C   0  0  0  0  0  2  0  0  0  0  0  0
  190.6270  176.5400  134.8450 C   0  0  2  0  0  3  0  0  0  0  0  0
  188.1750  175.0550  135.8510 C   0  0  0  0  0  0  0  0  0  0  0  0
  190.3380  175.0590  134.5940 C   0  0  0  0  0  2  0  0  0  0  0  0
  187.2460  178.3640  135.4070 C   0  0  0  0  0  1  0  0  0  0  0  0
  191.1540  176.7610  136.1280 O   0  0  0  0  0  0  0  0  0  0  0  0
  191.9110  175.2480  137.7920 C   0  0  0  0  0  2  0  0  0  0  0  0
  193.0760  176.1260  137.3670 C   0  0  2  0  0  3  0  0  0  0  0  0
  192.0310  175.7000  136.3490 C   0  0  2  0  0  3  0  0  0  0  0  0
  194.9380  176.0150  134.9800 O   0  0  0  0  0  0  0  0  0  0  0  0
  194.9680  174.8580  138.3460 C   0  0  0  0  0  1  0  0  0  0  0  0
  194.9100  175.1070  135.8560 C   0  0  0  0  0  0  0  0  0  0  0  0
  194.3270  175.3840  137.1490 N   0  0  0  0  0  0  0  0  0  0  0  0
  195.4860  173.7730  135.5460 C   0  0  0  0  0  0  0  0  0  0  0  0
  194.6980  172.7300  135.0270 C   0  0  0  0  0  0  0  0  0  0  0  0
  196.8040  173.5410  135.7900 N   0  0  0  0  0  0  0  0  0  0  0  0
  196.6210  171.3200  135.0320 N   0  0  0  0  0  0  0  0  0  0  0  0
  193.3780  172.8920  134.7570 F   0  0  0  0  0  0  0  0  0  0  0  0
  195.3000  171.4970  134.7750 C   0  0  0  0  0  3  0  0  0  0  0  0
  197.3740  172.3350  135.5350 C   0  0  0  0  0  3  0  0  0  0  0  0
  3  6  1  0  0  0  0
  4  8  2  0  0  0  0
  5 11  1  6  0  0  0
  5  3  1  0  0  0  0
  6  2  1  1  0  0  0
  7  6  1  0  0  0  0
  7  1  1  0  0  0  0
  8  7  1  0  0  0  0
  9 37  1  6  0  0  0
  9  5  1  0  0  0  0
  9  8  1  0  0  0  0
 11 10  1  1  0  0  0
 11 14  1  0  0  0  0
 12 13  2  0  0  0  0
 13 16  1  0  0  0  0
 14 15  2  0  0  0  0
 16 14  1  0  0  0  0
 16 23  1  0  0  0  0
 18 17  1  6  0  0  0
 18 13  1  0  0  0  0
 20 19  1  6  0  0  0
 20 18  1  0  0  0  0
 20 22  1  0  0  0  0
 22 21  2  0  0  0  0
 24 27  1  6  0  0  0
 24 28  1  0  0  0  0
 24 26  1  0  0  0  0
 25 23  1  6  0  0  0
 25 30  1  0  0  0  0
 25 27  1  0  0  0  0
 28 35  1  6  0  0  0
 28 26  1  0  0  0  0
 29 24  1  0  0  0  0
 30 32  1  6  0  0  0
 30 29  1  0  0  0  0
 31 32  1  0  0  0  0
 32 34  1  0  0  0  0
 33 32  1  0  0  0  0
 36 35  1  0  0  0  0
 38 37  1  0  0  0  0
 39 45  2  0  0  0  0
 40 47  1  6  0  0  0
 40 42  1  0  0  0  0
 41 44  1  0  0  0  0
 41 40  1  0  0  0  0
 42 38  1  0  0  0  0
 43 45  1  0  0  0  0
 44 48  1  1  0  0  0
 45 42  1  0  0  0  0
 46 44  1  0  0  0  0
 46 43  1  0  0  0  0
 50 55  1  6  0  0  0
 50 49  1  0  0  0  0
 51 48  1  1  0  0  0
 51 50  1  0  0  0  0
 51 49  1  0  0  0  0
 52 54  2  0  0  0  0
 54 55  1  0  0  0  0
 55 53  1  0  0  0  0
 56 58  1  0  0  0  0
 56 54  1  0  0  0  0
 57 56  2  0  0  0  0
 59 62  1  0  0  0  0
 60 57  1  0  0  0  0
 61 57  1  0  0  0  0
 61 59  2  0  0  0  0
 62 58  2  0  0  0  0
M  END
>  <MODEL>
8

>  <REMARK>
 VINA RESULT:      -3.3      3.766      7.390
  Name = 
  16 active torsions:
  status: ('A' for Active; 'I' for Inactive)
    1  A    between atoms: C_1  and  C_48
    2  A    between atoms: C_1  and  C_62
    3  A    between atoms: C_6  and  C_44
    4  A    between atoms: C_8  and  C_41
    5  A    between atoms: C_11  and  C_15
    6  A    between atoms: C_15  and  C_59
    7  A    between atoms: C_16  and  C_59
    8  A    between atoms: C_17  and  C_35
    9  A    between atoms: C_18  and  C_24
   10  A    between atoms: C_18  and  N_57
   11  A    between atoms: C_19  and  N_56
   12  A    between atoms: N_20  and  C_48
   13  A    between atoms: C_23  and  O_52
   14  A    between atoms: C_32  and  O_52
   15  A    between atoms: C_35  and  C_38
   16  A    between atoms: C_39  and  C_51
                            x       y       z     vdW  Elec       q    Type
                         _______ _______ _______ _____ _____    ______ ____

>  <TORSDO>
F 16

$$$$
=
 OpenBabel11062416573D

 62 67  0  0  1  0  0  0  0  0999 V2000
  193.3620  177.6800  141.0760 F   0  0  0  0  0  0  0  0  0  0  0  0
  192.1720  177.9310  143.5880 N   0  0  0  0  0  1  0  0  0  0  0  0
  189.9720  177.6650  142.6090 C   0  0  0  0  0  2  0  0  0  0  0  0
  191.8640  176.5980  139.1060 O   0  0  0  0  0  0  0  0  0  0  0  0
  189.1720  177.7910  141.3150 C   0  0  1  0  0  3  0  0  0  0  0  0
  191.3870  178.1760  142.3900 C   0  0  2  0  0  3  0  0  0  0  0  0
  192.0280  177.5360  141.2370 N   0  0  0  0  0  0  0  0  0  0  0  0
  191.2640  177.0140  140.1380 C   0  0  0  0  0  0  0  0  0  0  0  0
  189.7660  176.8620  140.2460 C   0  0  2  0  0  3  0  0  0  0  0  0
  187.4250  176.5600  142.6840 C   0  0  0  0  0  1  0  0  0  0  0  0
  187.6660  177.5410  141.5390 C   0  0  1  0  0  3  0  0  0  0  0  0
  185.3620  177.8650  139.5380 O   0  0  0  0  0  0  0  0  0  0  0  0
  184.7700  178.5070  140.4510 C   0  0  0  0  0  0  0  0  0  0  0  0
  186.8990  178.8300  141.7290 C   0  0  0  0  0  0  0  0  0  0  0  0
  187.5160  179.9040  141.9670 O   0  0  0  0  0  0  0  0  0  0  0  0
  185.4670  178.8560  141.6600 N   0  0  0  0  0  0  0  0  0  0  0  0
  182.4590  177.9040  140.2890 O   0  0  0  0  0  1  0  0  0  0  0  0
  183.3610  178.9700  140.2360 C   0  0  2  0  0  3  0  0  0  0  0  0
  184.2910  180.6690  138.8420 O   0  0  0  0  0  1  0  0  0  0  0  0
  183.2270  179.7740  138.9400 C   0  0  2  0  0  3  0  0  0  0  0  0
  181.8490  181.5670  138.2120 O   0  0  0  0  0  0  0  0  0  0  0  0
  181.9300  180.5240  138.8420 C   0  0  0  0  0  3  0  0  0  0  0  0
  184.7250  179.3540  142.8170 C   0  0  0  0  0  2  0  0  0  0  0  0
  184.7720  178.6430  146.0330 C   0  0  2  0  0  0  0  0  0  0  0  0
  184.4000  178.1990  143.7650 C   0  0  1  0  0  3  0  0  0  0  0  0
  184.9660  177.8070  147.2770 C   0  0  0  0  0  2  0  0  0  0  0  0
  185.4850  178.1170  144.8050 C   0  0  0  0  0  2  0  0  0  0  0  0
  185.4780  179.2430  147.2380 C   0  0  1  0  0  3  0  0  0  0  0  0
  183.4420  179.0160  145.8240 O   0  0  0  0  0  0  0  0  0  0  0  0
  183.1210  178.4090  144.5970 C   0  0  1  0  0  3  0  0  0  0  0  0
  180.9400  179.3590  144.8320 F   0  0  0  0  0  0  0  0  0  0  0  0
  181.9380  179.0960  143.9110 C   0  0  0  0  0  0  0  0  0  0  0  0
  182.3680  180.2940  143.3700 F   0  0  0  0  0  0  0  0  0  0  0  0
  181.4390  178.3010  142.8960 F   0  0  0  0  0  0  0  0  0  0  0  0
  186.9890  179.2380  147.0770 C   0  0  0  0  0  2  0  0  0  0  0  0
  187.3370  178.4540  145.9770 O   0  0  0  0  0  1  0  0  0  0  0  0
  189.0710  176.9920  138.8870 C   0  0  0  0  0  2  0  0  0  0  0  0
  190.0390  177.3000  137.7480 C   0  0  0  0  0  2  0  0  0  0  0  0
  190.1290  177.6930  134.6510 O   0  0  0  0  0  0  0  0  0  0  0  0
  189.7800  175.0050  136.7850 C   0  0  2  0  0  3  0  0  0  0  0  0
  188.9480  174.2110  135.7680 C   0  0  0  0  0  2  0  0  0  0  0  0
  189.7350  176.4580  136.5970 N   0  0  0  0  0  0  0  0  0  0  0  0
  187.8480  177.1140  135.0460 C   0  0  0  0  0  2  0  0  0  0  0  0
  187.4900  174.6570  135.6520 C   0  0  2  0  0  3  0  0  0  0  0  0
  189.3040  177.0780  135.3780 C   0  0  0  0  0  0  0  0  0  0  0  0
  187.3340  175.7510  134.5940 C   0  0  0  0  0  2  0  0  0  0  0  0
  191.2180  174.5240  136.7270 C   0  0  0  0  0  1  0  0  0  0  0  0
  186.9690  175.0510  136.8950 O   0  0  0  0  0  0  0  0  0  0  0  0
  186.2440  172.8640  136.3270 C   0  0  0  0  0  2  0  0  0  0  0  0
  185.1170  173.8400  136.0370 C   0  0  2  0  0  3  0  0  0  0  0  0
  186.0360  174.0690  137.2260 C   0  0  2  0  0  3  0  0  0  0  0  0
  182.3180  174.6330  135.1910 O   0  0  0  0  0  0  0  0  0  0  0  0
  183.7920  172.1290  137.2460 C   0  0  0  0  0  1  0  0  0  0  0  0
  182.5580  174.0930  136.3060 C   0  0  0  0  0  0  0  0  0  0  0  0
  183.8000  173.3780  136.4970 N   0  0  0  0  0  0  0  0  0  0  0  0
  181.5550  174.1920  137.3980 C   0  0  0  0  0  0  0  0  0  0  0  0
  180.4080  173.3770  137.4240 C   0  0  0  0  0  0  0  0  0  0  0  0
  181.7320  175.1100  138.3860 N   0  0  0  0  0  0  0  0  0  0  0  0
  179.7260  174.4630  139.4350 N   0  0  0  0  0  0  0  0  0  0  0  0
  180.1710  172.4390  136.4730 F   0  0  0  0  0  0  0  0  0  0  0  0
  179.4990  173.5350  138.4700 C   0  0  0  0  0  3  0  0  0  0  0  0
  180.8360  175.2470  139.3980 C   0  0  0  0  0  3  0  0  0  0  0  0
  1  7  1  0  0  0  0
  4  8  2  0  0  0  0
  5 11  1  1  0  0  0
  5  3  1  0  0  0  0
  6  3  1  0  0  0  0
  6  2  1  1  0  0  0
  7  6  1  0  0  0  0
  8  9  1  0  0  0  0
  8  7  1  0  0  0  0
  9 37  1  6  0  0  0
  9  5  1  0  0  0  0
 11 14  1  0  0  0  0
 11 10  1  1  0  0  0
 12 13  2  0  0  0  0
 13 16  1  0  0  0  0
 14 15  2  0  0  0  0
 16 14  1  0  0  0  0
 16 23  1  0  0  0  0
 18 17  1  6  0  0  0
 18 13  1  0  0  0  0
 20 19  1  1  0  0  0
 20 18  1  0  0  0  0
 21 22  2  0  0  0  0
 22 20  1  0  0  0  0
 24 27  1  6  0  0  0
 24 28  1  0  0  0  0
 24 26  1  0  0  0  0
 25 23  1  6  0  0  0
 25 30  1  0  0  0  0
 25 27  1  0  0  0  0
 28 35  1  6  0  0  0
 28 26  1  0  0  0  0
 29 24  1  0  0  0  0
 30 32  1  6  0  0  0
 30 29  1  0  0  0  0
 32 31  1  0  0  0  0
 33 32  1  0  0  0  0
 34 32  1  0  0  0  0
 36 35  1  0  0  0  0
 38 37  1  0  0  0  0
 39 45  2  0  0  0  0
 40 47  1  6  0  0  0
 41 40  1  0  0  0  0
 42 40  1  0  0  0  0
 42 38  1  0  0  0  0
 43 45  1  0  0  0  0
 44 41  1  0  0  0  0
 44 48  1  1  0  0  0
 45 42  1  0  0  0  0
 46 43  1  0  0  0  0
 46 44  1  0  0  0  0
 49 51  1  0  0  0  0
 50 49  1  0  0  0  0
 50 55  1  1  0  0  0
 50 51  1  0  0  0  0
 51 48  1  6  0  0  0
 52 54  2  0  0  0  0
 54 55  1  0  0  0  0
 54 56  1  0  0  0  0
 55 53  1  0  0  0  0
 56 57  2  0  0  0  0
 56 58  1  0  0  0  0
 57 61  1  0  0  0  0
 58 62  2  0  0  0  0
 60 57  1  0  0  0  0
 61 59  2  0  0  0  0
 62 59  1  0  0  0  0
M  END
>  <MODEL>
9

>  <REMARK>
 VINA RESULT:      -3.3      4.061      8.725
  Name = 
  16 active torsions:
  status: ('A' for Active; 'I' for Inactive)
    1  A    between atoms: C_1  and  C_48
    2  A    between atoms: C_1  and  C_62
    3  A    between atoms: C_6  and  C_44
    4  A    between atoms: C_8  and  C_41
    5  A    between atoms: C_11  and  C_15
    6  A    between atoms: C_15  and  C_59
    7  A    between atoms: C_16  and  C_59
    8  A    between atoms: C_17  and  C_35
    9  A    between atoms: C_18  and  C_24
   10  A    between atoms: C_18  and  N_57
   11  A    between atoms: C_19  and  N_56
   12  A    between atoms: N_20  and  C_48
   13  A    between atoms: C_23  and  O_52
   14  A    between atoms: C_32  and  O_52
   15  A    between atoms: C_35  and  C_38
   16  A    between atoms: C_39  and  C_51
                            x       y       z     vdW  Elec       q    Type
                         _______ _______ _______ _____ _____    ______ ____

>  <TORSDO>
F 16

$$$$
