=
 OpenBabel11062414213D

 45 52  0  0  1  0  0  0  0  0999 V2000
  188.1010  177.6100  138.7950 C   0  0  1  0  0  3  0  0  0  0  0  0
  188.7190  178.6960  137.9300 C   0  0  0  0  0  2  0  0  0  0  0  0
  187.4960  176.9820  137.5530 C   0  0  2  0  0  3  0  0  0  0  0  0
  188.0840  178.0840  136.6920 C   0  0  2  0  0  3  0  0  0  0  0  0
  182.9210  174.9760  135.4500 C   0  0  1  0  0  0  0  0  0  0  0  0
  184.3560  174.7030  135.0260 C   0  0  1  0  0  3  0  0  0  0  0  0
  186.0330  177.0300  137.5800 N   0  0  0  0  0  0  0  0  0  0  0  0
  181.4280  176.1150  136.9990 O   0  0  0  0  0  1  0  0  0  0  0  0
  185.2160  175.9160  137.1460 C   0  0  2  0  0  3  0  0  0  0  0  0
  185.3560  175.7050  135.6330 C   0  0  0  0  0  2  0  0  0  0  0  0
  183.7680  176.2470  137.5880 C   0  0  1  0  0  3  0  0  0  0  0  0
  183.7720  177.6620  138.1760 C   0  0  2  0  0  3  0  0  0  0  0  0
  185.2070  178.0310  138.1550 C   0  0  0  0  0  0  0  0  0  0  0  0
  185.6480  179.1310  138.5800 O   0  0  0  0  0  0  0  0  0  0  0  0
  182.7220  176.1300  136.4660 C   0  0  1  0  0  3  0  0  0  0  0  0
  182.2730  173.7940  135.8500 O   0  0  0  0  0  0  0  0  0  0  0  0
  183.6640  173.8150  136.0480 C   0  0  2  0  0  3  0  0  0  0  0  0
  183.2870  177.6090  139.5460 N   0  0  0  0  0  2  0  0  0  0  0  0
  180.4250  180.0790  140.4100 C   0  0  0  0  0  3  0  0  0  0  0  0
  181.4170  179.6050  139.1330 S   0  0  0  0  0  0  0  0  0  0  0  0
  181.8090  178.4230  141.3080 N   0  0  0  0  0  0  0  0  0  0  0  0
  180.7960  179.3090  141.5100 C   0  0  0  0  0  0  0  0  0  0  0  0
  180.1230  179.4390  142.8290 C   0  0  0  0  0  1  0  0  0  0  0  0
  182.2560  178.4690  140.0370 C   0  0  0  0  0  0  0  0  0  0  0  0
  188.5140  177.5260  134.5950 C   0  0  0  0  0  1  0  0  0  0  0  0
  189.0820  177.5560  135.8710 O   0  0  0  0  0  0  0  0  0  0  0  0
  189.1180  176.7610  139.3160 O   0  0  0  0  0  0  0  0  0  0  0  0
  190.0560  177.2110  140.2490 C   0  0  0  0  0  0  0  0  0  0  0  0
  191.2560  177.3560  139.8970 O   0  0  0  0  0  0  0  0  0  0  0  0
  189.6430  177.5510  141.6550 C   0  0  0  0  0  2  0  0  0  0  0  0
  191.9130  177.9280  144.3280 C   0  0  0  0  0  2  0  0  0  0  0  0
  189.7400  176.8700  144.1760 C   0  0  1  0  0  3  0  0  0  0  0  0
  191.8190  177.3440  142.9430 C   0  0  0  0  0  2  0  0  0  0  0  0
  190.4880  175.4740  142.4120 O   0  0  0  0  0  1  0  0  0  0  0  0
  190.3990  176.8140  142.7780 C   0  0  2  0  0  0  0  0  0  0  0  0
  190.8620  177.2160  145.1460 C   0  0  0  0  0  2  0  0  0  0  0  0
  188.5000  178.5250  145.6950 C   0  0  0  0  0  2  0  0  0  0  0  0
  187.6390  177.8300  146.7610 C   0  0  2  0  0  3  0  0  0  0  0  0
  186.0190  177.6340  144.7710 C   0  0  0  0  0  2  0  0  0  0  0  0
  188.2440  176.5660  147.1480 N   0  0  0  0  0  1  0  0  0  0  0  0
  187.2180  176.9870  144.0890 C   0  0  0  0  0  2  0  0  0  0  0  0
  186.1900  177.5990  146.2930 C   0  0  2  0  0  3  0  0  0  0  0  0
  188.5090  177.7890  144.3330 C   0  0  2  0  0  3  0  0  0  0  0  0
  185.2800  178.5980  146.9170 C   0  0  0  0  0  3  0  0  0  0  0  0
  184.2900  178.9920  146.3190 O   0  0  0  0  0  0  0  0  0  0  0  0
  1 27  1  6  0  0  0
  2  1  1  0  0  0  0
  3  7  1  1  0  0  0
  3  1  1  0  0  0  0
  4 26  1  6  0  0  0
  4  3  1  0  0  0  0
  4  2  1  0  0  0  0
  5 16  1  6  0  0  0
  5 17  1  0  0  0  0
  5 15  1  0  0  0  0
  6  5  1  0  0  0  0
  6 10  1  1  0  0  0
  6 17  1  0  0  0  0
  7 13  1  0  0  0  0
  9 10  1  6  0  0  0
  9  7  1  0  0  0  0
  9 11  1  0  0  0  0
 11 12  1  0  0  0  0
 12 18  1  0  0  0  0
 13 12  1  0  0  0  0
 13 14  2  0  0  0  0
 15  8  1  0  0  0  0
 15 11  1  0  0  0  0
 16 17  1  0  0  0  0
 18 24  1  0  0  0  0
 19 22  2  0  0  0  0
 20 24  1  0  0  0  0
 20 19  1  0  0  0  0
 21 22  1  0  0  0  0
 22 23  1  0  0  0  0
 24 21  2  0  0  0  0
 25 26  1  0  0  0  0
 27 28  1  0  0  0  0
 28 30  1  0  0  0  0
 29 28  2  0  0  0  0
 30 35  1  0  0  0  0
 31 36  1  0  0  0  0
 32 43  1  0  0  0  0
 32 36  1  0  0  0  0
 33 31  1  0  0  0  0
 34 35  1  0  0  0  0
 35 33  1  0  0  0  0
 35 32  1  0  0  0  0
 37 38  1  0  0  0  0
 38 40  1  0  0  0  0
 39 42  1  0  0  0  0
 41 43  1  0  0  0  0
 41 39  1  0  0  0  0
 42 38  1  0  0  0  0
 42 44  1  0  0  0  0
 43 37  1  0  0  0  0
 45 44  2  0  0  0  0
M  END
>  <MODEL>
1

>  <REMARK>
 VINA RESULT:      -8.8      0.000      0.000
  Name = 
  9 active torsions:
  status: ('A' for Active; 'I' for Inactive)
    1  A    between atoms: N_1  and  C_16
    2  A    between atoms: N_5  and  C_29
    3  A    between atoms: C_7  and  O_39
    4  A    between atoms: C_20  and  C_28
    5  A    between atoms: C_20  and  C_32
    6  A    between atoms: C_22  and  C_43
    7  A    between atoms: C_27  and  C_31
    8  A    between atoms: C_32  and  O_39
    9  A    between atoms: O_33  and  C_38
                            x       y       z     vdW  Elec       q    Type
                         _______ _______ _______ _____ _____    ______ ____

>  <TORSDO>
F 9

$$$$
=
 OpenBabel11062414213D

 45 52  0  0  1  0  0  0  0  0999 V2000
  184.4180  178.4670  140.3120 C   0  0  1  0  0  3  0  0  0  0  0  0
  182.9870  178.9740  140.3760 C   0  0  0  0  0  2  0  0  0  0  0  0
  184.5380  179.0150  138.9020 C   0  0  2  0  0  3  0  0  0  0  0  0
  183.0980  179.4920  138.9510 C   0  0  2  0  0  3  0  0  0  0  0  0
  188.0400  176.6140  135.5330 C   0  0  1  0  0  0  0  0  0  0  0  0
  188.2390  177.8710  136.3660 C   0  0  1  0  0  3  0  0  0  0  0  0
  184.7270  177.9460  137.9200 N   0  0  0  0  0  0  0  0  0  0  0  0
  186.5630  174.7750  134.9280 O   0  0  0  0  0  1  0  0  0  0  0  0
  186.0310  177.3870  137.6310 C   0  0  2  0  0  3  0  0  0  0  0  0
  186.9180  178.4260  136.9310 C   0  0  0  0  0  2  0  0  0  0  0  0
  185.7760  176.1210  136.7730 C   0  0  1  0  0  3  0  0  0  0  0  0
  184.2750  176.0570  136.4740 C   0  0  2  0  0  3  0  0  0  0  0  0
  183.7270  177.1950  137.2490 C   0  0  0  0  0  0  0  0  0  0  0  0
  182.5020  177.4830  137.2900 O   0  0  0  0  0  0  0  0  0  0  0  0
  186.5910  176.0650  135.4690 C   0  0  1  0  0  3  0  0  0  0  0  0
  188.9730  175.6200  135.8780 O   0  0  0  0  0  0  0  0  0  0  0  0
  188.6270  176.5060  136.9120 C   0  0  2  0  0  3  0  0  0  0  0  0
  183.7420  174.8010  136.9810 N   0  0  0  0  0  2  0  0  0  0  0  0
  180.7200  173.3520  135.0310 C   0  0  0  0  0  3  0  0  0  0  0  0
  181.7790  174.6620  135.0370 S   0  0  0  0  0  0  0  0  0  0  0  0
  182.1190  172.9850  136.8680 N   0  0  0  0  0  0  0  0  0  0  0  0
  181.0760  172.5460  136.1100 C   0  0  0  0  0  0  0  0  0  0  0  0
  180.3660  171.2770  136.4170 C   0  0  0  0  0  1  0  0  0  0  0  0
  182.6150  174.1460  136.3960 C   0  0  0  0  0  0  0  0  0  0  0  0
  181.8730  181.2210  138.3160 C   0  0  0  0  0  1  0  0  0  0  0  0
  183.0670  180.8880  138.9600 O   0  0  0  0  0  0  0  0  0  0  0  0
  185.2440  179.2220  141.1930 O   0  0  0  0  0  0  0  0  0  0  0  0
  186.1380  178.6130  142.0780 C   0  0  0  0  0  0  0  0  0  0  0  0
  187.3720  178.6500  141.8320 O   0  0  0  0  0  0  0  0  0  0  0  0
  185.6460  177.9430  143.3320 C   0  0  0  0  0  2  0  0  0  0  0  0
  184.3120  178.1470  146.5900 C   0  0  0  0  0  2  0  0  0  0  0  0
  186.4820  178.7200  145.6820 C   0  0  1  0  0  3  0  0  0  0  0  0
  184.0700  178.6480  145.1910 C   0  0  0  0  0  2  0  0  0  0  0  0
  185.4900  180.1770  144.0970 O   0  0  0  0  0  1  0  0  0  0  0  0
  185.4370  178.8620  144.5520 C   0  0  2  0  0  0  0  0  0  0  0  0
  185.6820  178.6520  146.9760 C   0  0  0  0  0  2  0  0  0  0  0  0
  187.7440  176.8440  146.8970 C   0  0  0  0  0  2  0  0  0  0  0  0
  188.9850  177.3470  147.6510 C   0  0  2  0  0  3  0  0  0  0  0  0
  189.9990  177.2130  145.2890 C   0  0  0  0  0  2  0  0  0  0  0  0
  188.7700  178.7070  148.1170 N   0  0  0  0  0  1  0  0  0  0  0  0
  188.8090  178.0920  144.9230 C   0  0  0  0  0  2  0  0  0  0  0  0
  190.2640  177.2800  146.7970 C   0  0  2  0  0  3  0  0  0  0  0  0
  187.5040  177.5690  145.5500 C   0  0  2  0  0  3  0  0  0  0  0  0
  191.0970  176.1140  147.2040 C   0  0  0  0  0  3  0  0  0  0  0  0
  192.1740  175.9050  146.6680 O   0  0  0  0  0  0  0  0  0  0  0  0
  1  2  1  0  0  0  0
  1 27  1  1  0  0  0
  3  7  1  6  0  0  0
  3  4  1  0  0  0  0
  3  1  1  0  0  0  0
  4 26  1  1  0  0  0
  4  2  1  0  0  0  0
  5 16  1  6  0  0  0
  5  6  1  0  0  0  0
  5 17  1  0  0  0  0
  6 17  1  0  0  0  0
  6 10  1  1  0  0  0
  8 15  1  0  0  0  0
  9 10  1  6  0  0  0
  9  7  1  0  0  0  0
 11  9  1  0  0  0  0
 12 11  1  0  0  0  0
 12 18  1  0  0  0  0
 12 13  1  0  0  0  0
 13 14  2  0  0  0  0
 13  7  1  0  0  0  0
 15  5  1  0  0  0  0
 15 11  1  0  0  0  0
 16 17  1  0  0  0  0
 19 20  1  0  0  0  0
 19 22  2  0  0  0  0
 20 24  1  0  0  0  0
 22 23  1  0  0  0  0
 22 21  1  0  0  0  0
 24 21  2  0  0  0  0
 24 18  1  0  0  0  0
 25 26  1  0  0  0  0
 27 28  1  0  0  0  0
 28 30  1  0  0  0  0
 29 28  2  0  0  0  0
 30 35  1  0  0  0  0
 31 36  1  0  0  0  0
 32 36  1  0  0  0  0
 33 31  1  0  0  0  0
 34 35  1  0  0  0  0
 35 33  1  0  0  0  0
 35 32  1  0  0  0  0
 37 38  1  0  0  0  0
 38 40  1  0  0  0  0
 39 42  1  0  0  0  0
 41 39  1  0  0  0  0
 41 43  1  0  0  0  0
 42 44  1  0  0  0  0
 42 38  1  0  0  0  0
 43 32  1  0  0  0  0
 43 37  1  0  0  0  0
 45 44  2  0  0  0  0
M  END
>  <MODEL>
2

>  <REMARK>
 VINA RESULT:      -8.4      2.492      5.510
  Name = 
  9 active torsions:
  status: ('A' for Active; 'I' for Inactive)
    1  A    between atoms: N_1  and  C_16
    2  A    between atoms: N_5  and  C_29
    3  A    between atoms: C_7  and  O_39
    4  A    between atoms: C_20  and  C_28
    5  A    between atoms: C_20  and  C_32
    6  A    between atoms: C_22  and  C_43
    7  A    between atoms: C_27  and  C_31
    8  A    between atoms: C_32  and  O_39
    9  A    between atoms: O_33  and  C_38
                            x       y       z     vdW  Elec       q    Type
                         _______ _______ _______ _____ _____    ______ ____

>  <TORSDO>
F 9

$$$$
=
 OpenBabel11062414213D

 45 52  0  0  1  0  0  0  0  0999 V2000
  184.8450  178.8460  142.7980 C   0  0  1  0  0  3  0  0  0  0  0  0
  184.7300  179.7640  144.0040 C   0  0  0  0  0  2  0  0  0  0  0  0
  185.7650  177.9380  143.5910 C   0  0  2  0  0  3  0  0  0  0  0  0
  185.6800  178.8700  144.7860 C   0  0  2  0  0  3  0  0  0  0  0  0
  191.0700  177.6800  144.6770 C   0  0  1  0  0  0  0  0  0  0  0  0
  189.9110  177.8120  145.6520 C   0  0  1  0  0  3  0  0  0  0  0  0
  187.1140  177.9020  143.0200 N   0  0  0  0  0  0  0  0  0  0  0  0
  191.7750  177.4390  142.3590 O   0  0  0  0  0  1  0  0  0  0  0  0
  188.2380  177.3320  143.7330 C   0  0  2  0  0  3  0  0  0  0  0  0
  188.5890  178.1900  144.9570 C   0  0  0  0  0  2  0  0  0  0  0  0
  189.3930  177.2300  142.7040 C   0  0  1  0  0  3  0  0  0  0  0  0
  188.9190  177.8920  141.4050 C   0  0  2  0  0  3  0  0  0  0  0  0
  187.5060  178.2330  141.6970 C   0  0  0  0  0  0  0  0  0  0  0  0
  186.7380  178.7840  140.8660 O   0  0  0  0  0  0  0  0  0  0  0  0
  190.7180  177.8540  143.1770 C   0  0  1  0  0  3  0  0  0  0  0  0
  191.8100  176.5100  144.9190 O   0  0  0  0  0  0  0  0  0  0  0  0
  190.4500  176.4440  145.2650 C   0  0  2  0  0  3  0  0  0  0  0  0
  188.9880  176.9200  140.3250 N   0  0  0  0  0  2  0  0  0  0  0  0
  189.1780  178.4030  136.7460 C   0  0  0  0  0  3  0  0  0  0  0  0
  189.0790  178.8680  138.3630 S   0  0  0  0  0  0  0  0  0  0  0  0
  189.0950  176.3970  137.9450 N   0  0  0  0  0  0  0  0  0  0  0  0
  189.1780  177.0090  136.7320 C   0  0  0  0  0  0  0  0  0  0  0  0
  189.2700  176.2320  135.4680 C   0  0  0  0  0  1  0  0  0  0  0  0
  189.0360  177.2970  138.9470 C   0  0  0  0  0  0  0  0  0  0  0  0
  185.6600  178.6160  146.9830 C   0  0  0  0  0  1  0  0  0  0  0  0
  184.9830  178.2430  145.8200 O   0  0  0  0  0  0  0  0  0  0  0  0
  183.6040  178.1880  142.5640 O   0  0  0  0  0  0  0  0  0  0  0  0
  182.7330  178.5850  141.5460 C   0  0  0  0  0  0  0  0  0  0  0  0
  181.4910  178.5640  141.7540 O   0  0  0  0  0  0  0  0  0  0  0  0
  183.2610  179.0630  140.2220 C   0  0  0  0  0  2  0  0  0  0  0  0
  181.4310  176.3150  138.9810 C   0  0  0  0  0  2  0  0  0  0  0  0
  182.0070  178.4580  138.0110 C   0  0  1  0  0  3  0  0  0  0  0  0
  182.7940  176.6720  139.5140 C   0  0  0  0  0  2  0  0  0  0  0  0
  184.3160  178.0520  138.3600 O   0  0  0  0  0  1  0  0  0  0  0  0
  183.1010  178.0880  139.0380 C   0  0  2  0  0  0  0  0  0  0  0  0
  181.2320  177.1720  137.7530 C   0  0  0  0  0  2  0  0  0  0  0  0
  179.7810  179.6440  137.5340 C   0  0  0  0  0  2  0  0  0  0  0  0
  179.8400  180.5520  136.2950 C   0  0  2  0  0  3  0  0  0  0  0  0
  180.9290  182.1490  137.9940 C   0  0  0  0  0  2  0  0  0  0  0  0
  180.7740  180.0110  135.3210 N   0  0  0  0  0  1  0  0  0  0  0  0
  181.8650  180.9710  138.2320 C   0  0  0  0  0  2  0  0  0  0  0  0
  180.2230  182.0020  136.6420 C   0  0  2  0  0  3  0  0  0  0  0  0
  181.0880  179.6480  138.3640 C   0  0  2  0  0  3  0  0  0  0  0  0
  179.0170  182.8750  136.6160 C   0  0  0  0  0  3  0  0  0  0  0  0
  178.9310  183.8350  137.3670 O   0  0  0  0  0  0  0  0  0  0  0  0
  1 27  1  1  0  0  0
  1  3  1  0  0  0  0
  1  2  1  0  0  0  0
  2  4  1  0  0  0  0
  3  7  1  6  0  0  0
  3  4  1  0  0  0  0
  4 26  1  1  0  0  0
  5 16  1  1  0  0  0
  5 17  1  0  0  0  0
  5  6  1  0  0  0  0
  6 10  1  6  0  0  0
  7  9  1  0  0  0  0
  8 15  1  0  0  0  0
  9 10  1  1  0  0  0
 11 15  1  0  0  0  0
 11  9  1  0  0  0  0
 12 13  1  0  0  0  0
 12 11  1  0  0  0  0
 13  7  1  0  0  0  0
 14 13  2  0  0  0  0
 15  5  1  0  0  0  0
 16 17  1  0  0  0  0
 17  6  1  0  0  0  0
 18 12  1  0  0  0  0
 19 20  1  0  0  0  0
 20 24  1  0  0  0  0
 21 24  2  0  0  0  0
 22 19  2  0  0  0  0
 22 21  1  0  0  0  0
 23 22  1  0  0  0  0
 24 18  1  0  0  0  0
 26 25  1  0  0  0  0
 28 29  2  0  0  0  0
 28 27  1  0  0  0  0
 30 28  1  0  0  0  0
 31 33  1  0  0  0  0
 32 43  1  0  0  0  0
 32 35  1  0  0  0  0
 34 35  1  0  0  0  0
 35 33  1  0  0  0  0
 35 30  1  0  0  0  0
 36 32  1  0  0  0  0
 36 31  1  0  0  0  0
 37 43  1  0  0  0  0
 38 42  1  0  0  0  0
 38 37  1  0  0  0  0
 39 41  1  0  0  0  0
 40 38  1  0  0  0  0
 41 43  1  0  0  0  0
 42 39  1  0  0  0  0
 44 42  1  0  0  0  0
 44 45  2  0  0  0  0
M  END
>  <MODEL>
3

>  <REMARK>
 VINA RESULT:      -8.2      3.065      9.786
  Name = 
  9 active torsions:
  status: ('A' for Active; 'I' for Inactive)
    1  A    between atoms: N_1  and  C_16
    2  A    between atoms: N_5  and  C_29
    3  A    between atoms: C_7  and  O_39
    4  A    between atoms: C_20  and  C_28
    5  A    between atoms: C_20  and  C_32
    6  A    between atoms: C_22  and  C_43
    7  A    between atoms: C_27  and  C_31
    8  A    between atoms: C_32  and  O_39
    9  A    between atoms: O_33  and  C_38
                            x       y       z     vdW  Elec       q    Type
                         _______ _______ _______ _____ _____    ______ ____

>  <TORSDO>
F 9

$$$$
=
 OpenBabel11062414213D

 45 52  0  0  1  0  0  0  0  0999 V2000
  183.9970  178.3830  140.5090 C   0  0  1  0  0  3  0  0  0  0  0  0
  182.5970  178.9040  140.2290 C   0  0  0  0  0  2  0  0  0  0  0  0
  184.4770  179.0110  139.2140 C   0  0  2  0  0  3  0  0  0  0  0  0
  183.0720  179.5030  138.9150 C   0  0  2  0  0  3  0  0  0  0  0  0
  188.5010  177.3870  135.9660 C   0  0  1  0  0  0  0  0  0  0  0  0
  188.4030  178.6650  136.7840 C   0  0  1  0  0  3  0  0  0  0  0  0
  184.9170  177.9980  138.2530 N   0  0  0  0  0  0  0  0  0  0  0  0
  187.4700  175.2680  135.3520 O   0  0  0  0  0  1  0  0  0  0  0  0
  186.3180  177.7290  138.0030 C   0  0  2  0  0  3  0  0  0  0  0  0
  186.9790  178.9280  137.3090 C   0  0  0  0  0  2  0  0  0  0  0  0
  186.3640  176.4300  137.1590 C   0  0  1  0  0  3  0  0  0  0  0  0
  184.9190  176.0420  136.8240 C   0  0  2  0  0  3  0  0  0  0  0  0
  184.1200  177.0430  137.5690 C   0  0  0  0  0  0  0  0  0  0  0  0
  182.8610  177.0620  137.5770 O   0  0  0  0  0  0  0  0  0  0  0  0
  187.2060  176.5390  135.8750 C   0  0  1  0  0  3  0  0  0  0  0  0
  189.6160  176.6200  136.3470 O   0  0  0  0  0  0  0  0  0  0  0  0
  189.0610  177.4210  137.3600 C   0  0  2  0  0  3  0  0  0  0  0  0
  184.6560  174.7060  137.3370 N   0  0  0  0  0  2  0  0  0  0  0  0
  183.8860  172.0050  134.6620 C   0  0  0  0  0  3  0  0  0  0  0  0
  184.2550  173.6420  134.8150 S   0  0  0  0  0  0  0  0  0  0  0  0
  184.0810  172.3650  136.9640 N   0  0  0  0  0  0  0  0  0  0  0  0
  183.8410  171.4850  135.9540 C   0  0  0  0  0  0  0  0  0  0  0  0
  183.5540  170.0510  136.2190 C   0  0  0  0  0  1  0  0  0  0  0  0
  184.3290  173.6020  136.4900 C   0  0  0  0  0  0  0  0  0  0  0  0
  181.8940  181.2660  138.2860 C   0  0  0  0  0  1  0  0  0  0  0  0
  183.0360  180.8960  139.0000 O   0  0  0  0  0  0  0  0  0  0  0  0
  184.5640  179.0750  141.6170 O   0  0  0  0  0  0  0  0  0  0  0  0
  184.1770  178.8120  142.9340 C   0  0  0  0  0  0  0  0  0  0  0  0
  183.1500  179.3720  143.4000 O   0  0  0  0  0  0  0  0  0  0  0  0
  184.9540  177.8470  143.7890 C   0  0  0  0  0  2  0  0  0  0  0  0
  186.9880  177.2160  146.6000 C   0  0  0  0  0  2  0  0  0  0  0  0
  187.4260  178.3200  144.4900 C   0  0  1  0  0  3  0  0  0  0  0  0
  185.7100  177.9110  146.2090 C   0  0  0  0  0  2  0  0  0  0  0  0
  185.6450  179.8410  144.8600 O   0  0  0  0  0  1  0  0  0  0  0  0
  185.9210  178.4780  144.8100 C   0  0  2  0  0  0  0  0  0  0  0  0
  188.0790  177.8770  145.7920 C   0  0  0  0  0  2  0  0  0  0  0  0
  189.1480  176.6880  143.5110 C   0  0  0  0  0  2  0  0  0  0  0  0
  190.3370  177.3990  142.8470 C   0  0  2  0  0  3  0  0  0  0  0  0
  188.6460  177.5930  140.9160 C   0  0  0  0  0  2  0  0  0  0  0  0
  190.6040  178.6610  143.5180 N   0  0  0  0  0  1  0  0  0  0  0  0
  187.7660  178.2250  141.9880 C   0  0  0  0  0  2  0  0  0  0  0  0
  190.1180  177.6400  141.3420 C   0  0  2  0  0  3  0  0  0  0  0  0
  187.7960  177.4130  143.2970 C   0  0  2  0  0  3  0  0  0  0  0  0
  190.8950  176.6530  140.5420 C   0  0  0  0  0  3  0  0  0  0  0  0
  191.7020  177.0310  139.7070 O   0  0  0  0  0  0  0  0  0  0  0  0
  1 27  1  1  0  0  0
  2  1  1  0  0  0  0
  3  7  1  6  0  0  0
  3  1  1  0  0  0  0
  4 26  1  1  0  0  0
  4  3  1  0  0  0  0
  4  2  1  0  0  0  0
  5 16  1  6  0  0  0
  5  6  1  0  0  0  0
  5 17  1  0  0  0  0
  6 10  1  1  0  0  0
  6 17  1  0  0  0  0
  8 15  1  0  0  0  0
  9 10  1  6  0  0  0
  9  7  1  0  0  0  0
 11  9  1  0  0  0  0
 12 11  1  0  0  0  0
 12 18  1  0  0  0  0
 12 13  1  0  0  0  0
 13 14  2  0  0  0  0
 13  7  1  0  0  0  0
 15  5  1  0  0  0  0
 15 11  1  0  0  0  0
 16 17  1  0  0  0  0
 19 20  1  0  0  0  0
 19 22  2  0  0  0  0
 20 24  1  0  0  0  0
 22 23  1  0  0  0  0
 22 21  1  0  0  0  0
 24 21  2  0  0  0  0
 24 18  1  0  0  0  0
 25 26  1  0  0  0  0
 27 28  1  0  0  0  0
 28 29  2  0  0  0  0
 28 30  1  0  0  0  0
 30 35  1  0  0  0  0
 32 35  1  0  0  0  0
 32 36  1  0  0  0  0
 33 31  1  0  0  0  0
 35 34  1  0  0  0  0
 35 33  1  0  0  0  0
 36 31  1  0  0  0  0
 38 37  1  0  0  0  0
 38 40  1  0  0  0  0
 39 42  1  0  0  0  0
 39 41  1  0  0  0  0
 41 43  1  0  0  0  0
 42 38  1  0  0  0  0
 43 37  1  0  0  0  0
 43 32  1  0  0  0  0
 44 42  1  0  0  0  0
 45 44  2  0  0  0  0
M  END
>  <MODEL>
4

>  <REMARK>
 VINA RESULT:      -8.1      2.352      6.186
  Name = 
  9 active torsions:
  status: ('A' for Active; 'I' for Inactive)
    1  A    between atoms: N_1  and  C_16
    2  A    between atoms: N_5  and  C_29
    3  A    between atoms: C_7  and  O_39
    4  A    between atoms: C_20  and  C_28
    5  A    between atoms: C_20  and  C_32
    6  A    between atoms: C_22  and  C_43
    7  A    between atoms: C_27  and  C_31
    8  A    between atoms: C_32  and  O_39
    9  A    between atoms: O_33  and  C_38
                            x       y       z     vdW  Elec       q    Type
                         _______ _______ _______ _____ _____    ______ ____

>  <TORSDO>
F 9

$$$$
=
 OpenBabel11062414213D

 45 52  0  0  1  0  0  0  0  0999 V2000
  184.6740  178.8550  142.8010 C   0  0  1  0  0  3  0  0  0  0  0  0
  184.5630  179.7710  144.0080 C   0  0  0  0  0  2  0  0  0  0  0  0
  185.6070  177.9520  143.5860 C   0  0  2  0  0  3  0  0  0  0  0  0
  185.5250  178.8840  144.7820 C   0  0  2  0  0  3  0  0  0  0  0  0
  190.9230  177.7490  144.6290 C   0  0  1  0  0  0  0  0  0  0  0  0
  189.7700  177.8750  145.6130 C   0  0  1  0  0  3  0  0  0  0  0  0
  186.9510  177.9260  143.0040 N   0  0  0  0  0  0  0  0  0  0  0  0
  191.6110  177.5030  142.3070 O   0  0  0  0  0  1  0  0  0  0  0  0
  188.0860  177.3700  143.7110 C   0  0  2  0  0  3  0  0  0  0  0  0
  188.4390  178.2370  144.9270 C   0  0  0  0  0  2  0  0  0  0  0  0
  189.2340  177.2740  142.6730 C   0  0  1  0  0  3  0  0  0  0  0  0
  188.7430  177.9250  141.3750 C   0  0  2  0  0  3  0  0  0  0  0  0
  187.3300  178.2550  141.6760 C   0  0  0  0  0  0  0  0  0  0  0  0
  186.5500  178.7940  140.8490 O   0  0  0  0  0  0  0  0  0  0  0  0
  190.5570  177.9120  143.1310 C   0  0  1  0  0  3  0  0  0  0  0  0
  191.6760  176.5870  144.8710 O   0  0  0  0  0  0  0  0  0  0  0  0
  190.3190  176.5100  145.2290 C   0  0  2  0  0  3  0  0  0  0  0  0
  188.8120  176.9490  140.2980 N   0  0  0  0  0  2  0  0  0  0  0  0
  189.1970  178.4130  136.7280 C   0  0  0  0  0  3  0  0  0  0  0  0
  189.0580  178.8860  138.3390 S   0  0  0  0  0  0  0  0  0  0  0  0
  188.9870  176.4150  137.9250 N   0  0  0  0  0  0  0  0  0  0  0  0
  189.1410  177.0200  136.7160 C   0  0  0  0  0  0  0  0  0  0  0  0
  189.2480  176.2370  135.4570 C   0  0  0  0  0  1  0  0  0  0  0  0
  188.9270  177.3190  138.9230 C   0  0  0  0  0  0  0  0  0  0  0  0
  185.5240  178.6290  146.9790 C   0  0  0  0  0  1  0  0  0  0  0  0
  184.8400  178.2510  145.8210 O   0  0  0  0  0  0  0  0  0  0  0  0
  183.4360  178.1880  142.5770 O   0  0  0  0  0  0  0  0  0  0  0  0
  182.3230  178.8460  142.0470 C   0  0  0  0  0  0  0  0  0  0  0  0
  181.4720  179.3460  142.8280 O   0  0  0  0  0  0  0  0  0  0  0  0
  182.1470  178.9890  140.5590 C   0  0  0  0  0  2  0  0  0  0  0  0
  179.4430  178.9850  138.2950 C   0  0  0  0  0  2  0  0  0  0  0  0
  181.3660  177.5330  138.5350 C   0  0  1  0  0  3  0  0  0  0  0  0
  179.7370  178.9080  139.7700 C   0  0  0  0  0  2  0  0  0  0  0  0
  180.7920  177.0630  140.7870 O   0  0  0  0  0  1  0  0  0  0  0  0
  181.0380  178.1270  139.9240 C   0  0  2  0  0  0  0  0  0  0  0  0
  180.1380  177.7960  137.6750 C   0  0  0  0  0  2  0  0  0  0  0  0
  182.6210  177.8770  136.3230 C   0  0  0  0  0  2  0  0  0  0  0  0
  183.2580  176.5860  135.7880 C   0  0  2  0  0  3  0  0  0  0  0  0
  185.0600  177.2180  137.5140 C   0  0  0  0  0  2  0  0  0  0  0  0
  182.4580  175.4350  136.1750 N   0  0  0  0  0  1  0  0  0  0  0  0
  183.8760  177.2510  138.4730 C   0  0  0  0  0  2  0  0  0  0  0  0
  184.7110  176.4010  136.2660 C   0  0  2  0  0  3  0  0  0  0  0  0
  182.6760  178.0010  137.8660 C   0  0  2  0  0  3  0  0  0  0  0  0
  185.6610  176.7400  135.1710 C   0  0  0  0  0  3  0  0  0  0  0  0
  186.0880  177.8780  135.0520 O   0  0  0  0  0  0  0  0  0  0  0  0
  1 27  1  1  0  0  0
  1  3  1  0  0  0  0
  1  2  1  0  0  0  0
  2  4  1  0  0  0  0
  3  7  1  6  0  0  0
  3  4  1  0  0  0  0
  4 26  1  1  0  0  0
  5 16  1  1  0  0  0
  5 17  1  0  0  0  0
  5  6  1  0  0  0  0
  6 10  1  6  0  0  0
  7  9  1  0  0  0  0
  8 15  1  0  0  0  0
  9 10  1  1  0  0  0
 11 15  1  0  0  0  0
 11  9  1  0  0  0  0
 12 13  1  0  0  0  0
 12 11  1  0  0  0  0
 13  7  1  0  0  0  0
 14 13  2  0  0  0  0
 15  5  1  0  0  0  0
 16 17  1  0  0  0  0
 17  6  1  0  0  0  0
 18 12  1  0  0  0  0
 19 20  1  0  0  0  0
 20 24  1  0  0  0  0
 21 24  2  0  0  0  0
 22 19  2  0  0  0  0
 22 21  1  0  0  0  0
 23 22  1  0  0  0  0
 24 18  1  0  0  0  0
 26 25  1  0  0  0  0
 28 27  1  0  0  0  0
 28 29  2  0  0  0  0
 30 28  1  0  0  0  0
 31 33  1  0  0  0  0
 32 35  1  0  0  0  0
 33 35  1  0  0  0  0
 35 30  1  0  0  0  0
 35 34  1  0  0  0  0
 36 31  1  0  0  0  0
 36 32  1  0  0  0  0
 37 43  1  0  0  0  0
 38 40  1  0  0  0  0
 38 42  1  0  0  0  0
 38 37  1  0  0  0  0
 39 41  1  0  0  0  0
 42 39  1  0  0  0  0
 43 41  1  0  0  0  0
 43 32  1  0  0  0  0
 44 42  1  0  0  0  0
 45 44  2  0  0  0  0
M  END
>  <MODEL>
5

>  <REMARK>
 VINA RESULT:      -8.0      2.534      9.727
  Name = 
  9 active torsions:
  status: ('A' for Active; 'I' for Inactive)
    1  A    between atoms: N_1  and  C_16
    2  A    between atoms: N_5  and  C_29
    3  A    between atoms: C_7  and  O_39
    4  A    between atoms: C_20  and  C_28
    5  A    between atoms: C_20  and  C_32
    6  A    between atoms: C_22  and  C_43
    7  A    between atoms: C_27  and  C_31
    8  A    between atoms: C_32  and  O_39
    9  A    between atoms: O_33  and  C_38
                            x       y       z     vdW  Elec       q    Type
                         _______ _______ _______ _____ _____    ______ ____

>  <TORSDO>
F 9

$$$$
=
 OpenBabel11062414213D

 45 52  0  0  1  0  0  0  0  0999 V2000
  185.1590  178.7440  142.2870 C   0  0  1  0  0  3  0  0  0  0  0  0
  184.9230  179.7210  143.4270 C   0  0  0  0  0  2  0  0  0  0  0  0
  185.9490  177.8530  143.2280 C   0  0  2  0  0  3  0  0  0  0  0  0
  185.7430  178.8440  144.3600 C   0  0  2  0  0  3  0  0  0  0  0  0
  191.0670  177.5040  144.9780 C   0  0  1  0  0  0  0  0  0  0  0  0
  189.8000  177.7060  145.7940 C   0  0  1  0  0  3  0  0  0  0  0  0
  187.3550  177.7600  142.8320 N   0  0  0  0  0  0  0  0  0  0  0  0
  192.0460  177.1510  142.7770 O   0  0  0  0  0  1  0  0  0  0  0  0
  188.3650  177.1910  143.7010 C   0  0  2  0  0  3  0  0  0  0  0  0
  188.5870  178.0890  144.9260 C   0  0  0  0  0  2  0  0  0  0  0  0
  189.6350  177.0170  142.8290 C   0  0  1  0  0  3  0  0  0  0  0  0
  189.3460  177.6370  141.4570 C   0  0  2  0  0  3  0  0  0  0  0  0
  187.9190  178.0260  141.5570 C   0  0  0  0  0  0  0  0  0  0  0  0
  187.2770  178.5620  140.6160 O   0  0  0  0  0  0  0  0  0  0  0  0
  190.9090  177.6250  143.4400 C   0  0  1  0  0  3  0  0  0  0  0  0
  191.7360  176.3260  145.3550 O   0  0  0  0  0  0  0  0  0  0  0  0
  190.3420  176.3100  145.5300 C   0  0  2  0  0  3  0  0  0  0  0  0
  189.5190  176.6210  140.4310 N   0  0  0  0  0  2  0  0  0  0  0  0
  192.8950  176.7180  138.5260 C   0  0  0  0  0  3  0  0  0  0  0  0
  192.0460  177.5120  139.7450 S   0  0  0  0  0  0  0  0  0  0  0  0
  190.8500  175.5930  138.6650 N   0  0  0  0  0  0  0  0  0  0  0  0
  192.0680  175.6940  138.0660 C   0  0  0  0  0  0  0  0  0  0  0  0
  192.4910  174.7610  136.9890 C   0  0  0  0  0  1  0  0  0  0  0  0
  190.6910  176.5320  139.6180 C   0  0  0  0  0  0  0  0  0  0  0  0
  185.4620  178.6700  146.5470 C   0  0  0  0  0  1  0  0  0  0  0  0
  184.9050  178.2830  145.3260 O   0  0  0  0  0  0  0  0  0  0  0  0
  183.9390  178.1040  141.9300 O   0  0  0  0  0  0  0  0  0  0  0  0
  183.2090  178.4750  140.7970 C   0  0  0  0  0  0  0  0  0  0  0  0
  182.0870  179.0280  140.9400 O   0  0  0  0  0  0  0  0  0  0  0  0
  183.7600  178.2490  139.4160 C   0  0  0  0  0  2  0  0  0  0  0  0
  181.8710  177.4750  136.5390 C   0  0  0  0  0  2  0  0  0  0  0  0
  183.9400  176.5750  137.4180 C   0  0  1  0  0  3  0  0  0  0  0  0
  181.7550  177.5260  138.0400 C   0  0  0  0  0  2  0  0  0  0  0  0
  182.8940  176.0480  139.4790 O   0  0  0  0  0  1  0  0  0  0  0  0
  183.1080  177.1110  138.6060 C   0  0  2  0  0  0  0  0  0  0  0  0
  182.9730  176.4840  136.2460 C   0  0  0  0  0  2  0  0  0  0  0  0
  185.5160  177.3450  135.5450 C   0  0  0  0  0  2  0  0  0  0  0  0
  186.4990  176.2510  135.1000 C   0  0  2  0  0  3  0  0  0  0  0  0
  187.7490  177.0600  137.1990 C   0  0  0  0  0  2  0  0  0  0  0  0
  185.8900  174.9400  135.2530 N   0  0  0  0  0  1  0  0  0  0  0  0
  186.4150  176.7830  137.8820 C   0  0  0  0  0  2  0  0  0  0  0  0
  187.8320  176.3050  135.8690 C   0  0  2  0  0  3  0  0  0  0  0  0
  185.2340  177.3410  137.0670 C   0  0  2  0  0  3  0  0  0  0  0  0
  188.8930  176.9140  135.0200 C   0  0  0  0  0  3  0  0  0  0  0  0
  190.0620  176.8850  135.3740 O   0  0  0  0  0  0  0  0  0  0  0  0
  1 27  1  1  0  0  0
  1  3  1  0  0  0  0
  1  2  1  0  0  0  0
  2  4  1  0  0  0  0
  3  7  1  6  0  0  0
  3  4  1  0  0  0  0
  4 26  1  1  0  0  0
  5 16  1  1  0  0  0
  5 17  1  0  0  0  0
  5  6  1  0  0  0  0
  6 10  1  6  0  0  0
  7  9  1  0  0  0  0
  8 15  1  0  0  0  0
  9 10  1  1  0  0  0
 11 15  1  0  0  0  0
 11  9  1  0  0  0  0
 12 13  1  0  0  0  0
 12 11  1  0  0  0  0
 13  7  1  0  0  0  0
 14 13  2  0  0  0  0
 15  5  1  0  0  0  0
 16 17  1  0  0  0  0
 17  6  1  0  0  0  0
 18 12  1  0  0  0  0
 19 20  1  0  0  0  0
 21 24  2  0  0  0  0
 22 19  2  0  0  0  0
 22 21  1  0  0  0  0
 23 22  1  0  0  0  0
 24 20  1  0  0  0  0
 24 18  1  0  0  0  0
 26 25  1  0  0  0  0
 28 29  2  0  0  0  0
 28 27  1  0  0  0  0
 30 28  1  0  0  0  0
 31 33  1  0  0  0  0
 32 35  1  0  0  0  0
 33 35  1  0  0  0  0
 35 30  1  0  0  0  0
 35 34  1  0  0  0  0
 36 31  1  0  0  0  0
 36 32  1  0  0  0  0
 37 43  1  0  0  0  0
 38 40  1  0  0  0  0
 38 37  1  0  0  0  0
 38 42  1  0  0  0  0
 39 41  1  0  0  0  0
 42 39  1  0  0  0  0
 43 32  1  0  0  0  0
 43 41  1  0  0  0  0
 44 45  2  0  0  0  0
 44 42  1  0  0  0  0
M  END
>  <MODEL>
6

>  <REMARK>
 VINA RESULT:      -7.9      2.839      9.855
  Name = 
  9 active torsions:
  status: ('A' for Active; 'I' for Inactive)
    1  A    between atoms: N_1  and  C_16
    2  A    between atoms: N_5  and  C_29
    3  A    between atoms: C_7  and  O_39
    4  A    between atoms: C_20  and  C_28
    5  A    between atoms: C_20  and  C_32
    6  A    between atoms: C_22  and  C_43
    7  A    between atoms: C_27  and  C_31
    8  A    between atoms: C_32  and  O_39
    9  A    between atoms: O_33  and  C_38
                            x       y       z     vdW  Elec       q    Type
                         _______ _______ _______ _____ _____    ______ ____

>  <TORSDO>
F 9

$$$$
=
 OpenBabel11062414213D

 45 52  0  0  1  0  0  0  0  0999 V2000
  190.7720  176.9140  142.1750 C   0  0  1  0  0  3  0  0  0  0  0  0
  191.2860  175.9400  143.2220 C   0  0  0  0  0  2  0  0  0  0  0  0
  190.1970  177.7800  143.2800 C   0  0  2  0  0  3  0  0  0  0  0  0
  190.6800  176.7920  144.3260 C   0  0  2  0  0  3  0  0  0  0  0  0
  185.6020  177.8760  146.1550 C   0  0  1  0  0  0  0  0  0  0  0  0
  187.0270  177.6880  146.6540 C   0  0  1  0  0  3  0  0  0  0  0  0
  188.7350  177.8390  143.2170 N   0  0  0  0  0  0  0  0  0  0  0  0
  184.1400  178.2810  144.2510 O   0  0  0  0  0  1  0  0  0  0  0  0
  187.9350  178.3370  144.3170 C   0  0  2  0  0  3  0  0  0  0  0  0
  188.0200  177.3840  145.5170 C   0  0  0  0  0  2  0  0  0  0  0  0
  186.4970  178.4990  143.7630 C   0  0  1  0  0  3  0  0  0  0  0  0
  186.4820  177.9450  142.3350 C   0  0  2  0  0  3  0  0  0  0  0  0
  187.9040  177.6030  142.0910 C   0  0  0  0  0  0  0  0  0  0  0  0
  188.3290  177.1290  141.0060 O   0  0  0  0  0  0  0  0  0  0  0  0
  185.4100  177.8220  144.6180 C   0  0  1  0  0  3  0  0  0  0  0  0
  185.0070  179.0140  146.7280 O   0  0  0  0  0  0  0  0  0  0  0  0
  186.4030  179.0730  146.5850 C   0  0  2  0  0  3  0  0  0  0  0  0
  186.0540  178.9940  141.4220 N   0  0  0  0  0  2  0  0  0  0  0  0
  182.6240  178.4280  139.7050 C   0  0  0  0  0  3  0  0  0  0  0  0
  183.6890  177.7070  140.7930 S   0  0  0  0  0  0  0  0  0  0  0  0
  184.4350  179.9000  139.8390 N   0  0  0  0  0  0  0  0  0  0  0  0
  183.2160  179.6240  139.3020 C   0  0  0  0  0  0  0  0  0  0  0  0
  182.5550  180.5490  138.3450 C   0  0  0  0  0  1  0  0  0  0  0  0
  184.8300  178.9300  140.6880 C   0  0  0  0  0  0  0  0  0  0  0  0
  191.6190  176.7490  146.3280 C   0  0  0  0  0  1  0  0  0  0  0  0
  191.7030  177.3710  145.0800 O   0  0  0  0  0  0  0  0  0  0  0  0
  191.8620  177.5870  141.5550 O   0  0  0  0  0  0  0  0  0  0  0  0
  192.4410  177.1280  140.3680 C   0  0  0  0  0  0  0  0  0  0  0  0
  193.6030  177.5030  140.0620 O   0  0  0  0  0  0  0  0  0  0  0  0
  191.7050  176.1690  139.4720 C   0  0  0  0  0  2  0  0  0  0  0  0
  191.8550  174.2330  136.5280 C   0  0  0  0  0  2  0  0  0  0  0  0
  191.0260  176.4660  136.9660 C   0  0  1  0  0  3  0  0  0  0  0  0
  192.7440  174.8160  137.5940 C   0  0  0  0  0  2  0  0  0  0  0  0
  193.1280  177.1280  137.8410 O   0  0  0  0  0  1  0  0  0  0  0  0
  192.1400  176.1580  137.9930 C   0  0  2  0  0  0  0  0  0  0  0  0
  191.1670  175.4100  135.8780 C   0  0  0  0  0  2  0  0  0  0  0  0
  188.5690  175.8060  136.6300 C   0  0  0  0  0  2  0  0  0  0  0  0
  187.8440  176.6970  135.6090 C   0  0  2  0  0  3  0  0  0  0  0  0
  187.6910  178.2530  137.6530 C   0  0  0  0  0  2  0  0  0  0  0  0
  188.7780  177.1560  134.5940 N   0  0  0  0  0  1  0  0  0  0  0  0
  189.2020  178.0560  137.6920 C   0  0  0  0  0  2  0  0  0  0  0  0
  187.1450  177.9010  136.2650 C   0  0  2  0  0  3  0  0  0  0  0  0
  189.5850  176.5750  137.5090 C   0  0  2  0  0  3  0  0  0  0  0  0
  185.6780  177.6600  136.3580 C   0  0  0  0  0  3  0  0  0  0  0  0
  185.1940  177.1690  137.3660 O   0  0  0  0  0  0  0  0  0  0  0  0
  1 27  1  1  0  0  0
  1  2  1  0  0  0  0
  1  3  1  0  0  0  0
  2  4  1  0  0  0  0
  3  7  1  6  0  0  0
  3  4  1  0  0  0  0
  4 26  1  1  0  0  0
  5 17  1  0  0  0  0
  5  6  1  0  0  0  0
  5 16  1  1  0  0  0
  6 10  1  6  0  0  0
  7  9  1  0  0  0  0
  8 15  1  0  0  0  0
  9 10  1  1  0  0  0
 11  9  1  0  0  0  0
 11 15  1  0  0  0  0
 12 11  1  0  0  0  0
 13 12  1  0  0  0  0
 13  7  1  0  0  0  0
 14 13  2  0  0  0  0
 15  5  1  0  0  0  0
 17  6  1  0  0  0  0
 17 16  1  0  0  0  0
 18 12  1  0  0  0  0
 19 20  1  0  0  0  0
 21 24  2  0  0  0  0
 22 19  2  0  0  0  0
 22 21  1  0  0  0  0
 23 22  1  0  0  0  0
 24 20  1  0  0  0  0
 24 18  1  0  0  0  0
 26 25  1  0  0  0  0
 28 27  1  0  0  0  0
 29 28  2  0  0  0  0
 30 28  1  0  0  0  0
 31 33  1  0  0  0  0
 32 43  1  0  0  0  0
 32 35  1  0  0  0  0
 33 35  1  0  0  0  0
 34 35  1  0  0  0  0
 35 30  1  0  0  0  0
 36 31  1  0  0  0  0
 36 32  1  0  0  0  0
 37 43  1  0  0  0  0
 38 42  1  0  0  0  0
 38 37  1  0  0  0  0
 39 41  1  0  0  0  0
 40 38  1  0  0  0  0
 42 44  1  0  0  0  0
 42 39  1  0  0  0  0
 43 41  1  0  0  0  0
 44 45  2  0  0  0  0
M  END
>  <MODEL>
7

>  <REMARK>
 VINA RESULT:      -7.9      2.493      7.765
  Name = 
  9 active torsions:
  status: ('A' for Active; 'I' for Inactive)
    1  A    between atoms: N_1  and  C_16
    2  A    between atoms: N_5  and  C_29
    3  A    between atoms: C_7  and  O_39
    4  A    between atoms: C_20  and  C_28
    5  A    between atoms: C_20  and  C_32
    6  A    between atoms: C_22  and  C_43
    7  A    between atoms: C_27  and  C_31
    8  A    between atoms: C_32  and  O_39
    9  A    between atoms: O_33  and  C_38
                            x       y       z     vdW  Elec       q    Type
                         _______ _______ _______ _____ _____    ______ ____

>  <TORSDO>
F 9

$$$$
=
 OpenBabel11062414213D

 45 52  0  0  1  0  0  0  0  0999 V2000
  184.7830  178.6800  142.6510 C   0  0  1  0  0  3  0  0  0  0  0  0
  184.5560  179.6700  143.7810 C   0  0  0  0  0  2  0  0  0  0  0  0
  185.7020  177.8780  143.5540 C   0  0  2  0  0  3  0  0  0  0  0  0
  185.5040  178.8830  144.6730 C   0  0  2  0  0  3  0  0  0  0  0  0
  190.9410  177.6390  144.9240 C   0  0  1  0  0  0  0  0  0  0  0  0
  189.7280  177.7270  145.8370 C   0  0  1  0  0  3  0  0  0  0  0  0
  187.0800  177.8750  143.0580 N   0  0  0  0  0  0  0  0  0  0  0  0
  191.7760  177.4830  142.6430 O   0  0  0  0  0  1  0  0  0  0  0  0
  188.1700  177.2940  143.8140 C   0  0  2  0  0  3  0  0  0  0  0  0
  188.4420  178.1140  145.0820 C   0  0  0  0  0  2  0  0  0  0  0  0
  189.3810  177.2380  142.8480 C   0  0  1  0  0  3  0  0  0  0  0  0
  188.9710  177.9370  141.5470 C   0  0  2  0  0  3  0  0  0  0  0  0
  187.5410  178.2540  141.7710 C   0  0  0  0  0  0  0  0  0  0  0  0
  186.8130  178.8230  140.9160 O   0  0  0  0  0  0  0  0  0  0  0  0
  190.6700  177.8590  143.4140 C   0  0  1  0  0  3  0  0  0  0  0  0
  191.6810  176.4700  145.1700 O   0  0  0  0  0  0  0  0  0  0  0  0
  190.3050  176.3780  145.4380 C   0  0  2  0  0  3  0  0  0  0  0  0
  189.1120  177.0020  140.4410 N   0  0  0  0  0  2  0  0  0  0  0  0
  189.1870  178.5890  136.9030 C   0  0  0  0  0  3  0  0  0  0  0  0
  189.0550  179.0030  138.5320 S   0  0  0  0  0  0  0  0  0  0  0  0
  189.2560  176.5520  138.0480 N   0  0  0  0  0  0  0  0  0  0  0  0
  189.2920  177.2000  136.8530 C   0  0  0  0  0  0  0  0  0  0  0  0
  189.4400  176.4660  135.5680 C   0  0  0  0  0  1  0  0  0  0  0  0
  189.1300  177.4180  139.0740 C   0  0  0  0  0  0  0  0  0  0  0  0
  185.4840  178.6300  146.8700 C   0  0  0  0  0  1  0  0  0  0  0  0
  184.7820  178.2920  145.7120 O   0  0  0  0  0  0  0  0  0  0  0  0
  183.5920  177.9410  142.4010 O   0  0  0  0  0  0  0  0  0  0  0  0
  182.7380  178.2480  141.3370 C   0  0  0  0  0  0  0  0  0  0  0  0
  182.0300  179.2880  141.3940 O   0  0  0  0  0  0  0  0  0  0  0  0
  182.6780  177.3680  140.1180 C   0  0  0  0  0  2  0  0  0  0  0  0
  185.4130  178.2290  138.0650 C   0  0  0  0  0  2  0  0  0  0  0  0
  183.3440  177.0570  137.6110 C   0  0  1  0  0  3  0  0  0  0  0  0
  184.3650  178.8570  138.9460 C   0  0  0  0  0  2  0  0  0  0  0  0
  182.0710  178.8900  138.4100 O   0  0  0  0  0  1  0  0  0  0  0  0
  183.0960  178.0270  138.7890 C   0  0  2  0  0  0  0  0  0  0  0  0
  184.6560  177.5030  136.9790 C   0  0  0  0  0  2  0  0  0  0  0  0
  184.4460  174.7750  137.2020 C   0  0  0  0  0  2  0  0  0  0  0  0
  183.9880  174.1150  135.8910 C   0  0  2  0  0  3  0  0  0  0  0  0
  181.9830  173.4680  137.3690 C   0  0  0  0  0  2  0  0  0  0  0  0
  183.6780  175.1320  134.9000 N   0  0  0  0  0  1  0  0  0  0  0  0
  181.9230  174.9670  137.6350 C   0  0  0  0  0  2  0  0  0  0  0  0
  182.7760  173.1860  136.0890 C   0  0  2  0  0  3  0  0  0  0  0  0
  183.3190  175.5460  137.9320 C   0  0  2  0  0  3  0  0  0  0  0  0
  183.2100  171.7620  136.0800 C   0  0  0  0  0  3  0  0  0  0  0  0
  183.0530  171.0600  137.0680 O   0  0  0  0  0  0  0  0  0  0  0  0
  1 27  1  1  0  0  0
  1  3  1  0  0  0  0
  1  2  1  0  0  0  0
  2  4  1  0  0  0  0
  3  7  1  6  0  0  0
  3  4  1  0  0  0  0
  4 26  1  1  0  0  0
  5 16  1  1  0  0  0
  5 17  1  0  0  0  0
  5  6  1  0  0  0  0
  6 10  1  6  0  0  0
  7  9  1  0  0  0  0
  8 15  1  0  0  0  0
  9 10  1  1  0  0  0
 11 15  1  0  0  0  0
 11  9  1  0  0  0  0
 12 13  1  0  0  0  0
 12 11  1  0  0  0  0
 13  7  1  0  0  0  0
 14 13  2  0  0  0  0
 15  5  1  0  0  0  0
 16 17  1  0  0  0  0
 17  6  1  0  0  0  0
 18 12  1  0  0  0  0
 19 20  1  0  0  0  0
 20 24  1  0  0  0  0
 21 24  2  0  0  0  0
 22 19  2  0  0  0  0
 22 21  1  0  0  0  0
 23 22  1  0  0  0  0
 24 18  1  0  0  0  0
 26 25  1  0  0  0  0
 28 29  2  0  0  0  0
 28 27  1  0  0  0  0
 30 28  1  0  0  0  0
 31 33  1  0  0  0  0
 32 43  1  0  0  0  0
 32 35  1  0  0  0  0
 34 35  1  0  0  0  0
 35 33  1  0  0  0  0
 35 30  1  0  0  0  0
 36 32  1  0  0  0  0
 36 31  1  0  0  0  0
 37 43  1  0  0  0  0
 38 42  1  0  0  0  0
 38 37  1  0  0  0  0
 39 41  1  0  0  0  0
 40 38  1  0  0  0  0
 41 43  1  0  0  0  0
 42 39  1  0  0  0  0
 44 42  1  0  0  0  0
 44 45  2  0  0  0  0
M  END
>  <MODEL>
8

>  <REMARK>
 VINA RESULT:      -7.8      2.595      9.533
  Name = 
  9 active torsions:
  status: ('A' for Active; 'I' for Inactive)
    1  A    between atoms: N_1  and  C_16
    2  A    between atoms: N_5  and  C_29
    3  A    between atoms: C_7  and  O_39
    4  A    between atoms: C_20  and  C_28
    5  A    between atoms: C_20  and  C_32
    6  A    between atoms: C_22  and  C_43
    7  A    between atoms: C_27  and  C_31
    8  A    between atoms: C_32  and  O_39
    9  A    between atoms: O_33  and  C_38
                            x       y       z     vdW  Elec       q    Type
                         _______ _______ _______ _____ _____    ______ ____

>  <TORSDO>
F 9

$$$$
=
 OpenBabel11062414213D

 45 52  0  0  1  0  0  0  0  0999 V2000
  188.1220  178.2780  137.8630 C   0  0  1  0  0  3  0  0  0  0  0  0
  189.0860  178.5760  136.7270 C   0  0  0  0  0  2  0  0  0  0  0  0
  188.3740  176.7940  137.6740 C   0  0  2  0  0  3  0  0  0  0  0  0
  189.3110  177.0870  136.5160 C   0  0  2  0  0  3  0  0  0  0  0  0
  186.4270  172.4800  135.0310 C   0  0  1  0  0  0  0  0  0  0  0  0
  187.8740  172.9260  135.1770 C   0  0  1  0  0  3  0  0  0  0  0  0
  187.1670  176.0910  137.2350 N   0  0  0  0  0  0  0  0  0  0  0  0
  184.0950  172.8860  135.6000 O   0  0  0  0  0  1  0  0  0  0  0  0
  187.1600  174.6710  136.9530 C   0  0  2  0  0  3  0  0  0  0  0  0
  188.0020  174.3670  135.7060 C   0  0  0  0  0  2  0  0  0  0  0  0
  185.6710  174.2690  136.8010 C   0  0  1  0  0  3  0  0  0  0  0  0
  184.8330  175.5500  136.8770 C   0  0  2  0  0  3  0  0  0  0  0  0
  185.8410  176.5950  137.1780 C   0  0  0  0  0  0  0  0  0  0  0  0
  185.5550  177.8100  137.3430 O   0  0  0  0  0  0  0  0  0  0  0  0
  185.3540  173.4910  135.5120 C   0  0  1  0  0  3  0  0  0  0  0  0
  186.2320  171.1970  135.5700 O   0  0  0  0  0  0  0  0  0  0  0  0
  187.2570  171.9500  136.1660 C   0  0  2  0  0  3  0  0  0  0  0  0
  183.8860  175.4340  137.9750 N   0  0  0  0  0  2  0  0  0  0  0  0
  180.1660  175.0510  136.9470 C   0  0  0  0  0  3  0  0  0  0  0  0
  181.7050  175.2280  136.2850 S   0  0  0  0  0  0  0  0  0  0  0  0
  181.5980  175.2110  138.7890 N   0  0  0  0  0  0  0  0  0  0  0  0
  180.3250  175.0610  138.3320 C   0  0  0  0  0  0  0  0  0  0  0  0
  179.1730  174.9110  139.2590 C   0  0  0  0  0  1  0  0  0  0  0  0
  182.4760  175.3140  137.7720 C   0  0  0  0  0  0  0  0  0  0  0  0
  191.0970  175.9830  135.8200 C   0  0  0  0  0  1  0  0  0  0  0  0
  190.6190  176.7590  136.8780 O   0  0  0  0  0  0  0  0  0  0  0  0
  188.6790  178.7050  139.1020 O   0  0  0  0  0  0  0  0  0  0  0  0
  187.9720  178.6150  140.3050 C   0  0  0  0  0  0  0  0  0  0  0  0
  186.7150  178.5450  140.2790 O   0  0  0  0  0  0  0  0  0  0  0  0
  188.6960  178.5690  141.6230 C   0  0  0  0  0  2  0  0  0  0  0  0
  191.9430  177.5130  142.5050 C   0  0  0  0  0  2  0  0  0  0  0  0
  189.7510  176.8900  143.3240 C   0  0  1  0  0  3  0  0  0  0  0  0
  191.0120  177.5780  141.3230 C   0  0  0  0  0  2  0  0  0  0  0  0
  189.0550  176.2800  141.1420 O   0  0  0  0  0  1  0  0  0  0  0  0
  189.6020  177.3430  141.8530 C   0  0  2  0  0  0  0  0  0  0  0  0
  191.2420  176.6590  143.5340 C   0  0  0  0  0  2  0  0  0  0  0  0
  190.1230  178.1080  145.5520 C   0  0  0  0  0  2  0  0  0  0  0  0
  189.9520  177.1910  146.7730 C   0  0  2  0  0  3  0  0  0  0  0  0
  187.4690  177.6880  146.3140 C   0  0  0  0  0  2  0  0  0  0  0  0
  190.3460  175.8320  146.4370 N   0  0  0  0  0  1  0  0  0  0  0  0
  187.8110  177.1910  144.9150 C   0  0  0  0  0  2  0  0  0  0  0  0
  188.5130  177.2000  147.3230 C   0  0  2  0  0  3  0  0  0  0  0  0
  189.1300  177.8020  144.4040 C   0  0  2  0  0  3  0  0  0  0  0  0
  188.4370  178.0330  148.5550 C   0  0  0  0  0  3  0  0  0  0  0  0
  189.4230  178.6290  148.9610 O   0  0  0  0  0  0  0  0  0  0  0  0
  1 27  1  1  0  0  0
  2  1  1  0  0  0  0
  3  7  1  6  0  0  0
  3  1  1  0  0  0  0
  4  2  1  0  0  0  0
  4 26  1  1  0  0  0
  4  3  1  0  0  0  0
  5  6  1  0  0  0  0
  5 15  1  0  0  0  0
  5 16  1  6  0  0  0
  5 17  1  0  0  0  0
  6 10  1  1  0  0  0
  6 17  1  0  0  0  0
  9 10  1  6  0  0  0
  9  7  1  0  0  0  0
 11 12  1  0  0  0  0
 11  9  1  0  0  0  0
 12 13  1  0  0  0  0
 12 18  1  0  0  0  0
 13  7  1  0  0  0  0
 13 14  2  0  0  0  0
 15  8  1  0  0  0  0
 15 11  1  0  0  0  0
 16 17  1  0  0  0  0
 19 22  2  0  0  0  0
 20 19  1  0  0  0  0
 20 24  1  0  0  0  0
 22 21  1  0  0  0  0
 22 23  1  0  0  0  0
 24 18  1  0  0  0  0
 24 21  2  0  0  0  0
 25 26  1  0  0  0  0
 27 28  1  0  0  0  0
 28 30  1  0  0  0  0
 29 28  2  0  0  0  0
 30 35  1  0  0  0  0
 31 36  1  0  0  0  0
 32 36  1  0  0  0  0
 32 43  1  0  0  0  0
 33 35  1  0  0  0  0
 33 31  1  0  0  0  0
 34 35  1  0  0  0  0
 35 32  1  0  0  0  0
 37 38  1  0  0  0  0
 38 42  1  0  0  0  0
 39 42  1  0  0  0  0
 40 38  1  0  0  0  0
 41 39  1  0  0  0  0
 42 44  1  0  0  0  0
 43 41  1  0  0  0  0
 43 37  1  0  0  0  0
 44 45  2  0  0  0  0
M  END
>  <MODEL>
9

>  <REMARK>
 VINA RESULT:      -7.6      2.603      3.189
  Name = 
  9 active torsions:
  status: ('A' for Active; 'I' for Inactive)
    1  A    between atoms: N_1  and  C_16
    2  A    between atoms: N_5  and  C_29
    3  A    between atoms: C_7  and  O_39
    4  A    between atoms: C_20  and  C_28
    5  A    between atoms: C_20  and  C_32
    6  A    between atoms: C_22  and  C_43
    7  A    between atoms: C_27  and  C_31
    8  A    between atoms: C_32  and  O_39
    9  A    between atoms: O_33  and  C_38
                            x       y       z     vdW  Elec       q    Type
                         _______ _______ _______ _____ _____    ______ ____

>  <TORSDO>
F 9

$$$$
