=
 OpenBabel11062413033D

 38 43  0  0  1  0  0  0  0  0999 V2000
  182.1650  178.7280  141.6020 C   0  0  1  0  0  3  0  0  0  0  0  0
  180.1750  178.0900  143.1170 C   0  0  0  0  0  3  0  0  0  0  0  0
  180.9300  179.0020  142.4060 C   0  0  0  0  0  0  0  0  0  0  0  0
  179.2750  180.0500  143.2470 N   0  0  0  0  0  0  0  0  0  0  0  0
  180.3500  180.2100  142.4930 N   0  0  0  0  0  0  0  0  0  0  0  0
  179.1460  178.7890  143.6350 N   0  0  0  0  0  2  0  0  0  0  0  0
  182.4950  179.8650  140.6100 C   0  0  1  0  0  3  0  0  0  0  0  0
  183.3270  179.3230  139.4560 C   0  0  2  0  0  3  0  0  0  0  0  0
  184.1940  180.3190  139.0030 O   0  0  0  0  0  1  0  0  0  0  0  0
  181.8670  179.7090  139.2210 C   0  0  2  0  0  0  0  0  0  0  0  0
  181.5470  181.0680  138.6100 C   0  0  0  0  0  2  0  0  0  0  0  0
  180.6750  180.9160  137.3790 C   0  0  0  0  0  2  0  0  0  0  0  0
  180.7920  183.1150  137.4160 C   0  0  0  0  0  1  0  0  0  0  0  0
  180.8400  182.0240  136.5510 O   0  0  0  0  0  0  0  0  0  0  0  0
  180.8120  178.5980  139.0710 C   0  0  0  0  0  2  0  0  0  0  0  0
  181.2110  177.4880  138.1040 C   0  0  0  0  0  2  0  0  0  0  0  0
  182.7370  175.6360  139.4130 O   0  0  0  0  0  1  0  0  0  0  0  0
  181.3200  175.8810  138.9480 P   0  0  0  0  0  0  0  0  0  0  0  0
  180.2910  175.8900  140.2900 O   0  0  0  0  0  1  0  0  0  0  0  0
  180.8490  174.6480  137.8910 O   0  0  0  0  0  0  0  0  0  0  0  0
  183.2790  178.3090  142.4750 N   0  0  0  0  0  0  0  0  0  0  0  0
  184.3190  177.7780  141.6030 C   0  0  0  0  0  1  0  0  0  0  0  0
  185.0810  179.0030  144.9070 C   0  0  2  0  0  0  0  0  0  0  0  0
  183.6070  179.1910  144.7740 C   0  0  0  0  0  2  0  0  0  0  0  0
  185.3710  179.2090  143.4550 C   0  0  0  0  0  2  0  0  0  0  0  0
  185.3700  177.5630  145.2980 C   0  0  1  0  0  3  0  0  0  0  0  0
  186.7610  177.4240  145.8940 C   0  0  2  0  0  3  0  0  0  0  0  0
  185.9650  178.7020  146.1020 C   0  0  1  0  0  3  0  0  0  0  0  0
  183.8500  179.4120  143.2650 C   0  0  1  0  0  3  0  0  0  0  0  0
  187.7040  177.0370  143.2620 S   0  0  0  0  0  0  0  0  0  0  0  0
  187.8130  177.6070  144.8460 C   0  0  0  0  0  0  0  0  0  0  0  0
  189.1990  177.6870  142.8360 C   0  0  0  0  0  0  0  0  0  0  0  0
  188.9580  178.2980  145.0540 N   0  0  0  0  0  0  0  0  0  0  0  0
  191.0470  179.0360  143.9200 C   0  0  0  0  0  1  0  0  0  0  0  0
  189.7330  178.3380  143.9380 C   0  0  0  0  0  0  0  0  0  0  0  0
  189.8140  177.6000  141.5830 O   0  0  0  0  0  0  0  0  0  0  0  0
  189.1140  177.1870  140.4160 C   0  0  0  0  0  2  0  0  0  0  0  0
  188.6870  178.3980  139.6070 C   0  0  0  0  0  1  0  0  0  0  0  0
  1  3  1  0  0  0  0
  1 21  1  1  0  0  0
  2  6  1  0  0  0  0
  3  5  1  0  0  0  0
  3  2  2  0  0  0  0
  4  6  1  0  0  0  0
  5  4  2  0  0  0  0
  7  1  1  1  0  0  0
  8  9  1  6  0  0  0
  8  7  1  0  0  0  0
 10 11  1  6  0  0  0
 10  8  1  0  0  0  0
 10  7  1  0  0  0  0
 12 11  1  0  0  0  0
 14 12  1  0  0  0  0
 14 13  1  0  0  0  0
 15 10  1  0  0  0  0
 16 18  1  0  0  0  0
 16 15  1  0  0  0  0
 18 17  1  0  0  0  0
 18 19  1  0  0  0  0
 20 18  2  0  0  0  0
 21 29  1  0  0  0  0
 22 21  1  0  0  0  0
 23 26  1  0  0  0  0
 23 28  1  0  0  0  0
 24 23  1  0  0  0  0
 25 23  1  0  0  0  0
 26 27  1  0  0  0  0
 26 28  1  0  0  0  0
 27 28  1  0  0  0  0
 29 25  1  0  0  0  0
 29 24  1  0  0  0  0
 30 31  1  0  0  0  0
 31 33  2  0  0  0  0
 31 27  1  0  0  0  0
 32 30  1  0  0  0  0
 32 35  2  0  0  0  0
 34 35  1  0  0  0  0
 35 33  1  0  0  0  0
 36 32  1  0  0  0  0
 37 36  1  0  0  0  0
 38 37  1  0  0  0  0
M  END
>  <MODEL>
1

>  <REMARK>
 VINA RESULT:      -6.8      0.000      0.000
  Name = 
  13 active torsions:
  status: ('A' for Active; 'I' for Inactive)
    1  A    between atoms: C_2  and  C_10
    2  A    between atoms: C_2  and  O_35
    3  A    between atoms: C_3  and  C_9
    4  A    between atoms: C_4  and  O_23
    5  A    between atoms: N_6  and  C_9
    6  A    between atoms: N_6  and  C_37
    7  A    between atoms: C_8  and  C_9
    8  A    between atoms: C_10  and  C_32
    9  A    between atoms: C_13  and  C_31
   10  A    between atoms: C_14  and  O_23
   11  A    between atoms: C_15  and  C_16
   12  A    between atoms: C_15  and  P_24
   13  A    between atoms: C_16  and  C_32
                            x       y       z     vdW  Elec       q    Type
                         _______ _______ _______ _____ _____    ______ ____

>  <TORSDO>
F 13

$$$$
=
 OpenBabel11062413033D

 38 43  0  0  1  0  0  0  0  0999 V2000
  189.4130  177.0890  138.6350 C   0  0  1  0  0  3  0  0  0  0  0  0
  187.0450  177.6670  137.7850 C   0  0  0  0  0  3  0  0  0  0  0  0
  188.3860  177.9460  137.9570 C   0  0  2  0  0  3  0  0  0  0  0  0
  187.5300  179.5500  136.8450 N   0  0  0  0  0  0  0  0  0  0  0  0
  188.6680  179.1150  137.3590 N   0  0  0  0  0  0  0  0  0  0  0  0
  186.5410  178.7020  137.0860 N   0  0  0  0  0  0  0  0  0  0  0  0
  190.6650  176.8550  137.7620 C   0  0  1  0  0  3  0  0  0  0  0  0
  191.2970  175.5140  138.1070 C   0  0  2  0  0  3  0  0  0  0  0  0
  192.6790  175.5940  137.9290 O   0  0  0  0  0  1  0  0  0  0  0  0
  190.5560  175.6830  136.7810 C   0  0  2  0  0  0  0  0  0  0  0  0
  191.3560  175.9550  135.5120 C   0  0  0  0  0  2  0  0  0  0  0  0
  191.4350  174.7140  134.6450 C   0  0  0  0  0  2  0  0  0  0  0  0
  192.0900  172.6490  135.0420 C   0  0  0  0  0  1  0  0  0  0  0  0
  192.5520  173.9640  135.0050 O   0  0  0  0  0  0  0  0  0  0  0  0
  189.1580  175.0600  136.6180 C   0  0  0  0  0  2  0  0  0  0  0  0
  189.0730  173.6010  137.0560 C   0  0  0  0  0  2  0  0  0  0  0  0
  186.8830  173.6360  135.4200 O   0  0  0  0  0  0  0  0  0  0  0  0
  187.4920  172.8510  136.5590 P   0  0  0  0  0  0  0  0  0  0  0  0
  187.7690  171.2630  136.0500 O   0  0  0  0  0  1  0  0  0  0  0  0
  186.4280  172.8410  137.8730 O   0  0  0  0  0  1  0  0  0  0  0  0
  189.6790  177.5720  140.0040 N   0  0  0  0  0  0  0  0  0  0  0  0
  188.3820  177.8100  140.6240 C   0  0  0  0  0  1  0  0  0  0  0  0
  191.3280  177.2260  142.6120 C   0  0  2  0  0  0  0  0  0  0  0  0
  191.8140  177.1570  141.2020 C   0  0  0  0  0  2  0  0  0  0  0  0
  189.9650  176.6970  142.3060 C   0  0  0  0  0  2  0  0  0  0  0  0
  191.2400  178.6810  143.0420 C   0  0  1  0  0  3  0  0  0  0  0  0
  191.2130  178.8050  144.5560 C   0  0  2  0  0  3  0  0  0  0  0  0
  191.9950  177.6810  143.8960 C   0  0  1  0  0  3  0  0  0  0  0  0
  190.4200  176.6070  140.8320 C   0  0  1  0  0  3  0  0  0  0  0  0
  188.4360  178.3680  144.3000 S   0  0  0  0  0  0  0  0  0  0  0  0
  189.9150  178.3080  145.1100 C   0  0  0  0  0  0  0  0  0  0  0  0
  187.6170  177.6150  145.5660 C   0  0  0  0  0  0  0  0  0  0  0  0
  189.8020  177.7110  146.3200 N   0  0  0  0  0  0  0  0  0  0  0  0
  188.1460  176.6580  147.8500 C   0  0  0  0  0  1  0  0  0  0  0  0
  188.5240  177.3300  146.5770 C   0  0  0  0  0  0  0  0  0  0  0  0
  186.2520  177.3140  145.6080 O   0  0  0  0  0  0  0  0  0  0  0  0
  185.2910  178.2050  146.1590 C   0  0  0  0  0  2  0  0  0  0  0  0
  184.5530  178.9310  145.0490 C   0  0  0  0  0  1  0  0  0  0  0  0
  1 21  1  1  0  0  0
  2  3  1  0  0  0  0
  3  1  1  6  0  0  0
  4  6  1  0  0  0  0
  4  5  2  0  0  0  0
  5  3  1  0  0  0  0
  6  2  2  0  0  0  0
  7  8  1  0  0  0  0
  7  1  1  1  0  0  0
  8  9  1  6  0  0  0
 10 11  1  6  0  0  0
 10  7  1  0  0  0  0
 10  8  1  0  0  0  0
 12 14  1  0  0  0  0
 12 11  1  0  0  0  0
 14 13  1  0  0  0  0
 15 10  1  0  0  0  0
 15 16  1  0  0  0  0
 17 18  2  0  0  0  0
 18 16  1  0  0  0  0
 18 20  1  0  0  0  0
 19 18  1  0  0  0  0
 21 22  1  0  0  0  0
 21 29  1  0  0  0  0
 23 26  1  0  0  0  0
 23 28  1  0  0  0  0
 24 23  1  0  0  0  0
 25 23  1  0  0  0  0
 26 28  1  0  0  0  0
 26 27  1  0  0  0  0
 27 31  1  0  0  0  0
 28 27  1  0  0  0  0
 29 24  1  0  0  0  0
 29 25  1  0  0  0  0
 30 31  1  0  0  0  0
 30 32  1  0  0  0  0
 31 33  2  0  0  0  0
 32 36  1  0  0  0  0
 32 35  2  0  0  0  0
 33 35  1  0  0  0  0
 35 34  1  0  0  0  0
 36 37  1  0  0  0  0
 38 37  1  0  0  0  0
M  END
>  <MODEL>
2

>  <REMARK>
 VINA RESULT:      -5.9      5.303      8.236
  Name = 
  13 active torsions:
  status: ('A' for Active; 'I' for Inactive)
    1  A    between atoms: C_2  and  C_10
    2  A    between atoms: C_2  and  O_35
    3  A    between atoms: C_3  and  C_9
    4  A    between atoms: C_4  and  O_23
    5  A    between atoms: N_6  and  C_9
    6  A    between atoms: N_6  and  C_37
    7  A    between atoms: C_8  and  C_9
    8  A    between atoms: C_10  and  C_32
    9  A    between atoms: C_13  and  C_31
   10  A    between atoms: C_14  and  O_23
   11  A    between atoms: C_15  and  C_16
   12  A    between atoms: C_15  and  P_24
   13  A    between atoms: C_16  and  C_32
                            x       y       z     vdW  Elec       q    Type
                         _______ _______ _______ _____ _____    ______ ____

>  <TORSDO>
F 13

$$$$
=
 OpenBabel11062413033D

 38 43  0  0  1  0  0  0  0  0999 V2000
  187.3400  177.9260  138.9770 C   0  0  1  0  0  3  0  0  0  0  0  0
  185.6520  178.6120  140.8060 C   0  0  0  0  0  3  0  0  0  0  0  0
  186.1170  178.6140  139.5060 C   0  0  0  0  0  0  0  0  0  0  0  0
  184.2970  179.7220  139.5420 N   0  0  0  0  0  0  0  0  0  0  0  0
  185.2580  179.3020  138.7370 N   0  0  0  0  0  0  0  0  0  0  0  0
  184.5080  179.3230  140.7890 N   0  0  0  0  0  2  0  0  0  0  0  0
  187.5930  178.2250  137.4830 C   0  0  1  0  0  3  0  0  0  0  0  0
  188.8570  177.5170  137.0180 C   0  0  2  0  0  3  0  0  0  0  0  0
  189.4750  178.2790  136.0240 O   0  0  0  0  0  1  0  0  0  0  0  0
  187.4920  177.0080  136.5570 C   0  0  2  0  0  0  0  0  0  0  0  0
  186.9740  177.4090  135.1810 C   0  0  0  0  0  2  0  0  0  0  0  0
  185.7130  176.6430  134.8330 C   0  0  0  0  0  2  0  0  0  0  0  0
  183.7330  176.7850  135.7860 C   0  0  0  0  0  1  0  0  0  0  0  0
  184.6090  177.4820  134.9540 O   0  0  0  0  0  0  0  0  0  0  0  0
  186.9210  175.7230  137.1830 C   0  0  0  0  0  2  0  0  0  0  0  0
  187.7760  174.4820  136.9430 C   0  0  0  0  0  2  0  0  0  0  0  0
  187.6240  171.7680  136.6470 O   0  0  0  0  0  1  0  0  0  0  0  0
  186.7470  172.9960  136.7480 P   0  0  0  0  0  0  0  0  0  0  0  0
  185.7350  172.8430  138.0940 O   0  0  0  0  0  1  0  0  0  0  0  0
  185.8030  173.1340  135.3520 O   0  0  0  0  0  0  0  0  0  0  0  0
  188.4950  178.1470  139.8690 N   0  0  0  0  0  0  0  0  0  0  0  0
  187.9810  178.8030  141.0650 C   0  0  0  0  0  1  0  0  0  0  0  0
  190.6990  176.9490  141.7000 C   0  0  2  0  0  0  0  0  0  0  0  0
  190.7020  177.0610  140.2120 C   0  0  0  0  0  2  0  0  0  0  0  0
  189.2170  176.7900  141.8150 C   0  0  0  0  0  2  0  0  0  0  0  0
  191.1310  178.2740  142.3040 C   0  0  1  0  0  3  0  0  0  0  0  0
  191.5940  178.0980  143.7410 C   0  0  2  0  0  3  0  0  0  0  0  0
  191.8150  176.9880  142.7260 C   0  0  1  0  0  3  0  0  0  0  0  0
  189.1680  176.9020  140.2740 C   0  0  1  0  0  3  0  0  0  0  0  0
  190.5620  176.9830  146.1190 S   0  0  0  0  0  0  0  0  0  0  0  0
  190.4400  177.7850  144.6400 C   0  0  0  0  0  0  0  0  0  0  0  0
  188.9070  177.1040  146.4170 C   0  0  0  0  0  0  0  0  0  0  0  0
  189.1660  178.1600  144.3750 N   0  0  0  0  0  0  0  0  0  0  0  0
  186.8540  178.0690  145.2920 C   0  0  0  0  0  1  0  0  0  0  0  0
  188.3120  177.7770  145.3590 C   0  0  0  0  0  0  0  0  0  0  0  0
  188.2290  176.6190  147.5390 O   0  0  0  0  0  0  0  0  0  0  0  0
  187.9830  177.4210  148.6880 C   0  0  0  0  0  2  0  0  0  0  0  0
  189.0030  178.5420  148.7710 C   0  0  0  0  0  1  0  0  0  0  0  0
  1  3  1  0  0  0  0
  1 21  1  1  0  0  0
  3  2  2  0  0  0  0
  4  6  1  0  0  0  0
  5  3  1  0  0  0  0
  5  4  2  0  0  0  0
  6  2  1  0  0  0  0
  7  1  1  1  0  0  0
  8  9  1  6  0  0  0
  8  7  1  0  0  0  0
 10 11  1  6  0  0  0
 10  8  1  0  0  0  0
 10 15  1  0  0  0  0
 10  7  1  0  0  0  0
 12 14  1  0  0  0  0
 12 11  1  0  0  0  0
 14 13  1  0  0  0  0
 16 15  1  0  0  0  0
 17 18  1  0  0  0  0
 18 16  1  0  0  0  0
 18 19  1  0  0  0  0
 20 18  2  0  0  0  0
 21 29  1  0  0  0  0
 21 22  1  0  0  0  0
 23 25  1  0  0  0  0
 23 26  1  0  0  0  0
 23 28  1  0  0  0  0
 24 29  1  0  0  0  0
 24 23  1  0  0  0  0
 26 28  1  0  0  0  0
 26 27  1  0  0  0  0
 27 31  1  0  0  0  0
 28 27  1  0  0  0  0
 29 25  1  0  0  0  0
 30 32  1  0  0  0  0
 31 30  1  0  0  0  0
 32 36  1  0  0  0  0
 33 31  2  0  0  0  0
 33 35  1  0  0  0  0
 34 35  1  0  0  0  0
 35 32  2  0  0  0  0
 36 37  1  0  0  0  0
 37 38  1  0  0  0  0
M  END
>  <MODEL>
3

>  <REMARK>
 VINA RESULT:      -5.8      4.111      6.198
  Name = 
  13 active torsions:
  status: ('A' for Active; 'I' for Inactive)
    1  A    between atoms: C_2  and  C_10
    2  A    between atoms: C_2  and  O_35
    3  A    between atoms: C_3  and  C_9
    4  A    between atoms: C_4  and  O_23
    5  A    between atoms: N_6  and  C_9
    6  A    between atoms: N_6  and  C_37
    7  A    between atoms: C_8  and  C_9
    8  A    between atoms: C_10  and  C_32
    9  A    between atoms: C_13  and  C_31
   10  A    between atoms: C_14  and  O_23
   11  A    between atoms: C_15  and  C_16
   12  A    between atoms: C_15  and  P_24
   13  A    between atoms: C_16  and  C_32
                            x       y       z     vdW  Elec       q    Type
                         _______ _______ _______ _____ _____    ______ ____

>  <TORSDO>
F 13

$$$$
=
 OpenBabel11062413033D

 38 43  0  0  1  0  0  0  0  0999 V2000
  189.9560  177.2790  139.2760 C   0  0  1  0  0  3  0  0  0  0  0  0
  187.5860  177.6680  138.3300 C   0  0  0  0  0  3  0  0  0  0  0  0
  188.9140  178.0110  138.4830 C   0  0  2  0  0  3  0  0  0  0  0  0
  188.0280  179.4360  137.1700 N   0  0  0  0  0  0  0  0  0  0  0  0
  189.1690  179.1060  137.7490 N   0  0  0  0  0  0  0  0  0  0  0  0
  187.0610  178.5910  137.5010 N   0  0  0  0  0  0  0  0  0  0  0  0
  191.3750  177.4390  138.6870 C   0  0  1  0  0  3  0  0  0  0  0  0
  192.3840  176.7020  139.5560 C   0  0  2  0  0  3  0  0  0  0  0  0
  193.6080  177.3730  139.5140 O   0  0  0  0  0  1  0  0  0  0  0  0
  192.0130  176.1400  138.1840 C   0  0  2  0  0  0  0  0  0  0  0  0
  192.9320  176.4060  136.9980 C   0  0  0  0  0  2  0  0  0  0  0  0
  193.8940  175.2530  136.7900 C   0  0  0  0  0  2  0  0  0  0  0  0
  195.1730  174.2860  138.3000 C   0  0  0  0  0  1  0  0  0  0  0  0
  195.0400  175.4570  137.5540 O   0  0  0  0  0  0  0  0  0  0  0  0
  191.0860  174.9130  138.1020 C   0  0  0  0  0  2  0  0  0  0  0  0
  190.9350  174.3410  136.6960 C   0  0  0  0  0  2  0  0  0  0  0  0
  188.2300  174.6310  136.9640 O   0  0  0  0  0  1  0  0  0  0  0  0
  189.3420  174.8130  135.9560 P   0  0  0  0  0  0  0  0  0  0  0  0
  189.4080  176.4380  135.4920 O   0  0  0  0  0  1  0  0  0  0  0  0
  189.0380  173.8550  134.5970 O   0  0  0  0  0  0  0  0  0  0  0  0
  189.8310  177.5830  140.7150 N   0  0  0  0  0  0  0  0  0  0  0  0
  188.7280  178.5260  140.8500 C   0  0  0  0  0  1  0  0  0  0  0  0
  189.3370  176.5870  143.6140 C   0  0  2  0  0  0  0  0  0  0  0  0
  190.5100  176.3070  142.7340 C   0  0  0  0  0  2  0  0  0  0  0  0
  188.3540  176.6880  142.4930 C   0  0  0  0  0  2  0  0  0  0  0  0
  189.5180  177.9450  144.2740 C   0  0  1  0  0  3  0  0  0  0  0  0
  188.6330  178.0810  145.5010 C   0  0  2  0  0  3  0  0  0  0  0  0
  189.2040  176.7250  145.1190 C   0  0  1  0  0  3  0  0  0  0  0  0
  189.5360  176.4000  141.5400 C   0  0  1  0  0  3  0  0  0  0  0  0
  185.9230  178.4680  146.1890 S   0  0  0  0  0  0  0  0  0  0  0  0
  187.1920  178.1890  145.1130 C   0  0  0  0  0  0  0  0  0  0  0  0
  184.7700  178.4740  144.9600 C   0  0  0  0  0  0  0  0  0  0  0  0
  186.7580  178.1170  143.8320 N   0  0  0  0  0  0  0  0  0  0  0  0
  184.6980  178.2220  142.4410 C   0  0  0  0  0  1  0  0  0  0  0  0
  185.4120  178.2700  143.7460 C   0  0  0  0  0  0  0  0  0  0  0  0
  183.3930  178.6590  145.1150 O   0  0  0  0  0  0  0  0  0  0  0  0
  182.6210  179.4410  144.2130 C   0  0  0  0  0  2  0  0  0  0  0  0
  181.3430  178.7080  143.8480 C   0  0  0  0  0  1  0  0  0  0  0  0
  1 21  1  1  0  0  0
  2  3  1  0  0  0  0
  3  1  1  6  0  0  0
  4  6  1  0  0  0  0
  4  5  2  0  0  0  0
  5  3  1  0  0  0  0
  6  2  2  0  0  0  0
  7  1  1  1  0  0  0
  7  8  1  0  0  0  0
  8  9  1  6  0  0  0
 10 11  1  6  0  0  0
 10  7  1  0  0  0  0
 10  8  1  0  0  0  0
 12 11  1  0  0  0  0
 12 14  1  0  0  0  0
 14 13  1  0  0  0  0
 15 10  1  0  0  0  0
 16 15  1  0  0  0  0
 18 16  1  0  0  0  0
 18 17  1  0  0  0  0
 19 18  1  0  0  0  0
 20 18  2  0  0  0  0
 21 22  1  0  0  0  0
 21 29  1  0  0  0  0
 23 26  1  0  0  0  0
 23 28  1  0  0  0  0
 24 23  1  0  0  0  0
 25 23  1  0  0  0  0
 26 28  1  0  0  0  0
 26 27  1  0  0  0  0
 28 27  1  0  0  0  0
 29 25  1  0  0  0  0
 29 24  1  0  0  0  0
 31 27  1  0  0  0  0
 31 30  1  0  0  0  0
 32 36  1  0  0  0  0
 32 30  1  0  0  0  0
 33 31  2  0  0  0  0
 34 35  1  0  0  0  0
 35 33  1  0  0  0  0
 35 32  2  0  0  0  0
 37 36  1  0  0  0  0
 38 37  1  0  0  0  0
M  END
>  <MODEL>
4

>  <REMARK>
 VINA RESULT:      -5.8      4.671      8.731
  Name = 
  13 active torsions:
  status: ('A' for Active; 'I' for Inactive)
    1  A    between atoms: C_2  and  C_10
    2  A    between atoms: C_2  and  O_35
    3  A    between atoms: C_3  and  C_9
    4  A    between atoms: C_4  and  O_23
    5  A    between atoms: N_6  and  C_9
    6  A    between atoms: N_6  and  C_37
    7  A    between atoms: C_8  and  C_9
    8  A    between atoms: C_10  and  C_32
    9  A    between atoms: C_13  and  C_31
   10  A    between atoms: C_14  and  O_23
   11  A    between atoms: C_15  and  C_16
   12  A    between atoms: C_15  and  P_24
   13  A    between atoms: C_16  and  C_32
                            x       y       z     vdW  Elec       q    Type
                         _______ _______ _______ _____ _____    ______ ____

>  <TORSDO>
F 13

$$$$
=
 OpenBabel11062413033D

 38 43  0  0  1  0  0  0  0  0999 V2000
  182.0830  178.7190  141.5060 C   0  0  1  0  0  3  0  0  0  0  0  0
  180.0820  180.0730  142.4150 C   0  0  0  0  0  3  0  0  0  0  0  0
  180.8480  178.9280  142.3310 C   0  0  0  0  0  0  0  0  0  0  0  0
  179.2930  178.5610  143.7410 N   0  0  0  0  0  0  0  0  0  0  0  0
  180.3460  178.0050  143.1670 N   0  0  0  0  0  0  0  0  0  0  0  0
  179.1110  179.8010  143.3080 N   0  0  0  0  0  2  0  0  0  0  0  0
  182.3330  179.8690  140.5050 C   0  0  1  0  0  3  0  0  0  0  0  0
  183.2740  179.4030  139.4030 C   0  0  2  0  0  3  0  0  0  0  0  0
  184.0470  180.4810  138.9690 O   0  0  0  0  0  1  0  0  0  0  0  0
  181.7940  179.6220  139.0930 C   0  0  2  0  0  0  0  0  0  0  0  0
  181.3560  180.9280  138.4390 C   0  0  0  0  0  2  0  0  0  0  0  0
  181.0440  180.7190  136.9700 C   0  0  0  0  0  2  0  0  0  0  0  0
  180.8710  182.8920  137.2820 C   0  0  0  0  0  1  0  0  0  0  0  0
  180.4310  181.8590  136.4560 O   0  0  0  0  0  0  0  0  0  0  0  0
  180.8750  178.3990  138.9190 C   0  0  0  0  0  2  0  0  0  0  0  0
  181.5070  177.2540  138.1340 C   0  0  0  0  0  2  0  0  0  0  0  0
  178.9370  176.3220  138.1760 O   0  0  0  0  0  1  0  0  0  0  0  0
  180.2400  176.1560  137.4290 P   0  0  0  0  0  0  0  0  0  0  0  0
  180.0010  176.5590  135.8040 O   0  0  0  0  0  0  0  0  0  0  0  0
  180.7540  174.5490  137.5360 O   0  0  0  0  0  1  0  0  0  0  0  0
  183.2320  178.3630  142.3600 N   0  0  0  0  0  0  0  0  0  0  0  0
  184.2350  177.7670  141.4870 C   0  0  0  0  0  1  0  0  0  0  0  0
  184.6700  179.3020  144.9480 C   0  0  2  0  0  0  0  0  0  0  0  0
  183.2960  179.6530  144.4820 C   0  0  0  0  0  2  0  0  0  0  0  0
  185.2410  179.1610  143.5740 C   0  0  0  0  0  2  0  0  0  0  0  0
  184.6350  177.9490  145.6400 C   0  0  1  0  0  3  0  0  0  0  0  0
  185.8540  177.7540  146.5260 C   0  0  2  0  0  3  0  0  0  0  0  0
  185.2640  179.1420  146.3340 C   0  0  1  0  0  3  0  0  0  0  0  0
  183.8360  179.5200  143.0410 C   0  0  1  0  0  3  0  0  0  0  0  0
  188.6460  177.9980  146.1960 S   0  0  0  0  0  0  0  0  0  0  0  0
  187.0900  177.5730  145.7020 C   0  0  0  0  0  0  0  0  0  0  0  0
  189.3420  177.4430  144.7650 C   0  0  0  0  0  0  0  0  0  0  0  0
  187.0900  177.0010  144.4760 N   0  0  0  0  0  0  0  0  0  0  0  0
  188.5980  176.3500  142.6060 C   0  0  0  0  0  1  0  0  0  0  0  0
  188.3410  176.9330  143.9510 C   0  0  0  0  0  0  0  0  0  0  0  0
  190.7010  177.4760  144.4370 O   0  0  0  0  0  0  0  0  0  0  0  0
  191.6530  176.6080  145.0390 C   0  0  0  0  0  2  0  0  0  0  0  0
  191.8730  175.3870  144.1650 C   0  0  0  0  0  1  0  0  0  0  0  0
  1  3  1  0  0  0  0
  1 21  1  1  0  0  0
  2  6  1  0  0  0  0
  3  2  2  0  0  0  0
  3  5  1  0  0  0  0
  5  4  2  0  0  0  0
  6  4  1  0  0  0  0
  7  1  1  1  0  0  0
  8  9  1  6  0  0  0
  8  7  1  0  0  0  0
 10 11  1  6  0  0  0
 10  8  1  0  0  0  0
 10  7  1  0  0  0  0
 12 11  1  0  0  0  0
 14 12  1  0  0  0  0
 14 13  1  0  0  0  0
 15 10  1  0  0  0  0
 16 15  1  0  0  0  0
 18 20  1  0  0  0  0
 18 16  1  0  0  0  0
 18 17  1  0  0  0  0
 19 18  2  0  0  0  0
 21 29  1  0  0  0  0
 22 21  1  0  0  0  0
 23 26  1  0  0  0  0
 23 28  1  0  0  0  0
 24 23  1  0  0  0  0
 25 23  1  0  0  0  0
 26 28  1  0  0  0  0
 26 27  1  0  0  0  0
 28 27  1  0  0  0  0
 29 25  1  0  0  0  0
 29 24  1  0  0  0  0
 31 30  1  0  0  0  0
 31 27  1  0  0  0  0
 32 30  1  0  0  0  0
 33 31  2  0  0  0  0
 34 35  1  0  0  0  0
 35 33  1  0  0  0  0
 35 32  2  0  0  0  0
 36 32  1  0  0  0  0
 36 37  1  0  0  0  0
 38 37  1  0  0  0  0
M  END
>  <MODEL>
5

>  <REMARK>
 VINA RESULT:      -5.8      1.467      2.151
  Name = 
  13 active torsions:
  status: ('A' for Active; 'I' for Inactive)
    1  A    between atoms: C_2  and  C_10
    2  A    between atoms: C_2  and  O_35
    3  A    between atoms: C_3  and  C_9
    4  A    between atoms: C_4  and  O_23
    5  A    between atoms: N_6  and  C_9
    6  A    between atoms: N_6  and  C_37
    7  A    between atoms: C_8  and  C_9
    8  A    between atoms: C_10  and  C_32
    9  A    between atoms: C_13  and  C_31
   10  A    between atoms: C_14  and  O_23
   11  A    between atoms: C_15  and  C_16
   12  A    between atoms: C_15  and  P_24
   13  A    between atoms: C_16  and  C_32
                            x       y       z     vdW  Elec       q    Type
                         _______ _______ _______ _____ _____    ______ ____

>  <TORSDO>
F 13

$$$$
=
 OpenBabel11062413033D

 38 43  0  0  1  0  0  0  0  0999 V2000
  187.5210  177.8880  139.0780 C   0  0  1  0  0  3  0  0  0  0  0  0
  185.9000  178.6400  140.9410 C   0  0  0  0  0  3  0  0  0  0  0  0
  186.3210  178.6000  139.6270 C   0  0  0  0  0  0  0  0  0  0  0  0
  184.5100  179.7210  139.6900 N   0  0  0  0  0  0  0  0  0  0  0  0
  185.4400  179.2710  138.8660 N   0  0  0  0  0  0  0  0  0  0  0  0
  184.7600  179.3580  140.9400 N   0  0  0  0  0  2  0  0  0  0  0  0
  187.7860  178.2230  137.5940 C   0  0  1  0  0  3  0  0  0  0  0  0
  189.0510  177.5210  137.1200 C   0  0  2  0  0  3  0  0  0  0  0  0
  189.6800  178.3040  136.1510 O   0  0  0  0  0  1  0  0  0  0  0  0
  187.6870  177.0310  136.6370 C   0  0  2  0  0  0  0  0  0  0  0  0
  187.1810  177.4680  135.2670 C   0  0  0  0  0  2  0  0  0  0  0  0
  185.8870  176.7620  134.9170 C   0  0  0  0  0  2  0  0  0  0  0  0
  183.8240  176.5520  135.6620 C   0  0  0  0  0  1  0  0  0  0  0  0
  184.8070  177.5030  135.3910 O   0  0  0  0  0  0  0  0  0  0  0  0
  187.1050  175.7320  137.2260 C   0  0  0  0  0  2  0  0  0  0  0  0
  187.8830  174.4750  136.8490 C   0  0  0  0  0  2  0  0  0  0  0  0
  185.9410  172.9060  137.9610 O   0  0  0  0  0  1  0  0  0  0  0  0
  186.7860  173.0320  136.7140 P   0  0  0  0  0  0  0  0  0  0  0  0
  185.7710  173.2320  135.3760 O   0  0  0  0  0  0  0  0  0  0  0  0
  187.7090  171.6300  136.5120 O   0  0  0  0  0  1  0  0  0  0  0  0
  188.6810  178.0430  139.9780 N   0  0  0  0  0  0  0  0  0  0  0  0
  188.2430  178.8830  141.0850 C   0  0  0  0  0  1  0  0  0  0  0  0
  190.5500  176.7590  142.0990 C   0  0  2  0  0  0  0  0  0  0  0  0
  190.7130  176.7650  140.6150 C   0  0  0  0  0  2  0  0  0  0  0  0
  189.0560  176.7610  142.0660 C   0  0  0  0  0  2  0  0  0  0  0  0
  191.0620  178.0730  142.6650 C   0  0  1  0  0  3  0  0  0  0  0  0
  191.3600  177.9520  144.1500 C   0  0  2  0  0  3  0  0  0  0  0  0
  191.5580  176.7570  143.2330 C   0  0  1  0  0  3  0  0  0  0  0  0
  189.1710  176.7680  140.5250 C   0  0  1  0  0  3  0  0  0  0  0  0
  188.5620  178.2490  144.3790 S   0  0  0  0  0  0  0  0  0  0  0  0
  190.0950  177.8240  144.9400 C   0  0  0  0  0  0  0  0  0  0  0  0
  187.8120  177.7650  145.8080 C   0  0  0  0  0  0  0  0  0  0  0  0
  190.0470  177.3030  146.1890 N   0  0  0  0  0  0  0  0  0  0  0  0
  188.4710  176.7530  148.0340 C   0  0  0  0  0  1  0  0  0  0  0  0
  188.7790  177.2750  146.6750 C   0  0  0  0  0  0  0  0  0  0  0  0
  186.4450  177.8310  146.0910 O   0  0  0  0  0  0  0  0  0  0  0  0
  185.6790  179.0110  145.8830 C   0  0  0  0  0  2  0  0  0  0  0  0
  184.3510  178.6650  145.2350 C   0  0  0  0  0  1  0  0  0  0  0  0
  1  3  1  0  0  0  0
  1 21  1  1  0  0  0
  3  2  2  0  0  0  0
  4  6  1  0  0  0  0
  5  3  1  0  0  0  0
  5  4  2  0  0  0  0
  6  2  1  0  0  0  0
  7  1  1  1  0  0  0
  8  9  1  6  0  0  0
  8  7  1  0  0  0  0
 10 11  1  6  0  0  0
 10  8  1  0  0  0  0
 10 15  1  0  0  0  0
 10  7  1  0  0  0  0
 12 11  1  0  0  0  0
 12 14  1  0  0  0  0
 14 13  1  0  0  0  0
 16 15  1  0  0  0  0
 18 16  1  0  0  0  0
 18 17  1  0  0  0  0
 19 18  2  0  0  0  0
 20 18  1  0  0  0  0
 21 29  1  0  0  0  0
 21 22  1  0  0  0  0
 23 26  1  0  0  0  0
 23 28  1  0  0  0  0
 24 23  1  0  0  0  0
 25 23  1  0  0  0  0
 26 28  1  0  0  0  0
 26 27  1  0  0  0  0
 27 31  1  0  0  0  0
 28 27  1  0  0  0  0
 29 24  1  0  0  0  0
 29 25  1  0  0  0  0
 30 31  1  0  0  0  0
 30 32  1  0  0  0  0
 31 33  2  0  0  0  0
 32 36  1  0  0  0  0
 32 35  2  0  0  0  0
 33 35  1  0  0  0  0
 35 34  1  0  0  0  0
 37 36  1  0  0  0  0
 38 37  1  0  0  0  0
M  END
>  <MODEL>
6

>  <REMARK>
 VINA RESULT:      -5.4      4.032      6.108
  Name = 
  13 active torsions:
  status: ('A' for Active; 'I' for Inactive)
    1  A    between atoms: C_2  and  C_10
    2  A    between atoms: C_2  and  O_35
    3  A    between atoms: C_3  and  C_9
    4  A    between atoms: C_4  and  O_23
    5  A    between atoms: N_6  and  C_9
    6  A    between atoms: N_6  and  C_37
    7  A    between atoms: C_8  and  C_9
    8  A    between atoms: C_10  and  C_32
    9  A    between atoms: C_13  and  C_31
   10  A    between atoms: C_14  and  O_23
   11  A    between atoms: C_15  and  C_16
   12  A    between atoms: C_15  and  P_24
   13  A    between atoms: C_16  and  C_32
                            x       y       z     vdW  Elec       q    Type
                         _______ _______ _______ _____ _____    ______ ____

>  <TORSDO>
F 13

$$$$
=
 OpenBabel11062413033D

 38 43  0  0  1  0  0  0  0  0999 V2000
  189.5410  177.1010  139.6090 C   0  0  1  0  0  3  0  0  0  0  0  0
  189.0150  178.1150  141.9240 C   0  0  0  0  0  3  0  0  0  0  0  0
  189.5160  177.1200  141.1080 C   0  0  0  0  0  0  0  0  0  0  0  0
  189.8720  176.5390  143.1270 N   0  0  0  0  0  0  0  0  0  0  0  0
  190.0500  176.1560  141.8750 N   0  0  0  0  0  0  0  0  0  0  0  0
  189.2530  177.7100  143.1860 N   0  0  0  0  0  2  0  0  0  0  0  0
  188.6790  178.2200  138.9840 C   0  0  1  0  0  3  0  0  0  0  0  0
  189.1000  178.4560  137.5410 C   0  0  2  0  0  3  0  0  0  0  0  0
  188.9140  179.8010  137.2180 O   0  0  0  0  0  1  0  0  0  0  0  0
  187.7690  177.7680  137.8370 C   0  0  2  0  0  0  0  0  0  0  0  0
  186.4840  178.5860  137.8030 C   0  0  0  0  0  2  0  0  0  0  0  0
  185.5300  178.1430  138.8950 C   0  0  0  0  0  2  0  0  0  0  0  0
  184.2680  178.9080  140.5300 C   0  0  0  0  0  1  0  0  0  0  0  0
  185.4990  179.1020  139.9050 O   0  0  0  0  0  0  0  0  0  0  0  0
  187.6470  176.2480  137.6250 C   0  0  0  0  0  2  0  0  0  0  0  0
  187.0910  175.8530  136.2600 C   0  0  0  0  0  2  0  0  0  0  0  0
  188.2540  173.4380  135.7220 O   0  0  0  0  0  1  0  0  0  0  0  0
  186.9260  174.0490  136.1080 P   0  0  0  0  0  0  0  0  0  0  0  0
  186.4350  173.4110  137.5950 O   0  0  0  0  0  1  0  0  0  0  0  0
  185.7690  173.6790  134.9310 O   0  0  0  0  0  0  0  0  0  0  0  0
  190.9260  177.0160  139.1070 N   0  0  0  0  0  0  0  0  0  0  0  0
  191.7750  177.6420  140.1120 C   0  0  0  0  0  1  0  0  0  0  0  0
  191.6780  174.8990  136.9630 C   0  0  2  0  0  0  0  0  0  0  0  0
  190.4970  174.9020  137.8750 C   0  0  0  0  0  2  0  0  0  0  0  0
  192.5830  175.6050  137.9200 C   0  0  0  0  0  2  0  0  0  0  0  0
  191.3890  175.7880  135.7650 C   0  0  1  0  0  3  0  0  0  0  0  0
  192.3190  175.4670  134.6070 C   0  0  2  0  0  3  0  0  0  0  0  0
  191.8770  174.3670  135.5570 C   0  0  1  0  0  3  0  0  0  0  0  0
  191.3900  175.6340  138.9010 C   0  0  1  0  0  3  0  0  0  0  0  0
  194.9590  174.8920  135.4230 S   0  0  0  0  0  0  0  0  0  0  0  0
  193.7170  175.9100  134.9050 C   0  0  0  0  0  0  0  0  0  0  0  0
  196.0840  176.1450  135.4630 C   0  0  0  0  0  0  0  0  0  0  0  0
  194.1460  177.1840  134.7440 N   0  0  0  0  0  0  0  0  0  0  0  0
  196.1600  178.6280  134.9700 C   0  0  0  0  0  1  0  0  0  0  0  0
  195.4600  177.3180  135.0600 C   0  0  0  0  0  0  0  0  0  0  0  0
  197.4290  176.0420  135.8320 O   0  0  0  0  0  0  0  0  0  0  0  0
  198.2500  174.9550  135.4240 C   0  0  0  0  0  2  0  0  0  0  0  0
  198.5930  174.0820  136.6170 C   0  0  0  0  0  1  0  0  0  0  0  0
  1 21  1  1  0  0  0
  1  3  1  0  0  0  0
  2  6  1  0  0  0  0
  3  5  1  0  0  0  0
  3  2  2  0  0  0  0
  4  6  1  0  0  0  0
  5  4  2  0  0  0  0
  7  1  1  6  0  0  0
  8  9  1  1  0  0  0
  8 10  1  0  0  0  0
  8  7  1  0  0  0  0
 10 15  1  6  0  0  0
 10  7  1  0  0  0  0
 11 10  1  0  0  0  0
 11 12  1  0  0  0  0
 12 14  1  0  0  0  0
 14 13  1  0  0  0  0
 16 15  1  0  0  0  0
 17 18  1  0  0  0  0
 18 16  1  0  0  0  0
 18 19  1  0  0  0  0
 20 18  2  0  0  0  0
 21 22  1  0  0  0  0
 23 24  1  0  0  0  0
 23 25  1  0  0  0  0
 24 29  1  0  0  0  0
 25 29  1  0  0  0  0
 26 23  1  0  0  0  0
 27 31  1  0  0  0  0
 27 28  1  0  0  0  0
 27 26  1  0  0  0  0
 28 26  1  0  0  0  0
 28 23  1  0  0  0  0
 29 21  1  0  0  0  0
 30 32  1  0  0  0  0
 31 30  1  0  0  0  0
 32 36  1  0  0  0  0
 33 31  2  0  0  0  0
 33 35  1  0  0  0  0
 34 35  1  0  0  0  0
 35 32  2  0  0  0  0
 37 36  1  0  0  0  0
 37 38  1  0  0  0  0
M  END
>  <MODEL>
7

>  <REMARK>
 VINA RESULT:      -5.2      5.936      9.146
  Name = 
  13 active torsions:
  status: ('A' for Active; 'I' for Inactive)
    1  A    between atoms: C_2  and  C_10
    2  A    between atoms: C_2  and  O_35
    3  A    between atoms: C_3  and  C_9
    4  A    between atoms: C_4  and  O_23
    5  A    between atoms: N_6  and  C_9
    6  A    between atoms: N_6  and  C_37
    7  A    between atoms: C_8  and  C_9
    8  A    between atoms: C_10  and  C_32
    9  A    between atoms: C_13  and  C_31
   10  A    between atoms: C_14  and  O_23
   11  A    between atoms: C_15  and  C_16
   12  A    between atoms: C_15  and  P_24
   13  A    between atoms: C_16  and  C_32
                            x       y       z     vdW  Elec       q    Type
                         _______ _______ _______ _____ _____    ______ ____

>  <TORSDO>
F 13

$$$$
=
 OpenBabel11062413033D

 38 43  0  0  1  0  0  0  0  0999 V2000
  183.4060  178.6910  139.2050 C   0  0  1  0  0  3  0  0  0  0  0  0
  184.0260  177.8800  141.5760 C   0  0  0  0  0  3  0  0  0  0  0  0
  184.1490  178.7440  140.5060 C   0  0  0  0  0  0  0  0  0  0  0  0
  185.4390  179.4430  142.0520 N   0  0  0  0  0  0  0  0  0  0  0  0
  185.0250  179.7110  140.8250 N   0  0  0  0  0  0  0  0  0  0  0  0
  184.8560  178.3510  142.5260 N   0  0  0  0  0  2  0  0  0  0  0  0
  182.4330  179.8780  139.0250 C   0  0  1  0  0  3  0  0  0  0  0  0
  181.4980  179.6110  137.8540 C   0  0  2  0  0  3  0  0  0  0  0  0
  181.1670  180.8220  137.2420 O   0  0  0  0  0  1  0  0  0  0  0  0
  180.9600  179.5480  139.2830 C   0  0  2  0  0  0  0  0  0  0  0  0
  180.2210  180.7520  139.8540 C   0  0  0  0  0  2  0  0  0  0  0  0
  179.4210  180.3640  141.0820 C   0  0  0  0  0  2  0  0  0  0  0  0
  179.9030  179.8590  143.1710 C   0  0  0  0  0  1  0  0  0  0  0  0
  180.0390  180.8710  142.2220 O   0  0  0  0  0  0  0  0  0  0  0  0
  180.6700  178.1740  139.9140 C   0  0  0  0  0  2  0  0  0  0  0  0
  179.9790  177.1910  138.9750 C   0  0  0  0  0  2  0  0  0  0  0  0
  182.0350  175.5350  139.6880 O   0  0  0  0  0  1  0  0  0  0  0  0
  180.5990  175.4980  139.2140 P   0  0  0  0  0  0  0  0  0  0  0  0
  179.6510  174.7210  140.3780 O   0  0  0  0  0  1  0  0  0  0  0  0
  180.5070  174.6450  137.7570 O   0  0  0  0  0  0  0  0  0  0  0  0
  184.3310  178.4570  138.0800 N   0  0  0  0  0  0  0  0  0  0  0  0
  185.6730  178.7300  138.5770 C   0  0  0  0  0  1  0  0  0  0  0  0
  185.4670  176.5320  135.9240 C   0  0  2  0  0  0  0  0  0  0  0  0
  184.0760  177.0610  136.0410 C   0  0  0  0  0  2  0  0  0  0  0  0
  185.7290  176.5270  137.3950 C   0  0  0  0  0  2  0  0  0  0  0  0
  186.3430  177.5690  135.2400 C   0  0  1  0  0  3  0  0  0  0  0  0
  187.6050  176.9370  134.6790 C   0  0  2  0  0  3  0  0  0  0  0  0
  186.3100  176.1430  134.7240 C   0  0  1  0  0  3  0  0  0  0  0  0
  184.2950  177.0760  137.5690 C   0  0  1  0  0  3  0  0  0  0  0  0
  189.4020  175.0800  135.8120 S   0  0  0  0  0  0  0  0  0  0  0  0
  188.5320  176.5240  135.7790 C   0  0  0  0  0  0  0  0  0  0  0  0
  190.1400  175.4600  137.2790 C   0  0  0  0  0  0  0  0  0  0  0  0
  188.8030  177.3000  136.8540 N   0  0  0  0  0  0  0  0  0  0  0  0
  190.1430  177.3620  138.9500 C   0  0  0  0  0  1  0  0  0  0  0  0
  189.6920  176.7070  137.6920 C   0  0  0  0  0  0  0  0  0  0  0  0
  191.0560  174.6670  137.9770 O   0  0  0  0  0  0  0  0  0  0  0  0
  192.3810  174.4440  137.5120 C   0  0  0  0  0  2  0  0  0  0  0  0
  193.1380  175.7570  137.4370 C   0  0  0  0  0  1  0  0  0  0  0  0
  1 21  1  6  0  0  0
  1  3  1  0  0  0  0
  2  6  1  0  0  0  0
  3  5  1  0  0  0  0
  3  2  2  0  0  0  0
  4  6  1  0  0  0  0
  5  4  2  0  0  0  0
  7  1  1  1  0  0  0
  7 10  1  0  0  0  0
  8  9  1  6  0  0  0
  8  7  1  0  0  0  0
  8 10  1  0  0  0  0
 10 11  1  1  0  0  0
 10 15  1  0  0  0  0
 11 12  1  0  0  0  0
 12 14  1  0  0  0  0
 14 13  1  0  0  0  0
 16 18  1  0  0  0  0
 16 15  1  0  0  0  0
 18 17  1  0  0  0  0
 18 19  1  0  0  0  0
 20 18  2  0  0  0  0
 21 22  1  0  0  0  0
 23 24  1  0  0  0  0
 23 25  1  0  0  0  0
 24 29  1  0  0  0  0
 25 29  1  0  0  0  0
 26 23  1  0  0  0  0
 27 28  1  0  0  0  0
 27 26  1  0  0  0  0
 27 31  1  0  0  0  0
 28 26  1  0  0  0  0
 28 23  1  0  0  0  0
 29 21  1  0  0  0  0
 30 32  1  0  0  0  0
 31 30  1  0  0  0  0
 31 33  2  0  0  0  0
 32 35  2  0  0  0  0
 32 36  1  0  0  0  0
 33 35  1  0  0  0  0
 35 34  1  0  0  0  0
 37 36  1  0  0  0  0
 38 37  1  0  0  0  0
M  END
>  <MODEL>
8

>  <REMARK>
 VINA RESULT:      -5.1      3.602      5.878
  Name = 
  13 active torsions:
  status: ('A' for Active; 'I' for Inactive)
    1  A    between atoms: C_2  and  C_10
    2  A    between atoms: C_2  and  O_35
    3  A    between atoms: C_3  and  C_9
    4  A    between atoms: C_4  and  O_23
    5  A    between atoms: N_6  and  C_9
    6  A    between atoms: N_6  and  C_37
    7  A    between atoms: C_8  and  C_9
    8  A    between atoms: C_10  and  C_32
    9  A    between atoms: C_13  and  C_31
   10  A    between atoms: C_14  and  O_23
   11  A    between atoms: C_15  and  C_16
   12  A    between atoms: C_15  and  P_24
   13  A    between atoms: C_16  and  C_32
                            x       y       z     vdW  Elec       q    Type
                         _______ _______ _______ _____ _____    ______ ____

>  <TORSDO>
F 13

$$$$
=
 OpenBabel11062413033D

 38 43  0  0  1  0  0  0  0  0999 V2000
  182.2990  178.1400  137.7980 C   0  0  1  0  0  3  0  0  0  0  0  0
  181.1590  180.4440  137.5630 C   0  0  0  0  0  3  0  0  0  0  0  0
  181.5540  179.2180  137.0680 C   0  0  2  0  0  3  0  0  0  0  0  0
  180.4760  180.2190  135.5260 N   0  0  0  0  0  0  0  0  0  0  0  0
  181.1140  179.0950  135.8050 N   0  0  0  0  0  0  0  0  0  0  0  0
  180.4880  181.0460  136.5620 N   0  0  0  0  0  0  0  0  0  0  0  0
  181.8040  176.7230  137.4360 C   0  0  1  0  0  3  0  0  0  0  0  0
  182.0880  175.7640  138.5830 C   0  0  2  0  0  3  0  0  0  0  0  0
  182.3380  174.4900  138.0700 O   0  0  0  0  0  1  0  0  0  0  0  0
  180.6520  176.2030  138.3010 C   0  0  2  0  0  0  0  0  0  0  0  0
  179.7360  175.2840  137.5000 C   0  0  0  0  0  2  0  0  0  0  0  0
  179.0870  174.2500  138.3990 C   0  0  0  0  0  2  0  0  0  0  0  0
  180.1860  172.4540  137.7550 C   0  0  0  0  0  1  0  0  0  0  0  0
  178.9310  173.0560  137.6990 O   0  0  0  0  0  0  0  0  0  0  0  0
  179.9840  177.2290  139.2350 C   0  0  0  0  0  2  0  0  0  0  0  0
  180.0430  176.8550  140.7130 C   0  0  0  0  0  2  0  0  0  0  0  0
  181.6550  178.6070  142.0570 O   0  0  0  0  0  1  0  0  0  0  0  0
  180.1980  178.3310  141.7640 P   0  0  0  0  0  0  0  0  0  0  0  0
  179.5350  179.6590  140.9540 O   0  0  0  0  0  0  0  0  0  0  0  0
  179.3650  178.0890  143.2150 O   0  0  0  0  0  1  0  0  0  0  0  0
  183.7570  178.3460  137.6930 N   0  0  0  0  0  0  0  0  0  0  0  0
  184.2320  178.6620  139.0340 C   0  0  0  0  0  1  0  0  0  0  0  0
  186.4550  177.3350  136.5370 C   0  0  2  0  0  0  0  0  0  0  0  0
  185.1390  177.4390  135.8410 C   0  0  0  0  0  2  0  0  0  0  0  0
  185.8690  177.0620  137.8840 C   0  0  0  0  0  2  0  0  0  0  0  0
  187.1360  178.6940  136.5290 C   0  0  1  0  0  3  0  0  0  0  0  0
  188.6270  178.5630  136.7860 C   0  0  2  0  0  3  0  0  0  0  0  0
  187.8830  177.4680  136.0400 C   0  0  1  0  0  3  0  0  0  0  0  0
  184.4820  177.1600  137.2090 C   0  0  1  0  0  3  0  0  0  0  0  0
  190.1420  177.1480  138.7020 S   0  0  0  0  0  0  0  0  0  0  0  0
  188.8930  178.1670  138.2050 C   0  0  0  0  0  0  0  0  0  0  0  0
  189.7240  177.2900  140.3280 C   0  0  0  0  0  0  0  0  0  0  0  0
  188.1730  178.6280  139.2540 N   0  0  0  0  0  0  0  0  0  0  0  0
  187.9950  178.4940  141.7330 C   0  0  0  0  0  1  0  0  0  0  0  0
  188.6300  178.1370  140.4350 C   0  0  0  0  0  0  0  0  0  0  0  0
  190.3640  176.6710  141.4060 O   0  0  0  0  0  0  0  0  0  0  0  0
  191.5380  177.2050  142.0060 C   0  0  0  0  0  2  0  0  0  0  0  0
  191.2430  177.6510  143.4260 C   0  0  0  0  0  1  0  0  0  0  0  0
  1 21  1  6  0  0  0
  3  2  1  0  0  0  0
  3  1  1  1  0  0  0
  4  5  2  0  0  0  0
  4  6  1  0  0  0  0
  5  3  1  0  0  0  0
  6  2  2  0  0  0  0
  7  1  1  1  0  0  0
  7 10  1  0  0  0  0
  7  8  1  0  0  0  0
  8  9  1  6  0  0  0
 10 11  1  6  0  0  0
 10  8  1  0  0  0  0
 10 15  1  0  0  0  0
 11 12  1  0  0  0  0
 14 13  1  0  0  0  0
 14 12  1  0  0  0  0
 15 16  1  0  0  0  0
 16 18  1  0  0  0  0
 18 17  1  0  0  0  0
 18 20  1  0  0  0  0
 19 18  2  0  0  0  0
 21 22  1  0  0  0  0
 23 25  1  0  0  0  0
 24 23  1  0  0  0  0
 24 29  1  0  0  0  0
 26 23  1  0  0  0  0
 26 27  1  0  0  0  0
 27 31  1  0  0  0  0
 28 26  1  0  0  0  0
 28 23  1  0  0  0  0
 28 27  1  0  0  0  0
 29 21  1  0  0  0  0
 29 25  1  0  0  0  0
 30 32  1  0  0  0  0
 31 30  1  0  0  0  0
 31 33  2  0  0  0  0
 32 35  2  0  0  0  0
 32 36  1  0  0  0  0
 33 35  1  0  0  0  0
 35 34  1  0  0  0  0
 36 37  1  0  0  0  0
 37 38  1  0  0  0  0
M  END
>  <MODEL>
9

>  <REMARK>
 VINA RESULT:      -5.1      3.701      6.149
  Name = 
  13 active torsions:
  status: ('A' for Active; 'I' for Inactive)
    1  A    between atoms: C_2  and  C_10
    2  A    between atoms: C_2  and  O_35
    3  A    between atoms: C_3  and  C_9
    4  A    between atoms: C_4  and  O_23
    5  A    between atoms: N_6  and  C_9
    6  A    between atoms: N_6  and  C_37
    7  A    between atoms: C_8  and  C_9
    8  A    between atoms: C_10  and  C_32
    9  A    between atoms: C_13  and  C_31
   10  A    between atoms: C_14  and  O_23
   11  A    between atoms: C_15  and  C_16
   12  A    between atoms: C_15  and  P_24
   13  A    between atoms: C_16  and  C_32
                            x       y       z     vdW  Elec       q    Type
                         _______ _______ _______ _____ _____    ______ ____

>  <TORSDO>
F 13

$$$$
