=
 OpenBabel11062417183D

 26 30  0  0  1  0  0  0  0  0999 V2000
  186.6410  178.3580  141.8330 C   0  0  0  0  0  3  0  0  0  0  0  0
  190.3150  176.1270  143.1370 C   0  0  0  0  0  2  0  0  0  0  0  0
  186.3220  177.8520  144.6030 C   0  0  0  0  0  0  0  0  0  0  0  0
  187.5710  177.8090  143.9830 C   0  0  0  0  0  0  0  0  0  0  0  0
  185.2060  178.1770  143.8010 C   0  0  0  0  0  3  0  0  0  0  0  0
  189.7970  177.5020  143.4770 C   0  0  1  0  0  3  0  0  0  0  0  0
  189.0810  177.8810  142.2790 N   0  0  0  0  0  0  0  0  0  0  0  0
  188.8060  177.4300  144.5620 N   0  0  0  0  0  2  0  0  0  0  0  0
  187.7270  178.0620  142.6580 C   0  0  0  0  0  0  0  0  0  0  0  0
  190.2270  175.9360  141.7380 O   0  0  0  0  0  0  0  0  0  0  0  0
  189.4440  176.9870  141.2000 C   0  0  2  0  0  3  0  0  0  0  0  0
  185.3680  178.4240  142.4230 C   0  0  0  0  0  3  0  0  0  0  0  0
  190.0170  176.7750  136.4710 C   0  0  0  0  0  2  0  0  0  0  0  0
  189.5680  177.7080  138.7880 C   0  0  0  0  0  0  0  0  0  0  0  0
  187.0150  177.0350  136.8150 C   0  0  0  0  0  2  0  0  0  0  0  0
  190.3220  177.0330  137.9160 C   0  0  0  0  0  0  0  0  0  0  0  0
  191.5050  176.9660  139.8270 C   0  0  0  0  0  3  0  0  0  0  0  0
  190.2480  177.7260  140.1240 C   0  0  2  0  0  3  0  0  0  0  0  0
  188.9400  175.6990  136.2890 C   0  0  0  0  0  2  0  0  0  0  0  0
  191.5310  176.5650  138.5650 C   0  0  0  0  0  3  0  0  0  0  0  0
  187.8190  175.8810  137.2110 N   0  0  0  0  0  0  0  0  0  0  0  0
  186.9700  174.7130  137.0660 C   0  0  0  0  0  1  0  0  0  0  0  0
  188.2730  178.4520  138.5270 C   0  0  0  0  0  2  0  0  0  0  0  0
  187.7240  178.3630  137.1030 C   0  0  0  0  0  2  0  0  0  0  0  0
  185.7270  178.5350  146.9020 C   0  0  0  0  0  1  0  0  0  0  0  0
  186.2050  177.5770  145.9680 O   0  0  0  0  0  0  0  0  0  0  0  0
  1 12  2  0  0  0  0
  1  9  1  0  0  0  0
  3 26  1  0  0  0  0
  4  8  1  0  0  0  0
  4  3  1  0  0  0  0
  5  3  2  0  0  0  0
  6  2  1  6  0  0  0
  6  8  1  0  0  0  0
  7  9  1  0  0  0  0
  7  6  1  0  0  0  0
  9  4  2  0  0  0  0
 10  2  1  0  0  0  0
 11 10  1  1  0  0  0
 11  7  1  0  0  0  0
 12  5  1  0  0  0  0
 13 16  1  0  0  0  0
 14 18  1  0  0  0  0
 15 24  1  0  0  0  0
 15 21  1  0  0  0  0
 16 20  1  0  0  0  0
 16 14  2  0  0  0  0
 18 17  1  6  0  0  0
 18 11  1  0  0  0  0
 19 13  1  0  0  0  0
 19 21  1  0  0  0  0
 20 17  2  0  0  0  0
 22 21  1  0  0  0  0
 23 14  1  0  0  0  0
 24 23  1  0  0  0  0
 26 25  1  0  0  0  0
M  END
>  <MODEL>
1

>  <REMARK>
 VINA RESULT:      -8.1      0.000      0.000
  Name = 
  2 active torsions:
  status: ('A' for Active; 'I' for Inactive)
    1  A    between atoms: C_7  and  O_16
    2  A    between atoms: C_12  and  C_24
                            x       y       z     vdW  Elec       q    Type
                         _______ _______ _______ _____ _____    ______ ____

>  <TORSDO>
F 2

$$$$
=
 OpenBabel11062417183D

 26 30  0  0  1  0  0  0  0  0999 V2000
  189.3230  177.4880  141.2110 C   0  0  0  0  0  3  0  0  0  0  0  0
  185.0340  178.1470  142.3710 C   0  0  0  0  0  2  0  0  0  0  0  0
  187.8870  177.8140  138.7900 C   0  0  0  0  0  0  0  0  0  0  0  0
  187.3810  178.2530  140.0150 C   0  0  0  0  0  0  0  0  0  0  0  0
  189.1620  177.2090  138.7900 C   0  0  0  0  0  3  0  0  0  0  0  0
  186.0520  179.0480  141.7190 C   0  0  1  0  0  3  0  0  0  0  0  0
  187.3020  178.5730  142.2690 N   0  0  0  0  0  0  0  0  0  0  0  0
  186.1040  178.8090  140.2690 N   0  0  0  0  0  2  0  0  0  0  0  0
  188.0730  178.1070  141.1740 C   0  0  0  0  0  0  0  0  0  0  0  0
  185.6360  177.5010  143.4770 O   0  0  0  0  0  0  0  0  0  0  0  0
  187.0320  177.7240  143.4100 C   0  0  2  0  0  3  0  0  0  0  0  0
  189.8720  177.0450  139.9970 C   0  0  0  0  0  3  0  0  0  0  0  0
  190.5970  177.1860  146.5290 C   0  0  0  0  0  2  0  0  0  0  0  0
  188.9920  178.2770  144.8960 C   0  0  0  0  0  0  0  0  0  0  0  0
  192.0180  177.4740  143.8660 C   0  0  0  0  0  2  0  0  0  0  0  0
  189.2490  177.5420  145.9810 C   0  0  0  0  0  0  0  0  0  0  0  0
  187.0040  177.6050  145.8830 C   0  0  0  0  0  3  0  0  0  0  0  0
  187.5080  178.3870  144.7080 C   0  0  2  0  0  3  0  0  0  0  0  0
  191.2930  176.1020  145.6990 C   0  0  0  0  0  2  0  0  0  0  0  0
  188.0070  177.1190  146.5980 C   0  0  0  0  0  3  0  0  0  0  0  0
  191.1740  176.3490  144.2620 N   0  0  0  0  0  0  0  0  0  0  0  0
  191.7070  175.1750  143.5940 C   0  0  0  0  0  1  0  0  0  0  0  0
  189.9780  179.0030  144.0020 C   0  0  0  0  0  2  0  0  0  0  0  0
  191.4570  178.8180  144.3440 C   0  0  0  0  0  2  0  0  0  0  0  0
  187.6440  178.6480  136.4770 C   0  0  0  0  0  1  0  0  0  0  0  0
  187.1370  177.9770  137.6220 O   0  0  0  0  0  0  0  0  0  0  0  0
  2 10  1  0  0  0  0
  3  5  2  0  0  0  0
  3  4  1  0  0  0  0
  4  8  1  0  0  0  0
  4  9  2  0  0  0  0
  5 12  1  0  0  0  0
  6  7  1  0  0  0  0
  6  2  1  1  0  0  0
  7 11  1  0  0  0  0
  8  6  1  0  0  0  0
  9  1  1  0  0  0  0
  9  7  1  0  0  0  0
 11 10  1  1  0  0  0
 11 18  1  0  0  0  0
 12  1  2  0  0  0  0
 14 16  2  0  0  0  0
 15 21  1  0  0  0  0
 15 24  1  0  0  0  0
 16 13  1  0  0  0  0
 16 20  1  0  0  0  0
 17 20  2  0  0  0  0
 18 14  1  0  0  0  0
 18 17  1  1  0  0  0
 19 13  1  0  0  0  0
 21 19  1  0  0  0  0
 22 21  1  0  0  0  0
 23 24  1  0  0  0  0
 23 14  1  0  0  0  0
 25 26  1  0  0  0  0
 26  3  1  0  0  0  0
M  END
>  <MODEL>
2

>  <REMARK>
 VINA RESULT:      -7.5      2.187      6.799
  Name = 
  2 active torsions:
  status: ('A' for Active; 'I' for Inactive)
    1  A    between atoms: C_7  and  O_16
    2  A    between atoms: C_12  and  C_24
                            x       y       z     vdW  Elec       q    Type
                         _______ _______ _______ _____ _____    ______ ____

>  <TORSDO>
F 2

$$$$
=
 OpenBabel11062417183D

 26 30  0  0  1  0  0  0  0  0999 V2000
  186.4840  178.1620  142.5580 C   0  0  0  0  0  3  0  0  0  0  0  0
  190.5720  176.7660  141.3310 C   0  0  0  0  0  2  0  0  0  0  0  0
  187.8360  177.4650  144.9490 C   0  0  0  0  0  0  0  0  0  0  0  0
  188.5210  177.7360  143.7640 C   0  0  0  0  0  0  0  0  0  0  0  0
  186.4280  177.5650  144.9260 C   0  0  0  0  0  3  0  0  0  0  0  0
  190.1110  177.9690  142.1140 C   0  0  1  0  0  3  0  0  0  0  0  0
  188.8020  178.2320  141.5590 N   0  0  0  0  0  0  0  0  0  0  0  0
  189.9130  177.6220  143.5300 N   0  0  0  0  0  2  0  0  0  0  0  0
  187.8750  178.0820  142.6210 C   0  0  0  0  0  0  0  0  0  0  0  0
  189.7590  176.6280  140.1820 O   0  0  0  0  0  0  0  0  0  0  0  0
  188.6500  177.4970  140.3210 C   0  0  2  0  0  3  0  0  0  0  0  0
  185.7580  177.9080  143.7340 C   0  0  0  0  0  3  0  0  0  0  0  0
  187.2820  177.3280  135.7570 C   0  0  0  0  0  2  0  0  0  0  0  0
  187.4930  178.1000  138.1650 C   0  0  0  0  0  0  0  0  0  0  0  0
  184.8370  176.3640  137.2700 C   0  0  0  0  0  2  0  0  0  0  0  0
  188.0220  177.7500  136.9900 C   0  0  0  0  0  0  0  0  0  0  0  0
  189.8050  178.2520  138.2650 C   0  0  0  0  0  3  0  0  0  0  0  0
  188.5920  178.4510  139.1220 C   0  0  2  0  0  3  0  0  0  0  0  0
  186.7330  175.9010  135.8710 C   0  0  0  0  0  2  0  0  0  0  0  0
  189.4680  177.8420  137.0520 C   0  0  0  0  0  3  0  0  0  0  0  0
  186.1100  175.6540  137.1710 N   0  0  0  0  0  0  0  0  0  0  0  0
  185.7990  174.2360  137.2180 C   0  0  0  0  0  1  0  0  0  0  0  0
  186.0260  178.2430  138.5260 C   0  0  0  0  0  2  0  0  0  0  0  0
  185.0270  177.8770  137.4280 C   0  0  0  0  0  2  0  0  0  0  0  0
  188.1300  177.5040  147.4020 C   0  0  0  0  0  1  0  0  0  0  0  0
  188.5400  177.1050  146.1020 O   0  0  0  0  0  0  0  0  0  0  0  0
  1  9  2  0  0  0  0
  1 12  1  0  0  0  0
  3 26  1  0  0  0  0
  4  3  2  0  0  0  0
  5  3  1  0  0  0  0
  6  2  1  6  0  0  0
  6  8  1  0  0  0  0
  7  6  1  0  0  0  0
  7  9  1  0  0  0  0
  8  4  1  0  0  0  0
  9  4  1  0  0  0  0
 10  2  1  0  0  0  0
 11 10  1  6  0  0  0
 11  7  1  0  0  0  0
 12  5  2  0  0  0  0
 13 19  1  0  0  0  0
 13 16  1  0  0  0  0
 14 23  1  0  0  0  0
 14 18  1  0  0  0  0
 15 24  1  0  0  0  0
 16 20  1  0  0  0  0
 16 14  2  0  0  0  0
 18 17  1  6  0  0  0
 18 11  1  0  0  0  0
 19 21  1  0  0  0  0
 20 17  2  0  0  0  0
 21 22  1  0  0  0  0
 21 15  1  0  0  0  0
 24 23  1  0  0  0  0
 26 25  1  0  0  0  0
M  END
>  <MODEL>
3

>  <REMARK>
 VINA RESULT:      -7.4      1.458      1.990
  Name = 
  2 active torsions:
  status: ('A' for Active; 'I' for Inactive)
    1  A    between atoms: C_7  and  O_16
    2  A    between atoms: C_12  and  C_24
                            x       y       z     vdW  Elec       q    Type
                         _______ _______ _______ _____ _____    ______ ____

>  <TORSDO>
F 2

$$$$
=
 OpenBabel11062417183D

 26 30  0  0  1  0  0  0  0  0999 V2000
  187.6220  177.7990  142.0310 C   0  0  0  0  0  3  0  0  0  0  0  0
  190.7770  176.3730  139.1710 C   0  0  0  0  0  2  0  0  0  0  0  0
  189.7900  176.9070  143.6220 C   0  0  0  0  0  0  0  0  0  0  0  0
  189.9480  177.2370  142.2750 C   0  0  0  0  0  0  0  0  0  0  0  0
  188.5020  177.0480  144.1820 C   0  0  0  0  0  3  0  0  0  0  0  0
  190.7390  177.5330  140.1330 C   0  0  1  0  0  3  0  0  0  0  0  0
  189.3330  177.8700  140.1750 N   0  0  0  0  0  0  0  0  0  0  0  0
  191.1160  177.1000  141.4870 N   0  0  0  0  0  2  0  0  0  0  0  0
  188.9120  177.6760  141.5150 C   0  0  0  0  0  0  0  0  0  0  0  0
  189.5610  176.3340  138.4500 O   0  0  0  0  0  0  0  0  0  0  0  0
  188.6520  177.2220  139.0740 C   0  0  2  0  0  3  0  0  0  0  0  0
  187.4240  177.4890  143.3870 C   0  0  0  0  0  3  0  0  0  0  0  0
  185.4920  177.4130  135.5090 C   0  0  0  0  0  2  0  0  0  0  0  0
  186.7420  178.0150  137.6330 C   0  0  0  0  0  0  0  0  0  0  0  0
  183.8460  176.4590  137.8700 C   0  0  0  0  0  2  0  0  0  0  0  0
  186.7070  177.7210  136.3310 C   0  0  0  0  0  0  0  0  0  0  0  0
  188.8880  178.0610  136.7560 C   0  0  0  0  0  3  0  0  0  0  0  0
  188.1610  178.2550  138.0520 C   0  0  2  0  0  3  0  0  0  0  0  0
  184.9470  176.0070  135.7840 C   0  0  0  0  0  2  0  0  0  0  0  0
  188.0480  177.7460  135.7820 C   0  0  0  0  0  3  0  0  0  0  0  0
  184.9100  175.7020  137.2140 N   0  0  0  0  0  0  0  0  0  0  0  0
  184.5540  174.2990  137.3290 C   0  0  0  0  0  1  0  0  0  0  0  0
  185.5740  178.1970  138.5840 C   0  0  0  0  0  2  0  0  0  0  0  0
  184.1850  177.9480  137.9950 C   0  0  0  0  0  2  0  0  0  0  0  0
  191.3990  177.1690  145.4790 C   0  0  0  0  0  1  0  0  0  0  0  0
  190.8830  176.4530  144.3660 O   0  0  0  0  0  0  0  0  0  0  0  0
  1 12  1  0  0  0  0
  3  5  1  0  0  0  0
  3 26  1  0  0  0  0
  4  3  2  0  0  0  0
  6  2  1  6  0  0  0
  6  7  1  0  0  0  0
  6  8  1  0  0  0  0
  7  9  1  0  0  0  0
  8  4  1  0  0  0  0
  9  1  2  0  0  0  0
  9  4  1  0  0  0  0
 10  2  1  0  0  0  0
 11 10  1  6  0  0  0
 11  7  1  0  0  0  0
 12  5  2  0  0  0  0
 13 19  1  0  0  0  0
 13 16  1  0  0  0  0
 14 18  1  0  0  0  0
 14 23  1  0  0  0  0
 15 24  1  0  0  0  0
 16 14  2  0  0  0  0
 18 17  1  6  0  0  0
 18 11  1  0  0  0  0
 19 21  1  0  0  0  0
 20 16  1  0  0  0  0
 20 17  2  0  0  0  0
 21 22  1  0  0  0  0
 21 15  1  0  0  0  0
 24 23  1  0  0  0  0
 26 25  1  0  0  0  0
M  END
>  <MODEL>
4

>  <REMARK>
 VINA RESULT:      -7.2      2.133      3.559
  Name = 
  2 active torsions:
  status: ('A' for Active; 'I' for Inactive)
    1  A    between atoms: C_7  and  O_16
    2  A    between atoms: C_12  and  C_24
                            x       y       z     vdW  Elec       q    Type
                         _______ _______ _______ _____ _____    ______ ____

>  <TORSDO>
F 2

$$$$
=
 OpenBabel11062417183D

 26 30  0  0  1  0  0  0  0  0999 V2000
  185.4990  178.8260  140.7520 C   0  0  0  0  0  3  0  0  0  0  0  0
  187.7600  176.7180  144.0090 C   0  0  0  0  0  2  0  0  0  0  0  0
  183.7230  178.6280  142.9510 C   0  0  0  0  0  0  0  0  0  0  0  0
  185.1050  178.5060  143.1030 C   0  0  0  0  0  0  0  0  0  0  0  0
  183.2290  178.8740  141.6520 C   0  0  0  0  0  3  0  0  0  0  0  0
  187.2330  178.1260  143.8970 C   0  0  1  0  0  3  0  0  0  0  0  0
  187.2910  178.3790  142.4750 N   0  0  0  0  0  0  0  0  0  0  0  0
  185.8150  178.1820  144.2840 N   0  0  0  0  0  2  0  0  0  0  0  0
  185.9570  178.6120  142.0520 C   0  0  0  0  0  0  0  0  0  0  0  0
  188.4180  176.3770  142.8040 O   0  0  0  0  0  0  0  0  0  0  0  0
  188.1120  177.3690  141.8410 C   0  0  2  0  0  3  0  0  0  0  0  0
  184.1140  178.9680  140.5590 C   0  0  0  0  0  3  0  0  0  0  0  0
  191.0070  176.7470  138.1040 C   0  0  0  0  0  2  0  0  0  0  0  0
  189.5140  177.8850  139.8110 C   0  0  0  0  0  0  0  0  0  0  0  0
  188.2860  177.1770  136.8340 C   0  0  0  0  0  2  0  0  0  0  0  0
  190.5490  177.1060  139.4850 C   0  0  0  0  0  0  0  0  0  0  0  0
  190.5750  177.1380  141.7330 C   0  0  0  0  0  3  0  0  0  0  0  0
  189.4120  177.9800  141.3030 C   0  0  2  0  0  3  0  0  0  0  0  0
  190.0910  175.7130  137.4400 C   0  0  0  0  0  2  0  0  0  0  0  0
  191.2110  176.6360  140.6850 C   0  0  0  0  0  3  0  0  0  0  0  0
  188.6750  176.0220  137.6410 N   0  0  0  0  0  0  0  0  0  0  0  0
  187.9270  174.8880  137.1300 C   0  0  0  0  0  1  0  0  0  0  0  0
  188.6020  178.6670  138.8840 C   0  0  0  0  0  2  0  0  0  0  0  0
  188.8550  178.4890  137.3870 C   0  0  0  0  0  2  0  0  0  0  0  0
  181.4690  178.6290  143.9630 C   0  0  0  0  0  1  0  0  0  0  0  0
  182.8810  178.5050  144.0600 O   0  0  0  0  0  0  0  0  0  0  0  0
  1  9  1  0  0  0  0
  3  4  1  0  0  0  0
  3 26  1  0  0  0  0
  4  8  1  0  0  0  0
  5  3  2  0  0  0  0
  6  2  1  6  0  0  0
  6  8  1  0  0  0  0
  7  6  1  0  0  0  0
  9  7  1  0  0  0  0
  9  4  2  0  0  0  0
 10  2  1  0  0  0  0
 11  7  1  0  0  0  0
 11 10  1  1  0  0  0
 12  1  2  0  0  0  0
 12  5  1  0  0  0  0
 13 16  1  0  0  0  0
 14 18  1  0  0  0  0
 15 24  1  0  0  0  0
 15 21  1  0  0  0  0
 16 14  2  0  0  0  0
 16 20  1  0  0  0  0
 18 17  1  1  0  0  0
 18 11  1  0  0  0  0
 19 21  1  0  0  0  0
 19 13  1  0  0  0  0
 20 17  2  0  0  0  0
 22 21  1  0  0  0  0
 23 14  1  0  0  0  0
 24 23  1  0  0  0  0
 25 26  1  0  0  0  0
M  END
>  <MODEL>
5

>  <REMARK>
 VINA RESULT:      -7.0      1.759      2.335
  Name = 
  2 active torsions:
  status: ('A' for Active; 'I' for Inactive)
    1  A    between atoms: C_7  and  O_16
    2  A    between atoms: C_12  and  C_24
                            x       y       z     vdW  Elec       q    Type
                         _______ _______ _______ _____ _____    ______ ____

>  <TORSDO>
F 2

$$$$
=
 OpenBabel11062417183D

 26 30  0  0  1  0  0  0  0  0999 V2000
  186.6910  178.3470  142.9570 C   0  0  0  0  0  3  0  0  0  0  0  0
  184.9510  177.7950  147.0600 C   0  0  0  0  0  2  0  0  0  0  0  0
  183.8960  178.7320  142.6920 C   0  0  0  0  0  0  0  0  0  0  0  0
  184.5430  178.8320  143.9250 C   0  0  0  0  0  0  0  0  0  0  0  0
  184.6900  178.4460  141.5610 C   0  0  0  0  0  3  0  0  0  0  0  0
  185.0550  179.0030  146.1640 C   0  0  1  0  0  3  0  0  0  0  0  0
  186.2640  178.7440  145.4150 N   0  0  0  0  0  0  0  0  0  0  0  0
  183.9480  179.0280  145.1950 N   0  0  0  0  0  2  0  0  0  0  0  0
  185.8840  178.6590  144.0510 C   0  0  0  0  0  0  0  0  0  0  0  0
  186.1990  177.1300  147.0810 O   0  0  0  0  0  0  0  0  0  0  0  0
  187.0060  177.6780  146.0540 C   0  0  2  0  0  3  0  0  0  0  0  0
  186.0800  178.2520  141.6960 C   0  0  0  0  0  3  0  0  0  0  0  0
  191.6810  176.8980  145.5380 C   0  0  0  0  0  2  0  0  0  0  0  0
  189.4610  178.1170  145.6960 C   0  0  0  0  0  0  0  0  0  0  0  0
  190.7460  177.5160  142.7200 C   0  0  0  0  0  2  0  0  0  0  0  0
  190.3790  177.2750  146.1780 C   0  0  0  0  0  0  0  0  0  0  0  0
  188.7690  177.2870  147.7470 C   0  0  0  0  0  3  0  0  0  0  0  0
  188.3130  178.2070  146.6560 C   0  0  2  0  0  3  0  0  0  0  0  0
  191.4910  175.9310  144.3640 C   0  0  0  0  0  2  0  0  0  0  0  0
  189.9460  176.7520  147.4590 C   0  0  0  0  0  3  0  0  0  0  0  0
  190.3830  176.3310  143.4960 N   0  0  0  0  0  0  0  0  0  0  0  0
  190.1940  175.2530  142.5420 C   0  0  0  0  0  1  0  0  0  0  0  0
  189.5360  178.9640  144.4400 C   0  0  0  0  0  2  0  0  0  0  0  0
  190.7880  178.7820  143.5820 C   0  0  0  0  0  2  0  0  0  0  0  0
  181.7850  178.6880  141.4080 C   0  0  0  0  0  1  0  0  0  0  0  0
  182.5120  178.9100  142.6090 O   0  0  0  0  0  0  0  0  0  0  0  0
  1  9  1  0  0  0  0
  2 10  1  0  0  0  0
  3  4  1  0  0  0  0
  4  9  2  0  0  0  0
  4  8  1  0  0  0  0
  5 12  1  0  0  0  0
  5  3  2  0  0  0  0
  6  2  1  1  0  0  0
  7 11  1  0  0  0  0
  7  6  1  0  0  0  0
  8  6  1  0  0  0  0
  9  7  1  0  0  0  0
 11 18  1  0  0  0  0
 11 10  1  1  0  0  0
 12  1  2  0  0  0  0
 13 16  1  0  0  0  0
 14 16  2  0  0  0  0
 14 18  1  0  0  0  0
 15 21  1  0  0  0  0
 15 24  1  0  0  0  0
 16 20  1  0  0  0  0
 18 17  1  1  0  0  0
 19 13  1  0  0  0  0
 20 17  2  0  0  0  0
 21 19  1  0  0  0  0
 22 21  1  0  0  0  0
 23 14  1  0  0  0  0
 24 23  1  0  0  0  0
 25 26  1  0  0  0  0
 26  3  1  0  0  0  0
M  END
>  <MODEL>
6

>  <REMARK>
 VINA RESULT:      -6.9      3.794      6.209
  Name = 
  2 active torsions:
  status: ('A' for Active; 'I' for Inactive)
    1  A    between atoms: C_7  and  O_16
    2  A    between atoms: C_12  and  C_24
                            x       y       z     vdW  Elec       q    Type
                         _______ _______ _______ _____ _____    ______ ____

>  <TORSDO>
F 2

$$$$
=
 OpenBabel11062417183D

 26 30  0  0  1  0  0  0  0  0999 V2000
  187.9710  177.4530  142.8310 C   0  0  0  0  0  3  0  0  0  0  0  0
  191.3040  176.6890  139.9190 C   0  0  0  0  0  2  0  0  0  0  0  0
  190.3470  177.2920  144.3680 C   0  0  0  0  0  0  0  0  0  0  0  0
  190.3700  177.5450  142.9960 C   0  0  0  0  0  0  0  0  0  0  0  0
  189.0850  177.1320  144.9810 C   0  0  0  0  0  3  0  0  0  0  0  0
  190.9870  177.8700  140.8010 C   0  0  1  0  0  3  0  0  0  0  0  0
  189.5440  177.8260  140.8910 N   0  0  0  0  0  0  0  0  0  0  0  0
  191.5070  177.6590  142.1600 N   0  0  0  0  0  2  0  0  0  0  0  0
  189.2310  177.6340  142.2610 C   0  0  0  0  0  0  0  0  0  0  0  0
  190.1200  176.2740  139.2650 O   0  0  0  0  0  0  0  0  0  0  0  0
  189.0270  176.9380  139.8720 C   0  0  2  0  0  3  0  0  0  0  0  0
  187.9050  177.2090  144.2130 C   0  0  0  0  0  3  0  0  0  0  0  0
  189.1000  177.4600  135.1330 C   0  0  0  0  0  2  0  0  0  0  0  0
  188.2380  177.0260  137.4800 C   0  0  0  0  0  0  0  0  0  0  0  0
  188.8870  174.4600  135.5160 C   0  0  0  0  0  2  0  0  0  0  0  0
  188.8790  177.7780  136.5810 C   0  0  0  0  0  0  0  0  0  0  0  0
  188.9840  178.9830  138.4770 C   0  0  0  0  0  3  0  0  0  0  0  0
  188.2480  177.7210  138.8090 C   0  0  2  0  0  3  0  0  0  0  0  0
  190.1840  176.3950  134.9330 C   0  0  0  0  0  2  0  0  0  0  0  0
  189.3490  179.0000  137.2040 C   0  0  0  0  0  3  0  0  0  0  0  0
  190.0410  175.2820  135.8720 N   0  0  0  0  0  0  0  0  0  0  0  0
  191.2150  174.4450  135.7020 C   0  0  0  0  0  1  0  0  0  0  0  0
  187.5030  175.7190  137.2530 C   0  0  0  0  0  2  0  0  0  0  0  0
  187.5590  175.1560  135.8330 C   0  0  0  0  0  2  0  0  0  0  0  0
  191.6800  176.3870  146.2410 C   0  0  0  0  0  1  0  0  0  0  0  0
  191.5430  177.2020  145.0850 O   0  0  0  0  0  0  0  0  0  0  0  0
  1 12  1  0  0  0  0
  3  5  1  0  0  0  0
  3 26  1  0  0  0  0
  4  3  2  0  0  0  0
  6  2  1  6  0  0  0
  6  7  1  0  0  0  0
  6  8  1  0  0  0  0
  7  9  1  0  0  0  0
  8  4  1  0  0  0  0
  9  1  2  0  0  0  0
  9  4  1  0  0  0  0
 10  2  1  0  0  0  0
 11 10  1  6  0  0  0
 11  7  1  0  0  0  0
 12  5  2  0  0  0  0
 13 16  1  0  0  0  0
 14 18  1  0  0  0  0
 15 24  1  0  0  0  0
 15 21  1  0  0  0  0
 16 20  1  0  0  0  0
 16 14  2  0  0  0  0
 18 17  1  6  0  0  0
 18 11  1  0  0  0  0
 19 13  1  0  0  0  0
 19 21  1  0  0  0  0
 20 17  2  0  0  0  0
 22 21  1  0  0  0  0
 23 14  1  0  0  0  0
 24 23  1  0  0  0  0
 26 25  1  0  0  0  0
M  END
>  <MODEL>
7

>  <REMARK>
 VINA RESULT:      -6.7      2.142      3.284
  Name = 
  2 active torsions:
  status: ('A' for Active; 'I' for Inactive)
    1  A    between atoms: C_7  and  O_16
    2  A    between atoms: C_12  and  C_24
                            x       y       z     vdW  Elec       q    Type
                         _______ _______ _______ _____ _____    ______ ____

>  <TORSDO>
F 2

$$$$
=
 OpenBabel11062417183D

 26 30  0  0  1  0  0  0  0  0999 V2000
  186.5850  177.9500  144.5070 C   0  0  0  0  0  3  0  0  0  0  0  0
  185.0410  179.2640  140.4990 C   0  0  0  0  0  2  0  0  0  0  0  0
  183.9340  178.8530  144.9350 C   0  0  0  0  0  0  0  0  0  0  0  0
  184.3950  178.4880  143.6690 C   0  0  0  0  0  0  0  0  0  0  0  0
  184.8360  178.7430  146.0150 C   0  0  0  0  0  3  0  0  0  0  0  0
  184.6460  178.1280  141.4080 C   0  0  1  0  0  3  0  0  0  0  0  0
  185.8840  177.8110  142.0840 N   0  0  0  0  0  0  0  0  0  0  0  0
  183.7030  178.5910  142.4380 N   0  0  0  0  0  2  0  0  0  0  0  0
  185.6620  178.0440  143.4650 C   0  0  0  0  0  0  0  0  0  0  0  0
  186.4520  179.3000  140.3970 O   0  0  0  0  0  0  0  0  0  0  0  0
  186.9860  178.4390  141.3860 C   0  0  2  0  0  3  0  0  0  0  0  0
  186.1550  178.2960  145.7980 C   0  0  0  0  0  3  0  0  0  0  0  0
  191.6000  177.2370  141.3970 C   0  0  0  0  0  2  0  0  0  0  0  0
  189.0750  177.0400  141.5590 C   0  0  0  0  0  0  0  0  0  0  0  0
  190.8470  177.2010  144.3340 C   0  0  0  0  0  2  0  0  0  0  0  0
  190.1890  177.4020  140.9170 C   0  0  0  0  0  0  0  0  0  0  0  0
  188.5350  177.9810  139.5090 C   0  0  0  0  0  3  0  0  0  0  0  0
  187.8820  177.3870  140.7210 C   0  0  2  0  0  3  0  0  0  0  0  0
  191.9640  178.2520  142.4860 C   0  0  0  0  0  2  0  0  0  0  0  0
  189.8530  177.9930  139.6370 C   0  0  0  0  0  3  0  0  0  0  0  0
  190.9050  178.3900  143.4850 N   0  0  0  0  0  0  0  0  0  0  0  0
  191.2880  179.4950  144.3450 C   0  0  0  0  0  1  0  0  0  0  0  0
  188.9530  176.3010  142.8780 C   0  0  0  0  0  2  0  0  0  0  0  0
  190.2660  175.9900  143.5970 C   0  0  0  0  0  2  0  0  0  0  0  0
  181.5310  178.7830  144.3620 C   0  0  0  0  0  1  0  0  0  0  0  0
  182.6240  179.3120  145.0990 O   0  0  0  0  0  0  0  0  0  0  0  0
  1 12  1  0  0  0  0
  3 26  1  0  0  0  0
  3  5  1  0  0  0  0
  4  3  2  0  0  0  0
  6  2  1  6  0  0  0
  6  7  1  0  0  0  0
  6  8  1  0  0  0  0
  7  9  1  0  0  0  0
  8  4  1  0  0  0  0
  9  4  1  0  0  0  0
  9  1  2  0  0  0  0
 10  2  1  0  0  0  0
 11 10  1  6  0  0  0
 11  7  1  0  0  0  0
 12  5  2  0  0  0  0
 13 19  1  0  0  0  0
 14 23  1  0  0  0  0
 16 13  1  0  0  0  0
 16 14  2  0  0  0  0
 17 20  2  0  0  0  0
 18 17  1  6  0  0  0
 18 11  1  0  0  0  0
 18 14  1  0  0  0  0
 19 21  1  0  0  0  0
 20 16  1  0  0  0  0
 21 15  1  0  0  0  0
 21 22  1  0  0  0  0
 23 24  1  0  0  0  0
 24 15  1  0  0  0  0
 25 26  1  0  0  0  0
M  END
>  <MODEL>
8

>  <REMARK>
 VINA RESULT:      -6.6      2.594      5.043
  Name = 
  2 active torsions:
  status: ('A' for Active; 'I' for Inactive)
    1  A    between atoms: C_7  and  O_16
    2  A    between atoms: C_12  and  C_24
                            x       y       z     vdW  Elec       q    Type
                         _______ _______ _______ _____ _____    ______ ____

>  <TORSDO>
F 2

$$$$
=
 OpenBabel11062417183D

 26 30  0  0  1  0  0  0  0  0999 V2000
  187.2100  177.7290  144.1470 C   0  0  0  0  0  3  0  0  0  0  0  0
  187.1450  177.6590  148.6380 C   0  0  0  0  0  2  0  0  0  0  0  0
  184.6590  178.6930  144.9190 C   0  0  0  0  0  0  0  0  0  0  0  0
  185.7430  178.6830  145.7990 C   0  0  0  0  0  0  0  0  0  0  0  0
  184.8780  178.2180  143.6090 C   0  0  0  0  0  3  0  0  0  0  0  0
  187.1130  178.7950  147.6470 C   0  0  1  0  0  3  0  0  0  0  0  0
  187.8610  178.2670  146.5280 N   0  0  0  0  0  0  0  0  0  0  0  0
  185.7410  179.0320  147.1710 N   0  0  0  0  0  2  0  0  0  0  0  0
  186.9690  178.2320  145.4260 C   0  0  0  0  0  0  0  0  0  0  0  0
  188.1540  176.7450  148.2540 O   0  0  0  0  0  0  0  0  0  0  0  0
  188.5810  177.0840  146.9480 C   0  0  2  0  0  3  0  0  0  0  0  0
  186.1470  177.7350  143.2280 C   0  0  0  0  0  3  0  0  0  0  0  0
  192.2370  176.5760  143.9300 C   0  0  0  0  0  2  0  0  0  0  0  0
  190.6270  177.6330  145.5820 C   0  0  0  0  0  0  0  0  0  0  0  0
  190.2490  178.2480  142.3660 C   0  0  0  0  0  2  0  0  0  0  0  0
  191.4790  176.6700  145.2200 C   0  0  0  0  0  0  0  0  0  0  0  0
  190.8120  176.0630  147.2790 C   0  0  0  0  0  3  0  0  0  0  0  0
  190.0930  177.3360  146.9510 C   0  0  2  0  0  3  0  0  0  0  0  0
  191.3430  176.1470  142.7620 C   0  0  0  0  0  2  0  0  0  0  0  0
  191.5940  175.6860  146.2790 C   0  0  0  0  0  3  0  0  0  0  0  0
  190.0620  176.8530  142.7620 N   0  0  0  0  0  0  0  0  0  0  0  0
  189.2480  176.2350  141.7310 C   0  0  0  0  0  1  0  0  0  0  0  0
  190.2780  178.9040  144.8330 C   0  0  0  0  0  2  0  0  0  0  0  0
  190.9300  179.0750  143.4610 C   0  0  0  0  0  2  0  0  0  0  0  0
  182.2460  179.0630  144.5430 C   0  0  0  0  0  1  0  0  0  0  0  0
  183.4130  179.1600  145.3470 O   0  0  0  0  0  0  0  0  0  0  0  0
  1  9  1  0  0  0  0
  3 26  1  0  0  0  0
  3  4  1  0  0  0  0
  4  8  1  0  0  0  0
  5  3  2  0  0  0  0
  6  2  1  1  0  0  0
  7 11  1  0  0  0  0
  7  6  1  0  0  0  0
  8  6  1  0  0  0  0
  9  4  2  0  0  0  0
  9  7  1  0  0  0  0
 10  2  1  0  0  0  0
 11 18  1  0  0  0  0
 11 10  1  1  0  0  0
 12  5  1  0  0  0  0
 12  1  2  0  0  0  0
 13 16  1  0  0  0  0
 14 18  1  0  0  0  0
 15 21  1  0  0  0  0
 15 24  1  0  0  0  0
 16 14  2  0  0  0  0
 16 20  1  0  0  0  0
 18 17  1  6  0  0  0
 19 13  1  0  0  0  0
 20 17  2  0  0  0  0
 21 19  1  0  0  0  0
 22 21  1  0  0  0  0
 23 14  1  0  0  0  0
 24 23  1  0  0  0  0
 25 26  1  0  0  0  0
M  END
>  <MODEL>
9

>  <REMARK>
 VINA RESULT:      -6.4      3.584      5.626
  Name = 
  2 active torsions:
  status: ('A' for Active; 'I' for Inactive)
    1  A    between atoms: C_7  and  O_16
    2  A    between atoms: C_12  and  C_24
                            x       y       z     vdW  Elec       q    Type
                         _______ _______ _______ _____ _____    ______ ____

>  <TORSDO>
F 2

$$$$
