=
 OpenBabel11062413303D

 28 29  0  0  1  0  0  0  0  0999 V2000
  189.3660  177.8050  145.5430 C   0  0  1  0  0  3  0  0  0  0  0  0
  189.4020  177.2420  147.2750 P   0  0  0  0  0  0  0  0  0  0  0  0
  190.9110  176.5630  147.6230 O   0  0  0  0  0  1  0  0  0  0  0  0
  188.3230  176.2060  147.4980 O   0  0  0  0  0  0  0  0  0  0  0  0
  189.1290  178.5570  148.3030 O   0  0  0  0  0  1  0  0  0  0  0  0
  190.3850  177.0270  144.7290 C   0  0  2  0  0  3  0  0  0  0  0  0
  191.6090  177.8820  144.4680 C   0  0  0  0  0  2  0  0  0  0  0  0
  190.5680  177.7030  143.3840 C   0  0  1  0  0  3  0  0  0  0  0  0
  191.0100  176.7560  142.4600 O   0  0  0  0  0  0  0  0  0  0  0  0
  190.0990  176.8440  141.4020 C   0  0  0  0  0  2  0  0  0  0  0  0
  192.1590  177.3600  140.2830 O   0  0  0  0  0  1  0  0  0  0  0  0
  190.7710  177.3820  140.1450 C   0  0  1  0  0  3  0  0  0  0  0  0
  190.8030  175.4520  138.7550 O   0  0  0  0  0  0  0  0  0  0  0  0
  190.3520  176.6160  138.9330 C   0  0  0  0  0  0  0  0  0  0  0  0
  189.4940  177.2010  137.9990 O   0  0  0  0  0  0  0  0  0  0  0  0
  189.0590  178.5460  138.1230 C   0  0  0  0  0  1  0  0  0  0  0  0
  186.9830  178.3760  145.2850 C   0  0  0  0  0  3  0  0  0  0  0  0
  188.0060  177.5860  144.9600 C   0  0  0  0  0  3  0  0  0  0  0  0
  183.2150  178.7150  144.8750 C   0  0  0  0  0  2  0  0  0  0  0  0
  184.2460  178.3380  142.6020 C   0  0  2  0  0  3  0  0  0  0  0  0
  185.6340  178.1490  144.6930 C   0  0  2  0  0  3  0  0  0  0  0  0
  183.1550  179.0900  143.3940 C   0  0  1  0  0  3  0  0  0  0  0  0
  185.6310  178.5460  143.2190 C   0  0  0  0  0  2  0  0  0  0  0  0
  184.6040  178.9790  145.4460 C   0  0  0  0  0  2  0  0  0  0  0  0
  184.2690  178.7160  141.1180 C   0  0  0  0  0  2  0  0  0  0  0  0
  185.6820  178.8010  140.5610 C   0  0  0  0  0  1  0  0  0  0  0  0
  180.7970  178.6000  144.0400 C   0  0  0  0  0  1  0  0  0  0  0  0
  181.7650  178.7410  142.8810 C   0  0  0  0  0  2  0  0  0  0  0  0
  1 18  1  6  0  0  0
  1  2  1  0  0  0  0
  2  4  2  0  0  0  0
  2  3  1  0  0  0  0
  2  5  1  0  0  0  0
  6  1  1  1  0  0  0
  7  6  1  0  0  0  0
  8  9  1  6  0  0  0
  8  7  1  0  0  0  0
  8  6  1  0  0  0  0
 10  9  1  0  0  0  0
 12 11  1  1  0  0  0
 12 10  1  0  0  0  0
 13 14  2  0  0  0  0
 14 12  1  0  0  0  0
 15 16  1  0  0  0  0
 15 14  1  0  0  0  0
 18 17  2  0  0  0  0
 19 24  1  0  0  0  0
 20 25  1  6  0  0  0
 20 23  1  0  0  0  0
 20 22  1  0  0  0  0
 21 17  1  1  0  0  0
 21 24  1  0  0  0  0
 22 28  1  6  0  0  0
 22 19  1  0  0  0  0
 23 21  1  0  0  0  0
 26 25  1  0  0  0  0
 28 27  1  0  0  0  0
M  END
>  <MODEL>
1

>  <REMARK>
 VINA RESULT:      -7.7      0.000      0.000
  Name = 
  11 active torsions:
  status: ('A' for Active; 'I' for Inactive)
    1  A    between atoms: P_2  and  C_12
    2  A    between atoms: C_3  and  C_12
    3  A    between atoms: C_5  and  C_6
    4  A    between atoms: O_8  and  C_22
    5  A    between atoms: C_9  and  C_13
    6  A    between atoms: C_11  and  C_26
    7  A    between atoms: C_12  and  C_16
    8  A    between atoms: O_14  and  C_21
    9  A    between atoms: O_14  and  C_23
   10  A    between atoms: C_22  and  C_28
   11  A    between atoms: C_23  and  C_28
                            x       y       z     vdW  Elec       q    Type
                         _______ _______ _______ _____ _____    ______ ____

>  <TORSDO>
F 11

$$$$
=
 OpenBabel11062413303D

 28 29  0  0  1  0  0  0  0  0999 V2000
  184.9580  178.2550  143.3680 C   0  0  1  0  0  3  0  0  0  0  0  0
  183.6810  179.1230  144.3350 P   0  0  0  0  0  0  0  0  0  0  0  0
  182.1480  178.5640  143.8870 O   0  0  0  0  0  0  0  0  0  0  0  0
  183.7670  180.6100  144.0770 O   0  0  0  0  0  1  0  0  0  0  0  0
  183.9230  178.8300  145.9830 O   0  0  0  0  0  1  0  0  0  0  0  0
  185.5210  179.1870  142.3090 C   0  0  2  0  0  3  0  0  0  0  0  0
  184.6220  179.1970  141.0890 C   0  0  0  0  0  2  0  0  0  0  0  0
  185.8950  178.3770  141.0820 C   0  0  1  0  0  3  0  0  0  0  0  0
  186.8890  179.0580  140.3780 O   0  0  0  0  0  0  0  0  0  0  0  0
  187.7380  178.0520  139.9060 C   0  0  0  0  0  2  0  0  0  0  0  0
  186.5480  178.6080  137.8960 O   0  0  0  0  0  1  0  0  0  0  0  0
  187.6830  177.9600  138.3860 C   0  0  1  0  0  3  0  0  0  0  0  0
  189.0420  179.7720  137.6600 O   0  0  0  0  0  0  0  0  0  0  0  0
  188.9180  178.5220  137.7610 C   0  0  0  0  0  0  0  0  0  0  0  0
  189.9050  177.6640  137.2710 O   0  0  0  0  0  0  0  0  0  0  0  0
  190.4080  176.5840  138.0440 C   0  0  0  0  0  1  0  0  0  0  0  0
  187.1790  177.2690  143.7700 C   0  0  0  0  0  3  0  0  0  0  0  0
  186.0670  177.8100  144.2660 C   0  0  0  0  0  3  0  0  0  0  0  0
  190.7480  176.5970  144.9060 C   0  0  0  0  0  2  0  0  0  0  0  0
  189.3540  177.1900  146.9260 C   0  0  2  0  0  3  0  0  0  0  0  0
  188.2800  176.8340  144.6770 C   0  0  2  0  0  3  0  0  0  0  0  0
  190.7310  177.3370  146.2440 C   0  0  1  0  0  3  0  0  0  0  0  0
  188.2180  177.6100  145.9910 C   0  0  0  0  0  2  0  0  0  0  0  0
  189.6210  177.0820  144.0020 C   0  0  0  0  0  2  0  0  0  0  0  0
  189.2600  177.9570  148.2470 C   0  0  0  0  0  2  0  0  0  0  0  0
  187.8480  177.9690  148.8150 C   0  0  0  0  0  1  0  0  0  0  0  0
  192.2300  175.3790  146.6140 C   0  0  0  0  0  1  0  0  0  0  0  0
  191.8400  176.7570  147.1120 C   0  0  0  0  0  2  0  0  0  0  0  0
  1 18  1  1  0  0  0
  1  2  1  0  0  0  0
  2  5  1  0  0  0  0
  3  2  2  0  0  0  0
  4  2  1  0  0  0  0
  6  1  1  1  0  0  0
  7  6  1  0  0  0  0
  8  9  1  6  0  0  0
  8  7  1  0  0  0  0
  8  6  1  0  0  0  0
 10  9  1  0  0  0  0
 12 11  1  6  0  0  0
 12 10  1  0  0  0  0
 13 14  2  0  0  0  0
 14 12  1  0  0  0  0
 15 14  1  0  0  0  0
 15 16  1  0  0  0  0
 17 18  2  0  0  0  0
 19 22  1  0  0  0  0
 20 25  1  1  0  0  0
 21 17  1  6  0  0  0
 21 23  1  0  0  0  0
 22 20  1  0  0  0  0
 22 28  1  1  0  0  0
 23 20  1  0  0  0  0
 24 21  1  0  0  0  0
 24 19  1  0  0  0  0
 25 26  1  0  0  0  0
 27 28  1  0  0  0  0
M  END
>  <MODEL>
2

>  <REMARK>
 VINA RESULT:      -7.6      3.165      6.425
  Name = 
  11 active torsions:
  status: ('A' for Active; 'I' for Inactive)
    1  A    between atoms: P_2  and  C_12
    2  A    between atoms: C_3  and  C_12
    3  A    between atoms: C_5  and  C_6
    4  A    between atoms: O_8  and  C_22
    5  A    between atoms: C_9  and  C_13
    6  A    between atoms: C_11  and  C_26
    7  A    between atoms: C_12  and  C_16
    8  A    between atoms: O_14  and  C_21
    9  A    between atoms: O_14  and  C_23
   10  A    between atoms: C_22  and  C_28
   11  A    between atoms: C_23  and  C_28
                            x       y       z     vdW  Elec       q    Type
                         _______ _______ _______ _____ _____    ______ ____

>  <TORSDO>
F 11

$$$$
=
 OpenBabel11062413303D

 28 29  0  0  1  0  0  0  0  0999 V2000
  183.5150  178.3360  140.7900 C   0  0  1  0  0  3  0  0  0  0  0  0
  181.7340  178.6090  141.0560 P   0  0  0  0  0  0  0  0  0  0  0  0
  180.8650  177.2530  140.5400 O   0  0  0  0  0  1  0  0  0  0  0  0
  181.2800  179.8210  140.2740 O   0  0  0  0  0  0  0  0  0  0  0  0
  181.4410  178.8690  142.7020 O   0  0  0  0  0  1  0  0  0  0  0  0
  183.9760  179.1110  139.5680 C   0  0  2  0  0  3  0  0  0  0  0  0
  183.5800  178.3770  138.3020 C   0  0  0  0  0  2  0  0  0  0  0  0
  185.0020  178.2880  138.8140 C   0  0  1  0  0  3  0  0  0  0  0  0
  185.8210  179.1470  138.0820 O   0  0  0  0  0  0  0  0  0  0  0  0
  186.6670  178.3000  137.3600 C   0  0  0  0  0  2  0  0  0  0  0  0
  187.9710  176.3180  137.7280 O   0  0  0  0  0  1  0  0  0  0  0  0
  187.6060  177.5410  138.2910 C   0  0  1  0  0  3  0  0  0  0  0  0
  189.0390  179.4140  137.9780 O   0  0  0  0  0  0  0  0  0  0  0  0
  188.8180  178.3510  138.6180 C   0  0  0  0  0  0  0  0  0  0  0  0
  189.7060  177.9110  139.6020 O   0  0  0  0  0  0  0  0  0  0  0  0
  189.2650  177.5610  140.9050 C   0  0  0  0  0  1  0  0  0  0  0  0
  184.9510  177.9340  142.7510 C   0  0  0  0  0  3  0  0  0  0  0  0
  184.2890  178.7990  141.9830 C   0  0  0  0  0  3  0  0  0  0  0  0
  185.6060  178.8920  146.3750 C   0  0  0  0  0  2  0  0  0  0  0  0
  187.7430  177.9930  145.3770 C   0  0  2  0  0  3  0  0  0  0  0  0
  185.7230  178.4100  143.9350 C   0  0  2  0  0  3  0  0  0  0  0  0
  186.8540  178.0490  146.6380 C   0  0  1  0  0  3  0  0  0  0  0  0
  186.9510  177.5290  144.1530 C   0  0  0  0  0  2  0  0  0  0  0  0
  184.8360  178.3630  145.1700 C   0  0  0  0  0  2  0  0  0  0  0  0
  188.9840  177.1160  145.5640 C   0  0  0  0  0  2  0  0  0  0  0  0
  190.1170  177.5020  144.6250 C   0  0  0  0  0  1  0  0  0  0  0  0
  188.0030  177.6040  148.8050 C   0  0  0  0  0  1  0  0  0  0  0  0
  187.6000  178.6730  147.8090 C   0  0  0  0  0  2  0  0  0  0  0  0
  1  2  1  0  0  0  0
  1 18  1  1  0  0  0
  2  5  1  0  0  0  0
  3  2  1  0  0  0  0
  4  2  2  0  0  0  0
  6  1  1  1  0  0  0
  7  8  1  0  0  0  0
  7  6  1  0  0  0  0
  8  9  1  6  0  0  0
  8  6  1  0  0  0  0
 10  9  1  0  0  0  0
 10 12  1  0  0  0  0
 12 11  1  6  0  0  0
 12 14  1  0  0  0  0
 13 14  2  0  0  0  0
 14 15  1  0  0  0  0
 15 16  1  0  0  0  0
 18 17  2  0  0  0  0
 19 22  1  0  0  0  0
 20 25  1  1  0  0  0
 20 22  1  0  0  0  0
 21 17  1  6  0  0  0
 21 23  1  0  0  0  0
 21 24  1  0  0  0  0
 22 28  1  1  0  0  0
 23 20  1  0  0  0  0
 24 19  1  0  0  0  0
 26 25  1  0  0  0  0
 28 27  1  0  0  0  0
M  END
>  <MODEL>
3

>  <REMARK>
 VINA RESULT:      -7.5      3.881      6.566
  Name = 
  11 active torsions:
  status: ('A' for Active; 'I' for Inactive)
    1  A    between atoms: P_2  and  C_12
    2  A    between atoms: C_3  and  C_12
    3  A    between atoms: C_5  and  C_6
    4  A    between atoms: O_8  and  C_22
    5  A    between atoms: C_9  and  C_13
    6  A    between atoms: C_11  and  C_26
    7  A    between atoms: C_12  and  C_16
    8  A    between atoms: O_14  and  C_21
    9  A    between atoms: O_14  and  C_23
   10  A    between atoms: C_22  and  C_28
   11  A    between atoms: C_23  and  C_28
                            x       y       z     vdW  Elec       q    Type
                         _______ _______ _______ _____ _____    ______ ____

>  <TORSDO>
F 11

$$$$
=
 OpenBabel11062413303D

 28 29  0  0  1  0  0  0  0  0999 V2000
  183.6270  178.2830  140.6170 C   0  0  1  0  0  3  0  0  0  0  0  0
  181.8520  178.6860  140.6970 P   0  0  0  0  0  0  0  0  0  0  0  0
  181.4160  179.0310  142.2950 O   0  0  0  0  0  1  0  0  0  0  0  0
  181.0390  177.5130  140.1980 O   0  0  0  0  0  1  0  0  0  0  0  0
  181.5340  180.0350  139.7260 O   0  0  0  0  0  0  0  0  0  0  0  0
  184.2640  179.0050  139.4430 C   0  0  2  0  0  3  0  0  0  0  0  0
  183.7820  178.4070  138.1360 C   0  0  0  0  0  2  0  0  0  0  0  0
  185.1440  178.0330  138.6800 C   0  0  1  0  0  3  0  0  0  0  0  0
  186.1330  178.7520  138.0080 O   0  0  0  0  0  0  0  0  0  0  0  0
  187.0980  177.7970  137.6730 C   0  0  0  0  0  2  0  0  0  0  0  0
  188.7090  179.5730  137.7860 O   0  0  0  0  0  1  0  0  0  0  0  0
  188.4850  178.2380  138.1260 C   0  0  1  0  0  3  0  0  0  0  0  0
  188.1490  178.8510  140.3990 O   0  0  0  0  0  0  0  0  0  0  0  0
  188.6690  178.0330  139.5940 C   0  0  0  0  0  0  0  0  0  0  0  0
  189.4350  176.9610  140.0580 O   0  0  0  0  0  0  0  0  0  0  0  0
  189.9740  176.9410  141.3700 C   0  0  0  0  0  1  0  0  0  0  0  0
  185.2780  177.9720  142.4190 C   0  0  0  0  0  3  0  0  0  0  0  0
  184.3060  178.7080  141.8790 C   0  0  0  0  0  3  0  0  0  0  0  0
  185.6360  178.8170  146.1120 C   0  0  0  0  0  2  0  0  0  0  0  0
  187.8480  177.9480  145.2630 C   0  0  2  0  0  3  0  0  0  0  0  0
  185.9500  178.4110  143.6750 C   0  0  2  0  0  3  0  0  0  0  0  0
  186.8600  177.9660  146.4480 C   0  0  1  0  0  3  0  0  0  0  0  0
  187.1590  177.5230  143.9640 C   0  0  0  0  0  2  0  0  0  0  0  0
  184.9670  178.3260  144.8330 C   0  0  0  0  0  2  0  0  0  0  0  0
  189.0710  177.0650  145.5220 C   0  0  0  0  0  2  0  0  0  0  0  0
  190.3770  177.7560  145.1570 C   0  0  0  0  0  1  0  0  0  0  0  0
  187.9090  177.4460  148.6500 C   0  0  0  0  0  1  0  0  0  0  0  0
  187.5080  178.5530  147.6950 C   0  0  0  0  0  2  0  0  0  0  0  0
  1  2  1  0  0  0  0
  1 18  1  1  0  0  0
  2  3  1  0  0  0  0
  4  2  1  0  0  0  0
  5  2  2  0  0  0  0
  6  1  1  1  0  0  0
  7  8  1  0  0  0  0
  7  6  1  0  0  0  0
  8  9  1  6  0  0  0
  8  6  1  0  0  0  0
 10  9  1  0  0  0  0
 10 12  1  0  0  0  0
 12 11  1  1  0  0  0
 12 14  1  0  0  0  0
 14 15  1  0  0  0  0
 14 13  2  0  0  0  0
 15 16  1  0  0  0  0
 18 17  2  0  0  0  0
 19 22  1  0  0  0  0
 20 25  1  1  0  0  0
 20 22  1  0  0  0  0
 21 17  1  6  0  0  0
 21 23  1  0  0  0  0
 21 24  1  0  0  0  0
 22 28  1  1  0  0  0
 23 20  1  0  0  0  0
 24 19  1  0  0  0  0
 26 25  1  0  0  0  0
 28 27  1  0  0  0  0
M  END
>  <MODEL>
4

>  <REMARK>
 VINA RESULT:      -7.5      3.884      6.575
  Name = 
  11 active torsions:
  status: ('A' for Active; 'I' for Inactive)
    1  A    between atoms: P_2  and  C_12
    2  A    between atoms: C_3  and  C_12
    3  A    between atoms: C_5  and  C_6
    4  A    between atoms: O_8  and  C_22
    5  A    between atoms: C_9  and  C_13
    6  A    between atoms: C_11  and  C_26
    7  A    between atoms: C_12  and  C_16
    8  A    between atoms: O_14  and  C_21
    9  A    between atoms: O_14  and  C_23
   10  A    between atoms: C_22  and  C_28
   11  A    between atoms: C_23  and  C_28
                            x       y       z     vdW  Elec       q    Type
                         _______ _______ _______ _____ _____    ______ ____

>  <TORSDO>
F 11

$$$$
=
 OpenBabel11062413303D

 28 29  0  0  1  0  0  0  0  0999 V2000
  189.2550  177.0980  139.1270 C   0  0  1  0  0  3  0  0  0  0  0  0
  188.0730  178.1030  138.1730 P   0  0  0  0  0  0  0  0  0  0  0  0
  187.4860  177.2050  136.8650 O   0  0  0  0  0  0  0  0  0  0  0  0
  188.7600  179.3480  137.6580 O   0  0  0  0  0  1  0  0  0  0  0  0
  186.7800  178.5530  139.1680 O   0  0  0  0  0  1  0  0  0  0  0  0
  190.6330  177.1870  138.4930 C   0  0  2  0  0  3  0  0  0  0  0  0
  190.6160  176.5560  137.1150 C   0  0  0  0  0  2  0  0  0  0  0  0
  191.1780  175.7860  138.2920 C   0  0  1  0  0  3  0  0  0  0  0  0
  192.5720  175.8440  138.2690 O   0  0  0  0  0  0  0  0  0  0  0  0
  192.9660  174.6360  137.6860 C   0  0  0  0  0  2  0  0  0  0  0  0
  194.9280  175.8650  137.0470 O   0  0  0  0  0  1  0  0  0  0  0  0
  194.4720  174.6080  137.4500 C   0  0  1  0  0  3  0  0  0  0  0  0
  195.6760  175.0090  139.4620 O   0  0  0  0  0  0  0  0  0  0  0  0
  195.2050  174.1510  138.6680 C   0  0  0  0  0  0  0  0  0  0  0  0
  195.3880  172.7860  138.9010 O   0  0  0  0  0  0  0  0  0  0  0  0
  195.6630  171.8780  137.8460 C   0  0  0  0  0  1  0  0  0  0  0  0
  188.5610  177.0780  141.4900 C   0  0  0  0  0  3  0  0  0  0  0  0
  189.3320  177.5960  140.5350 C   0  0  0  0  0  3  0  0  0  0  0  0
  187.6550  177.4360  145.1690 C   0  0  0  0  0  2  0  0  0  0  0  0
  190.1410  177.7880  144.9100 C   0  0  2  0  0  3  0  0  0  0  0  0
  188.6520  177.5800  142.8910 C   0  0  2  0  0  3  0  0  0  0  0  0
  189.0280  177.1850  145.7930 C   0  0  1  0  0  3  0  0  0  0  0  0
  190.0380  177.2970  143.4650 C   0  0  0  0  0  2  0  0  0  0  0  0
  187.5970  176.8920  143.7460 C   0  0  0  0  0  2  0  0  0  0  0  0
  191.5450  177.5210  145.4590 C   0  0  0  0  0  2  0  0  0  0  0  0
  191.7620  176.0570  145.8140 C   0  0  0  0  0  1  0  0  0  0  0  0
  187.6080  177.9910  147.6780 C   0  0  0  0  0  1  0  0  0  0  0  0
  189.0290  177.8090  147.1820 C   0  0  0  0  0  2  0  0  0  0  0  0
  1 18  1  1  0  0  0
  2  1  1  0  0  0  0
  2  5  1  0  0  0  0
  3  2  2  0  0  0  0
  4  2  1  0  0  0  0
  6  1  1  1  0  0  0
  7  8  1  0  0  0  0
  7  6  1  0  0  0  0
  8  9  1  6  0  0  0
  8  6  1  0  0  0  0
 10  9  1  0  0  0  0
 12 11  1  1  0  0  0
 12 10  1  0  0  0  0
 12 14  1  0  0  0  0
 14 15  1  0  0  0  0
 14 13  2  0  0  0  0
 16 15  1  0  0  0  0
 18 17  2  0  0  0  0
 19 22  1  0  0  0  0
 20 25  1  1  0  0  0
 20 22  1  0  0  0  0
 21 17  1  6  0  0  0
 21 23  1  0  0  0  0
 21 24  1  0  0  0  0
 22 28  1  1  0  0  0
 23 20  1  0  0  0  0
 24 19  1  0  0  0  0
 25 26  1  0  0  0  0
 28 27  1  0  0  0  0
M  END
>  <MODEL>
5

>  <REMARK>
 VINA RESULT:      -7.4      4.613      6.927
  Name = 
  11 active torsions:
  status: ('A' for Active; 'I' for Inactive)
    1  A    between atoms: P_2  and  C_12
    2  A    between atoms: C_3  and  C_12
    3  A    between atoms: C_5  and  C_6
    4  A    between atoms: O_8  and  C_22
    5  A    between atoms: C_9  and  C_13
    6  A    between atoms: C_11  and  C_26
    7  A    between atoms: C_12  and  C_16
    8  A    between atoms: O_14  and  C_21
    9  A    between atoms: O_14  and  C_23
   10  A    between atoms: C_22  and  C_28
   11  A    between atoms: C_23  and  C_28
                            x       y       z     vdW  Elec       q    Type
                         _______ _______ _______ _____ _____    ______ ____

>  <TORSDO>
F 11

$$$$
=
 OpenBabel11062413303D

 28 29  0  0  1  0  0  0  0  0999 V2000
  190.1880  177.2520  139.0580 C   0  0  1  0  0  3  0  0  0  0  0  0
  191.1470  176.2130  137.9090 P   0  0  0  0  0  0  0  0  0  0  0  0
  190.6600  176.5220  136.3180 O   0  0  0  0  0  0  0  0  0  0  0  0
  190.9190  174.7530  138.2280 O   0  0  0  0  0  1  0  0  0  0  0  0
  192.7940  176.5650  138.0680 O   0  0  0  0  0  1  0  0  0  0  0  0
  188.7130  177.1840  138.7010 C   0  0  2  0  0  3  0  0  0  0  0  0
  188.3980  178.1640  137.5890 C   0  0  0  0  0  2  0  0  0  0  0  0
  188.0630  178.5160  139.0220 C   0  0  1  0  0  3  0  0  0  0  0  0
  186.7020  178.3090  139.2520 O   0  0  0  0  0  0  0  0  0  0  0  0
  186.5630  178.3820  140.6410 C   0  0  0  0  0  2  0  0  0  0  0  0
  184.7380  179.7570  139.9040 O   0  0  0  0  0  1  0  0  0  0  0  0
  185.3000  179.1430  141.0250 C   0  0  1  0  0  3  0  0  0  0  0  0
  183.5650  177.5170  140.9730 O   0  0  0  0  0  0  0  0  0  0  0  0
  184.3040  178.2470  141.6860 C   0  0  0  0  0  0  0  0  0  0  0  0
  184.1810  178.2470  143.0770 O   0  0  0  0  0  0  0  0  0  0  0  0
  183.9170  179.4380  143.8040 C   0  0  0  0  0  1  0  0  0  0  0  0
  189.8520  177.4350  141.4910 C   0  0  0  0  0  3  0  0  0  0  0  0
  190.3740  176.7700  140.4610 C   0  0  0  0  0  3  0  0  0  0  0  0
  191.6670  176.7170  144.7580 C   0  0  0  0  0  2  0  0  0  0  0  0
  189.2260  177.1190  145.2600 C   0  0  2  0  0  3  0  0  0  0  0  0
  190.0410  176.9400  142.8850 C   0  0  2  0  0  3  0  0  0  0  0  0
  190.6760  177.3420  145.7400 C   0  0  1  0  0  3  0  0  0  0  0  0
  189.0320  177.6010  143.8210 C   0  0  0  0  0  2  0  0  0  0  0  0
  191.4530  177.2620  143.3500 C   0  0  0  0  0  2  0  0  0  0  0  0
  188.1890  177.7710  146.1780 C   0  0  0  0  0  2  0  0  0  0  0  0
  186.7600  177.4690  145.7500 C   0  0  0  0  0  1  0  0  0  0  0  0
  192.1330  175.8150  147.0670 C   0  0  0  0  0  1  0  0  0  0  0  0
  190.9070  176.7060  147.1040 C   0  0  0  0  0  2  0  0  0  0  0  0
  1 18  1  1  0  0  0
  2  5  1  0  0  0  0
  2  4  1  0  0  0  0
  2  1  1  0  0  0  0
  3  2  2  0  0  0  0
  6  8  1  0  0  0  0
  6  1  1  1  0  0  0
  7  6  1  0  0  0  0
  7  8  1  0  0  0  0
  8  9  1  6  0  0  0
  9 10  1  0  0  0  0
 10 12  1  0  0  0  0
 12 11  1  6  0  0  0
 12 14  1  0  0  0  0
 13 14  2  0  0  0  0
 14 15  1  0  0  0  0
 15 16  1  0  0  0  0
 18 17  2  0  0  0  0
 19 22  1  0  0  0  0
 20 22  1  0  0  0  0
 20 25  1  1  0  0  0
 21 17  1  6  0  0  0
 21 24  1  0  0  0  0
 21 23  1  0  0  0  0
 22 28  1  1  0  0  0
 23 20  1  0  0  0  0
 24 19  1  0  0  0  0
 26 25  1  0  0  0  0
 27 28  1  0  0  0  0
M  END
>  <MODEL>
6

>  <REMARK>
 VINA RESULT:      -7.3      3.420      7.571
  Name = 
  11 active torsions:
  status: ('A' for Active; 'I' for Inactive)
    1  A    between atoms: P_2  and  C_12
    2  A    between atoms: C_3  and  C_12
    3  A    between atoms: C_5  and  C_6
    4  A    between atoms: O_8  and  C_22
    5  A    between atoms: C_9  and  C_13
    6  A    between atoms: C_11  and  C_26
    7  A    between atoms: C_12  and  C_16
    8  A    between atoms: O_14  and  C_21
    9  A    between atoms: O_14  and  C_23
   10  A    between atoms: C_22  and  C_28
   11  A    between atoms: C_23  and  C_28
                            x       y       z     vdW  Elec       q    Type
                         _______ _______ _______ _____ _____    ______ ____

>  <TORSDO>
F 11

$$$$
=
 OpenBabel11062413303D

 28 29  0  0  1  0  0  0  0  0999 V2000
  189.1580  176.8320  138.7380 C   0  0  1  0  0  3  0  0  0  0  0  0
  188.1750  178.2010  138.0450 P   0  0  0  0  0  0  0  0  0  0  0  0
  187.5600  177.7540  136.5340 O   0  0  0  0  0  0  0  0  0  0  0  0
  189.0460  179.4270  137.8880 O   0  0  0  0  0  1  0  0  0  0  0  0
  186.8920  178.5600  139.0880 O   0  0  0  0  0  1  0  0  0  0  0  0
  190.6230  177.0240  138.3850 C   0  0  2  0  0  3  0  0  0  0  0  0
  190.8450  176.7600  136.9090 C   0  0  0  0  0  2  0  0  0  0  0  0
  191.2010  175.6980  137.9270 C   0  0  1  0  0  3  0  0  0  0  0  0
  192.5780  175.7050  138.1520 O   0  0  0  0  0  0  0  0  0  0  0  0
  193.0280  174.4920  137.6230 C   0  0  0  0  0  2  0  0  0  0  0  0
  194.9830  175.7200  136.9620 O   0  0  0  0  0  1  0  0  0  0  0  0
  194.5440  174.4930  137.4640 C   0  0  1  0  0  3  0  0  0  0  0  0
  195.4270  172.9760  139.0680 O   0  0  0  0  0  0  0  0  0  0  0  0
  195.2270  174.1800  138.7540 C   0  0  0  0  0  0  0  0  0  0  0  0
  195.6090  175.2150  139.6110 O   0  0  0  0  0  0  0  0  0  0  0  0
  196.8930  175.2490  140.2160 C   0  0  0  0  0  1  0  0  0  0  0  0
  190.0610  176.5520  141.0120 C   0  0  0  0  0  3  0  0  0  0  0  0
  189.0150  176.8000  140.2260 C   0  0  0  0  0  3  0  0  0  0  0  0
  190.7150  177.5030  144.6380 C   0  0  0  0  0  2  0  0  0  0  0  0
  188.2890  176.8470  144.3990 C   0  0  2  0  0  3  0  0  0  0  0  0
  189.9050  176.5280  142.4950 C   0  0  2  0  0  3  0  0  0  0  0  0
  189.2840  177.8100  145.0810 C   0  0  1  0  0  3  0  0  0  0  0  0
  188.4610  176.8470  142.8790 C   0  0  0  0  0  2  0  0  0  0  0  0
  190.8370  177.5550  143.1200 C   0  0  0  0  0  2  0  0  0  0  0  0
  186.8320  177.1410  144.7640 C   0  0  0  0  0  2  0  0  0  0  0  0
  186.1560  178.0640  143.7600 C   0  0  0  0  0  1  0  0  0  0  0  0
  190.5460  177.1520  147.1290 C   0  0  0  0  0  1  0  0  0  0  0  0
  189.2270  177.6760  146.5970 C   0  0  0  0  0  2  0  0  0  0  0  0
  1 18  1  1  0  0  0
  2  1  1  0  0  0  0
  2  5  1  0  0  0  0
  3  2  2  0  0  0  0
  4  2  1  0  0  0  0
  6  1  1  6  0  0  0
  7  8  1  0  0  0  0
  7  6  1  0  0  0  0
  8  9  1  1  0  0  0
  8  6  1  0  0  0  0
 10  9  1  0  0  0  0
 12 11  1  1  0  0  0
 12 10  1  0  0  0  0
 12 14  1  0  0  0  0
 14 13  2  0  0  0  0
 14 15  1  0  0  0  0
 15 16  1  0  0  0  0
 18 17  2  0  0  0  0
 19 22  1  0  0  0  0
 20 25  1  6  0  0  0
 20 22  1  0  0  0  0
 21 17  1  6  0  0  0
 21 23  1  0  0  0  0
 21 24  1  0  0  0  0
 22 28  1  1  0  0  0
 23 20  1  0  0  0  0
 24 19  1  0  0  0  0
 26 25  1  0  0  0  0
 28 27  1  0  0  0  0
M  END
>  <MODEL>
7

>  <REMARK>
 VINA RESULT:      -7.2      4.217      6.937
  Name = 
  11 active torsions:
  status: ('A' for Active; 'I' for Inactive)
    1  A    between atoms: P_2  and  C_12
    2  A    between atoms: C_3  and  C_12
    3  A    between atoms: C_5  and  C_6
    4  A    between atoms: O_8  and  C_22
    5  A    between atoms: C_9  and  C_13
    6  A    between atoms: C_11  and  C_26
    7  A    between atoms: C_12  and  C_16
    8  A    between atoms: O_14  and  C_21
    9  A    between atoms: O_14  and  C_23
   10  A    between atoms: C_22  and  C_28
   11  A    between atoms: C_23  and  C_28
                            x       y       z     vdW  Elec       q    Type
                         _______ _______ _______ _____ _____    ______ ____

>  <TORSDO>
F 11

$$$$
=
 OpenBabel11062413303D

 28 29  0  0  1  0  0  0  0  0999 V2000
  188.6640  177.5000  138.9690 C   0  0  1  0  0  3  0  0  0  0  0  0
  188.3940  178.4300  137.4260 P   0  0  0  0  0  0  0  0  0  0  0  0
  189.0580  179.9800  137.5700 O   0  0  0  0  0  1  0  0  0  0  0  0
  186.9120  178.5450  137.1510 O   0  0  0  0  0  1  0  0  0  0  0  0
  189.1370  177.6210  136.1400 O   0  0  0  0  0  0  0  0  0  0  0  0
  190.0260  177.8460  139.5450 C   0  0  2  0  0  3  0  0  0  0  0  0
  191.0910  176.9520  138.9410 C   0  0  0  0  0  2  0  0  0  0  0  0
  190.5530  176.6560  140.3240 C   0  0  1  0  0  3  0  0  0  0  0  0
  191.4530  177.1100  141.2870 O   0  0  0  0  0  0  0  0  0  0  0  0
  190.9690  176.5960  142.4940 C   0  0  0  0  0  2  0  0  0  0  0  0
  190.6470  178.4640  143.9680 O   0  0  0  0  0  1  0  0  0  0  0  0
  191.4970  177.3950  143.6800 C   0  0  1  0  0  3  0  0  0  0  0  0
  192.0500  175.3350  144.7320 O   0  0  0  0  0  0  0  0  0  0  0  0
  191.6760  176.5280  144.8830 C   0  0  0  0  0  0  0  0  0  0  0  0
  191.3990  177.0340  146.1560 O   0  0  0  0  0  0  0  0  0  0  0  0
  191.8210  176.3650  147.3340 C   0  0  0  0  0  1  0  0  0  0  0  0
  187.8920  178.5960  141.0350 C   0  0  0  0  0  3  0  0  0  0  0  0
  187.6080  177.8490  139.9690 C   0  0  0  0  0  3  0  0  0  0  0  0
  184.3700  179.0490  142.4030 C   0  0  0  0  0  2  0  0  0  0  0  0
  185.9070  178.4480  144.3120 C   0  0  2  0  0  3  0  0  0  0  0  0
  186.8280  178.9410  142.0220 C   0  0  2  0  0  3  0  0  0  0  0  0
  184.5000  178.2600  143.7060 C   0  0  1  0  0  3  0  0  0  0  0  0
  187.0040  178.1190  143.2970 C   0  0  0  0  0  2  0  0  0  0  0  0
  185.4620  178.6550  141.4160 C   0  0  0  0  0  2  0  0  0  0  0  0
  186.1150  177.6350  145.5930 C   0  0  0  0  0  2  0  0  0  0  0  0
  187.5840  177.5100  145.9710 C   0  0  0  0  0  1  0  0  0  0  0  0
  182.1030  178.9080  143.9260 C   0  0  0  0  0  1  0  0  0  0  0  0
  183.4200  178.7510  144.6590 C   0  0  0  0  0  2  0  0  0  0  0  0
  1 18  1  1  0  0  0
  2  3  1  0  0  0  0
  2  1  1  0  0  0  0
  4  2  1  0  0  0  0
  5  2  2  0  0  0  0
  6  1  1  6  0  0  0
  6  8  1  0  0  0  0
  7  6  1  0  0  0  0
  7  8  1  0  0  0  0
  8  9  1  1  0  0  0
  9 10  1  0  0  0  0
 10 12  1  0  0  0  0
 12 11  1  1  0  0  0
 12 14  1  0  0  0  0
 13 14  2  0  0  0  0
 14 15  1  0  0  0  0
 15 16  1  0  0  0  0
 18 17  2  0  0  0  0
 19 22  1  0  0  0  0
 20 25  1  1  0  0  0
 21 17  1  6  0  0  0
 21 23  1  0  0  0  0
 22 20  1  0  0  0  0
 22 28  1  1  0  0  0
 23 20  1  0  0  0  0
 24 21  1  0  0  0  0
 24 19  1  0  0  0  0
 25 26  1  0  0  0  0
 27 28  1  0  0  0  0
M  END
>  <MODEL>
8

>  <REMARK>
 VINA RESULT:      -7.2      2.526      6.046
  Name = 
  11 active torsions:
  status: ('A' for Active; 'I' for Inactive)
    1  A    between atoms: P_2  and  C_12
    2  A    between atoms: C_3  and  C_12
    3  A    between atoms: C_5  and  C_6
    4  A    between atoms: O_8  and  C_22
    5  A    between atoms: C_9  and  C_13
    6  A    between atoms: C_11  and  C_26
    7  A    between atoms: C_12  and  C_16
    8  A    between atoms: O_14  and  C_21
    9  A    between atoms: O_14  and  C_23
   10  A    between atoms: C_22  and  C_28
   11  A    between atoms: C_23  and  C_28
                            x       y       z     vdW  Elec       q    Type
                         _______ _______ _______ _____ _____    ______ ____

>  <TORSDO>
F 11

$$$$
=
 OpenBabel11062413303D

 28 29  0  0  1  0  0  0  0  0999 V2000
  186.9980  177.9060  141.1200 C   0  0  1  0  0  3  0  0  0  0  0  0
  185.5070  178.9190  141.3810 P   0  0  0  0  0  0  0  0  0  0  0  0
  185.0420  179.6370  139.9210 O   0  0  0  0  0  0  0  0  0  0  0  0
  185.7950  179.9990  142.4000 O   0  0  0  0  0  1  0  0  0  0  0  0
  184.2490  177.9400  141.9490 O   0  0  0  0  0  1  0  0  0  0  0  0
  187.9020  178.5770  140.1010 C   0  0  2  0  0  3  0  0  0  0  0  0
  187.5480  178.1130  138.7020 C   0  0  0  0  0  2  0  0  0  0  0  0
  188.7460  177.5210  139.4130 C   0  0  1  0  0  3  0  0  0  0  0  0
  189.9160  178.1150  138.9410 O   0  0  0  0  0  0  0  0  0  0  0  0
  190.4130  177.2140  137.9940 C   0  0  0  0  0  2  0  0  0  0  0  0
  191.0550  174.9230  138.3170 O   0  0  0  0  0  1  0  0  0  0  0  0
  191.3970  176.2390  138.6310 C   0  0  1  0  0  3  0  0  0  0  0  0
  193.6460  176.8690  139.0830 O   0  0  0  0  0  0  0  0  0  0  0  0
  192.8000  176.5310  138.2110 C   0  0  0  0  0  0  0  0  0  0  0  0
  193.1550  176.4570  136.8620 O   0  0  0  0  0  0  0  0  0  0  0  0
  194.0690  175.4830  136.3820 C   0  0  0  0  0  1  0  0  0  0  0  0
  188.0620  176.5440  142.8750 C   0  0  0  0  0  3  0  0  0  0  0  0
  187.7440  177.7500  142.4070 C   0  0  0  0  0  3  0  0  0  0  0  0
  191.0310  176.6690  145.2520 C   0  0  0  0  0  2  0  0  0  0  0  0
  188.9260  177.1350  146.5630 C   0  0  2  0  0  3  0  0  0  0  0  0
  188.8100  176.4030  144.1580 C   0  0  2  0  0  3  0  0  0  0  0  0
  190.4160  177.4940  146.3820 C   0  0  1  0  0  3  0  0  0  0  0  0
  188.1570  177.2520  145.2460 C   0  0  0  0  0  2  0  0  0  0  0  0
  190.2500  176.8540  143.9560 C   0  0  0  0  0  2  0  0  0  0  0  0
  188.2410  177.9700  147.6490 C   0  0  0  0  0  2  0  0  0  0  0  0
  186.7910  178.2850  147.3130 C   0  0  0  0  0  1  0  0  0  0  0  0
  192.0170  175.9370  147.4920 C   0  0  0  0  0  1  0  0  0  0  0  0
  191.2080  177.2090  147.6510 C   0  0  0  0  0  2  0  0  0  0  0  0
  1  2  1  0  0  0  0
  1 18  1  1  0  0  0
  2  5  1  0  0  0  0
  2  4  1  0  0  0  0
  3  2  2  0  0  0  0
  6  1  1  1  0  0  0
  7  8  1  0  0  0  0
  7  6  1  0  0  0  0
  8  9  1  6  0  0  0
  8  6  1  0  0  0  0
 10 12  1  0  0  0  0
 10  9  1  0  0  0  0
 12 11  1  6  0  0  0
 14 12  1  0  0  0  0
 14 13  2  0  0  0  0
 15 14  1  0  0  0  0
 16 15  1  0  0  0  0
 18 17  2  0  0  0  0
 19 22  1  0  0  0  0
 20 25  1  1  0  0  0
 21 17  1  6  0  0  0
 21 23  1  0  0  0  0
 22 20  1  0  0  0  0
 22 28  1  1  0  0  0
 23 20  1  0  0  0  0
 24 21  1  0  0  0  0
 24 19  1  0  0  0  0
 26 25  1  0  0  0  0
 27 28  1  0  0  0  0
M  END
>  <MODEL>
9

>  <REMARK>
 VINA RESULT:      -7.2      3.867      6.319
  Name = 
  11 active torsions:
  status: ('A' for Active; 'I' for Inactive)
    1  A    between atoms: P_2  and  C_12
    2  A    between atoms: C_3  and  C_12
    3  A    between atoms: C_5  and  C_6
    4  A    between atoms: O_8  and  C_22
    5  A    between atoms: C_9  and  C_13
    6  A    between atoms: C_11  and  C_26
    7  A    between atoms: C_12  and  C_16
    8  A    between atoms: O_14  and  C_21
    9  A    between atoms: O_14  and  C_23
   10  A    between atoms: C_22  and  C_28
   11  A    between atoms: C_23  and  C_28
                            x       y       z     vdW  Elec       q    Type
                         _______ _______ _______ _____ _____    ______ ____

>  <TORSDO>
F 11

$$$$
