=
 OpenBabel11062416343D

 29 31  0  0  1  0  0  0  0  0999 V2000
  187.4350  177.5540  146.0610 C   0  0  0  0  0  2  0  0  0  0  0  0
  188.6160  177.8010  145.1110 C   0  0  2  0  0  3  0  0  0  0  0  0
  187.1350  178.4010  143.2040 C   0  0  2  0  0  3  0  0  0  0  0  0
  183.8730  178.8000  145.9750 C   0  0  0  0  0  3  0  0  0  0  0  0
  188.2650  177.4560  143.6590 C   0  0  2  0  0  3  0  0  0  0  0  0
  185.9750  178.4730  144.1790 C   0  0  0  0  0  0  0  0  0  0  0  0
  183.7280  179.1500  144.6700 N   0  0  0  0  0  0  0  0  0  0  0  0
  184.7430  179.0070  143.7780 C   0  0  0  0  0  3  0  0  0  0  0  0
  186.1520  178.1410  145.5420 C   0  0  0  0  0  0  0  0  0  0  0  0
  185.0880  178.2900  146.4330 C   0  0  0  0  0  3  0  0  0  0  0  0
  188.9030  175.3170  142.7930 O   0  0  0  0  0  1  0  0  0  0  0  0
  187.8950  175.9830  143.4890 C   0  0  0  0  0  2  0  0  0  0  0  0
  186.7230  178.2750  141.7260 C   0  0  1  0  0  3  0  0  0  0  0  0
  185.7510  179.3750  141.3290 C   0  0  0  0  0  1  0  0  0  0  0  0
  186.6530  178.2790  138.8600 O   0  0  0  0  0  0  0  0  0  0  0  0
  187.7800  178.2900  139.4220 C   0  0  0  0  0  0  0  0  0  0  0  0
  187.8850  178.2750  140.8460 N   0  0  0  0  0  2  0  0  0  0  0  0
  189.0170  178.3510  138.5930 C   0  0  0  0  0  2  0  0  0  0  0  0
  188.5730  176.0590  137.6570 O   0  0  0  0  0  1  0  0  0  0  0  0
  190.5780  176.3240  139.0470 C   0  0  0  0  0  2  0  0  0  0  0  0
  190.8720  176.8570  137.6460 C   0  0  0  0  0  2  0  0  0  0  0  0
  189.4820  176.9530  138.2220 C   0  0  0  0  0  0  0  0  0  0  0  0
  190.1290  177.2200  147.1010 C   0  0  0  0  0  1  0  0  0  0  0  0
  189.9440  177.1940  145.5850 C   0  0  2  0  0  3  0  0  0  0  0  0
  191.1410  177.7660  144.8120 C   0  0  2  0  0  3  0  0  0  0  0  0
  190.8670  179.1770  144.3180 C   0  0  0  0  0  1  0  0  0  0  0  0
  191.7950  177.3800  142.3080 C   0  0  0  0  0  1  0  0  0  0  0  0
  191.6500  176.8790  143.7080 C   0  0  0  0  0  0  0  0  0  0  0  0
  191.9400  175.7210  143.9590 O   0  0  0  0  0  0  0  0  0  0  0  0
  2 24  1  1  0  0  0
  2  1  1  0  0  0  0
  3 13  1  6  0  0  0
  3  5  1  0  0  0  0
  3  6  1  0  0  0  0
  4 10  1  0  0  0  0
  5 12  1  1  0  0  0
  5  2  1  0  0  0  0
  6  9  1  0  0  0  0
  7  4  2  0  0  0  0
  8  6  2  0  0  0  0
  8  7  1  0  0  0  0
  9  1  1  0  0  0  0
  9 10  2  0  0  0  0
 11 12  1  0  0  0  0
 13 14  1  6  0  0  0
 15 16  2  0  0  0  0
 16 17  1  0  0  0  0
 17 13  1  0  0  0  0
 18 16  1  0  0  0  0
 19 22  1  0  0  0  0
 21 22  1  0  0  0  0
 21 20  1  0  0  0  0
 22 18  1  0  0  0  0
 22 20  1  0  0  0  0
 24 23  1  1  0  0  0
 25 26  1  6  0  0  0
 25 24  1  0  0  0  0
 27 28  1  0  0  0  0
 28 29  2  0  0  0  0
 28 25  1  0  0  0  0
M  END
>  <MODEL>
1

>  <REMARK>
 VINA RESULT:      -8.2      0.000      0.000
  Name = 
  8 active torsions:
  status: ('A' for Active; 'I' for Inactive)
    1  A    between atoms: C_4  and  C_29
    2  A    between atoms: C_5  and  C_6
    3  A    between atoms: C_6  and  N_22
    4  A    between atoms: C_7  and  C_10
    5  A    between atoms: C_11  and  C_15
    6  A    between atoms: C_15  and  C_21
    7  A    between atoms: C_19  and  C_25
    8  A    between atoms: C_25  and  C_29
                            x       y       z     vdW  Elec       q    Type
                         _______ _______ _______ _____ _____    ______ ____

>  <TORSDO>
F 8

$$$$
=
 OpenBabel11062416343D

 29 31  0  0  1  0  0  0  0  0999 V2000
  187.0150  177.5050  144.4560 C   0  0  0  0  0  2  0  0  0  0  0  0
  188.5390  177.6760  144.5240 C   0  0  2  0  0  3  0  0  0  0  0  0
  188.7230  178.2150  142.1020 C   0  0  2  0  0  3  0  0  0  0  0  0
  184.4700  178.8320  142.0030 C   0  0  0  0  0  3  0  0  0  0  0  0
  189.2190  177.2670  143.2120 C   0  0  2  0  0  3  0  0  0  0  0  0
  187.2140  178.3640  142.0610 C   0  0  0  0  0  0  0  0  0  0  0  0
  185.2430  179.1190  140.9230 N   0  0  0  0  0  0  0  0  0  0  0  0
  186.5850  178.9070  140.9320 C   0  0  0  0  0  3  0  0  0  0  0  0
  186.4280  178.0970  143.2050 C   0  0  0  0  0  0  0  0  0  0  0  0
  185.0500  178.3160  143.1630 C   0  0  0  0  0  3  0  0  0  0  0  0
  190.1880  175.1040  142.8770 O   0  0  0  0  0  1  0  0  0  0  0  0
  188.9780  175.7970  142.8710 C   0  0  0  0  0  2  0  0  0  0  0  0
  189.3860  178.0250  140.7250 C   0  0  1  0  0  3  0  0  0  0  0  0
  190.8250  177.5510  140.8680 C   0  0  0  0  0  1  0  0  0  0  0  0
  189.2200  178.1120  137.8650 O   0  0  0  0  0  0  0  0  0  0  0  0
  188.5950  177.1970  138.4640 C   0  0  0  0  0  0  0  0  0  0  0  0
  188.6250  177.1060  139.8880 N   0  0  0  0  0  2  0  0  0  0  0  0
  187.8400  176.1820  137.6760 C   0  0  0  0  0  2  0  0  0  0  0  0
  187.0560  177.2430  135.5350 O   0  0  0  0  0  1  0  0  0  0  0  0
  185.7220  177.6810  137.5470 C   0  0  0  0  0  2  0  0  0  0  0  0
  185.3670  176.2970  137.0090 C   0  0  0  0  0  2  0  0  0  0  0  0
  186.7600  176.8470  136.8390 C   0  0  0  0  0  0  0  0  0  0  0  0
  188.3490  177.2090  147.0400 C   0  0  0  0  0  1  0  0  0  0  0  0
  189.1880  177.0600  145.7720 C   0  0  2  0  0  3  0  0  0  0  0  0
  190.6430  177.5190  145.9430 C   0  0  2  0  0  3  0  0  0  0  0  0
  191.0900  178.4080  144.7940 C   0  0  0  0  0  1  0  0  0  0  0  0
  192.0740  176.0620  147.5780 C   0  0  0  0  0  1  0  0  0  0  0  0
  191.6210  176.4040  146.1960 C   0  0  0  0  0  0  0  0  0  0  0  0
  192.0630  175.7720  145.2510 O   0  0  0  0  0  0  0  0  0  0  0  0
  1  2  1  0  0  0  0
  2 24  1  1  0  0  0
  3 13  1  6  0  0  0
  3  5  1  0  0  0  0
  4 10  1  0  0  0  0
  5 12  1  6  0  0  0
  5  2  1  0  0  0  0
  6  3  1  0  0  0  0
  6  9  1  0  0  0  0
  7  8  1  0  0  0  0
  7  4  2  0  0  0  0
  8  6  2  0  0  0  0
  9  1  1  0  0  0  0
 10  9  2  0  0  0  0
 12 11  1  0  0  0  0
 13 14  1  1  0  0  0
 15 16  2  0  0  0  0
 16 17  1  0  0  0  0
 17 13  1  0  0  0  0
 18 16  1  0  0  0  0
 19 22  1  0  0  0  0
 21 20  1  0  0  0  0
 22 21  1  0  0  0  0
 22 20  1  0  0  0  0
 22 18  1  0  0  0  0
 24 25  1  0  0  0  0
 24 23  1  1  0  0  0
 25 26  1  6  0  0  0
 25 28  1  0  0  0  0
 28 27  1  0  0  0  0
 29 28  2  0  0  0  0
M  END
>  <MODEL>
2

>  <REMARK>
 VINA RESULT:      -7.9      1.841      2.967
  Name = 
  8 active torsions:
  status: ('A' for Active; 'I' for Inactive)
    1  A    between atoms: C_4  and  C_29
    2  A    between atoms: C_5  and  C_6
    3  A    between atoms: C_6  and  N_22
    4  A    between atoms: C_7  and  C_10
    5  A    between atoms: C_11  and  C_15
    6  A    between atoms: C_15  and  C_21
    7  A    between atoms: C_19  and  C_25
    8  A    between atoms: C_25  and  C_29
                            x       y       z     vdW  Elec       q    Type
                         _______ _______ _______ _____ _____    ______ ____

>  <TORSDO>
F 8

$$$$
=
 OpenBabel11062416343D

 29 31  0  0  1  0  0  0  0  0999 V2000
  187.8490  177.9620  145.0240 C   0  0  0  0  0  2  0  0  0  0  0  0
  189.2120  178.2550  144.3810 C   0  0  2  0  0  3  0  0  0  0  0  0
  188.3170  178.0580  142.0680 C   0  0  2  0  0  3  0  0  0  0  0  0
  184.3390  178.3080  143.6770 C   0  0  0  0  0  3  0  0  0  0  0  0
  189.3840  177.5240  143.0440 C   0  0  2  0  0  3  0  0  0  0  0  0
  186.9170  178.0780  142.6500 C   0  0  0  0  0  0  0  0  0  0  0  0
  184.5520  178.3140  142.3350 N   0  0  0  0  0  0  0  0  0  0  0  0
  185.8020  178.2120  141.8120 C   0  0  0  0  0  3  0  0  0  0  0  0
  186.7140  178.1090  144.0490 C   0  0  0  0  0  0  0  0  0  0  0  0
  185.4180  178.2050  144.5570 C   0  0  0  0  0  3  0  0  0  0  0  0
  190.5070  175.4280  142.7680 O   0  0  0  0  0  1  0  0  0  0  0  0
  189.3160  176.0050  143.2050 C   0  0  0  0  0  2  0  0  0  0  0  0
  188.4060  177.5140  140.6300 C   0  0  1  0  0  3  0  0  0  0  0  0
  187.6380  178.3970  139.6590 C   0  0  0  0  0  1  0  0  0  0  0  0
  189.2910  176.0970  138.3010 O   0  0  0  0  0  0  0  0  0  0  0  0
  190.1640  176.6520  139.0190 C   0  0  0  0  0  0  0  0  0  0  0  0
  189.7910  177.3630  140.2010 N   0  0  0  0  0  2  0  0  0  0  0  0
  191.5970  176.5940  138.6170 C   0  0  0  0  0  2  0  0  0  0  0  0
  191.4140  174.2120  137.8300 O   0  0  0  0  0  1  0  0  0  0  0  0
  193.0030  175.6570  136.6440 C   0  0  0  0  0  2  0  0  0  0  0  0
  191.5930  175.9510  136.1360 C   0  0  0  0  0  2  0  0  0  0  0  0
  191.8150  175.5210  137.5640 C   0  0  0  0  0  0  0  0  0  0  0  0
  191.7600  178.0700  144.6230 C   0  0  0  0  0  1  0  0  0  0  0  0
  190.4070  178.0890  145.3310 C   0  0  2  0  0  3  0  0  0  0  0  0
  190.2060  176.9160  146.3010 C   0  0  2  0  0  3  0  0  0  0  0  0
  189.2100  177.2580  147.3970 C   0  0  0  0  0  1  0  0  0  0  0  0
  192.1410  175.1550  146.2570 C   0  0  0  0  0  1  0  0  0  0  0  0
  191.4810  176.3500  146.8640 C   0  0  0  0  0  0  0  0  0  0  0  0
  191.9820  176.8720  147.8470 O   0  0  0  0  0  0  0  0  0  0  0  0
  2  1  1  0  0  0  0
  2 24  1  1  0  0  0
  3 13  1  6  0  0  0
  3  6  1  0  0  0  0
  3  5  1  0  0  0  0
  4 10  1  0  0  0  0
  5 12  1  1  0  0  0
  5  2  1  0  0  0  0
  6  9  1  0  0  0  0
  7  4  2  0  0  0  0
  8  7  1  0  0  0  0
  8  6  2  0  0  0  0
  9 10  2  0  0  0  0
  9  1  1  0  0  0  0
 11 12  1  0  0  0  0
 13 14  1  6  0  0  0
 15 16  2  0  0  0  0
 16 17  1  0  0  0  0
 17 13  1  0  0  0  0
 18 16  1  0  0  0  0
 20 22  1  0  0  0  0
 21 20  1  0  0  0  0
 21 22  1  0  0  0  0
 22 19  1  0  0  0  0
 22 18  1  0  0  0  0
 24 23  1  6  0  0  0
 24 25  1  0  0  0  0
 25 28  1  0  0  0  0
 25 26  1  1  0  0  0
 27 28  1  0  0  0  0
 28 29  2  0  0  0  0
M  END
>  <MODEL>
3

>  <REMARK>
 VINA RESULT:      -7.2      1.728      2.622
  Name = 
  8 active torsions:
  status: ('A' for Active; 'I' for Inactive)
    1  A    between atoms: C_4  and  C_29
    2  A    between atoms: C_5  and  C_6
    3  A    between atoms: C_6  and  N_22
    4  A    between atoms: C_7  and  C_10
    5  A    between atoms: C_11  and  C_15
    6  A    between atoms: C_15  and  C_21
    7  A    between atoms: C_19  and  C_25
    8  A    between atoms: C_25  and  C_29
                            x       y       z     vdW  Elec       q    Type
                         _______ _______ _______ _____ _____    ______ ____

>  <TORSDO>
F 8

$$$$
=
 OpenBabel11062416343D

 29 31  0  0  1  0  0  0  0  0999 V2000
  187.9020  177.9170  146.1380 C   0  0  0  0  0  2  0  0  0  0  0  0
  187.4700  177.1880  144.8570 C   0  0  2  0  0  3  0  0  0  0  0  0
  189.7930  176.4820  144.3110 C   0  0  2  0  0  3  0  0  0  0  0  0
  190.9550  177.5070  148.3210 C   0  0  0  0  0  3  0  0  0  0  0  0
  188.5580  177.2350  143.7770 C   0  0  2  0  0  3  0  0  0  0  0  0
  190.2080  176.9100  145.7060 C   0  0  0  0  0  0  0  0  0  0  0  0
  191.8230  176.8890  147.4780 N   0  0  0  0  0  0  0  0  0  0  0  0
  191.4780  176.5800  146.2000 C   0  0  0  0  0  3  0  0  0  0  0  0
  189.2820  177.5180  146.5830 C   0  0  0  0  0  0  0  0  0  0  0  0
  189.6700  177.8320  147.8870 C   0  0  0  0  0  3  0  0  0  0  0  0
  190.2080  178.9670  143.6870 O   0  0  0  0  0  1  0  0  0  0  0  0
  188.8890  178.6650  143.3530 C   0  0  0  0  0  2  0  0  0  0  0  0
  190.9560  176.3290  143.3140 C   0  0  1  0  0  3  0  0  0  0  0  0
  191.9170  175.2350  143.7530 C   0  0  0  0  0  1  0  0  0  0  0  0
  191.7200  177.7770  140.9610 O   0  0  0  0  0  0  0  0  0  0  0  0
  190.9030  176.8280  140.8290 C   0  0  0  0  0  0  0  0  0  0  0  0
  190.4710  176.0750  141.9630 N   0  0  0  0  0  2  0  0  0  0  0  0
  190.4060  176.4660  139.4720 C   0  0  0  0  0  2  0  0  0  0  0  0
  188.4470  177.9160  140.0950 O   0  0  0  0  0  1  0  0  0  0  0  0
  188.4700  176.9930  137.8220 C   0  0  0  0  0  2  0  0  0  0  0  0
  189.4020  178.2020  137.8750 C   0  0  0  0  0  2  0  0  0  0  0  0
  189.2150  177.3290  139.0900 C   0  0  0  0  0  0  0  0  0  0  0  0
  186.0270  177.8580  142.8430 C   0  0  0  0  0  1  0  0  0  0  0  0
  186.0780  177.5840  144.3450 C   0  0  2  0  0  3  0  0  0  0  0  0
  185.4560  178.7030  145.1930 C   0  0  2  0  0  3  0  0  0  0  0  0
  185.0480  178.2030  146.5690 C   0  0  0  0  0  1  0  0  0  0  0  0
  182.9510  178.8850  144.4550 C   0  0  0  0  0  1  0  0  0  0  0  0
  184.3350  179.4450  144.5160 C   0  0  0  0  0  0  0  0  0  0  0  0
  184.5640  180.5240  143.9950 O   0  0  0  0  0  0  0  0  0  0  0  0
  1  9  1  0  0  0  0
  2 24  1  6  0  0  0
  2  1  1  0  0  0  0
  3 13  1  6  0  0  0
  3  6  1  0  0  0  0
  5 12  1  1  0  0  0
  5  3  1  0  0  0  0
  5  2  1  0  0  0  0
  6  8  2  0  0  0  0
  6  9  1  0  0  0  0
  7  4  2  0  0  0  0
  8  7  1  0  0  0  0
  9 10  2  0  0  0  0
 10  4  1  0  0  0  0
 12 11  1  0  0  0  0
 13 14  1  1  0  0  0
 16 15  2  0  0  0  0
 16 17  1  0  0  0  0
 17 13  1  0  0  0  0
 18 16  1  0  0  0  0
 20 21  1  0  0  0  0
 20 22  1  0  0  0  0
 21 22  1  0  0  0  0
 22 18  1  0  0  0  0
 22 19  1  0  0  0  0
 24 23  1  6  0  0  0
 24 25  1  0  0  0  0
 25 26  1  1  0  0  0
 27 28  1  0  0  0  0
 28 25  1  0  0  0  0
 29 28  2  0  0  0  0
M  END
>  <MODEL>
4

>  <REMARK>
 VINA RESULT:      -7.0      2.444      5.273
  Name = 
  8 active torsions:
  status: ('A' for Active; 'I' for Inactive)
    1  A    between atoms: C_4  and  C_29
    2  A    between atoms: C_5  and  C_6
    3  A    between atoms: C_6  and  N_22
    4  A    between atoms: C_7  and  C_10
    5  A    between atoms: C_11  and  C_15
    6  A    between atoms: C_15  and  C_21
    7  A    between atoms: C_19  and  C_25
    8  A    between atoms: C_25  and  C_29
                            x       y       z     vdW  Elec       q    Type
                         _______ _______ _______ _____ _____    ______ ____

>  <TORSDO>
F 8

$$$$
=
 OpenBabel11062416343D

 29 31  0  0  1  0  0  0  0  0999 V2000
  183.7340  178.6880  143.4110 C   0  0  0  0  0  2  0  0  0  0  0  0
  184.0630  177.8800  142.1480 C   0  0  2  0  0  3  0  0  0  0  0  0
  186.3920  177.4110  142.8890 C   0  0  2  0  0  3  0  0  0  0  0  0
  185.2940  178.6720  146.8490 C   0  0  0  0  0  3  0  0  0  0  0  0
  185.5390  178.0110  141.7530 C   0  0  2  0  0  3  0  0  0  0  0  0
  186.0140  177.9220  144.2660 C   0  0  0  0  0  0  0  0  0  0  0  0
  186.5140  178.1260  146.6020 N   0  0  0  0  0  0  0  0  0  0  0  0
  186.8830  177.7440  145.3520 C   0  0  0  0  0  3  0  0  0  0  0  0
  184.7280  178.4530  144.5140 C   0  0  0  0  0  0  0  0  0  0  0  0
  184.3810  178.8450  145.8080 C   0  0  0  0  0  3  0  0  0  0  0  0
  185.6100  179.7540  140.1130 O   0  0  0  0  0  1  0  0  0  0  0  0
  185.9260  179.4560  141.4380 C   0  0  0  0  0  2  0  0  0  0  0  0
  187.9060  177.3540  142.6190 C   0  0  1  0  0  3  0  0  0  0  0  0
  188.5720  176.2630  143.4430 C   0  0  0  0  0  1  0  0  0  0  0  0
  190.4910  177.5330  141.3910 O   0  0  0  0  0  0  0  0  0  0  0  0
  189.5060  177.2620  140.6550 C   0  0  0  0  0  0  0  0  0  0  0  0
  188.1900  177.1720  141.2010 N   0  0  0  0  0  2  0  0  0  0  0  0
  189.7200  177.0020  139.2030 C   0  0  0  0  0  2  0  0  0  0  0  0
  189.0560  179.3790  138.7170 O   0  0  0  0  0  1  0  0  0  0  0  0
  187.7140  177.6120  137.6690 C   0  0  0  0  0  2  0  0  0  0  0  0
  189.0040  177.7930  136.8720 C   0  0  0  0  0  2  0  0  0  0  0  0
  188.9870  178.0320  138.3600 C   0  0  0  0  0  0  0  0  0  0  0  0
  181.7060  178.5840  141.4170 C   0  0  0  0  0  1  0  0  0  0  0  0
  183.0920  178.1100  140.9810 C   0  0  2  0  0  3  0  0  0  0  0  0
  183.0550  176.9100  140.0250 C   0  0  2  0  0  3  0  0  0  0  0  0
  183.9250  177.1420  138.8000 C   0  0  0  0  0  1  0  0  0  0  0  0
  180.9160  177.1050  138.5300 C   0  0  0  0  0  1  0  0  0  0  0  0
  181.6700  176.4580  139.6460 C   0  0  0  0  0  0  0  0  0  0  0  0
  181.1470  175.5510  140.2720 O   0  0  0  0  0  0  0  0  0  0  0  0
  1  9  1  0  0  0  0
  2 24  1  6  0  0  0
  2  1  1  0  0  0  0
  3 13  1  6  0  0  0
  3  6  1  0  0  0  0
  5 12  1  1  0  0  0
  5  2  1  0  0  0  0
  5  3  1  0  0  0  0
  6  9  2  0  0  0  0
  6  8  1  0  0  0  0
  7  4  1  0  0  0  0
  8  7  2  0  0  0  0
  9 10  1  0  0  0  0
 10  4  2  0  0  0  0
 11 12  1  0  0  0  0
 13 14  1  1  0  0  0
 16 17  1  0  0  0  0
 16 15  2  0  0  0  0
 17 13  1  0  0  0  0
 18 16  1  0  0  0  0
 20 22  1  0  0  0  0
 21 20  1  0  0  0  0
 21 22  1  0  0  0  0
 22 19  1  0  0  0  0
 22 18  1  0  0  0  0
 24 23  1  1  0  0  0
 25 26  1  6  0  0  0
 25 24  1  0  0  0  0
 27 28  1  0  0  0  0
 28 25  1  0  0  0  0
 28 29  2  0  0  0  0
M  END
>  <MODEL>
5

>  <REMARK>
 VINA RESULT:      -6.7      2.739      5.763
  Name = 
  8 active torsions:
  status: ('A' for Active; 'I' for Inactive)
    1  A    between atoms: C_4  and  C_29
    2  A    between atoms: C_5  and  C_6
    3  A    between atoms: C_6  and  N_22
    4  A    between atoms: C_7  and  C_10
    5  A    between atoms: C_11  and  C_15
    6  A    between atoms: C_15  and  C_21
    7  A    between atoms: C_19  and  C_25
    8  A    between atoms: C_25  and  C_29
                            x       y       z     vdW  Elec       q    Type
                         _______ _______ _______ _____ _____    ______ ____

>  <TORSDO>
F 8

$$$$
=
 OpenBabel11062416343D

 29 31  0  0  1  0  0  0  0  0999 V2000
  191.7590  177.0280  139.8310 C   0  0  0  0  0  2  0  0  0  0  0  0
  190.3640  176.7650  140.4160 C   0  0  2  0  0  3  0  0  0  0  0  0
  189.3670  176.2930  138.1860 C   0  0  2  0  0  3  0  0  0  0  0  0
  193.3380  175.9320  136.5810 C   0  0  0  0  0  3  0  0  0  0  0  0
  189.2500  177.1740  139.4460 C   0  0  2  0  0  3  0  0  0  0  0  0
  190.7700  176.2350  137.6140 C   0  0  0  0  0  0  0  0  0  0  0  0
  192.2490  175.6340  135.8250 N   0  0  0  0  0  0  0  0  0  0  0  0
  190.9870  175.7660  136.3110 C   0  0  0  0  0  3  0  0  0  0  0  0
  191.8950  176.5110  138.4250 C   0  0  0  0  0  0  0  0  0  0  0  0
  193.1790  176.3760  137.8950 C   0  0  0  0  0  3  0  0  0  0  0  0
  188.5210  179.3760  140.0380 O   0  0  0  0  0  1  0  0  0  0  0  0
  189.2900  178.6660  139.1170 C   0  0  0  0  0  2  0  0  0  0  0  0
  188.2560  176.4870  137.1380 C   0  0  1  0  0  3  0  0  0  0  0  0
  188.2620  175.3630  136.1130 C   0  0  0  0  0  1  0  0  0  0  0  0
  186.6090  178.8340  137.1580 O   0  0  0  0  0  0  0  0  0  0  0  0
  186.1680  177.8000  137.7270 C   0  0  0  0  0  0  0  0  0  0  0  0
  186.9440  176.6020  137.7650 N   0  0  0  0  0  2  0  0  0  0  0  0
  184.8110  177.8180  138.3400 C   0  0  0  0  0  2  0  0  0  0  0  0
  184.5480  180.2030  139.0940 O   0  0  0  0  0  1  0  0  0  0  0  0
  185.5160  178.6270  140.7060 C   0  0  0  0  0  2  0  0  0  0  0  0
  183.9990  178.4490  140.6890 C   0  0  0  0  0  2  0  0  0  0  0  0
  184.7330  178.8650  139.4390 C   0  0  0  0  0  0  0  0  0  0  0  0
  191.3120  178.1850  142.3320 C   0  0  0  0  0  1  0  0  0  0  0  0
  190.1670  177.3010  141.8410 C   0  0  2  0  0  3  0  0  0  0  0  0
  189.7930  176.1830  142.8240 C   0  0  2  0  0  3  0  0  0  0  0  0
  188.3260  176.2500  143.2180 C   0  0  0  0  0  1  0  0  0  0  0  0
  190.3740  176.8180  145.2950 C   0  0  0  0  0  1  0  0  0  0  0  0
  190.6890  176.0890  144.0290 C   0  0  0  0  0  0  0  0  0  0  0  0
  191.7020  175.4120  143.9680 O   0  0  0  0  0  0  0  0  0  0  0  0
  1  2  1  0  0  0  0
  2 24  1  1  0  0  0
  3 13  1  6  0  0  0
  3  5  1  0  0  0  0
  4 10  1  0  0  0  0
  5 12  1  6  0  0  0
  5  2  1  0  0  0  0
  6  3  1  0  0  0  0
  6  9  1  0  0  0  0
  7  8  1  0  0  0  0
  7  4  2  0  0  0  0
  8  6  2  0  0  0  0
  9  1  1  0  0  0  0
 10  9  2  0  0  0  0
 12 11  1  0  0  0  0
 13 14  1  6  0  0  0
 13 17  1  0  0  0  0
 15 16  2  0  0  0  0
 16 17  1  0  0  0  0
 16 18  1  0  0  0  0
 18 22  1  0  0  0  0
 19 22  1  0  0  0  0
 21 20  1  0  0  0  0
 22 21  1  0  0  0  0
 22 20  1  0  0  0  0
 24 23  1  1  0  0  0
 24 25  1  0  0  0  0
 25 26  1  1  0  0  0
 25 28  1  0  0  0  0
 28 27  1  0  0  0  0
 29 28  2  0  0  0  0
M  END
>  <MODEL>
6

>  <REMARK>
 VINA RESULT:      -6.5      2.847      6.677
  Name = 
  8 active torsions:
  status: ('A' for Active; 'I' for Inactive)
    1  A    between atoms: C_4  and  C_29
    2  A    between atoms: C_5  and  C_6
    3  A    between atoms: C_6  and  N_22
    4  A    between atoms: C_7  and  C_10
    5  A    between atoms: C_11  and  C_15
    6  A    between atoms: C_15  and  C_21
    7  A    between atoms: C_19  and  C_25
    8  A    between atoms: C_25  and  C_29
                            x       y       z     vdW  Elec       q    Type
                         _______ _______ _______ _____ _____    ______ ____

>  <TORSDO>
F 8

$$$$
=
 OpenBabel11062416343D

 29 31  0  0  1  0  0  0  0  0999 V2000
  181.7210  178.5180  139.4430 C   0  0  0  0  0  2  0  0  0  0  0  0
  182.7880  177.4710  139.7940 C   0  0  2  0  0  3  0  0  0  0  0  0
  183.0230  178.2930  142.1310 C   0  0  2  0  0  3  0  0  0  0  0  0
  179.3670  180.4990  141.6310 C   0  0  0  0  0  3  0  0  0  0  0  0
  183.7910  177.9990  140.8260 C   0  0  2  0  0  3  0  0  0  0  0  0
  181.7690  179.1220  141.9230 C   0  0  0  0  0  0  0  0  0  0  0  0
  179.9790  180.4260  142.8420 N   0  0  0  0  0  0  0  0  0  0  0  0
  181.1470  179.7520  143.0090 C   0  0  0  0  0  3  0  0  0  0  0  0
  181.1240  179.1560  140.6660 C   0  0  0  0  0  0  0  0  0  0  0  0
  179.9300  179.8650  140.5220 C   0  0  0  0  0  3  0  0  0  0  0  0
  185.8710  178.8650  140.0180 O   0  0  0  0  0  1  0  0  0  0  0  0
  184.5560  179.2190  140.3150 C   0  0  0  0  0  2  0  0  0  0  0  0
  183.8910  178.7320  143.3240 C   0  0  1  0  0  3  0  0  0  0  0  0
  183.0800  178.7670  144.6110 C   0  0  0  0  0  1  0  0  0  0  0  0
  185.9620  179.0600  145.2780 O   0  0  0  0  0  0  0  0  0  0  0  0
  186.0510  178.0880  144.4830 C   0  0  0  0  0  0  0  0  0  0  0  0
  185.0600  177.8750  143.4770 N   0  0  0  0  0  2  0  0  0  0  0  0
  187.1860  177.1310  144.6120 C   0  0  0  0  0  2  0  0  0  0  0  0
  188.1300  178.2530  142.5690 O   0  0  0  0  0  1  0  0  0  0  0  0
  189.6280  176.7570  143.8090 C   0  0  0  0  0  2  0  0  0  0  0  0
  189.5580  178.1000  144.5330 C   0  0  0  0  0  2  0  0  0  0  0  0
  188.3660  177.5820  143.7690 C   0  0  0  0  0  0  0  0  0  0  0  0
  183.2920  177.6070  137.2820 C   0  0  0  0  0  1  0  0  0  0  0  0
  183.4490  176.8100  138.5760 C   0  0  2  0  0  3  0  0  0  0  0  0
  183.0480  175.3350  138.4390 C   0  0  2  0  0  3  0  0  0  0  0  0
  184.0420  174.5600  137.5890 C   0  0  0  0  0  1  0  0  0  0  0  0
  180.5110  174.9510  138.9520 C   0  0  0  0  0  1  0  0  0  0  0  0
  181.6320  175.1160  137.9780 C   0  0  0  0  0  0  0  0  0  0  0  0
  181.3960  175.0600  136.7830 O   0  0  0  0  0  0  0  0  0  0  0  0
  1  2  1  0  0  0  0
  1  9  1  0  0  0  0
  2 24  1  6  0  0  0
  2  5  1  0  0  0  0
  3 13  1  1  0  0  0
  4  7  1  0  0  0  0
  5 12  1  6  0  0  0
  5  3  1  0  0  0  0
  6  3  1  0  0  0  0
  6  8  1  0  0  0  0
  7  8  2  0  0  0  0
  9  6  2  0  0  0  0
 10  9  1  0  0  0  0
 10  4  2  0  0  0  0
 11 12  1  0  0  0  0
 13 17  1  0  0  0  0
 13 14  1  1  0  0  0
 16 18  1  0  0  0  0
 16 15  2  0  0  0  0
 17 16  1  0  0  0  0
 19 22  1  0  0  0  0
 20 21  1  0  0  0  0
 22 20  1  0  0  0  0
 22 21  1  0  0  0  0
 22 18  1  0  0  0  0
 24 23  1  6  0  0  0
 25 26  1  6  0  0  0
 25 24  1  0  0  0  0
 28 25  1  0  0  0  0
 28 27  1  0  0  0  0
 29 28  2  0  0  0  0
M  END
>  <MODEL>
7

>  <REMARK>
 VINA RESULT:      -6.4      4.117      7.556
  Name = 
  8 active torsions:
  status: ('A' for Active; 'I' for Inactive)
    1  A    between atoms: C_4  and  C_29
    2  A    between atoms: C_5  and  C_6
    3  A    between atoms: C_6  and  N_22
    4  A    between atoms: C_7  and  C_10
    5  A    between atoms: C_11  and  C_15
    6  A    between atoms: C_15  and  C_21
    7  A    between atoms: C_19  and  C_25
    8  A    between atoms: C_25  and  C_29
                            x       y       z     vdW  Elec       q    Type
                         _______ _______ _______ _____ _____    ______ ____

>  <TORSDO>
F 8

$$$$
=
 OpenBabel11062416343D

 29 31  0  0  1  0  0  0  0  0999 V2000
  186.8720  177.5160  146.0670 C   0  0  0  0  0  2  0  0  0  0  0  0
  188.1910  177.7730  145.3250 C   0  0  2  0  0  3  0  0  0  0  0  0
  187.0430  178.6860  143.3150 C   0  0  2  0  0  3  0  0  0  0  0  0
  183.4420  179.0340  145.6370 C   0  0  0  0  0  3  0  0  0  0  0  0
  188.0350  177.6140  143.8080 C   0  0  2  0  0  3  0  0  0  0  0  0
  185.7600  178.7410  144.1220 C   0  0  0  0  0  0  0  0  0  0  0  0
  183.5100  179.5320  144.3740 N   0  0  0  0  0  0  0  0  0  0  0  0
  184.6340  179.4080  143.6200 C   0  0  0  0  0  3  0  0  0  0  0  0
  185.7160  178.2530  145.4480 C   0  0  0  0  0  0  0  0  0  0  0  0
  184.5440  178.3860  146.1950 C   0  0  0  0  0  3  0  0  0  0  0  0
  188.6740  175.5240  142.8300 O   0  0  0  0  0  1  0  0  0  0  0  0
  187.6050  176.2000  143.4170 C   0  0  0  0  0  2  0  0  0  0  0  0
  186.8440  178.7510  141.7900 C   0  0  1  0  0  3  0  0  0  0  0  0
  188.0490  178.1860  141.0530 C   0  0  0  0  0  1  0  0  0  0  0  0
  184.9090  179.7450  139.9230 O   0  0  0  0  0  0  0  0  0  0  0  0
  184.7070  178.6120  140.4340 C   0  0  0  0  0  0  0  0  0  0  0  0
  185.6240  178.0650  141.3810 N   0  0  0  0  0  2  0  0  0  0  0  0
  183.5130  177.8200  140.0230 C   0  0  0  0  0  2  0  0  0  0  0  0
  182.0100  179.6290  139.1300 O   0  0  0  0  0  1  0  0  0  0  0  0
  181.6980  178.9800  141.4760 C   0  0  0  0  0  2  0  0  0  0  0  0
  181.0140  177.9480  140.5810 C   0  0  0  0  0  2  0  0  0  0  0  0
  182.2530  178.6650  140.1090 C   0  0  0  0  0  0  0  0  0  0  0  0
  189.8950  177.5770  147.2340 C   0  0  0  0  0  1  0  0  0  0  0  0
  189.3970  177.0180  145.9030 C   0  0  2  0  0  3  0  0  0  0  0  0
  190.5090  176.8370  144.8610 C   0  0  2  0  0  3  0  0  0  0  0  0
  191.7410  176.1810  145.4630 C   0  0  0  0  0  1  0  0  0  0  0  0
  191.2390  178.0460  142.6570 C   0  0  0  0  0  1  0  0  0  0  0  0
  190.8600  178.0890  144.1020 C   0  0  0  0  0  0  0  0  0  0  0  0
  190.8460  179.1610  144.6830 O   0  0  0  0  0  0  0  0  0  0  0  0
  2 24  1  1  0  0  0
  2  1  1  0  0  0  0
  3 13  1  6  0  0  0
  3  5  1  0  0  0  0
  3  6  1  0  0  0  0
  4 10  1  0  0  0  0
  5 12  1  1  0  0  0
  5  2  1  0  0  0  0
  6  9  1  0  0  0  0
  7  4  2  0  0  0  0
  8  6  2  0  0  0  0
  8  7  1  0  0  0  0
  9  1  1  0  0  0  0
  9 10  2  0  0  0  0
 11 12  1  0  0  0  0
 13 14  1  6  0  0  0
 15 16  2  0  0  0  0
 16 17  1  0  0  0  0
 17 13  1  0  0  0  0
 18 22  1  0  0  0  0
 18 16  1  0  0  0  0
 19 22  1  0  0  0  0
 21 20  1  0  0  0  0
 22 21  1  0  0  0  0
 22 20  1  0  0  0  0
 24 23  1  1  0  0  0
 25 26  1  1  0  0  0
 25 24  1  0  0  0  0
 27 28  1  0  0  0  0
 28 29  2  0  0  0  0
 28 25  1  0  0  0  0
M  END
>  <MODEL>
8

>  <REMARK>
 VINA RESULT:      -6.3      2.081      3.758
  Name = 
  8 active torsions:
  status: ('A' for Active; 'I' for Inactive)
    1  A    between atoms: C_4  and  C_29
    2  A    between atoms: C_5  and  C_6
    3  A    between atoms: C_6  and  N_22
    4  A    between atoms: C_7  and  C_10
    5  A    between atoms: C_11  and  C_15
    6  A    between atoms: C_15  and  C_21
    7  A    between atoms: C_19  and  C_25
    8  A    between atoms: C_25  and  C_29
                            x       y       z     vdW  Elec       q    Type
                         _______ _______ _______ _____ _____    ______ ____

>  <TORSDO>
F 8

$$$$
=
 OpenBabel11062416343D

 29 31  0  0  1  0  0  0  0  0999 V2000
  189.5680  177.7400  147.4860 C   0  0  0  0  0  2  0  0  0  0  0  0
  188.6170  177.5060  146.3030 C   0  0  2  0  0  3  0  0  0  0  0  0
  190.3700  176.3910  144.9350 C   0  0  2  0  0  3  0  0  0  0  0  0
  192.7690  176.0040  148.4820 C   0  0  0  0  0  3  0  0  0  0  0  0
  189.3530  177.5490  144.9590 C   0  0  2  0  0  3  0  0  0  0  0  0
  191.2380  176.3200  146.1770 C   0  0  0  0  0  0  0  0  0  0  0  0
  193.1500  175.4230  147.3140 N   0  0  0  0  0  0  0  0  0  0  0  0
  192.4140  175.5570  146.1790 C   0  0  0  0  0  3  0  0  0  0  0  0
  190.8100  176.8970  147.3940 C   0  0  0  0  0  0  0  0  0  0  0  0
  191.5920  176.7510  148.5410 C   0  0  0  0  0  3  0  0  0  0  0  0
  189.9320  179.2240  143.3490 O   0  0  0  0  0  1  0  0  0  0  0  0
  190.0110  178.9050  144.7040 C   0  0  0  0  0  2  0  0  0  0  0  0
  191.1320  176.2070  143.6100 C   0  0  1  0  0  3  0  0  0  0  0  0
  192.0530  174.9980  143.6670 C   0  0  0  0  0  1  0  0  0  0  0  0
  191.4690  177.4770  141.0620 O   0  0  0  0  0  0  0  0  0  0  0  0
  190.4530  176.7520  141.2290 C   0  0  0  0  0  0  0  0  0  0  0  0
  190.2180  176.1020  142.4790 N   0  0  0  0  0  2  0  0  0  0  0  0
  189.5000  176.5470  140.1020 C   0  0  0  0  0  2  0  0  0  0  0  0
  188.2180  178.5330  140.9620 O   0  0  0  0  0  1  0  0  0  0  0  0
  187.7840  177.8440  138.6460 C   0  0  0  0  0  2  0  0  0  0  0  0
  189.0840  178.6450  138.6900 C   0  0  0  0  0  2  0  0  0  0  0  0
  188.6700  177.7970  139.8660 C   0  0  0  0  0  0  0  0  0  0  0  0
  186.9340  178.8050  147.7410 C   0  0  0  0  0  1  0  0  0  0  0  0
  187.3460  178.3670  146.3360 C   0  0  2  0  0  3  0  0  0  0  0  0
  186.2030  177.7280  145.5350 C   0  0  2  0  0  3  0  0  0  0  0  0
  186.7000  177.1280  144.2300 C   0  0  0  0  0  1  0  0  0  0  0  0
  184.8390  179.3890  144.0420 C   0  0  0  0  0  1  0  0  0  0  0  0
  185.0180  178.6290  145.3160 C   0  0  0  0  0  0  0  0  0  0  0  0
  184.1900  178.7510  146.2040 O   0  0  0  0  0  0  0  0  0  0  0  0
  2 24  1  6  0  0  0
  2  1  1  0  0  0  0
  3 13  1  6  0  0  0
  3  5  1  0  0  0  0
  3  6  1  0  0  0  0
  4 10  1  0  0  0  0
  5 12  1  1  0  0  0
  5  2  1  0  0  0  0
  6  8  2  0  0  0  0
  6  9  1  0  0  0  0
  7  4  2  0  0  0  0
  8  7  1  0  0  0  0
  9  1  1  0  0  0  0
  9 10  2  0  0  0  0
 11 12  1  0  0  0  0
 13 14  1  1  0  0  0
 15 16  2  0  0  0  0
 16 17  1  0  0  0  0
 17 13  1  0  0  0  0
 18 16  1  0  0  0  0
 20 21  1  0  0  0  0
 20 22  1  0  0  0  0
 21 22  1  0  0  0  0
 22 18  1  0  0  0  0
 22 19  1  0  0  0  0
 24 23  1  1  0  0  0
 25 26  1  6  0  0  0
 25 24  1  0  0  0  0
 27 28  1  0  0  0  0
 28 25  1  0  0  0  0
 28 29  2  0  0  0  0
M  END
>  <MODEL>
9

>  <REMARK>
 VINA RESULT:      -6.1      2.784      5.538
  Name = 
  8 active torsions:
  status: ('A' for Active; 'I' for Inactive)
    1  A    between atoms: C_4  and  C_29
    2  A    between atoms: C_5  and  C_6
    3  A    between atoms: C_6  and  N_22
    4  A    between atoms: C_7  and  C_10
    5  A    between atoms: C_11  and  C_15
    6  A    between atoms: C_15  and  C_21
    7  A    between atoms: C_19  and  C_25
    8  A    between atoms: C_25  and  C_29
                            x       y       z     vdW  Elec       q    Type
                         _______ _______ _______ _____ _____    ______ ____

>  <TORSDO>
F 8

$$$$
