=
 OpenBabel11062414293D

 50 53  0  0  1  0  0  0  0  0999 V2000
  182.3760  175.6000  137.3480 C   0  0  2  0  0  3  0  0  0  0  0  0
  181.5140  175.9850  138.5240 C   0  0  0  0  0  0  0  0  0  0  0  0
  181.4060  175.2160  139.4680 O   0  0  0  0  0  0  0  0  0  0  0  0
  181.5870  178.3900  139.4840 C   0  0  2  0  0  0  0  0  0  0  0  0
  180.7570  179.5960  139.8820 C   0  0  0  0  0  1  0  0  0  0  0  0
  181.8090  178.3670  137.9950 C   0  0  0  0  0  2  0  0  0  0  0  0
  180.8790  177.3470  138.6250 C   0  0  1  0  0  3  0  0  0  0  0  0
  182.8720  178.0770  140.2480 C   0  0  0  0  0  2  0  0  0  0  0  0
  182.9380  178.8290  141.5750 C   0  0  0  0  0  2  0  0  0  0  0  0
  183.2820  178.9840  144.4120 O   0  0  0  0  0  0  0  0  0  0  0  0
  184.1420  178.4480  142.3040 N   0  0  0  0  0  2  0  0  0  0  0  0
  184.2340  178.5060  143.7360 C   0  0  0  0  0  0  0  0  0  0  0  0
  189.2220  177.1570  146.3130 C   0  0  0  0  0  2  0  0  0  0  0  0
  187.9110  177.4400  145.6460 C   0  0  0  0  0  0  0  0  0  0  0  0
  188.1130  177.4560  148.4310 C   0  0  0  0  0  3  0  0  0  0  0  0
  186.8990  178.0710  146.3790 C   0  0  0  0  0  0  0  0  0  0  0  0
  187.7050  177.1230  144.3060 C   0  0  0  0  0  3  0  0  0  0  0  0
  185.4850  178.1040  144.4070 C   0  0  0  0  0  0  0  0  0  0  0  0
  187.1540  178.4440  147.8120 C   0  0  0  0  0  2  0  0  0  0  0  0
  186.4950  177.4510  143.6880 C   0  0  0  0  0  3  0  0  0  0  0  0
  189.0410  176.8890  147.7210 N   0  0  0  0  0  0  0  0  0  0  0  0
  185.6940  178.4140  145.7560 C   0  0  0  0  0  3  0  0  0  0  0  0
  181.5510  174.8820  136.2750 C   0  0  1  0  0  3  0  0  0  0  0  0
  182.2230  173.7310  135.8460 O   0  0  0  0  0  0  0  0  0  0  0  0
  184.1330  173.6310  134.5940 O   0  0  0  0  0  1  0  0  0  0  0  0
  182.8090  174.0720  134.6260 C   0  0  0  0  0  2  0  0  0  0  0  0
  180.2920  174.5260  136.7670 O   0  0  0  0  0  0  0  0  0  0  0  0
  179.3090  172.6900  137.9400 C   0  0  0  0  0  1  0  0  0  0  0  0
  180.3550  173.1400  136.9410 C   0  0  0  0  0  2  0  0  0  0  0  0
  183.4440  174.7980  137.7690 O   0  0  0  0  0  0  0  0  0  0  0  0
  184.5210  175.6840  137.9120 C   0  0  0  0  0  2  0  0  0  0  0  0
  184.7190  176.5130  136.6490 C   0  0  0  0  0  2  0  0  0  0  0  0
  186.0130  177.3420  136.6590 C   0  0  0  0  0  2  0  0  0  0  0  0
  186.1410  178.3020  137.8110 C   0  0  0  0  0  0  0  0  0  0  0  0
  187.2740  178.3340  140.0230 C   0  0  0  0  0  1  0  0  0  0  0  0
  185.1900  179.0650  138.1240 O   0  0  0  0  0  0  0  0  0  0  0  0
  187.3570  178.3410  138.5680 N   0  0  0  0  0  0  0  0  0  0  0  0
  189.1280  179.0960  137.1560 C   0  0  0  0  0  2  0  0  0  0  0  0
  188.6270  178.1450  137.9330 C   0  0  0  0  0  0  0  0  0  0  0  0
  189.2510  176.7880  137.8720 C   0  0  0  0  0  2  0  0  0  0  0  0
  190.5840  176.7240  138.6020 C   0  0  2  0  0  0  0  0  0  0  0  0
  190.5060  175.7750  139.6320 O   0  0  0  0  0  0  0  0  0  0  0  0
  190.6060  177.1230  140.0430 C   0  0  1  0  0  3  0  0  0  0  0  0
  192.1040  176.4400  137.6290 S   0  0  0  0  0  1  0  0  0  0  0  0
  191.9860  177.4020  140.5740 C   0  0  0  0  0  0  0  0  0  0  0  0
  192.2540  177.4880  141.9770 N   0  0  0  0  0  2  0  0  0  0  0  0
  192.9250  177.6250  139.7640 O   0  0  0  0  0  0  0  0  0  0  0  0
  191.1090  178.7040  143.7280 C   0  0  0  0  0  1  0  0  0  0  0  0
  191.5990  176.3920  143.9290 O   0  0  0  0  0  1  0  0  0  0  0  0
  191.2380  177.3770  143.0090 C   0  0  2  0  0  3  0  0  0  0  0  0
  1 30  1  1  0  0  0
  1  2  1  0  0  0  0
  2  3  2  0  0  0  0
  4  5  1  1  0  0  0
  4  8  1  0  0  0  0
  6  7  1  0  0  0  0
  6  4  1  0  0  0  0
  7  2  1  1  0  0  0
  7  4  1  0  0  0  0
  8  9  1  0  0  0  0
  9 11  1  0  0  0  0
 11 12  1  0  0  0  0
 12 18  1  0  0  0  0
 12 10  2  0  0  0  0
 13 21  1  0  0  0  0
 14 13  1  0  0  0  0
 14 16  1  0  0  0  0
 16 19  1  0  0  0  0
 17 14  2  0  0  0  0
 18 22  1  0  0  0  0
 19 15  1  0  0  0  0
 20 17  1  0  0  0  0
 20 18  2  0  0  0  0
 21 15  2  0  0  0  0
 22 16  2  0  0  0  0
 23 24  1  1  0  0  0
 23 27  1  0  0  0  0
 23  1  1  0  0  0  0
 25 26  1  0  0  0  0
 26 24  1  0  0  0  0
 27 29  1  0  0  0  0
 29 28  1  0  0  0  0
 30 31  1  0  0  0  0
 32 33  1  0  0  0  0
 32 31  1  0  0  0  0
 33 34  1  0  0  0  0
 34 36  2  0  0  0  0
 34 37  1  0  0  0  0
 37 35  1  0  0  0  0
 38 39  2  0  0  0  0
 39 37  1  0  0  0  0
 40 39  1  0  0  0  0
 40 41  1  0  0  0  0
 41 44  1  6  0  0  0
 41 42  1  0  0  0  0
 41 43  1  0  0  0  0
 42 43  1  0  0  0  0
 43 45  1  1  0  0  0
 45 46  1  0  0  0  0
 46 50  1  0  0  0  0
 47 45  2  0  0  0  0
 50 48  1  1  0  0  0
 50 49  1  0  0  0  0
M  END
>  <MODEL>
1

>  <REMARK>
 VINA RESULT:      -6.8      0.000      0.000
  Name = 
  21 active torsions:
  status: ('A' for Active; 'I' for Inactive)
    1  A    between atoms: C_2  and  C_17
    2  A    between atoms: C_3  and  C_46
    3  A    between atoms: C_7  and  C_31
    4  A    between atoms: C_7  and  O_32
    5  A    between atoms: C_8  and  O_32
    6  A    between atoms: C_8  and  C_36
    7  A    between atoms: C_8  and  C_42
    8  A    between atoms: C_9  and  C_17
    9  A    between atoms: C_9  and  N_19
   10  A    between atoms: C_13  and  C_34
   11  A    between atoms: N_20  and  C_24
   12  A    between atoms: C_21  and  C_42
   13  A    between atoms: C_23  and  C_37
   14  A    between atoms: C_26  and  C_44
   15  A    between atoms: N_29  and  C_43
   16  A    between atoms: C_30  and  O_47
   17  A    between atoms: C_31  and  C_34
   18  A    between atoms: C_36  and  O_41
   19  A    between atoms: C_36  and  O_47
   20  A    between atoms: C_40  and  O_41
   21  A    between atoms: C_43  and  C_44
                            x       y       z     vdW  Elec       q    Type
                         _______ _______ _______ _____ _____    ______ ____

>  <TORSDO>
F 21

$$$$
=
 OpenBabel11062414293D

 50 53  0  0  1  0  0  0  0  0999 V2000
  189.3680  176.5590  143.9230 C   0  0  2  0  0  3  0  0  0  0  0  0
  188.2600  177.5810  143.8810 C   0  0  0  0  0  0  0  0  0  0  0  0
  187.8620  177.9930  142.8020 O   0  0  0  0  0  0  0  0  0  0  0  0
  186.0290  178.1980  145.0450 C   0  0  2  0  0  0  0  0  0  0  0  0
  185.3910  178.9930  146.1690 C   0  0  0  0  0  1  0  0  0  0  0  0
  186.6030  176.9080  145.5680 C   0  0  0  0  0  2  0  0  0  0  0  0
  187.5420  178.0180  145.1310 C   0  0  1  0  0  3  0  0  0  0  0  0
  185.2580  177.9830  143.7450 C   0  0  0  0  0  2  0  0  0  0  0  0
  184.5600  179.2600  143.2830 C   0  0  0  0  0  2  0  0  0  0  0  0
  185.3850  179.4100  140.5470 O   0  0  0  0  0  0  0  0  0  0  0  0
  183.7170  178.9780  142.1280 N   0  0  0  0  0  2  0  0  0  0  0  0
  184.2060  179.0260  140.7790 C   0  0  0  0  0  0  0  0  0  0  0  0
  180.4460  177.8740  136.5500 C   0  0  0  0  0  2  0  0  0  0  0  0
  181.4720  178.1530  137.6050 C   0  0  0  0  0  0  0  0  0  0  0  0
  180.7380  180.1410  135.7870 C   0  0  0  0  0  3  0  0  0  0  0  0
  181.7800  179.4820  137.9180 C   0  0  0  0  0  0  0  0  0  0  0  0
  182.0870  177.1140  138.3000 C   0  0  0  0  0  3  0  0  0  0  0  0
  183.2940  178.7270  139.6580 C   0  0  0  0  0  0  0  0  0  0  0  0
  181.0760  180.5910  137.1870 C   0  0  0  0  0  2  0  0  0  0  0  0
  182.9980  177.4000  139.3220 C   0  0  0  0  0  3  0  0  0  0  0  0
  180.4570  178.8980  135.5310 N   0  0  0  0  0  0  0  0  0  0  0  0
  182.6790  179.7680  138.9520 C   0  0  0  0  0  3  0  0  0  0  0  0
  190.7160  177.2250  144.2160 C   0  0  1  0  0  3  0  0  0  0  0  0
  190.5160  178.4430  144.8770 O   0  0  0  0  0  0  0  0  0  0  0  0
  192.3910  179.6450  144.3690 O   0  0  0  0  0  1  0  0  0  0  0  0
  191.0540  179.4190  144.0370 C   0  0  0  0  0  2  0  0  0  0  0  0
  191.5210  176.3980  145.0050 O   0  0  0  0  0  0  0  0  0  0  0  0
  192.0220  175.9210  147.2940 C   0  0  0  0  0  1  0  0  0  0  0  0
  191.1510  176.6900  146.3220 C   0  0  0  0  0  2  0  0  0  0  0  0
  189.4210  175.8480  142.7180 O   0  0  0  0  0  0  0  0  0  0  0  0
  190.3940  176.5080  141.9560 C   0  0  0  0  0  2  0  0  0  0  0  0
  190.0300  176.5010  140.4760 C   0  0  0  0  0  2  0  0  0  0  0  0
  190.9710  177.3550  139.6110 C   0  0  0  0  0  2  0  0  0  0  0  0
  191.4180  176.7030  138.3300 C   0  0  0  0  0  0  0  0  0  0  0  0
  190.5800  174.9160  136.8200 C   0  0  0  0  0  1  0  0  0  0  0  0
  192.6410  176.5430  138.0810 O   0  0  0  0  0  0  0  0  0  0  0  0
  190.4400  176.2520  137.3860 N   0  0  0  0  0  0  0  0  0  0  0  0
  189.2690  178.2400  136.7730 C   0  0  0  0  0  2  0  0  0  0  0  0
  189.2220  176.9800  137.1830 C   0  0  0  0  0  0  0  0  0  0  0  0
  187.9230  176.4630  137.7110 C   0  0  0  0  0  2  0  0  0  0  0  0
  186.9290  176.1390  136.6060 C   0  0  2  0  0  0  0  0  0  0  0  0
  186.0460  177.2160  136.4410 O   0  0  0  0  0  0  0  0  0  0  0  0
  185.4840  176.0370  136.9800 C   0  0  1  0  0  3  0  0  0  0  0  0
  187.5690  175.6220  134.9740 S   0  0  0  0  0  1  0  0  0  0  0  0
  184.6370  175.3480  135.9450 C   0  0  0  0  0  0  0  0  0  0  0  0
  184.4080  173.9360  135.9730 N   0  0  0  0  0  2  0  0  0  0  0  0
  184.1610  176.0200  134.9910 O   0  0  0  0  0  0  0  0  0  0  0  0
  186.1390  172.2740  136.2890 C   0  0  0  0  0  1  0  0  0  0  0  0
  184.0460  172.1230  137.3950 O   0  0  0  0  0  1  0  0  0  0  0  0
  185.0020  173.0330  136.9430 C   0  0  2  0  0  3  0  0  0  0  0  0
  1 30  1  6  0  0  0
  1 23  1  0  0  0  0
  2  1  1  0  0  0  0
  3  2  2  0  0  0  0
  4  7  1  0  0  0  0
  4  6  1  0  0  0  0
  4  5  1  1  0  0  0
  7  2  1  6  0  0  0
  7  6  1  0  0  0  0
  8  4  1  0  0  0  0
  9  8  1  0  0  0  0
 10 12  2  0  0  0  0
 11  9  1  0  0  0  0
 12 11  1  0  0  0  0
 13 14  1  0  0  0  0
 14 16  2  0  0  0  0
 14 17  1  0  0  0  0
 15 19  1  0  0  0  0
 16 22  1  0  0  0  0
 17 20  2  0  0  0  0
 18 12  1  0  0  0  0
 19 16  1  0  0  0  0
 20 18  1  0  0  0  0
 21 15  2  0  0  0  0
 21 13  1  0  0  0  0
 22 18  2  0  0  0  0
 23 24  1  1  0  0  0
 23 27  1  0  0  0  0
 26 25  1  0  0  0  0
 26 24  1  0  0  0  0
 27 29  1  0  0  0  0
 29 28  1  0  0  0  0
 31 30  1  0  0  0  0
 32 31  1  0  0  0  0
 33 32  1  0  0  0  0
 34 33  1  0  0  0  0
 35 37  1  0  0  0  0
 36 34  2  0  0  0  0
 37 34  1  0  0  0  0
 38 39  2  0  0  0  0
 39 37  1  0  0  0  0
 39 40  1  0  0  0  0
 41 44  1  6  0  0  0
 41 43  1  0  0  0  0
 41 40  1  0  0  0  0
 42 41  1  0  0  0  0
 42 43  1  0  0  0  0
 43 45  1  6  0  0  0
 45 46  1  0  0  0  0
 46 50  1  0  0  0  0
 47 45  2  0  0  0  0
 50 48  1  6  0  0  0
 50 49  1  0  0  0  0
M  END
>  <MODEL>
2

>  <REMARK>
 VINA RESULT:      -6.8      2.736      9.154
  Name = 
  21 active torsions:
  status: ('A' for Active; 'I' for Inactive)
    1  A    between atoms: C_2  and  C_17
    2  A    between atoms: C_3  and  C_46
    3  A    between atoms: C_7  and  C_31
    4  A    between atoms: C_7  and  O_32
    5  A    between atoms: C_8  and  O_32
    6  A    between atoms: C_8  and  C_36
    7  A    between atoms: C_8  and  C_42
    8  A    between atoms: C_9  and  C_17
    9  A    between atoms: C_9  and  N_19
   10  A    between atoms: C_13  and  C_34
   11  A    between atoms: N_20  and  C_24
   12  A    between atoms: C_21  and  C_42
   13  A    between atoms: C_23  and  C_37
   14  A    between atoms: C_26  and  C_44
   15  A    between atoms: N_29  and  C_43
   16  A    between atoms: C_30  and  O_47
   17  A    between atoms: C_31  and  C_34
   18  A    between atoms: C_36  and  O_41
   19  A    between atoms: C_36  and  O_47
   20  A    between atoms: C_40  and  O_41
   21  A    between atoms: C_43  and  C_44
                            x       y       z     vdW  Elec       q    Type
                         _______ _______ _______ _____ _____    ______ ____

>  <TORSDO>
F 21

$$$$
=
 OpenBabel11062414293D

 50 53  0  0  1  0  0  0  0  0999 V2000
  185.5670  176.4150  136.4870 C   0  0  2  0  0  3  0  0  0  0  0  0
  184.2480  176.4860  137.2160 C   0  0  0  0  0  0  0  0  0  0  0  0
  184.2030  176.9910  138.3280 O   0  0  0  0  0  0  0  0  0  0  0  0
  181.9560  177.1620  136.2140 C   0  0  2  0  0  0  0  0  0  0  0  0
  180.5420  176.6980  135.9220 C   0  0  0  0  0  1  0  0  0  0  0  0
  182.9080  176.6560  135.1620 C   0  0  0  0  0  2  0  0  0  0  0  0
  182.9600  176.0650  136.5600 C   0  0  1  0  0  3  0  0  0  0  0  0
  182.2130  178.6310  136.5440 C   0  0  0  0  0  2  0  0  0  0  0  0
  181.1620  179.1860  137.5020 C   0  0  0  0  0  2  0  0  0  0  0  0
  180.2840  177.6870  139.7760 O   0  0  0  0  0  0  0  0  0  0  0  0
  181.7170  179.2850  138.8470 N   0  0  0  0  0  2  0  0  0  0  0  0
  181.2610  178.4680  139.9370 C   0  0  0  0  0  0  0  0  0  0  0  0
  183.6230  178.8230  145.1950 C   0  0  0  0  0  2  0  0  0  0  0  0
  183.0040  178.8000  143.8300 C   0  0  0  0  0  0  0  0  0  0  0  0
  185.7720  179.0270  144.1240 C   0  0  0  0  0  3  0  0  0  0  0  0
  183.8130  178.5150  142.7240 C   0  0  0  0  0  0  0  0  0  0  0  0
  181.6400  179.0160  143.6580 C   0  0  0  0  0  3  0  0  0  0  0  0
  181.8710  178.6220  141.2720 C   0  0  0  0  0  0  0  0  0  0  0  0
  185.2760  178.2440  142.9330 C   0  0  0  0  0  2  0  0  0  0  0  0
  181.0740  178.9300  142.3820 C   0  0  0  0  0  3  0  0  0  0  0  0
  184.9950  179.2740  145.1350 N   0  0  0  0  0  0  0  0  0  0  0  0
  183.2440  178.4120  141.4490 C   0  0  0  0  0  3  0  0  0  0  0  0
  185.9610  174.9610  136.2100 C   0  0  1  0  0  3  0  0  0  0  0  0
  186.8150  174.8990  135.1020 O   0  0  0  0  0  0  0  0  0  0  0  0
  188.9250  174.1280  134.6810 O   0  0  0  0  0  1  0  0  0  0  0  0
  188.0990  174.7380  135.6260 C   0  0  0  0  0  2  0  0  0  0  0  0
  186.5990  174.3950  137.3170 O   0  0  0  0  0  0  0  0  0  0  0  0
  184.9070  172.9060  136.5200 C   0  0  0  0  0  1  0  0  0  0  0  0
  185.7930  173.3110  137.6800 C   0  0  0  0  0  2  0  0  0  0  0  0
  186.5660  177.0660  137.2220 O   0  0  0  0  0  0  0  0  0  0  0  0
  186.9770  178.1260  136.4030 C   0  0  0  0  0  2  0  0  0  0  0  0
  188.3980  178.5600  136.7400 C   0  0  0  0  0  2  0  0  0  0  0  0
  188.7370  178.4340  138.2340 C   0  0  0  0  0  2  0  0  0  0  0  0
  189.7840  177.4030  138.5610 C   0  0  0  0  0  0  0  0  0  0  0  0
  191.7930  177.2620  140.0180 C   0  0  0  0  0  1  0  0  0  0  0  0
  190.1790  176.5850  137.6890 O   0  0  0  0  0  0  0  0  0  0  0  0
  190.3450  177.3560  139.8780 N   0  0  0  0  0  0  0  0  0  0  0  0
  188.2220  177.5460  140.9530 C   0  0  0  0  0  2  0  0  0  0  0  0
  189.5420  177.6420  141.0310 C   0  0  0  0  0  0  0  0  0  0  0  0
  190.1260  178.3380  142.2170 C   0  0  0  0  0  2  0  0  0  0  0  0
  190.1400  177.4630  143.4610 C   0  0  2  0  0  0  0  0  0  0  0  0
  188.9630  177.6730  144.1940 O   0  0  0  0  0  0  0  0  0  0  0  0
  190.1520  178.1470  144.7910 C   0  0  1  0  0  3  0  0  0  0  0  0
  190.4230  175.6680  143.2680 S   0  0  0  0  0  1  0  0  0  0  0  0
  190.5520  177.2500  145.9310 C   0  0  0  0  0  0  0  0  0  0  0  0
  189.7470  177.1140  147.1060 N   0  0  0  0  0  2  0  0  0  0  0  0
  191.6560  176.6430  145.8800 O   0  0  0  0  0  0  0  0  0  0  0  0
  188.3650  178.1030  148.8290 C   0  0  0  0  0  1  0  0  0  0  0  0
  187.4250  177.1180  146.8860 O   0  0  0  0  0  1  0  0  0  0  0  0
  188.5200  177.8530  147.3420 C   0  0  2  0  0  3  0  0  0  0  0  0
  1  2  1  1  0  0  0
  1 30  1  0  0  0  0
  2  3  2  0  0  0  0
  4  5  1  6  0  0  0
  4  8  1  0  0  0  0
  4  7  1  0  0  0  0
  6  4  1  0  0  0  0
  6  7  1  0  0  0  0
  7  2  1  1  0  0  0
  8  9  1  0  0  0  0
  9 11  1  0  0  0  0
 10 12  2  0  0  0  0
 11 12  1  0  0  0  0
 12 18  1  0  0  0  0
 14 13  1  0  0  0  0
 15 21  2  0  0  0  0
 16 19  1  0  0  0  0
 16 14  2  0  0  0  0
 17 14  1  0  0  0  0
 18 22  2  0  0  0  0
 18 20  1  0  0  0  0
 19 15  1  0  0  0  0
 20 17  2  0  0  0  0
 21 13  1  0  0  0  0
 22 16  1  0  0  0  0
 23 24  1  6  0  0  0
 23  1  1  0  0  0  0
 23 27  1  0  0  0  0
 24 26  1  0  0  0  0
 25 26  1  0  0  0  0
 27 29  1  0  0  0  0
 28 29  1  0  0  0  0
 31 32  1  0  0  0  0
 31 30  1  0  0  0  0
 32 33  1  0  0  0  0
 33 34  1  0  0  0  0
 34 37  1  0  0  0  0
 36 34  2  0  0  0  0
 37 35  1  0  0  0  0
 37 39  1  0  0  0  0
 38 39  2  0  0  0  0
 39 40  1  0  0  0  0
 40 41  1  0  0  0  0
 41 44  1  6  0  0  0
 41 42  1  0  0  0  0
 41 43  1  0  0  0  0
 42 43  1  0  0  0  0
 43 45  1  1  0  0  0
 45 46  1  0  0  0  0
 46 50  1  0  0  0  0
 47 45  2  0  0  0  0
 49 50  1  0  0  0  0
 50 48  1  1  0  0  0
M  END
>  <MODEL>
3

>  <REMARK>
 VINA RESULT:      -6.5      2.390      4.857
  Name = 
  21 active torsions:
  status: ('A' for Active; 'I' for Inactive)
    1  A    between atoms: C_2  and  C_17
    2  A    between atoms: C_3  and  C_46
    3  A    between atoms: C_7  and  C_31
    4  A    between atoms: C_7  and  O_32
    5  A    between atoms: C_8  and  O_32
    6  A    between atoms: C_8  and  C_36
    7  A    between atoms: C_8  and  C_42
    8  A    between atoms: C_9  and  C_17
    9  A    between atoms: C_9  and  N_19
   10  A    between atoms: C_13  and  C_34
   11  A    between atoms: N_20  and  C_24
   12  A    between atoms: C_21  and  C_42
   13  A    between atoms: C_23  and  C_37
   14  A    between atoms: C_26  and  C_44
   15  A    between atoms: N_29  and  C_43
   16  A    between atoms: C_30  and  O_47
   17  A    between atoms: C_31  and  C_34
   18  A    between atoms: C_36  and  O_41
   19  A    between atoms: C_36  and  O_47
   20  A    between atoms: C_40  and  O_41
   21  A    between atoms: C_43  and  C_44
                            x       y       z     vdW  Elec       q    Type
                         _______ _______ _______ _____ _____    ______ ____

>  <TORSDO>
F 21

$$$$
=
 OpenBabel11062414293D

 50 53  0  0  1  0  0  0  0  0999 V2000
  189.2610  176.5690  143.9680 C   0  0  2  0  0  3  0  0  0  0  0  0
  189.3100  177.8870  144.7000 C   0  0  0  0  0  0  0  0  0  0  0  0
  189.1790  178.9280  144.0730 O   0  0  0  0  0  0  0  0  0  0  0  0
  188.0830  177.8350  146.9820 C   0  0  2  0  0  0  0  0  0  0  0  0
  188.1330  178.2830  148.4300 C   0  0  0  0  0  1  0  0  0  0  0  0
  188.9460  176.6180  146.7740 C   0  0  0  0  0  2  0  0  0  0  0  0
  189.3900  177.9520  146.2030 C   0  0  1  0  0  3  0  0  0  0  0  0
  186.7320  177.6910  146.2850 C   0  0  0  0  0  2  0  0  0  0  0  0
  185.7910  178.8410  146.6350 C   0  0  0  0  0  2  0  0  0  0  0  0
  185.6950  179.0930  143.7860 O   0  0  0  0  0  0  0  0  0  0  0  0
  184.5850  178.7640  145.8190 N   0  0  0  0  0  2  0  0  0  0  0  0
  184.6120  178.8530  144.3860 C   0  0  0  0  0  0  0  0  0  0  0  0
  179.6890  178.7590  141.3680 C   0  0  0  0  0  2  0  0  0  0  0  0
  180.9530  178.7180  142.1710 C   0  0  0  0  0  0  0  0  0  0  0  0
  180.9460  177.8920  139.5040 C   0  0  0  0  0  3  0  0  0  0  0  0
  182.1790  178.6320  141.5020 C   0  0  0  0  0  0  0  0  0  0  0  0
  180.9230  178.8070  143.5600 C   0  0  0  0  0  3  0  0  0  0  0  0
  183.3510  178.7650  143.6230 C   0  0  0  0  0  0  0  0  0  0  0  0
  182.1950  178.5780  140.0000 C   0  0  0  0  0  2  0  0  0  0  0  0
  182.1180  178.8280  144.2850 C   0  0  0  0  0  3  0  0  0  0  0  0
  179.8230  177.9940  140.1490 N   0  0  0  0  0  0  0  0  0  0  0  0
  183.3760  178.6690  142.2270 C   0  0  0  0  0  3  0  0  0  0  0  0
  190.6320  176.2180  143.3810 C   0  0  1  0  0  3  0  0  0  0  0  0
  190.9150  174.8650  143.6030 O   0  0  0  0  0  0  0  0  0  0  0  0
  192.0110  175.7550  145.4010 O   0  0  0  0  0  1  0  0  0  0  0  0
  192.0970  174.8460  144.3450 C   0  0  0  0  0  2  0  0  0  0  0  0
  190.6700  176.4790  142.0080 O   0  0  0  0  0  0  0  0  0  0  0  0
  192.1010  177.4750  140.3730 C   0  0  0  0  0  1  0  0  0  0  0  0
  191.7470  177.3550  141.8400 C   0  0  0  0  0  2  0  0  0  0  0  0
  188.2880  176.6060  142.9620 O   0  0  0  0  0  0  0  0  0  0  0  0
  188.5520  177.7850  142.2520 C   0  0  0  0  0  2  0  0  0  0  0  0
  187.6560  177.9000  141.0260 C   0  0  0  0  0  2  0  0  0  0  0  0
  188.4370  178.0030  139.7060 C   0  0  0  0  0  2  0  0  0  0  0  0
  187.5820  178.0850  138.4700 C   0  0  0  0  0  0  0  0  0  0  0  0
  187.9430  178.0110  136.0120 C   0  0  0  0  0  1  0  0  0  0  0  0
  186.5530  178.8090  138.4440 O   0  0  0  0  0  0  0  0  0  0  0  0
  187.9490  177.3370  137.3040 N   0  0  0  0  0  0  0  0  0  0  0  0
  187.7700  174.9620  137.4680 C   0  0  0  0  0  2  0  0  0  0  0  0
  188.5440  176.0380  137.4200 C   0  0  0  0  0  0  0  0  0  0  0  0
  189.9820  175.8850  137.7970 C   0  0  0  0  0  2  0  0  0  0  0  0
  190.7370  174.9530  136.8610 C   0  0  2  0  0  0  0  0  0  0  0  0
  190.5000  173.6230  137.2350 O   0  0  0  0  0  0  0  0  0  0  0  0
  191.8130  174.0980  137.4510 C   0  0  1  0  0  3  0  0  0  0  0  0
  190.4890  175.1300  135.0590 S   0  0  0  0  0  1  0  0  0  0  0  0
  192.7500  173.5130  136.4310 C   0  0  0  0  0  0  0  0  0  0  0  0
  194.0280  174.0950  136.1540 N   0  0  0  0  0  2  0  0  0  0  0  0
  192.3800  172.5140  135.7550 O   0  0  0  0  0  0  0  0  0  0  0  0
  194.0210  176.5090  135.9790 C   0  0  0  0  0  1  0  0  0  0  0  0
  195.9120  175.3190  136.7750 O   0  0  0  0  0  1  0  0  0  0  0  0
  194.5170  175.3150  136.7690 C   0  0  2  0  0  3  0  0  0  0  0  0
  1 30  1  6  0  0  0
  1  2  1  0  0  0  0
  3  2  2  0  0  0  0
  4  5  1  1  0  0  0
  6  4  1  0  0  0  0
  7  2  1  6  0  0  0
  7  6  1  0  0  0  0
  7  4  1  0  0  0  0
  8  9  1  0  0  0  0
  8  4  1  0  0  0  0
 10 12  2  0  0  0  0
 11  9  1  0  0  0  0
 12 11  1  0  0  0  0
 13 14  1  0  0  0  0
 14 17  1  0  0  0  0
 15 19  1  0  0  0  0
 15 21  2  0  0  0  0
 16 14  2  0  0  0  0
 16 22  1  0  0  0  0
 17 20  2  0  0  0  0
 18 20  1  0  0  0  0
 18 12  1  0  0  0  0
 19 16  1  0  0  0  0
 21 13  1  0  0  0  0
 22 18  2  0  0  0  0
 23 27  1  6  0  0  0
 23 24  1  0  0  0  0
 23  1  1  0  0  0  0
 24 26  1  0  0  0  0
 26 25  1  0  0  0  0
 28 29  1  0  0  0  0
 29 27  1  0  0  0  0
 31 30  1  0  0  0  0
 32 31  1  0  0  0  0
 33 32  1  0  0  0  0
 34 33  1  0  0  0  0
 35 37  1  0  0  0  0
 36 34  2  0  0  0  0
 37 39  1  0  0  0  0
 37 34  1  0  0  0  0
 39 38  2  0  0  0  0
 39 40  1  0  0  0  0
 41 44  1  6  0  0  0
 41 42  1  0  0  0  0
 41 43  1  0  0  0  0
 41 40  1  0  0  0  0
 42 43  1  0  0  0  0
 43 45  1  6  0  0  0
 46 45  1  0  0  0  0
 46 50  1  0  0  0  0
 47 45  2  0  0  0  0
 50 48  1  6  0  0  0
 50 49  1  0  0  0  0
M  END
>  <MODEL>
4

>  <REMARK>
 VINA RESULT:      -6.4      3.333      8.074
  Name = 
  21 active torsions:
  status: ('A' for Active; 'I' for Inactive)
    1  A    between atoms: C_2  and  C_17
    2  A    between atoms: C_3  and  C_46
    3  A    between atoms: C_7  and  C_31
    4  A    between atoms: C_7  and  O_32
    5  A    between atoms: C_8  and  O_32
    6  A    between atoms: C_8  and  C_36
    7  A    between atoms: C_8  and  C_42
    8  A    between atoms: C_9  and  C_17
    9  A    between atoms: C_9  and  N_19
   10  A    between atoms: C_13  and  C_34
   11  A    between atoms: N_20  and  C_24
   12  A    between atoms: C_21  and  C_42
   13  A    between atoms: C_23  and  C_37
   14  A    between atoms: C_26  and  C_44
   15  A    between atoms: N_29  and  C_43
   16  A    between atoms: C_30  and  O_47
   17  A    between atoms: C_31  and  C_34
   18  A    between atoms: C_36  and  O_41
   19  A    between atoms: C_36  and  O_47
   20  A    between atoms: C_40  and  O_41
   21  A    between atoms: C_43  and  C_44
                            x       y       z     vdW  Elec       q    Type
                         _______ _______ _______ _____ _____    ______ ____

>  <TORSDO>
F 21

$$$$
=
 OpenBabel11062414293D

 50 53  0  0  1  0  0  0  0  0999 V2000
  185.5260  178.2830  143.4160 C   0  0  2  0  0  3  0  0  0  0  0  0
  186.4360  177.2560  144.0420 C   0  0  0  0  0  0  0  0  0  0  0  0
  187.0730  176.5010  143.3240 O   0  0  0  0  0  0  0  0  0  0  0  0
  188.0650  177.6160  146.0250 C   0  0  2  0  0  0  0  0  0  0  0  0
  188.4020  177.2070  147.4460 C   0  0  0  0  0  1  0  0  0  0  0  0
  186.9510  178.6300  146.0150 C   0  0  0  0  0  2  0  0  0  0  0  0
  186.6780  177.2180  145.5290 C   0  0  1  0  0  3  0  0  0  0  0  0
  189.1890  178.0070  145.0680 C   0  0  0  0  0  2  0  0  0  0  0  0
  190.2200  176.8910  144.9220 C   0  0  0  0  0  2  0  0  0  0  0  0
  191.7310  178.6510  143.2460 O   0  0  0  0  0  0  0  0  0  0  0  0
  190.5180  176.6700  143.5110 N   0  0  0  0  0  2  0  0  0  0  0  0
  191.3230  177.5720  142.7370 C   0  0  0  0  0  0  0  0  0  0  0  0
  192.3860  176.2030  137.2280 C   0  0  0  0  0  2  0  0  0  0  0  0
  192.1130  176.6250  138.6390 C   0  0  0  0  0  0  0  0  0  0  0  0
  190.0060  176.2220  136.8510 C   0  0  0  0  0  3  0  0  0  0  0  0
  190.8250  176.4530  139.1620 C   0  0  0  0  0  0  0  0  0  0  0  0
  193.1260  177.1420  139.4420 C   0  0  0  0  0  3  0  0  0  0  0  0
  191.5830  177.2820  141.3130 C   0  0  0  0  0  0  0  0  0  0  0  0
  189.7540  175.8550  138.2940 C   0  0  0  0  0  2  0  0  0  0  0  0
  192.8620  177.4720  140.7750 C   0  0  0  0  0  3  0  0  0  0  0  0
  191.2150  176.3730  136.3990 N   0  0  0  0  0  0  0  0  0  0  0  0
  190.5650  176.7690  140.5000 C   0  0  0  0  0  3  0  0  0  0  0  0
  186.2440  179.0410  142.2950 C   0  0  1  0  0  3  0  0  0  0  0  0
  187.0130  178.1540  141.5330 O   0  0  0  0  0  0  0  0  0  0  0  0
  188.2260  178.8510  139.7260 O   0  0  0  0  0  1  0  0  0  0  0  0
  188.1270  178.8840  141.1180 C   0  0  0  0  0  2  0  0  0  0  0  0
  185.3280  179.6910  141.4640 O   0  0  0  0  0  0  0  0  0  0  0  0
  184.1290  179.3040  139.4320 C   0  0  0  0  0  1  0  0  0  0  0  0
  184.8320  178.6890  140.6250 C   0  0  0  0  0  2  0  0  0  0  0  0
  185.0510  179.1720  144.3890 O   0  0  0  0  0  0  0  0  0  0  0  0
  183.8940  179.7290  143.8280 C   0  0  0  0  0  2  0  0  0  0  0  0
  182.6450  179.0060  144.3170 C   0  0  0  0  0  2  0  0  0  0  0  0
  181.8110  178.3910  143.1820 C   0  0  0  0  0  2  0  0  0  0  0  0
  180.9020  179.3570  142.4700 C   0  0  0  0  0  0  0  0  0  0  0  0
  180.6100  180.1880  140.1460 C   0  0  0  0  0  1  0  0  0  0  0  0
  180.4790  180.3910  143.0490 O   0  0  0  0  0  0  0  0  0  0  0  0
  180.5220  179.1010  141.1130 N   0  0  0  0  0  0  0  0  0  0  0  0
  179.1770  177.1330  140.9800 C   0  0  0  0  0  2  0  0  0  0  0  0
  180.2970  177.7620  140.6510 C   0  0  0  0  0  0  0  0  0  0  0  0
  181.4130  176.9530  140.0750 C   0  0  0  0  0  2  0  0  0  0  0  0
  181.1150  176.4650  138.6650 C   0  0  2  0  0  0  0  0  0  0  0  0
  180.3050  175.3220  138.7280 O   0  0  0  0  0  0  0  0  0  0  0  0
  181.6260  175.1140  138.2750 C   0  0  1  0  0  3  0  0  0  0  0  0
  180.4100  177.6430  137.4590 S   0  0  0  0  0  1  0  0  0  0  0  0
  181.6330  174.8740  136.7900 C   0  0  0  0  0  0  0  0  0  0  0  0
  182.8010  175.0960  135.9930 N   0  0  0  0  0  2  0  0  0  0  0  0
  180.5670  174.5220  136.2180 O   0  0  0  0  0  0  0  0  0  0  0  0
  184.0710  177.1270  136.3410 C   0  0  0  0  0  1  0  0  0  0  0  0
  185.1250  175.0700  135.8090 O   0  0  0  0  0  1  0  0  0  0  0  0
  184.0520  175.6210  136.5090 C   0  0  2  0  0  3  0  0  0  0  0  0
  1  2  1  1  0  0  0
  1 30  1  0  0  0  0
  3  2  2  0  0  0  0
  4  5  1  1  0  0  0
  6  4  1  0  0  0  0
  7  2  1  6  0  0  0
  7  6  1  0  0  0  0
  7  4  1  0  0  0  0
  8  4  1  0  0  0  0
  9  8  1  0  0  0  0
 11  9  1  0  0  0  0
 12 10  2  0  0  0  0
 12 11  1  0  0  0  0
 13 14  1  0  0  0  0
 14 16  2  0  0  0  0
 14 17  1  0  0  0  0
 15 19  1  0  0  0  0
 16 22  1  0  0  0  0
 17 20  2  0  0  0  0
 18 12  1  0  0  0  0
 19 16  1  0  0  0  0
 20 18  1  0  0  0  0
 21 15  2  0  0  0  0
 21 13  1  0  0  0  0
 22 18  2  0  0  0  0
 23 27  1  6  0  0  0
 23  1  1  0  0  0  0
 24 23  1  0  0  0  0
 25 26  1  0  0  0  0
 26 24  1  0  0  0  0
 28 29  1  0  0  0  0
 29 27  1  0  0  0  0
 31 32  1  0  0  0  0
 31 30  1  0  0  0  0
 33 32  1  0  0  0  0
 34 36  2  0  0  0  0
 34 33  1  0  0  0  0
 35 37  1  0  0  0  0
 37 34  1  0  0  0  0
 39 38  2  0  0  0  0
 39 37  1  0  0  0  0
 40 39  1  0  0  0  0
 41 44  1  6  0  0  0
 41 42  1  0  0  0  0
 41 40  1  0  0  0  0
 43 45  1  6  0  0  0
 43 41  1  0  0  0  0
 43 42  1  0  0  0  0
 46 50  1  0  0  0  0
 46 45  1  0  0  0  0
 47 45  2  0  0  0  0
 49 50  1  0  0  0  0
 50 48  1  6  0  0  0
M  END
>  <MODEL>
5

>  <REMARK>
 VINA RESULT:      -6.1      2.760      8.998
  Name = 
  21 active torsions:
  status: ('A' for Active; 'I' for Inactive)
    1  A    between atoms: C_2  and  C_17
    2  A    between atoms: C_3  and  C_46
    3  A    between atoms: C_7  and  C_31
    4  A    between atoms: C_7  and  O_32
    5  A    between atoms: C_8  and  O_32
    6  A    between atoms: C_8  and  C_36
    7  A    between atoms: C_8  and  C_42
    8  A    between atoms: C_9  and  C_17
    9  A    between atoms: C_9  and  N_19
   10  A    between atoms: C_13  and  C_34
   11  A    between atoms: N_20  and  C_24
   12  A    between atoms: C_21  and  C_42
   13  A    between atoms: C_23  and  C_37
   14  A    between atoms: C_26  and  C_44
   15  A    between atoms: N_29  and  C_43
   16  A    between atoms: C_30  and  O_47
   17  A    between atoms: C_31  and  C_34
   18  A    between atoms: C_36  and  O_41
   19  A    between atoms: C_36  and  O_47
   20  A    between atoms: C_40  and  O_41
   21  A    between atoms: C_43  and  C_44
                            x       y       z     vdW  Elec       q    Type
                         _______ _______ _______ _____ _____    ______ ____

>  <TORSDO>
F 21

$$$$
=
 OpenBabel11062414293D

 50 53  0  0  1  0  0  0  0  0999 V2000
  182.2290  178.8150  139.1320 C   0  0  2  0  0  3  0  0  0  0  0  0
  182.4640  178.6610  140.6140 C   0  0  0  0  0  0  0  0  0  0  0  0
  183.5830  178.8470  141.0670 O   0  0  0  0  0  0  0  0  0  0  0  0
  181.5290  178.8240  143.0250 C   0  0  2  0  0  0  0  0  0  0  0  0
  180.5610  178.2220  144.0260 C   0  0  0  0  0  1  0  0  0  0  0  0
  180.8040  179.7390  142.0730 C   0  0  0  0  0  2  0  0  0  0  0  0
  181.3290  178.4060  141.5710 C   0  0  1  0  0  3  0  0  0  0  0  0
  182.8320  179.4460  143.5190 C   0  0  0  0  0  2  0  0  0  0  0  0
  183.2380  178.8970  144.8850 C   0  0  0  0  0  2  0  0  0  0  0  0
  184.9480  178.7810  147.1770 O   0  0  0  0  0  0  0  0  0  0  0  0
  184.6470  178.5210  144.8720 N   0  0  0  0  0  2  0  0  0  0  0  0
  185.4390  178.4370  146.0670 C   0  0  0  0  0  0  0  0  0  0  0  0
  190.9300  176.6790  145.7440 C   0  0  0  0  0  2  0  0  0  0  0  0
  189.5280  177.2000  145.8350 C   0  0  0  0  0  0  0  0  0  0  0  0
  190.8110  177.0160  143.3610 C   0  0  0  0  0  3  0  0  0  0  0  0
  188.7420  177.2360  144.6780 C   0  0  0  0  0  0  0  0  0  0  0  0
  188.9920  177.6050  147.0540 C   0  0  0  0  0  3  0  0  0  0  0  0
  186.8600  178.0490  145.9780 C   0  0  0  0  0  0  0  0  0  0  0  0
  189.3240  176.7560  143.3780 C   0  0  0  0  0  2  0  0  0  0  0  0
  187.6620  178.0310  147.1260 C   0  0  0  0  0  3  0  0  0  0  0  0
  191.5110  176.9740  144.4540 N   0  0  0  0  0  0  0  0  0  0  0  0
  187.4060  177.6470  144.7530 C   0  0  0  0  0  3  0  0  0  0  0  0
  180.7320  178.9120  138.8220 C   0  0  1  0  0  3  0  0  0  0  0  0
  180.3670  180.2510  138.6360 O   0  0  0  0  0  0  0  0  0  0  0  0
  180.7790  181.2530  136.6240 O   0  0  0  0  0  1  0  0  0  0  0  0
  181.3520  180.7970  137.8120 C   0  0  0  0  0  2  0  0  0  0  0  0
  180.4100  178.1810  137.6740 O   0  0  0  0  0  0  0  0  0  0  0  0
  179.0490  176.4650  138.6320 C   0  0  0  0  0  1  0  0  0  0  0  0
  179.0870  177.7730  137.8690 C   0  0  0  0  0  2  0  0  0  0  0  0
  182.8100  177.7490  138.4330 O   0  0  0  0  0  0  0  0  0  0  0  0
  182.8680  176.7020  139.3630 C   0  0  0  0  0  2  0  0  0  0  0  0
  182.5190  175.3700  138.7100 C   0  0  0  0  0  2  0  0  0  0  0  0
  183.6260  174.8320  137.7900 C   0  0  0  0  0  2  0  0  0  0  0  0
  183.4930  175.2260  136.3430 C   0  0  0  0  0  0  0  0  0  0  0  0
  184.9080  176.3490  134.6360 C   0  0  0  0  0  1  0  0  0  0  0  0
  182.3830  175.5860  135.8720 O   0  0  0  0  0  0  0  0  0  0  0  0
  184.6470  175.2000  135.4940 N   0  0  0  0  0  0  0  0  0  0  0  0
  185.5430  173.0420  135.0000 C   0  0  0  0  0  2  0  0  0  0  0  0
  185.6540  174.1920  135.6510 C   0  0  0  0  0  0  0  0  0  0  0  0
  186.6570  174.2780  136.7570 C   0  0  0  0  0  2  0  0  0  0  0  0
  188.0040  174.8030  136.2860 C   0  0  2  0  0  0  0  0  0  0  0  0
  188.9810  173.8130  136.4690 O   0  0  0  0  0  0  0  0  0  0  0  0
  189.0890  174.9460  137.3060 C   0  0  1  0  0  3  0  0  0  0  0  0
  188.1390  175.4830  134.5950 S   0  0  0  0  0  1  0  0  0  0  0  0
  190.2320  175.8140  136.8580 C   0  0  0  0  0  0  0  0  0  0  0  0
  190.2910  177.2100  137.1700 N   0  0  0  0  0  2  0  0  0  0  0  0
  191.1380  175.3160  136.1360 O   0  0  0  0  0  0  0  0  0  0  0  0
  189.0580  179.2910  137.2450 C   0  0  0  0  0  1  0  0  0  0  0  0
  189.6190  178.0980  139.2180 O   0  0  0  0  0  1  0  0  0  0  0  0
  189.2510  177.9290  137.8830 C   0  0  2  0  0  3  0  0  0  0  0  0
  1 30  1  6  0  0  0
  1  2  1  0  0  0  0
  2  3  2  0  0  0  0
  4  8  1  0  0  0  0
  4  5  1  1  0  0  0
  6  4  1  0  0  0  0
  7  2  1  6  0  0  0
  7  6  1  0  0  0  0
  7  4  1  0  0  0  0
  8  9  1  0  0  0  0
 11  9  1  0  0  0  0
 11 12  1  0  0  0  0
 12 10  2  0  0  0  0
 13 14  1  0  0  0  0
 14 17  1  0  0  0  0
 15 19  1  0  0  0  0
 15 21  2  0  0  0  0
 16 22  1  0  0  0  0
 16 14  2  0  0  0  0
 17 20  2  0  0  0  0
 18 12  1  0  0  0  0
 18 20  1  0  0  0  0
 19 16  1  0  0  0  0
 21 13  1  0  0  0  0
 22 18  2  0  0  0  0
 23 27  1  6  0  0  0
 23  1  1  0  0  0  0
 24 23  1  0  0  0  0
 25 26  1  0  0  0  0
 26 24  1  0  0  0  0
 27 29  1  0  0  0  0
 29 28  1  0  0  0  0
 30 31  1  0  0  0  0
 32 31  1  0  0  0  0
 33 32  1  0  0  0  0
 34 33  1  0  0  0  0
 35 37  1  0  0  0  0
 36 34  2  0  0  0  0
 37 39  1  0  0  0  0
 37 34  1  0  0  0  0
 38 39  2  0  0  0  0
 39 40  1  0  0  0  0
 41 44  1  6  0  0  0
 41 42  1  0  0  0  0
 41 40  1  0  0  0  0
 41 43  1  0  0  0  0
 42 43  1  0  0  0  0
 43 45  1  6  0  0  0
 45 46  1  0  0  0  0
 46 50  1  0  0  0  0
 47 45  2  0  0  0  0
 50 48  1  6  0  0  0
 50 49  1  0  0  0  0
M  END
>  <MODEL>
6

>  <REMARK>
 VINA RESULT:      -6.0      2.528      4.542
  Name = 
  21 active torsions:
  status: ('A' for Active; 'I' for Inactive)
    1  A    between atoms: C_2  and  C_17
    2  A    between atoms: C_3  and  C_46
    3  A    between atoms: C_7  and  C_31
    4  A    between atoms: C_7  and  O_32
    5  A    between atoms: C_8  and  O_32
    6  A    between atoms: C_8  and  C_36
    7  A    between atoms: C_8  and  C_42
    8  A    between atoms: C_9  and  C_17
    9  A    between atoms: C_9  and  N_19
   10  A    between atoms: C_13  and  C_34
   11  A    between atoms: N_20  and  C_24
   12  A    between atoms: C_21  and  C_42
   13  A    between atoms: C_23  and  C_37
   14  A    between atoms: C_26  and  C_44
   15  A    between atoms: N_29  and  C_43
   16  A    between atoms: C_30  and  O_47
   17  A    between atoms: C_31  and  C_34
   18  A    between atoms: C_36  and  O_41
   19  A    between atoms: C_36  and  O_47
   20  A    between atoms: C_40  and  O_41
   21  A    between atoms: C_43  and  C_44
                            x       y       z     vdW  Elec       q    Type
                         _______ _______ _______ _____ _____    ______ ____

>  <TORSDO>
F 21

$$$$
=
 OpenBabel11062414293D

 50 53  0  0  1  0  0  0  0  0999 V2000
  183.1130  178.4950  139.3010 C   0  0  2  0  0  3  0  0  0  0  0  0
  183.2740  177.3200  138.3690 C   0  0  0  0  0  0  0  0  0  0  0  0
  183.0300  176.1940  138.7750 O   0  0  0  0  0  0  0  0  0  0  0  0
  184.9500  176.9680  136.4250 C   0  0  2  0  0  0  0  0  0  0  0  0
  185.4290  177.4960  135.0850 C   0  0  0  0  0  1  0  0  0  0  0  0
  183.7010  176.1430  136.2530 C   0  0  0  0  0  2  0  0  0  0  0  0
  183.6080  177.5080  136.9130 C   0  0  1  0  0  3  0  0  0  0  0  0
  185.9440  176.2930  137.3660 C   0  0  0  0  0  2  0  0  0  0  0  0
  186.4870  174.9930  136.7770 C   0  0  0  0  0  2  0  0  0  0  0  0
  188.1810  172.6970  136.9920 O   0  0  0  0  0  0  0  0  0  0  0  0
  187.9450  175.0140  136.7810 N   0  0  0  0  0  2  0  0  0  0  0  0
  188.7380  173.8190  136.8450 C   0  0  0  0  0  0  0  0  0  0  0  0
  194.4840  174.3630  136.6520 C   0  0  0  0  0  2  0  0  0  0  0  0
  193.0010  174.1670  136.7430 C   0  0  0  0  0  0  0  0  0  0  0  0
  194.3310  175.7830  138.5930 C   0  0  0  0  0  3  0  0  0  0  0  0
  192.2430  175.0690  137.5000 C   0  0  0  0  0  0  0  0  0  0  0  0
  192.3710  173.1320  136.0570 C   0  0  0  0  0  3  0  0  0  0  0  0
  190.2110  173.9160  136.8440 C   0  0  0  0  0  0  0  0  0  0  0  0
  192.9360  176.2040  138.2000 C   0  0  0  0  0  2  0  0  0  0  0  0
  190.9800  173.0050  136.1090 C   0  0  0  0  0  3  0  0  0  0  0  0
  195.0070  174.9440  137.8670 N   0  0  0  0  0  0  0  0  0  0  0  0
  190.8500  174.9510  137.5380 C   0  0  0  0  0  3  0  0  0  0  0  0
  181.8890  179.3330  138.9190 C   0  0  1  0  0  3  0  0  0  0  0  0
  181.0960  179.5650  140.0490 O   0  0  0  0  0  0  0  0  0  0  0  0
  179.3650  178.1230  140.4370 O   0  0  0  0  0  1  0  0  0  0  0  0
  180.7470  178.3010  140.5280 C   0  0  0  0  0  2  0  0  0  0  0  0
  182.2740  180.5580  138.3660 O   0  0  0  0  0  0  0  0  0  0  0  0
  180.7720  179.8440  136.6490 C   0  0  0  0  0  1  0  0  0  0  0  0
  181.1830  180.9580  137.5880 C   0  0  0  0  0  2  0  0  0  0  0  0
  184.2720  179.2820  139.2970 O   0  0  0  0  0  0  0  0  0  0  0  0
  185.0550  178.7680  140.3390 C   0  0  0  0  0  2  0  0  0  0  0  0
  184.2370  178.6130  141.6150 C   0  0  0  0  0  2  0  0  0  0  0  0
  185.0590  178.1060  142.8110 C   0  0  0  0  0  2  0  0  0  0  0  0
  184.8420  178.8630  144.0940 C   0  0  0  0  0  0  0  0  0  0  0  0
  184.9400  178.3660  146.5270 C   0  0  0  0  0  1  0  0  0  0  0  0
  183.9800  179.7770  144.1670 O   0  0  0  0  0  0  0  0  0  0  0  0
  185.6220  178.5340  145.2500 N   0  0  0  0  0  0  0  0  0  0  0  0
  187.5700  177.4440  146.0980 C   0  0  0  0  0  2  0  0  0  0  0  0
  186.9940  178.1360  145.1240 C   0  0  0  0  0  0  0  0  0  0  0  0
  187.8730  178.7370  144.0760 C   0  0  0  0  0  2  0  0  0  0  0  0
  188.8510  177.7330  143.4850 C   0  0  2  0  0  0  0  0  0  0  0  0
  190.0470  177.7610  144.2140 O   0  0  0  0  0  0  0  0  0  0  0  0
  190.1190  178.2630  142.8960 C   0  0  1  0  0  3  0  0  0  0  0  0
  188.3080  176.0010  143.2730 S   0  0  0  0  0  1  0  0  0  0  0  0
  190.8320  177.2810  142.0060 C   0  0  0  0  0  0  0  0  0  0  0  0
  190.6260  177.2550  140.5900 N   0  0  0  0  0  2  0  0  0  0  0  0
  191.5880  176.4160  142.5240 O   0  0  0  0  0  0  0  0  0  0  0  0
  188.3050  177.4940  139.9470 C   0  0  0  0  0  1  0  0  0  0  0  0
  190.0710  178.2450  138.5540 O   0  0  0  0  0  1  0  0  0  0  0  0
  189.6870  178.1120  139.8880 C   0  0  2  0  0  3  0  0  0  0  0  0
  1  2  1  6  0  0  0
  2  3  2  0  0  0  0
  4  5  1  6  0  0  0
  4  7  1  0  0  0  0
  4  8  1  0  0  0  0
  6  4  1  0  0  0  0
  6  7  1  0  0  0  0
  7  2  1  1  0  0  0
  9 11  1  0  0  0  0
  9  8  1  0  0  0  0
 11 12  1  0  0  0  0
 12 10  2  0  0  0  0
 13 14  1  0  0  0  0
 13 21  1  0  0  0  0
 14 16  1  0  0  0  0
 16 22  2  0  0  0  0
 16 19  1  0  0  0  0
 17 20  1  0  0  0  0
 17 14  2  0  0  0  0
 18 12  1  0  0  0  0
 18 22  1  0  0  0  0
 19 15  1  0  0  0  0
 20 18  2  0  0  0  0
 21 15  2  0  0  0  0
 23 27  1  1  0  0  0
 23  1  1  0  0  0  0
 23 24  1  0  0  0  0
 24 26  1  0  0  0  0
 25 26  1  0  0  0  0
 28 29  1  0  0  0  0
 29 27  1  0  0  0  0
 30  1  1  0  0  0  0
 30 31  1  0  0  0  0
 31 32  1  0  0  0  0
 32 33  1  0  0  0  0
 33 34  1  0  0  0  0
 34 36  2  0  0  0  0
 34 37  1  0  0  0  0
 37 35  1  0  0  0  0
 39 37  1  0  0  0  0
 39 38  2  0  0  0  0
 40 39  1  0  0  0  0
 41 44  1  6  0  0  0
 41 40  1  0  0  0  0
 41 42  1  0  0  0  0
 43 45  1  6  0  0  0
 43 41  1  0  0  0  0
 43 42  1  0  0  0  0
 45 47  2  0  0  0  0
 46 45  1  0  0  0  0
 49 50  1  0  0  0  0
 50 48  1  6  0  0  0
 50 46  1  0  0  0  0
M  END
>  <MODEL>
7

>  <REMARK>
 VINA RESULT:      -5.8      2.771      7.300
  Name = 
  21 active torsions:
  status: ('A' for Active; 'I' for Inactive)
    1  A    between atoms: C_2  and  C_17
    2  A    between atoms: C_3  and  C_46
    3  A    between atoms: C_7  and  C_31
    4  A    between atoms: C_7  and  O_32
    5  A    between atoms: C_8  and  O_32
    6  A    between atoms: C_8  and  C_36
    7  A    between atoms: C_8  and  C_42
    8  A    between atoms: C_9  and  C_17
    9  A    between atoms: C_9  and  N_19
   10  A    between atoms: C_13  and  C_34
   11  A    between atoms: N_20  and  C_24
   12  A    between atoms: C_21  and  C_42
   13  A    between atoms: C_23  and  C_37
   14  A    between atoms: C_26  and  C_44
   15  A    between atoms: N_29  and  C_43
   16  A    between atoms: C_30  and  O_47
   17  A    between atoms: C_31  and  C_34
   18  A    between atoms: C_36  and  O_41
   19  A    between atoms: C_36  and  O_47
   20  A    between atoms: C_40  and  O_41
   21  A    between atoms: C_43  and  C_44
                            x       y       z     vdW  Elec       q    Type
                         _______ _______ _______ _____ _____    ______ ____

>  <TORSDO>
F 21

$$$$
=
 OpenBabel11062414293D

 50 53  0  0  1  0  0  0  0  0999 V2000
  180.5610  177.5900  139.4420 C   0  0  2  0  0  3  0  0  0  0  0  0
  180.2880  178.7140  140.4100 C   0  0  0  0  0  0  0  0  0  0  0  0
  180.4790  179.8690  140.0600 O   0  0  0  0  0  0  0  0  0  0  0  0
  180.4590  178.8890  142.9900 C   0  0  2  0  0  0  0  0  0  0  0  0
  180.0100  178.2900  144.3090 C   0  0  0  0  0  1  0  0  0  0  0  0
  179.3940  179.7960  142.4290 C   0  0  0  0  0  2  0  0  0  0  0  0
  179.6660  178.4610  141.7580 C   0  0  1  0  0  3  0  0  0  0  0  0
  181.8460  179.5200  142.8840 C   0  0  0  0  0  2  0  0  0  0  0  0
  182.8950  178.5050  142.4350 C   0  0  0  0  0  2  0  0  0  0  0  0
  185.3170  179.9320  142.9740 O   0  0  0  0  0  0  0  0  0  0  0  0
  183.8170  178.2250  143.5300 N   0  0  0  0  0  2  0  0  0  0  0  0
  184.9940  179.0100  143.7730 C   0  0  0  0  0  0  0  0  0  0  0  0
  188.3610  177.4470  148.1970 C   0  0  0  0  0  2  0  0  0  0  0  0
  187.5080  177.9180  147.0590 C   0  0  0  0  0  0  0  0  0  0  0  0
  190.1550  177.1440  146.6160 C   0  0  0  0  0  3  0  0  0  0  0  0
  187.9000  177.6190  145.7490 C   0  0  0  0  0  0  0  0  0  0  0  0
  186.3200  178.6070  147.2900 C   0  0  0  0  0  3  0  0  0  0  0  0
  185.8820  178.6690  144.9020 C   0  0  0  0  0  0  0  0  0  0  0  0
  189.1630  176.8390  145.5190 C   0  0  0  0  0  2  0  0  0  0  0  0
  185.5100  178.9840  146.2150 C   0  0  0  0  0  3  0  0  0  0  0  0
  189.7570  177.4170  147.8220 N   0  0  0  0  0  0  0  0  0  0  0  0
  187.0800  177.9820  144.6740 C   0  0  0  0  0  3  0  0  0  0  0  0
  179.2540  176.9700  138.9390 C   0  0  1  0  0  3  0  0  0  0  0  0
  179.2600  176.9110  137.5400 O   0  0  0  0  0  0  0  0  0  0  0  0
  179.6990  178.2460  135.7390 O   0  0  0  0  0  1  0  0  0  0  0  0
  179.4370  178.2260  137.1100 C   0  0  0  0  0  2  0  0  0  0  0  0
  179.0790  175.6830  139.4560 O   0  0  0  0  0  0  0  0  0  0  0  0
  180.0560  173.7410  138.4620 C   0  0  0  0  0  1  0  0  0  0  0  0
  179.0330  174.8500  138.3340 C   0  0  0  0  0  2  0  0  0  0  0  0
  181.3710  176.6180  140.0410 O   0  0  0  0  0  0  0  0  0  0  0  0
  182.4340  176.4370  139.1460 C   0  0  0  0  0  2  0  0  0  0  0  0
  183.4430  177.5740  139.2570 C   0  0  0  0  0  2  0  0  0  0  0  0
  183.8720  178.1450  137.8960 C   0  0  0  0  0  2  0  0  0  0  0  0
  184.0220  177.1240  136.8000 C   0  0  0  0  0  0  0  0  0  0  0  0
  185.3880  176.8690  134.7400 C   0  0  0  0  0  1  0  0  0  0  0  0
  183.0330  176.4540  136.4040 O   0  0  0  0  0  0  0  0  0  0  0  0
  185.3040  176.9200  136.1940 N   0  0  0  0  0  0  0  0  0  0  0  0
  186.9760  175.9300  137.5810 C   0  0  0  0  0  2  0  0  0  0  0  0
  186.5070  177.0080  136.9690 C   0  0  0  0  0  0  0  0  0  0  0  0
  187.0720  178.3360  137.3560 C   0  0  0  0  0  2  0  0  0  0  0  0
  188.0340  178.2430  138.5310 C   0  0  2  0  0  0  0  0  0  0  0  0
  188.9660  179.2880  138.4550 O   0  0  0  0  0  0  0  0  0  0  0  0
  189.4770  177.9900  138.2290 C   0  0  1  0  0  3  0  0  0  0  0  0
  187.3470  178.1650  140.2230 S   0  0  0  0  0  1  0  0  0  0  0  0
  190.2740  177.5330  139.4200 C   0  0  0  0  0  0  0  0  0  0  0  0
  191.5060  176.8190  139.2770 N   0  0  0  0  0  2  0  0  0  0  0  0
  189.8200  177.7310  140.5790 O   0  0  0  0  0  0  0  0  0  0  0  0
  191.4920  175.0770  137.5960 C   0  0  0  0  0  1  0  0  0  0  0  0
  193.4570  176.3020  138.1100 O   0  0  0  0  0  1  0  0  0  0  0  0
  192.0720  176.4180  138.0020 C   0  0  2  0  0  3  0  0  0  0  0  0
  1 30  1  1  0  0  0
  1  2  1  0  0  0  0
  3  2  2  0  0  0  0
  4  5  1  1  0  0  0
  6  4  1  0  0  0  0
  7  2  1  6  0  0  0
  7  6  1  0  0  0  0
  7  4  1  0  0  0  0
  8  4  1  0  0  0  0
  9  8  1  0  0  0  0
  9 11  1  0  0  0  0
 10 12  2  0  0  0  0
 11 12  1  0  0  0  0
 12 18  1  0  0  0  0
 14 17  1  0  0  0  0
 14 13  1  0  0  0  0
 15 21  2  0  0  0  0
 16 14  2  0  0  0  0
 18 20  1  0  0  0  0
 19 16  1  0  0  0  0
 19 15  1  0  0  0  0
 20 17  2  0  0  0  0
 21 13  1  0  0  0  0
 22 18  2  0  0  0  0
 22 16  1  0  0  0  0
 23 24  1  6  0  0  0
 23  1  1  0  0  0  0
 23 27  1  0  0  0  0
 25 26  1  0  0  0  0
 26 24  1  0  0  0  0
 29 28  1  0  0  0  0
 29 27  1  0  0  0  0
 31 32  1  0  0  0  0
 31 30  1  0  0  0  0
 33 32  1  0  0  0  0
 34 33  1  0  0  0  0
 35 37  1  0  0  0  0
 36 34  2  0  0  0  0
 37 34  1  0  0  0  0
 37 39  1  0  0  0  0
 39 40  1  0  0  0  0
 39 38  2  0  0  0  0
 40 41  1  0  0  0  0
 41 44  1  1  0  0  0
 42 41  1  0  0  0  0
 43 42  1  0  0  0  0
 43 41  1  0  0  0  0
 43 45  1  1  0  0  0
 45 47  2  0  0  0  0
 46 45  1  0  0  0  0
 50 48  1  1  0  0  0
 50 49  1  0  0  0  0
 50 46  1  0  0  0  0
M  END
>  <MODEL>
8

>  <REMARK>
 VINA RESULT:      -5.7      2.186      3.645
  Name = 
  21 active torsions:
  status: ('A' for Active; 'I' for Inactive)
    1  A    between atoms: C_2  and  C_17
    2  A    between atoms: C_3  and  C_46
    3  A    between atoms: C_7  and  C_31
    4  A    between atoms: C_7  and  O_32
    5  A    between atoms: C_8  and  O_32
    6  A    between atoms: C_8  and  C_36
    7  A    between atoms: C_8  and  C_42
    8  A    between atoms: C_9  and  C_17
    9  A    between atoms: C_9  and  N_19
   10  A    between atoms: C_13  and  C_34
   11  A    between atoms: N_20  and  C_24
   12  A    between atoms: C_21  and  C_42
   13  A    between atoms: C_23  and  C_37
   14  A    between atoms: C_26  and  C_44
   15  A    between atoms: N_29  and  C_43
   16  A    between atoms: C_30  and  O_47
   17  A    between atoms: C_31  and  C_34
   18  A    between atoms: C_36  and  O_41
   19  A    between atoms: C_36  and  O_47
   20  A    between atoms: C_40  and  O_41
   21  A    between atoms: C_43  and  C_44
                            x       y       z     vdW  Elec       q    Type
                         _______ _______ _______ _____ _____    ______ ____

>  <TORSDO>
F 21

$$$$
=
 OpenBabel11062414293D

 50 53  0  0  1  0  0  0  0  0999 V2000
  183.4260  177.0390  138.8470 C   0  0  2  0  0  3  0  0  0  0  0  0
  183.9420  176.6120  137.4950 C   0  0  0  0  0  0  0  0  0  0  0  0
  183.5900  175.5380  137.0300 O   0  0  0  0  0  0  0  0  0  0  0  0
  186.2510  177.1580  136.4530 C   0  0  2  0  0  0  0  0  0  0  0  0
  187.1510  178.2640  135.9360 C   0  0  0  0  0  1  0  0  0  0  0  0
  185.2350  176.7700  135.4100 C   0  0  0  0  0  2  0  0  0  0  0  0
  184.7830  177.5280  136.6460 C   0  0  1  0  0  3  0  0  0  0  0  0
  186.8720  175.9300  137.1150 C   0  0  0  0  0  2  0  0  0  0  0  0
  187.5970  175.0470  136.1020 C   0  0  0  0  0  2  0  0  0  0  0  0
  189.2530  173.0190  137.2560 O   0  0  0  0  0  0  0  0  0  0  0  0
  189.0380  175.1420  136.2990 N   0  0  0  0  0  2  0  0  0  0  0  0
  189.8200  174.0670  136.8430 C   0  0  0  0  0  0  0  0  0  0  0  0
  195.5080  174.5680  137.7070 C   0  0  0  0  0  2  0  0  0  0  0  0
  194.0360  174.4910  137.4390 C   0  0  0  0  0  0  0  0  0  0  0  0
  195.8360  173.0500  135.8640 C   0  0  0  0  0  3  0  0  0  0  0  0
  193.5410  173.4330  136.6680 C   0  0  0  0  0  0  0  0  0  0  0  0
  193.1590  175.4290  137.9770 C   0  0  0  0  0  3  0  0  0  0  0  0
  191.2760  174.2340  137.0130 C   0  0  0  0  0  0  0  0  0  0  0  0
  194.4970  172.4070  136.1290 C   0  0  0  0  0  2  0  0  0  0  0  0
  191.7830  175.3030  137.7640 C   0  0  0  0  0  3  0  0  0  0  0  0
  196.2660  174.0310  136.6000 N   0  0  0  0  0  0  0  0  0  0  0  0
  192.1620  173.2980  136.4680 C   0  0  0  0  0  3  0  0  0  0  0  0
  182.0070  177.6040  138.7380 C   0  0  1  0  0  3  0  0  0  0  0  0
  181.9260  178.4910  137.6580 O   0  0  0  0  0  0  0  0  0  0  0  0
  180.0310  179.7530  137.8610 O   0  0  0  0  0  1  0  0  0  0  0  0
  181.3880  179.6690  138.1790 C   0  0  0  0  0  2  0  0  0  0  0  0
  181.0720  176.5790  138.5650 O   0  0  0  0  0  0  0  0  0  0  0  0
  179.6380  176.3360  140.4620 C   0  0  0  0  0  1  0  0  0  0  0  0
  180.9640  175.9780  139.8230 C   0  0  0  0  0  2  0  0  0  0  0  0
  184.2890  177.9790  139.4220 O   0  0  0  0  0  0  0  0  0  0  0  0
  184.0280  177.9090  140.7970 C   0  0  0  0  0  2  0  0  0  0  0  0
  185.0570  178.7020  141.5930 C   0  0  0  0  0  2  0  0  0  0  0  0
  185.4210  178.0550  142.9380 C   0  0  0  0  0  2  0  0  0  0  0  0
  185.2460  178.9480  144.1380 C   0  0  0  0  0  0  0  0  0  0  0  0
  185.0010  178.6530  146.5930 C   0  0  0  0  0  1  0  0  0  0  0  0
  184.5930  180.0200  144.0540 O   0  0  0  0  0  0  0  0  0  0  0  0
  185.8240  178.5680  145.3920 N   0  0  0  0  0  0  0  0  0  0  0  0
  187.3590  177.0910  146.4690 C   0  0  0  0  0  2  0  0  0  0  0  0
  187.0860  177.8910  145.4480 C   0  0  0  0  0  0  0  0  0  0  0  0
  188.2130  178.2980  144.5540 C   0  0  0  0  0  2  0  0  0  0  0  0
  189.1320  177.1370  144.2050 C   0  0  2  0  0  0  0  0  0  0  0  0
  189.8340  176.7360  145.3510 O   0  0  0  0  0  0  0  0  0  0  0  0
  190.6060  177.3530  144.3420 C   0  0  1  0  0  3  0  0  0  0  0  0
  188.4170  175.6680  143.3860 S   0  0  0  0  0  1  0  0  0  0  0  0
  191.4380  176.3240  143.6260 C   0  0  0  0  0  0  0  0  0  0  0  0
  191.7670  176.4490  142.2380 N   0  0  0  0  0  2  0  0  0  0  0  0
  191.8100  175.2920  144.2460 O   0  0  0  0  0  0  0  0  0  0  0  0
  190.0590  177.0600  140.6350 C   0  0  0  0  0  1  0  0  0  0  0  0
  192.2830  177.8670  140.4610 O   0  0  0  0  0  1  0  0  0  0  0  0
  191.2940  177.5220  141.3830 C   0  0  2  0  0  3  0  0  0  0  0  0
  1  2  1  6  0  0  0
  1 30  1  0  0  0  0
  3  2  2  0  0  0  0
  4  5  1  6  0  0  0
  4  7  1  0  0  0  0
  4  8  1  0  0  0  0
  6  4  1  0  0  0  0
  6  7  1  0  0  0  0
  7  2  1  1  0  0  0
  9 11  1  0  0  0  0
  9  8  1  0  0  0  0
 11 12  1  0  0  0  0
 12 18  1  0  0  0  0
 12 10  2  0  0  0  0
 14 13  1  0  0  0  0
 14 17  1  0  0  0  0
 15 19  1  0  0  0  0
 15 21  2  0  0  0  0
 16 14  2  0  0  0  0
 18 20  1  0  0  0  0
 19 16  1  0  0  0  0
 20 17  2  0  0  0  0
 21 13  1  0  0  0  0
 22 16  1  0  0  0  0
 22 18  2  0  0  0  0
 23 24  1  6  0  0  0
 23  1  1  0  0  0  0
 24 26  1  0  0  0  0
 25 26  1  0  0  0  0
 27 23  1  0  0  0  0
 27 29  1  0  0  0  0
 29 28  1  0  0  0  0
 30 31  1  0  0  0  0
 31 32  1  0  0  0  0
 32 33  1  0  0  0  0
 33 34  1  0  0  0  0
 34 37  1  0  0  0  0
 36 34  2  0  0  0  0
 37 39  1  0  0  0  0
 37 35  1  0  0  0  0
 39 38  2  0  0  0  0
 40 39  1  0  0  0  0
 41 44  1  6  0  0  0
 41 43  1  0  0  0  0
 41 40  1  0  0  0  0
 41 42  1  0  0  0  0
 43 45  1  6  0  0  0
 43 42  1  0  0  0  0
 45 47  2  0  0  0  0
 46 45  1  0  0  0  0
 49 50  1  0  0  0  0
 50 48  1  6  0  0  0
 50 46  1  0  0  0  0
M  END
>  <MODEL>
9

>  <REMARK>
 VINA RESULT:      -5.5      3.059      7.554
  Name = 
  21 active torsions:
  status: ('A' for Active; 'I' for Inactive)
    1  A    between atoms: C_2  and  C_17
    2  A    between atoms: C_3  and  C_46
    3  A    between atoms: C_7  and  C_31
    4  A    between atoms: C_7  and  O_32
    5  A    between atoms: C_8  and  O_32
    6  A    between atoms: C_8  and  C_36
    7  A    between atoms: C_8  and  C_42
    8  A    between atoms: C_9  and  C_17
    9  A    between atoms: C_9  and  N_19
   10  A    between atoms: C_13  and  C_34
   11  A    between atoms: N_20  and  C_24
   12  A    between atoms: C_21  and  C_42
   13  A    between atoms: C_23  and  C_37
   14  A    between atoms: C_26  and  C_44
   15  A    between atoms: N_29  and  C_43
   16  A    between atoms: C_30  and  O_47
   17  A    between atoms: C_31  and  C_34
   18  A    between atoms: C_36  and  O_41
   19  A    between atoms: C_36  and  O_47
   20  A    between atoms: C_40  and  O_41
   21  A    between atoms: C_43  and  C_44
                            x       y       z     vdW  Elec       q    Type
                         _______ _______ _______ _____ _____    ______ ____

>  <TORSDO>
F 21

$$$$
