=
 OpenBabel11062415593D

 41 45  0  0  1  0  0  0  0  0999 V2000
  189.6210  177.4250  147.1760 C   0  0  0  0  0  0  0  0  0  0  0  0
  188.5660  177.1240  145.0120 C   0  0  0  0  0  0  0  0  0  0  0  0
  191.6540  176.8590  146.8250 N   0  0  0  0  0  0  0  0  0  0  0  0
  187.3480  177.5800  145.5990 C   0  0  0  0  0  0  0  0  0  0  0  0
  188.4510  177.8700  147.7740 C   0  0  0  0  0  3  0  0  0  0  0  0
  187.3060  177.9430  146.9670 C   0  0  0  0  0  3  0  0  0  0  0  0
  190.8020  177.2880  147.7170 O   0  0  0  0  0  0  0  0  0  0  0  0
  191.0030  176.7070  145.6460 C   0  0  0  0  0  3  0  0  0  0  0  0
  189.6850  177.0660  145.8620 C   0  0  0  0  0  0  0  0  0  0  0  0
  189.1560  177.6770  142.6110 N   0  0  0  0  0  2  0  0  0  0  0  0
  188.3340  175.5820  143.2060 O   0  0  0  0  0  0  0  0  0  0  0  0
  188.6730  176.7360  143.5790 C   0  0  0  0  0  0  0  0  0  0  0  0
  189.3250  177.3820  141.1930 C   0  0  1  0  0  3  0  0  0  0  0  0
  189.0540  178.5200  140.4310 O   0  0  0  0  0  1  0  0  0  0  0  0
  190.7350  176.8820  140.9130 C   0  0  0  0  0  2  0  0  0  0  0  0
  191.3160  177.5430  139.6720 C   0  0  0  0  0  2  0  0  0  0  0  0
  192.8530  176.3360  138.2270 C   0  0  0  0  0  2  0  0  0  0  0  0
  191.5910  176.5300  138.6070 C   0  0  0  0  0  0  0  0  0  0  0  0
  190.6210  174.4240  137.9270 O   0  0  0  0  0  1  0  0  0  0  0  0
  190.5090  175.7700  138.0330 N   0  0  0  0  0  0  0  0  0  0  0  0
  189.2490  176.3870  137.6390 C   0  0  0  0  0  2  0  0  0  0  0  0
  188.9190  178.7400  136.9530 C   0  0  0  0  0  2  0  0  0  0  0  0
  189.4820  177.3970  136.5310 C   0  0  0  0  0  3  0  0  0  0  0  0
  188.1380  177.8600  136.0000 C   0  0  0  0  0  2  0  0  0  0  0  0
  186.0720  177.6590  144.8280 C   0  0  0  0  0  2  0  0  0  0  0  0
  185.6180  179.1080  144.6950 C   0  0  0  0  0  2  0  0  0  0  0  0
  186.0290  177.7000  142.0060 O   0  0  0  0  0  1  0  0  0  0  0  0
  183.0030  178.4140  138.6010 C   0  0  2  0  0  3  0  0  0  0  0  0
  181.2190  177.5350  140.4380 S   0  0  0  0  0  0  0  0  0  0  0  0
  182.2460  177.1490  138.9920 C   0  0  0  0  0  2  0  0  0  0  0  0
  182.8980  178.6940  142.1850 C   0  0  0  0  0  0  0  0  0  0  0  0
  183.4840  178.7850  143.3420 C   0  0  0  0  0  0  0  0  0  0  0  0
  182.6220  178.8320  144.5550 C   0  0  0  0  0  1  0  0  0  0  0  0
  185.7670  179.0720  142.1420 C   0  0  1  0  0  3  0  0  0  0  0  0
  183.4390  179.1110  139.8810 C   0  0  2  0  0  3  0  0  0  0  0  0
  184.7550  178.7140  140.1860 O   0  0  0  0  0  0  0  0  0  0  0  0
  185.2590  179.6700  140.9560 O   0  0  0  0  0  0  0  0  0  0  0  0
  184.8800  179.3720  143.3780 C   0  0  2  0  0  3  0  0  0  0  0  0
  182.4880  178.6690  140.9520 C   0  0  0  0  0  0  0  0  0  0  0  0
  182.1650  179.2570  137.8700 O   0  0  0  0  0  0  0  0  0  0  0  0
  181.7740  178.5010  136.7640 C   0  0  0  0  0  1  0  0  0  0  0  0
  1  7  1  0  0  0  0
  1  5  1  0  0  0  0
  2  4  2  0  0  0  0
  2  9  1  0  0  0  0
  3  7  1  0  0  0  0
  4  6  1  0  0  0  0
  6  5  2  0  0  0  0
  8  9  1  0  0  0  0
  8  3  2  0  0  0  0
  9  1  2  0  0  0  0
 10 12  1  0  0  0  0
 11 12  2  0  0  0  0
 12  2  1  0  0  0  0
 13 14  1  6  0  0  0
 13 10  1  0  0  0  0
 15 13  1  0  0  0  0
 16 15  1  0  0  0  0
 17 18  2  0  0  0  0
 18 16  1  0  0  0  0
 19 20  1  0  0  0  0
 20 18  1  0  0  0  0
 21 20  1  0  0  0  0
 23 22  1  0  0  0  0
 23 21  1  0  0  0  0
 24 23  1  0  0  0  0
 24 22  1  0  0  0  0
 25  4  1  0  0  0  0
 26 25  1  0  0  0  0
 28 40  1  1  0  0  0
 28 30  1  0  0  0  0
 28 35  1  0  0  0  0
 29 39  1  0  0  0  0
 30 29  1  0  0  0  0
 31 32  2  0  0  0  0
 32 38  1  0  0  0  0
 32 33  1  0  0  0  0
 34 27  1  6  0  0  0
 34 38  1  0  0  0  0
 35 36  1  1  0  0  0
 35 39  1  0  0  0  0
 36 37  1  0  0  0  0
 37 34  1  0  0  0  0
 38 26  1  1  0  0  0
 39 31  2  0  0  0  0
 41 40  1  0  0  0  0
M  END
>  <MODEL>
1

>  <REMARK>
 VINA RESULT:      -9.4      0.000      0.000
  Name = 
  12 active torsions:
  status: ('A' for Active; 'I' for Inactive)
    1  A    between atoms: C_3  and  C_19
    2  A    between atoms: C_3  and  C_20
    3  A    between atoms: C_4  and  C_27
    4  A    between atoms: C_7  and  C_21
    5  A    between atoms: C_7  and  C_24
    6  A    between atoms: N_8  and  C_21
    7  A    between atoms: C_9  and  O_10
    8  A    between atoms: C_11  and  C_32
    9  A    between atoms: C_20  and  C_39
   10  A    between atoms: C_24  and  C_36
   11  A    between atoms: N_26  and  C_32
   12  A    between atoms: N_26  and  C_36
                            x       y       z     vdW  Elec       q    Type
                         _______ _______ _______ _____ _____    ______ ____

>  <TORSDO>
F 12

$$$$
=
 OpenBabel11062415593D

 41 45  0  0  1  0  0  0  0  0999 V2000
  189.5910  177.4300  147.1120 C   0  0  0  0  0  0  0  0  0  0  0  0
  188.5330  177.1280  144.9490 C   0  0  0  0  0  0  0  0  0  0  0  0
  191.6250  176.8730  146.7570 N   0  0  0  0  0  0  0  0  0  0  0  0
  187.3140  177.5790  145.5400 C   0  0  0  0  0  0  0  0  0  0  0  0
  188.4200  177.8700  147.7130 C   0  0  0  0  0  3  0  0  0  0  0  0
  187.2730  177.9390  146.9070 C   0  0  0  0  0  3  0  0  0  0  0  0
  190.7730  177.2980  147.6510 O   0  0  0  0  0  0  0  0  0  0  0  0
  190.9720  176.7190  145.5790 C   0  0  0  0  0  3  0  0  0  0  0  0
  189.6530  177.0730  145.7970 C   0  0  0  0  0  0  0  0  0  0  0  0
  189.0590  177.7030  142.5390 N   0  0  0  0  0  2  0  0  0  0  0  0
  188.3540  175.5710  143.1500 O   0  0  0  0  0  0  0  0  0  0  0  0
  188.6390  176.7420  143.5160 C   0  0  0  0  0  0  0  0  0  0  0  0
  189.2220  177.4130  141.1200 C   0  0  1  0  0  3  0  0  0  0  0  0
  188.7880  178.4990  140.3560 O   0  0  0  0  0  1  0  0  0  0  0  0
  190.6740  177.0900  140.8010 C   0  0  0  0  0  2  0  0  0  0  0  0
  191.0460  177.5560  139.4010 C   0  0  0  0  0  2  0  0  0  0  0  0
  190.7920  175.5230  138.0930 C   0  0  0  0  0  2  0  0  0  0  0  0
  191.6230  176.4320  138.6010 C   0  0  0  0  0  0  0  0  0  0  0  0
  193.8970  176.8650  139.2930 O   0  0  0  0  0  1  0  0  0  0  0  0
  193.0440  176.3620  138.3700 N   0  0  0  0  0  0  0  0  0  0  0  0
  193.6100  175.6840  137.2100 C   0  0  0  0  0  2  0  0  0  0  0  0
  195.6730  174.3650  137.5550 C   0  0  0  0  0  2  0  0  0  0  0  0
  194.1590  174.3270  137.6110 C   0  0  0  0  0  3  0  0  0  0  0  0
  194.8920  173.7270  136.4260 C   0  0  0  0  0  2  0  0  0  0  0  0
  186.0360  177.6530  144.7710 C   0  0  0  0  0  2  0  0  0  0  0  0
  185.5640  179.0980  144.6610 C   0  0  0  0  0  2  0  0  0  0  0  0
  185.9640  177.7140  141.9580 O   0  0  0  0  0  1  0  0  0  0  0  0
  182.9220  178.4560  138.5720 C   0  0  2  0  0  3  0  0  0  0  0  0
  181.1480  177.5580  140.4090 S   0  0  0  0  0  0  0  0  0  0  0  0
  182.1690  177.1860  138.9550 C   0  0  0  0  0  2  0  0  0  0  0  0
  182.8330  178.7030  142.1600 C   0  0  0  0  0  0  0  0  0  0  0  0
  183.4240  178.7840  143.3150 C   0  0  0  0  0  0  0  0  0  0  0  0
  182.5670  178.8190  144.5320 C   0  0  0  0  0  1  0  0  0  0  0  0
  185.7010  179.0850  142.1080 C   0  0  1  0  0  3  0  0  0  0  0  0
  183.3640  179.1410  139.8570 C   0  0  2  0  0  3  0  0  0  0  0  0
  184.6810  178.7430  140.1530 O   0  0  0  0  0  0  0  0  0  0  0  0
  185.1880  179.6930  140.9290 O   0  0  0  0  0  0  0  0  0  0  0  0
  184.8190  179.3720  143.3500 C   0  0  2  0  0  3  0  0  0  0  0  0
  182.4180  178.6890  140.9280 C   0  0  0  0  0  0  0  0  0  0  0  0
  182.0810  179.3040  137.8530 O   0  0  0  0  0  0  0  0  0  0  0  0
  181.6980  178.5640  136.7340 C   0  0  0  0  0  1  0  0  0  0  0  0
  1  7  1  0  0  0  0
  1  5  1  0  0  0  0
  2  4  2  0  0  0  0
  2  9  1  0  0  0  0
  3  7  1  0  0  0  0
  4  6  1  0  0  0  0
  6  5  2  0  0  0  0
  8  9  1  0  0  0  0
  8  3  2  0  0  0  0
  9  1  2  0  0  0  0
 10 12  1  0  0  0  0
 11 12  2  0  0  0  0
 12  2  1  0  0  0  0
 13 14  1  6  0  0  0
 13 10  1  0  0  0  0
 15 13  1  0  0  0  0
 16 15  1  0  0  0  0
 17 18  2  0  0  0  0
 18 16  1  0  0  0  0
 20 18  1  0  0  0  0
 20 19  1  0  0  0  0
 21 23  1  0  0  0  0
 21 20  1  0  0  0  0
 22 23  1  0  0  0  0
 24 22  1  0  0  0  0
 24 23  1  0  0  0  0
 25  4  1  0  0  0  0
 26 25  1  0  0  0  0
 28 40  1  1  0  0  0
 28 30  1  0  0  0  0
 28 35  1  0  0  0  0
 29 39  1  0  0  0  0
 30 29  1  0  0  0  0
 31 32  2  0  0  0  0
 32 38  1  0  0  0  0
 32 33  1  0  0  0  0
 34 27  1  6  0  0  0
 34 38  1  0  0  0  0
 35 36  1  1  0  0  0
 35 39  1  0  0  0  0
 36 37  1  0  0  0  0
 37 34  1  0  0  0  0
 38 26  1  1  0  0  0
 39 31  2  0  0  0  0
 41 40  1  0  0  0  0
M  END
>  <MODEL>
2

>  <REMARK>
 VINA RESULT:      -8.9      1.282      2.269
  Name = 
  12 active torsions:
  status: ('A' for Active; 'I' for Inactive)
    1  A    between atoms: C_3  and  C_19
    2  A    between atoms: C_3  and  C_20
    3  A    between atoms: C_4  and  C_27
    4  A    between atoms: C_7  and  C_21
    5  A    between atoms: C_7  and  C_24
    6  A    between atoms: N_8  and  C_21
    7  A    between atoms: C_9  and  O_10
    8  A    between atoms: C_11  and  C_32
    9  A    between atoms: C_20  and  C_39
   10  A    between atoms: C_24  and  C_36
   11  A    between atoms: N_26  and  C_32
   12  A    between atoms: N_26  and  C_36
                            x       y       z     vdW  Elec       q    Type
                         _______ _______ _______ _____ _____    ______ ____

>  <TORSDO>
F 12

$$$$
=
 OpenBabel11062415593D

 41 45  0  0  1  0  0  0  0  0999 V2000
  187.0040  178.2120  147.2670 C   0  0  0  0  0  0  0  0  0  0  0  0
  187.4450  177.5620  144.9710 C   0  0  0  0  0  0  0  0  0  0  0  0
  188.7050  177.4720  148.3320 N   0  0  0  0  0  0  0  0  0  0  0  0
  186.2160  178.1930  144.6110 C   0  0  0  0  0  0  0  0  0  0  0  0
  185.8040  178.8310  146.9460 C   0  0  0  0  0  3  0  0  0  0  0  0
  185.4150  178.8140  145.5980 C   0  0  0  0  0  3  0  0  0  0  0  0
  187.5730  178.1140  148.4390 O   0  0  0  0  0  0  0  0  0  0  0  0
  188.8880  177.1340  147.0330 C   0  0  0  0  0  3  0  0  0  0  0  0
  187.7910  177.6040  146.3340 C   0  0  0  0  0  0  0  0  0  0  0  0
  189.6770  177.3600  143.7900 N   0  0  0  0  0  2  0  0  0  0  0  0
  187.9060  175.9360  143.2870 O   0  0  0  0  0  0  0  0  0  0  0  0
  188.3320  176.9000  143.9770 C   0  0  0  0  0  0  0  0  0  0  0  0
  190.6290  176.7590  142.8640 C   0  0  1  0  0  3  0  0  0  0  0  0
  190.3060  175.4170  142.6500 O   0  0  0  0  0  1  0  0  0  0  0  0
  190.6450  177.5160  141.5440 C   0  0  0  0  0  2  0  0  0  0  0  0
  189.7900  176.8150  140.4990 C   0  0  0  0  0  2  0  0  0  0  0  0
  187.9660  178.4210  140.5580 C   0  0  0  0  0  2  0  0  0  0  0  0
  188.8750  177.7850  139.8210 C   0  0  0  0  0  0  0  0  0  0  0  0
  189.0640  179.3100  137.9570 O   0  0  0  0  0  1  0  0  0  0  0  0
  189.0030  178.0340  138.4080 N   0  0  0  0  0  0  0  0  0  0  0  0
  189.1600  176.9560  137.4390 C   0  0  0  0  0  2  0  0  0  0  0  0
  190.7060  176.0590  135.7290 C   0  0  0  0  0  2  0  0  0  0  0  0
  190.6180  176.8160  137.0400 C   0  0  0  0  0  3  0  0  0  0  0  0
  190.9840  175.3440  137.0350 C   0  0  0  0  0  2  0  0  0  0  0  0
  185.7030  178.1960  143.2080 C   0  0  0  0  0  2  0  0  0  0  0  0
  184.1810  178.1160  143.1970 C   0  0  0  0  0  2  0  0  0  0  0  0
  184.0330  177.4280  140.2160 O   0  0  0  0  0  1  0  0  0  0  0  0
  181.3900  179.9900  137.4390 C   0  0  2  0  0  3  0  0  0  0  0  0
  179.4410  179.2920  139.1850 S   0  0  0  0  0  0  0  0  0  0  0  0
  180.2470  178.9910  137.5860 C   0  0  0  0  0  2  0  0  0  0  0  0
  181.4470  179.3150  140.9720 C   0  0  0  0  0  0  0  0  0  0  0  0
  182.0460  178.8930  142.0450 C   0  0  0  0  0  0  0  0  0  0  0  0
  181.2740  178.8930  143.3180 C   0  0  0  0  0  1  0  0  0  0  0  0
  184.2670  178.7200  140.7140 C   0  0  1  0  0  3  0  0  0  0  0  0
  182.0620  180.1320  138.7970 C   0  0  2  0  0  3  0  0  0  0  0  0
  183.1620  179.2560  138.8510 O   0  0  0  0  0  0  0  0  0  0  0  0
  183.9800  179.7470  139.7740 O   0  0  0  0  0  0  0  0  0  0  0  0
  183.5590  178.9520  142.0740 C   0  0  2  0  0  3  0  0  0  0  0  0
  181.0340  179.7590  139.8220 C   0  0  0  0  0  0  0  0  0  0  0  0
  180.8860  181.2260  137.0340 O   0  0  0  0  0  0  0  0  0  0  0  0
  180.2810  180.9790  135.8010 C   0  0  0  0  0  1  0  0  0  0  0  0
  1  7  1  0  0  0  0
  2  9  1  0  0  0  0
  3  7  1  0  0  0  0
  4  2  2  0  0  0  0
  4  6  1  0  0  0  0
  5  1  1  0  0  0  0
  6  5  2  0  0  0  0
  8  3  2  0  0  0  0
  9  8  1  0  0  0  0
  9  1  2  0  0  0  0
 10 12  1  0  0  0  0
 11 12  2  0  0  0  0
 12  2  1  0  0  0  0
 13 14  1  6  0  0  0
 13 10  1  0  0  0  0
 15 13  1  0  0  0  0
 16 15  1  0  0  0  0
 18 16  1  0  0  0  0
 18 17  2  0  0  0  0
 19 20  1  0  0  0  0
 20 18  1  0  0  0  0
 21 20  1  0  0  0  0
 22 24  1  0  0  0  0
 22 23  1  0  0  0  0
 23 21  1  0  0  0  0
 24 23  1  0  0  0  0
 25  4  1  0  0  0  0
 26 25  1  0  0  0  0
 28 40  1  1  0  0  0
 28 30  1  0  0  0  0
 28 35  1  0  0  0  0
 29 39  1  0  0  0  0
 30 29  1  0  0  0  0
 31 32  2  0  0  0  0
 32 38  1  0  0  0  0
 32 33  1  0  0  0  0
 34 27  1  6  0  0  0
 34 38  1  0  0  0  0
 35 36  1  6  0  0  0
 35 39  1  0  0  0  0
 36 37  1  0  0  0  0
 37 34  1  0  0  0  0
 38 26  1  1  0  0  0
 39 31  2  0  0  0  0
 41 40  1  0  0  0  0
M  END
>  <MODEL>
3

>  <REMARK>
 VINA RESULT:      -8.5      1.911      2.639
  Name = 
  12 active torsions:
  status: ('A' for Active; 'I' for Inactive)
    1  A    between atoms: C_3  and  C_19
    2  A    between atoms: C_3  and  C_20
    3  A    between atoms: C_4  and  C_27
    4  A    between atoms: C_7  and  C_21
    5  A    between atoms: C_7  and  C_24
    6  A    between atoms: N_8  and  C_21
    7  A    between atoms: C_9  and  O_10
    8  A    between atoms: C_11  and  C_32
    9  A    between atoms: C_20  and  C_39
   10  A    between atoms: C_24  and  C_36
   11  A    between atoms: N_26  and  C_32
   12  A    between atoms: N_26  and  C_36
                            x       y       z     vdW  Elec       q    Type
                         _______ _______ _______ _____ _____    ______ ____

>  <TORSDO>
F 12

$$$$
=
 OpenBabel11062415593D

 41 45  0  0  1  0  0  0  0  0999 V2000
  187.0820  178.0320  147.1860 C   0  0  0  0  0  0  0  0  0  0  0  0
  187.4360  177.6310  144.8190 C   0  0  0  0  0  0  0  0  0  0  0  0
  188.9100  177.3770  148.0830 N   0  0  0  0  0  0  0  0  0  0  0  0
  186.1330  178.1650  144.5870 C   0  0  0  0  0  0  0  0  0  0  0  0
  185.8110  178.5530  146.9900 C   0  0  0  0  0  3  0  0  0  0  0  0
  185.3400  178.6140  145.6690 C   0  0  0  0  0  3  0  0  0  0  0  0
  187.7310  177.8910  148.3110 O   0  0  0  0  0  0  0  0  0  0  0  0
  189.0410  177.1730  146.7500 C   0  0  0  0  0  3  0  0  0  0  0  0
  187.8620  177.5890  146.1580 C   0  0  0  0  0  0  0  0  0  0  0  0
  189.3670  177.9880  143.2190 N   0  0  0  0  0  2  0  0  0  0  0  0
  188.1420  176.0080  143.2190 O   0  0  0  0  0  0  0  0  0  0  0  0
  188.3170  177.1510  143.7210 C   0  0  0  0  0  0  0  0  0  0  0  0
  190.2990  177.5950  142.1680 C   0  0  1  0  0  3  0  0  0  0  0  0
  190.9480  176.4100  142.5220 O   0  0  0  0  0  1  0  0  0  0  0  0
  189.5710  177.4220  140.8430 C   0  0  0  0  0  2  0  0  0  0  0  0
  190.3740  176.5560  139.8840 C   0  0  0  0  0  2  0  0  0  0  0  0
  191.2270  176.8160  137.6230 C   0  0  0  0  0  2  0  0  0  0  0  0
  190.2310  177.0430  138.4780 C   0  0  0  0  0  0  0  0  0  0  0  0
  188.9910  179.0720  138.0480 O   0  0  0  0  0  1  0  0  0  0  0  0
  189.0270  177.7180  138.0640 N   0  0  0  0  0  0  0  0  0  0  0  0
  187.8600  176.9950  137.5720 C   0  0  0  0  0  2  0  0  0  0  0  0
  185.5400  177.8190  137.3400 C   0  0  0  0  0  2  0  0  0  0  0  0
  186.9510  177.9310  136.7970 C   0  0  0  0  0  3  0  0  0  0  0  0
  185.9140  177.1040  136.0590 C   0  0  0  0  0  2  0  0  0  0  0  0
  185.5340  178.2380  143.2200 C   0  0  0  0  0  2  0  0  0  0  0  0
  184.0120  178.2080  143.3030 C   0  0  0  0  0  2  0  0  0  0  0  0
  183.8090  177.4230  140.3490 O   0  0  0  0  0  1  0  0  0  0  0  0
  181.0550  179.8470  137.5560 C   0  0  2  0  0  3  0  0  0  0  0  0
  179.1600  179.1700  139.3680 S   0  0  0  0  0  0  0  0  0  0  0  0
  179.9340  178.8320  137.7610 C   0  0  0  0  0  2  0  0  0  0  0  0
  181.2060  179.2860  141.1050 C   0  0  0  0  0  0  0  0  0  0  0  0
  181.8370  178.9100  142.1770 C   0  0  0  0  0  0  0  0  0  0  0  0
  181.0940  178.9370  143.4670 C   0  0  0  0  0  1  0  0  0  0  0  0
  184.0290  178.7340  140.8000 C   0  0  1  0  0  3  0  0  0  0  0  0
  181.7550  180.0440  138.8920 C   0  0  2  0  0  3  0  0  0  0  0  0
  182.8720  179.1900  138.9480 O   0  0  0  0  0  0  0  0  0  0  0  0
  183.7020  179.7250  139.8350 O   0  0  0  0  0  0  0  0  0  0  0  0
  183.3490  178.9970  142.1680 C   0  0  2  0  0  3  0  0  0  0  0  0
  180.7580  179.6860  139.9520 C   0  0  0  0  0  0  0  0  0  0  0  0
  180.5180  181.0600  137.1240 O   0  0  0  0  0  0  0  0  0  0  0  0
  180.7130  181.0650  135.7410 C   0  0  0  0  0  1  0  0  0  0  0  0
  1  7  1  0  0  0  0
  2  9  1  0  0  0  0
  3  7  1  0  0  0  0
  4  2  2  0  0  0  0
  4  6  1  0  0  0  0
  5  1  1  0  0  0  0
  6  5  2  0  0  0  0
  8  3  2  0  0  0  0
  9  8  1  0  0  0  0
  9  1  2  0  0  0  0
 10 12  1  0  0  0  0
 11 12  2  0  0  0  0
 12  2  1  0  0  0  0
 13 14  1  1  0  0  0
 13 10  1  0  0  0  0
 15 13  1  0  0  0  0
 16 15  1  0  0  0  0
 17 18  2  0  0  0  0
 18 16  1  0  0  0  0
 19 20  1  0  0  0  0
 20 18  1  0  0  0  0
 21 20  1  0  0  0  0
 23 22  1  0  0  0  0
 23 21  1  0  0  0  0
 24 23  1  0  0  0  0
 24 22  1  0  0  0  0
 25 26  1  0  0  0  0
 25  4  1  0  0  0  0
 28 40  1  1  0  0  0
 28 30  1  0  0  0  0
 28 35  1  0  0  0  0
 29 39  1  0  0  0  0
 30 29  1  0  0  0  0
 31 32  2  0  0  0  0
 32 33  1  0  0  0  0
 34 27  1  6  0  0  0
 34 38  1  0  0  0  0
 35 36  1  6  0  0  0
 35 39  1  0  0  0  0
 36 37  1  0  0  0  0
 37 34  1  0  0  0  0
 38 32  1  0  0  0  0
 38 26  1  1  0  0  0
 39 31  2  0  0  0  0
 41 40  1  0  0  0  0
M  END
>  <MODEL>
4

>  <REMARK>
 VINA RESULT:      -8.4      1.852      2.375
  Name = 
  12 active torsions:
  status: ('A' for Active; 'I' for Inactive)
    1  A    between atoms: C_3  and  C_19
    2  A    between atoms: C_3  and  C_20
    3  A    between atoms: C_4  and  C_27
    4  A    between atoms: C_7  and  C_21
    5  A    between atoms: C_7  and  C_24
    6  A    between atoms: N_8  and  C_21
    7  A    between atoms: C_9  and  O_10
    8  A    between atoms: C_11  and  C_32
    9  A    between atoms: C_20  and  C_39
   10  A    between atoms: C_24  and  C_36
   11  A    between atoms: N_26  and  C_32
   12  A    between atoms: N_26  and  C_36
                            x       y       z     vdW  Elec       q    Type
                         _______ _______ _______ _____ _____    ______ ____

>  <TORSDO>
F 12

$$$$
=
 OpenBabel11062415593D

 41 45  0  0  1  0  0  0  0  0999 V2000
  191.1070  177.3380  145.5010 C   0  0  0  0  0  0  0  0  0  0  0  0
  188.8500  177.5270  144.6300 C   0  0  0  0  0  0  0  0  0  0  0  0
  190.8140  176.6740  147.5130 N   0  0  0  0  0  0  0  0  0  0  0  0
  189.4190  177.9320  143.3860 C   0  0  0  0  0  0  0  0  0  0  0  0
  191.6880  177.7310  144.3030 C   0  0  0  0  0  3  0  0  0  0  0  0
  190.8230  178.0310  143.2400 C   0  0  0  0  0  3  0  0  0  0  0  0
  191.7030  176.9990  146.6120 O   0  0  0  0  0  0  0  0  0  0  0  0
  189.5800  176.8060  146.9670 C   0  0  0  0  0  3  0  0  0  0  0  0
  189.7570  177.2400  145.6660 C   0  0  0  0  0  0  0  0  0  0  0  0
  186.6690  178.3950  145.5830 N   0  0  0  0  0  2  0  0  0  0  0  0
  186.7580  176.4070  144.3750 O   0  0  0  0  0  0  0  0  0  0  0  0
  187.3830  177.3970  144.8410 C   0  0  0  0  0  0  0  0  0  0  0  0
  185.2310  178.3720  145.8160 C   0  0  1  0  0  3  0  0  0  0  0  0
  184.9600  178.6160  147.1640 O   0  0  0  0  0  1  0  0  0  0  0  0
  184.5280  179.4010  144.9420 C   0  0  0  0  0  2  0  0  0  0  0  0
  183.3240  178.7940  144.2390 C   0  0  0  0  0  2  0  0  0  0  0  0
  184.7970  178.7530  142.3060 C   0  0  0  0  0  2  0  0  0  0  0  0
  183.5460  178.7290  142.7610 C   0  0  0  0  0  0  0  0  0  0  0  0
  181.2660  179.2570  142.1590 O   0  0  0  0  0  1  0  0  0  0  0  0
  182.4230  178.6180  141.8650 N   0  0  0  0  0  0  0  0  0  0  0  0
  182.5100  177.9090  140.5940 C   0  0  0  0  0  2  0  0  0  0  0  0
  183.0040  178.5480  138.2560 C   0  0  0  0  0  2  0  0  0  0  0  0
  182.1140  178.8260  139.4520 C   0  0  0  0  0  3  0  0  0  0  0  0
  183.2790  179.7470  139.1390 C   0  0  0  0  0  2  0  0  0  0  0  0
  188.5780  178.3030  142.2080 C   0  0  0  0  0  2  0  0  0  0  0  0
  189.4580  178.6370  141.0090 C   0  0  0  0  0  2  0  0  0  0  0  0
  188.6630  179.1060  138.0880 O   0  0  0  0  0  1  0  0  0  0  0  0
  189.2100  175.7020  135.0270 C   0  0  2  0  0  3  0  0  0  0  0  0
  191.7840  175.8020  135.8610 S   0  0  0  0  0  0  0  0  0  0  0  0
  190.5590  176.2790  134.6090 C   0  0  0  0  0  2  0  0  0  0  0  0
  190.6840  176.5130  138.2060 C   0  0  0  0  0  0  0  0  0  0  0  0
  190.6810  177.1550  139.3370 C   0  0  0  0  0  0  0  0  0  0  0  0
  191.8410  176.9570  140.2500 C   0  0  0  0  0  1  0  0  0  0  0  0
  188.2740  177.9850  138.8380 C   0  0  1  0  0  3  0  0  0  0  0  0
  189.0890  175.8480  136.5360 C   0  0  2  0  0  3  0  0  0  0  0  0
  188.3920  177.0360  136.8220 O   0  0  0  0  0  0  0  0  0  0  0  0
  187.8780  176.8800  138.0350 O   0  0  0  0  0  0  0  0  0  0  0  0
  189.3420  177.5950  139.8910 C   0  0  2  0  0  3  0  0  0  0  0  0
  190.4870  175.9080  137.0720 C   0  0  0  0  0  0  0  0  0  0  0  0
  189.1460  174.3530  134.6790 O   0  0  0  0  0  0  0  0  0  0  0  0
  187.7820  174.0680  134.6020 C   0  0  0  0  0  1  0  0  0  0  0  0
  1  9  1  0  0  0  0
  1  7  1  0  0  0  0
  2 12  1  0  0  0  0
  2  9  2  0  0  0  0
  4  2  1  0  0  0  0
  5  1  2  0  0  0  0
  6  4  2  0  0  0  0
  6  5  1  0  0  0  0
  7  3  1  0  0  0  0
  8  3  2  0  0  0  0
  9  8  1  0  0  0  0
 10 13  1  0  0  0  0
 11 12  2  0  0  0  0
 12 10  1  0  0  0  0
 13 14  1  1  0  0  0
 15 13  1  0  0  0  0
 16 15  1  0  0  0  0
 17 18  2  0  0  0  0
 18 16  1  0  0  0  0
 20 19  1  0  0  0  0
 20 18  1  0  0  0  0
 21 20  1  0  0  0  0
 22 24  1  0  0  0  0
 22 23  1  0  0  0  0
 23 21  1  0  0  0  0
 24 23  1  0  0  0  0
 25  4  1  0  0  0  0
 26 25  1  0  0  0  0
 28 40  1  1  0  0  0
 28 35  1  0  0  0  0
 29 39  1  0  0  0  0
 30 28  1  0  0  0  0
 30 29  1  0  0  0  0
 31 32  2  0  0  0  0
 32 38  1  0  0  0  0
 32 33  1  0  0  0  0
 34 27  1  6  0  0  0
 34 38  1  0  0  0  0
 35 36  1  6  0  0  0
 35 39  1  0  0  0  0
 36 37  1  0  0  0  0
 37 34  1  0  0  0  0
 38 26  1  1  0  0  0
 39 31  2  0  0  0  0
 41 40  1  0  0  0  0
M  END
>  <MODEL>
5

>  <REMARK>
 VINA RESULT:      -8.2      2.998      6.853
  Name = 
  12 active torsions:
  status: ('A' for Active; 'I' for Inactive)
    1  A    between atoms: C_3  and  C_19
    2  A    between atoms: C_3  and  C_20
    3  A    between atoms: C_4  and  C_27
    4  A    between atoms: C_7  and  C_21
    5  A    between atoms: C_7  and  C_24
    6  A    between atoms: N_8  and  C_21
    7  A    between atoms: C_9  and  O_10
    8  A    between atoms: C_11  and  C_32
    9  A    between atoms: C_20  and  C_39
   10  A    between atoms: C_24  and  C_36
   11  A    between atoms: N_26  and  C_32
   12  A    between atoms: N_26  and  C_36
                            x       y       z     vdW  Elec       q    Type
                         _______ _______ _______ _____ _____    ______ ____

>  <TORSDO>
F 12

$$$$
=
 OpenBabel11062415593D

 41 45  0  0  1  0  0  0  0  0999 V2000
  189.0790  177.4730  146.8350 C   0  0  0  0  0  0  0  0  0  0  0  0
  187.1970  178.1230  145.4470 C   0  0  0  0  0  0  0  0  0  0  0  0
  188.3770  177.8210  148.8250 N   0  0  0  0  0  0  0  0  0  0  0  0
  187.9780  177.7590  144.3090 C   0  0  0  0  0  0  0  0  0  0  0  0
  189.8610  177.1140  145.7470 C   0  0  0  0  0  3  0  0  0  0  0  0
  189.2940  177.2640  144.4720 C   0  0  0  0  0  3  0  0  0  0  0  0
  189.3840  177.4070  148.1040 O   0  0  0  0  0  0  0  0  0  0  0  0
  187.3660  178.1730  147.9930 C   0  0  0  0  0  3  0  0  0  0  0  0
  187.8100  177.9560  146.7020 C   0  0  0  0  0  0  0  0  0  0  0  0
  185.0020  178.3130  144.1980 N   0  0  0  0  0  2  0  0  0  0  0  0
  185.3300  179.3780  146.2420 O   0  0  0  0  0  0  0  0  0  0  0  0
  185.8070  178.6410  145.3380 C   0  0  0  0  0  0  0  0  0  0  0  0
  183.6220  178.7480  144.0160 C   0  0  1  0  0  3  0  0  0  0  0  0
  183.5610  180.1420  143.9680 O   0  0  0  0  0  1  0  0  0  0  0  0
  183.0350  178.1510  142.7460 C   0  0  0  0  0  2  0  0  0  0  0  0
  183.8660  178.5230  141.5270 C   0  0  0  0  0  2  0  0  0  0  0  0
  181.6740  178.9990  140.5920 C   0  0  0  0  0  2  0  0  0  0  0  0
  182.9890  178.9380  140.3900 C   0  0  0  0  0  0  0  0  0  0  0  0
  184.1810  180.4860  138.9680 O   0  0  0  0  0  1  0  0  0  0  0  0
  183.5700  179.2870  139.1180 N   0  0  0  0  0  0  0  0  0  0  0  0
  183.6050  178.3550  137.9970 C   0  0  0  0  0  2  0  0  0  0  0  0
  185.5280  177.5020  136.6960 C   0  0  0  0  0  2  0  0  0  0  0  0
  184.8620  177.5060  138.0580 C   0  0  0  0  0  3  0  0  0  0  0  0
  184.6930  176.3160  137.1320 C   0  0  0  0  0  2  0  0  0  0  0  0
  187.4720  177.9170  142.9120 C   0  0  0  0  0  2  0  0  0  0  0  0
  188.5700  178.4590  142.0050 C   0  0  0  0  0  2  0  0  0  0  0  0
  188.7130  178.9670  138.9880 O   0  0  0  0  0  1  0  0  0  0  0  0
  190.6760  175.8100  136.2600 C   0  0  2  0  0  3  0  0  0  0  0  0
  192.8010  176.1890  137.8950 S   0  0  0  0  0  0  0  0  0  0  0  0
  191.9980  176.5690  136.3120 C   0  0  0  0  0  2  0  0  0  0  0  0
  190.9130  176.6430  139.7510 C   0  0  0  0  0  0  0  0  0  0  0  0
  190.4570  177.2240  140.8210 C   0  0  0  0  0  0  0  0  0  0  0  0
  191.2720  177.1290  142.0640 C   0  0  0  0  0  1  0  0  0  0  0  0
  188.2550  177.7710  139.5630 C   0  0  1  0  0  3  0  0  0  0  0  0
  190.0520  175.8650  137.6470 C   0  0  2  0  0  3  0  0  0  0  0  0
  189.1480  176.9430  137.6930 O   0  0  0  0  0  0  0  0  0  0  0  0
  188.2930  176.6650  138.6690 O   0  0  0  0  0  0  0  0  0  0  0  0
  188.9650  177.4660  140.9070 C   0  0  2  0  0  3  0  0  0  0  0  0
  191.1790  176.0740  138.6130 C   0  0  0  0  0  0  0  0  0  0  0  0
  190.9100  174.4810  135.9040 O   0  0  0  0  0  0  0  0  0  0  0  0
  189.6910  173.8340  136.1160 C   0  0  0  0  0  1  0  0  0  0  0  0
  1  7  1  0  0  0  0
  2  9  2  0  0  0  0
  4  6  2  0  0  0  0
  4  2  1  0  0  0  0
  5  1  2  0  0  0  0
  6  5  1  0  0  0  0
  7  3  1  0  0  0  0
  8  3  2  0  0  0  0
  9  1  1  0  0  0  0
  9  8  1  0  0  0  0
 10 12  1  0  0  0  0
 12  2  1  0  0  0  0
 12 11  2  0  0  0  0
 13 14  1  6  0  0  0
 13 10  1  0  0  0  0
 15 13  1  0  0  0  0
 16 15  1  0  0  0  0
 18 17  2  0  0  0  0
 18 16  1  0  0  0  0
 19 20  1  0  0  0  0
 20 18  1  0  0  0  0
 21 23  1  0  0  0  0
 21 20  1  0  0  0  0
 22 24  1  0  0  0  0
 22 23  1  0  0  0  0
 24 23  1  0  0  0  0
 25  4  1  0  0  0  0
 26 25  1  0  0  0  0
 28 40  1  1  0  0  0
 28 30  1  0  0  0  0
 28 35  1  0  0  0  0
 29 39  1  0  0  0  0
 30 29  1  0  0  0  0
 31 32  2  0  0  0  0
 32 38  1  0  0  0  0
 32 33  1  0  0  0  0
 34 27  1  6  0  0  0
 34 38  1  0  0  0  0
 35 36  1  6  0  0  0
 35 39  1  0  0  0  0
 36 37  1  0  0  0  0
 37 34  1  0  0  0  0
 38 26  1  1  0  0  0
 39 31  2  0  0  0  0
 40 41  1  0  0  0  0
M  END
>  <MODEL>
6

>  <REMARK>
 VINA RESULT:      -7.9      2.953      6.618
  Name = 
  12 active torsions:
  status: ('A' for Active; 'I' for Inactive)
    1  A    between atoms: C_3  and  C_19
    2  A    between atoms: C_3  and  C_20
    3  A    between atoms: C_4  and  C_27
    4  A    between atoms: C_7  and  C_21
    5  A    between atoms: C_7  and  C_24
    6  A    between atoms: N_8  and  C_21
    7  A    between atoms: C_9  and  O_10
    8  A    between atoms: C_11  and  C_32
    9  A    between atoms: C_20  and  C_39
   10  A    between atoms: C_24  and  C_36
   11  A    between atoms: N_26  and  C_32
   12  A    between atoms: N_26  and  C_36
                            x       y       z     vdW  Elec       q    Type
                         _______ _______ _______ _____ _____    ______ ____

>  <TORSDO>
F 12

$$$$
=
 OpenBabel11062415593D

 41 45  0  0  1  0  0  0  0  0999 V2000
  189.3880  177.7580  146.7450 C   0  0  0  0  0  0  0  0  0  0  0  0
  187.3620  177.8670  145.4150 C   0  0  0  0  0  0  0  0  0  0  0  0
  188.6750  177.8950  148.7570 N   0  0  0  0  0  0  0  0  0  0  0  0
  188.1790  177.7350  144.2520 C   0  0  0  0  0  0  0  0  0  0  0  0
  190.2080  177.6300  145.6320 C   0  0  0  0  0  3  0  0  0  0  0  0
  189.5840  177.6210  144.3750 C   0  0  0  0  0  3  0  0  0  0  0  0
  189.7360  177.7760  148.0040 O   0  0  0  0  0  0  0  0  0  0  0  0
  187.5830  177.9570  147.9560 C   0  0  0  0  0  3  0  0  0  0  0  0
  188.0330  177.8730  146.6500 C   0  0  0  0  0  0  0  0  0  0  0  0
  185.2490  178.5020  144.1700 N   0  0  0  0  0  2  0  0  0  0  0  0
  185.1700  177.6340  146.3280 O   0  0  0  0  0  0  0  0  0  0  0  0
  185.8800  177.9840  145.3480 C   0  0  0  0  0  0  0  0  0  0  0  0
  183.8060  178.6260  143.9990 C   0  0  1  0  0  3  0  0  0  0  0  0
  183.2960  179.5660  144.8980 O   0  0  0  0  0  1  0  0  0  0  0  0
  183.4670  179.0250  142.5700 C   0  0  0  0  0  2  0  0  0  0  0  0
  184.1810  178.1320  141.5670 C   0  0  0  0  0  2  0  0  0  0  0  0
  182.7490  177.0100  139.9550 C   0  0  0  0  0  2  0  0  0  0  0  0
  183.4480  178.1010  140.2640 C   0  0  0  0  0  0  0  0  0  0  0  0
  184.5580  180.0680  139.4050 O   0  0  0  0  0  1  0  0  0  0  0  0
  183.4840  179.2420  139.3850 N   0  0  0  0  0  0  0  0  0  0  0  0
  182.4400  179.4990  138.4000 C   0  0  0  0  0  2  0  0  0  0  0  0
  180.4560  180.8760  137.8690 C   0  0  0  0  0  2  0  0  0  0  0  0
  181.3920  180.4320  138.9770 C   0  0  0  0  0  3  0  0  0  0  0  0
  181.5570  181.8020  138.3440 C   0  0  0  0  0  2  0  0  0  0  0  0
  187.6090  177.7490  142.8720 C   0  0  0  0  0  2  0  0  0  0  0  0
  188.6200  178.3200  141.8840 C   0  0  0  0  0  2  0  0  0  0  0  0
  188.7620  178.9960  138.8990 O   0  0  0  0  0  1  0  0  0  0  0  0
  190.3860  175.8470  135.9490 C   0  0  2  0  0  3  0  0  0  0  0  0
  192.5610  175.9330  137.5580 S   0  0  0  0  0  0  0  0  0  0  0  0
  191.7720  176.4800  136.0170 C   0  0  0  0  0  2  0  0  0  0  0  0
  190.7520  176.4410  139.4770 C   0  0  0  0  0  0  0  0  0  0  0  0
  190.3680  176.9950  140.5890 C   0  0  0  0  0  0  0  0  0  0  0  0
  191.1900  176.7510  141.8070 C   0  0  0  0  0  1  0  0  0  0  0  0
  188.2050  177.8140  139.4120 C   0  0  1  0  0  3  0  0  0  0  0  0
  189.7910  175.8740  137.3490 C   0  0  2  0  0  3  0  0  0  0  0  0
  188.9900  177.0240  137.4780 O   0  0  0  0  0  0  0  0  0  0  0  0
  188.1280  176.7660  138.4540 O   0  0  0  0  0  0  0  0  0  0  0  0
  188.9050  177.3650  140.7200 C   0  0  2  0  0  3  0  0  0  0  0  0
  190.9470  175.9210  138.3020 C   0  0  0  0  0  0  0  0  0  0  0  0
  190.4920  174.5270  135.5100 O   0  0  0  0  0  0  0  0  0  0  0  0
  189.1900  174.0260  135.5650 C   0  0  0  0  0  1  0  0  0  0  0  0
  1  7  1  0  0  0  0
  2  9  2  0  0  0  0
  4  6  2  0  0  0  0
  4  2  1  0  0  0  0
  5  1  2  0  0  0  0
  6  5  1  0  0  0  0
  7  3  1  0  0  0  0
  8  3  2  0  0  0  0
  9  1  1  0  0  0  0
  9  8  1  0  0  0  0
 10 12  1  0  0  0  0
 12  2  1  0  0  0  0
 12 11  2  0  0  0  0
 13 10  1  0  0  0  0
 13 14  1  1  0  0  0
 15 13  1  0  0  0  0
 16 15  1  0  0  0  0
 17 18  2  0  0  0  0
 18 16  1  0  0  0  0
 20 19  1  0  0  0  0
 20 18  1  0  0  0  0
 21 23  1  0  0  0  0
 21 20  1  0  0  0  0
 22 24  1  0  0  0  0
 22 23  1  0  0  0  0
 24 23  1  0  0  0  0
 25  4  1  0  0  0  0
 26 25  1  0  0  0  0
 28 40  1  1  0  0  0
 28 30  1  0  0  0  0
 28 35  1  0  0  0  0
 29 39  1  0  0  0  0
 30 29  1  0  0  0  0
 31 32  2  0  0  0  0
 32 38  1  0  0  0  0
 32 33  1  0  0  0  0
 34 27  1  6  0  0  0
 34 38  1  0  0  0  0
 35 36  1  6  0  0  0
 35 39  1  0  0  0  0
 36 37  1  0  0  0  0
 37 34  1  0  0  0  0
 38 26  1  1  0  0  0
 39 31  2  0  0  0  0
 40 41  1  0  0  0  0
M  END
>  <MODEL>
7

>  <REMARK>
 VINA RESULT:      -7.9      2.964      6.797
  Name = 
  12 active torsions:
  status: ('A' for Active; 'I' for Inactive)
    1  A    between atoms: C_3  and  C_19
    2  A    between atoms: C_3  and  C_20
    3  A    between atoms: C_4  and  C_27
    4  A    between atoms: C_7  and  C_21
    5  A    between atoms: C_7  and  C_24
    6  A    between atoms: N_8  and  C_21
    7  A    between atoms: C_9  and  O_10
    8  A    between atoms: C_11  and  C_32
    9  A    between atoms: C_20  and  C_39
   10  A    between atoms: C_24  and  C_36
   11  A    between atoms: N_26  and  C_32
   12  A    between atoms: N_26  and  C_36
                            x       y       z     vdW  Elec       q    Type
                         _______ _______ _______ _____ _____    ______ ____

>  <TORSDO>
F 12

$$$$
=
 OpenBabel11062415593D

 41 45  0  0  1  0  0  0  0  0999 V2000
  192.1910  176.2700  136.7140 C   0  0  0  0  0  0  0  0  0  0  0  0
  189.9110  176.5690  137.4920 C   0  0  0  0  0  0  0  0  0  0  0  0
  191.9570  175.8280  134.6350 N   0  0  0  0  0  0  0  0  0  0  0  0
  190.4440  176.8430  138.7870 C   0  0  0  0  0  0  0  0  0  0  0  0
  192.7360  176.5310  137.9640 C   0  0  0  0  0  3  0  0  0  0  0  0
  191.8410  176.8180  139.0060 C   0  0  0  0  0  3  0  0  0  0  0  0
  192.8180  175.9950  135.6020 O   0  0  0  0  0  0  0  0  0  0  0  0
  190.7090  176.0020  135.1340 C   0  0  0  0  0  3  0  0  0  0  0  0
  190.8470  176.2840  136.4810 C   0  0  0  0  0  0  0  0  0  0  0  0
  187.8260  177.7880  136.7290 N   0  0  0  0  0  2  0  0  0  0  0  0
  187.7560  175.5520  137.3710 O   0  0  0  0  0  0  0  0  0  0  0  0
  188.4520  176.5870  137.2000 C   0  0  0  0  0  0  0  0  0  0  0  0
  186.4120  177.8960  136.3880 C   0  0  1  0  0  3  0  0  0  0  0  0
  186.0850  176.9660  135.3990 O   0  0  0  0  0  1  0  0  0  0  0  0
  185.5450  177.6840  137.6200 C   0  0  0  0  0  2  0  0  0  0  0  0
  185.9560  178.6170  138.7490 C   0  0  0  0  0  2  0  0  0  0  0  0
  183.5890  178.8330  139.2550 C   0  0  0  0  0  2  0  0  0  0  0  0
  184.8360  178.8030  139.7220 C   0  0  0  0  0  0  0  0  0  0  0  0
  186.1240  179.7190  141.5500 O   0  0  0  0  0  1  0  0  0  0  0  0
  185.1120  178.9210  141.1310 N   0  0  0  0  0  0  0  0  0  0  0  0
  184.2820  178.2780  142.1430 C   0  0  0  0  0  2  0  0  0  0  0  0
  183.7400  178.6260  144.5300 C   0  0  0  0  0  2  0  0  0  0  0  0
  183.8260  179.2950  143.1720 C   0  0  0  0  0  3  0  0  0  0  0  0
  182.4800  178.8620  143.7240 C   0  0  0  0  0  2  0  0  0  0  0  0
  189.5690  177.1260  139.9640 C   0  0  0  0  0  2  0  0  0  0  0  0
  190.2760  176.7420  141.2590 C   0  0  0  0  0  2  0  0  0  0  0  0
  188.3170  175.4110  143.2000 O   0  0  0  0  0  1  0  0  0  0  0  0
  187.2440  177.5510  147.1410 C   0  0  2  0  0  3  0  0  0  0  0  0
  189.9230  177.4950  147.5240 S   0  0  0  0  0  0  0  0  0  0  0  0
  188.3080  176.7470  147.8810 C   0  0  0  0  0  2  0  0  0  0  0  0
  190.0100  177.7010  144.8470 C   0  0  0  0  0  0  0  0  0  0  0  0
  190.5450  177.4710  143.6850 C   0  0  0  0  0  0  0  0  0  0  0  0
  191.9710  177.8500  143.4890 C   0  0  0  0  0  1  0  0  0  0  0  0
  188.2220  176.7480  142.7810 C   0  0  1  0  0  3  0  0  0  0  0  0
  187.8050  177.9230  145.7770 C   0  0  2  0  0  3  0  0  0  0  0  0
  187.3830  176.9640  144.8370 O   0  0  0  0  0  0  0  0  0  0  0  0
  187.4430  177.5580  143.6520 O   0  0  0  0  0  0  0  0  0  0  0  0
  189.6150  177.3640  142.4930 C   0  0  2  0  0  3  0  0  0  0  0  0
  189.2980  177.9140  145.9130 C   0  0  0  0  0  0  0  0  0  0  0  0
  186.9460  178.7100  147.8580 O   0  0  0  0  0  0  0  0  0  0  0  0
  185.7670  179.1910  147.2860 C   0  0  0  0  0  1  0  0  0  0  0  0
  1  5  1  0  0  0  0
  2  4  2  0  0  0  0
  3  8  2  0  0  0  0
  3  7  1  0  0  0  0
  4  6  1  0  0  0  0
  4 25  1  0  0  0  0
  5  6  2  0  0  0  0
  7  1  1  0  0  0  0
  8  9  1  0  0  0  0
  9  1  2  0  0  0  0
  9  2  1  0  0  0  0
 10 12  1  0  0  0  0
 12 11  2  0  0  0  0
 12  2  1  0  0  0  0
 13 14  1  6  0  0  0
 13 10  1  0  0  0  0
 13 15  1  0  0  0  0
 15 16  1  0  0  0  0
 16 18  1  0  0  0  0
 17 18  2  0  0  0  0
 18 20  1  0  0  0  0
 20 19  1  0  0  0  0
 20 21  1  0  0  0  0
 21 23  1  0  0  0  0
 23 24  1  0  0  0  0
 23 22  1  0  0  0  0
 24 22  1  0  0  0  0
 25 26  1  0  0  0  0
 28 40  1  1  0  0  0
 28 30  1  0  0  0  0
 29 30  1  0  0  0  0
 31 39  2  0  0  0  0
 32 31  2  0  0  0  0
 33 32  1  0  0  0  0
 34 27  1  1  0  0  0
 34 37  1  0  0  0  0
 35 36  1  6  0  0  0
 35 39  1  0  0  0  0
 35 28  1  0  0  0  0
 37 36  1  0  0  0  0
 38 26  1  6  0  0  0
 38 34  1  0  0  0  0
 38 32  1  0  0  0  0
 39 29  1  0  0  0  0
 41 40  1  0  0  0  0
M  END
>  <MODEL>
8

>  <REMARK>
 VINA RESULT:      -7.9      3.011      8.310
  Name = 
  12 active torsions:
  status: ('A' for Active; 'I' for Inactive)
    1  A    between atoms: C_3  and  C_19
    2  A    between atoms: C_3  and  C_20
    3  A    between atoms: C_4  and  C_27
    4  A    between atoms: C_7  and  C_21
    5  A    between atoms: C_7  and  C_24
    6  A    between atoms: N_8  and  C_21
    7  A    between atoms: C_9  and  O_10
    8  A    between atoms: C_11  and  C_32
    9  A    between atoms: C_20  and  C_39
   10  A    between atoms: C_24  and  C_36
   11  A    between atoms: N_26  and  C_32
   12  A    between atoms: N_26  and  C_36
                            x       y       z     vdW  Elec       q    Type
                         _______ _______ _______ _____ _____    ______ ____

>  <TORSDO>
F 12

$$$$
=
 OpenBabel11062415593D

 41 45  0  0  1  0  0  0  0  0999 V2000
  192.3000  176.2040  138.2720 C   0  0  0  0  0  0  0  0  0  0  0  0
  190.1130  177.0990  138.8240 C   0  0  0  0  0  0  0  0  0  0  0  0
  193.5900  177.1090  139.7180 N   0  0  0  0  0  0  0  0  0  0  0  0
  189.5800  176.3170  137.7550 C   0  0  0  0  0  0  0  0  0  0  0  0
  191.8100  175.4360  137.2260 C   0  0  0  0  0  3  0  0  0  0  0  0
  190.4320  175.5020  136.9720 C   0  0  0  0  0  3  0  0  0  0  0  0
  193.5310  176.2930  138.7000 O   0  0  0  0  0  0  0  0  0  0  0  0
  192.3430  177.5760  139.9700 C   0  0  0  0  0  3  0  0  0  0  0  0
  191.4990  177.0000  139.0370 C   0  0  0  0  0  0  0  0  0  0  0  0
  188.7640  177.4760  140.9350 N   0  0  0  0  0  2  0  0  0  0  0  0
  188.9780  179.1380  139.3190 O   0  0  0  0  0  0  0  0  0  0  0  0
  189.2660  177.9680  139.6850 C   0  0  0  0  0  0  0  0  0  0  0  0
  187.9540  178.2610  141.8590 C   0  0  1  0  0  3  0  0  0  0  0  0
  186.6750  178.4510  141.3320 O   0  0  0  0  0  1  0  0  0  0  0  0
  187.8690  177.5740  143.2150 C   0  0  0  0  0  2  0  0  0  0  0  0
  188.7070  176.3040  143.2410 C   0  0  0  0  0  2  0  0  0  0  0  0
  191.1010  175.8970  143.3440 C   0  0  0  0  0  2  0  0  0  0  0  0
  190.0570  176.5670  143.8280 C   0  0  0  0  0  0  0  0  0  0  0  0
  190.4340  178.8420  144.5510 O   0  0  0  0  0  1  0  0  0  0  0  0
  190.2130  177.5450  144.8750 N   0  0  0  0  0  0  0  0  0  0  0  0
  190.0530  177.2080  146.2840 C   0  0  0  0  0  2  0  0  0  0  0  0
  189.0230  178.1790  148.3130 C   0  0  0  0  0  2  0  0  0  0  0  0
  188.8060  177.8690  146.8440 C   0  0  0  0  0  3  0  0  0  0  0  0
  188.2120  176.9660  147.9090 C   0  0  0  0  0  2  0  0  0  0  0  0
  188.1330  176.3480  137.3890 C   0  0  0  0  0  2  0  0  0  0  0  0
  187.7750  175.1470  136.5220 C   0  0  0  0  0  2  0  0  0  0  0  0
  185.0580  175.1860  135.1090 O   0  0  0  0  0  1  0  0  0  0  0  0
  181.7230  172.3490  136.5540 C   0  0  2  0  0  3  0  0  0  0  0  0
  183.5810  170.4410  136.0660 S   0  0  0  0  0  0  0  0  0  0  0  0
  182.1100  171.3310  135.4850 C   0  0  0  0  0  2  0  0  0  0  0  0
  185.3130  172.3650  136.7820 C   0  0  0  0  0  0  0  0  0  0  0  0
  186.4600  172.9740  136.7160 C   0  0  0  0  0  0  0  0  0  0  0  0
  187.6900  172.1640  136.9330 C   0  0  0  0  0  1  0  0  0  0  0  0
  185.2200  175.2440  136.5020 C   0  0  1  0  0  3  0  0  0  0  0  0
  183.0050  172.9510  137.1090 C   0  0  2  0  0  3  0  0  0  0  0  0
  183.2790  174.1470  136.4190 O   0  0  0  0  0  0  0  0  0  0  0  0
  184.0530  174.8670  137.2220 O   0  0  0  0  0  0  0  0  0  0  0  0
  186.4770  174.4670  136.9710 C   0  0  2  0  0  3  0  0  0  0  0  0
  184.0880  171.9410  136.8740 C   0  0  0  0  0  0  0  0  0  0  0  0
  181.0220  171.7130  137.5780 O   0  0  0  0  0  0  0  0  0  0  0  0
  179.7330  171.5360  137.0730 C   0  0  0  0  0  1  0  0  0  0  0  0
  1  7  1  0  0  0  0
  1  9  1  0  0  0  0
  2  9  2  0  0  0  0
  2 12  1  0  0  0  0
  3  8  2  0  0  0  0
  4  2  1  0  0  0  0
  5  1  2  0  0  0  0
  6  5  1  0  0  0  0
  6  4  2  0  0  0  0
  7  3  1  0  0  0  0
  9  8  1  0  0  0  0
 10 13  1  0  0  0  0
 11 12  2  0  0  0  0
 12 10  1  0  0  0  0
 13 14  1  6  0  0  0
 13 15  1  0  0  0  0
 15 16  1  0  0  0  0
 16 18  1  0  0  0  0
 17 18  2  0  0  0  0
 18 20  1  0  0  0  0
 19 20  1  0  0  0  0
 20 21  1  0  0  0  0
 21 23  1  0  0  0  0
 23 24  1  0  0  0  0
 23 22  1  0  0  0  0
 24 22  1  0  0  0  0
 25  4  1  0  0  0  0
 26 25  1  0  0  0  0
 28 35  1  0  0  0  0
 28 40  1  1  0  0  0
 29 39  1  0  0  0  0
 30 29  1  0  0  0  0
 30 28  1  0  0  0  0
 31 39  2  0  0  0  0
 32 31  2  0  0  0  0
 32 33  1  0  0  0  0
 32 38  1  0  0  0  0
 34 27  1  6  0  0  0
 34 38  1  0  0  0  0
 34 37  1  0  0  0  0
 35 36  1  6  0  0  0
 36 37  1  0  0  0  0
 38 26  1  6  0  0  0
 39 35  1  0  0  0  0
 41 40  1  0  0  0  0
M  END
>  <MODEL>
9

>  <REMARK>
 VINA RESULT:      -7.8      3.759      7.743
  Name = 
  12 active torsions:
  status: ('A' for Active; 'I' for Inactive)
    1  A    between atoms: C_3  and  C_19
    2  A    between atoms: C_3  and  C_20
    3  A    between atoms: C_4  and  C_27
    4  A    between atoms: C_7  and  C_21
    5  A    between atoms: C_7  and  C_24
    6  A    between atoms: N_8  and  C_21
    7  A    between atoms: C_9  and  O_10
    8  A    between atoms: C_11  and  C_32
    9  A    between atoms: C_20  and  C_39
   10  A    between atoms: C_24  and  C_36
   11  A    between atoms: N_26  and  C_32
   12  A    between atoms: N_26  and  C_36
                            x       y       z     vdW  Elec       q    Type
                         _______ _______ _______ _____ _____    ______ ____

>  <TORSDO>
F 12

$$$$
