=
 OpenBabel11062412313D

 33 37  0  0  1  0  0  0  0  0999 V2000
  189.9020  176.7920  142.8200 C   0  0  0  0  0  2  0  0  0  0  0  0
  188.4650  177.3330  142.8180 C   0  0  1  0  0  3  0  0  0  0  0  0
  190.4150  176.9470  140.4650 O   0  0  0  0  0  0  0  0  0  0  0  0
  189.4980  177.8050  139.8110 C   0  0  1  0  0  3  0  0  0  0  0  0
  187.3670  178.5560  139.8200 C   0  0  0  0  0  0  0  0  0  0  0  0
  190.7510  177.4660  141.7330 C   0  0  2  0  0  3  0  0  0  0  0  0
  186.8690  178.2230  138.6910 N   0  0  0  0  0  0  0  0  0  0  0  0
  187.6880  179.3890  141.0070 O   0  0  0  0  0  0  0  0  0  0  0  0
  187.7440  177.2730  138.0440 C   0  0  0  0  0  3  0  0  0  0  0  0
  187.8310  177.1380  141.5760 O   0  0  0  0  0  0  0  0  0  0  0  0
  189.0170  177.0570  138.5150 C   0  0  0  0  0  0  0  0  0  0  0  0
  188.2920  178.1770  140.7550 C   0  0  2  0  0  0  0  0  0  0  0  0
  191.5010  173.6800  137.0970 C   0  0  0  0  0  3  0  0  0  0  0  0
  192.2890  176.0370  137.1800 C   0  0  0  0  0  3  0  0  0  0  0  0
  189.3800  174.9840  137.2180 C   0  0  0  0  0  3  0  0  0  0  0  0
  192.4640  174.5840  137.2670 C   0  0  0  0  0  0  0  0  0  0  0  0
  191.1800  176.7330  137.4130 C   0  0  0  0  0  3  0  0  0  0  0  0
  190.0630  173.8910  136.8810 C   0  0  0  0  0  0  0  0  0  0  0  0
  189.9140  176.1850  137.7990 N   0  0  0  0  0  0  0  0  0  0  0  0
  189.3460  172.8330  136.3400 O   0  0  0  0  0  1  0  0  0  0  0  0
  194.6880  175.0950  137.8730 O   0  0  0  0  0  1  0  0  0  0  0  0
  193.8590  174.0790  137.3970 C   0  0  0  0  0  2  0  0  0  0  0  0
  192.1360  177.3600  141.9900 O   0  0  0  0  0  0  0  0  0  0  0  0
  192.8340  177.4410  140.7730 C   0  0  0  0  0  1  0  0  0  0  0  0
  187.6480  176.6650  143.9110 C   0  0  0  0  0  2  0  0  0  0  0  0
  185.8050  178.8450  146.1040 C   0  0  0  0  0  0  0  0  0  0  0  0
  186.7600  177.6560  144.5820 C   0  0  0  0  0  0  0  0  0  0  0  0
  185.5960  179.3440  147.2410 O   0  0  0  0  0  0  0  0  0  0  0  0
  185.0310  179.1690  144.8800 C   0  0  1  0  0  3  0  0  0  0  0  0
  186.8350  177.9060  145.8470 N   0  0  0  0  0  0  0  0  0  0  0  0
  185.7170  178.3470  143.8930 N   0  0  0  0  0  2  0  0  0  0  0  0
  183.5940  178.6990  145.0330 C   0  0  0  0  0  2  0  0  0  0  0  0
  182.7880  179.0660  143.8020 C   0  0  0  0  0  1  0  0  0  0  0  0
  2  1  1  0  0  0  0
  2 25  1  1  0  0  0
  3  6  1  0  0  0  0
  4 11  1  6  0  0  0
  4  3  1  0  0  0  0
  4 12  1  0  0  0  0
  5  8  1  0  0  0  0
  6 23  1  1  0  0  0
  6  1  1  0  0  0  0
  7  5  2  0  0  0  0
  9 11  2  0  0  0  0
  9  7  1  0  0  0  0
 10  2  1  0  0  0  0
 12  5  1  6  0  0  0
 12  8  1  0  0  0  0
 12 10  1  0  0  0  0
 13 16  2  0  0  0  0
 14 16  1  0  0  0  0
 14 17  2  0  0  0  0
 15 19  1  0  0  0  0
 16 22  1  0  0  0  0
 17 19  1  0  0  0  0
 18 13  1  0  0  0  0
 18 15  2  0  0  0  0
 19 11  1  0  0  0  0
 20 18  1  0  0  0  0
 22 21  1  0  0  0  0
 24 23  1  0  0  0  0
 25 27  1  0  0  0  0
 26 28  2  0  0  0  0
 27 30  2  0  0  0  0
 29 32  1  1  0  0  0
 29 26  1  0  0  0  0
 30 26  1  0  0  0  0
 31 27  1  0  0  0  0
 31 29  1  0  0  0  0
 33 32  1  0  0  0  0
M  END
>  <MODEL>
1

>  <REMARK>
 VINA RESULT:      -8.1      0.000      0.000
  Name = 
  6 active torsions:
  status: ('A' for Active; 'I' for Inactive)
    1  A    between atoms: C_4  and  C_31
    2  A    between atoms: C_8  and  C_31
    3  A    between atoms: C_12  and  O_24
    4  A    between atoms: C_13  and  C_20
    5  A    between atoms: C_15  and  C_17
    6  A    between atoms: N_27  and  C_29
                            x       y       z     vdW  Elec       q    Type
                         _______ _______ _______ _____ _____    ______ ____

>  <TORSDO>
F 6

$$$$
=
 OpenBabel11062412313D

 33 37  0  0  1  0  0  0  0  0999 V2000
  189.2360  176.7560  138.0310 C   0  0  0  0  0  2  0  0  0  0  0  0
  190.6220  176.2490  138.4540 C   0  0  1  0  0  3  0  0  0  0  0  0
  188.5450  177.8460  140.0720 O   0  0  0  0  0  0  0  0  0  0  0  0
  189.6580  178.0770  140.9160 C   0  0  1  0  0  3  0  0  0  0  0  0
  191.6810  177.2850  141.5350 C   0  0  0  0  0  0  0  0  0  0  0  0
  188.8930  178.0810  138.7260 C   0  0  2  0  0  3  0  0  0  0  0  0
  191.5990  177.0450  142.7880 N   0  0  0  0  0  0  0  0  0  0  0  0
  192.2400  177.7620  140.2450 O   0  0  0  0  0  0  0  0  0  0  0  0
  190.2130  177.0830  143.1920 C   0  0  0  0  0  3  0  0  0  0  0  0
  190.7100  176.0550  139.8460 O   0  0  0  0  0  0  0  0  0  0  0  0
  189.2510  177.5920  142.3540 C   0  0  0  0  0  0  0  0  0  0  0  0
  190.9400  177.3290  140.3860 C   0  0  2  0  0  0  0  0  0  0  0  0
  185.2780  179.0430  143.6550 C   0  0  0  0  0  3  0  0  0  0  0  0
  186.5150  177.2030  144.7810 C   0  0  0  0  0  3  0  0  0  0  0  0
  186.9310  178.3300  141.9310 C   0  0  0  0  0  3  0  0  0  0  0  0
  185.6110  178.3570  144.7470 C   0  0  0  0  0  0  0  0  0  0  0  0
  187.5060  176.9260  143.9390 C   0  0  0  0  0  3  0  0  0  0  0  0
  185.7730  178.8890  142.2800 C   0  0  0  0  0  0  0  0  0  0  0  0
  187.8890  177.7200  142.8100 N   0  0  0  0  0  0  0  0  0  0  0  0
  184.9950  179.4330  141.2670 O   0  0  0  0  0  1  0  0  0  0  0  0
  183.5890  179.0990  145.7140 O   0  0  0  0  0  1  0  0  0  0  0  0
  184.8890  178.6870  146.0070 C   0  0  0  0  0  2  0  0  0  0  0  0
  187.8870  178.8010  138.0450 O   0  0  0  0  0  0  0  0  0  0  0  0
  186.7730  177.9650  137.8590 C   0  0  0  0  0  1  0  0  0  0  0  0
  190.9490  174.9470  137.7430 C   0  0  0  0  0  2  0  0  0  0  0  0
  194.2970  175.5370  136.5600 C   0  0  0  0  0  0  0  0  0  0  0  0
  192.3780  174.9210  137.3220 C   0  0  0  0  0  0  0  0  0  0  0  0
  195.1980  176.3110  136.1440 O   0  0  0  0  0  0  0  0  0  0  0  0
  194.4590  174.0740  136.7570 C   0  0  1  0  0  3  0  0  0  0  0  0
  192.9980  175.9780  136.9160 N   0  0  0  0  0  0  0  0  0  0  0  0
  193.1440  173.7160  137.2710 N   0  0  0  0  0  2  0  0  0  0  0  0
  194.6920  173.3930  135.4180 C   0  0  0  0  0  2  0  0  0  0  0  0
  196.1610  173.0560  135.2490 C   0  0  0  0  0  1  0  0  0  0  0  0
  1  2  1  0  0  0  0
  1  6  1  0  0  0  0
  2 25  1  6  0  0  0
  2 10  1  0  0  0  0
  4  3  1  6  0  0  0
  4 11  1  0  0  0  0
  5  7  2  0  0  0  0
  6 23  1  6  0  0  0
  6  3  1  0  0  0  0
  7  9  1  0  0  0  0
  8 12  1  0  0  0  0
  8  5  1  0  0  0  0
 11 19  1  0  0  0  0
 11  9  2  0  0  0  0
 12 10  1  6  0  0  0
 12  4  1  0  0  0  0
 12  5  1  0  0  0  0
 13 16  2  0  0  0  0
 15 18  2  0  0  0  0
 15 19  1  0  0  0  0
 16 14  1  0  0  0  0
 16 22  1  0  0  0  0
 17 14  2  0  0  0  0
 18 13  1  0  0  0  0
 19 17  1  0  0  0  0
 20 18  1  0  0  0  0
 21 22  1  0  0  0  0
 24 23  1  0  0  0  0
 26 29  1  0  0  0  0
 26 30  1  0  0  0  0
 27 25  1  0  0  0  0
 28 26  2  0  0  0  0
 29 32  1  6  0  0  0
 29 31  1  0  0  0  0
 30 27  2  0  0  0  0
 31 27  1  0  0  0  0
 33 32  1  0  0  0  0
M  END
>  <MODEL>
2

>  <REMARK>
 VINA RESULT:      -8.0      2.089      9.185
  Name = 
  6 active torsions:
  status: ('A' for Active; 'I' for Inactive)
    1  A    between atoms: C_4  and  C_31
    2  A    between atoms: C_8  and  C_31
    3  A    between atoms: C_12  and  O_24
    4  A    between atoms: C_13  and  C_20
    5  A    between atoms: C_15  and  C_17
    6  A    between atoms: N_27  and  C_29
                            x       y       z     vdW  Elec       q    Type
                         _______ _______ _______ _____ _____    ______ ____

>  <TORSDO>
F 6

$$$$
=
 OpenBabel11062412313D

 33 37  0  0  1  0  0  0  0  0999 V2000
  181.9320  177.9400  141.7010 C   0  0  0  0  0  2  0  0  0  0  0  0
  182.5340  177.9150  140.2880 C   0  0  1  0  0  3  0  0  0  0  0  0
  183.8840  178.5540  142.9820 O   0  0  0  0  0  0  0  0  0  0  0  0
  184.8870  179.0890  142.1360 C   0  0  1  0  0  3  0  0  0  0  0  0
  185.7670  179.0030  140.0580 C   0  0  0  0  0  0  0  0  0  0  0  0
  182.6110  179.0030  142.5760 C   0  0  2  0  0  3  0  0  0  0  0  0
  186.9870  178.6500  140.2030 N   0  0  0  0  0  0  0  0  0  0  0  0
  184.5860  179.7470  139.5500 O   0  0  0  0  0  0  0  0  0  0  0  0
  187.1870  178.1700  141.5500 C   0  0  0  0  0  3  0  0  0  0  0  0
  183.9170  177.6520  140.3100 O   0  0  0  0  0  0  0  0  0  0  0  0
  186.2360  178.3780  142.5200 C   0  0  0  0  0  0  0  0  0  0  0  0
  184.5240  178.8790  140.6170 C   0  0  2  0  0  0  0  0  0  0  0  0
  186.9600  178.2440  146.8830 C   0  0  0  0  0  3  0  0  0  0  0  0
  188.2520  176.9150  145.2250 C   0  0  0  0  0  3  0  0  0  0  0  0
  185.4870  178.2580  144.8720 C   0  0  0  0  0  3  0  0  0  0  0  0
  188.0890  177.6700  146.4720 C   0  0  0  0  0  0  0  0  0  0  0  0
  187.5590  177.0540  144.0990 C   0  0  0  0  0  3  0  0  0  0  0  0
  185.6690  178.3460  146.1880 C   0  0  0  0  0  0  0  0  0  0  0  0
  186.4940  177.9870  143.8830 N   0  0  0  0  0  0  0  0  0  0  0  0
  184.5560  178.6270  146.9690 O   0  0  0  0  0  1  0  0  0  0  0  0
  188.8560  178.2530  148.6270 O   0  0  0  0  0  1  0  0  0  0  0  0
  189.2330  177.6560  147.4240 C   0  0  0  0  0  2  0  0  0  0  0  0
  181.8150  179.3800  143.6790 O   0  0  0  0  0  0  0  0  0  0  0  0
  180.6100  178.6560  143.6420 C   0  0  0  0  0  1  0  0  0  0  0  0
  181.8370  176.8690  139.4350 C   0  0  0  0  0  2  0  0  0  0  0  0
  183.9970  175.2340  137.0650 C   0  0  0  0  0  0  0  0  0  0  0  0
  182.7160  176.4350  138.3120 C   0  0  0  0  0  0  0  0  0  0  0  0
  184.5930  174.2090  136.6420 O   0  0  0  0  0  0  0  0  0  0  0  0
  184.0540  176.5730  136.4260 C   0  0  1  0  0  3  0  0  0  0  0  0
  183.1710  175.2310  138.2170 N   0  0  0  0  0  0  0  0  0  0  0  0
  183.1750  177.3350  137.3020 N   0  0  0  0  0  2  0  0  0  0  0  0
  185.4670  177.1280  136.5050 C   0  0  0  0  0  2  0  0  0  0  0  0
  186.0830  177.1910  135.1200 C   0  0  0  0  0  1  0  0  0  0  0  0
  1  6  1  0  0  0  0
  2 25  1  6  0  0  0
  2 10  1  0  0  0  0
  2  1  1  0  0  0  0
  4 11  1  1  0  0  0
  4  3  1  0  0  0  0
  5  7  2  0  0  0  0
  5 12  1  0  0  0  0
  6  3  1  0  0  0  0
  6 23  1  1  0  0  0
  7  9  1  0  0  0  0
  8  5  1  0  0  0  0
  9 11  2  0  0  0  0
 10 12  1  0  0  0  0
 11 19  1  0  0  0  0
 12  8  1  6  0  0  0
 12  4  1  0  0  0  0
 14 16  1  0  0  0  0
 15 18  2  0  0  0  0
 16 13  2  0  0  0  0
 16 22  1  0  0  0  0
 17 14  2  0  0  0  0
 18 13  1  0  0  0  0
 18 20  1  0  0  0  0
 19 17  1  0  0  0  0
 19 15  1  0  0  0  0
 22 21  1  0  0  0  0
 24 23  1  0  0  0  0
 26 30  1  0  0  0  0
 27 25  1  0  0  0  0
 28 26  2  0  0  0  0
 29 32  1  1  0  0  0
 29 26  1  0  0  0  0
 29 31  1  0  0  0  0
 30 27  2  0  0  0  0
 31 27  1  0  0  0  0
 33 32  1  0  0  0  0
M  END
>  <MODEL>
3

>  <REMARK>
 VINA RESULT:      -7.3      4.548      8.634
  Name = 
  6 active torsions:
  status: ('A' for Active; 'I' for Inactive)
    1  A    between atoms: C_4  and  C_31
    2  A    between atoms: C_8  and  C_31
    3  A    between atoms: C_12  and  O_24
    4  A    between atoms: C_13  and  C_20
    5  A    between atoms: C_15  and  C_17
    6  A    between atoms: N_27  and  C_29
                            x       y       z     vdW  Elec       q    Type
                         _______ _______ _______ _____ _____    ______ ____

>  <TORSDO>
F 6

$$$$
=
 OpenBabel11062412313D

 33 37  0  0  1  0  0  0  0  0999 V2000
  185.5330  177.9870  138.0180 C   0  0  0  0  0  2  0  0  0  0  0  0
  186.8730  177.4790  137.4670 C   0  0  1  0  0  3  0  0  0  0  0  0
  186.1850  178.5300  140.2790 O   0  0  0  0  0  0  0  0  0  0  0  0
  187.5940  178.6240  140.3820 C   0  0  1  0  0  3  0  0  0  0  0  0
  189.5460  177.8310  139.5680 C   0  0  0  0  0  0  0  0  0  0  0  0
  185.7440  179.0920  139.0630 C   0  0  2  0  0  3  0  0  0  0  0  0
  190.1560  177.3020  140.5600 N   0  0  0  0  0  0  0  0  0  0  0  0
  189.3310  178.6270  138.3330 O   0  0  0  0  0  0  0  0  0  0  0  0
  189.2370  177.1630  141.6650 C   0  0  0  0  0  3  0  0  0  0  0  0
  187.7030  176.9720  138.4850 O   0  0  0  0  0  0  0  0  0  0  0  0
  188.0160  177.7950  141.6490 C   0  0  0  0  0  0  0  0  0  0  0  0
  188.2980  178.0970  139.0750 C   0  0  2  0  0  0  0  0  0  0  0  0
  185.2680  178.6660  145.0060 C   0  0  0  0  0  3  0  0  0  0  0  0
  187.2620  177.1920  145.1980 C   0  0  0  0  0  3  0  0  0  0  0  0
  185.7680  178.0750  142.6360 C   0  0  0  0  0  3  0  0  0  0  0  0
  186.2860  178.1640  145.7020 C   0  0  0  0  0  0  0  0  0  0  0  0
  187.6400  177.0060  143.9370 C   0  0  0  0  0  3  0  0  0  0  0  0
  184.9230  178.4580  143.5920 C   0  0  0  0  0  0  0  0  0  0  0  0
  187.1540  177.7320  142.8020 N   0  0  0  0  0  0  0  0  0  0  0  0
  183.6220  178.7540  143.2120 O   0  0  0  0  0  1  0  0  0  0  0  0
  185.6870  179.6970  147.3950 O   0  0  0  0  0  1  0  0  0  0  0  0
  186.3480  178.4930  147.1530 C   0  0  0  0  0  2  0  0  0  0  0  0
  184.5930  179.8890  139.2430 O   0  0  0  0  0  0  0  0  0  0  0  0
  183.5420  179.0770  139.7020 C   0  0  0  0  0  1  0  0  0  0  0  0
  186.6400  176.3990  136.4240 C   0  0  0  0  0  2  0  0  0  0  0  0
  189.1990  173.8920  136.0700 C   0  0  0  0  0  0  0  0  0  0  0  0
  187.8700  175.5800  136.2310 C   0  0  0  0  0  0  0  0  0  0  0  0
  189.5590  172.6890  135.9880 O   0  0  0  0  0  0  0  0  0  0  0  0
  190.1160  175.0580  136.0080 C   0  0  1  0  0  3  0  0  0  0  0  0
  187.8460  174.2900  136.2180 N   0  0  0  0  0  0  0  0  0  0  0  0
  189.1710  176.1610  136.1170 N   0  0  0  0  0  2  0  0  0  0  0  0
  191.0450  175.0540  137.2110 C   0  0  0  0  0  2  0  0  0  0  0  0
  191.9470  176.2720  137.1820 C   0  0  0  0  0  1  0  0  0  0  0  0
  1  6  1  0  0  0  0
  2 25  1  6  0  0  0
  2  1  1  0  0  0  0
  2 10  1  0  0  0  0
  4  3  1  6  0  0  0
  4 11  1  0  0  0  0
  5  7  2  0  0  0  0
  6 23  1  1  0  0  0
  6  3  1  0  0  0  0
  7  9  1  0  0  0  0
  8  5  1  0  0  0  0
 10 12  1  0  0  0  0
 11  9  2  0  0  0  0
 11 19  1  0  0  0  0
 12  8  1  6  0  0  0
 12  5  1  0  0  0  0
 12  4  1  0  0  0  0
 13 16  2  0  0  0  0
 14 16  1  0  0  0  0
 15 19  1  0  0  0  0
 15 18  2  0  0  0  0
 16 22  1  0  0  0  0
 17 14  2  0  0  0  0
 18 13  1  0  0  0  0
 19 17  1  0  0  0  0
 20 18  1  0  0  0  0
 22 21  1  0  0  0  0
 23 24  1  0  0  0  0
 26 30  1  0  0  0  0
 27 25  1  0  0  0  0
 28 26  2  0  0  0  0
 29 26  1  0  0  0  0
 29 31  1  0  0  0  0
 29 32  1  1  0  0  0
 30 27  2  0  0  0  0
 31 27  1  0  0  0  0
 33 32  1  0  0  0  0
M  END
>  <MODEL>
4

>  <REMARK>
 VINA RESULT:      -7.3      2.194      8.608
  Name = 
  6 active torsions:
  status: ('A' for Active; 'I' for Inactive)
    1  A    between atoms: C_4  and  C_31
    2  A    between atoms: C_8  and  C_31
    3  A    between atoms: C_12  and  O_24
    4  A    between atoms: C_13  and  C_20
    5  A    between atoms: C_15  and  C_17
    6  A    between atoms: N_27  and  C_29
                            x       y       z     vdW  Elec       q    Type
                         _______ _______ _______ _____ _____    ______ ____

>  <TORSDO>
F 6

$$$$
=
 OpenBabel11062412313D

 33 37  0  0  1  0  0  0  0  0999 V2000
  188.6790  177.1830  143.1990 C   0  0  0  0  0  2  0  0  0  0  0  0
  187.2180  177.6460  143.2930 C   0  0  1  0  0  3  0  0  0  0  0  0
  189.0810  177.5260  140.8430 O   0  0  0  0  0  0  0  0  0  0  0  0
  188.0940  178.3780  140.2880 C   0  0  1  0  0  3  0  0  0  0  0  0
  185.9310  179.0130  140.4360 C   0  0  0  0  0  0  0  0  0  0  0  0
  189.4460  177.9730  142.1290 C   0  0  2  0  0  3  0  0  0  0  0  0
  185.4010  178.7330  139.3060 N   0  0  0  0  0  0  0  0  0  0  0  0
  186.2620  179.7780  141.6650 O   0  0  0  0  0  0  0  0  0  0  0  0
  186.2930  177.8770  138.5600 C   0  0  0  0  0  3  0  0  0  0  0  0
  186.5410  177.5040  142.0670 O   0  0  0  0  0  0  0  0  0  0  0  0
  187.5940  177.6960  138.9620 C   0  0  0  0  0  0  0  0  0  0  0  0
  186.9140  178.6200  141.3030 C   0  0  2  0  0  0  0  0  0  0  0  0
  190.0360  174.5120  137.0970 C   0  0  0  0  0  3  0  0  0  0  0  0
  190.9030  176.7770  137.6450 C   0  0  0  0  0  3  0  0  0  0  0  0
  187.9610  175.8720  137.3360 C   0  0  0  0  0  3  0  0  0  0  0  0
  191.0200  175.3250  137.4780 C   0  0  0  0  0  0  0  0  0  0  0  0
  189.8080  177.4720  137.9390 C   0  0  0  0  0  3  0  0  0  0  0  0
  188.6230  174.8250  136.8450 C   0  0  0  0  0  0  0  0  0  0  0  0
  188.5020  176.9240  138.1510 N   0  0  0  0  0  0  0  0  0  0  0  0
  187.9030  173.9140  136.0840 O   0  0  0  0  0  1  0  0  0  0  0  0
  192.9830  174.6900  136.3310 O   0  0  0  0  0  1  0  0  0  0  0  0
  192.3840  174.7400  137.5900 C   0  0  0  0  0  2  0  0  0  0  0  0
  190.8430  177.9230  142.3220 O   0  0  0  0  0  0  0  0  0  0  0  0
  191.1360  178.3010  143.6430 C   0  0  0  0  0  1  0  0  0  0  0  0
  186.4840  176.8630  144.3670 C   0  0  0  0  0  2  0  0  0  0  0  0
  186.4160  179.0580  147.2200 C   0  0  0  0  0  0  0  0  0  0  0  0
  186.5800  177.5580  145.6830 C   0  0  0  0  0  0  0  0  0  0  0  0
  186.0560  180.1260  147.7800 O   0  0  0  0  0  0  0  0  0  0  0  0
  187.2320  177.9970  147.8620 C   0  0  1  0  0  3  0  0  0  0  0  0
  186.0660  178.7240  145.8870 N   0  0  0  0  0  0  0  0  0  0  0  0
  187.3080  177.0170  146.7870 N   0  0  0  0  0  2  0  0  0  0  0  0
  188.6220  178.5270  148.1740 C   0  0  0  0  0  2  0  0  0  0  0  0
  189.6760  177.5360  147.7200 C   0  0  0  0  0  1  0  0  0  0  0  0
  1  2  1  0  0  0  0
  2 25  1  1  0  0  0
  3  6  1  0  0  0  0
  4 11  1  6  0  0  0
  4  3  1  0  0  0  0
  4 12  1  0  0  0  0
  5  8  1  0  0  0  0
  6 23  1  1  0  0  0
  6  1  1  0  0  0  0
  7  5  2  0  0  0  0
  9 11  2  0  0  0  0
  9  7  1  0  0  0  0
 10  2  1  0  0  0  0
 12  5  1  6  0  0  0
 12  8  1  0  0  0  0
 12 10  1  0  0  0  0
 13 16  2  0  0  0  0
 14 17  2  0  0  0  0
 15 19  1  0  0  0  0
 16 22  1  0  0  0  0
 16 14  1  0  0  0  0
 17 19  1  0  0  0  0
 18 13  1  0  0  0  0
 18 15  2  0  0  0  0
 19 11  1  0  0  0  0
 20 18  1  0  0  0  0
 21 22  1  0  0  0  0
 23 24  1  0  0  0  0
 25 27  1  0  0  0  0
 26 28  2  0  0  0  0
 26 29  1  0  0  0  0
 27 30  2  0  0  0  0
 27 31  1  0  0  0  0
 29 32  1  6  0  0  0
 30 26  1  0  0  0  0
 31 29  1  0  0  0  0
 33 32  1  0  0  0  0
M  END
>  <MODEL>
5

>  <REMARK>
 VINA RESULT:      -7.3      1.729      2.511
  Name = 
  6 active torsions:
  status: ('A' for Active; 'I' for Inactive)
    1  A    between atoms: C_4  and  C_31
    2  A    between atoms: C_8  and  C_31
    3  A    between atoms: C_12  and  O_24
    4  A    between atoms: C_13  and  C_20
    5  A    between atoms: C_15  and  C_17
    6  A    between atoms: N_27  and  C_29
                            x       y       z     vdW  Elec       q    Type
                         _______ _______ _______ _____ _____    ______ ____

>  <TORSDO>
F 6

$$$$
=
 OpenBabel11062412313D

 33 37  0  0  1  0  0  0  0  0999 V2000
  185.3180  178.0020  137.9820 C   0  0  0  0  0  2  0  0  0  0  0  0
  186.5720  177.6050  137.1910 C   0  0  1  0  0  3  0  0  0  0  0  0
  186.3020  178.4390  140.1430 O   0  0  0  0  0  0  0  0  0  0  0  0
  187.7040  178.6050  140.0270 C   0  0  1  0  0  3  0  0  0  0  0  0
  189.5320  177.9740  138.8600 C   0  0  0  0  0  0  0  0  0  0  0  0
  185.6460  179.0500  139.0550 C   0  0  2  0  0  3  0  0  0  0  0  0
  190.3180  177.4200  139.7020 N   0  0  0  0  0  0  0  0  0  0  0  0
  189.0840  178.8320  137.7340 O   0  0  0  0  0  0  0  0  0  0  0  0
  189.5970  177.1610  140.9270 C   0  0  0  0  0  3  0  0  0  0  0  0
  187.5780  177.0830  138.0260 O   0  0  0  0  0  0  0  0  0  0  0  0
  188.3640  177.7230  141.1500 C   0  0  0  0  0  0  0  0  0  0  0  0
  188.2100  178.2010  138.5910 C   0  0  2  0  0  0  0  0  0  0  0  0
  186.2300  178.2410  144.9910 C   0  0  0  0  0  3  0  0  0  0  0  0
  188.1950  176.7470  144.6910 C   0  0  0  0  0  3  0  0  0  0  0  0
  186.3170  177.9060  142.5230 C   0  0  0  0  0  3  0  0  0  0  0  0
  187.3390  177.6640  145.4510 C   0  0  0  0  0  0  0  0  0  0  0  0
  188.3550  176.6950  143.3720 C   0  0  0  0  0  3  0  0  0  0  0  0
  185.6520  178.1880  143.6420 C   0  0  0  0  0  0  0  0  0  0  0  0
  187.7030  177.5410  142.4180 N   0  0  0  0  0  0  0  0  0  0  0  0
  184.3120  178.5280  143.5180 O   0  0  0  0  0  1  0  0  0  0  0  0
  188.9060  177.3000  147.1790 O   0  0  0  0  0  1  0  0  0  0  0  0
  187.6480  177.8340  146.8970 C   0  0  0  0  0  2  0  0  0  0  0  0
  184.5040  179.7690  139.4710 O   0  0  0  0  0  0  0  0  0  0  0  0
  183.5890  178.8760  140.0550 C   0  0  0  0  0  1  0  0  0  0  0  0
  186.2220  176.5800  136.1240 C   0  0  0  0  0  2  0  0  0  0  0  0
  186.9020  173.2160  137.2090 C   0  0  0  0  0  0  0  0  0  0  0  0
  186.2470  175.2020  136.6910 C   0  0  0  0  0  0  0  0  0  0  0  0
  187.6820  172.2380  137.3420 O   0  0  0  0  0  0  0  0  0  0  0  0
  185.4880  173.2400  137.6600 C   0  0  1  0  0  3  0  0  0  0  0  0
  187.2900  174.4440  136.6170 N   0  0  0  0  0  0  0  0  0  0  0  0
  185.1010  174.5950  137.2900 N   0  0  0  0  0  2  0  0  0  0  0  0
  184.6700  172.2360  136.8640 C   0  0  0  0  0  2  0  0  0  0  0  0
  183.1950  172.5760  136.9480 C   0  0  0  0  0  1  0  0  0  0  0  0
  1  6  1  0  0  0  0
  2 25  1  6  0  0  0
  2  1  1  0  0  0  0
  2 10  1  0  0  0  0
  4  3  1  6  0  0  0
  4 11  1  0  0  0  0
  5  7  2  0  0  0  0
  6 23  1  1  0  0  0
  6  3  1  0  0  0  0
  7  9  1  0  0  0  0
  8  5  1  0  0  0  0
  9 11  2  0  0  0  0
 10 12  1  0  0  0  0
 11 19  1  0  0  0  0
 12  8  1  6  0  0  0
 12  5  1  0  0  0  0
 12  4  1  0  0  0  0
 13 16  2  0  0  0  0
 14 16  1  0  0  0  0
 15 18  2  0  0  0  0
 16 22  1  0  0  0  0
 17 14  2  0  0  0  0
 18 13  1  0  0  0  0
 19 15  1  0  0  0  0
 19 17  1  0  0  0  0
 20 18  1  0  0  0  0
 22 21  1  0  0  0  0
 23 24  1  0  0  0  0
 25 27  1  0  0  0  0
 26 28  2  0  0  0  0
 26 29  1  0  0  0  0
 27 31  1  0  0  0  0
 29 32  1  6  0  0  0
 30 27  2  0  0  0  0
 30 26  1  0  0  0  0
 31 29  1  0  0  0  0
 32 33  1  0  0  0  0
M  END
>  <MODEL>
6

>  <REMARK>
 VINA RESULT:      -7.3      3.098      7.923
  Name = 
  6 active torsions:
  status: ('A' for Active; 'I' for Inactive)
    1  A    between atoms: C_4  and  C_31
    2  A    between atoms: C_8  and  C_31
    3  A    between atoms: C_12  and  O_24
    4  A    between atoms: C_13  and  C_20
    5  A    between atoms: C_15  and  C_17
    6  A    between atoms: N_27  and  C_29
                            x       y       z     vdW  Elec       q    Type
                         _______ _______ _______ _____ _____    ______ ____

>  <TORSDO>
F 6

$$$$
=
 OpenBabel11062412313D

 33 37  0  0  1  0  0  0  0  0999 V2000
  187.3210  177.6430  142.4600 C   0  0  0  0  0  2  0  0  0  0  0  0
  186.7410  177.9380  143.8510 C   0  0  1  0  0  3  0  0  0  0  0  0
  185.4550  178.3000  141.0760 O   0  0  0  0  0  0  0  0  0  0  0  0
  184.5490  179.1050  141.8100 C   0  0  1  0  0  3  0  0  0  0  0  0
  183.6960  179.4910  143.8650 C   0  0  0  0  0  0  0  0  0  0  0  0
  186.7840  178.6280  141.4130 C   0  0  2  0  0  3  0  0  0  0  0  0
  182.4360  179.2930  143.7690 N   0  0  0  0  0  0  0  0  0  0  0  0
  184.9750  180.1370  144.2520 O   0  0  0  0  0  0  0  0  0  0  0  0
  182.1510  178.6280  142.5190 C   0  0  0  0  0  3  0  0  0  0  0  0
  185.3340  177.8720  143.8600 O   0  0  0  0  0  0  0  0  0  0  0  0
  183.1090  178.5360  141.5380 C   0  0  0  0  0  0  0  0  0  0  0  0
  184.9000  179.1030  143.3460 C   0  0  2  0  0  0  0  0  0  0  0  0
  182.5690  175.8960  138.0280 C   0  0  0  0  0  3  0  0  0  0  0  0
  183.3060  178.2670  137.8750 C   0  0  0  0  0  3  0  0  0  0  0  0
  181.8700  176.8510  140.2210 C   0  0  0  0  0  3  0  0  0  0  0  0
  183.2760  176.8640  137.4470 C   0  0  0  0  0  0  0  0  0  0  0  0
  183.0910  178.7440  139.0980 C   0  0  0  0  0  3  0  0  0  0  0  0
  181.7460  175.9550  139.2430 C   0  0  0  0  0  0  0  0  0  0  0  0
  182.7790  177.9620  140.2570 N   0  0  0  0  0  0  0  0  0  0  0  0
  180.8050  174.9490  139.4150 O   0  0  0  0  0  1  0  0  0  0  0  0
  185.2930  176.9600  136.2240 O   0  0  0  0  0  1  0  0  0  0  0  0
  183.9660  176.5340  136.1700 C   0  0  0  0  0  2  0  0  0  0  0  0
  187.6100  178.7000  140.2700 O   0  0  0  0  0  0  0  0  0  0  0  0
  188.7330  177.8790  140.4640 C   0  0  0  0  0  1  0  0  0  0  0  0
  187.2970  176.9630  144.8740 C   0  0  0  0  0  2  0  0  0  0  0  0
  190.7690  177.9130  144.9180 C   0  0  0  0  0  0  0  0  0  0  0  0
  188.7310  177.2570  145.1560 C   0  0  0  0  0  0  0  0  0  0  0  0
  191.7640  178.4750  144.3910 O   0  0  0  0  0  0  0  0  0  0  0  0
  190.7810  177.2260  146.2340 C   0  0  1  0  0  3  0  0  0  0  0  0
  189.4860  177.8810  144.3160 N   0  0  0  0  0  0  0  0  0  0  0  0
  189.3890  176.8090  146.3420 N   0  0  0  0  0  2  0  0  0  0  0  0
  191.6810  176.0020  146.1740 C   0  0  0  0  0  2  0  0  0  0  0  0
  192.2630  175.7120  147.5430 C   0  0  0  0  0  1  0  0  0  0  0  0
  1  2  1  0  0  0  0
  2 10  1  0  0  0  0
  2 25  1  1  0  0  0
  3  6  1  0  0  0  0
  4  3  1  6  0  0  0
  4 12  1  0  0  0  0
  5  8  1  0  0  0  0
  6 23  1  6  0  0  0
  6  1  1  0  0  0  0
  7  5  2  0  0  0  0
  9  7  1  0  0  0  0
 11  4  1  0  0  0  0
 11  9  2  0  0  0  0
 12 10  1  1  0  0  0
 12  5  1  0  0  0  0
 12  8  1  0  0  0  0
 13 18  1  0  0  0  0
 14 17  2  0  0  0  0
 15 19  1  0  0  0  0
 16 14  1  0  0  0  0
 16 13  2  0  0  0  0
 17 19  1  0  0  0  0
 18 20  1  0  0  0  0
 18 15  2  0  0  0  0
 19 11  1  0  0  0  0
 22 21  1  0  0  0  0
 22 16  1  0  0  0  0
 23 24  1  0  0  0  0
 25 27  1  0  0  0  0
 26 29  1  0  0  0  0
 27 31  1  0  0  0  0
 28 26  2  0  0  0  0
 29 32  1  6  0  0  0
 29 31  1  0  0  0  0
 30 26  1  0  0  0  0
 30 27  2  0  0  0  0
 32 33  1  0  0  0  0
M  END
>  <MODEL>
7

>  <REMARK>
 VINA RESULT:      -7.2      3.851      6.790
  Name = 
  6 active torsions:
  status: ('A' for Active; 'I' for Inactive)
    1  A    between atoms: C_4  and  C_31
    2  A    between atoms: C_8  and  C_31
    3  A    between atoms: C_12  and  O_24
    4  A    between atoms: C_13  and  C_20
    5  A    between atoms: C_15  and  C_17
    6  A    between atoms: N_27  and  C_29
                            x       y       z     vdW  Elec       q    Type
                         _______ _______ _______ _____ _____    ______ ____

>  <TORSDO>
F 6

$$$$
=
 OpenBabel11062412313D

 33 37  0  0  1  0  0  0  0  0999 V2000
  187.1840  177.7910  142.3000 C   0  0  0  0  0  2  0  0  0  0  0  0
  186.6570  177.9830  143.7300 C   0  0  1  0  0  3  0  0  0  0  0  0
  185.2460  178.4850  141.0380 O   0  0  0  0  0  0  0  0  0  0  0  0
  184.3530  179.2160  141.8590 C   0  0  1  0  0  3  0  0  0  0  0  0
  183.5780  179.4490  143.9680 C   0  0  0  0  0  0  0  0  0  0  0  0
  186.5800  178.8260  141.3410 C   0  0  2  0  0  3  0  0  0  0  0  0
  182.3210  179.2230  143.9110 N   0  0  0  0  0  0  0  0  0  0  0  0
  184.8570  180.1030  144.3430 O   0  0  0  0  0  0  0  0  0  0  0  0
  182.0000  178.6310  142.6340 C   0  0  0  0  0  3  0  0  0  0  0  0
  185.2540  177.8780  143.7920 O   0  0  0  0  0  0  0  0  0  0  0  0
  182.9170  178.6270  141.6100 C   0  0  0  0  0  0  0  0  0  0  0  0
  184.7690  179.1270  143.3760 C   0  0  2  0  0  0  0  0  0  0  0  0
  180.8810  177.6630  137.8010 C   0  0  0  0  0  3  0  0  0  0  0  0
  182.1000  175.9900  139.1800 C   0  0  0  0  0  3  0  0  0  0  0  0
  182.3390  179.0740  139.2490 C   0  0  0  0  0  3  0  0  0  0  0  0
  181.0380  176.4250  138.2670 C   0  0  0  0  0  0  0  0  0  0  0  0
  182.7550  176.7300  140.0690 C   0  0  0  0  0  3  0  0  0  0  0  0
  181.6370  178.8780  138.1340 C   0  0  0  0  0  0  0  0  0  0  0  0
  182.5470  178.1270  140.3100 N   0  0  0  0  0  0  0  0  0  0  0  0
  181.5530  179.9350  137.2390 O   0  0  0  0  0  1  0  0  0  0  0  0
  180.7030  174.1070  137.9700 O   0  0  0  0  0  1  0  0  0  0  0  0
  180.1650  175.3640  137.6930 C   0  0  0  0  0  2  0  0  0  0  0  0
  187.3540  178.9930  140.1730 O   0  0  0  0  0  0  0  0  0  0  0  0
  188.5430  178.2540  140.3020 C   0  0  0  0  0  1  0  0  0  0  0  0
  187.2800  176.9600  144.6650 C   0  0  0  0  0  2  0  0  0  0  0  0
  190.7750  176.5930  143.8870 C   0  0  0  0  0  0  0  0  0  0  0  0
  188.7660  176.9860  144.5580 C   0  0  0  0  0  0  0  0  0  0  0  0
  191.7010  176.1670  143.1480 O   0  0  0  0  0  0  0  0  0  0  0  0
  190.9760  177.3820  145.1280 C   0  0  1  0  0  3  0  0  0  0  0  0
  189.4010  176.3820  143.6100 N   0  0  0  0  0  0  0  0  0  0  0  0
  189.5970  177.6190  145.5320 N   0  0  0  0  0  2  0  0  0  0  0  0
  191.6810  176.5340  146.1750 C   0  0  0  0  0  2  0  0  0  0  0  0
  191.0530  176.7530  147.5380 C   0  0  0  0  0  1  0  0  0  0  0  0
  1  2  1  0  0  0  0
  2 10  1  0  0  0  0
  2 25  1  1  0  0  0
  3  6  1  0  0  0  0
  4  3  1  6  0  0  0
  4 12  1  0  0  0  0
  5  8  1  0  0  0  0
  6 23  1  6  0  0  0
  6  1  1  0  0  0  0
  7  5  2  0  0  0  0
  9  7  1  0  0  0  0
 11  4  1  0  0  0  0
 11  9  2  0  0  0  0
 12 10  1  1  0  0  0
 12  5  1  0  0  0  0
 12  8  1  0  0  0  0
 13 18  1  0  0  0  0
 13 16  2  0  0  0  0
 14 17  2  0  0  0  0
 15 19  1  0  0  0  0
 16 14  1  0  0  0  0
 17 19  1  0  0  0  0
 18 15  2  0  0  0  0
 19 11  1  0  0  0  0
 20 18  1  0  0  0  0
 22 21  1  0  0  0  0
 22 16  1  0  0  0  0
 23 24  1  0  0  0  0
 26 29  1  0  0  0  0
 27 25  1  0  0  0  0
 27 31  1  0  0  0  0
 28 26  2  0  0  0  0
 29 31  1  0  0  0  0
 29 32  1  1  0  0  0
 30 26  1  0  0  0  0
 30 27  2  0  0  0  0
 32 33  1  0  0  0  0
M  END
>  <MODEL>
8

>  <REMARK>
 VINA RESULT:      -7.2      4.009      7.578
  Name = 
  6 active torsions:
  status: ('A' for Active; 'I' for Inactive)
    1  A    between atoms: C_4  and  C_31
    2  A    between atoms: C_8  and  C_31
    3  A    between atoms: C_12  and  O_24
    4  A    between atoms: C_13  and  C_20
    5  A    between atoms: C_15  and  C_17
    6  A    between atoms: N_27  and  C_29
                            x       y       z     vdW  Elec       q    Type
                         _______ _______ _______ _____ _____    ______ ____

>  <TORSDO>
F 6

$$$$
=
 OpenBabel11062412313D

 33 37  0  0  1  0  0  0  0  0999 V2000
  190.2940  176.6320  141.9350 C   0  0  0  0  0  2  0  0  0  0  0  0
  188.9870  177.1390  142.5610 C   0  0  1  0  0  3  0  0  0  0  0  0
  189.8870  177.1620  139.6150 O   0  0  0  0  0  0  0  0  0  0  0  0
  188.8280  178.0950  139.4960 C   0  0  1  0  0  3  0  0  0  0  0  0
  186.8920  178.7960  140.4270 C   0  0  0  0  0  0  0  0  0  0  0  0
  190.6980  177.4820  140.7230 C   0  0  2  0  0  3  0  0  0  0  0  0
  185.9910  178.6350  139.5350 N   0  0  0  0  0  0  0  0  0  0  0  0
  187.6730  179.4390  141.5140 O   0  0  0  0  0  0  0  0  0  0  0  0
  186.5150  177.8150  138.4690 C   0  0  0  0  0  3  0  0  0  0  0  0
  187.9230  177.1300  141.6390 O   0  0  0  0  0  0  0  0  0  0  0  0
  187.8610  177.5500  138.3820 C   0  0  0  0  0  0  0  0  0  0  0  0
  188.0850  178.2930  140.8720 C   0  0  2  0  0  0  0  0  0  0  0  0
  189.8290  174.6340  135.6980 C   0  0  0  0  0  3  0  0  0  0  0  0
  189.9920  177.1000  135.4190 C   0  0  0  0  0  3  0  0  0  0  0  0
  187.8980  175.4850  137.0250 C   0  0  0  0  0  3  0  0  0  0  0  0
  190.5000  175.7260  135.3380 C   0  0  0  0  0  0  0  0  0  0  0  0
  189.0730  177.5740  136.2540 C   0  0  0  0  0  3  0  0  0  0  0  0
  188.5040  174.5280  136.3230 C   0  0  0  0  0  0  0  0  0  0  0  0
  188.3840  176.8170  137.2560 N   0  0  0  0  0  0  0  0  0  0  0  0
  187.8610  173.3010  136.2320 O   0  0  0  0  0  1  0  0  0  0  0  0
  192.8400  176.0260  135.4500 O   0  0  0  0  0  1  0  0  0  0  0  0
  191.8070  175.5300  134.6530 C   0  0  0  0  0  2  0  0  0  0  0  0
  192.0710  177.3630  140.4160 O   0  0  0  0  0  0  0  0  0  0  0  0
  192.2060  176.8110  139.1300 C   0  0  0  0  0  1  0  0  0  0  0  0
  188.6150  176.2950  143.7670 C   0  0  0  0  0  2  0  0  0  0  0  0
  187.7740  178.0060  146.8200 C   0  0  0  0  0  0  0  0  0  0  0  0
  188.0920  177.1520  144.8680 C   0  0  0  0  0  0  0  0  0  0  0  0
  187.9650  178.2370  148.0430 O   0  0  0  0  0  0  0  0  0  0  0  0
  186.7300  178.6550  145.9880 C   0  0  1  0  0  3  0  0  0  0  0  0
  188.5580  177.0940  146.0710 N   0  0  0  0  0  0  0  0  0  0  0  0
  186.9920  178.0470  144.6910 N   0  0  0  0  0  2  0  0  0  0  0  0
  185.3490  178.2490  146.4770 C   0  0  0  0  0  2  0  0  0  0  0  0
  184.2950  178.6480  145.4620 C   0  0  0  0  0  1  0  0  0  0  0  0
  1  2  1  0  0  0  0
  2 25  1  1  0  0  0
  3  6  1  0  0  0  0
  4 11  1  6  0  0  0
  4  3  1  0  0  0  0
  4 12  1  0  0  0  0
  5  8  1  0  0  0  0
  6 23  1  6  0  0  0
  6  1  1  0  0  0  0
  7  5  2  0  0  0  0
  9  7  1  0  0  0  0
 10  2  1  0  0  0  0
 11  9  2  0  0  0  0
 12  5  1  6  0  0  0
 12  8  1  0  0  0  0
 12 10  1  0  0  0  0
 13 18  1  0  0  0  0
 14 17  2  0  0  0  0
 15 19  1  0  0  0  0
 16 14  1  0  0  0  0
 16 13  2  0  0  0  0
 17 19  1  0  0  0  0
 18 15  2  0  0  0  0
 19 11  1  0  0  0  0
 20 18  1  0  0  0  0
 22 16  1  0  0  0  0
 22 21  1  0  0  0  0
 24 23  1  0  0  0  0
 25 27  1  0  0  0  0
 26 28  2  0  0  0  0
 27 30  2  0  0  0  0
 29 32  1  1  0  0  0
 29 26  1  0  0  0  0
 30 26  1  0  0  0  0
 31 27  1  0  0  0  0
 31 29  1  0  0  0  0
 33 32  1  0  0  0  0
M  END
>  <MODEL>
9

>  <REMARK>
 VINA RESULT:      -7.1      1.664      1.896
  Name = 
  6 active torsions:
  status: ('A' for Active; 'I' for Inactive)
    1  A    between atoms: C_4  and  C_31
    2  A    between atoms: C_8  and  C_31
    3  A    between atoms: C_12  and  O_24
    4  A    between atoms: C_13  and  C_20
    5  A    between atoms: C_15  and  C_17
    6  A    between atoms: N_27  and  C_29
                            x       y       z     vdW  Elec       q    Type
                         _______ _______ _______ _____ _____    ______ ____

>  <TORSDO>
F 6

$$$$
