=
 OpenBabel11062414473D

 33 34  0  0  1  0  0  0  0  0999 V2000
  189.0340  179.1150  138.5710 O   0  0  0  0  0  0  0  0  0  0  0  0
  188.8190  177.2720  139.9920 N   0  0  0  0  0  2  0  0  0  0  0  0
  193.8330  176.3110  138.8190 O   0  0  0  0  0  0  0  0  0  0  0  0
  187.0100  177.8600  138.3350 C   0  0  2  0  0  3  0  0  0  0  0  0
  191.2250  175.6620  136.3540 C   0  0  0  0  0  2  0  0  0  0  0  0
  192.4980  176.1250  136.9020 N   0  0  0  0  0  0  0  0  0  0  0  0
  186.4500  179.0260  137.8030 O   0  0  0  0  0  1  0  0  0  0  0  0
  185.6870  176.6160  135.5020 C   0  0  0  0  0  0  0  0  0  0  0  0
  188.3390  178.1380  138.9610 C   0  0  0  0  0  0  0  0  0  0  0  0
  187.1010  176.7550  137.2810 C   0  0  1  0  0  3  0  0  0  0  0  0
  190.2050  176.7840  136.3550 C   0  0  0  0  0  2  0  0  0  0  0  0
  186.7560  177.0840  134.9620 N   0  0  0  0  0  0  0  0  0  0  0  0
  185.8000  176.3890  136.8570 O   0  0  0  0  0  0  0  0  0  0  0  0
  190.0300  177.5450  140.7610 C   0  0  2  0  0  3  0  0  0  0  0  0
  192.6780  176.1810  138.3300 C   0  0  0  0  0  0  0  0  0  0  0  0
  191.2890  177.4820  139.8930 C   0  0  0  0  0  2  0  0  0  0  0  0
  184.2260  176.3000  134.5940 Cl  0  0  0  0  0  0  0  0  0  0  0  0
  187.7840  177.2280  135.9830 C   0  0  2  0  0  3  0  0  0  0  0  0
  191.5080  176.1160  139.2560 C   0  0  0  0  0  2  0  0  0  0  0  0
  188.9470  176.3090  135.6570 C   0  0  0  0  0  2  0  0  0  0  0  0
  194.5450  175.7630  135.5460 C   0  0  0  0  0  0  0  0  0  0  0  0
  193.5910  176.5470  136.0630 C   0  0  0  0  0  3  0  0  0  0  0  0
  194.6050  174.3610  135.7880 N   0  0  0  0  0  1  0  0  0  0  0  0
  195.5880  176.3870  134.6910 C   0  0  0  0  0  1  0  0  0  0  0  0
  190.1250  176.6510  142.0010 C   0  0  2  0  0  3  0  0  0  0  0  0
  188.9080  175.9990  142.2280 O   0  0  0  0  0  1  0  0  0  0  0  0
  190.5180  177.4650  143.2310 C   0  0  2  0  0  3  0  0  0  0  0  0
  191.9100  177.4970  143.3560 O   0  0  0  0  0  1  0  0  0  0  0  0
  189.9130  176.8470  144.4920 C   0  0  0  0  0  2  0  0  0  0  0  0
  189.0220  177.8190  145.2650 C   0  0  2  0  0  3  0  0  0  0  0  0
  189.3650  177.8110  146.6790 N   0  0  0  0  0  1  0  0  0  0  0  0
  187.5700  177.5130  145.0730 C   0  0  0  0  0  3  0  0  0  0  0  0
  186.6890  177.7640  146.0370 C   0  0  0  0  0  2  0  0  0  0  0  0
  1  9  2  0  0  0  0
  2 14  1  0  0  0  0
  4  7  1  6  0  0  0
  4  9  1  0  0  0  0
  5 11  1  0  0  0  0
  5  6  1  0  0  0  0
  6 15  1  0  0  0  0
  8 13  1  0  0  0  0
  9  2  1  0  0  0  0
 10 13  1  6  0  0  0
 10  4  1  0  0  0  0
 12  8  2  0  0  0  0
 12 18  1  0  0  0  0
 14 25  1  1  0  0  0
 15  3  2  0  0  0  0
 15 19  1  0  0  0  0
 16 14  1  0  0  0  0
 17  8  1  0  0  0  0
 18 20  1  6  0  0  0
 18 10  1  0  0  0  0
 19 16  1  0  0  0  0
 20 11  1  0  0  0  0
 21 23  1  0  0  0  0
 21 22  2  0  0  0  0
 22  6  1  0  0  0  0
 24 21  1  0  0  0  0
 25 26  1  1  0  0  0
 25 27  1  0  0  0  0
 27 28  1  1  0  0  0
 27 29  1  0  0  0  0
 29 30  1  0  0  0  0
 30 31  1  1  0  0  0
 32 30  1  0  0  0  0
 32 33  2  0  0  0  0
M  END
>  <MODEL>
1

>  <REMARK>
 VINA RESULT:      -7.3      0.000      0.000
  Name = 
  6 active torsions:
  status: ('A' for Active; 'I' for Inactive)
    1  A    between atoms: C_1  and  C_12
    2  A    between atoms: C_5  and  C_8
    3  A    between atoms: C_5  and  C_18
    4  A    between atoms: C_8  and  C_12
    5  A    between atoms: N_11  and  C_13
    6  A    between atoms: C_18  and  C_24
                            x       y       z     vdW  Elec       q    Type
                         _______ _______ _______ _____ _____    ______ ____

>  <TORSDO>
F 6

$$$$
=
 OpenBabel11062414473D

 33 34  0  0  1  0  0  0  0  0999 V2000
  187.5870  175.9630  143.0900 O   0  0  0  0  0  0  0  0  0  0  0  0
  188.6620  177.7370  144.1670 N   0  0  0  0  0  2  0  0  0  0  0  0
  184.0110  178.6520  146.3970 O   0  0  0  0  0  0  0  0  0  0  0  0
  189.0500  177.2690  141.7180 C   0  0  2  0  0  3  0  0  0  0  0  0
  184.5450  179.4760  142.8860 C   0  0  0  0  0  2  0  0  0  0  0  0
  183.8770  178.9590  144.0790 N   0  0  0  0  0  0  0  0  0  0  0  0
  189.1430  176.1430  140.8940 O   0  0  0  0  0  1  0  0  0  0  0  0
  188.3550  178.6790  138.7430 C   0  0  0  0  0  0  0  0  0  0  0  0
  188.3890  176.9330  143.0170 C   0  0  0  0  0  0  0  0  0  0  0  0
  188.3420  178.4230  141.0060 C   0  0  1  0  0  3  0  0  0  0  0  0
  185.3300  178.3760  142.1970 C   0  0  0  0  0  2  0  0  0  0  0  0
  187.1740  178.2170  138.9560 N   0  0  0  0  0  0  0  0  0  0  0  0
  189.1080  178.8370  139.8870 O   0  0  0  0  0  0  0  0  0  0  0  0
  188.1820  177.4010  145.5050 C   0  0  2  0  0  3  0  0  0  0  0  0
  184.6180  178.8290  145.3060 C   0  0  0  0  0  0  0  0  0  0  0  0
  186.6570  177.4820  145.6060 C   0  0  0  0  0  2  0  0  0  0  0  0
  188.9450  179.0710  137.1440 Cl  0  0  0  0  0  0  0  0  0  0  0  0
  186.9960  178.0010  140.3850 C   0  0  2  0  0  3  0  0  0  0  0  0
  186.1120  178.8720  145.3130 C   0  0  0  0  0  2  0  0  0  0  0  0
  185.8940  178.9110  140.8960 C   0  0  0  0  0  2  0  0  0  0  0  0
  181.5760  178.8750  143.1530 C   0  0  0  0  0  0  0  0  0  0  0  0
  182.4930  178.5570  144.0750 C   0  0  0  0  0  3  0  0  0  0  0  0
  181.8670  179.6950  142.0260 N   0  0  0  0  0  1  0  0  0  0  0  0
  180.1940  178.3530  143.3190 C   0  0  0  0  0  1  0  0  0  0  0  0
  188.8880  178.2310  146.5820 C   0  0  2  0  0  3  0  0  0  0  0  0
  189.9680  178.9300  146.0320 O   0  0  0  0  0  1  0  0  0  0  0  0
  189.3700  177.3410  147.7260 C   0  0  2  0  0  3  0  0  0  0  0  0
  188.8940  177.8330  148.9450 O   0  0  0  0  0  1  0  0  0  0  0  0
  190.8980  177.3040  147.7600 C   0  0  0  0  0  2  0  0  0  0  0  0
  191.4830  176.1140  147.0000 C   0  0  2  0  0  3  0  0  0  0  0  0
  192.6100  175.5490  147.7260 N   0  0  0  0  0  1  0  0  0  0  0  0
  191.8880  176.4900  145.6090 C   0  0  0  0  0  3  0  0  0  0  0  0
  191.6010  175.6970  144.5800 C   0  0  0  0  0  2  0  0  0  0  0  0
  2 14  1  0  0  0  0
  4  7  1  6  0  0  0
  4  9  1  0  0  0  0
  5  6  1  0  0  0  0
  6 15  1  0  0  0  0
  8 12  2  0  0  0  0
  8 13  1  0  0  0  0
  9  1  2  0  0  0  0
  9  2  1  0  0  0  0
 10 13  1  6  0  0  0
 10  4  1  0  0  0  0
 11  5  1  0  0  0  0
 12 18  1  0  0  0  0
 14 16  1  0  0  0  0
 14 25  1  1  0  0  0
 15 19  1  0  0  0  0
 15  3  2  0  0  0  0
 17  8  1  0  0  0  0
 18 20  1  1  0  0  0
 18 10  1  0  0  0  0
 19 16  1  0  0  0  0
 20 11  1  0  0  0  0
 21 24  1  0  0  0  0
 21 22  2  0  0  0  0
 22  6  1  0  0  0  0
 23 21  1  0  0  0  0
 25 26  1  6  0  0  0
 25 27  1  0  0  0  0
 27 29  1  0  0  0  0
 27 28  1  1  0  0  0
 30 31  1  1  0  0  0
 30 29  1  0  0  0  0
 32 30  1  0  0  0  0
 33 32  2  0  0  0  0
M  END
>  <MODEL>
2

>  <REMARK>
 VINA RESULT:      -7.1      4.220      8.160
  Name = 
  6 active torsions:
  status: ('A' for Active; 'I' for Inactive)
    1  A    between atoms: C_1  and  C_12
    2  A    between atoms: C_5  and  C_8
    3  A    between atoms: C_5  and  C_18
    4  A    between atoms: C_8  and  C_12
    5  A    between atoms: N_11  and  C_13
    6  A    between atoms: C_18  and  C_24
                            x       y       z     vdW  Elec       q    Type
                         _______ _______ _______ _____ _____    ______ ____

>  <TORSDO>
F 6

$$$$
=
 OpenBabel11062414473D

 33 34  0  0  1  0  0  0  0  0999 V2000
  187.8050  179.8120  141.0910 O   0  0  0  0  0  0  0  0  0  0  0  0
  186.1740  178.1430  140.9510 N   0  0  0  0  0  2  0  0  0  0  0  0
  186.2830  178.1830  146.1880 O   0  0  0  0  0  0  0  0  0  0  0  0
  188.1950  178.1230  139.4410 C   0  0  2  0  0  3  0  0  0  0  0  0
  189.0360  176.6950  144.3170 C   0  0  0  0  0  2  0  0  0  0  0  0
  188.3510  177.4880  145.3360 N   0  0  0  0  0  0  0  0  0  0  0  0
  188.9930  179.0670  138.7870 O   0  0  0  0  0  1  0  0  0  0  0  0
  190.9880  176.3000  138.9930 C   0  0  0  0  0  0  0  0  0  0  0  0
  187.3960  178.7580  140.5330 C   0  0  0  0  0  0  0  0  0  0  0  0
  189.0320  176.9510  139.9590 C   0  0  1  0  0  3  0  0  0  0  0  0
  189.3900  177.5570  143.1210 C   0  0  0  0  0  2  0  0  0  0  0  0
  191.3980  176.9270  140.0390 N   0  0  0  0  0  0  0  0  0  0  0  0
  189.6160  176.2610  138.8680 O   0  0  0  0  0  0  0  0  0  0  0  0
  185.2570  178.7640  141.9030 C   0  0  2  0  0  3  0  0  0  0  0  0
  186.9410  177.7460  145.2050 C   0  0  0  0  0  0  0  0  0  0  0  0
  185.8690  178.8790  143.3010 C   0  0  0  0  0  2  0  0  0  0  0  0
  192.0790  175.5670  137.8400 Cl  0  0  0  0  0  0  0  0  0  0  0  0
  190.2470  177.4110  140.7880 C   0  0  2  0  0  3  0  0  0  0  0  0
  186.2360  177.5320  143.9060 C   0  0  0  0  0  2  0  0  0  0  0  0
  190.2160  176.7390  142.1490 C   0  0  0  0  0  2  0  0  0  0  0  0
  189.0870  177.5190  147.7070 C   0  0  0  0  0  0  0  0  0  0  0  0
  189.0410  178.0410  146.4750 C   0  0  0  0  0  3  0  0  0  0  0  0
  188.4190  176.3100  148.0570 N   0  0  0  0  0  1  0  0  0  0  0  0
  189.8630  178.2360  148.7520 C   0  0  0  0  0  1  0  0  0  0  0  0
  183.8950  178.0610  141.9130 C   0  0  2  0  0  3  0  0  0  0  0  0
  183.5070  177.7270  140.6110 O   0  0  0  0  0  1  0  0  0  0  0  0
  182.8320  178.9430  142.5650 C   0  0  2  0  0  3  0  0  0  0  0  0
  182.6800  178.5900  143.9090 O   0  0  0  0  0  1  0  0  0  0  0  0
  181.4930  178.7780  141.8460 C   0  0  0  0  0  2  0  0  0  0  0  0
  180.2940  178.8650  142.7900 C   0  0  2  0  0  3  0  0  0  0  0  0
  179.2860  177.8810  142.4270 N   0  0  0  0  0  1  0  0  0  0  0  0
  179.7040  180.2400  142.8100 C   0  0  0  0  0  3  0  0  0  0  0  0
  179.3420  180.8420  141.6800 C   0  0  0  0  0  2  0  0  0  0  0  0
  2 14  1  0  0  0  0
  4  7  1  1  0  0  0
  4 10  1  0  0  0  0
  4  9  1  0  0  0  0
  5  6  1  0  0  0  0
  6 22  1  0  0  0  0
  8 12  2  0  0  0  0
  9  2  1  0  0  0  0
  9  1  2  0  0  0  0
 10 13  1  6  0  0  0
 10 18  1  0  0  0  0
 11  5  1  0  0  0  0
 12 18  1  0  0  0  0
 13  8  1  0  0  0  0
 14 25  1  1  0  0  0
 14 16  1  0  0  0  0
 15  6  1  0  0  0  0
 15  3  2  0  0  0  0
 16 19  1  0  0  0  0
 17  8  1  0  0  0  0
 18 20  1  1  0  0  0
 19 15  1  0  0  0  0
 20 11  1  0  0  0  0
 21 23  1  0  0  0  0
 21 24  1  0  0  0  0
 22 21  2  0  0  0  0
 25 26  1  6  0  0  0
 25 27  1  0  0  0  0
 27 28  1  1  0  0  0
 29 27  1  0  0  0  0
 29 30  1  0  0  0  0
 30 31  1  6  0  0  0
 30 32  1  0  0  0  0
 33 32  2  0  0  0  0
M  END
>  <MODEL>
3

>  <REMARK>
 VINA RESULT:      -6.9      4.448      8.206
  Name = 
  6 active torsions:
  status: ('A' for Active; 'I' for Inactive)
    1  A    between atoms: C_1  and  C_12
    2  A    between atoms: C_5  and  C_8
    3  A    between atoms: C_5  and  C_18
    4  A    between atoms: C_8  and  C_12
    5  A    between atoms: N_11  and  C_13
    6  A    between atoms: C_18  and  C_24
                            x       y       z     vdW  Elec       q    Type
                         _______ _______ _______ _____ _____    ______ ____

>  <TORSDO>
F 6

$$$$
=
 OpenBabel11062414473D

 33 34  0  0  1  0  0  0  0  0999 V2000
  185.2690  179.9490  138.9970 O   0  0  0  0  0  0  0  0  0  0  0  0
  184.1980  177.8780  138.8370 N   0  0  0  0  0  2  0  0  0  0  0  0
  182.9580  178.6010  143.8750 O   0  0  0  0  0  0  0  0  0  0  0  0
  186.4760  178.2510  137.8180 C   0  0  2  0  0  3  0  0  0  0  0  0
  186.3780  177.7460  142.9420 C   0  0  0  0  0  2  0  0  0  0  0  0
  185.2810  178.4300  143.6250 N   0  0  0  0  0  0  0  0  0  0  0  0
  187.1510  179.2960  137.1780 O   0  0  0  0  0  1  0  0  0  0  0  0
  189.6540  177.2690  138.3220 C   0  0  0  0  0  0  0  0  0  0  0  0
  185.2920  178.7610  138.5770 C   0  0  0  0  0  0  0  0  0  0  0  0
  187.4180  177.4440  138.7130 C   0  0  1  0  0  3  0  0  0  0  0  0
  186.7970  178.5180  141.7060 C   0  0  0  0  0  2  0  0  0  0  0  0
  189.6150  178.1120  139.2920 N   0  0  0  0  0  0  0  0  0  0  0  0
  188.4130  176.8200  137.9210 O   0  0  0  0  0  0  0  0  0  0  0  0
  182.9440  178.3220  139.4390 C   0  0  2  0  0  3  0  0  0  0  0  0
  183.9320  178.2530  143.1540 C   0  0  0  0  0  0  0  0  0  0  0  0
  183.1320  178.7820  140.8860 C   0  0  0  0  0  2  0  0  0  0  0  0
  191.1500  176.7420  137.5840 Cl  0  0  0  0  0  0  0  0  0  0  0  0
  188.2280  178.3340  139.6760 C   0  0  2  0  0  3  0  0  0  0  0  0
  183.6580  177.6840  141.8000 C   0  0  0  0  0  2  0  0  0  0  0  0
  188.0200  177.8570  141.1020 C   0  0  0  0  0  2  0  0  0  0  0  0
  185.8740  178.9190  145.9850 C   0  0  0  0  0  0  0  0  0  0  0  0
  185.4970  179.2960  144.7570 C   0  0  0  0  0  3  0  0  0  0  0  0
  186.1020  177.5580  146.3380 N   0  0  0  0  0  1  0  0  0  0  0  0
  186.0560  179.9670  147.0230 C   0  0  0  0  0  1  0  0  0  0  0  0
  181.8450  177.2640  139.2960 C   0  0  2  0  0  3  0  0  0  0  0  0
  182.2950  176.1930  138.5160 O   0  0  0  0  0  1  0  0  0  0  0  0
  180.5850  177.8670  138.6780 C   0  0  2  0  0  3  0  0  0  0  0  0
  180.7980  179.2180  138.3870 O   0  0  0  0  0  1  0  0  0  0  0  0
  179.4070  177.7390  139.6430 C   0  0  0  0  0  2  0  0  0  0  0  0
  179.8220  177.2440  141.0290 C   0  0  2  0  0  3  0  0  0  0  0  0
  179.1550  175.9890  141.3430 N   0  0  0  0  0  1  0  0  0  0  0  0
  179.5480  178.2650  142.0880 C   0  0  0  0  0  3  0  0  0  0  0  0
  179.8370  179.5480  141.8860 C   0  0  0  0  0  2  0  0  0  0  0  0
  2 14  1  0  0  0  0
  4  7  1  1  0  0  0
  4  9  1  0  0  0  0
  4 10  1  0  0  0  0
  5  6  1  0  0  0  0
  6 22  1  0  0  0  0
  8 12  2  0  0  0  0
  9  2  1  0  0  0  0
  9  1  2  0  0  0  0
 10 13  1  6  0  0  0
 10 18  1  0  0  0  0
 11  5  1  0  0  0  0
 12 18  1  0  0  0  0
 13  8  1  0  0  0  0
 14 25  1  1  0  0  0
 14 16  1  0  0  0  0
 15  6  1  0  0  0  0
 15  3  2  0  0  0  0
 16 19  1  0  0  0  0
 17  8  1  0  0  0  0
 18 20  1  1  0  0  0
 19 15  1  0  0  0  0
 20 11  1  0  0  0  0
 21 23  1  0  0  0  0
 21 24  1  0  0  0  0
 22 21  2  0  0  0  0
 25 26  1  6  0  0  0
 27 28  1  1  0  0  0
 27 25  1  0  0  0  0
 27 29  1  0  0  0  0
 29 30  1  0  0  0  0
 30 31  1  1  0  0  0
 30 32  1  0  0  0  0
 33 32  2  0  0  0  0
M  END
>  <MODEL>
4

>  <REMARK>
 VINA RESULT:      -6.3      4.789      8.862
  Name = 
  6 active torsions:
  status: ('A' for Active; 'I' for Inactive)
    1  A    between atoms: C_1  and  C_12
    2  A    between atoms: C_5  and  C_8
    3  A    between atoms: C_5  and  C_18
    4  A    between atoms: C_8  and  C_12
    5  A    between atoms: N_11  and  C_13
    6  A    between atoms: C_18  and  C_24
                            x       y       z     vdW  Elec       q    Type
                         _______ _______ _______ _____ _____    ______ ____

>  <TORSDO>
F 6

$$$$
=
 OpenBabel11062414473D

 33 34  0  0  1  0  0  0  0  0999 V2000
  190.3910  179.5050  143.2000 O   0  0  0  0  0  0  0  0  0  0  0  0
  190.3420  177.5780  141.8780 N   0  0  0  0  0  2  0  0  0  0  0  0
  185.2050  178.5110  141.4480 O   0  0  0  0  0  0  0  0  0  0  0  0
  191.6740  177.6580  144.0190 C   0  0  2  0  0  3  0  0  0  0  0  0
  186.5720  177.2340  144.5780 C   0  0  0  0  0  2  0  0  0  0  0  0
  185.7660  178.0550  143.6760 N   0  0  0  0  0  0  0  0  0  0  0  0
  192.4310  178.6040  144.7180 O   0  0  0  0  0  1  0  0  0  0  0  0
  191.5820  176.3010  147.0970 C   0  0  0  0  0  0  0  0  0  0  0  0
  190.7760  178.3180  143.0220 C   0  0  0  0  0  0  0  0  0  0  0  0
  190.8930  176.7540  144.9740 C   0  0  1  0  0  3  0  0  0  0  0  0
  187.8770  177.9320  144.9100 C   0  0  0  0  0  2  0  0  0  0  0  0
  190.6410  177.1560  147.2940 N   0  0  0  0  0  0  0  0  0  0  0  0
  191.7960  176.0030  145.7680 O   0  0  0  0  0  0  0  0  0  0  0  0
  189.5870  178.1790  140.7820 C   0  0  2  0  0  3  0  0  0  0  0  0
  186.0430  178.0380  142.2640 C   0  0  0  0  0  0  0  0  0  0  0  0
  188.1940  178.6320  141.2230 C   0  0  0  0  0  2  0  0  0  0  0  0
  192.5020  175.5870  148.4020 Cl  0  0  0  0  0  0  0  0  0  0  0  0
  190.0770  177.5500  146.0100 C   0  0  2  0  0  3  0  0  0  0  0  0
  187.3290  177.4890  141.7370 C   0  0  0  0  0  2  0  0  0  0  0  0
  188.6220  177.1200  145.9490 C   0  0  0  0  0  2  0  0  0  0  0  0
  183.4110  178.8300  143.7970 C   0  0  0  0  0  0  0  0  0  0  0  0
  184.7000  178.9020  144.1500 C   0  0  0  0  0  3  0  0  0  0  0  0
  182.9210  177.8780  142.8580 N   0  0  0  0  0  1  0  0  0  0  0  0
  182.4550  179.7910  144.4060 C   0  0  0  0  0  1  0  0  0  0  0  0
  189.5470  177.2620  139.5550 C   0  0  2  0  0  3  0  0  0  0  0  0
  190.5940  176.3350  139.6040 O   0  0  0  0  0  1  0  0  0  0  0  0
  189.6270  178.0740  138.2650 C   0  0  2  0  0  3  0  0  0  0  0  0
  189.0550  179.3350  138.4590 O   0  0  0  0  0  1  0  0  0  0  0  0
  188.8880  177.3540  137.1380 C   0  0  0  0  0  2  0  0  0  0  0  0
  187.5680  176.7300  137.5930 C   0  0  2  0  0  3  0  0  0  0  0  0
  187.4690  175.3530  137.1330 N   0  0  0  0  0  1  0  0  0  0  0  0
  186.3890  177.5260  137.1290 C   0  0  0  0  0  3  0  0  0  0  0  0
  185.6790  178.2530  137.9880 C   0  0  0  0  0  2  0  0  0  0  0  0
  2  9  1  0  0  0  0
  3 15  2  0  0  0  0
  4  7  1  1  0  0  0
  4 10  1  0  0  0  0
  5 11  1  0  0  0  0
  6 22  1  0  0  0  0
  6  5  1  0  0  0  0
  8 12  2  0  0  0  0
  8 17  1  0  0  0  0
  9  1  2  0  0  0  0
  9  4  1  0  0  0  0
 10 13  1  1  0  0  0
 10 18  1  0  0  0  0
 11 20  1  0  0  0  0
 13  8  1  0  0  0  0
 14 25  1  6  0  0  0
 14 16  1  0  0  0  0
 14  2  1  0  0  0  0
 15  6  1  0  0  0  0
 16 19  1  0  0  0  0
 18 20  1  1  0  0  0
 18 12  1  0  0  0  0
 19 15  1  0  0  0  0
 21 22  2  0  0  0  0
 21 24  1  0  0  0  0
 23 21  1  0  0  0  0
 25 26  1  1  0  0  0
 27 28  1  1  0  0  0
 27 25  1  0  0  0  0
 29 30  1  0  0  0  0
 29 27  1  0  0  0  0
 30 31  1  6  0  0  0
 32 30  1  0  0  0  0
 32 33  2  0  0  0  0
M  END
>  <MODEL>
5

>  <REMARK>
 VINA RESULT:      -6.3      4.184      9.370
  Name = 
  6 active torsions:
  status: ('A' for Active; 'I' for Inactive)
    1  A    between atoms: C_1  and  C_12
    2  A    between atoms: C_5  and  C_8
    3  A    between atoms: C_5  and  C_18
    4  A    between atoms: C_8  and  C_12
    5  A    between atoms: N_11  and  C_13
    6  A    between atoms: C_18  and  C_24
                            x       y       z     vdW  Elec       q    Type
                         _______ _______ _______ _____ _____    ______ ____

>  <TORSDO>
F 6

$$$$
=
 OpenBabel11062414473D

 33 34  0  0  1  0  0  0  0  0999 V2000
  185.4790  179.7620  140.8870 O   0  0  0  0  0  0  0  0  0  0  0  0
  186.0150  177.8770  142.1620 N   0  0  0  0  0  2  0  0  0  0  0  0
  190.3010  177.5860  139.1640 O   0  0  0  0  0  0  0  0  0  0  0  0
  183.6650  178.2650  141.3290 C   0  0  2  0  0  3  0  0  0  0  0  0
  187.0500  176.6610  137.7950 C   0  0  0  0  0  2  0  0  0  0  0  0
  188.3760  177.2720  137.8660 N   0  0  0  0  0  0  0  0  0  0  0  0
  182.8220  179.3610  141.1190 O   0  0  0  0  0  1  0  0  0  0  0  0
  181.5250  176.9220  139.1070 C   0  0  0  0  0  0  0  0  0  0  0  0
  185.0920  178.6970  141.4400 C   0  0  0  0  0  0  0  0  0  0  0  0
  183.4770  177.2020  140.2450 C   0  0  1  0  0  3  0  0  0  0  0  0
  185.9870  177.6450  138.2450 C   0  0  0  0  0  2  0  0  0  0  0  0
  182.2570  177.5330  138.2430 N   0  0  0  0  0  0  0  0  0  0  0  0
  182.1610  176.6820  140.3070 O   0  0  0  0  0  0  0  0  0  0  0  0
  187.3880  178.2870  142.4470 C   0  0  2  0  0  3  0  0  0  0  0  0
  189.0680  177.3210  139.1270 C   0  0  0  0  0  0  0  0  0  0  0  0
  188.2300  178.4010  141.1740 C   0  0  0  0  0  2  0  0  0  0  0  0
  179.8760  176.4410  138.7810 Cl  0  0  0  0  0  0  0  0  0  0  0  0
  183.5690  177.7850  138.8220 C   0  0  2  0  0  3  0  0  0  0  0  0
  188.3440  177.0880  140.4120 C   0  0  0  0  0  2  0  0  0  0  0  0
  184.6200  177.0280  138.0300 C   0  0  0  0  0  2  0  0  0  0  0  0
  189.5940  177.1760  135.7050 C   0  0  0  0  0  0  0  0  0  0  0  0
  189.0230  177.8470  136.7120 C   0  0  0  0  0  3  0  0  0  0  0  0
  189.6460  175.7530  135.6570 N   0  0  0  0  0  1  0  0  0  0  0  0
  190.2040  177.9510  134.5940 C   0  0  0  0  0  1  0  0  0  0  0  0
  188.0370  177.3860  143.5030 C   0  0  2  0  0  3  0  0  0  0  0  0
  187.4220  176.1290  143.5180 O   0  0  0  0  0  1  0  0  0  0  0  0
  187.9540  178.0240  144.8880 C   0  0  2  0  0  3  0  0  0  0  0  0
  189.0350  177.6060  145.6690 O   0  0  0  0  0  1  0  0  0  0  0  0
  186.6500  177.6270  145.5770 C   0  0  0  0  0  2  0  0  0  0  0  0
  185.6810  178.7980  145.7440 C   0  0  2  0  0  3  0  0  0  0  0  0
  185.7030  179.2870  147.1150 N   0  0  0  0  0  1  0  0  0  0  0  0
  184.2890  178.4290  145.3380 C   0  0  0  0  0  3  0  0  0  0  0  0
  183.5020  179.3110  144.7280 C   0  0  0  0  0  2  0  0  0  0  0  0
  1  9  2  0  0  0  0
  2 14  1  0  0  0  0
  4  7  1  6  0  0  0
  4  9  1  0  0  0  0
  5  6  1  0  0  0  0
  5 11  1  0  0  0  0
  6 15  1  0  0  0  0
  8 13  1  0  0  0  0
  9  2  1  0  0  0  0
 10 13  1  1  0  0  0
 10  4  1  0  0  0  0
 12 18  1  0  0  0  0
 12  8  2  0  0  0  0
 14 25  1  1  0  0  0
 15  3  2  0  0  0  0
 15 19  1  0  0  0  0
 16 14  1  0  0  0  0
 17  8  1  0  0  0  0
 18 20  1  6  0  0  0
 18 10  1  0  0  0  0
 19 16  1  0  0  0  0
 20 11  1  0  0  0  0
 21 22  2  0  0  0  0
 22  6  1  0  0  0  0
 23 21  1  0  0  0  0
 24 21  1  0  0  0  0
 25 26  1  1  0  0  0
 25 27  1  0  0  0  0
 27 29  1  0  0  0  0
 27 28  1  1  0  0  0
 29 30  1  0  0  0  0
 30 31  1  1  0  0  0
 32 30  1  0  0  0  0
 33 32  2  0  0  0  0
M  END
>  <MODEL>
6

>  <REMARK>
 VINA RESULT:      -6.3      3.233      4.346
  Name = 
  6 active torsions:
  status: ('A' for Active; 'I' for Inactive)
    1  A    between atoms: C_1  and  C_12
    2  A    between atoms: C_5  and  C_8
    3  A    between atoms: C_5  and  C_18
    4  A    between atoms: C_8  and  C_12
    5  A    between atoms: N_11  and  C_13
    6  A    between atoms: C_18  and  C_24
                            x       y       z     vdW  Elec       q    Type
                         _______ _______ _______ _____ _____    ______ ____

>  <TORSDO>
F 6

$$$$
=
 OpenBabel11062414473D

 33 34  0  0  1  0  0  0  0  0999 V2000
  187.9360  175.4450  143.4320 O   0  0  0  0  0  0  0  0  0  0  0  0
  188.4110  177.2000  144.9010 N   0  0  0  0  0  2  0  0  0  0  0  0
  183.5880  178.8990  143.7660 O   0  0  0  0  0  0  0  0  0  0  0  0
  190.1200  176.4030  143.2240 C   0  0  2  0  0  3  0  0  0  0  0  0
  186.2650  179.2340  141.3130 C   0  0  0  0  0  2  0  0  0  0  0  0
  184.9380  178.9420  141.8520 N   0  0  0  0  0  0  0  0  0  0  0  0
  190.5080  175.1840  142.6590 O   0  0  0  0  0  1  0  0  0  0  0  0
  191.6110  177.5190  140.4220 C   0  0  0  0  0  0  0  0  0  0  0  0
  188.7640  176.3010  143.8460 C   0  0  0  0  0  0  0  0  0  0  0  0
  190.1890  177.5380  142.2000 C   0  0  1  0  0  3  0  0  0  0  0  0
  187.1140  177.9780  141.2810 C   0  0  0  0  0  2  0  0  0  0  0  0
  190.4860  177.2240  139.8720 N   0  0  0  0  0  0  0  0  0  0  0  0
  191.5300  177.7250  141.7830 O   0  0  0  0  0  0  0  0  0  0  0  0
  187.1720  177.0820  145.6650 C   0  0  2  0  0  3  0  0  0  0  0  0
  184.7500  178.8750  143.2780 C   0  0  0  0  0  0  0  0  0  0  0  0
  185.9370  177.3480  144.8020 C   0  0  0  0  0  2  0  0  0  0  0  0
  193.1030  177.6480  139.5180 Cl  0  0  0  0  0  0  0  0  0  0  0  0
  189.4470  177.2010  140.8920 C   0  0  2  0  0  3  0  0  0  0  0  0
  185.9170  178.7470  144.2030 C   0  0  0  0  0  2  0  0  0  0  0  0
  188.4280  178.2860  140.5930 C   0  0  0  0  0  2  0  0  0  0  0  0
  183.5770  179.2390  139.7970 C   0  0  0  0  0  0  0  0  0  0  0  0
  183.7970  178.7040  141.0040 C   0  0  0  0  0  3  0  0  0  0  0  0
  184.4770  180.1600  139.1870 N   0  0  0  0  0  1  0  0  0  0  0  0
  182.3380  178.8600  139.0690 C   0  0  0  0  0  1  0  0  0  0  0  0
  187.2050  177.9470  146.9290 C   0  0  2  0  0  3  0  0  0  0  0  0
  187.7380  179.2090  146.6440 O   0  0  0  0  0  1  0  0  0  0  0  0
  188.0200  177.2730  148.0300 C   0  0  2  0  0  3  0  0  0  0  0  0
  188.5960  178.2410  148.8570 O   0  0  0  0  0  1  0  0  0  0  0  0
  189.1250  176.4110  147.4190 C   0  0  0  0  0  2  0  0  0  0  0  0
  190.5170  177.0230  147.5780 C   0  0  2  0  0  3  0  0  0  0  0  0
  190.8430  177.8520  146.4280 N   0  0  0  0  0  1  0  0  0  0  0  0
  191.5630  175.9730  147.7850 C   0  0  0  0  0  3  0  0  0  0  0  0
  192.3250  175.5640  146.7750 C   0  0  0  0  0  2  0  0  0  0  0  0
  1  9  2  0  0  0  0
  2 14  1  0  0  0  0
  4  7  1  6  0  0  0
  4  9  1  0  0  0  0
  5  6  1  0  0  0  0
  6 15  1  0  0  0  0
  8 13  1  0  0  0  0
  9  2  1  0  0  0  0
 10 13  1  6  0  0  0
 10  4  1  0  0  0  0
 11  5  1  0  0  0  0
 12  8  2  0  0  0  0
 12 18  1  0  0  0  0
 14 25  1  1  0  0  0
 15  3  2  0  0  0  0
 15 19  1  0  0  0  0
 16 14  1  0  0  0  0
 17  8  1  0  0  0  0
 18 20  1  6  0  0  0
 18 10  1  0  0  0  0
 19 16  1  0  0  0  0
 20 11  1  0  0  0  0
 21 22  2  0  0  0  0
 22  6  1  0  0  0  0
 23 21  1  0  0  0  0
 24 21  1  0  0  0  0
 25 26  1  6  0  0  0
 25 27  1  0  0  0  0
 27 28  1  1  0  0  0
 29 30  1  0  0  0  0
 29 27  1  0  0  0  0
 30 31  1  6  0  0  0
 30 32  1  0  0  0  0
 33 32  2  0  0  0  0
M  END
>  <MODEL>
7

>  <REMARK>
 VINA RESULT:      -6.2      4.282      7.669
  Name = 
  6 active torsions:
  status: ('A' for Active; 'I' for Inactive)
    1  A    between atoms: C_1  and  C_12
    2  A    between atoms: C_5  and  C_8
    3  A    between atoms: C_5  and  C_18
    4  A    between atoms: C_8  and  C_12
    5  A    between atoms: N_11  and  C_13
    6  A    between atoms: C_18  and  C_24
                            x       y       z     vdW  Elec       q    Type
                         _______ _______ _______ _____ _____    ______ ____

>  <TORSDO>
F 6

$$$$
=
 OpenBabel11062414473D

 33 34  0  0  1  0  0  0  0  0999 V2000
  187.7370  179.9280  140.9710 O   0  0  0  0  0  0  0  0  0  0  0  0
  186.0900  178.2860  140.7280 N   0  0  0  0  0  2  0  0  0  0  0  0
  185.8690  178.3280  145.9610 O   0  0  0  0  0  0  0  0  0  0  0  0
  188.2020  178.2310  139.3480 C   0  0  2  0  0  3  0  0  0  0  0  0
  188.7090  176.7930  144.2670 C   0  0  0  0  0  2  0  0  0  0  0  0
  187.9750  177.5980  145.2410 N   0  0  0  0  0  0  0  0  0  0  0  0
  189.0550  179.1620  138.7460 O   0  0  0  0  0  1  0  0  0  0  0  0
  190.9870  176.3620  139.0770 C   0  0  0  0  0  0  0  0  0  0  0  0
  187.3460  178.8800  140.3880 C   0  0  0  0  0  0  0  0  0  0  0  0
  188.9840  177.0460  139.9180 C   0  0  1  0  0  3  0  0  0  0  0  0
  189.1520  177.6480  143.0960 C   0  0  0  0  0  2  0  0  0  0  0  0
  191.3400  176.9820  140.1470 N   0  0  0  0  0  0  0  0  0  0  0  0
  189.6240  176.3450  138.8660 O   0  0  0  0  0  0  0  0  0  0  0  0
  185.1250  178.9230  141.6200 C   0  0  2  0  0  3  0  0  0  0  0  0
  186.5800  177.8800  145.0220 C   0  0  0  0  0  0  0  0  0  0  0  0
  185.6500  179.0300  143.0530 C   0  0  0  0  0  2  0  0  0  0  0  0
  192.1360  175.6090  137.9940 Cl  0  0  0  0  0  0  0  0  0  0  0  0
  190.1520  177.4860  140.8210 C   0  0  2  0  0  3  0  0  0  0  0  0
  185.9550  177.6760  143.6800 C   0  0  0  0  0  2  0  0  0  0  0  0
  190.0240  176.8160  142.1780 C   0  0  0  0  0  2  0  0  0  0  0  0
  188.7310  177.5280  147.6050 C   0  0  0  0  0  0  0  0  0  0  0  0
  188.6000  178.1400  146.4220 C   0  0  0  0  0  3  0  0  0  0  0  0
  188.2320  176.2170  147.8530 N   0  0  0  0  0  1  0  0  0  0  0  0
  189.4190  178.2520  148.7050 C   0  0  0  0  0  1  0  0  0  0  0  0
  183.7540  178.2430  141.5440 C   0  0  2  0  0  3  0  0  0  0  0  0
  183.8070  177.1280  140.7010 O   0  0  0  0  0  1  0  0  0  0  0  0
  182.6880  179.2200  141.0510 C   0  0  2  0  0  3  0  0  0  0  0  0
  181.4170  178.7490  141.3900 O   0  0  0  0  0  1  0  0  0  0  0  0
  182.7780  179.3800  139.5330 C   0  0  0  0  0  2  0  0  0  0  0  0
  181.4910  179.9260  138.9130 C   0  0  2  0  0  3  0  0  0  0  0  0
  181.1520  179.1870  137.7070 N   0  0  0  0  0  1  0  0  0  0  0  0
  181.5950  181.3900  138.6220 C   0  0  0  0  0  3  0  0  0  0  0  0
  180.8170  181.9580  137.7040 C   0  0  0  0  0  2  0  0  0  0  0  0
  2 14  1  0  0  0  0
  4  7  1  1  0  0  0
  4 10  1  0  0  0  0
  4  9  1  0  0  0  0
  5  6  1  0  0  0  0
  6 22  1  0  0  0  0
  8 12  2  0  0  0  0
  9  2  1  0  0  0  0
  9  1  2  0  0  0  0
 10 13  1  6  0  0  0
 10 18  1  0  0  0  0
 11  5  1  0  0  0  0
 12 18  1  0  0  0  0
 13  8  1  0  0  0  0
 14 25  1  1  0  0  0
 14 16  1  0  0  0  0
 15  6  1  0  0  0  0
 15  3  2  0  0  0  0
 16 19  1  0  0  0  0
 17  8  1  0  0  0  0
 18 20  1  1  0  0  0
 19 15  1  0  0  0  0
 20 11  1  0  0  0  0
 21 23  1  0  0  0  0
 21 24  1  0  0  0  0
 22 21  2  0  0  0  0
 25 26  1  6  0  0  0
 27 28  1  6  0  0  0
 27 25  1  0  0  0  0
 29 27  1  0  0  0  0
 30 31  1  6  0  0  0
 30 29  1  0  0  0  0
 32 30  1  0  0  0  0
 33 32  2  0  0  0  0
M  END
>  <MODEL>
8

>  <REMARK>
 VINA RESULT:      -6.0      3.924      8.497
  Name = 
  6 active torsions:
  status: ('A' for Active; 'I' for Inactive)
    1  A    between atoms: C_1  and  C_12
    2  A    between atoms: C_5  and  C_8
    3  A    between atoms: C_5  and  C_18
    4  A    between atoms: C_8  and  C_12
    5  A    between atoms: N_11  and  C_13
    6  A    between atoms: C_18  and  C_24
                            x       y       z     vdW  Elec       q    Type
                         _______ _______ _______ _____ _____    ______ ____

>  <TORSDO>
F 6

$$$$
=
 OpenBabel11062414473D

 33 34  0  0  1  0  0  0  0  0999 V2000
  185.4610  179.7460  140.7840 O   0  0  0  0  0  0  0  0  0  0  0  0
  185.9800  177.8640  142.0710 N   0  0  0  0  0  2  0  0  0  0  0  0
  190.2460  177.4960  139.0530 O   0  0  0  0  0  0  0  0  0  0  0  0
  183.6300  178.2760  141.2480 C   0  0  2  0  0  3  0  0  0  0  0  0
  186.9760  176.6020  137.7080 C   0  0  0  0  0  2  0  0  0  0  0  0
  188.3100  177.1960  137.7670 N   0  0  0  0  0  0  0  0  0  0  0  0
  182.8000  179.3810  141.0340 O   0  0  0  0  0  1  0  0  0  0  0  0
  181.4620  176.9430  139.0470 C   0  0  0  0  0  0  0  0  0  0  0  0
  185.0640  178.6900  141.3480 C   0  0  0  0  0  0  0  0  0  0  0  0
  183.4240  177.2070  140.1730 C   0  0  1  0  0  3  0  0  0  0  0  0
  185.9280  177.6020  138.1570 C   0  0  0  0  0  2  0  0  0  0  0  0
  182.1970  177.5380  138.1750 N   0  0  0  0  0  0  0  0  0  0  0  0
  182.1010  176.7050  140.2450 O   0  0  0  0  0  0  0  0  0  0  0  0
  187.3590  178.2580  142.3450 C   0  0  2  0  0  3  0  0  0  0  0  0
  189.0100  177.2460  139.0240 C   0  0  0  0  0  0  0  0  0  0  0  0
  188.1960  178.3530  141.0680 C   0  0  0  0  0  2  0  0  0  0  0  0
  179.8050  176.4810  138.7330 Cl  0  0  0  0  0  0  0  0  0  0  0  0
  183.5150  177.7780  138.7450 C   0  0  2  0  0  3  0  0  0  0  0  0
  188.2890  177.0320  140.3160 C   0  0  0  0  0  2  0  0  0  0  0  0
  184.5520  177.0020  137.9530 C   0  0  0  0  0  2  0  0  0  0  0  0
  189.7410  177.0980  135.7410 C   0  0  0  0  0  0  0  0  0  0  0  0
  188.9580  177.7540  136.6060 C   0  0  0  0  0  3  0  0  0  0  0  0
  190.0530  175.7150  135.8790 N   0  0  0  0  0  1  0  0  0  0  0  0
  190.3130  177.8490  134.5940 C   0  0  0  0  0  1  0  0  0  0  0  0
  188.0020  177.3580  143.4050 C   0  0  2  0  0  3  0  0  0  0  0  0
  187.0740  176.4280  143.8860 O   0  0  0  0  0  1  0  0  0  0  0  0
  188.5570  178.1870  144.5610 C   0  0  2  0  0  3  0  0  0  0  0  0
  189.9110  178.4600  144.3440 O   0  0  0  0  0  1  0  0  0  0  0  0
  188.4010  177.4300  145.8790 C   0  0  0  0  0  2  0  0  0  0  0  0
  189.5040  177.7520  146.8880 C   0  0  2  0  0  3  0  0  0  0  0  0
  190.3330  176.5800  147.1290 N   0  0  0  0  0  1  0  0  0  0  0  0
  188.9450  178.2760  148.1730 C   0  0  0  0  0  3  0  0  0  0  0  0
  187.9730  177.6260  148.8060 C   0  0  0  0  0  2  0  0  0  0  0  0
  1  9  2  0  0  0  0
  2 14  1  0  0  0  0
  4  7  1  6  0  0  0
  4  9  1  0  0  0  0
  5  6  1  0  0  0  0
  5 11  1  0  0  0  0
  6 15  1  0  0  0  0
  8 13  1  0  0  0  0
  9  2  1  0  0  0  0
 10 13  1  1  0  0  0
 10  4  1  0  0  0  0
 12 18  1  0  0  0  0
 12  8  2  0  0  0  0
 14 25  1  1  0  0  0
 15  3  2  0  0  0  0
 15 19  1  0  0  0  0
 16 14  1  0  0  0  0
 17  8  1  0  0  0  0
 18 20  1  6  0  0  0
 18 10  1  0  0  0  0
 19 16  1  0  0  0  0
 20 11  1  0  0  0  0
 21 23  1  0  0  0  0
 21 22  2  0  0  0  0
 22  6  1  0  0  0  0
 24 21  1  0  0  0  0
 25 26  1  1  0  0  0
 25 27  1  0  0  0  0
 27 28  1  6  0  0  0
 27 29  1  0  0  0  0
 29 30  1  0  0  0  0
 30 31  1  1  0  0  0
 30 32  1  0  0  0  0
 32 33  2  0  0  0  0
M  END
>  <MODEL>
9

>  <REMARK>
 VINA RESULT:      -5.8      3.126      4.163
  Name = 
  6 active torsions:
  status: ('A' for Active; 'I' for Inactive)
    1  A    between atoms: C_1  and  C_12
    2  A    between atoms: C_5  and  C_8
    3  A    between atoms: C_5  and  C_18
    4  A    between atoms: C_8  and  C_12
    5  A    between atoms: N_11  and  C_13
    6  A    between atoms: C_18  and  C_24
                            x       y       z     vdW  Elec       q    Type
                         _______ _______ _______ _____ _____    ______ ____

>  <TORSDO>
F 6

$$$$
