=
 OpenBabel11062417033D

 47 52  0  0  1  0  0  0  0  0999 V2000
  185.5960  178.7020  141.6710 C   0  0  0  0  0  0  0  0  0  0  0  0
  188.1310  178.1030  140.7020 C   0  0  0  0  0  0  0  0  0  0  0  0
  187.1120  178.3670  139.8320 C   0  0  0  0  0  0  0  0  0  0  0  0
  188.8510  177.9150  138.7090 C   0  0  0  0  0  0  0  0  0  0  0  0
  187.9450  178.1090  142.0820 C   0  0  0  0  0  3  0  0  0  0  0  0
  189.2490  177.8300  140.0070 N   0  0  0  0  0  0  0  0  0  0  0  0
  187.5430  178.2470  138.5620 N   0  0  0  0  0  0  0  0  0  0  0  0
  186.6610  178.4150  142.5610 C   0  0  0  0  0  3  0  0  0  0  0  0
  185.8180  178.6810  140.2750 C   0  0  0  0  0  0  0  0  0  0  0  0
  190.4470  176.0070  140.8170 F   0  0  0  0  0  0  0  0  0  0  0  0
  191.5340  177.5530  139.5880 F   0  0  0  0  0  0  0  0  0  0  0  0
  190.8810  178.0450  141.6750 F   0  0  0  0  0  0  0  0  0  0  0  0
  190.5370  177.3540  140.5260 C   0  0  0  0  0  0  0  0  0  0  0  0
  184.6860  178.9760  139.3210 C   0  0  2  0  0  3  0  0  0  0  0  0
  184.4790  180.3500  139.1800 O   0  0  0  0  0  1  0  0  0  0  0  0
  183.3630  178.2490  139.6260 C   0  0  1  0  0  3  0  0  0  0  0  0
  182.1390  179.1630  139.4950 C   0  0  2  0  0  3  0  0  0  0  0  0
  181.2330  178.8910  140.5240 O   0  0  0  0  0  1  0  0  0  0  0  0
  180.1430  178.9720  138.5590 C   0  0  0  0  0  1  0  0  0  0  0  0
  181.5070  178.9540  138.2660 O   0  0  0  0  0  0  0  0  0  0  0  0
  183.2020  176.9140  138.8920 C   0  0  0  0  0  2  0  0  0  0  0  0
  182.5660  175.9680  139.7000 O   0  0  0  0  0  0  0  0  0  0  0  0
  181.5450  175.4550  138.8990 C   0  0  0  0  0  1  0  0  0  0  0  0
  189.7250  177.5920  137.5430 C   0  0  0  0  0  2  0  0  0  0  0  0
  190.8930  175.6230  136.9800 C   0  0  2  0  0  3  0  0  0  0  0  0
  189.5650  176.1890  137.1890 N   0  0  0  0  0  0  0  0  0  0  0  0
  189.4970  176.6660  134.6600 C   0  0  0  0  0  2  0  0  0  0  0  0
  190.8800  174.8510  135.6720 C   0  0  0  0  0  2  0  0  0  0  0  0
  188.8460  176.1020  135.9160 C   0  0  1  0  0  0  0  0  0  0  0  0
  191.2210  174.7260  138.0720 N   0  0  0  0  0  1  0  0  0  0  0  0
  189.5750  175.1740  134.9740 C   0  0  1  0  0  3  0  0  0  0  0  0
  186.7990  174.8950  136.7320 C   0  0  0  0  0  3  0  0  0  0  0  0
  186.5250  176.7880  135.2540 C   0  0  0  0  0  3  0  0  0  0  0  0
  184.7990  173.6800  137.5980 C   0  0  0  0  0  1  0  0  0  0  0  0
  185.4110  174.7560  136.7760 C   0  0  0  0  0  0  0  0  0  0  0  0
  187.3620  175.9140  135.9550 C   0  0  0  0  0  0  0  0  0  0  0  0
  184.6160  175.6080  136.0740 N   0  0  0  0  0  0  0  0  0  0  0  0
  185.1400  176.6140  135.3230 C   0  0  0  0  0  3  0  0  0  0  0  0
  184.3160  178.9940  142.1590 O   0  0  0  0  0  0  0  0  0  0  0  0
  182.5450  179.1630  143.7680 C   0  0  0  0  0  2  0  0  0  0  0  0
  183.7900  178.4130  143.3430 C   0  0  2  0  0  3  0  0  0  0  0  0
  183.8640  179.4290  144.4620 C   0  0  2  0  0  3  0  0  0  0  0  0
  183.9040  178.6930  145.7860 C   0  0  0  0  0  2  0  0  0  0  0  0
  185.1290  179.0250  146.4940 N   0  0  0  0  0  2  0  0  0  0  0  0
  186.2700  177.1140  145.7820 O   0  0  0  0  0  0  0  0  0  0  0  0
  186.2800  178.1810  146.4520 C   0  0  0  0  0  0  0  0  0  0  0  0
  187.4230  178.5450  147.1520 O   0  0  0  0  0  1  0  0  0  0  0  0
  1 39  1  0  0  0  0
  1  8  1  0  0  0  0
  2  5  1  0  0  0  0
  3  9  1  0  0  0  0
  3  2  2  0  0  0  0
  4  6  1  0  0  0  0
  5  8  2  0  0  0  0
  6 13  1  0  0  0  0
  6  2  1  0  0  0  0
  7  4  2  0  0  0  0
  7  3  1  0  0  0  0
  9  1  2  0  0  0  0
 11 13  1  0  0  0  0
 13 10  1  0  0  0  0
 13 12  1  0  0  0  0
 14 15  1  1  0  0  0
 14 16  1  0  0  0  0
 14  9  1  0  0  0  0
 16 21  1  6  0  0  0
 17 16  1  0  0  0  0
 17 18  1  1  0  0  0
 20 19  1  0  0  0  0
 20 17  1  0  0  0  0
 21 22  1  0  0  0  0
 23 22  1  0  0  0  0
 24  4  1  0  0  0  0
 25 26  1  0  0  0  0
 25 30  1  1  0  0  0
 26 24  1  0  0  0  0
 27 29  1  0  0  0  0
 28 25  1  0  0  0  0
 29 36  1  1  0  0  0
 29 26  1  0  0  0  0
 31 27  1  6  0  0  0
 31 28  1  0  0  0  0
 31 29  1  0  0  0  0
 32 35  1  0  0  0  0
 33 38  2  0  0  0  0
 33 36  1  0  0  0  0
 35 34  1  0  0  0  0
 36 32  2  0  0  0  0
 37 35  2  0  0  0  0
 38 37  1  0  0  0  0
 40 42  1  0  0  0  0
 41 39  1  6  0  0  0
 41 40  1  0  0  0  0
 41 42  1  0  0  0  0
 42 43  1  1  0  0  0
 43 44  1  0  0  0  0
 45 46  2  0  0  0  0
 46 44  1  0  0  0  0
 46 47  1  0  0  0  0
M  END
>  <MODEL>
1

>  <REMARK>
 VINA RESULT:      -7.6      0.000      0.000
  Name = 
  14 active torsions:
  status: ('A' for Active; 'I' for Inactive)
    1  A    between atoms: O_2  and  C_43
    2  A    between atoms: C_3  and  O_47
    3  A    between atoms: C_6  and  C_9
    4  A    between atoms: C_6  and  C_46
    5  A    between atoms: C_8  and  C_11
    6  A    between atoms: C_9  and  C_41
    7  A    between atoms: C_9  and  C_43
    8  A    between atoms: C_11  and  N_13
    9  A    between atoms: N_12  and  C_26
   10  A    between atoms: N_17  and  C_29
   11  A    between atoms: C_27  and  O_47
   12  A    between atoms: O_28  and  C_41
   13  A    between atoms: C_29  and  C_40
   14  A    between atoms: C_34  and  C_37
                            x       y       z     vdW  Elec       q    Type
                         _______ _______ _______ _____ _____    ______ ____

>  <TORSDO>
F 14

$$$$
=
 OpenBabel11062417033D

 47 52  0  0  1  0  0  0  0  0999 V2000
  188.2010  177.3770  142.4830 C   0  0  0  0  0  0  0  0  0  0  0  0
  188.7010  177.7420  139.7740 C   0  0  0  0  0  0  0  0  0  0  0  0
  189.4990  176.9130  140.5100 C   0  0  0  0  0  0  0  0  0  0  0  0
  190.2330  176.9570  138.5230 C   0  0  0  0  0  0  0  0  0  0  0  0
  187.6340  178.4350  140.3390 C   0  0  0  0  0  3  0  0  0  0  0  0
  189.1420  177.7700  138.5040 N   0  0  0  0  0  0  0  0  0  0  0  0
  190.4810  176.4090  139.7390 N   0  0  0  0  0  0  0  0  0  0  0  0
  187.3880  178.2420  141.7070 C   0  0  0  0  0  3  0  0  0  0  0  0
  189.2800  176.6920  141.8780 C   0  0  0  0  0  0  0  0  0  0  0  0
  189.1480  179.9150  137.6030 F   0  0  0  0  0  0  0  0  0  0  0  0
  189.1410  178.1540  136.1950 F   0  0  0  0  0  0  0  0  0  0  0  0
  187.2950  178.6530  137.3650 F   0  0  0  0  0  0  0  0  0  0  0  0
  188.6780  178.6300  137.4090 C   0  0  0  0  0  0  0  0  0  0  0  0
  190.1560  175.7770  142.7000 C   0  0  2  0  0  3  0  0  0  0  0  0
  189.3930  174.9090  143.4850 O   0  0  0  0  0  1  0  0  0  0  0  0
  191.2320  176.4820  143.5470 C   0  0  1  0  0  3  0  0  0  0  0  0
  191.5010  177.9200  143.0900 C   0  0  2  0  0  3  0  0  0  0  0  0
  192.4640  177.9230  142.0770 O   0  0  0  0  0  1  0  0  0  0  0  0
  191.1410  179.8150  144.1720 C   0  0  0  0  0  1  0  0  0  0  0  0
  191.9650  178.6890  144.1600 O   0  0  0  0  0  0  0  0  0  0  0  0
  191.0140  176.3580  145.0580 C   0  0  0  0  0  2  0  0  0  0  0  0
  192.0660  175.6670  145.6640 O   0  0  0  0  0  0  0  0  0  0  0  0
  191.9870  176.0210  147.0120 C   0  0  0  0  0  1  0  0  0  0  0  0
  191.1370  176.7420  137.3550 C   0  0  0  0  0  2  0  0  0  0  0  0
  192.6370  175.0830  136.6050 C   0  0  2  0  0  3  0  0  0  0  0  0
  191.2900  175.3130  137.1140 N   0  0  0  0  0  0  0  0  0  0  0  0
  190.5180  175.4790  134.6640 C   0  0  0  0  0  2  0  0  0  0  0  0
  192.5360  174.1950  135.3780 C   0  0  0  0  0  2  0  0  0  0  0  0
  190.3500  174.9080  136.0660 C   0  0  1  0  0  0  0  0  0  0  0  0
  193.4380  174.4240  137.6200 N   0  0  0  0  0  1  0  0  0  0  0  0
  191.0690  174.0980  135.0140 C   0  0  1  0  0  3  0  0  0  0  0  0
  187.8870  175.1740  136.4800 C   0  0  0  0  0  3  0  0  0  0  0  0
  188.9010  173.0070  136.8290 C   0  0  0  0  0  3  0  0  0  0  0  0
  185.4370  175.4850  136.8450 C   0  0  0  0  0  1  0  0  0  0  0  0
  186.6530  174.6310  136.8460 C   0  0  0  0  0  0  0  0  0  0  0  0
  189.0230  174.3560  136.4830 C   0  0  0  0  0  0  0  0  0  0  0  0
  186.5600  173.3190  137.1940 N   0  0  0  0  0  0  0  0  0  0  0  0
  187.6490  172.5030  137.1900 C   0  0  0  0  0  3  0  0  0  0  0  0
  187.9540  177.2010  143.8500 O   0  0  0  0  0  0  0  0  0  0  0  0
  187.8300  177.8760  146.1480 C   0  0  0  0  0  2  0  0  0  0  0  0
  187.5680  178.2640  144.7080 C   0  0  2  0  0  3  0  0  0  0  0  0
  186.4270  177.7960  145.5850 C   0  0  2  0  0  3  0  0  0  0  0  0
  185.6260  179.0040  146.0280 C   0  0  0  0  0  2  0  0  0  0  0  0
  184.2130  178.7760  145.7740 N   0  0  0  0  0  2  0  0  0  0  0  0
  184.3000  179.5590  143.5750 O   0  0  0  0  0  0  0  0  0  0  0  0
  183.6110  179.0830  144.5170 C   0  0  0  0  0  0  0  0  0  0  0  0
  182.2560  178.8500  144.3300 O   0  0  0  0  0  1  0  0  0  0  0  0
  1 39  1  0  0  0  0
  2  5  2  0  0  0  0
  2  3  1  0  0  0  0
  3  9  2  0  0  0  0
  4  7  2  0  0  0  0
  5  8  1  0  0  0  0
  6  4  1  0  0  0  0
  6  2  1  0  0  0  0
  7  3  1  0  0  0  0
  8  1  2  0  0  0  0
  9  1  1  0  0  0  0
  9 14  1  0  0  0  0
 11 13  1  0  0  0  0
 12 13  1  0  0  0  0
 13 10  1  0  0  0  0
 13  6  1  0  0  0  0
 14 15  1  1  0  0  0
 14 16  1  0  0  0  0
 16 21  1  1  0  0  0
 17 18  1  6  0  0  0
 17 16  1  0  0  0  0
 17 20  1  0  0  0  0
 20 19  1  0  0  0  0
 21 22  1  0  0  0  0
 22 23  1  0  0  0  0
 24  4  1  0  0  0  0
 25 26  1  0  0  0  0
 25 30  1  1  0  0  0
 26 24  1  0  0  0  0
 27 29  1  0  0  0  0
 28 25  1  0  0  0  0
 29 36  1  1  0  0  0
 29 26  1  0  0  0  0
 31 27  1  6  0  0  0
 31 28  1  0  0  0  0
 31 29  1  0  0  0  0
 32 36  2  0  0  0  0
 32 35  1  0  0  0  0
 33 38  2  0  0  0  0
 34 35  1  0  0  0  0
 35 37  2  0  0  0  0
 36 33  1  0  0  0  0
 38 37  1  0  0  0  0
 41 39  1  6  0  0  0
 41 42  1  0  0  0  0
 41 40  1  0  0  0  0
 42 43  1  1  0  0  0
 42 40  1  0  0  0  0
 44 43  1  0  0  0  0
 45 46  2  0  0  0  0
 46 44  1  0  0  0  0
 47 46  1  0  0  0  0
M  END
>  <MODEL>
2

>  <REMARK>
 VINA RESULT:      -7.4      2.865      5.710
  Name = 
  14 active torsions:
  status: ('A' for Active; 'I' for Inactive)
    1  A    between atoms: O_2  and  C_43
    2  A    between atoms: C_3  and  O_47
    3  A    between atoms: C_6  and  C_9
    4  A    between atoms: C_6  and  C_46
    5  A    between atoms: C_8  and  C_11
    6  A    between atoms: C_9  and  C_41
    7  A    between atoms: C_9  and  C_43
    8  A    between atoms: C_11  and  N_13
    9  A    between atoms: N_12  and  C_26
   10  A    between atoms: N_17  and  C_29
   11  A    between atoms: C_27  and  O_47
   12  A    between atoms: O_28  and  C_41
   13  A    between atoms: C_29  and  C_40
   14  A    between atoms: C_34  and  C_37
                            x       y       z     vdW  Elec       q    Type
                         _______ _______ _______ _____ _____    ______ ____

>  <TORSDO>
F 14

$$$$
=
 OpenBabel11062417033D

 47 52  0  0  1  0  0  0  0  0999 V2000
  185.9760  178.5990  144.5970 C   0  0  0  0  0  0  0  0  0  0  0  0
  183.5220  178.5880  143.2930 C   0  0  0  0  0  0  0  0  0  0  0  0
  184.6180  178.0430  142.6890 C   0  0  0  0  0  0  0  0  0  0  0  0
  182.9730  177.8810  141.3640 C   0  0  0  0  0  0  0  0  0  0  0  0
  183.5870  179.1730  144.5560 C   0  0  0  0  0  3  0  0  0  0  0  0
  182.4620  178.4800  142.4730 N   0  0  0  0  0  0  0  0  0  0  0  0
  184.2960  177.5930  141.4610 N   0  0  0  0  0  0  0  0  0  0  0  0
  184.8310  179.1710  145.2060 C   0  0  0  0  0  3  0  0  0  0  0  0
  185.8750  178.0180  143.3110 C   0  0  0  0  0  0  0  0  0  0  0  0
  180.1700  178.0790  142.4250 F   0  0  0  0  0  0  0  0  0  0  0  0
  180.9790  179.5430  143.9370 F   0  0  0  0  0  0  0  0  0  0  0  0
  180.9230  180.0990  141.7670 F   0  0  0  0  0  0  0  0  0  0  0  0
  181.1230  179.0540  142.6510 C   0  0  0  0  0  0  0  0  0  0  0  0
  187.0930  177.4170  142.6520 C   0  0  2  0  0  3  0  0  0  0  0  0
  187.5120  176.2590  143.3110 O   0  0  0  0  0  1  0  0  0  0  0  0
  188.2710  178.3840  142.4380 C   0  0  1  0  0  3  0  0  0  0  0  0
  189.6110  177.8010  142.8980 C   0  0  2  0  0  3  0  0  0  0  0  0
  190.4120  178.8150  143.4300 O   0  0  0  0  0  1  0  0  0  0  0  0
  191.6280  177.4930  142.0430 C   0  0  0  0  0  1  0  0  0  0  0  0
  190.2790  177.2120  141.8210 O   0  0  0  0  0  0  0  0  0  0  0  0
  188.3280  178.9950  141.0330 C   0  0  0  0  0  2  0  0  0  0  0  0
  187.6120  178.2200  140.1180 O   0  0  0  0  0  0  0  0  0  0  0  0
  188.4390  178.1540  138.9950 C   0  0  0  0  0  1  0  0  0  0  0  0
  182.1970  177.6330  140.1130 C   0  0  0  0  0  2  0  0  0  0  0  0
  182.1690  179.4660  138.6290 C   0  0  2  0  0  3  0  0  0  0  0  0
  182.8840  178.2450  138.9840 N   0  0  0  0  0  0  0  0  0  0  0  0
  181.4390  177.0280  137.2350 C   0  0  0  0  0  2  0  0  0  0  0  0
  181.9510  179.4690  137.1270 C   0  0  0  0  0  2  0  0  0  0  0  0
  182.8030  177.3400  137.8350 C   0  0  1  0  0  0  0  0  0  0  0  0
  182.9560  180.6230  139.0110 N   0  0  0  0  0  1  0  0  0  0  0  0
  182.3360  178.0960  136.6140 C   0  0  1  0  0  3  0  0  0  0  0  0
  183.7590  175.0210  137.6960 C   0  0  0  0  0  3  0  0  0  0  0  0
  185.1950  176.9040  137.2120 C   0  0  0  0  0  3  0  0  0  0  0  0
  184.6480  172.6940  137.5420 C   0  0  0  0  0  1  0  0  0  0  0  0
  184.8310  174.1650  137.4390 C   0  0  0  0  0  0  0  0  0  0  0  0
  183.9460  176.4040  137.5930 C   0  0  0  0  0  0  0  0  0  0  0  0
  186.0420  174.6740  137.0840 N   0  0  0  0  0  0  0  0  0  0  0  0
  186.2430  176.0140  136.9640 C   0  0  0  0  0  3  0  0  0  0  0  0
  187.2140  178.6120  145.2490 O   0  0  0  0  0  0  0  0  0  0  0  0
  187.9430  178.1200  147.4820 C   0  0  0  0  0  2  0  0  0  0  0  0
  187.6480  177.5640  146.1040 C   0  0  2  0  0  3  0  0  0  0  0  0
  189.0770  177.8320  146.5220 C   0  0  2  0  0  3  0  0  0  0  0  0
  189.7340  176.5150  146.8840 C   0  0  0  0  0  2  0  0  0  0  0  0
  190.8510  176.7550  147.7820 N   0  0  0  0  0  2  0  0  0  0  0  0
  192.2630  175.2250  146.7210 O   0  0  0  0  0  0  0  0  0  0  0  0
  192.0940  176.0660  147.6440 C   0  0  0  0  0  0  0  0  0  0  0  0
  193.1270  176.3300  148.5340 O   0  0  0  0  0  1  0  0  0  0  0  0
  1  8  1  0  0  0  0
  1 39  1  0  0  0  0
  2  5  1  0  0  0  0
  3  2  2  0  0  0  0
  3  9  1  0  0  0  0
  4  7  2  0  0  0  0
  4  6  1  0  0  0  0
  5  8  2  0  0  0  0
  6 13  1  0  0  0  0
  6  2  1  0  0  0  0
  7  3  1  0  0  0  0
  9  1  2  0  0  0  0
 10 13  1  0  0  0  0
 12 13  1  0  0  0  0
 13 11  1  0  0  0  0
 14 15  1  1  0  0  0
 14  9  1  0  0  0  0
 16 21  1  6  0  0  0
 16 14  1  0  0  0  0
 16 17  1  0  0  0  0
 17 18  1  6  0  0  0
 20 19  1  0  0  0  0
 20 17  1  0  0  0  0
 22 21  1  0  0  0  0
 23 22  1  0  0  0  0
 24  4  1  0  0  0  0
 25 26  1  0  0  0  0
 25 30  1  6  0  0  0
 26 24  1  0  0  0  0
 27 29  1  0  0  0  0
 28 25  1  0  0  0  0
 29 36  1  6  0  0  0
 29 26  1  0  0  0  0
 31 28  1  1  0  0  0
 31 27  1  0  0  0  0
 31 29  1  0  0  0  0
 33 36  2  0  0  0  0
 35 34  1  0  0  0  0
 35 32  2  0  0  0  0
 36 32  1  0  0  0  0
 37 35  1  0  0  0  0
 38 37  2  0  0  0  0
 38 33  1  0  0  0  0
 41 39  1  6  0  0  0
 41 42  1  0  0  0  0
 41 40  1  0  0  0  0
 42 43  1  1  0  0  0
 42 40  1  0  0  0  0
 43 44  1  0  0  0  0
 45 46  2  0  0  0  0
 46 44  1  0  0  0  0
 46 47  1  0  0  0  0
M  END
>  <MODEL>
3

>  <REMARK>
 VINA RESULT:      -7.3      3.976      6.882
  Name = 
  14 active torsions:
  status: ('A' for Active; 'I' for Inactive)
    1  A    between atoms: O_2  and  C_43
    2  A    between atoms: C_3  and  O_47
    3  A    between atoms: C_6  and  C_9
    4  A    between atoms: C_6  and  C_46
    5  A    between atoms: C_8  and  C_11
    6  A    between atoms: C_9  and  C_41
    7  A    between atoms: C_9  and  C_43
    8  A    between atoms: C_11  and  N_13
    9  A    between atoms: N_12  and  C_26
   10  A    between atoms: N_17  and  C_29
   11  A    between atoms: C_27  and  O_47
   12  A    between atoms: O_28  and  C_41
   13  A    between atoms: C_29  and  C_40
   14  A    between atoms: C_34  and  C_37
                            x       y       z     vdW  Elec       q    Type
                         _______ _______ _______ _____ _____    ______ ____

>  <TORSDO>
F 14

$$$$
=
 OpenBabel11062417033D

 47 52  0  0  1  0  0  0  0  0999 V2000
  188.3950  178.0750  142.1790 C   0  0  0  0  0  0  0  0  0  0  0  0
  185.7000  178.3380  141.5510 C   0  0  0  0  0  0  0  0  0  0  0  0
  186.6410  178.4020  140.5630 C   0  0  0  0  0  0  0  0  0  0  0  0
  184.7320  178.6930  139.6900 C   0  0  0  0  0  0  0  0  0  0  0  0
  186.0440  178.1550  142.8880 C   0  0  0  0  0  3  0  0  0  0  0  0
  184.4790  178.5040  141.0130 N   0  0  0  0  0  0  0  0  0  0  0  0
  186.0510  178.6330  139.3750 N   0  0  0  0  0  0  0  0  0  0  0  0
  187.4070  178.0210  143.1940 C   0  0  0  0  0  3  0  0  0  0  0  0
  188.0110  178.2670  140.8310 C   0  0  0  0  0  0  0  0  0  0  0  0
  182.4770  179.6810  141.1480 F   0  0  0  0  0  0  0  0  0  0  0  0
  182.4670  177.4780  141.6260 F   0  0  0  0  0  0  0  0  0  0  0  0
  183.4100  178.9250  143.0550 F   0  0  0  0  0  0  0  0  0  0  0  0
  183.1990  178.6490  141.7160 C   0  0  0  0  0  0  0  0  0  0  0  0
  189.0590  178.3360  139.7460 C   0  0  2  0  0  3  0  0  0  0  0  0
  188.7240  179.2790  138.7710 O   0  0  0  0  0  1  0  0  0  0  0  0
  189.4290  176.9870  139.1020 C   0  0  1  0  0  3  0  0  0  0  0  0
  188.8600  176.8270  137.6880 C   0  0  2  0  0  3  0  0  0  0  0  0
  187.9120  175.8000  137.6720 O   0  0  0  0  0  1  0  0  0  0  0  0
  189.5580  177.2190  135.6260 C   0  0  0  0  0  1  0  0  0  0  0  0
  189.8810  176.5160  136.7870 O   0  0  0  0  0  0  0  0  0  0  0  0
  190.9190  176.6400  139.1980 C   0  0  0  0  0  2  0  0  0  0  0  0
  191.5840  177.5130  140.0610 O   0  0  0  0  0  0  0  0  0  0  0  0
  192.9360  177.2090  139.8910 C   0  0  0  0  0  1  0  0  0  0  0  0
  183.6880  179.0240  138.6760 C   0  0  0  0  0  2  0  0  0  0  0  0
  183.7300  177.4890  136.8860 C   0  0  2  0  0  3  0  0  0  0  0  0
  183.0990  177.7940  138.1650 N   0  0  0  0  0  0  0  0  0  0  0  0
  181.2710  179.0280  136.8380 C   0  0  0  0  0  2  0  0  0  0  0  0
  182.6370  177.1720  135.8800 C   0  0  0  0  0  2  0  0  0  0  0  0
  181.6750  178.0230  137.9080 C   0  0  1  0  0  0  0  0  0  0  0  0
  184.6070  176.3430  137.0320 N   0  0  0  0  0  1  0  0  0  0  0  0
  181.3150  177.5350  136.5250 C   0  0  1  0  0  3  0  0  0  0  0  0
  180.5570  176.3170  139.3750 C   0  0  0  0  0  3  0  0  0  0  0  0
  179.9500  178.6440  139.6210 C   0  0  0  0  0  3  0  0  0  0  0  0
  179.5020  174.5850  140.8290 C   0  0  0  0  0  1  0  0  0  0  0  0
  179.6580  175.9970  140.3940 C   0  0  0  0  0  0  0  0  0  0  0  0
  180.6960  177.6520  138.9770 C   0  0  0  0  0  0  0  0  0  0  0  0
  178.9310  176.9770  140.9960 N   0  0  0  0  0  0  0  0  0  0  0  0
  179.0600  178.2820  140.6350 C   0  0  0  0  0  3  0  0  0  0  0  0
  189.7530  177.9520  142.4960 O   0  0  0  0  0  0  0  0  0  0  0  0
  191.6770  177.6780  143.9030 C   0  0  0  0  0  2  0  0  0  0  0  0
  190.2720  178.2330  143.7870 C   0  0  2  0  0  3  0  0  0  0  0  0
  190.5120  176.9270  144.5140 C   0  0  2  0  0  3  0  0  0  0  0  0
  190.4630  177.1840  146.0070 C   0  0  0  0  0  2  0  0  0  0  0  0
  191.7850  176.9980  146.5800 N   0  0  0  0  0  2  0  0  0  0  0  0
  191.2290  175.0060  147.6650 O   0  0  0  0  0  0  0  0  0  0  0  0
  192.0990  175.8800  147.4110 C   0  0  0  0  0  0  0  0  0  0  0  0
  193.3780  175.7540  147.9370 O   0  0  0  0  0  1  0  0  0  0  0  0
  1 39  1  0  0  0  0
  1  8  1  0  0  0  0
  2  5  1  0  0  0  0
  3  9  1  0  0  0  0
  3  2  2  0  0  0  0
  4  6  1  0  0  0  0
  5  8  2  0  0  0  0
  6  2  1  0  0  0  0
  6 13  1  0  0  0  0
  7  4  2  0  0  0  0
  7  3  1  0  0  0  0
  9  1  2  0  0  0  0
 10 13  1  0  0  0  0
 11 13  1  0  0  0  0
 13 12  1  0  0  0  0
 14 15  1  6  0  0  0
 14  9  1  0  0  0  0
 16 21  1  6  0  0  0
 16 14  1  0  0  0  0
 17 18  1  1  0  0  0
 17 16  1  0  0  0  0
 19 20  1  0  0  0  0
 20 17  1  0  0  0  0
 21 22  1  0  0  0  0
 23 22  1  0  0  0  0
 24  4  1  0  0  0  0
 25 30  1  1  0  0  0
 25 26  1  0  0  0  0
 26 24  1  0  0  0  0
 27 29  1  0  0  0  0
 28 25  1  0  0  0  0
 29 26  1  0  0  0  0
 29 36  1  1  0  0  0
 31 28  1  6  0  0  0
 31 27  1  0  0  0  0
 31 29  1  0  0  0  0
 32 35  1  0  0  0  0
 33 38  2  0  0  0  0
 35 34  1  0  0  0  0
 35 37  2  0  0  0  0
 36 32  2  0  0  0  0
 36 33  1  0  0  0  0
 38 37  1  0  0  0  0
 40 42  1  0  0  0  0
 41 39  1  6  0  0  0
 41 40  1  0  0  0  0
 41 42  1  0  0  0  0
 42 43  1  1  0  0  0
 43 44  1  0  0  0  0
 44 46  1  0  0  0  0
 46 45  2  0  0  0  0
 46 47  1  0  0  0  0
M  END
>  <MODEL>
4

>  <REMARK>
 VINA RESULT:      -7.1      4.023      6.962
  Name = 
  14 active torsions:
  status: ('A' for Active; 'I' for Inactive)
    1  A    between atoms: O_2  and  C_43
    2  A    between atoms: C_3  and  O_47
    3  A    between atoms: C_6  and  C_9
    4  A    between atoms: C_6  and  C_46
    5  A    between atoms: C_8  and  C_11
    6  A    between atoms: C_9  and  C_41
    7  A    between atoms: C_9  and  C_43
    8  A    between atoms: C_11  and  N_13
    9  A    between atoms: N_12  and  C_26
   10  A    between atoms: N_17  and  C_29
   11  A    between atoms: C_27  and  O_47
   12  A    between atoms: O_28  and  C_41
   13  A    between atoms: C_29  and  C_40
   14  A    between atoms: C_34  and  C_37
                            x       y       z     vdW  Elec       q    Type
                         _______ _______ _______ _____ _____    ______ ____

>  <TORSDO>
F 14

$$$$
=
 OpenBabel11062417033D

 47 52  0  0  1  0  0  0  0  0999 V2000
  186.4300  178.0830  142.7350 C   0  0  0  0  0  0  0  0  0  0  0  0
  188.5910  177.6950  141.0320 C   0  0  0  0  0  0  0  0  0  0  0  0
  187.4650  178.3170  140.5750 C   0  0  0  0  0  0  0  0  0  0  0  0
  188.8470  178.1730  138.9750 C   0  0  0  0  0  0  0  0  0  0  0  0
  188.6980  177.2270  142.3400 C   0  0  0  0  0  3  0  0  0  0  0  0
  189.4880  177.6090  140.0340 N   0  0  0  0  0  0  0  0  0  0  0  0
  187.6010  178.6230  139.2710 N   0  0  0  0  0  0  0  0  0  0  0  0
  187.6020  177.4300  143.1920 C   0  0  0  0  0  3  0  0  0  0  0  0
  186.3520  178.5420  141.4000 C   0  0  0  0  0  0  0  0  0  0  0  0
  191.6920  177.6040  139.2890 F   0  0  0  0  0  0  0  0  0  0  0  0
  191.2410  176.7570  141.3290 F   0  0  0  0  0  0  0  0  0  0  0  0
  190.6210  175.6310  139.4920 F   0  0  0  0  0  0  0  0  0  0  0  0
  190.7700  176.8950  140.0350 C   0  0  0  0  0  0  0  0  0  0  0  0
  185.1030  179.2290  140.9040 C   0  0  2  0  0  3  0  0  0  0  0  0
  184.3540  179.7530  141.9600 O   0  0  0  0  0  1  0  0  0  0  0  0
  184.2170  178.3880  139.9660 C   0  0  1  0  0  3  0  0  0  0  0  0
  183.1490  177.5860  140.7170 C   0  0  2  0  0  3  0  0  0  0  0  0
  182.8350  176.4280  140.0000 O   0  0  0  0  0  1  0  0  0  0  0  0
  180.9450  177.4830  140.5580 C   0  0  0  0  0  1  0  0  0  0  0  0
  181.9910  178.3510  140.8750 O   0  0  0  0  0  0  0  0  0  0  0  0
  183.6590  179.1690  138.7710 C   0  0  0  0  0  2  0  0  0  0  0  0
  183.6670  180.5430  139.0190 O   0  0  0  0  0  0  0  0  0  0  0  0
  182.3710  180.9610  138.7160 C   0  0  0  0  0  1  0  0  0  0  0  0
  189.4010  178.2240  137.5900 C   0  0  0  0  0  2  0  0  0  0  0  0
  190.6660  176.6910  136.3200 C   0  0  2  0  0  3  0  0  0  0  0  0
  189.3990  176.8860  137.0150 N   0  0  0  0  0  0  0  0  0  0  0  0
  188.4210  177.6770  134.7690 C   0  0  0  0  0  2  0  0  0  0  0  0
  190.3700  176.1270  134.9420 C   0  0  0  0  0  2  0  0  0  0  0  0
  188.3330  176.8050  136.0140 C   0  0  1  0  0  0  0  0  0  0  0  0
  191.4930  175.7580  137.0620 N   0  0  0  0  0  1  0  0  0  0  0  0
  188.8730  176.2190  134.7310 C   0  0  1  0  0  3  0  0  0  0  0  0
  186.8750  174.9150  136.7970 C   0  0  0  0  0  3  0  0  0  0  0  0
  185.8950  177.1090  136.5300 C   0  0  0  0  0  3  0  0  0  0  0  0
  185.4790  173.0090  137.6030 C   0  0  0  0  0  1  0  0  0  0  0  0
  185.6320  174.4360  137.2170 C   0  0  0  0  0  0  0  0  0  0  0  0
  187.0040  176.2620  136.4390 C   0  0  0  0  0  0  0  0  0  0  0  0
  184.5630  175.2750  137.2840 N   0  0  0  0  0  0  0  0  0  0  0  0
  184.6700  176.5900  136.9540 C   0  0  0  0  0  3  0  0  0  0  0  0
  185.3370  178.2710  143.5910 O   0  0  0  0  0  0  0  0  0  0  0  0
  184.2660  178.6210  145.7080 C   0  0  0  0  0  2  0  0  0  0  0  0
  185.3490  177.8770  144.9550 C   0  0  2  0  0  3  0  0  0  0  0  0
  185.7060  179.0750  145.8080 C   0  0  2  0  0  3  0  0  0  0  0  0
  186.3110  178.5850  147.1080 C   0  0  0  0  0  2  0  0  0  0  0  0
  187.4250  177.6950  146.8260 N   0  0  0  0  0  2  0  0  0  0  0  0
  188.5920  178.2500  148.7720 O   0  0  0  0  0  1  0  0  0  0  0  0
  188.5430  177.5810  147.7050 C   0  0  0  0  0  0  0  0  0  0  0  0
  189.5830  176.7190  147.3840 O   0  0  0  0  0  0  0  0  0  0  0  0
  1  8  1  0  0  0  0
  1 39  1  0  0  0  0
  2  5  1  0  0  0  0
  3  2  2  0  0  0  0
  3  9  1  0  0  0  0
  4  7  2  0  0  0  0
  4  6  1  0  0  0  0
  5  8  2  0  0  0  0
  6 13  1  0  0  0  0
  6  2  1  0  0  0  0
  7  3  1  0  0  0  0
  9  1  2  0  0  0  0
 10 13  1  0  0  0  0
 12 13  1  0  0  0  0
 13 11  1  0  0  0  0
 14  9  1  0  0  0  0
 14 15  1  1  0  0  0
 16 21  1  6  0  0  0
 16 17  1  0  0  0  0
 16 14  1  0  0  0  0
 17 18  1  6  0  0  0
 17 20  1  0  0  0  0
 19 20  1  0  0  0  0
 21 22  1  0  0  0  0
 23 22  1  0  0  0  0
 24  4  1  0  0  0  0
 25 26  1  0  0  0  0
 25 30  1  1  0  0  0
 26 24  1  0  0  0  0
 27 29  1  0  0  0  0
 28 25  1  0  0  0  0
 29 36  1  1  0  0  0
 29 26  1  0  0  0  0
 31 27  1  6  0  0  0
 31 28  1  0  0  0  0
 31 29  1  0  0  0  0
 32 35  1  0  0  0  0
 33 38  2  0  0  0  0
 35 37  2  0  0  0  0
 35 34  1  0  0  0  0
 36 33  1  0  0  0  0
 36 32  2  0  0  0  0
 38 37  1  0  0  0  0
 40 42  1  0  0  0  0
 41 39  1  6  0  0  0
 41 40  1  0  0  0  0
 41 42  1  0  0  0  0
 42 43  1  1  0  0  0
 44 43  1  0  0  0  0
 44 46  1  0  0  0  0
 46 45  1  0  0  0  0
 47 46  2  0  0  0  0
M  END
>  <MODEL>
5

>  <REMARK>
 VINA RESULT:      -6.9      1.411      2.147
  Name = 
  14 active torsions:
  status: ('A' for Active; 'I' for Inactive)
    1  A    between atoms: O_2  and  C_43
    2  A    between atoms: C_3  and  O_47
    3  A    between atoms: C_6  and  C_9
    4  A    between atoms: C_6  and  C_46
    5  A    between atoms: C_8  and  C_11
    6  A    between atoms: C_9  and  C_41
    7  A    between atoms: C_9  and  C_43
    8  A    between atoms: C_11  and  N_13
    9  A    between atoms: N_12  and  C_26
   10  A    between atoms: N_17  and  C_29
   11  A    between atoms: C_27  and  O_47
   12  A    between atoms: O_28  and  C_41
   13  A    between atoms: C_29  and  C_40
   14  A    between atoms: C_34  and  C_37
                            x       y       z     vdW  Elec       q    Type
                         _______ _______ _______ _____ _____    ______ ____

>  <TORSDO>
F 14

$$$$
=
 OpenBabel11062417033D

 47 52  0  0  1  0  0  0  0  0999 V2000
  189.8230  176.1120  138.7150 C   0  0  0  0  0  0  0  0  0  0  0  0
  187.5430  177.6710  139.0250 C   0  0  0  0  0  0  0  0  0  0  0  0
  188.3790  177.4650  140.0850 C   0  0  0  0  0  0  0  0  0  0  0  0
  186.7500  178.6530  140.7380 C   0  0  0  0  0  0  0  0  0  0  0  0
  187.7840  177.1100  137.7740 C   0  0  0  0  0  3  0  0  0  0  0  0
  186.5100  178.4380  139.4170 N   0  0  0  0  0  0  0  0  0  0  0  0
  187.8930  178.0720  141.1840 N   0  0  0  0  0  0  0  0  0  0  0  0
  188.9400  176.3260  137.6270 C   0  0  0  0  0  3  0  0  0  0  0  0
  189.5450  176.6920  139.9750 C   0  0  0  0  0  0  0  0  0  0  0  0
  185.6770  179.2360  137.3960 F   0  0  0  0  0  0  0  0  0  0  0  0
  184.4860  177.6840  138.5170 F   0  0  0  0  0  0  0  0  0  0  0  0
  184.5960  179.7830  139.2970 F   0  0  0  0  0  0  0  0  0  0  0  0
  185.3090  178.7880  138.6500 C   0  0  0  0  0  0  0  0  0  0  0  0
  190.4750  176.4590  141.1400 C   0  0  2  0  0  3  0  0  0  0  0  0
  189.8530  175.7240  142.1520 O   0  0  0  0  0  1  0  0  0  0  0  0
  191.1450  177.7220  141.7100 C   0  0  1  0  0  3  0  0  0  0  0  0
  190.8990  177.9000  143.2120 C   0  0  2  0  0  3  0  0  0  0  0  0
  190.5380  179.2230  143.4810 O   0  0  0  0  0  1  0  0  0  0  0  0
  191.6010  177.2710  145.2140 C   0  0  0  0  0  1  0  0  0  0  0  0
  192.0550  177.5890  143.9330 O   0  0  0  0  0  0  0  0  0  0  0  0
  192.6180  177.8780  141.3160 C   0  0  0  0  0  2  0  0  0  0  0  0
  192.8260  177.5020  139.9870 O   0  0  0  0  0  0  0  0  0  0  0  0
  194.0620  176.8540  139.9960 C   0  0  0  0  0  1  0  0  0  0  0  0
  185.8190  179.3780  141.6520 C   0  0  0  0  0  2  0  0  0  0  0  0
  183.6840  178.4680  142.0740 C   0  0  2  0  0  3  0  0  0  0  0  0
  185.0880  178.4160  142.4660 N   0  0  0  0  0  0  0  0  0  0  0  0
  184.5240  180.1420  144.2890 C   0  0  0  0  0  2  0  0  0  0  0  0
  182.8430  178.5630  143.3340 C   0  0  0  0  0  2  0  0  0  0  0  0
  185.1680  178.8280  143.8690 C   0  0  1  0  0  0  0  0  0  0  0  0
  183.3350  177.2640  141.3430 N   0  0  0  0  0  1  0  0  0  0  0  0
  183.7910  178.8180  144.4880 C   0  0  1  0  0  3  0  0  0  0  0  0
  186.3120  178.5330  146.0860 C   0  0  0  0  0  3  0  0  0  0  0  0
  187.1520  177.3220  144.1700 C   0  0  0  0  0  3  0  0  0  0  0  0
  187.3910  178.2520  148.3180 C   0  0  0  0  0  1  0  0  0  0  0  0
  187.3060  177.9410  146.8680 C   0  0  0  0  0  0  0  0  0  0  0  0
  186.2420  178.2290  144.7210 C   0  0  0  0  0  0  0  0  0  0  0  0
  188.1900  177.0730  146.3070 N   0  0  0  0  0  0  0  0  0  0  0  0
  188.1320  176.7520  144.9860 C   0  0  0  0  0  3  0  0  0  0  0  0
  190.9660  175.3190  138.5610 O   0  0  0  0  0  0  0  0  0  0  0  0
  191.6180  173.7680  136.8500 C   0  0  0  0  0  2  0  0  0  0  0  0
  191.6650  175.2040  137.3300 C   0  0  2  0  0  3  0  0  0  0  0  0
  192.8620  174.2990  137.5290 C   0  0  2  0  0  3  0  0  0  0  0  0
  193.9090  174.6400  136.4880 C   0  0  0  0  0  2  0  0  0  0  0  0
  195.0590  175.2540  137.1320 N   0  0  0  0  0  2  0  0  0  0  0  0
  196.5040  173.4870  136.6340 O   0  0  0  0  0  0  0  0  0  0  0  0
  196.3340  174.6140  137.1720 C   0  0  0  0  0  0  0  0  0  0  0  0
  197.3980  175.2430  137.8050 O   0  0  0  0  0  1  0  0  0  0  0  0
  1  9  1  0  0  0  0
  2  6  1  0  0  0  0
  2  3  1  0  0  0  0
  3  7  1  0  0  0  0
  4  7  2  0  0  0  0
  4 24  1  0  0  0  0
  5  2  2  0  0  0  0
  6  4  1  0  0  0  0
  8  5  1  0  0  0  0
  8  1  2  0  0  0  0
  9  3  2  0  0  0  0
  9 14  1  0  0  0  0
 10 13  1  0  0  0  0
 11 13  1  0  0  0  0
 13 12  1  0  0  0  0
 13  6  1  0  0  0  0
 14 16  1  0  0  0  0
 14 15  1  1  0  0  0
 16 21  1  1  0  0  0
 16 17  1  0  0  0  0
 17 18  1  6  0  0  0
 17 20  1  0  0  0  0
 20 19  1  0  0  0  0
 22 23  1  0  0  0  0
 22 21  1  0  0  0  0
 24 26  1  0  0  0  0
 25 30  1  1  0  0  0
 25 26  1  0  0  0  0
 25 28  1  0  0  0  0
 26 29  1  0  0  0  0
 27 31  1  0  0  0  0
 29 27  1  0  0  0  0
 29 31  1  0  0  0  0
 29 36  1  1  0  0  0
 31 28  1  6  0  0  0
 32 35  1  0  0  0  0
 33 36  1  0  0  0  0
 33 38  2  0  0  0  0
 35 34  1  0  0  0  0
 36 32  2  0  0  0  0
 37 35  2  0  0  0  0
 38 37  1  0  0  0  0
 39  1  1  0  0  0  0
 40 41  1  0  0  0  0
 40 42  1  0  0  0  0
 41 42  1  0  0  0  0
 41 39  1  1  0  0  0
 42 43  1  6  0  0  0
 43 44  1  0  0  0  0
 44 46  1  0  0  0  0
 45 46  2  0  0  0  0
 46 47  1  0  0  0  0
M  END
>  <MODEL>
6

>  <REMARK>
 VINA RESULT:      -6.8      4.550      9.605
  Name = 
  14 active torsions:
  status: ('A' for Active; 'I' for Inactive)
    1  A    between atoms: O_2  and  C_43
    2  A    between atoms: C_3  and  O_47
    3  A    between atoms: C_6  and  C_9
    4  A    between atoms: C_6  and  C_46
    5  A    between atoms: C_8  and  C_11
    6  A    between atoms: C_9  and  C_41
    7  A    between atoms: C_9  and  C_43
    8  A    between atoms: C_11  and  N_13
    9  A    between atoms: N_12  and  C_26
   10  A    between atoms: N_17  and  C_29
   11  A    between atoms: C_27  and  O_47
   12  A    between atoms: O_28  and  C_41
   13  A    between atoms: C_29  and  C_40
   14  A    between atoms: C_34  and  C_37
                            x       y       z     vdW  Elec       q    Type
                         _______ _______ _______ _____ _____    ______ ____

>  <TORSDO>
F 14

$$$$
=
 OpenBabel11062417033D

 47 52  0  0  1  0  0  0  0  0999 V2000
  186.0530  178.6690  141.4070 C   0  0  0  0  0  0  0  0  0  0  0  0
  187.0270  178.2240  138.8430 C   0  0  0  0  0  0  0  0  0  0  0  0
  187.8710  178.1600  139.9150 C   0  0  0  0  0  0  0  0  0  0  0  0
  188.9970  177.8130  138.1540 C   0  0  0  0  0  0  0  0  0  0  0  0
  185.6740  178.5210  138.9840 C   0  0  0  0  0  3  0  0  0  0  0  0
  187.7220  177.9890  137.7160 N   0  0  0  0  0  0  0  0  0  0  0  0
  189.1270  177.9070  139.5020 N   0  0  0  0  0  0  0  0  0  0  0  0
  185.1910  178.7420  140.2840 C   0  0  0  0  0  3  0  0  0  0  0  0
  187.4230  178.3700  141.2280 C   0  0  0  0  0  0  0  0  0  0  0  0
  187.1680  179.4330  135.9770 F   0  0  0  0  0  0  0  0  0  0  0  0
  188.1270  177.4550  135.4740 F   0  0  0  0  0  0  0  0  0  0  0  0
  186.0060  177.5140  136.1940 F   0  0  0  0  0  0  0  0  0  0  0  0
  187.2520  178.0990  136.3300 C   0  0  0  0  0  0  0  0  0  0  0  0
  188.3480  178.3010  142.4190 C   0  0  2  0  0  3  0  0  0  0  0  0
  189.5990  178.8500  142.1280 O   0  0  0  0  0  1  0  0  0  0  0  0
  188.4950  176.9080  143.0580 C   0  0  1  0  0  3  0  0  0  0  0  0
  189.9570  176.5080  143.2840 C   0  0  2  0  0  3  0  0  0  0  0  0
  190.1630  175.1960  142.8500 O   0  0  0  0  0  1  0  0  0  0  0  0
  191.4920  177.2790  144.6780 C   0  0  0  0  0  1  0  0  0  0  0  0
  190.2780  176.5930  144.6420 O   0  0  0  0  0  0  0  0  0  0  0  0
  187.6110  176.6930  144.2920 C   0  0  0  0  0  2  0  0  0  0  0  0
  187.4630  177.8770  145.0180 O   0  0  0  0  0  0  0  0  0  0  0  0
  186.6640  177.5220  146.1050 C   0  0  0  0  0  1  0  0  0  0  0  0
  190.1730  177.6220  137.2540 C   0  0  0  0  0  2  0  0  0  0  0  0
  192.2610  176.7450  137.9150 C   0  0  2  0  0  3  0  0  0  0  0  0
  190.8740  176.3990  137.6230 N   0  0  0  0  0  0  0  0  0  0  0  0
  191.6260  175.9100  135.2100 C   0  0  0  0  0  2  0  0  0  0  0  0
  193.1590  175.7710  137.1750 C   0  0  0  0  0  2  0  0  0  0  0  0
  190.8810  175.4940  136.4710 C   0  0  1  0  0  0  0  0  0  0  0  0
  192.5000  176.6420  139.3430 N   0  0  0  0  0  1  0  0  0  0  0  0
  192.2800  174.9790  136.2280 C   0  0  1  0  0  3  0  0  0  0  0  0
  188.5180  174.7310  136.8520 C   0  0  0  0  0  3  0  0  0  0  0  0
  190.0740  173.2190  135.7860 C   0  0  0  0  0  3  0  0  0  0  0  0
  186.1500  174.0360  137.2250 C   0  0  0  0  0  1  0  0  0  0  0  0
  187.5250  173.7570  136.7340 C   0  0  0  0  0  0  0  0  0  0  0  0
  189.8080  174.4550  136.3830 C   0  0  0  0  0  0  0  0  0  0  0  0
  187.8110  172.5550  136.1640 N   0  0  0  0  0  0  0  0  0  0  0  0
  189.0530  172.2710  135.6890 C   0  0  0  0  0  3  0  0  0  0  0  0
  185.5640  178.9020  142.6980 O   0  0  0  0  0  0  0  0  0  0  0  0
  184.2120  180.0130  144.3400 C   0  0  0  0  0  2  0  0  0  0  0  0
  184.2620  179.4120  142.9500 C   0  0  2  0  0  3  0  0  0  0  0  0
  183.6430  178.6320  144.0890 C   0  0  2  0  0  3  0  0  0  0  0  0
  182.1340  178.7130  143.9710 C   0  0  0  0  0  2  0  0  0  0  0  0
  181.7600  178.8680  142.5750 N   0  0  0  0  0  2  0  0  0  0  0  0
  180.0900  180.4420  143.0130 O   0  0  0  0  0  1  0  0  0  0  0  0
  180.7170  179.7530  142.1650 C   0  0  0  0  0  0  0  0  0  0  0  0
  180.3970  179.8590  140.8180 O   0  0  0  0  0  0  0  0  0  0  0  0
  1 39  1  0  0  0  0
  2  5  2  0  0  0  0
  2  3  1  0  0  0  0
  3  9  2  0  0  0  0
  4  7  2  0  0  0  0
  5  8  1  0  0  0  0
  6  4  1  0  0  0  0
  6  2  1  0  0  0  0
  7  3  1  0  0  0  0
  8  1  2  0  0  0  0
  9  1  1  0  0  0  0
  9 14  1  0  0  0  0
 10 13  1  0  0  0  0
 11 13  1  0  0  0  0
 12 13  1  0  0  0  0
 13  6  1  0  0  0  0
 14 15  1  6  0  0  0
 14 16  1  0  0  0  0
 16 17  1  0  0  0  0
 16 21  1  1  0  0  0
 17 18  1  1  0  0  0
 17 20  1  0  0  0  0
 20 19  1  0  0  0  0
 21 22  1  0  0  0  0
 22 23  1  0  0  0  0
 24 26  1  0  0  0  0
 24  4  1  0  0  0  0
 25 30  1  1  0  0  0
 26 25  1  0  0  0  0
 27 29  1  0  0  0  0
 28 25  1  0  0  0  0
 29 36  1  6  0  0  0
 29 26  1  0  0  0  0
 31 27  1  6  0  0  0
 31 29  1  0  0  0  0
 31 28  1  0  0  0  0
 33 36  1  0  0  0  0
 35 32  1  0  0  0  0
 35 34  1  0  0  0  0
 36 32  2  0  0  0  0
 37 35  2  0  0  0  0
 38 33  2  0  0  0  0
 38 37  1  0  0  0  0
 41 39  1  1  0  0  0
 41 42  1  0  0  0  0
 41 40  1  0  0  0  0
 42 43  1  6  0  0  0
 42 40  1  0  0  0  0
 44 43  1  0  0  0  0
 46 44  1  0  0  0  0
 46 45  1  0  0  0  0
 47 46  2  0  0  0  0
M  END
>  <MODEL>
7

>  <REMARK>
 VINA RESULT:      -6.6      2.679      5.343
  Name = 
  14 active torsions:
  status: ('A' for Active; 'I' for Inactive)
    1  A    between atoms: O_2  and  C_43
    2  A    between atoms: C_3  and  O_47
    3  A    between atoms: C_6  and  C_9
    4  A    between atoms: C_6  and  C_46
    5  A    between atoms: C_8  and  C_11
    6  A    between atoms: C_9  and  C_41
    7  A    between atoms: C_9  and  C_43
    8  A    between atoms: C_11  and  N_13
    9  A    between atoms: N_12  and  C_26
   10  A    between atoms: N_17  and  C_29
   11  A    between atoms: C_27  and  O_47
   12  A    between atoms: O_28  and  C_41
   13  A    between atoms: C_29  and  C_40
   14  A    between atoms: C_34  and  C_37
                            x       y       z     vdW  Elec       q    Type
                         _______ _______ _______ _____ _____    ______ ____

>  <TORSDO>
F 14

$$$$
=
 OpenBabel11062417033D

 47 52  0  0  1  0  0  0  0  0999 V2000
  181.0870  179.1810  141.4230 C   0  0  0  0  0  0  0  0  0  0  0  0
  183.2130  178.8690  143.1850 C   0  0  0  0  0  0  0  0  0  0  0  0
  183.2380  178.2490  141.9680 C   0  0  0  0  0  0  0  0  0  0  0  0
  185.0000  177.7260  143.0220 C   0  0  0  0  0  0  0  0  0  0  0  0
  182.1390  179.6560  143.5920 C   0  0  0  0  0  3  0  0  0  0  0  0
  184.3330  178.5620  143.8620 N   0  0  0  0  0  0  0  0  0  0  0  0
  184.3590  177.5130  141.8450 N   0  0  0  0  0  0  0  0  0  0  0  0
  181.0710  179.8090  142.6930 C   0  0  0  0  0  3  0  0  0  0  0  0
  182.1910  178.3830  141.0430 C   0  0  0  0  0  0  0  0  0  0  0  0
  185.6010  179.8990  145.2830 F   0  0  0  0  0  0  0  0  0  0  0  0
  183.5250  179.3030  145.9300 F   0  0  0  0  0  0  0  0  0  0  0  0
  185.1670  177.7770  145.9060 F   0  0  0  0  0  0  0  0  0  0  0  0
  184.6600  178.8880  145.2550 C   0  0  0  0  0  0  0  0  0  0  0  0
  182.2100  177.7030  139.6960 C   0  0  2  0  0  3  0  0  0  0  0  0
  182.7170  176.4040  139.7850 O   0  0  0  0  0  1  0  0  0  0  0  0
  182.9080  178.4890  138.5710 C   0  0  1  0  0  3  0  0  0  0  0  0
  184.3790  178.7880  138.8780 C   0  0  2  0  0  3  0  0  0  0  0  0
  184.5490  180.1570  139.0980 O   0  0  0  0  0  1  0  0  0  0  0  0
  186.3100  177.8180  138.4020 C   0  0  0  0  0  1  0  0  0  0  0  0
  185.1870  178.3950  137.8080 O   0  0  0  0  0  0  0  0  0  0  0  0
  182.6890  177.9020  137.1730 C   0  0  0  0  0  2  0  0  0  0  0  0
  181.4380  178.2600  136.6660 O   0  0  0  0  0  0  0  0  0  0  0  0
  181.6400  178.3840  135.2900 C   0  0  0  0  0  1  0  0  0  0  0  0
  186.2730  177.0280  143.3700 C   0  0  0  0  0  2  0  0  0  0  0  0
  187.4700  178.3780  141.8510 C   0  0  2  0  0  3  0  0  0  0  0  0
  187.3880  177.9560  143.2450 N   0  0  0  0  0  0  0  0  0  0  0  0
  189.0780  176.1040  142.6640 C   0  0  0  0  0  2  0  0  0  0  0  0
  188.9140  178.2500  141.4000 C   0  0  0  0  0  2  0  0  0  0  0  0
  188.6300  177.2480  143.5630 C   0  0  1  0  0  0  0  0  0  0  0  0
  187.0410  179.7590  141.7300 N   0  0  0  0  0  1  0  0  0  0  0  0
  189.6590  177.5040  142.4880 C   0  0  1  0  0  3  0  0  0  0  0  0
  188.2920  177.6560  146.0180 C   0  0  0  0  0  3  0  0  0  0  0  0
  190.4930  177.0400  145.2310 C   0  0  0  0  0  3  0  0  0  0  0  0
  187.8940  178.0400  148.4520 C   0  0  0  0  0  1  0  0  0  0  0  0
  188.7950  177.7020  147.3200 C   0  0  0  0  0  0  0  0  0  0  0  0
  189.1520  177.3330  144.9630 C   0  0  0  0  0  0  0  0  0  0  0  0
  190.1070  177.4280  147.5560 N   0  0  0  0  0  0  0  0  0  0  0  0
  190.9570  177.0990  146.5470 C   0  0  0  0  0  3  0  0  0  0  0  0
  180.0120  179.3310  140.5390 O   0  0  0  0  0  0  0  0  0  0  0  0
  179.0130  180.3940  138.6340 C   0  0  0  0  0  2  0  0  0  0  0  0
  179.6180  180.5880  140.0090 C   0  0  2  0  0  3  0  0  0  0  0  0
  180.4410  180.8780  138.7720 C   0  0  2  0  0  3  0  0  0  0  0  0
  180.4960  182.3780  138.5640 C   0  0  0  0  0  2  0  0  0  0  0  0
  180.5760  182.6730  137.1440 N   0  0  0  0  0  2  0  0  0  0  0  0
  181.6120  184.7440  137.4500 O   0  0  0  0  0  1  0  0  0  0  0  0
  181.1460  183.8870  136.6540 C   0  0  0  0  0  0  0  0  0  0  0  0
  181.1910  184.1200  135.2860 O   0  0  0  0  0  0  0  0  0  0  0  0
  1  8  1  0  0  0  0
  2  5  1  0  0  0  0
  2  6  1  0  0  0  0
  3  2  2  0  0  0  0
  4 24  1  0  0  0  0
  4  6  1  0  0  0  0
  6 13  1  0  0  0  0
  7  3  1  0  0  0  0
  7  4  2  0  0  0  0
  8  5  2  0  0  0  0
  9  1  2  0  0  0  0
  9  3  1  0  0  0  0
 13 10  1  0  0  0  0
 13 12  1  0  0  0  0
 13 11  1  0  0  0  0
 14 15  1  1  0  0  0
 14  9  1  0  0  0  0
 16 21  1  6  0  0  0
 16 17  1  0  0  0  0
 16 14  1  0  0  0  0
 17 18  1  6  0  0  0
 20 19  1  0  0  0  0
 20 17  1  0  0  0  0
 22 21  1  0  0  0  0
 23 22  1  0  0  0  0
 25 30  1  1  0  0  0
 25 26  1  0  0  0  0
 26 24  1  0  0  0  0
 26 29  1  0  0  0  0
 27 29  1  0  0  0  0
 28 25  1  0  0  0  0
 29 36  1  1  0  0  0
 31 28  1  6  0  0  0
 31 27  1  0  0  0  0
 31 29  1  0  0  0  0
 32 35  1  0  0  0  0
 33 38  2  0  0  0  0
 35 37  2  0  0  0  0
 35 34  1  0  0  0  0
 36 33  1  0  0  0  0
 36 32  2  0  0  0  0
 38 37  1  0  0  0  0
 39  1  1  0  0  0  0
 40 42  1  0  0  0  0
 40 41  1  0  0  0  0
 41 39  1  6  0  0  0
 42 43  1  1  0  0  0
 42 41  1  0  0  0  0
 44 43  1  0  0  0  0
 46 44  1  0  0  0  0
 46 45  1  0  0  0  0
 47 46  2  0  0  0  0
M  END
>  <MODEL>
8

>  <REMARK>
 VINA RESULT:      -6.5      3.988      7.788
  Name = 
  14 active torsions:
  status: ('A' for Active; 'I' for Inactive)
    1  A    between atoms: O_2  and  C_43
    2  A    between atoms: C_3  and  O_47
    3  A    between atoms: C_6  and  C_9
    4  A    between atoms: C_6  and  C_46
    5  A    between atoms: C_8  and  C_11
    6  A    between atoms: C_9  and  C_41
    7  A    between atoms: C_9  and  C_43
    8  A    between atoms: C_11  and  N_13
    9  A    between atoms: N_12  and  C_26
   10  A    between atoms: N_17  and  C_29
   11  A    between atoms: C_27  and  O_47
   12  A    between atoms: O_28  and  C_41
   13  A    between atoms: C_29  and  C_40
   14  A    between atoms: C_34  and  C_37
                            x       y       z     vdW  Elec       q    Type
                         _______ _______ _______ _____ _____    ______ ____

>  <TORSDO>
F 14

$$$$
=
 OpenBabel11062417033D

 47 52  0  0  1  0  0  0  0  0999 V2000
  182.5740  178.8100  141.3260 C   0  0  0  0  0  0  0  0  0  0  0  0
  184.8740  178.6420  142.8780 C   0  0  0  0  0  0  0  0  0  0  0  0
  184.9730  178.8170  141.5270 C   0  0  0  0  0  0  0  0  0  0  0  0
  186.9290  178.6910  142.3320 C   0  0  0  0  0  0  0  0  0  0  0  0
  183.6440  178.5290  143.5210 C   0  0  0  0  0  3  0  0  0  0  0  0
  186.1070  178.5760  143.4090 N   0  0  0  0  0  0  0  0  0  0  0  0
  186.2670  178.8450  141.1570 N   0  0  0  0  0  0  0  0  0  0  0  0
  182.4880  178.6170  142.7280 C   0  0  0  0  0  3  0  0  0  0  0  0
  183.8400  178.9150  140.7050 C   0  0  0  0  0  0  0  0  0  0  0  0
  187.8450  178.3570  144.9410 F   0  0  0  0  0  0  0  0  0  0  0  0
  185.8550  179.1250  145.6700 F   0  0  0  0  0  0  0  0  0  0  0  0
  186.0790  176.9660  145.1110 F   0  0  0  0  0  0  0  0  0  0  0  0
  186.4750  178.2540  144.7930 C   0  0  0  0  0  0  0  0  0  0  0  0
  183.9400  179.1100  139.2110 C   0  0  2  0  0  3  0  0  0  0  0  0
  182.8330  179.7990  138.7100 O   0  0  0  0  0  1  0  0  0  0  0  0
  184.2060  177.8310  138.3970 C   0  0  1  0  0  3  0  0  0  0  0  0
  182.9710  177.3480  137.6270 C   0  0  2  0  0  3  0  0  0  0  0  0
  182.7930  175.9770  137.8270 O   0  0  0  0  0  1  0  0  0  0  0  0
  182.4200  176.5660  135.6330 C   0  0  0  0  0  1  0  0  0  0  0  0
  183.1270  177.5910  136.2600 O   0  0  0  0  0  0  0  0  0  0  0  0
  185.4710  177.8930  137.5340 C   0  0  0  0  0  2  0  0  0  0  0  0
  186.1200  176.6580  137.5020 O   0  0  0  0  0  0  0  0  0  0  0  0
  186.4190  176.4550  136.1540 C   0  0  0  0  0  1  0  0  0  0  0  0
  188.4160  178.5750  142.3960 C   0  0  0  0  0  2  0  0  0  0  0  0
  189.1060  176.4240  143.0750 C   0  0  2  0  0  3  0  0  0  0  0  0
  188.8220  177.2620  141.9150 N   0  0  0  0  0  0  0  0  0  0  0  0
  191.3240  177.8670  141.8850 C   0  0  0  0  0  2  0  0  0  0  0  0
  190.4430  175.7410  142.8520 C   0  0  0  0  0  2  0  0  0  0  0  0
  190.0690  177.4010  141.1590 C   0  0  1  0  0  0  0  0  0  0  0  0
  188.0650  175.4240  143.2230 N   0  0  0  0  0  1  0  0  0  0  0  0
  191.0770  176.3810  141.6340 C   0  0  1  0  0  3  0  0  0  0  0  0
  190.7190  176.7040  138.8340 C   0  0  0  0  0  3  0  0  0  0  0  0
  189.1230  178.4990  139.1100 C   0  0  0  0  0  3  0  0  0  0  0  0
  191.3760  175.9510  136.5470 C   0  0  0  0  0  1  0  0  0  0  0  0
  190.6010  176.8420  137.4500 C   0  0  0  0  0  0  0  0  0  0  0  0
  189.9820  177.5490  139.6720 C   0  0  0  0  0  0  0  0  0  0  0  0
  189.7710  177.7830  136.9250 N   0  0  0  0  0  0  0  0  0  0  0  0
  189.0340  178.6040  137.7200 C   0  0  0  0  0  3  0  0  0  0  0  0
  181.4160  178.8860  140.5430 O   0  0  0  0  0  0  0  0  0  0  0  0
  179.3730  178.1700  139.5100 C   0  0  0  0  0  2  0  0  0  0  0  0
  180.6820  177.7390  140.1390 C   0  0  2  0  0  3  0  0  0  0  0  0
  179.3990  177.6720  140.9390 C   0  0  2  0  0  3  0  0  0  0  0  0
  178.9320  176.2310  140.9890 C   0  0  0  0  0  2  0  0  0  0  0  0
  179.3670  175.5320  139.7910 N   0  0  0  0  0  2  0  0  0  0  0  0
  179.5510  173.4590  140.8510 O   0  0  0  0  0  1  0  0  0  0  0  0
  179.6670  174.1370  139.7950 C   0  0  0  0  0  0  0  0  0  0  0  0
  180.0830  173.5210  138.6230 O   0  0  0  0  0  0  0  0  0  0  0  0
  1  8  1  0  0  0  0
  2  6  1  0  0  0  0
  2  5  1  0  0  0  0
  3  2  2  0  0  0  0
  4 24  1  0  0  0  0
  4  6  1  0  0  0  0
  6 13  1  0  0  0  0
  7  3  1  0  0  0  0
  7  4  2  0  0  0  0
  8  5  2  0  0  0  0
  9  1  2  0  0  0  0
  9  3  1  0  0  0  0
 13 10  1  0  0  0  0
 13 12  1  0  0  0  0
 13 11  1  0  0  0  0
 14 15  1  6  0  0  0
 14  9  1  0  0  0  0
 16 21  1  6  0  0  0
 16 14  1  0  0  0  0
 17 18  1  6  0  0  0
 17 16  1  0  0  0  0
 19 20  1  0  0  0  0
 20 17  1  0  0  0  0
 22 21  1  0  0  0  0
 23 22  1  0  0  0  0
 25 30  1  6  0  0  0
 26 24  1  0  0  0  0
 26 25  1  0  0  0  0
 28 25  1  0  0  0  0
 29 36  1  6  0  0  0
 29 31  1  0  0  0  0
 29 27  1  0  0  0  0
 29 26  1  0  0  0  0
 31 27  1  1  0  0  0
 31 28  1  0  0  0  0
 32 36  1  0  0  0  0
 33 36  2  0  0  0  0
 34 35  1  0  0  0  0
 35 32  2  0  0  0  0
 37 35  1  0  0  0  0
 37 38  2  0  0  0  0
 38 33  1  0  0  0  0
 39  1  1  0  0  0  0
 40 41  1  0  0  0  0
 40 42  1  0  0  0  0
 41 39  1  1  0  0  0
 41 42  1  0  0  0  0
 42 43  1  6  0  0  0
 44 46  1  0  0  0  0
 44 43  1  0  0  0  0
 46 45  1  0  0  0  0
 47 46  2  0  0  0  0
M  END
>  <MODEL>
9

>  <REMARK>
 VINA RESULT:      -6.3      2.931      5.684
  Name = 
  14 active torsions:
  status: ('A' for Active; 'I' for Inactive)
    1  A    between atoms: O_2  and  C_43
    2  A    between atoms: C_3  and  O_47
    3  A    between atoms: C_6  and  C_9
    4  A    between atoms: C_6  and  C_46
    5  A    between atoms: C_8  and  C_11
    6  A    between atoms: C_9  and  C_41
    7  A    between atoms: C_9  and  C_43
    8  A    between atoms: C_11  and  N_13
    9  A    between atoms: N_12  and  C_26
   10  A    between atoms: N_17  and  C_29
   11  A    between atoms: C_27  and  O_47
   12  A    between atoms: O_28  and  C_41
   13  A    between atoms: C_29  and  C_40
   14  A    between atoms: C_34  and  C_37
                            x       y       z     vdW  Elec       q    Type
                         _______ _______ _______ _____ _____    ______ ____

>  <TORSDO>
F 14

$$$$
