=
 OpenBabel11062416583D

 62 67  0  0  1  0  0  0  0  0999 V2000
  186.3370  172.3780  134.7580 C   0  0  0  0  0  2  0  0  0  0  0  0
  190.3430  176.6490  135.7330 C   0  0  0  0  0  0  0  0  0  0  0  0
  182.1970  176.7220  135.7100 C   0  0  0  0  0  2  0  0  0  0  0  0
  188.2560  173.5120  135.4680 C   0  0  1  0  0  0  0  0  0  0  0  0
  183.2620  176.3610  140.9980 O   0  0  0  0  0  0  0  0  0  0  0  0
  185.8680  178.3100  136.3670 O   0  0  0  0  0  1  0  0  0  0  0  0
  185.6460  177.6910  139.1750 C   0  0  1  0  0  3  0  0  0  0  0  0
  180.8640  177.9550  137.4960 C   0  0  0  0  0  2  0  0  0  0  0  0
  187.0530  173.5900  134.6960 O   0  0  0  0  0  0  0  0  0  0  0  0
  183.8350  174.9200  136.3630 N   0  0  0  0  0  0  0  0  0  0  0  0
  191.6570  176.9840  135.2870 N   0  0  0  0  0  2  0  0  0  0  0  0
  184.8730  175.3030  138.5830 C   0  0  2  0  0  3  0  0  0  0  0  0
  189.2810  173.0640  134.6330 O   0  0  0  0  0  1  0  0  0  0  0  0
  187.5460  176.0100  135.8950 C   0  0  0  0  0  2  0  0  0  0  0  0
  186.7570  172.5620  137.2630 C   0  0  2  0  0  3  0  0  0  0  0  0
  180.8430  177.2830  136.1260 C   0  0  1  0  0  3  0  0  0  0  0  0
  188.0430  178.1100  139.3050 O   0  0  0  0  0  1  0  0  0  0  0  0
  182.4410  175.3800  136.4200 C   0  0  2  0  0  3  0  0  0  0  0  0
  185.4300  173.8770  138.5640 C   0  0  0  0  0  2  0  0  0  0  0  0
  182.4000  178.7580  139.8410 O   0  0  0  0  0  0  0  0  0  0  0  0
  189.3670  177.7870  135.9390 C   0  0  2  0  0  0  0  0  0  0  0  0
  183.5480  178.0370  140.8690 P   0  0  2  0  0  0  0  0  0  0  0  0
  185.7400  172.2030  136.1600 C   0  0  0  0  0  2  0  0  0  0  0  0
  189.9760  178.7290  136.7910 O   0  0  0  0  0  1  0  0  0  0  0  0
  185.2380  178.3590  140.4340 N   0  0  0  0  0  0  0  0  0  0  0  0
  186.8780  178.4060  138.5830 C   0  0  1  0  0  3  0  0  0  0  0  0
  183.3140  178.6560  142.2340 O   0  0  0  0  0  1  0  0  0  0  0  0
  181.8550  179.0150  137.5420 N   0  0  0  0  0  0  0  0  0  0  0  0
  184.6580  175.8210  137.1600 C   0  0  0  0  0  2  0  0  0  0  0  0
  187.0730  178.3090  137.0630 C   0  0  1  0  0  3  0  0  0  0  0  0
  182.8780  178.6330  138.5250 C   0  0  0  0  0  2  0  0  0  0  0  0
  189.9650  175.3940  135.6710 N   0  0  0  0  0  0  0  0  0  0  0  0
  188.6130  174.9160  136.0390 C   0  0  2  0  0  3  0  0  0  0  0  0
  186.5480  173.8640  137.7150 O   0  0  0  0  0  0  0  0  0  0  0  0
  185.8780  176.1780  139.3350 C   0  0  0  0  0  2  0  0  0  0  0  0
  188.0780  177.2440  136.6150 C   0  0  1  0  0  3  0  0  0  0  0  0
  186.0960  177.9750  141.5590 C   0  0  0  0  0  1  0  0  0  0  0  0
  188.1660  172.5390  136.6820 C   0  0  0  0  0  2  0  0  0  0  0  0
  184.3460  174.9940  134.9920 C   0  0  0  0  0  1  0  0  0  0  0  0
  180.9460  171.9570  135.8550 C   0  0  0  0  0  3  0  0  0  0  0  0
  181.5090  174.3020  135.9740 C   0  0  0  0  0  0  0  0  0  0  0  0
  181.7900  172.9720  136.3030 C   0  0  0  0  0  3  0  0  0  0  0  0
  179.5360  173.5900  134.7610 C   0  0  0  0  0  3  0  0  0  0  0  0
  180.3770  174.6090  135.2050 C   0  0  0  0  0  3  0  0  0  0  0  0
  179.8290  172.2620  135.0680 C   0  0  0  0  0  0  0  0  0  0  0  0
  179.0820  170.0730  135.4170 F   0  0  0  0  0  0  0  0  0  0  0  0
  178.9310  171.1730  134.5950 C   0  0  0  0  0  2  0  0  0  0  0  0
  178.9310  177.8870  134.5940 O   0  0  0  0  0  0  0  0  0  0  0  0
  180.8600  179.1300  134.6120 O   0  0  0  0  0  1  0  0  0  0  0  0
  180.2290  178.1270  135.0470 C   0  0  0  0  0  0  0  0  0  0  0  0
  187.7940  178.8620  134.5950 C   0  0  0  0  0  1  0  0  0  0  0  0
  189.1010  178.3450  134.6530 O   0  0  0  0  0  0  0  0  0  0  0  0
  181.1550  180.2280  137.9700 C   0  0  0  0  0  2  0  0  0  0  0  0
  179.7850  180.1330  137.6870 O   0  0  0  0  0  1  0  0  0  0  0  0
  192.8430  176.5050  135.9550 C   0  0  0  0  0  2  0  0  0  0  0  0
  195.1650  172.5010  136.0680 O   0  0  0  0  0  1  0  0  0  0  0  0
  194.9650  175.5580  135.0680 C   0  0  0  0  0  2  0  0  0  0  0  0
  192.8730  173.0010  134.7600 C   0  0  0  0  0  1  0  0  0  0  0  0
  193.2610  174.0300  135.8380 C   0  0  1  0  0  3  0  0  0  0  0  0
  194.5990  173.6900  136.5360 C   0  0  2  0  0  3  0  0  0  0  0  0
  193.4760  175.3730  135.1620 C   0  0  1  0  0  3  0  0  0  0  0  0
  195.5390  174.8480  136.2760 C   0  0  0  0  0  2  0  0  0  0  0  0
  1 23  1  0  0  0  0
  2 21  1  0  0  0  0
  3 16  1  0  0  0  0
  3 18  1  0  0  0  0
  4 13  1  6  0  0  0
  4 33  1  0  0  0  0
  4 38  1  0  0  0  0
  7 35  1  1  0  0  0
  7 25  1  0  0  0  0
  8 28  1  0  0  0  0
  9  1  1  0  0  0  0
  9  4  1  0  0  0  0
 10 18  1  0  0  0  0
 10 29  1  0  0  0  0
 11  2  1  0  0  0  0
 11 55  1  0  0  0  0
 12 29  1  6  0  0  0
 12 35  1  0  0  0  0
 15 23  1  6  0  0  0
 15 34  1  0  0  0  0
 16 50  1  6  0  0  0
 16  8  1  0  0  0  0
 18 41  1  6  0  0  0
 19 12  1  0  0  0  0
 20 22  1  0  0  0  0
 21 36  1  0  0  0  0
 21 24  1  1  0  0  0
 22  5  2  1  0  0  0
 22 27  1  0  0  0  0
 25 22  1  0  0  0  0
 25 37  1  0  0  0  0
 26  7  1  0  0  0  0
 26 17  1  1  0  0  0
 28 53  1  0  0  0  0
 28 31  1  0  0  0  0
 30  6  1  6  0  0  0
 30 26  1  0  0  0  0
 31 20  1  0  0  0  0
 32  2  2  0  0  0  0
 32 33  1  0  0  0  0
 33 14  1  6  0  0  0
 34 19  1  0  0  0  0
 36 14  1  6  0  0  0
 36 30  1  0  0  0  0
 38 15  1  0  0  0  0
 39 10  1  0  0  0  0
 40 42  1  0  0  0  0
 41 42  2  0  0  0  0
 43 45  1  0  0  0  0
 43 44  2  0  0  0  0
 44 41  1  0  0  0  0
 45 40  2  0  0  0  0
 47 45  1  0  0  0  0
 47 46  1  0  0  0  0
 48 50  2  0  0  0  0
 49 50  1  0  0  0  0
 51 52  1  0  0  0  0
 52 21  1  0  0  0  0
 54 53  1  0  0  0  0
 57 61  1  0  0  0  0
 57 62  1  0  0  0  0
 59 58  1  6  0  0  0
 59 60  1  0  0  0  0
 60 56  1  6  0  0  0
 61 59  1  0  0  0  0
 61 55  1  1  0  0  0
 62 60  1  0  0  0  0
M  END
>  <MODEL>
1

>  <REMARK>
 VINA RESULT:       6.1      0.000      0.000
  Name = 
  7 active torsions:
  status: ('A' for Active; 'I' for Inactive)
    1  A    between atoms: N_15  and  C_23
    2  A    between atoms: C_21  and  C_35
    3  A    between atoms: C_22  and  C_26
    4  A    between atoms: C_23  and  C_50
    5  A    between atoms: C_31  and  O_39
    6  A    between atoms: C_34  and  C_61
    7  A    between atoms: C_37  and  N_44
                            x       y       z     vdW  Elec       q    Type
                         _______ _______ _______ _____ _____    ______ ____

>  <TORSDO>
F 7

$$$$
