=
 OpenBabel11062414243D

 45 49  0  0  1  0  0  0  0  0999 V2000
  184.7900  178.2490  143.1950 O   0  0  0  0  0  0  0  0  0  0  0  0
  181.2760  179.3070  143.6670 C   0  0  0  0  0  3  0  0  0  0  0  0
  184.8990  178.9150  146.7380 O   0  0  0  0  0  0  0  0  0  0  0  0
  182.9680  178.4480  141.5940 C   0  0  0  0  0  0  0  0  0  0  0  0
  183.4590  178.5730  142.9060 C   0  0  0  0  0  0  0  0  0  0  0  0
  183.1050  179.0880  145.2730 N   0  0  0  0  0  2  0  0  0  0  0  0
  180.7870  179.2010  142.3630 C   0  0  0  0  0  3  0  0  0  0  0  0
  184.4850  178.8470  145.5500 C   0  0  0  0  0  0  0  0  0  0  0  0
  181.6230  178.7810  141.3230 C   0  0  0  0  0  0  0  0  0  0  0  0
  185.4520  178.6220  144.4120 C   0  0  1  0  0  3  0  0  0  0  0  0
  182.6090  179.0010  143.9380 C   0  0  0  0  0  0  0  0  0  0  0  0
  187.0120  176.6900  143.6730 C   0  0  0  0  0  2  0  0  0  0  0  0
  186.5180  177.0290  146.0310 O   0  0  0  0  0  1  0  0  0  0  0  0
  186.5640  177.6300  144.7700 C   0  0  2  0  0  0  0  0  0  0  0  0
  187.9390  177.8110  144.1360 C   0  0  1  0  0  3  0  0  0  0  0  0
  189.0590  177.2460  145.0070 C   0  0  2  0  0  3  0  0  0  0  0  0
  189.3600  178.0910  146.1150 O   0  0  0  0  0  0  0  0  0  0  0  0
  191.1240  177.0520  147.5010 C   0  0  0  0  0  1  0  0  0  0  0  0
  189.6490  177.4070  147.3320 C   0  0  2  0  0  0  0  0  0  0  0  0
  188.8770  176.2460  147.4360 O   0  0  0  0  0  1  0  0  0  0  0  0
  188.0820  177.8980  149.0730 F   0  0  0  0  0  0  0  0  0  0  0  0
  189.2620  178.3210  148.4850 C   0  0  0  0  0  2  0  0  0  0  0  0
  190.1840  176.8930  144.2470 O   0  0  0  0  0  0  0  0  0  0  0  0
  190.0760  177.6030  143.1340 O   0  0  0  0  0  0  0  0  0  0  0  0
  190.6550  176.8490  142.0910 C   0  0  1  0  0  3  0  0  0  0  0  0
  189.7300  176.7690  140.8790 C   0  0  0  0  0  2  0  0  0  0  0  0
  188.8580  178.0090  140.7950 C   0  0  0  0  0  1  0  0  0  0  0  0
  192.0450  177.3580  141.7120 C   0  0  0  0  0  2  0  0  0  0  0  0
  192.1300  177.5410  140.3070 O   0  0  0  0  0  0  0  0  0  0  0  0
  193.3210  177.3220  139.6120 C   0  0  0  0  0  3  0  0  0  0  0  0
  194.3380  176.8550  140.1920 O   0  0  0  0  0  0  0  0  0  0  0  0
  184.7580  179.1260  140.0190 C   0  0  0  0  0  1  0  0  0  0  0  0
  183.8820  177.9810  140.4980 C   0  0  0  0  0  2  0  0  0  0  0  0
  181.0520  178.7020  139.9410 C   0  0  0  0  0  2  0  0  0  0  0  0
  179.6290  178.3650  139.9940 N   0  0  0  0  0  2  0  0  0  0  0  0
  181.2230  174.7720  136.8830 C   0  0  0  0  0  2  0  0  0  0  0  0
  180.0780  174.2780  138.8970 C   0  0  2  0  0  3  0  0  0  0  0  0
  181.2910  172.9720  137.1890 S   0  0  0  0  0  0  0  0  0  0  0  0
  179.3720  177.0480  139.3990 C   0  0  2  0  0  3  0  0  0  0  0  0
  180.1330  175.2880  137.7730 C   0  0  2  0  0  0  0  0  0  0  0  0
  179.1780  175.9620  140.4760 C   0  0  0  0  0  2  0  0  0  0  0  0
  178.9310  175.3110  137.0590 O   0  0  0  0  0  1  0  0  0  0  0  0
  179.9870  173.0090  138.3280 O   0  0  0  0  0  0  0  0  0  0  0  0
  178.9310  174.5880  139.8500 C   0  0  0  0  0  2  0  0  0  0  0  0
  180.4350  176.6700  138.3460 C   0  0  0  0  0  2  0  0  0  0  0  0
  2 11  1  0  0  0  0
  4  5  1  0  0  0  0
  5  1  1  0  0  0  0
  5 11  2  0  0  0  0
  6  8  1  0  0  0  0
  7  2  2  0  0  0  0
  8  3  2  0  0  0  0
  9  4  2  0  0  0  0
  9  7  1  0  0  0  0
 10  1  1  6  0  0  0
 10 14  1  0  0  0  0
 10  8  1  0  0  0  0
 11  6  1  0  0  0  0
 12 15  1  0  0  0  0
 12 14  1  0  0  0  0
 14 13  1  1  0  0  0
 15 14  1  0  0  0  0
 15 16  1  1  0  0  0
 16 23  1  6  0  0  0
 16 17  1  0  0  0  0
 17 19  1  0  0  0  0
 19 20  1  0  0  0  0
 19 18  1  1  0  0  0
 19 22  1  0  0  0  0
 22 21  1  0  0  0  0
 24 23  1  0  0  0  0
 25 26  1  6  0  0  0
 25 24  1  0  0  0  0
 27 26  1  0  0  0  0
 28 25  1  0  0  0  0
 29 28  1  0  0  0  0
 30 31  2  0  0  0  0
 30 29  1  0  0  0  0
 32 33  1  0  0  0  0
 33  4  1  0  0  0  0
 34 35  1  0  0  0  0
 34  9  1  0  0  0  0
 36 38  1  0  0  0  0
 36 40  1  0  0  0  0
 37 44  1  1  0  0  0
 38 43  1  0  0  0  0
 39 35  1  1  0  0  0
 39 41  1  0  0  0  0
 40 42  1  6  0  0  0
 40 45  1  0  0  0  0
 40 37  1  0  0  0  0
 43 37  1  0  0  0  0
 44 41  1  0  0  0  0
 45 39  1  0  0  0  0
M  END
>  <MODEL>
1

>  <REMARK>
 VINA RESULT:      -7.6      0.000      0.000
  Name = 
  16 active torsions:
  status: ('A' for Active; 'I' for Inactive)
    1  A    between atoms: C_2  and  C_3
    2  A    between atoms: C_3  and  O_18
    3  A    between atoms: C_3  and  C_39
    4  A    between atoms: C_8  and  C_35
    5  A    between atoms: O_11  and  C_29
    6  A    between atoms: O_11  and  C_39
    7  A    between atoms: O_13  and  O_18
    8  A    between atoms: O_13  and  C_40
    9  A    between atoms: O_16  and  C_25
   10  A    between atoms: O_16  and  C_40
   11  A    between atoms: C_19  and  C_23
   12  A    between atoms: C_20  and  N_38
   13  A    between atoms: C_21  and  C_40
   14  A    between atoms: C_22  and  C_25
   15  A    between atoms: C_28  and  C_32
   16  A    between atoms: C_28  and  N_38
                            x       y       z     vdW  Elec       q    Type
                         _______ _______ _______ _____ _____    ______ ____

>  <TORSDO>
F 16

$$$$
=
 OpenBabel11062414243D

 45 49  0  0  1  0  0  0  0  0999 V2000
  185.0740  178.3820  143.0030 O   0  0  0  0  0  0  0  0  0  0  0  0
  181.6210  178.9840  144.1910 C   0  0  0  0  0  3  0  0  0  0  0  0
  185.7820  178.8390  146.5100 O   0  0  0  0  0  0  0  0  0  0  0  0
  182.9700  178.4590  141.7810 C   0  0  0  0  0  0  0  0  0  0  0  0
  183.6850  178.5620  142.9880 C   0  0  0  0  0  0  0  0  0  0  0  0
  183.7350  178.8860  145.4140 N   0  0  0  0  0  2  0  0  0  0  0  0
  180.9080  178.9000  142.9940 C   0  0  0  0  0  3  0  0  0  0  0  0
  185.1590  178.7950  145.4150 C   0  0  0  0  0  0  0  0  0  0  0  0
  181.5710  178.6470  141.7870 C   0  0  0  0  0  0  0  0  0  0  0  0
  185.9110  178.7560  144.1060 C   0  0  1  0  0  3  0  0  0  0  0  0
  183.0060  178.8220  144.1890 C   0  0  0  0  0  0  0  0  0  0  0  0
  186.9870  176.4080  143.8950 C   0  0  0  0  0  2  0  0  0  0  0  0
  188.0890  178.1450  145.1930 O   0  0  0  0  0  1  0  0  0  0  0  0
  187.1700  177.8830  144.1730 C   0  0  2  0  0  0  0  0  0  0  0  0
  187.7170  177.2860  142.8820 C   0  0  1  0  0  3  0  0  0  0  0  0
  189.2210  177.0340  142.9500 C   0  0  2  0  0  3  0  0  0  0  0  0
  189.9520  178.2140  143.2790 O   0  0  0  0  0  0  0  0  0  0  0  0
  191.9330  179.2130  144.3690 C   0  0  0  0  0  1  0  0  0  0  0  0
  191.2850  177.9870  143.7300 C   0  0  2  0  0  0  0  0  0  0  0  0
  192.0870  177.5310  142.6810 O   0  0  0  0  0  1  0  0  0  0  0  0
  191.7420  177.3470  145.9910 F   0  0  0  0  0  0  0  0  0  0  0  0
  191.2400  176.8900  144.7840 C   0  0  0  0  0  2  0  0  0  0  0  0
  189.6930  176.3820  141.8010 O   0  0  0  0  0  0  0  0  0  0  0  0
  189.0090  176.9180  140.8020 O   0  0  0  0  0  0  0  0  0  0  0  0
  189.9400  177.4980  139.9120 C   0  0  1  0  0  3  0  0  0  0  0  0
  190.7620  176.4330  139.1910 C   0  0  0  0  0  2  0  0  0  0  0  0
  190.0140  175.9210  137.9730 C   0  0  0  0  0  1  0  0  0  0  0  0
  189.2770  178.4640  138.9320 C   0  0  0  0  0  2  0  0  0  0  0  0
  187.8700  178.4630  139.1230 O   0  0  0  0  0  0  0  0  0  0  0  0
  186.9940  178.0840  138.1030 C   0  0  0  0  0  3  0  0  0  0  0  0
  186.8150  178.8160  137.0930 O   0  0  0  0  0  0  0  0  0  0  0  0
  184.0620  179.4690  139.7980 C   0  0  0  0  0  1  0  0  0  0  0  0
  183.7040  178.1720  140.5030 C   0  0  0  0  0  2  0  0  0  0  0  0
  180.7600  178.5840  140.5310 C   0  0  0  0  0  2  0  0  0  0  0  0
  180.1430  177.2650  140.3850 N   0  0  0  0  0  2  0  0  0  0  0  0
  181.8370  177.9880  135.7230 C   0  0  0  0  0  2  0  0  0  0  0  0
  182.3420  176.0310  136.9580 C   0  0  2  0  0  3  0  0  0  0  0  0
  183.0960  177.0160  134.8240 S   0  0  0  0  0  0  0  0  0  0  0  0
  180.4760  176.6620  139.0890 C   0  0  2  0  0  3  0  0  0  0  0  0
  181.2450  177.0440  136.7260 C   0  0  2  0  0  0  0  0  0  0  0  0
  181.5070  175.5260  139.2350 C   0  0  0  0  0  2  0  0  0  0  0  0
  180.1120  176.4380  136.1730 O   0  0  0  0  0  1  0  0  0  0  0  0
  182.7680  175.5670  135.7150 O   0  0  0  0  0  0  0  0  0  0  0  0
  181.8660  174.9150  137.8790 C   0  0  0  0  0  2  0  0  0  0  0  0
  180.8910  177.7220  138.0460 C   0  0  0  0  0  2  0  0  0  0  0  0
  4  9  2  0  0  0  0
  4  5  1  0  0  0  0
  5  1  1  0  0  0  0
  5 11  2  0  0  0  0
  6  8  1  0  0  0  0
  7  2  2  0  0  0  0
  8  3  2  0  0  0  0
  9  7  1  0  0  0  0
 10  1  1  6  0  0  0
 10 14  1  0  0  0  0
 10  8  1  0  0  0  0
 11  2  1  0  0  0  0
 11  6  1  0  0  0  0
 12 14  1  0  0  0  0
 14 13  1  1  0  0  0
 15 16  1  1  0  0  0
 15 12  1  0  0  0  0
 15 14  1  0  0  0  0
 16 23  1  6  0  0  0
 16 17  1  0  0  0  0
 17 19  1  0  0  0  0
 19 18  1  1  0  0  0
 19 22  1  0  0  0  0
 20 19  1  0  0  0  0
 22 21  1  0  0  0  0
 24 23  1  0  0  0  0
 25 28  1  6  0  0  0
 25 24  1  0  0  0  0
 26 25  1  0  0  0  0
 27 26  1  0  0  0  0
 28 29  1  0  0  0  0
 30 29  1  0  0  0  0
 31 30  2  0  0  0  0
 32 33  1  0  0  0  0
 33  4  1  0  0  0  0
 34  9  1  0  0  0  0
 35 34  1  0  0  0  0
 36 40  1  0  0  0  0
 37 44  1  1  0  0  0
 38 43  1  0  0  0  0
 38 36  1  0  0  0  0
 39 41  1  0  0  0  0
 39 35  1  1  0  0  0
 40 42  1  6  0  0  0
 40 37  1  0  0  0  0
 40 45  1  0  0  0  0
 43 37  1  0  0  0  0
 44 41  1  0  0  0  0
 45 39  1  0  0  0  0
M  END
>  <MODEL>
2

>  <REMARK>
 VINA RESULT:      -7.5      2.261      3.069
  Name = 
  16 active torsions:
  status: ('A' for Active; 'I' for Inactive)
    1  A    between atoms: C_2  and  C_3
    2  A    between atoms: C_3  and  O_18
    3  A    between atoms: C_3  and  C_39
    4  A    between atoms: C_8  and  C_35
    5  A    between atoms: O_11  and  C_29
    6  A    between atoms: O_11  and  C_39
    7  A    between atoms: O_13  and  O_18
    8  A    between atoms: O_13  and  C_40
    9  A    between atoms: O_16  and  C_25
   10  A    between atoms: O_16  and  C_40
   11  A    between atoms: C_19  and  C_23
   12  A    between atoms: C_20  and  N_38
   13  A    between atoms: C_21  and  C_40
   14  A    between atoms: C_22  and  C_25
   15  A    between atoms: C_28  and  C_32
   16  A    between atoms: C_28  and  N_38
                            x       y       z     vdW  Elec       q    Type
                         _______ _______ _______ _____ _____    ______ ____

>  <TORSDO>
F 16

$$$$
=
 OpenBabel11062414243D

 45 49  0  0  1  0  0  0  0  0999 V2000
  186.3590  177.9970  138.8360 O   0  0  0  0  0  0  0  0  0  0  0  0
  189.3790  176.0960  137.8550 C   0  0  0  0  0  3  0  0  0  0  0  0
  185.1640  176.6620  135.7050 O   0  0  0  0  0  0  0  0  0  0  0  0
  188.5030  177.7410  139.9600 C   0  0  0  0  0  0  0  0  0  0  0  0
  187.6550  177.4690  138.8700 C   0  0  0  0  0  0  0  0  0  0  0  0
  187.2180  176.3420  136.7410 N   0  0  0  0  0  2  0  0  0  0  0  0
  190.2310  176.3770  138.9260 C   0  0  0  0  0  3  0  0  0  0  0  0
  185.9310  176.9550  136.6610 C   0  0  0  0  0  0  0  0  0  0  0  0
  189.8070  177.2010  139.9750 C   0  0  0  0  0  0  0  0  0  0  0  0
  185.5440  178.0240  137.6550 C   0  0  1  0  0  3  0  0  0  0  0  0
  188.0980  176.6450  137.8230 C   0  0  0  0  0  0  0  0  0  0  0  0
  183.5680  176.8030  138.8030 C   0  0  0  0  0  2  0  0  0  0  0  0
  183.1460  178.4110  137.0270 O   0  0  0  0  0  1  0  0  0  0  0  0
  184.0520  177.9930  138.0060 C   0  0  2  0  0  0  0  0  0  0  0  0
  183.6380  178.1790  139.4610 C   0  0  1  0  0  3  0  0  0  0  0  0
  182.2380  178.7730  139.5940 C   0  0  2  0  0  3  0  0  0  0  0  0
  182.2330  180.1890  139.4250 O   0  0  0  0  0  0  0  0  0  0  0  0
  181.1520  181.9750  138.1010 C   0  0  0  0  0  1  0  0  0  0  0  0
  180.9950  180.7370  138.9800 C   0  0  2  0  0  0  0  0  0  0  0  0
  180.1740  181.0410  140.0690 O   0  0  0  0  0  1  0  0  0  0  0  0
  180.3860  179.9550  136.8000 F   0  0  0  0  0  0  0  0  0  0  0  0
  180.2860  179.6740  138.1530 C   0  0  0  0  0  2  0  0  0  0  0  0
  181.5990  178.3450  140.7680 O   0  0  0  0  0  0  0  0  0  0  0  0
  182.4870  178.5460  141.7290 O   0  0  0  0  0  0  0  0  0  0  0  0
  181.8020  179.1000  142.8320 C   0  0  1  0  0  3  0  0  0  0  0  0
  180.3120  178.7750  142.7860 C   0  0  0  0  0  2  0  0  0  0  0  0
  179.7620  178.6080  144.1920 C   0  0  0  0  0  1  0  0  0  0  0  0
  182.4310  178.6960  144.1650 C   0  0  0  0  0  2  0  0  0  0  0  0
  183.5530  179.5200  144.4430 O   0  0  0  0  0  0  0  0  0  0  0  0
  184.6340  179.0530  145.1940 C   0  0  0  0  0  3  0  0  0  0  0  0
  184.5260  178.8430  146.4320 O   0  0  0  0  0  0  0  0  0  0  0  0
  186.9830  177.8830  141.9130 C   0  0  0  0  0  1  0  0  0  0  0  0
  188.0180  178.6160  141.0790 C   0  0  0  0  0  2  0  0  0  0  0  0
  190.7670  177.4830  141.0880 C   0  0  0  0  0  2  0  0  0  0  0  0
  190.7370  176.4020  142.0750 N   0  0  0  0  0  2  0  0  0  0  0  0
  188.0390  177.5650  146.1360 C   0  0  0  0  0  2  0  0  0  0  0  0
  190.2310  176.6810  146.2900 C   0  0  2  0  0  3  0  0  0  0  0  0
  188.4020  177.1560  147.8790 S   0  0  0  0  0  0  0  0  0  0  0  0
  190.7390  176.9310  143.4430 C   0  0  2  0  0  3  0  0  0  0  0  0
  189.3690  177.5920  145.4460 C   0  0  2  0  0  0  0  0  0  0  0  0
  191.6890  176.1380  144.3620 C   0  0  0  0  0  2  0  0  0  0  0  0
  189.8640  178.9000  145.4550 O   0  0  0  0  0  1  0  0  0  0  0  0
  190.1130  177.0890  147.6180 O   0  0  0  0  0  0  0  0  0  0  0  0
  191.6710  176.6800  145.7920 C   0  0  0  0  0  2  0  0  0  0  0  0
  189.3120  177.0580  144.0170 C   0  0  0  0  0  2  0  0  0  0  0  0
  1  5  1  0  0  0  0
  2  7  1  0  0  0  0
  3  8  2  0  0  0  0
  4  9  1  0  0  0  0
  4 33  1  0  0  0  0
  5  4  2  0  0  0  0
  6 11  1  0  0  0  0
  7  9  2  0  0  0  0
  8  6  1  0  0  0  0
  9 34  1  0  0  0  0
 10  8  1  6  0  0  0
 10 14  1  0  0  0  0
 10  1  1  0  0  0  0
 11  2  2  0  0  0  0
 11  5  1  0  0  0  0
 12 15  1  0  0  0  0
 14 13  1  6  0  0  0
 14 12  1  0  0  0  0
 14 15  1  0  0  0  0
 15 16  1  6  0  0  0
 16 17  1  1  0  0  0
 16 23  1  0  0  0  0
 19 18  1  6  0  0  0
 19 17  1  0  0  0  0
 19 20  1  0  0  0  0
 21 22  1  0  0  0  0
 22 19  1  0  0  0  0
 23 24  1  0  0  0  0
 24 25  1  0  0  0  0
 25 26  1  1  0  0  0
 25 28  1  0  0  0  0
 26 27  1  0  0  0  0
 28 29  1  0  0  0  0
 29 30  1  0  0  0  0
 30 31  2  0  0  0  0
 33 32  1  0  0  0  0
 34 35  1  0  0  0  0
 36 38  1  0  0  0  0
 37 44  1  6  0  0  0
 37 43  1  0  0  0  0
 39 35  1  6  0  0  0
 39 45  1  0  0  0  0
 39 41  1  0  0  0  0
 40 42  1  1  0  0  0
 40 36  1  0  0  0  0
 40 37  1  0  0  0  0
 41 44  1  0  0  0  0
 43 38  1  0  0  0  0
 45 40  1  0  0  0  0
M  END
>  <MODEL>
3

>  <REMARK>
 VINA RESULT:      -7.3      4.434     10.468
  Name = 
  16 active torsions:
  status: ('A' for Active; 'I' for Inactive)
    1  A    between atoms: C_2  and  C_3
    2  A    between atoms: C_3  and  O_18
    3  A    between atoms: C_3  and  C_39
    4  A    between atoms: C_8  and  C_35
    5  A    between atoms: O_11  and  C_29
    6  A    between atoms: O_11  and  C_39
    7  A    between atoms: O_13  and  O_18
    8  A    between atoms: O_13  and  C_40
    9  A    between atoms: O_16  and  C_25
   10  A    between atoms: O_16  and  C_40
   11  A    between atoms: C_19  and  C_23
   12  A    between atoms: C_20  and  N_38
   13  A    between atoms: C_21  and  C_40
   14  A    between atoms: C_22  and  C_25
   15  A    between atoms: C_28  and  C_32
   16  A    between atoms: C_28  and  N_38
                            x       y       z     vdW  Elec       q    Type
                         _______ _______ _______ _____ _____    ______ ____

>  <TORSDO>
F 16

$$$$
=
 OpenBabel11062414243D

 45 49  0  0  1  0  0  0  0  0999 V2000
  184.7430  178.3150  143.0740 O   0  0  0  0  0  0  0  0  0  0  0  0
  181.1720  179.2490  143.3350 C   0  0  0  0  0  3  0  0  0  0  0  0
  184.6370  179.0590  146.6020 O   0  0  0  0  0  0  0  0  0  0  0  0
  183.0030  178.4100  141.3750 C   0  0  0  0  0  0  0  0  0  0  0  0
  183.4190  178.5820  142.7080 C   0  0  0  0  0  0  0  0  0  0  0  0
  182.9190  179.1330  145.0400 N   0  0  0  0  0  2  0  0  0  0  0  0
  180.7580  179.0960  142.0100 C   0  0  0  0  0  3  0  0  0  0  0  0
  184.2900  178.9510  145.3950 C   0  0  0  0  0  0  0  0  0  0  0  0
  181.6640  178.6870  141.0250 C   0  0  0  0  0  0  0  0  0  0  0  0
  185.3240  178.7390  144.3160 C   0  0  1  0  0  3  0  0  0  0  0  0
  182.4990  178.9990  143.6830 C   0  0  0  0  0  0  0  0  0  0  0  0
  187.1130  176.9790  143.6680 C   0  0  0  0  0  2  0  0  0  0  0  0
  186.2830  177.0950  145.9510 O   0  0  0  0  0  1  0  0  0  0  0  0
  186.4520  177.7970  144.7540 C   0  0  2  0  0  0  0  0  0  0  0  0
  187.8810  178.1180  144.3330 C   0  0  1  0  0  3  0  0  0  0  0  0
  188.9130  177.5610  145.3100 C   0  0  2  0  0  3  0  0  0  0  0  0
  188.9660  178.3070  146.5250 O   0  0  0  0  0  0  0  0  0  0  0  0
  190.6500  177.7630  148.2500 C   0  0  0  0  0  1  0  0  0  0  0  0
  189.2490  177.5360  147.6900 C   0  0  2  0  0  0  0  0  0  0  0  0
  189.0640  176.1750  147.4340 O   0  0  0  0  0  1  0  0  0  0  0  0
  187.4910  179.0200  148.3550 F   0  0  0  0  0  0  0  0  0  0  0  0
  188.2530  177.9390  148.7680 C   0  0  0  0  0  2  0  0  0  0  0  0
  190.1660  177.3870  144.7030 O   0  0  0  0  0  0  0  0  0  0  0  0
  190.0200  177.8780  143.4810 O   0  0  0  0  0  0  0  0  0  0  0  0
  190.7100  177.0230  142.5950 C   0  0  1  0  0  3  0  0  0  0  0  0
  190.6620  175.5720  143.0650 C   0  0  0  0  0  2  0  0  0  0  0  0
  191.9000  175.2370  143.8770 C   0  0  0  0  0  1  0  0  0  0  0  0
  190.2220  177.1690  141.1540 C   0  0  0  0  0  2  0  0  0  0  0  0
  189.1550  178.1040  141.0940 O   0  0  0  0  0  0  0  0  0  0  0  0
  188.2910  178.1570  139.9990 C   0  0  0  0  0  3  0  0  0  0  0  0
  188.5530  178.8770  138.9970 O   0  0  0  0  0  0  0  0  0  0  0  0
  184.6620  179.1520  139.6890 C   0  0  0  0  0  1  0  0  0  0  0  0
  183.9920  177.9550  140.3400 C   0  0  0  0  0  2  0  0  0  0  0  0
  181.1710  178.5560  139.6180 C   0  0  0  0  0  2  0  0  0  0  0  0
  180.4170  177.3130  139.4530 N   0  0  0  0  0  2  0  0  0  0  0  0
  183.2450  177.2890  135.3140 C   0  0  0  0  0  2  0  0  0  0  0  0
  183.0020  175.3730  136.6860 C   0  0  2  0  0  3  0  0  0  0  0  0
  184.4240  176.0040  134.7690 S   0  0  0  0  0  0  0  0  0  0  0  0
  180.8910  176.5530  138.2910 C   0  0  2  0  0  3  0  0  0  0  0  0
  182.2440  176.5750  136.1710 C   0  0  2  0  0  0  0  0  0  0  0  0
  181.5790  175.2390  138.7100 C   0  0  0  0  0  2  0  0  0  0  0  0
  181.1600  176.1820  135.3790 O   0  0  0  0  0  1  0  0  0  0  0  0
  183.5840  174.7330  135.5930 O   0  0  0  0  0  0  0  0  0  0  0  0
  182.0900  174.4600  137.4950 C   0  0  0  0  0  2  0  0  0  0  0  0
  181.7600  177.4150  137.3500 C   0  0  0  0  0  2  0  0  0  0  0  0
  2 11  1  0  0  0  0
  4  5  1  0  0  0  0
  5  1  1  0  0  0  0
  5 11  2  0  0  0  0
  6  8  1  0  0  0  0
  7  2  2  0  0  0  0
  8  3  2  0  0  0  0
  9  4  2  0  0  0  0
  9  7  1  0  0  0  0
 10  1  1  6  0  0  0
 10 14  1  0  0  0  0
 10  8  1  0  0  0  0
 11  6  1  0  0  0  0
 12 15  1  0  0  0  0
 12 14  1  0  0  0  0
 14 13  1  1  0  0  0
 15 14  1  0  0  0  0
 15 16  1  1  0  0  0
 16 23  1  6  0  0  0
 16 17  1  0  0  0  0
 17 19  1  0  0  0  0
 19 18  1  1  0  0  0
 19 22  1  0  0  0  0
 20 19  1  0  0  0  0
 21 22  1  0  0  0  0
 24 23  1  0  0  0  0
 25 28  1  6  0  0  0
 25 26  1  0  0  0  0
 25 24  1  0  0  0  0
 26 27  1  0  0  0  0
 29 28  1  0  0  0  0
 30 29  1  0  0  0  0
 31 30  2  0  0  0  0
 32 33  1  0  0  0  0
 33  4  1  0  0  0  0
 34  9  1  0  0  0  0
 35 34  1  0  0  0  0
 36 40  1  0  0  0  0
 37 44  1  6  0  0  0
 38 36  1  0  0  0  0
 38 43  1  0  0  0  0
 39 41  1  0  0  0  0
 39 35  1  1  0  0  0
 40 42  1  6  0  0  0
 40 37  1  0  0  0  0
 40 45  1  0  0  0  0
 43 37  1  0  0  0  0
 44 41  1  0  0  0  0
 45 39  1  0  0  0  0
M  END
>  <MODEL>
4

>  <REMARK>
 VINA RESULT:      -7.3      1.804      2.344
  Name = 
  16 active torsions:
  status: ('A' for Active; 'I' for Inactive)
    1  A    between atoms: C_2  and  C_3
    2  A    between atoms: C_3  and  O_18
    3  A    between atoms: C_3  and  C_39
    4  A    between atoms: C_8  and  C_35
    5  A    between atoms: O_11  and  C_29
    6  A    between atoms: O_11  and  C_39
    7  A    between atoms: O_13  and  O_18
    8  A    between atoms: O_13  and  C_40
    9  A    between atoms: O_16  and  C_25
   10  A    between atoms: O_16  and  C_40
   11  A    between atoms: C_19  and  C_23
   12  A    between atoms: C_20  and  N_38
   13  A    between atoms: C_21  and  C_40
   14  A    between atoms: C_22  and  C_25
   15  A    between atoms: C_28  and  C_32
   16  A    between atoms: C_28  and  N_38
                            x       y       z     vdW  Elec       q    Type
                         _______ _______ _______ _____ _____    ______ ____

>  <TORSDO>
F 16

$$$$
=
 OpenBabel11062414243D

 45 49  0  0  1  0  0  0  0  0999 V2000
  187.7990  177.4530  139.5840 O   0  0  0  0  0  0  0  0  0  0  0  0
  189.3810  177.4970  136.2390 C   0  0  0  0  0  3  0  0  0  0  0  0
  191.2540  177.4460  140.6200 O   0  0  0  0  0  0  0  0  0  0  0  0
  186.8040  177.4680  137.3620 C   0  0  0  0  0  0  0  0  0  0  0  0
  187.9410  177.4560  138.1910 C   0  0  0  0  0  0  0  0  0  0  0  0
  190.3730  177.5010  138.4720 N   0  0  0  0  0  2  0  0  0  0  0  0
  188.2560  177.4910  135.4120 C   0  0  0  0  0  3  0  0  0  0  0  0
  190.2280  177.4040  139.8890 C   0  0  0  0  0  0  0  0  0  0  0  0
  186.9690  177.4680  135.9610 C   0  0  0  0  0  0  0  0  0  0  0  0
  188.8680  177.1440  140.4900 C   0  0  1  0  0  3  0  0  0  0  0  0
  189.2260  177.4730  137.6240 C   0  0  0  0  0  0  0  0  0  0  0  0
  187.2700  177.8640  142.3990 C   0  0  0  0  0  2  0  0  0  0  0  0
  189.3760  179.0330  142.0610 O   0  0  0  0  0  1  0  0  0  0  0  0
  188.6740  177.8450  141.8400 C   0  0  2  0  0  0  0  0  0  0  0  0
  188.3380  176.9990  143.0630 C   0  0  1  0  0  3  0  0  0  0  0  0
  188.8090  177.6450  144.3640 C   0  0  2  0  0  3  0  0  0  0  0  0
  189.5400  176.7370  145.1850 O   0  0  0  0  0  0  0  0  0  0  0  0
  191.5760  175.9440  144.0280 C   0  0  0  0  0  1  0  0  0  0  0  0
  190.9580  176.8500  145.0900 C   0  0  2  0  0  0  0  0  0  0  0  0
  191.5540  176.5900  146.3270 O   0  0  0  0  0  1  0  0  0  0  0  0
  191.9840  178.3360  143.5180 F   0  0  0  0  0  0  0  0  0  0  0  0
  191.2870  178.2870  144.7140 C   0  0  0  0  0  2  0  0  0  0  0  0
  187.7610  178.2910  145.0360 O   0  0  0  0  0  0  0  0  0  0  0  0
  187.1550  177.3310  145.7180 O   0  0  0  0  0  0  0  0  0  0  0  0
  186.5630  177.9260  146.8540 C   0  0  1  0  0  3  0  0  0  0  0  0
  187.6130  178.3250  147.8880 C   0  0  0  0  0  2  0  0  0  0  0  0
  188.3830  177.1040  148.3600 C   0  0  0  0  0  1  0  0  0  0  0  0
  185.6550  179.0990  146.4850 C   0  0  0  0  0  2  0  0  0  0  0  0
  184.3690  178.6220  146.1190 O   0  0  0  0  0  0  0  0  0  0  0  0
  183.7300  179.0630  144.9590 C   0  0  0  0  0  3  0  0  0  0  0  0
  183.8080  178.4110  143.8820 O   0  0  0  0  0  0  0  0  0  0  0  0
  185.0440  178.8570  138.4190 C   0  0  0  0  0  1  0  0  0  0  0  0
  185.4350  177.4580  137.9780 C   0  0  0  0  0  2  0  0  0  0  0  0
  185.7990  177.4450  135.0280 C   0  0  0  0  0  2  0  0  0  0  0  0
  185.4410  176.0670  134.6890 N   0  0  0  0  0  2  0  0  0  0  0  0
  181.8400  173.7560  137.3010 C   0  0  0  0  0  2  0  0  0  0  0  0
  181.5560  175.9360  136.4190 C   0  0  2  0  0  3  0  0  0  0  0  0
  180.2940  174.4740  137.9570 S   0  0  0  0  0  0  0  0  0  0  0  0
  184.0030  175.8330  134.8620 C   0  0  2  0  0  3  0  0  0  0  0  0
  182.2060  174.6050  136.1210 C   0  0  2  0  0  0  0  0  0  0  0  0
  183.2280  177.1520  135.0540 C   0  0  0  0  0  2  0  0  0  0  0  0
  181.6710  174.0330  134.9620 O   0  0  0  0  0  1  0  0  0  0  0  0
  180.2190  175.6990  136.7350 O   0  0  0  0  0  0  0  0  0  0  0  0
  181.7320  176.9010  135.2530 C   0  0  0  0  0  2  0  0  0  0  0  0
  183.7130  174.7970  135.9680 C   0  0  0  0  0  2  0  0  0  0  0  0
  2 11  1  0  0  0  0
  4 33  1  0  0  0  0
  4  5  1  0  0  0  0
  5  1  1  0  0  0  0
  6  8  1  0  0  0  0
  7  9  1  0  0  0  0
  7  2  2  0  0  0  0
  8 10  1  0  0  0  0
  8  3  2  0  0  0  0
  9  4  2  0  0  0  0
 10  1  1  6  0  0  0
 10 14  1  0  0  0  0
 11  5  2  0  0  0  0
 11  6  1  0  0  0  0
 12 15  1  0  0  0  0
 14 13  1  1  0  0  0
 14 12  1  0  0  0  0
 14 15  1  0  0  0  0
 15 16  1  1  0  0  0
 16 23  1  1  0  0  0
 16 17  1  0  0  0  0
 19 18  1  6  0  0  0
 19 17  1  0  0  0  0
 19 20  1  0  0  0  0
 21 22  1  0  0  0  0
 22 19  1  0  0  0  0
 23 24  1  0  0  0  0
 24 25  1  0  0  0  0
 25 28  1  6  0  0  0
 25 26  1  0  0  0  0
 26 27  1  0  0  0  0
 29 28  1  0  0  0  0
 30 29  1  0  0  0  0
 31 30  2  0  0  0  0
 33 32  1  0  0  0  0
 34  9  1  0  0  0  0
 35 34  1  0  0  0  0
 36 38  1  0  0  0  0
 37 44  1  6  0  0  0
 37 43  1  0  0  0  0
 39 35  1  1  0  0  0
 39 41  1  0  0  0  0
 39 45  1  0  0  0  0
 40 42  1  6  0  0  0
 40 37  1  0  0  0  0
 40 36  1  0  0  0  0
 41 44  1  0  0  0  0
 43 38  1  0  0  0  0
 45 40  1  0  0  0  0
M  END
>  <MODEL>
5

>  <REMARK>
 VINA RESULT:      -7.0      3.334      6.338
  Name = 
  16 active torsions:
  status: ('A' for Active; 'I' for Inactive)
    1  A    between atoms: C_2  and  C_3
    2  A    between atoms: C_3  and  O_18
    3  A    between atoms: C_3  and  C_39
    4  A    between atoms: C_8  and  C_35
    5  A    between atoms: O_11  and  C_29
    6  A    between atoms: O_11  and  C_39
    7  A    between atoms: O_13  and  O_18
    8  A    between atoms: O_13  and  C_40
    9  A    between atoms: O_16  and  C_25
   10  A    between atoms: O_16  and  C_40
   11  A    between atoms: C_19  and  C_23
   12  A    between atoms: C_20  and  N_38
   13  A    between atoms: C_21  and  C_40
   14  A    between atoms: C_22  and  C_25
   15  A    between atoms: C_28  and  C_32
   16  A    between atoms: C_28  and  N_38
                            x       y       z     vdW  Elec       q    Type
                         _______ _______ _______ _____ _____    ______ ____

>  <TORSDO>
F 16

$$$$
=
 OpenBabel11062414243D

 45 49  0  0  1  0  0  0  0  0999 V2000
  189.5820  176.7730  140.4710 O   0  0  0  0  0  0  0  0  0  0  0  0
  192.5440  176.7960  138.2530 C   0  0  0  0  0  3  0  0  0  0  0  0
  192.1240  177.3230  142.9710 O   0  0  0  0  0  0  0  0  0  0  0  0
  189.7570  176.4870  138.0600 C   0  0  0  0  0  0  0  0  0  0  0  0
  190.3640  176.6950  139.3120 C   0  0  0  0  0  0  0  0  0  0  0  0
  192.3600  177.1000  140.6710 N   0  0  0  0  0  2  0  0  0  0  0  0
  191.9490  176.5730  137.0100 C   0  0  0  0  0  3  0  0  0  0  0  0
  191.5730  177.0850  141.8620 C   0  0  0  0  0  0  0  0  0  0  0  0
  190.5630  176.4100  136.9040 C   0  0  0  0  0  0  0  0  0  0  0  0
  190.1200  176.6820  141.7990 C   0  0  1  0  0  3  0  0  0  0  0  0
  191.7560  176.8500  139.4020 C   0  0  0  0  0  0  0  0  0  0  0  0
  187.8450  177.7850  142.3660 C   0  0  0  0  0  2  0  0  0  0  0  0
  189.8580  178.4560  143.5530 O   0  0  0  0  0  1  0  0  0  0  0  0
  189.2500  177.4440  142.8060 C   0  0  2  0  0  0  0  0  0  0  0  0
  188.0660  176.7260  143.4420 C   0  0  1  0  0  3  0  0  0  0  0  0
  187.7170  177.2890  144.8180 C   0  0  2  0  0  3  0  0  0  0  0  0
  188.4750  176.6780  145.8600 O   0  0  0  0  0  0  0  0  0  0  0  0
  188.0260  177.4930  148.1500 C   0  0  0  0  0  1  0  0  0  0  0  0
  188.8930  177.5630  146.8960 C   0  0  2  0  0  0  0  0  0  0  0  0
  188.9310  178.8800  146.4300 O   0  0  0  0  0  1  0  0  0  0  0  0
  190.4490  175.7990  147.3440 F   0  0  0  0  0  0  0  0  0  0  0  0
  190.3090  177.1770  147.2960 C   0  0  0  0  0  2  0  0  0  0  0  0
  186.3330  177.2800  145.0500 O   0  0  0  0  0  0  0  0  0  0  0  0
  185.9540  178.5370  144.8820 O   0  0  0  0  0  0  0  0  0  0  0  0
  184.7510  178.5240  144.1430 C   0  0  1  0  0  3  0  0  0  0  0  0
  183.5620  178.9490  145.0000 C   0  0  0  0  0  2  0  0  0  0  0  0
  182.2590  178.6740  144.2720 C   0  0  0  0  0  1  0  0  0  0  0  0
  184.8520  179.3500  142.8610 C   0  0  0  0  0  2  0  0  0  0  0  0
  184.5150  178.5480  141.7380 O   0  0  0  0  0  0  0  0  0  0  0  0
  184.2240  179.1160  140.4960 C   0  0  0  0  0  3  0  0  0  0  0  0
  185.1380  179.5780  139.7610 O   0  0  0  0  0  0  0  0  0  0  0  0
  187.6030  177.6830  137.7820 C   0  0  0  0  0  1  0  0  0  0  0  0
  188.2660  176.3300  137.9730 C   0  0  0  0  0  2  0  0  0  0  0  0
  189.9790  176.1560  135.5490 C   0  0  0  0  0  2  0  0  0  0  0  0
  190.3290  174.8140  135.0840 N   0  0  0  0  0  2  0  0  0  0  0  0
  185.5030  173.4620  134.9730 C   0  0  0  0  0  2  0  0  0  0  0  0
  187.2590  171.8750  134.8830 C   0  0  2  0  0  3  0  0  0  0  0  0
  184.8080  171.8170  134.5940 S   0  0  0  0  0  0  0  0  0  0  0  0
  189.3170  173.8300  135.4860 C   0  0  2  0  0  3  0  0  0  0  0  0
  186.8820  173.2020  135.5000 C   0  0  2  0  0  0  0  0  0  0  0  0
  189.6750  172.4110  135.0030 C   0  0  0  0  0  2  0  0  0  0  0  0
  186.8300  173.1090  136.8950 O   0  0  0  0  0  1  0  0  0  0  0  0
  186.2230  170.9760  135.1330 O   0  0  0  0  0  0  0  0  0  0  0  0
  188.6060  171.3940  135.4070 C   0  0  0  0  0  2  0  0  0  0  0  0
  187.8930  174.2650  135.0780 C   0  0  0  0  0  2  0  0  0  0  0  0
  2 11  1  0  0  0  0
  4  5  1  0  0  0  0
  5 11  2  0  0  0  0
  5  1  1  0  0  0  0
  6  8  1  0  0  0  0
  7  2  2  0  0  0  0
  8  3  2  0  0  0  0
  9  7  1  0  0  0  0
  9  4  2  0  0  0  0
 10  1  1  6  0  0  0
 10  8  1  0  0  0  0
 10 14  1  0  0  0  0
 11  6  1  0  0  0  0
 12 14  1  0  0  0  0
 12 15  1  0  0  0  0
 14 15  1  0  0  0  0
 14 13  1  1  0  0  0
 15 16  1  1  0  0  0
 16 23  1  1  0  0  0
 16 17  1  0  0  0  0
 17 19  1  0  0  0  0
 19 22  1  0  0  0  0
 19 18  1  1  0  0  0
 20 19  1  0  0  0  0
 22 21  1  0  0  0  0
 24 23  1  0  0  0  0
 25 28  1  6  0  0  0
 25 24  1  0  0  0  0
 25 26  1  0  0  0  0
 27 26  1  0  0  0  0
 29 28  1  0  0  0  0
 30 29  1  0  0  0  0
 31 30  2  0  0  0  0
 32 33  1  0  0  0  0
 33  4  1  0  0  0  0
 34  9  1  0  0  0  0
 35 34  1  0  0  0  0
 36 40  1  0  0  0  0
 37 43  1  0  0  0  0
 37 44  1  1  0  0  0
 37 40  1  0  0  0  0
 38 36  1  0  0  0  0
 38 43  1  0  0  0  0
 39 35  1  6  0  0  0
 40 42  1  1  0  0  0
 41 44  1  0  0  0  0
 41 39  1  0  0  0  0
 45 39  1  0  0  0  0
 45 40  1  0  0  0  0
M  END
>  <MODEL>
6

>  <REMARK>
 VINA RESULT:      -6.9      4.339      7.614
  Name = 
  16 active torsions:
  status: ('A' for Active; 'I' for Inactive)
    1  A    between atoms: C_2  and  C_3
    2  A    between atoms: C_3  and  O_18
    3  A    between atoms: C_3  and  C_39
    4  A    between atoms: C_8  and  C_35
    5  A    between atoms: O_11  and  C_29
    6  A    between atoms: O_11  and  C_39
    7  A    between atoms: O_13  and  O_18
    8  A    between atoms: O_13  and  C_40
    9  A    between atoms: O_16  and  C_25
   10  A    between atoms: O_16  and  C_40
   11  A    between atoms: C_19  and  C_23
   12  A    between atoms: C_20  and  N_38
   13  A    between atoms: C_21  and  C_40
   14  A    between atoms: C_22  and  C_25
   15  A    between atoms: C_28  and  C_32
   16  A    between atoms: C_28  and  N_38
                            x       y       z     vdW  Elec       q    Type
                         _______ _______ _______ _____ _____    ______ ____

>  <TORSDO>
F 16

$$$$
=
 OpenBabel11062414243D

 45 49  0  0  1  0  0  0  0  0999 V2000
  184.4190  178.4150  142.7160 O   0  0  0  0  0  0  0  0  0  0  0  0
  180.7950  179.1430  142.9080 C   0  0  0  0  0  3  0  0  0  0  0  0
  184.1730  179.0030  146.2660 O   0  0  0  0  0  0  0  0  0  0  0  0
  182.7230  178.4880  140.9700 C   0  0  0  0  0  0  0  0  0  0  0  0
  183.0920  178.6250  142.3210 C   0  0  0  0  0  0  0  0  0  0  0  0
  182.4980  179.0500  144.6580 N   0  0  0  0  0  2  0  0  0  0  0  0
  180.4280  179.0240  141.5660 C   0  0  0  0  0  3  0  0  0  0  0  0
  183.8670  178.9270  145.0460 C   0  0  0  0  0  0  0  0  0  0  0  0
  181.3810  178.7060  140.5920 C   0  0  0  0  0  0  0  0  0  0  0  0
  184.9410  178.8170  143.9900 C   0  0  1  0  0  3  0  0  0  0  0  0
  182.1240  178.9510  143.2850 C   0  0  0  0  0  0  0  0  0  0  0  0
  186.8980  177.2570  143.3200 C   0  0  0  0  0  2  0  0  0  0  0  0
  185.9130  177.0990  145.5380 O   0  0  0  0  0  1  0  0  0  0  0  0
  186.1060  177.9200  144.4240 C   0  0  2  0  0  0  0  0  0  0  0  0
  187.5310  178.3800  144.1370 C   0  0  1  0  0  3  0  0  0  0  0  0
  188.5370  177.8070  145.1330 C   0  0  2  0  0  3  0  0  0  0  0  0
  188.6430  178.6020  146.3120 O   0  0  0  0  0  0  0  0  0  0  0  0
  190.1680  178.1410  148.2020 C   0  0  0  0  0  1  0  0  0  0  0  0
  188.8320  177.8660  147.5180 C   0  0  2  0  0  0  0  0  0  0  0  0
  188.7040  176.4950  147.2790 O   0  0  0  0  0  1  0  0  0  0  0  0
  187.5640  177.3070  149.4700 F   0  0  0  0  0  0  0  0  0  0  0  0
  187.7290  178.2680  148.4860 C   0  0  0  0  0  2  0  0  0  0  0  0
  189.7720  177.5320  144.5270 O   0  0  0  0  0  0  0  0  0  0  0  0
  189.7160  176.2470  144.2130 O   0  0  0  0  0  0  0  0  0  0  0  0
  190.7650  175.9850  143.3060 C   0  0  1  0  0  3  0  0  0  0  0  0
  190.9410  177.1270  142.3080 C   0  0  0  0  0  2  0  0  0  0  0  0
  190.3660  176.7430  140.9560 C   0  0  0  0  0  1  0  0  0  0  0  0
  192.0740  175.6460  144.0180 C   0  0  0  0  0  2  0  0  0  0  0  0
  192.0360  176.1180  145.3560 O   0  0  0  0  0  0  0  0  0  0  0  0
  192.0980  175.2420  146.4420 C   0  0  0  0  0  3  0  0  0  0  0  0
  192.4280  175.6480  147.5890 O   0  0  0  0  0  0  0  0  0  0  0  0
  184.4140  179.3890  139.3960 C   0  0  0  0  0  1  0  0  0  0  0  0
  183.7640  178.1320  139.9480 C   0  0  0  0  0  2  0  0  0  0  0  0
  180.9360  178.6090  139.1670 C   0  0  0  0  0  2  0  0  0  0  0  0
  180.2180  177.3540  138.9390 N   0  0  0  0  0  2  0  0  0  0  0  0
  183.5060  177.1550  135.1610 C   0  0  0  0  0  2  0  0  0  0  0  0
  183.3150  175.4170  136.7580 C   0  0  2  0  0  3  0  0  0  0  0  0
  184.8770  175.9700  134.9280 S   0  0  0  0  0  0  0  0  0  0  0  0
  180.9090  176.5170  137.9520 C   0  0  2  0  0  3  0  0  0  0  0  0
  182.4950  176.4370  136.0020 C   0  0  2  0  0  0  0  0  0  0  0  0
  181.6830  175.3650  138.6220 C   0  0  0  0  0  2  0  0  0  0  0  0
  181.5640  175.8120  135.1660 O   0  0  0  0  0  1  0  0  0  0  0  0
  184.0900  174.7200  135.8330 O   0  0  0  0  0  0  0  0  0  0  0  0
  182.4190  174.5080  137.5900 C   0  0  0  0  0  2  0  0  0  0  0  0
  181.7840  177.3540  136.9940 C   0  0  0  0  0  2  0  0  0  0  0  0
  2 11  1  0  0  0  0
  4  5  1  0  0  0  0
  5  1  1  0  0  0  0
  5 11  2  0  0  0  0
  6  8  1  0  0  0  0
  7  2  2  0  0  0  0
  8  3  2  0  0  0  0
  9  4  2  0  0  0  0
  9  7  1  0  0  0  0
 10  1  1  6  0  0  0
 10 14  1  0  0  0  0
 10  8  1  0  0  0  0
 11  6  1  0  0  0  0
 12 15  1  0  0  0  0
 12 14  1  0  0  0  0
 14 13  1  1  0  0  0
 15 14  1  0  0  0  0
 15 16  1  1  0  0  0
 16 23  1  6  0  0  0
 16 17  1  0  0  0  0
 17 19  1  0  0  0  0
 19 18  1  1  0  0  0
 19 22  1  0  0  0  0
 20 19  1  0  0  0  0
 22 21  1  0  0  0  0
 24 23  1  0  0  0  0
 25 26  1  1  0  0  0
 25 28  1  0  0  0  0
 25 24  1  0  0  0  0
 27 26  1  0  0  0  0
 28 29  1  0  0  0  0
 29 30  1  0  0  0  0
 30 31  2  0  0  0  0
 32 33  1  0  0  0  0
 33  4  1  0  0  0  0
 34  9  1  0  0  0  0
 35 34  1  0  0  0  0
 36 40  1  0  0  0  0
 37 44  1  6  0  0  0
 38 36  1  0  0  0  0
 38 43  1  0  0  0  0
 39 41  1  0  0  0  0
 39 35  1  1  0  0  0
 40 42  1  6  0  0  0
 40 37  1  0  0  0  0
 40 45  1  0  0  0  0
 43 37  1  0  0  0  0
 44 41  1  0  0  0  0
 45 39  1  0  0  0  0
M  END
>  <MODEL>
7

>  <REMARK>
 VINA RESULT:      -6.6      2.025      2.678
  Name = 
  16 active torsions:
  status: ('A' for Active; 'I' for Inactive)
    1  A    between atoms: C_2  and  C_3
    2  A    between atoms: C_3  and  O_18
    3  A    between atoms: C_3  and  C_39
    4  A    between atoms: C_8  and  C_35
    5  A    between atoms: O_11  and  C_29
    6  A    between atoms: O_11  and  C_39
    7  A    between atoms: O_13  and  O_18
    8  A    between atoms: O_13  and  C_40
    9  A    between atoms: O_16  and  C_25
   10  A    between atoms: O_16  and  C_40
   11  A    between atoms: C_19  and  C_23
   12  A    between atoms: C_20  and  N_38
   13  A    between atoms: C_21  and  C_40
   14  A    between atoms: C_22  and  C_25
   15  A    between atoms: C_28  and  C_32
   16  A    between atoms: C_28  and  N_38
                            x       y       z     vdW  Elec       q    Type
                         _______ _______ _______ _____ _____    ______ ____

>  <TORSDO>
F 16

$$$$
=
 OpenBabel11062414243D

 45 49  0  0  1  0  0  0  0  0999 V2000
  187.6870  177.1980  138.8050 O   0  0  0  0  0  0  0  0  0  0  0  0
  188.1170  176.9540  135.1370 C   0  0  0  0  0  3  0  0  0  0  0  0
  191.2760  176.8500  138.7030 O   0  0  0  0  0  0  0  0  0  0  0  0
  186.0420  177.2440  137.0110 C   0  0  0  0  0  0  0  0  0  0  0  0
  187.3780  177.1380  137.4410 C   0  0  0  0  0  0  0  0  0  0  0  0
  189.7650  176.9270  136.9410 N   0  0  0  0  0  2  0  0  0  0  0  0
  186.7910  177.0420  134.7070 C   0  0  0  0  0  3  0  0  0  0  0  0
  190.0720  176.8950  138.3350 C   0  0  0  0  0  0  0  0  0  0  0  0
  185.7500  177.1780  135.6320 C   0  0  0  0  0  0  0  0  0  0  0  0
  188.9560  176.8060  139.3490 C   0  0  1  0  0  3  0  0  0  0  0  0
  188.4100  176.9950  136.5000 C   0  0  0  0  0  0  0  0  0  0  0  0
  188.3240  178.6900  141.0120 C   0  0  0  0  0  2  0  0  0  0  0  0
  190.6080  177.8600  140.9150 O   0  0  0  0  0  1  0  0  0  0  0  0
  189.2690  177.5700  140.6410 C   0  0  2  0  0  0  0  0  0  0  0  0
  188.3350  177.4040  141.8340 C   0  0  1  0  0  3  0  0  0  0  0  0
  189.0470  177.6330  143.1650 C   0  0  2  0  0  3  0  0  0  0  0  0
  189.7950  176.4920  143.5820 O   0  0  0  0  0  0  0  0  0  0  0  0
  190.6040  177.1140  145.8330 C   0  0  0  0  0  1  0  0  0  0  0  0
  190.9380  176.7830  144.3810 C   0  0  2  0  0  0  0  0  0  0  0  0
  191.6730  177.8310  143.8220 O   0  0  0  0  0  1  0  0  0  0  0  0
  191.3060  174.5610  143.5680 F   0  0  0  0  0  0  0  0  0  0  0  0
  191.8290  175.5490  144.3860 C   0  0  0  0  0  2  0  0  0  0  0  0
  188.1730  178.1220  144.1470 O   0  0  0  0  0  0  0  0  0  0  0  0
  187.6070  177.0410  144.6640 O   0  0  0  0  0  0  0  0  0  0  0  0
  186.4520  177.4580  145.3600 C   0  0  1  0  0  3  0  0  0  0  0  0
  186.7770  177.8570  146.7970 C   0  0  0  0  0  2  0  0  0  0  0  0
  186.0160  179.1130  147.1830 C   0  0  0  0  0  1  0  0  0  0  0  0
  185.6990  178.5640  144.6200 C   0  0  0  0  0  2  0  0  0  0  0  0
  184.9620  178.0110  143.5400 O   0  0  0  0  0  0  0  0  0  0  0  0
  184.6120  178.7780  142.4260 C   0  0  0  0  0  3  0  0  0  0  0  0
  185.3290  179.7430  142.0480 O   0  0  0  0  0  0  0  0  0  0  0  0
  184.8880  178.8390  138.5170 C   0  0  0  0  0  1  0  0  0  0  0  0
  184.9450  177.4040  138.0250 C   0  0  0  0  0  2  0  0  0  0  0  0
  184.3470  177.2510  135.1170 C   0  0  0  0  0  2  0  0  0  0  0  0
  183.9250  175.9490  134.5960 N   0  0  0  0  0  2  0  0  0  0  0  0
  180.1020  173.4350  136.6440 C   0  0  0  0  0  2  0  0  0  0  0  0
  182.3140  172.5880  136.6480 C   0  0  2  0  0  3  0  0  0  0  0  0
  180.0830  171.7060  137.2300 S   0  0  0  0  0  0  0  0  0  0  0  0
  183.4710  175.0660  135.6760 C   0  0  2  0  0  3  0  0  0  0  0  0
  181.5310  173.8770  136.7470 C   0  0  2  0  0  0  0  0  0  0  0  0
  184.2940  173.7650  135.7360 C   0  0  0  0  0  2  0  0  0  0  0  0
  181.7320  174.4920  137.9870 O   0  0  0  0  0  1  0  0  0  0  0  0
  181.7810  171.6910  137.5710 O   0  0  0  0  0  0  0  0  0  0  0  0
  183.8030  172.8390  136.8500 C   0  0  0  0  0  2  0  0  0  0  0  0
  181.9480  174.8140  135.6170 C   0  0  0  0  0  2  0  0  0  0  0  0
  1 10  1  0  0  0  0
  2 11  1  0  0  0  0
  4  5  1  0  0  0  0
  4 33  1  0  0  0  0
  5  1  1  0  0  0  0
  6  8  1  0  0  0  0
  7  2  2  0  0  0  0
  7  9  1  0  0  0  0
  8  3  2  0  0  0  0
  9  4  2  0  0  0  0
 10  8  1  6  0  0  0
 10 14  1  0  0  0  0
 11  6  1  0  0  0  0
 11  5  2  0  0  0  0
 12 15  1  0  0  0  0
 14 13  1  1  0  0  0
 14 12  1  0  0  0  0
 14 15  1  0  0  0  0
 15 16  1  1  0  0  0
 16 17  1  1  0  0  0
 16 23  1  0  0  0  0
 17 19  1  0  0  0  0
 19 22  1  0  0  0  0
 19 18  1  1  0  0  0
 20 19  1  0  0  0  0
 21 22  1  0  0  0  0
 23 24  1  0  0  0  0
 24 25  1  0  0  0  0
 25 28  1  6  0  0  0
 25 26  1  0  0  0  0
 26 27  1  0  0  0  0
 29 28  1  0  0  0  0
 30 29  1  0  0  0  0
 31 30  2  0  0  0  0
 33 32  1  0  0  0  0
 34  9  1  0  0  0  0
 35 34  1  0  0  0  0
 36 40  1  0  0  0  0
 36 38  1  0  0  0  0
 37 40  1  0  0  0  0
 37 44  1  1  0  0  0
 37 43  1  0  0  0  0
 38 43  1  0  0  0  0
 39 35  1  6  0  0  0
 39 41  1  0  0  0  0
 40 42  1  1  0  0  0
 41 44  1  0  0  0  0
 45 39  1  0  0  0  0
 45 40  1  0  0  0  0
M  END
>  <MODEL>
8

>  <REMARK>
 VINA RESULT:      -6.5      3.436      6.250
  Name = 
  16 active torsions:
  status: ('A' for Active; 'I' for Inactive)
    1  A    between atoms: C_2  and  C_3
    2  A    between atoms: C_3  and  O_18
    3  A    between atoms: C_3  and  C_39
    4  A    between atoms: C_8  and  C_35
    5  A    between atoms: O_11  and  C_29
    6  A    between atoms: O_11  and  C_39
    7  A    between atoms: O_13  and  O_18
    8  A    between atoms: O_13  and  C_40
    9  A    between atoms: O_16  and  C_25
   10  A    between atoms: O_16  and  C_40
   11  A    between atoms: C_19  and  C_23
   12  A    between atoms: C_20  and  N_38
   13  A    between atoms: C_21  and  C_40
   14  A    between atoms: C_22  and  C_25
   15  A    between atoms: C_28  and  C_32
   16  A    between atoms: C_28  and  N_38
                            x       y       z     vdW  Elec       q    Type
                         _______ _______ _______ _____ _____    ______ ____

>  <TORSDO>
F 16

$$$$
=
 OpenBabel11062414243D

 45 49  0  0  1  0  0  0  0  0999 V2000
  189.0570  176.7480  139.5270 O   0  0  0  0  0  0  0  0  0  0  0  0
  190.9840  176.6070  136.3700 C   0  0  0  0  0  3  0  0  0  0  0  0
  192.3330  177.4570  140.8610 O   0  0  0  0  0  0  0  0  0  0  0  0
  188.3320  176.2980  137.2470 C   0  0  0  0  0  0  0  0  0  0  0  0
  189.3550  176.5880  138.1680 C   0  0  0  0  0  0  0  0  0  0  0  0
  191.7030  177.0770  138.6580 N   0  0  0  0  0  2  0  0  0  0  0  0
  189.9750  176.3020  135.4550 C   0  0  0  0  0  3  0  0  0  0  0  0
  191.4150  177.1470  140.0550 C   0  0  0  0  0  0  0  0  0  0  0  0
  188.6520  176.1390  135.8820 C   0  0  0  0  0  0  0  0  0  0  0  0
  190.0510  176.7460  140.5620 C   0  0  1  0  0  3  0  0  0  0  0  0
  190.6780  176.7440  137.7240 C   0  0  0  0  0  0  0  0  0  0  0  0
  188.3190  178.3650  141.6090 C   0  0  0  0  0  2  0  0  0  0  0  0
  190.5840  178.2620  142.4890 O   0  0  0  0  0  1  0  0  0  0  0  0
  189.6010  177.5790  141.7680 C   0  0  2  0  0  0  0  0  0  0  0  0
  188.3530  177.1490  142.5310 C   0  0  1  0  0  3  0  0  0  0  0  0
  188.3830  177.5920  143.9920 C   0  0  2  0  0  3  0  0  0  0  0  0
  189.1970  176.7430  144.7980 O   0  0  0  0  0  0  0  0  0  0  0  0
  189.0780  177.3140  147.2000 C   0  0  0  0  0  1  0  0  0  0  0  0
  189.8500  177.3930  145.8860 C   0  0  2  0  0  0  0  0  0  0  0  0
  190.1040  178.7310  145.5750 O   0  0  0  0  0  1  0  0  0  0  0  0
  192.0620  176.9960  145.0620 F   0  0  0  0  0  0  0  0  0  0  0  0
  191.1920  176.7090  146.1000 C   0  0  0  0  0  2  0  0  0  0  0  0
  187.0920  177.7870  144.5050 O   0  0  0  0  0  0  0  0  0  0  0  0
  186.3120  177.8590  143.4380 O   0  0  0  0  0  0  0  0  0  0  0  0
  185.0070  178.1590  143.8850 C   0  0  1  0  0  3  0  0  0  0  0  0
  185.0190  179.2400  144.9620 C   0  0  0  0  0  2  0  0  0  0  0  0
  184.3630  178.7300  146.2330 C   0  0  0  0  0  1  0  0  0  0  0  0
  184.0690  178.5150  142.7330 C   0  0  0  0  0  2  0  0  0  0  0  0
  184.7980  179.1400  141.6870 O   0  0  0  0  0  0  0  0  0  0  0  0
  184.4030  179.0280  140.3520 C   0  0  0  0  0  3  0  0  0  0  0  0
  184.9000  179.7690  139.4610 O   0  0  0  0  0  0  0  0  0  0  0  0
  186.1150  177.3930  137.4240 C   0  0  0  0  0  1  0  0  0  0  0  0
  186.9180  176.1420  137.7300 C   0  0  0  0  0  2  0  0  0  0  0  0
  187.6130  175.7950  134.8610 C   0  0  0  0  0  2  0  0  0  0  0  0
  187.6040  174.3550  134.6040 N   0  0  0  0  0  2  0  0  0  0  0  0
  182.6510  174.0690  135.3210 C   0  0  0  0  0  2  0  0  0  0  0  0
  184.0410  172.1520  135.3510 C   0  0  2  0  0  3  0  0  0  0  0  0
  181.6080  172.5700  135.3620 S   0  0  0  0  0  0  0  0  0  0  0  0
  186.4980  173.6960  135.3090 C   0  0  2  0  0  3  0  0  0  0  0  0
  184.0200  173.6150  135.7280 C   0  0  2  0  0  0  0  0  0  0  0  0
  186.5040  172.1710  135.0840 C   0  0  0  0  0  2  0  0  0  0  0  0
  184.1650  173.7800  137.1090 O   0  0  0  0  0  1  0  0  0  0  0  0
  182.9060  171.5530  135.8940 O   0  0  0  0  0  0  0  0  0  0  0  0
  185.3380  171.4920  135.8040 C   0  0  0  0  0  2  0  0  0  0  0  0
  185.1360  174.3480  134.9880 C   0  0  0  0  0  2  0  0  0  0  0  0
  2 11  1  0  0  0  0
  4 33  1  0  0  0  0
  4  5  1  0  0  0  0
  5  1  1  0  0  0  0
  6  8  1  0  0  0  0
  7  9  1  0  0  0  0
  7  2  2  0  0  0  0
  8 10  1  0  0  0  0
  8  3  2  0  0  0  0
  9  4  2  0  0  0  0
 10  1  1  6  0  0  0
 10 14  1  0  0  0  0
 11  5  2  0  0  0  0
 11  6  1  0  0  0  0
 12 14  1  0  0  0  0
 12 15  1  0  0  0  0
 14 13  1  1  0  0  0
 14 15  1  0  0  0  0
 15 16  1  1  0  0  0
 16 23  1  1  0  0  0
 16 17  1  0  0  0  0
 17 19  1  0  0  0  0
 19 22  1  0  0  0  0
 19 18  1  1  0  0  0
 20 19  1  0  0  0  0
 21 22  1  0  0  0  0
 24 25  1  0  0  0  0
 24 23  1  0  0  0  0
 25 28  1  6  0  0  0
 25 26  1  0  0  0  0
 26 27  1  0  0  0  0
 29 28  1  0  0  0  0
 30 29  1  0  0  0  0
 31 30  2  0  0  0  0
 32 33  1  0  0  0  0
 34  9  1  0  0  0  0
 35 34  1  0  0  0  0
 36 38  1  0  0  0  0
 36 40  1  0  0  0  0
 37 40  1  0  0  0  0
 37 44  1  1  0  0  0
 37 43  1  0  0  0  0
 38 43  1  0  0  0  0
 39 35  1  6  0  0  0
 40 42  1  1  0  0  0
 41 39  1  0  0  0  0
 41 44  1  0  0  0  0
 45 39  1  0  0  0  0
 45 40  1  0  0  0  0
M  END
>  <MODEL>
9

>  <REMARK>
 VINA RESULT:      -6.5      3.900      6.947
  Name = 
  16 active torsions:
  status: ('A' for Active; 'I' for Inactive)
    1  A    between atoms: C_2  and  C_3
    2  A    between atoms: C_3  and  O_18
    3  A    between atoms: C_3  and  C_39
    4  A    between atoms: C_8  and  C_35
    5  A    between atoms: O_11  and  C_29
    6  A    between atoms: O_11  and  C_39
    7  A    between atoms: O_13  and  O_18
    8  A    between atoms: O_13  and  C_40
    9  A    between atoms: O_16  and  C_25
   10  A    between atoms: O_16  and  C_40
   11  A    between atoms: C_19  and  C_23
   12  A    between atoms: C_20  and  N_38
   13  A    between atoms: C_21  and  C_40
   14  A    between atoms: C_22  and  C_25
   15  A    between atoms: C_28  and  C_32
   16  A    between atoms: C_28  and  N_38
                            x       y       z     vdW  Elec       q    Type
                         _______ _______ _______ _____ _____    ______ ____

>  <TORSDO>
F 16

$$$$
