=
 OpenBabel11062413183D

 30 36  0  0  1  0  0  0  0  0999 V2000
  189.5370  177.2720  146.2880 C   0  0  0  0  0  0  0  0  0  0  0  0
  187.7780  177.9730  148.4940 C   0  0  0  0  0  2  0  0  0  0  0  0
  189.2880  178.1880  148.5900 C   0  0  0  0  0  2  0  0  0  0  0  0
  183.6200  178.4200  143.3880 C   0  0  2  0  0  3  0  0  0  0  0  0
  184.0480  178.9190  145.5010 C   0  0  0  0  0  2  0  0  0  0  0  0
  188.1440  177.6810  146.0160 C   0  0  0  0  0  0  0  0  0  0  0  0
  184.6580  178.5330  142.2920 C   0  0  2  0  0  3  0  0  0  0  0  0
  185.9770  178.1560  142.9090 C   0  0  2  0  0  0  0  0  0  0  0  0
  187.6500  177.7300  144.7160 C   0  0  0  0  0  3  0  0  0  0  0  0
  182.5970  179.3710  143.4900 O   0  0  0  0  0  0  0  0  0  0  0  0
  186.3370  178.1290  144.4260 C   0  0  0  0  0  0  0  0  0  0  0  0
  183.7760  179.6310  144.2180 C   0  0  2  0  0  3  0  0  0  0  0  0
  185.6970  179.4740  142.5030 O   0  0  0  0  0  0  0  0  0  0  0  0
  187.3060  178.0580  147.0700 C   0  0  0  0  0  0  0  0  0  0  0  0
  190.0280  177.1880  147.7030 C   0  0  0  0  0  2  0  0  0  0  0  0
  190.3090  176.9530  145.3450 O   0  0  0  0  0  0  0  0  0  0  0  0
  185.5090  178.5050  145.5570 C   0  0  0  0  0  0  0  0  0  0  0  0
  186.0310  178.4360  146.8130 N   0  0  0  0  0  0  0  0  0  0  0  0
  186.9020  177.4480  141.9160 C   0  0  0  0  0  2  0  0  0  0  0  0
  190.2750  177.5520  137.8580 C   0  0  0  0  0  2  0  0  0  0  0  0
  188.8650  178.4520  136.0480 C   0  0  0  0  0  1  0  0  0  0  0  0
  189.6820  177.2640  141.1240 C   0  0  0  0  0  2  0  0  0  0  0  0
  188.3700  176.2020  136.8750 C   0  0  0  0  0  1  0  0  0  0  0  0
  187.3060  178.3610  140.7610 C   0  0  2  0  0  3  0  0  0  0  0  0
  188.8370  177.5900  137.2930 C   0  0  0  0  0  0  0  0  0  0  0  0
  187.8310  177.5320  139.6100 C   0  0  1  0  0  3  0  0  0  0  0  0
  187.8250  178.2250  138.2620 C   0  0  0  0  0  2  0  0  0  0  0  0
  190.9110  177.0070  140.2500 C   0  0  0  0  0  2  0  0  0  0  0  0
  190.5400  176.4360  138.8790 C   0  0  0  0  0  2  0  0  0  0  0  0
  188.8060  178.3130  140.4600 C   0  0  2  0  0  3  0  0  0  0  0  0
  1 15  1  0  0  0  0
  2  3  1  0  0  0  0
  4 10  1  6  0  0  0
  4 12  1  0  0  0  0
  5 17  1  0  0  0  0
  6  1  1  0  0  0  0
  6 14  1  0  0  0  0
  7 13  1  1  0  0  0
  7  8  1  0  0  0  0
  7  4  1  0  0  0  0
  8 19  1  6  0  0  0
  8 11  1  0  0  0  0
  9  6  2  0  0  0  0
 10 12  1  0  0  0  0
 11  9  1  0  0  0  0
 11 17  2  0  0  0  0
 12  5  1  1  0  0  0
 13  8  1  0  0  0  0
 14  2  1  0  0  0  0
 15  3  1  0  0  0  0
 16  1  2  0  0  0  0
 17 18  1  0  0  0  0
 18 14  2  0  0  0  0
 20 29  1  0  0  0  0
 21 25  1  0  0  0  0
 23 25  1  0  0  0  0
 24 19  1  1  0  0  0
 25 20  1  0  0  0  0
 25 27  1  0  0  0  0
 26 27  1  6  0  0  0
 26 30  1  0  0  0  0
 26 24  1  0  0  0  0
 28 22  1  0  0  0  0
 29 28  1  0  0  0  0
 30 24  1  0  0  0  0
 30 22  1  1  0  0  0
M  END
>  <MODEL>
1

>  <REMARK>
 VINA RESULT:     -10.0      0.000      0.000
  Name = 
  2 active torsions:
  status: ('A' for Active; 'I' for Inactive)
    1  A    between atoms: C_1  and  C_12
    2  A    between atoms: C_1  and  C_14
                            x       y       z     vdW  Elec       q    Type
                         _______ _______ _______ _____ _____    ______ ____

>  <TORSDO>
F 2

$$$$
=
 OpenBabel11062413183D

 30 36  0  0  1  0  0  0  0  0999 V2000
  185.4350  178.6240  142.7950 C   0  0  0  0  0  0  0  0  0  0  0  0
  185.0250  178.6420  145.6730 C   0  0  0  0  0  2  0  0  0  0  0  0
  183.8840  178.3000  144.7160 C   0  0  0  0  0  2  0  0  0  0  0  0
  191.5100  177.4560  145.3390 C   0  0  2  0  0  3  0  0  0  0  0  0
  189.6620  177.4200  146.5550 C   0  0  0  0  0  2  0  0  0  0  0  0
  186.5600  178.3100  143.6990 C   0  0  0  0  0  0  0  0  0  0  0  0
  191.5540  176.9840  143.9000 C   0  0  2  0  0  3  0  0  0  0  0  0
  190.2330  177.3550  143.2850 C   0  0  2  0  0  0  0  0  0  0  0  0
  187.8230  178.0120  143.1980 C   0  0  0  0  0  3  0  0  0  0  0  0
  192.0590  176.6670  146.3560 O   0  0  0  0  0  0  0  0  0  0  0  0
  188.9060  177.6960  144.0310 C   0  0  0  0  0  0  0  0  0  0  0  0
  190.6950  176.4610  146.0640 C   0  0  2  0  0  3  0  0  0  0  0  0
  190.5900  176.0150  143.5250 O   0  0  0  0  0  0  0  0  0  0  0  0
  186.3580  178.2780  145.0830 C   0  0  0  0  0  0  0  0  0  0  0  0
  184.0950  178.9830  143.3660 C   0  0  0  0  0  2  0  0  0  0  0  0
  185.5970  178.6330  141.5460 O   0  0  0  0  0  0  0  0  0  0  0  0
  188.6430  177.6810  145.4590 C   0  0  0  0  0  0  0  0  0  0  0  0
  187.3940  177.9850  145.9060 N   0  0  0  0  0  0  0  0  0  0  0  0
  190.3620  177.7120  141.8020 C   0  0  0  0  0  2  0  0  0  0  0  0
  189.5360  176.6590  136.6980 C   0  0  0  0  0  2  0  0  0  0  0  0
  190.7580  174.5380  136.4120 C   0  0  0  0  0  1  0  0  0  0  0  0
  188.8040  178.3820  139.4540 C   0  0  0  0  0  2  0  0  0  0  0  0
  192.0650  176.5680  136.8120 C   0  0  0  0  0  1  0  0  0  0  0  0
  190.0170  176.5320  140.8990 C   0  0  2  0  0  3  0  0  0  0  0  0
  190.7680  175.8520  137.1640 C   0  0  0  0  0  0  0  0  0  0  0  0
  190.5820  176.7620  139.5140 C   0  0  1  0  0  3  0  0  0  0  0  0
  190.7340  175.5160  138.6650 C   0  0  0  0  0  2  0  0  0  0  0  0
  188.4280  178.5440  137.9800 C   0  0  0  0  0  2  0  0  0  0  0  0
  189.5740  178.1560  137.0420 C   0  0  0  0  0  2  0  0  0  0  0  0
  189.0960  176.9180  139.7390 C   0  0  2  0  0  3  0  0  0  0  0  0
  1 15  1  0  0  0  0
  1  6  1  0  0  0  0
  3  2  1  0  0  0  0
  4 12  1  0  0  0  0
  4 10  1  1  0  0  0
  6 14  1  0  0  0  0
  7 13  1  1  0  0  0
  7  4  1  0  0  0  0
  8 19  1  6  0  0  0
  8 13  1  0  0  0  0
  8  7  1  0  0  0  0
  8 11  1  0  0  0  0
  9  6  2  0  0  0  0
  9 11  1  0  0  0  0
 11 17  2  0  0  0  0
 12 10  1  0  0  0  0
 12  5  1  1  0  0  0
 14  2  1  0  0  0  0
 14 18  2  0  0  0  0
 15  3  1  0  0  0  0
 16  1  2  0  0  0  0
 17 18  1  0  0  0  0
 17  5  1  0  0  0  0
 20 29  1  0  0  0  0
 20 25  1  0  0  0  0
 21 25  1  0  0  0  0
 23 25  1  0  0  0  0
 24 19  1  1  0  0  0
 25 27  1  0  0  0  0
 26 27  1  6  0  0  0
 26 30  1  0  0  0  0
 26 24  1  0  0  0  0
 28 22  1  0  0  0  0
 29 28  1  0  0  0  0
 30 22  1  1  0  0  0
 30 24  1  0  0  0  0
M  END
>  <MODEL>
2

>  <REMARK>
 VINA RESULT:      -9.8      1.526      4.892
  Name = 
  2 active torsions:
  status: ('A' for Active; 'I' for Inactive)
    1  A    between atoms: C_1  and  C_12
    2  A    between atoms: C_1  and  C_14
                            x       y       z     vdW  Elec       q    Type
                         _______ _______ _______ _____ _____    ______ ____

>  <TORSDO>
F 2

$$$$
=
 OpenBabel11062413183D

 30 36  0  0  1  0  0  0  0  0999 V2000
  189.3620  177.2880  141.3810 C   0  0  0  0  0  0  0  0  0  0  0  0
  191.8590  177.1490  142.8640 C   0  0  0  0  0  2  0  0  0  0  0  0
  191.8160  177.7090  141.4420 C   0  0  0  0  0  2  0  0  0  0  0  0
  187.4840  177.4200  147.7990 C   0  0  2  0  0  3  0  0  0  0  0  0
  189.5880  177.6410  147.1500 C   0  0  0  0  0  2  0  0  0  0  0  0
  189.3470  177.3820  142.8540 C   0  0  0  0  0  0  0  0  0  0  0  0
  186.3180  177.9690  147.0040 C   0  0  2  0  0  3  0  0  0  0  0  0
  186.6830  177.8290  145.5520 C   0  0  2  0  0  0  0  0  0  0  0  0
  188.1530  177.5280  143.5540 C   0  0  0  0  0  3  0  0  0  0  0  0
  187.8980  178.0570  148.9740 O   0  0  0  0  0  0  0  0  0  0  0  0
  188.1100  177.6340  144.9510 C   0  0  0  0  0  0  0  0  0  0  0  0
  188.5180  178.4720  147.7780 C   0  0  2  0  0  3  0  0  0  0  0  0
  186.5910  179.0870  146.1770 O   0  0  0  0  0  0  0  0  0  0  0  0
  190.5490  177.3560  143.5700 C   0  0  0  0  0  0  0  0  0  0  0  0
  190.6620  177.0890  140.6580 C   0  0  0  0  0  2  0  0  0  0  0  0
  188.2890  177.3340  140.7230 O   0  0  0  0  0  0  0  0  0  0  0  0
  189.3840  177.5970  145.6450 C   0  0  0  0  0  0  0  0  0  0  0  0
  190.5280  177.4470  144.9220 N   0  0  0  0  0  0  0  0  0  0  0  0
  185.4640  177.5500  144.6700 C   0  0  0  0  0  2  0  0  0  0  0  0
  181.6400  179.3600  141.5150 C   0  0  0  0  0  2  0  0  0  0  0  0
  180.0970  180.4000  143.1310 C   0  0  0  0  0  1  0  0  0  0  0  0
  184.7070  178.1270  141.9350 C   0  0  0  0  0  2  0  0  0  0  0  0
  180.3030  177.9610  143.1500 C   0  0  0  0  0  1  0  0  0  0  0  0
  184.5940  178.7910  144.4890 C   0  0  2  0  0  3  0  0  0  0  0  0
  181.0750  179.2580  142.9500 C   0  0  0  0  0  0  0  0  0  0  0  0
  183.2770  178.4070  143.8500 C   0  0  1  0  0  3  0  0  0  0  0  0
  182.1560  179.4100  144.0350 C   0  0  0  0  0  2  0  0  0  0  0  0
  183.8210  178.3520  140.7070 C   0  0  0  0  0  2  0  0  0  0  0  0
  182.3410  178.0920  141.0040 C   0  0  0  0  0  2  0  0  0  0  0  0
  184.3210  179.1190  143.0200 C   0  0  2  0  0  3  0  0  0  0  0  0
  1  6  1  0  0  0  0
  2 14  1  0  0  0  0
  3  2  1  0  0  0  0
  4 10  1  1  0  0  0
  6  9  2  0  0  0  0
  6 14  1  0  0  0  0
  7 13  1  1  0  0  0
  7  4  1  0  0  0  0
  8 19  1  6  0  0  0
  8 13  1  0  0  0  0
  8  7  1  0  0  0  0
  9 11  1  0  0  0  0
 11  8  1  0  0  0  0
 11 17  2  0  0  0  0
 12  5  1  1  0  0  0
 12  4  1  0  0  0  0
 12 10  1  0  0  0  0
 14 18  2  0  0  0  0
 15  1  1  0  0  0  0
 15  3  1  0  0  0  0
 16  1  2  0  0  0  0
 17  5  1  0  0  0  0
 18 17  1  0  0  0  0
 20 25  1  0  0  0  0
 24 19  1  6  0  0  0
 25 21  1  0  0  0  0
 25 23  1  0  0  0  0
 25 27  1  0  0  0  0
 26 27  1  1  0  0  0
 26 24  1  0  0  0  0
 28 29  1  0  0  0  0
 28 22  1  0  0  0  0
 29 20  1  0  0  0  0
 30 22  1  6  0  0  0
 30 26  1  0  0  0  0
 30 24  1  0  0  0  0
M  END
>  <MODEL>
3

>  <REMARK>
 VINA RESULT:      -9.6      2.587      6.439
  Name = 
  2 active torsions:
  status: ('A' for Active; 'I' for Inactive)
    1  A    between atoms: C_1  and  C_12
    2  A    between atoms: C_1  and  C_14
                            x       y       z     vdW  Elec       q    Type
                         _______ _______ _______ _____ _____    ______ ____

>  <TORSDO>
F 2

$$$$
=
 OpenBabel11062413183D

 30 36  0  0  1  0  0  0  0  0999 V2000
  184.9970  178.0790  142.9660 C   0  0  0  0  0  0  0  0  0  0  0  0
  185.0990  179.2310  145.6340 C   0  0  0  0  0  2  0  0  0  0  0  0
  183.7910  178.6860  145.0580 C   0  0  0  0  0  2  0  0  0  0  0  0
  191.3550  177.2670  144.8800 C   0  0  2  0  0  3  0  0  0  0  0  0
  189.7490  177.9080  146.2600 C   0  0  0  0  0  2  0  0  0  0  0  0
  186.2450  178.0030  143.7520 C   0  0  0  0  0  0  0  0  0  0  0  0
  191.1230  176.2850  143.7510 C   0  0  2  0  0  3  0  0  0  0  0  0
  189.7360  176.5460  143.2330 C   0  0  2  0  0  0  0  0  0  0  0  0
  187.3850  177.3940  143.2360 C   0  0  0  0  0  3  0  0  0  0  0  0
  192.0330  176.8640  146.0360 O   0  0  0  0  0  0  0  0  0  0  0  0
  188.5790  177.2940  143.9650 C   0  0  0  0  0  0  0  0  0  0  0  0
  190.6300  176.7230  146.0440 C   0  0  2  0  0  3  0  0  0  0  0  0
  190.0600  175.3640  143.9260 O   0  0  0  0  0  0  0  0  0  0  0  0
  186.2870  178.5200  145.0520 C   0  0  0  0  0  0  0  0  0  0  0  0
  183.7980  178.7790  143.5340 C   0  0  0  0  0  2  0  0  0  0  0  0
  184.9390  177.5970  141.8040 O   0  0  0  0  0  0  0  0  0  0  0  0
  188.5690  177.8500  145.3050 C   0  0  0  0  0  0  0  0  0  0  0  0
  187.4340  178.4430  145.7690 N   0  0  0  0  0  0  0  0  0  0  0  0
  189.6220  176.2990  141.7260 C   0  0  0  0  0  2  0  0  0  0  0  0
  189.4120  178.0310  136.7460 C   0  0  0  0  0  2  0  0  0  0  0  0
  187.4290  179.4930  136.7990 C   0  0  0  0  0  1  0  0  0  0  0  0
  191.0560  176.5210  139.2200 C   0  0  0  0  0  2  0  0  0  0  0  0
  187.0810  177.0810  137.0310 C   0  0  0  0  0  1  0  0  0  0  0  0
  189.3730  177.5910  140.9530 C   0  0  2  0  0  3  0  0  0  0  0  0
  188.0190  178.2280  137.3850 C   0  0  0  0  0  0  0  0  0  0  0  0
  188.8000  177.2710  139.5900 C   0  0  1  0  0  3  0  0  0  0  0  0
  188.0780  178.4180  138.9100 C   0  0  0  0  0  2  0  0  0  0  0  0
  191.3050  176.6530  137.7160 C   0  0  0  0  0  2  0  0  0  0  0  0
  190.0060  176.6240  136.9070 C   0  0  0  0  0  2  0  0  0  0  0  0
  190.2410  177.7120  139.6990 C   0  0  2  0  0  3  0  0  0  0  0  0
  1 15  1  0  0  0  0
  1  6  1  0  0  0  0
  3  2  1  0  0  0  0
  4 10  1  1  0  0  0
  4 12  1  0  0  0  0
  6 14  1  0  0  0  0
  7 13  1  1  0  0  0
  7  4  1  0  0  0  0
  8 19  1  6  0  0  0
  8  7  1  0  0  0  0
  8 13  1  0  0  0  0
  8 11  1  0  0  0  0
  9  6  2  0  0  0  0
  9 11  1  0  0  0  0
 10 12  1  0  0  0  0
 11 17  2  0  0  0  0
 12  5  1  1  0  0  0
 14  2  1  0  0  0  0
 14 18  2  0  0  0  0
 15  3  1  0  0  0  0
 16  1  2  0  0  0  0
 17 18  1  0  0  0  0
 17  5  1  0  0  0  0
 20 29  1  0  0  0  0
 20 25  1  0  0  0  0
 21 25  1  0  0  0  0
 23 25  1  0  0  0  0
 24 19  1  1  0  0  0
 25 27  1  0  0  0  0
 26 27  1  6  0  0  0
 26 30  1  0  0  0  0
 26 24  1  0  0  0  0
 28 22  1  0  0  0  0
 29 28  1  0  0  0  0
 30 22  1  1  0  0  0
 30 24  1  0  0  0  0
M  END
>  <MODEL>
4

>  <REMARK>
 VINA RESULT:      -9.1      1.506      4.599
  Name = 
  2 active torsions:
  status: ('A' for Active; 'I' for Inactive)
    1  A    between atoms: C_1  and  C_12
    2  A    between atoms: C_1  and  C_14
                            x       y       z     vdW  Elec       q    Type
                         _______ _______ _______ _____ _____    ______ ____

>  <TORSDO>
F 2

$$$$
=
 OpenBabel11062413183D

 30 36  0  0  1  0  0  0  0  0999 V2000
  189.2510  177.5040  140.8300 C   0  0  0  0  0  0  0  0  0  0  0  0
  190.4010  176.5900  143.3390 C   0  0  0  0  0  2  0  0  0  0  0  0
  191.2860  177.1290  142.2150 C   0  0  0  0  0  2  0  0  0  0  0  0
  184.3170  178.2530  145.2850 C   0  0  2  0  0  3  0  0  0  0  0  0
  186.4050  177.7950  145.8580 C   0  0  0  0  0  2  0  0  0  0  0  0
  188.4670  177.6050  142.0780 C   0  0  0  0  0  0  0  0  0  0  0  0
  183.9650  179.1380  144.1080 C   0  0  2  0  0  3  0  0  0  0  0  0
  185.0040  178.8830  143.0520 C   0  0  2  0  0  0  0  0  0  0  0  0
  187.1760  178.1240  142.0760 C   0  0  0  0  0  3  0  0  0  0  0  0
  184.1830  178.7320  146.5930 O   0  0  0  0  0  0  0  0  0  0  0  0
  186.4140  178.2450  143.2470 C   0  0  0  0  0  0  0  0  0  0  0  0
  185.4360  178.9250  145.9750 C   0  0  2  0  0  3  0  0  0  0  0  0
  184.9300  180.1090  143.7390 O   0  0  0  0  0  0  0  0  0  0  0  0
  189.0310  177.2040  143.2940 C   0  0  0  0  0  0  0  0  0  0  0  0
  190.6240  176.9010  140.8570 C   0  0  0  0  0  2  0  0  0  0  0  0
  188.7630  177.8830  139.7330 O   0  0  0  0  0  0  0  0  0  0  0  0
  187.0450  177.8110  144.4800 C   0  0  0  0  0  0  0  0  0  0  0  0
  188.3070  177.3030  144.4350 N   0  0  0  0  0  0  0  0  0  0  0  0
  184.4330  178.9990  141.6360 C   0  0  0  0  0  2  0  0  0  0  0  0
  181.3640  177.2130  137.7320 C   0  0  0  0  0  2  0  0  0  0  0  0
  181.1330  174.8300  138.3170 C   0  0  0  0  0  1  0  0  0  0  0  0
  182.6900  179.7440  139.4460 C   0  0  0  0  0  2  0  0  0  0  0  0
  183.3280  175.6210  137.5770 C   0  0  0  0  0  1  0  0  0  0  0  0
  183.2310  178.0820  141.4270 C   0  0  2  0  0  3  0  0  0  0  0  0
  182.0860  176.0050  138.3700 C   0  0  0  0  0  0  0  0  0  0  0  0
  183.2750  177.4860  140.0370 C   0  0  1  0  0  3  0  0  0  0  0  0
  182.4460  176.2310  139.8490 C   0  0  0  0  0  2  0  0  0  0  0  0
  181.9330  179.6520  138.1190 C   0  0  0  0  0  2  0  0  0  0  0  0
  182.2800  178.3820  137.3390 C   0  0  0  0  0  2  0  0  0  0  0  0
  182.2810  178.5840  140.3380 C   0  0  2  0  0  3  0  0  0  0  0  0
  1 15  1  0  0  0  0
  1  6  1  0  0  0  0
  3  2  1  0  0  0  0
  4 12  1  0  0  0  0
  4 10  1  1  0  0  0
  6 14  1  0  0  0  0
  7 13  1  1  0  0  0
  7  4  1  0  0  0  0
  8 19  1  6  0  0  0
  8 11  1  0  0  0  0
  8 13  1  0  0  0  0
  8  7  1  0  0  0  0
  9  6  2  0  0  0  0
  9 11  1  0  0  0  0
 11 17  2  0  0  0  0
 12  5  1  1  0  0  0
 12 10  1  0  0  0  0
 14  2  1  0  0  0  0
 14 18  2  0  0  0  0
 15  3  1  0  0  0  0
 16  1  2  0  0  0  0
 17  5  1  0  0  0  0
 18 17  1  0  0  0  0
 20 25  1  0  0  0  0
 21 25  1  0  0  0  0
 23 25  1  0  0  0  0
 24 19  1  6  0  0  0
 25 27  1  0  0  0  0
 26 27  1  1  0  0  0
 26 30  1  0  0  0  0
 26 24  1  0  0  0  0
 28 22  1  0  0  0  0
 29 20  1  0  0  0  0
 29 28  1  0  0  0  0
 30 22  1  6  0  0  0
 30 24  1  0  0  0  0
M  END
>  <MODEL>
5

>  <REMARK>
 VINA RESULT:      -9.0      3.193      5.391
  Name = 
  2 active torsions:
  status: ('A' for Active; 'I' for Inactive)
    1  A    between atoms: C_1  and  C_12
    2  A    between atoms: C_1  and  C_14
                            x       y       z     vdW  Elec       q    Type
                         _______ _______ _______ _____ _____    ______ ____

>  <TORSDO>
F 2

$$$$
=
 OpenBabel11062413183D

 30 36  0  0  1  0  0  0  0  0999 V2000
  188.0020  177.8330  146.2630 C   0  0  0  0  0  0  0  0  0  0  0  0
  190.8220  177.1280  146.2420 C   0  0  0  0  0  2  0  0  0  0  0  0
  189.8870  176.6080  147.3330 C   0  0  0  0  0  2  0  0  0  0  0  0
  189.7950  178.3800  139.8430 C   0  0  2  0  0  3  0  0  0  0  0  0
  191.0860  177.4560  141.3850 C   0  0  0  0  0  2  0  0  0  0  0  0
  188.7300  177.7580  144.9810 C   0  0  0  0  0  0  0  0  0  0  0  0
  188.2860  178.2530  139.8530 C   0  0  2  0  0  3  0  0  0  0  0  0
  187.8640  178.2530  141.2960 C   0  0  2  0  0  0  0  0  0  0  0  0
  188.0920  178.0280  143.7740 C   0  0  0  0  0  3  0  0  0  0  0  0
  190.5580  177.6460  138.9270 O   0  0  0  0  0  0  0  0  0  0  0  0
  188.7540  177.9510  142.5410 C   0  0  0  0  0  0  0  0  0  0  0  0
  190.3150  177.0390  140.1760 C   0  0  2  0  0  3  0  0  0  0  0  0
  187.7550  177.1040  140.4910 O   0  0  0  0  0  0  0  0  0  0  0  0
  190.0770  177.3800  144.9620 C   0  0  0  0  0  0  0  0  0  0  0  0
  188.7280  177.5780  147.5510 C   0  0  0  0  0  2  0  0  0  0  0  0
  186.7830  178.1490  146.2930 O   0  0  0  0  0  0  0  0  0  0  0  0
  190.1510  177.5590  142.5780 C   0  0  0  0  0  0  0  0  0  0  0  0
  190.7380  177.3100  143.7810 N   0  0  0  0  0  0  0  0  0  0  0  0
  186.5030  178.9230  141.5040 C   0  0  0  0  0  2  0  0  0  0  0  0
  181.4380  178.4210  142.8960 C   0  0  0  0  0  2  0  0  0  0  0  0
  180.4330  177.5110  140.8390 C   0  0  0  0  0  1  0  0  0  0  0  0
  184.6310  178.9090  143.7130 C   0  0  0  0  0  2  0  0  0  0  0  0
  181.2310  179.8240  140.7980 C   0  0  0  0  0  1  0  0  0  0  0  0
  185.3520  177.9310  141.3670 C   0  0  2  0  0  3  0  0  0  0  0  0
  181.5160  178.4350  141.3540 C   0  0  0  0  0  0  0  0  0  0  0  0
  184.0310  178.6690  141.3960 C   0  0  1  0  0  3  0  0  0  0  0  0
  182.8570  177.9090  140.8130 C   0  0  0  0  0  2  0  0  0  0  0  0
  183.3140  179.0510  144.4800 C   0  0  0  0  0  2  0  0  0  0  0  0
  182.1800  179.5710  143.5930 C   0  0  0  0  0  2  0  0  0  0  0  0
  184.4600  177.8780  142.6100 C   0  0  2  0  0  3  0  0  0  0  0  0
  1 16  2  0  0  0  0
  1 15  1  0  0  0  0
  2  3  1  0  0  0  0
  3 15  1  0  0  0  0
  4 10  1  6  0  0  0
  4  7  1  0  0  0  0
  4 12  1  0  0  0  0
  5 17  1  0  0  0  0
  6  1  1  0  0  0  0
  7 13  1  1  0  0  0
  7  8  1  0  0  0  0
  8 19  1  1  0  0  0
  8 11  1  0  0  0  0
  9  6  2  0  0  0  0
 10 12  1  0  0  0  0
 11 17  2  0  0  0  0
 11  9  1  0  0  0  0
 12  5  1  1  0  0  0
 13  8  1  0  0  0  0
 14  6  1  0  0  0  0
 14  2  1  0  0  0  0
 17 18  1  0  0  0  0
 18 14  2  0  0  0  0
 20 29  1  0  0  0  0
 21 25  1  0  0  0  0
 22 28  1  0  0  0  0
 23 25  1  0  0  0  0
 24 26  1  0  0  0  0
 24 19  1  1  0  0  0
 24 30  1  0  0  0  0
 25 20  1  0  0  0  0
 26 27  1  6  0  0  0
 26 30  1  0  0  0  0
 27 25  1  0  0  0  0
 29 28  1  0  0  0  0
 30 22  1  1  0  0  0
M  END
>  <MODEL>
6

>  <REMARK>
 VINA RESULT:      -9.0      2.456      6.016
  Name = 
  2 active torsions:
  status: ('A' for Active; 'I' for Inactive)
    1  A    between atoms: C_1  and  C_12
    2  A    between atoms: C_1  and  C_14
                            x       y       z     vdW  Elec       q    Type
                         _______ _______ _______ _____ _____    ______ ____

>  <TORSDO>
F 2

$$$$
=
 OpenBabel11062413183D

 30 36  0  0  1  0  0  0  0  0999 V2000
  184.7610  178.8210  142.3430 C   0  0  0  0  0  0  0  0  0  0  0  0
  184.9950  178.7160  145.2390 C   0  0  0  0  0  2  0  0  0  0  0  0
  183.6640  178.4320  144.5440 C   0  0  0  0  0  2  0  0  0  0  0  0
  191.2180  177.4590  143.4330 C   0  0  2  0  0  3  0  0  0  0  0  0
  189.6830  177.3940  145.0250 C   0  0  0  0  0  2  0  0  0  0  0  0
  186.0500  178.4520  142.9630 C   0  0  0  0  0  0  0  0  0  0  0  0
  190.9340  177.0520  142.0020 C   0  0  2  0  0  3  0  0  0  0  0  0
  189.5190  177.4670  141.7100 C   0  0  2  0  0  0  0  0  0  0  0  0
  187.1650  178.1600  142.1830 C   0  0  0  0  0  3  0  0  0  0  0  0
  191.9600  176.6180  144.2710 O   0  0  0  0  0  0  0  0  0  0  0  0
  188.3970  177.7920  142.7440 C   0  0  0  0  0  0  0  0  0  0  0  0
  190.5610  176.4440  144.2800 C   0  0  2  0  0  3  0  0  0  0  0  0
  189.8900  176.1130  141.8100 O   0  0  0  0  0  0  0  0  0  0  0  0
  186.1570  178.3610  144.3540 C   0  0  0  0  0  0  0  0  0  0  0  0
  183.5890  179.1720  143.2100 C   0  0  0  0  0  2  0  0  0  0  0  0
  184.6450  178.8850  141.0900 O   0  0  0  0  0  0  0  0  0  0  0  0
  188.4540  177.7170  144.1920 C   0  0  0  0  0  0  0  0  0  0  0  0
  187.3410  178.0170  144.9160 N   0  0  0  0  0  0  0  0  0  0  0  0
  189.3270  177.8890  140.2510 C   0  0  0  0  0  2  0  0  0  0  0  0
  187.4680  176.7660  135.4410 C   0  0  0  0  0  2  0  0  0  0  0  0
  189.1610  175.1880  134.5970 C   0  0  0  0  0  1  0  0  0  0  0  0
  187.0410  178.0640  138.4800 C   0  0  0  0  0  2  0  0  0  0  0  0
  189.8210  177.5260  134.8900 C   0  0  0  0  0  1  0  0  0  0  0  0
  189.1300  176.6880  139.3310 C   0  0  2  0  0  3  0  0  0  0  0  0
  188.9700  176.4070  135.4750 C   0  0  0  0  0  0  0  0  0  0  0  0
  189.1790  177.1340  137.8860 C   0  0  1  0  0  3  0  0  0  0  0  0
  189.4690  176.0360  136.8820 C   0  0  0  0  0  2  0  0  0  0  0  0
  186.2330  178.1320  137.1830 C   0  0  0  0  0  2  0  0  0  0  0  0
  187.1280  178.1780  135.9420 C   0  0  0  0  0  2  0  0  0  0  0  0
  187.8470  176.7760  138.5020 C   0  0  2  0  0  3  0  0  0  0  0  0
  1  6  1  0  0  0  0
  1 15  1  0  0  0  0
  3  2  1  0  0  0  0
  4 10  1  6  0  0  0
  4 12  1  0  0  0  0
  6 14  1  0  0  0  0
  7 13  1  1  0  0  0
  7  4  1  0  0  0  0
  8 19  1  6  0  0  0
  8 13  1  0  0  0  0
  8  7  1  0  0  0  0
  8 11  1  0  0  0  0
  9 11  1  0  0  0  0
  9  6  2  0  0  0  0
 10 12  1  0  0  0  0
 11 17  2  0  0  0  0
 12  5  1  1  0  0  0
 14 18  2  0  0  0  0
 14  2  1  0  0  0  0
 15  3  1  0  0  0  0
 16  1  2  0  0  0  0
 17 18  1  0  0  0  0
 17  5  1  0  0  0  0
 20 25  1  0  0  0  0
 20 29  1  0  0  0  0
 21 25  1  0  0  0  0
 23 25  1  0  0  0  0
 24 19  1  1  0  0  0
 25 27  1  0  0  0  0
 26 27  1  6  0  0  0
 26 30  1  0  0  0  0
 26 24  1  0  0  0  0
 28 22  1  0  0  0  0
 29 28  1  0  0  0  0
 30 22  1  1  0  0  0
 30 24  1  0  0  0  0
M  END
>  <MODEL>
7

>  <REMARK>
 VINA RESULT:      -8.9      1.790      5.034
  Name = 
  2 active torsions:
  status: ('A' for Active; 'I' for Inactive)
    1  A    between atoms: C_1  and  C_12
    2  A    between atoms: C_1  and  C_14
                            x       y       z     vdW  Elec       q    Type
                         _______ _______ _______ _____ _____    ______ ____

>  <TORSDO>
F 2

$$$$
=
 OpenBabel11062413183D

 30 36  0  0  1  0  0  0  0  0999 V2000
  183.5980  178.1770  141.8410 C   0  0  0  0  0  0  0  0  0  0  0  0
  182.2290  179.6270  143.9560 C   0  0  0  0  0  2  0  0  0  0  0  0
  181.4470  178.8300  142.9120 C   0  0  0  0  0  2  0  0  0  0  0  0
  188.1000  178.5510  146.7730 C   0  0  2  0  0  3  0  0  0  0  0  0
  185.9720  179.0960  147.0350 C   0  0  0  0  0  2  0  0  0  0  0  0
  184.2640  178.3790  143.1430 C   0  0  0  0  0  0  0  0  0  0  0  0
  188.5530  177.4230  145.8700 C   0  0  2  0  0  3  0  0  0  0  0  0
  187.6160  177.4120  144.6940 C   0  0  2  0  0  0  0  0  0  0  0  0
  185.5470  177.8930  143.3780 C   0  0  0  0  0  3  0  0  0  0  0  0
  188.1120  178.3880  148.1640 O   0  0  0  0  0  0  0  0  0  0  0  0
  186.1980  178.0570  144.6090 C   0  0  0  0  0  0  0  0  0  0  0  0
  186.9190  178.0400  147.4960 C   0  0  2  0  0  3  0  0  0  0  0  0
  187.6200  176.3790  145.6500 O   0  0  0  0  0  0  0  0  0  0  0  0
  183.5940  179.0400  144.1780 C   0  0  0  0  0  0  0  0  0  0  0  0
  182.2320  178.7490  141.6040 C   0  0  0  0  0  2  0  0  0  0  0  0
  184.1810  177.5620  140.9090 O   0  0  0  0  0  0  0  0  0  0  0  0
  185.4600  178.7540  145.6460 C   0  0  0  0  0  0  0  0  0  0  0  0
  184.2100  179.2180  145.3710 N   0  0  0  0  0  0  0  0  0  0  0  0
  188.3120  176.9810  143.4000 C   0  0  0  0  0  2  0  0  0  0  0  0
  190.1630  177.9760  138.5590 C   0  0  0  0  0  2  0  0  0  0  0  0
  188.1620  178.8540  137.4210 C   0  0  0  0  0  1  0  0  0  0  0  0
  190.6910  177.2690  141.7720 C   0  0  0  0  0  2  0  0  0  0  0  0
  188.1860  176.4840  138.0290 C   0  0  0  0  0  1  0  0  0  0  0  0
  188.2290  178.0560  142.3210 C   0  0  2  0  0  3  0  0  0  0  0  0
  188.6240  177.8720  138.4760 C   0  0  0  0  0  0  0  0  0  0  0  0
  188.4330  177.4330  140.9570 C   0  0  1  0  0  3  0  0  0  0  0  0
  187.9220  178.2560  139.7910 C   0  0  0  0  0  2  0  0  0  0  0  0
  191.5900  177.2790  140.5340 C   0  0  0  0  0  2  0  0  0  0  0  0
  190.8540  176.8070  139.2780 C   0  0  0  0  0  2  0  0  0  0  0  0
  189.5480  178.2500  141.5690 C   0  0  2  0  0  3  0  0  0  0  0  0
  1  6  1  0  0  0  0
  2 14  1  0  0  0  0
  3  2  1  0  0  0  0
  4 12  1  0  0  0  0
  4 10  1  1  0  0  0
  6  9  2  0  0  0  0
  6 14  1  0  0  0  0
  7 13  1  1  0  0  0
  7  4  1  0  0  0  0
  8 19  1  6  0  0  0
  8 13  1  0  0  0  0
  8  7  1  0  0  0  0
  9 11  1  0  0  0  0
 11  8  1  0  0  0  0
 11 17  2  0  0  0  0
 12  5  1  1  0  0  0
 12 10  1  0  0  0  0
 14 18  2  0  0  0  0
 15  1  1  0  0  0  0
 15  3  1  0  0  0  0
 16  1  2  0  0  0  0
 17  5  1  0  0  0  0
 18 17  1  0  0  0  0
 20 29  1  0  0  0  0
 21 25  1  0  0  0  0
 23 25  1  0  0  0  0
 24 19  1  1  0  0  0
 25 20  1  0  0  0  0
 25 27  1  0  0  0  0
 26 27  1  6  0  0  0
 26 30  1  0  0  0  0
 26 24  1  0  0  0  0
 28 22  1  0  0  0  0
 29 28  1  0  0  0  0
 30 22  1  1  0  0  0
 30 24  1  0  0  0  0
M  END
>  <MODEL>
8

>  <REMARK>
 VINA RESULT:      -8.8      1.545      4.535
  Name = 
  2 active torsions:
  status: ('A' for Active; 'I' for Inactive)
    1  A    between atoms: C_1  and  C_12
    2  A    between atoms: C_1  and  C_14
                            x       y       z     vdW  Elec       q    Type
                         _______ _______ _______ _____ _____    ______ ____

>  <TORSDO>
F 2

$$$$
=
 OpenBabel11062413183D

 30 36  0  0  1  0  0  0  0  0999 V2000
  184.4250  178.9460  144.1290 C   0  0  0  0  0  0  0  0  0  0  0  0
  182.4140  178.6060  142.0570 C   0  0  0  0  0  2  0  0  0  0  0  0
  182.1480  179.4860  143.2780 C   0  0  0  0  0  2  0  0  0  0  0  0
  187.9390  177.4280  138.6440 C   0  0  2  0  0  3  0  0  0  0  0  0
  185.7830  177.9240  138.6000 C   0  0  0  0  0  2  0  0  0  0  0  0
  184.8420  178.6840  142.7370 C   0  0  0  0  0  0  0  0  0  0  0  0
  188.9120  178.0800  139.6040 C   0  0  2  0  0  3  0  0  0  0  0  0
  188.1600  178.3130  140.8850 C   0  0  2  0  0  0  0  0  0  0  0  0
  186.1870  178.5870  142.3950 C   0  0  0  0  0  3  0  0  0  0  0  0
  187.9340  177.7900  137.2920 O   0  0  0  0  0  0  0  0  0  0  0  0
  186.6130  178.3530  141.0790 C   0  0  0  0  0  0  0  0  0  0  0  0
  187.0750  178.5150  138.1440 C   0  0  2  0  0  3  0  0  0  0  0  0
  188.5700  179.3780  140.0610 O   0  0  0  0  0  0  0  0  0  0  0  0
  183.8790  178.5600  141.7290 C   0  0  0  0  0  0  0  0  0  0  0  0
  182.9660  179.0030  144.4740 C   0  0  0  0  0  2  0  0  0  0  0  0
  185.2820  179.0830  145.0420 O   0  0  0  0  0  0  0  0  0  0  0  0
  185.5730  178.2280  140.0740 C   0  0  0  0  0  0  0  0  0  0  0  0
  184.2690  178.3240  140.4530 N   0  0  0  0  0  0  0  0  0  0  0  0
  189.0570  178.1800  142.1180 C   0  0  0  0  0  2  0  0  0  0  0  0
  190.0960  176.3780  146.9680 C   0  0  0  0  0  2  0  0  0  0  0  0
  187.9300  176.6900  148.1020 C   0  0  0  0  0  1  0  0  0  0  0  0
  190.9230  176.6880  143.7560 C   0  0  0  0  0  2  0  0  0  0  0  0
  189.2010  178.6900  147.4880 C   0  0  0  0  0  1  0  0  0  0  0  0
  188.4180  177.3140  143.2000 C   0  0  2  0  0  3  0  0  0  0  0  0
  188.8430  177.2770  147.0450 C   0  0  0  0  0  0  0  0  0  0  0  0
  188.9160  177.7420  144.5630 C   0  0  1  0  0  3  0  0  0  0  0  0
  188.0470  177.3160  145.7290 C   0  0  0  0  0  2  0  0  0  0  0  0
  191.6810  176.2110  144.9970 C   0  0  0  0  0  2  0  0  0  0  0  0
  191.3000  177.0050  146.2500 C   0  0  0  0  0  2  0  0  0  0  0  0
  189.4350  176.4580  143.9570 C   0  0  2  0  0  3  0  0  0  0  0  0
  1 15  1  0  0  0  0
  1 16  2  0  0  0  0
  2  3  1  0  0  0  0
  3 15  1  0  0  0  0
  4 10  1  6  0  0  0
  4  7  1  0  0  0  0
  5 17  1  0  0  0  0
  6  1  1  0  0  0  0
  7 13  1  6  0  0  0
  7  8  1  0  0  0  0
  8 11  1  0  0  0  0
  8 19  1  1  0  0  0
  9  6  1  0  0  0  0
 10 12  1  0  0  0  0
 11  9  2  0  0  0  0
 12  5  1  6  0  0  0
 12  4  1  0  0  0  0
 13  8  1  0  0  0  0
 14  2  1  0  0  0  0
 14  6  2  0  0  0  0
 17 18  2  0  0  0  0
 17 11  1  0  0  0  0
 18 14  1  0  0  0  0
 20 25  1  0  0  0  0
 22 28  1  0  0  0  0
 24 19  1  6  0  0  0
 24 30  1  0  0  0  0
 24 26  1  0  0  0  0
 25 23  1  0  0  0  0
 25 21  1  0  0  0  0
 26 27  1  1  0  0  0
 27 25  1  0  0  0  0
 28 29  1  0  0  0  0
 29 20  1  0  0  0  0
 30 22  1  6  0  0  0
 30 26  1  0  0  0  0
M  END
>  <MODEL>
9

>  <REMARK>
 VINA RESULT:      -8.7      2.298      6.693
  Name = 
  2 active torsions:
  status: ('A' for Active; 'I' for Inactive)
    1  A    between atoms: C_1  and  C_12
    2  A    between atoms: C_1  and  C_14
                            x       y       z     vdW  Elec       q    Type
                         _______ _______ _______ _____ _____    ______ ____

>  <TORSDO>
F 2

$$$$
