=
 OpenBabel11062415503D

 44 50  0  0  1  0  0  0  0  0999 V2000
  189.0320  178.2830  137.5760 C   0  0  0  0  0  0  0  0  0  0  0  0
  188.0150  177.6480  139.8300 C   0  0  2  0  0  3  0  0  0  0  0  0
  189.4060  176.1060  138.7080 C   0  0  0  0  0  2  0  0  0  0  0  0
  189.2580  176.8780  139.9320 N   0  0  0  0  0  2  0  0  0  0  0  0
  189.4330  179.1830  136.6860 C   0  0  0  0  0  2  0  0  0  0  0  0
  188.0030  178.6480  138.6330 C   0  0  2  0  0  3  0  0  0  0  0  0
  189.6960  177.0190  137.6180 N   0  0  0  0  0  2  0  0  0  0  0  0
  185.2800  176.0290  135.9430 C   0  0  2  0  0  3  0  0  0  0  0  0
  184.6110  177.5240  137.9680 C   0  0  1  0  0  3  0  0  0  0  0  0
  184.0660  176.2310  138.5220 C   0  0  0  0  0  3  0  0  0  0  0  0
  183.7740  175.1850  137.7410 C   0  0  0  0  0  3  0  0  0  0  0  0
  186.6660  178.7710  138.0110 N   0  0  1  0  0  0  0  0  0  0  0  0
  186.6020  178.0970  136.7090 C   0  0  0  0  0  2  0  0  0  0  0  0
  185.7110  178.0520  138.8550 C   0  0  0  0  0  2  0  0  0  0  0  0
  185.2400  177.4390  136.5810 C   0  0  1  0  0  3  0  0  0  0  0  0
  183.9860  175.2550  136.2540 C   0  0  2  0  0  3  0  0  0  0  0  0
  182.4930  172.1850  135.8180 C   0  0  1  0  0  3  0  0  0  0  0  0
  180.1070  172.9190  136.3350 N   0  0  0  0  0  0  0  0  0  0  0  0
  178.9310  172.9410  137.1910 C   0  0  0  0  0  1  0  0  0  0  0  0
  183.9600  173.8640  135.5950 C   0  0  2  0  0  3  0  0  0  0  0  0
  182.6300  173.4450  134.9480 C   0  0  2  0  0  3  0  0  0  0  0  0
  181.4930  174.4740  135.1080 C   0  0  0  0  0  2  0  0  0  0  0  0
  181.2050  171.3170  137.6380 O   0  0  0  0  0  0  0  0  0  0  0  0
  183.9660  172.5200  136.8330 S   0  0  0  0  0  0  0  0  0  0  0  0
  180.1460  173.7780  135.1620 C   0  0  0  0  0  2  0  0  0  0  0  0
  181.2490  172.1180  136.6640 C   0  0  0  0  0  0  0  0  0  0  0  0
  187.4690  175.1610  134.9180 C   0  0  0  0  0  1  0  0  0  0  0  0
  186.5820  175.2270  136.1520 C   0  0  0  0  0  2  0  0  0  0  0  0
  187.7650  178.5650  141.3820 S   0  0  0  0  0  0  0  0  0  0  0  0
  188.8100  177.7330  143.7410 C   0  0  1  0  0  3  0  0  0  0  0  0
  188.3390  177.1690  142.4140 C   0  0  1  0  0  3  0  0  0  0  0  0
  187.5390  176.8970  143.7000 C   0  0  2  0  0  3  0  0  0  0  0  0
  185.3820  177.8750  142.7820 C   0  0  0  0  0  3  0  0  0  0  0  0
  186.2860  177.7180  143.8470 C   0  0  0  0  0  0  0  0  0  0  0  0
  183.9910  179.3000  144.1590 C   0  0  0  0  0  3  0  0  0  0  0  0
  184.2360  178.6580  142.9410 C   0  0  0  0  0  3  0  0  0  0  0  0
  186.0450  178.3800  145.0580 C   0  0  0  0  0  3  0  0  0  0  0  0
  184.8990  179.1650  145.2160 C   0  0  0  0  0  3  0  0  0  0  0  0
  189.9650  176.8960  144.2700 C   0  0  2  0  0  3  0  0  0  0  0  0
  191.5200  178.9700  143.9790 C   0  0  0  0  0  1  0  0  0  0  0  0
  191.0810  177.7740  144.7580 C   0  0  0  0  0  0  0  0  0  0  0  0
  191.6540  177.4950  145.7950 O   0  0  0  0  0  0  0  0  0  0  0  0
  190.4620  175.9490  143.1860 C   0  0  0  0  0  2  0  0  0  0  0  0
  191.6340  175.3230  143.6030 O   0  0  0  0  0  1  0  0  0  0  0  0
  1  7  1  0  0  0  0
  2  4  1  0  0  0  0
  2 29  1  1  0  0  0
  3  4  1  0  0  0  0
  5  1  2  0  0  0  0
  6  1  1  6  0  0  0
  6  2  1  0  0  0  0
  7  3  1  0  0  0  0
  8 28  1  1  0  0  0
  8 16  1  0  0  0  0
  8 15  1  0  0  0  0
  9 10  1  1  0  0  0
  9 14  1  0  0  0  0
 11 10  2  0  0  0  0
 12 13  1  6  0  0  0
 12  6  1  0  0  0  0
 12 14  1  0  0  0  0
 15 13  1  1  0  0  0
 15  9  1  0  0  0  0
 16 11  1  1  0  0  0
 17 26  1  1  0  0  0
 17 24  1  0  0  0  0
 18 26  1  0  0  0  0
 18 19  1  0  0  0  0
 20 16  1  0  0  0  0
 20 24  1  1  0  0  0
 21 22  1  1  0  0  0
 21 20  1  0  0  0  0
 21 17  1  0  0  0  0
 22 25  1  0  0  0  0
 25 18  1  0  0  0  0
 26 23  2  0  0  0  0
 27 28  1  0  0  0  0
 30 39  1  1  0  0  0
 31 29  1  6  0  0  0
 31 32  1  0  0  0  0
 31 30  1  0  0  0  0
 32 30  1  0  0  0  0
 32 34  1  6  0  0  0
 33 36  2  0  0  0  0
 33 34  1  0  0  0  0
 34 37  2  0  0  0  0
 35 38  2  0  0  0  0
 36 35  1  0  0  0  0
 37 38  1  0  0  0  0
 39 43  1  6  0  0  0
 39 41  1  0  0  0  0
 40 41  1  0  0  0  0
 41 42  2  0  0  0  0
 43 44  1  0  0  0  0
M  END
>  <MODEL>
1

>  <REMARK>
 VINA RESULT:      -7.7      0.000      0.000
  Name = 
  9 active torsions:
  status: ('A' for Active; 'I' for Inactive)
    1  A    between atoms: C_5  and  S_26
    2  A    between atoms: C_7  and  C_40
    3  A    between atoms: C_10  and  C_44
    4  A    between atoms: C_12  and  C_42
    5  A    between atoms: C_14  and  C_40
    6  A    between atoms: C_15  and  C_39
    7  A    between atoms: C_20  and  C_40
    8  A    between atoms: S_26  and  C_38
    9  A    between atoms: N_27  and  C_32
                            x       y       z     vdW  Elec       q    Type
                         _______ _______ _______ _____ _____    ______ ____

>  <TORSDO>
F 9

$$$$
=
 OpenBabel11062415503D

 44 50  0  0  1  0  0  0  0  0999 V2000
  188.2010  176.8950  137.3780 C   0  0  0  0  0  0  0  0  0  0  0  0
  188.9860  178.5230  139.1820 C   0  0  2  0  0  3  0  0  0  0  0  0
  189.0540  179.1810  136.9160 C   0  0  0  0  0  2  0  0  0  0  0  0
  188.4830  179.5020  138.2150 N   0  0  0  0  0  2  0  0  0  0  0  0
  187.4950  175.8460  136.9780 C   0  0  0  0  0  1  0  0  0  0  0  0
  188.5880  177.0540  138.8390 C   0  0  2  0  0  3  0  0  0  0  0  0
  188.4590  177.9450  136.4440 N   0  0  0  0  0  0  0  0  0  0  0  0
  191.9830  174.8240  136.6000 C   0  0  2  0  0  3  0  0  0  0  0  0
  192.0390  175.9180  138.9640 C   0  0  1  0  0  3  0  0  0  0  0  0
  193.1740  176.7190  138.3780 C   0  0  0  0  0  3  0  0  0  0  0  0
  193.8570  176.3110  137.3020 C   0  0  0  0  0  3  0  0  0  0  0  0
  189.6510  176.0840  139.1860 N   0  0  1  0  0  0  0  0  0  0  0  0
  189.9140  175.1430  138.0920 C   0  0  0  0  0  2  0  0  0  0  0  0
  190.9000  176.8280  139.3520 C   0  0  0  0  0  2  0  0  0  0  0  0
  191.4080  174.8830  138.0360 C   0  0  1  0  0  3  0  0  0  0  0  0
  193.5100  175.0180  136.6190 C   0  0  2  0  0  3  0  0  0  0  0  0
  196.2770  174.7190  134.5940 C   0  0  1  0  0  3  0  0  0  0  0  0
  197.7610  173.4940  136.2660 N   0  0  0  0  0  0  0  0  0  0  0  0
  198.8970  173.4440  137.1750 C   0  0  0  0  0  1  0  0  0  0  0  0
  194.1340  174.9150  135.2140 C   0  0  2  0  0  3  0  0  0  0  0  0
  195.1370  173.7710  135.0000 C   0  0  2  0  0  3  0  0  0  0  0  0
  195.4130  172.9220  136.2570 C   0  0  0  0  0  2  0  0  0  0  0  0
  198.3470  175.5930  135.4180 O   0  0  0  0  0  0  0  0  0  0  0  0
  195.3430  176.2490  134.9020 S   0  0  0  0  0  0  0  0  0  0  0  0
  196.8290  172.3780  136.2350 C   0  0  0  0  0  2  0  0  0  0  0  0
  197.5120  174.6480  135.4530 C   0  0  0  0  0  0  0  0  0  0  0  0
  190.3810  174.8250  134.5940 C   0  0  0  0  0  1  0  0  0  0  0  0
  191.2380  175.6560  135.5360 C   0  0  0  0  0  2  0  0  0  0  0  0
  188.3480  178.9490  140.8320 S   0  0  0  0  0  0  0  0  0  0  0  0
  189.2950  177.6190  142.9960 C   0  0  1  0  0  3  0  0  0  0  0  0
  188.8890  177.3600  141.5590 C   0  0  1  0  0  3  0  0  0  0  0  0
  188.0360  176.8120  142.7160 C   0  0  2  0  0  3  0  0  0  0  0  0
  186.4290  178.0120  144.2750 C   0  0  0  0  0  3  0  0  0  0  0  0
  186.7690  177.5810  142.9820 C   0  0  0  0  0  0  0  0  0  0  0  0
  184.3720  178.9680  143.4280 C   0  0  0  0  0  3  0  0  0  0  0  0
  185.2380  178.7090  144.4950 C   0  0  0  0  0  3  0  0  0  0  0  0
  185.8880  177.8270  141.9200 C   0  0  0  0  0  3  0  0  0  0  0  0
  184.6960  178.5220  142.1410 C   0  0  0  0  0  3  0  0  0  0  0  0
  190.4340  176.6870  143.3820 C   0  0  2  0  0  3  0  0  0  0  0  0
  189.6260  177.1840  145.8120 C   0  0  0  0  0  1  0  0  0  0  0  0
  190.6870  176.7360  144.8610 C   0  0  0  0  0  0  0  0  0  0  0  0
  191.7830  176.4290  145.2930 O   0  0  0  0  0  0  0  0  0  0  0  0
  191.6940  177.0560  142.6090 C   0  0  0  0  0  2  0  0  0  0  0  0
  191.9530  178.4170  142.7470 O   0  0  0  0  0  1  0  0  0  0  0  0
  2 29  1  1  0  0  0
  3  4  1  0  0  0  0
  4  2  1  0  0  0  0
  5  1  1  0  0  0  0
  6  1  1  6  0  0  0
  6  2  1  0  0  0  0
  6 12  1  0  0  0  0
  7  3  1  0  0  0  0
  7  1  2  0  0  0  0
  8 28  1  6  0  0  0
  8 16  1  0  0  0  0
  8 15  1  0  0  0  0
  9 10  1  6  0  0  0
  9 14  1  0  0  0  0
 11 10  2  0  0  0  0
 12 13  1  6  0  0  0
 12 14  1  0  0  0  0
 15 13  1  6  0  0  0
 15  9  1  0  0  0  0
 16 11  1  6  0  0  0
 17 24  1  1  0  0  0
 17 21  1  0  0  0  0
 17 26  1  0  0  0  0
 18 19  1  0  0  0  0
 20 24  1  1  0  0  0
 20 16  1  0  0  0  0
 21 20  1  0  0  0  0
 21 22  1  1  0  0  0
 23 26  2  0  0  0  0
 25 22  1  0  0  0  0
 25 18  1  0  0  0  0
 26 18  1  0  0  0  0
 27 28  1  0  0  0  0
 30 39  1  6  0  0  0
 31 29  1  1  0  0  0
 31 32  1  0  0  0  0
 31 30  1  0  0  0  0
 32 34  1  1  0  0  0
 32 30  1  0  0  0  0
 33 36  1  0  0  0  0
 34 33  2  0  0  0  0
 35 36  2  0  0  0  0
 37 38  2  0  0  0  0
 37 34  1  0  0  0  0
 38 35  1  0  0  0  0
 39 43  1  6  0  0  0
 39 41  1  0  0  0  0
 41 42  2  0  0  0  0
 41 40  1  0  0  0  0
 43 44  1  0  0  0  0
M  END
>  <MODEL>
2

>  <REMARK>
 VINA RESULT:      -6.5      4.548      8.289
  Name = 
  9 active torsions:
  status: ('A' for Active; 'I' for Inactive)
    1  A    between atoms: C_5  and  S_26
    2  A    between atoms: C_7  and  C_40
    3  A    between atoms: C_10  and  C_44
    4  A    between atoms: C_12  and  C_42
    5  A    between atoms: C_14  and  C_40
    6  A    between atoms: C_15  and  C_39
    7  A    between atoms: C_20  and  C_40
    8  A    between atoms: S_26  and  C_38
    9  A    between atoms: N_27  and  C_32
                            x       y       z     vdW  Elec       q    Type
                         _______ _______ _______ _____ _____    ______ ____

>  <TORSDO>
F 9

$$$$
=
 OpenBabel11062415503D

 44 50  0  0  1  0  0  0  0  0999 V2000
  190.0550  177.2090  143.0460 C   0  0  0  0  0  0  0  0  0  0  0  0
  189.9490  177.3490  140.4980 C   0  0  2  0  0  3  0  0  0  0  0  0
  191.9940  177.7690  141.6000 C   0  0  0  0  0  2  0  0  0  0  0  0
  191.3390  176.9050  140.6310 N   0  0  0  0  0  2  0  0  0  0  0  0
  189.5980  176.7710  144.2130 C   0  0  0  0  0  1  0  0  0  0  0  0
  189.1430  177.2630  141.8320 C   0  0  2  0  0  3  0  0  0  0  0  0
  191.4510  177.4820  142.9150 N   0  0  0  0  0  0  0  0  0  0  0  0
  185.4300  178.8290  139.5350 C   0  0  2  0  0  3  0  0  0  0  0  0
  185.7880  178.6350  142.1080 C   0  0  1  0  0  3  0  0  0  0  0  0
  184.5540  177.7700  142.0410 C   0  0  0  0  0  3  0  0  0  0  0  0
  183.6930  177.8290  141.0180 C   0  0  0  0  0  3  0  0  0  0  0  0
  188.1740  178.3720  141.9800 N   0  0  1  0  0  0  0  0  0  0  0  0
  187.7310  178.8910  140.6810 C   0  0  0  0  0  2  0  0  0  0  0  0
  186.9650  177.8320  142.6030 C   0  0  0  0  0  2  0  0  0  0  0  0
  186.2550  179.2290  140.7820 C   0  0  1  0  0  3  0  0  0  0  0  0
  183.9290  178.7730  139.8710 C   0  0  2  0  0  3  0  0  0  0  0  0
  180.9160  178.8950  138.2130 C   0  0  1  0  0  3  0  0  0  0  0  0
  180.0650  181.0560  139.2630 N   0  0  0  0  0  0  0  0  0  0  0  0
  179.1700  181.7840  140.1500 C   0  0  0  0  0  1  0  0  0  0  0  0
  183.0640  178.4270  138.6460 C   0  0  2  0  0  3  0  0  0  0  0  0
  182.2740  179.5900  138.0230 C   0  0  2  0  0  3  0  0  0  0  0  0
  182.4280  180.9330  138.7660 C   0  0  0  0  0  2  0  0  0  0  0  0
  178.9310  179.0310  139.5410 O   0  0  0  0  0  0  0  0  0  0  0  0
  181.5850  177.4560  139.1020 S   0  0  0  0  0  0  0  0  0  0  0  0
  181.1670  181.7660  138.6310 C   0  0  0  0  0  2  0  0  0  0  0  0
  179.9200  179.6460  139.0560 C   0  0  0  0  0  0  0  0  0  0  0  0
  186.3600  177.9630  137.3030 C   0  0  0  0  0  1  0  0  0  0  0  0
  185.9600  177.6230  138.7310 C   0  0  0  0  0  2  0  0  0  0  0  0
  189.1270  176.3320  139.2330 S   0  0  0  0  0  0  0  0  0  0  0  0
  191.2520  175.7800  137.6420 C   0  0  1  0  0  3  0  0  0  0  0  0
  190.2570  176.8930  137.9080 C   0  0  1  0  0  3  0  0  0  0  0  0
  190.2040  176.1050  136.5880 C   0  0  2  0  0  3  0  0  0  0  0  0
  187.8310  175.4030  136.0130 C   0  0  0  0  0  3  0  0  0  0  0  0
  189.1050  175.0790  136.5110 C   0  0  0  0  0  0  0  0  0  0  0  0
  187.0780  173.1410  136.4360 C   0  0  0  0  0  3  0  0  0  0  0  0
  186.8250  174.4350  135.9690 C   0  0  0  0  0  3  0  0  0  0  0  0
  189.3470  173.7860  136.9940 C   0  0  0  0  0  3  0  0  0  0  0  0
  188.3390  172.8190  136.9520 C   0  0  0  0  0  3  0  0  0  0  0  0
  192.5930  176.3790  137.2440 C   0  0  2  0  0  3  0  0  0  0  0  0
  192.9160  174.1350  135.9550 C   0  0  0  0  0  1  0  0  0  0  0  0
  193.2240  175.5840  136.1370 C   0  0  0  0  0  0  0  0  0  0  0  0
  194.0190  176.1230  135.3890 O   0  0  0  0  0  0  0  0  0  0  0  0
  193.5150  176.4430  138.4540 C   0  0  0  0  0  2  0  0  0  0  0  0
  194.5480  175.5210  138.3110 O   0  0  0  0  0  1  0  0  0  0  0  0
  1  5  1  0  0  0  0
  2 29  1  6  0  0  0
  2  4  1  0  0  0  0
  2  6  1  0  0  0  0
  3  7  1  0  0  0  0
  4  3  1  0  0  0  0
  6 12  1  0  0  0  0
  6  1  1  1  0  0  0
  7  1  2  0  0  0  0
  8 28  1  1  0  0  0
  8 16  1  0  0  0  0
  8 15  1  0  0  0  0
  9 10  1  6  0  0  0
  9 14  1  0  0  0  0
 11 10  2  0  0  0  0
 12 13  1  6  0  0  0
 12 14  1  0  0  0  0
 15 13  1  6  0  0  0
 15  9  1  0  0  0  0
 16 11  1  1  0  0  0
 17 26  1  1  0  0  0
 17 24  1  0  0  0  0
 18 19  1  0  0  0  0
 20 24  1  1  0  0  0
 20 16  1  0  0  0  0
 21 17  1  0  0  0  0
 21 20  1  0  0  0  0
 21 22  1  1  0  0  0
 25 22  1  0  0  0  0
 25 18  1  0  0  0  0
 26 18  1  0  0  0  0
 26 23  2  0  0  0  0
 27 28  1  0  0  0  0
 30 39  1  6  0  0  0
 30 31  1  0  0  0  0
 31 29  1  1  0  0  0
 32 34  1  1  0  0  0
 32 30  1  0  0  0  0
 32 31  1  0  0  0  0
 33 34  1  0  0  0  0
 34 37  2  0  0  0  0
 35 38  2  0  0  0  0
 36 33  2  0  0  0  0
 36 35  1  0  0  0  0
 38 37  1  0  0  0  0
 39 43  1  1  0  0  0
 40 41  1  0  0  0  0
 41 39  1  0  0  0  0
 42 41  2  0  0  0  0
 44 43  1  0  0  0  0
M  END
>  <MODEL>
3

>  <REMARK>
 VINA RESULT:      -6.1      3.770      6.808
  Name = 
  9 active torsions:
  status: ('A' for Active; 'I' for Inactive)
    1  A    between atoms: C_5  and  S_26
    2  A    between atoms: C_7  and  C_40
    3  A    between atoms: C_10  and  C_44
    4  A    between atoms: C_12  and  C_42
    5  A    between atoms: C_14  and  C_40
    6  A    between atoms: C_15  and  C_39
    7  A    between atoms: C_20  and  C_40
    8  A    between atoms: S_26  and  C_38
    9  A    between atoms: N_27  and  C_32
                            x       y       z     vdW  Elec       q    Type
                         _______ _______ _______ _____ _____    ______ ____

>  <TORSDO>
F 9

$$$$
=
 OpenBabel11062415503D

 44 50  0  0  1  0  0  0  0  0999 V2000
  187.8380  178.0320  137.0140 C   0  0  0  0  0  0  0  0  0  0  0  0
  186.0620  176.2010  137.1390 C   0  0  2  0  0  3  0  0  0  0  0  0
  185.6140  178.3200  138.0770 C   0  0  0  0  0  2  0  0  0  0  0  0
  185.1700  177.3610  137.0770 N   0  0  0  0  0  2  0  0  0  0  0  0
  188.9120  178.5820  136.4610 C   0  0  0  0  0  2  0  0  0  0  0  0
  187.5530  176.5500  136.8340 C   0  0  2  0  0  3  0  0  0  0  0  0
  186.8810  178.8810  137.6470 N   0  0  0  0  0  2  0  0  0  0  0  0
  191.5000  174.2280  136.1040 C   0  0  2  0  0  3  0  0  0  0  0  0
  190.8550  175.7450  138.1210 C   0  0  1  0  0  3  0  0  0  0  0  0
  192.0890  176.5130  137.7160 C   0  0  0  0  0  3  0  0  0  0  0  0
  193.0590  175.9690  136.9730 C   0  0  0  0  0  3  0  0  0  0  0  0
  188.4990  175.7530  137.6460 N   0  0  1  0  0  0  0  0  0  0  0  0
  189.0850  174.6480  136.8800 C   0  0  0  0  0  2  0  0  0  0  0  0
  189.6300  176.6150  137.9910 C   0  0  0  0  0  2  0  0  0  0  0  0
  190.5410  174.5070  137.2860 C   0  0  1  0  0  3  0  0  0  0  0  0
  192.9540  174.5460  136.4980 C   0  0  2  0  0  3  0  0  0  0  0  0
  196.1760  174.4880  135.2900 C   0  0  1  0  0  3  0  0  0  0  0  0
  197.3520  174.2580  137.5400 N   0  0  0  0  0  0  0  0  0  0  0  0
  198.1740  174.7910  138.6170 C   0  0  0  0  0  1  0  0  0  0  0  0
  193.9520  174.2340  135.3680 C   0  0  2  0  0  3  0  0  0  0  0  0
  195.1880  173.4100  135.7620 C   0  0  2  0  0  3  0  0  0  0  0  0
  195.2690  173.0630  137.2630 C   0  0  0  0  0  2  0  0  0  0  0  0
  197.7080  176.1100  136.1560 O   0  0  0  0  0  0  0  0  0  0  0  0
  194.9000  175.7120  134.8630 S   0  0  0  0  0  0  0  0  0  0  0  0
  196.7160  172.9620  137.7100 C   0  0  0  0  0  2  0  0  0  0  0  0
  197.1090  175.0160  136.3480 C   0  0  0  0  0  0  0  0  0  0  0  0
  191.1400  176.2970  134.6270 C   0  0  0  0  0  1  0  0  0  0  0  0
  191.0640  174.7810  134.7320 C   0  0  0  0  0  2  0  0  0  0  0  0
  185.4830  174.9510  135.9510 S   0  0  0  0  0  0  0  0  0  0  0  0
  183.3310  173.3570  136.3750 C   0  0  1  0  0  3  0  0  0  0  0  0
  184.3180  174.2090  137.1500 C   0  0  1  0  0  3  0  0  0  0  0  0
  184.3520  172.6750  137.2740 C   0  0  2  0  0  3  0  0  0  0  0  0
  186.8030  172.1120  136.9160 C   0  0  0  0  0  3  0  0  0  0  0  0
  185.4620  172.0070  136.5080 C   0  0  0  0  0  0  0  0  0  0  0  0
  187.4960  170.7810  135.0160 C   0  0  0  0  0  3  0  0  0  0  0  0
  187.8140  171.4950  136.1750 C   0  0  0  0  0  3  0  0  0  0  0  0
  185.1520  171.3060  135.3350 C   0  0  0  0  0  3  0  0  0  0  0  0
  186.1650  170.6910  134.5940 C   0  0  0  0  0  3  0  0  0  0  0  0
  181.9750  173.3940  137.0630 C   0  0  2  0  0  3  0  0  0  0  0  0
  181.3190  171.5110  135.3810 C   0  0  0  0  0  1  0  0  0  0  0  0
  181.1630  172.1820  136.7060 C   0  0  0  0  0  0  0  0  0  0  0  0
  180.3450  171.7530  137.4990 O   0  0  0  0  0  0  0  0  0  0  0  0
  181.2330  174.6690  136.6850 C   0  0  0  0  0  2  0  0  0  0  0  0
  180.4300  175.0820  137.7450 O   0  0  0  0  0  1  0  0  0  0  0  0
  1  7  1  0  0  0  0
  2 29  1  6  0  0  0
  4  2  1  0  0  0  0
  4  3  1  0  0  0  0
  5  1  2  0  0  0  0
  6  1  1  1  0  0  0
  6  2  1  0  0  0  0
  6 12  1  0  0  0  0
  7  3  1  0  0  0  0
  8 28  1  6  0  0  0
  8 16  1  0  0  0  0
  8 15  1  0  0  0  0
  9 10  1  6  0  0  0
 11 10  2  0  0  0  0
 12 13  1  6  0  0  0
 12 14  1  0  0  0  0
 14  9  1  0  0  0  0
 15 13  1  6  0  0  0
 15  9  1  0  0  0  0
 16 11  1  6  0  0  0
 17 24  1  1  0  0  0
 17 21  1  0  0  0  0
 17 26  1  0  0  0  0
 18 25  1  0  0  0  0
 18 19  1  0  0  0  0
 20 24  1  1  0  0  0
 20 21  1  0  0  0  0
 20 16  1  0  0  0  0
 21 22  1  1  0  0  0
 22 25  1  0  0  0  0
 23 26  2  0  0  0  0
 26 18  1  0  0  0  0
 27 28  1  0  0  0  0
 30 39  1  1  0  0  0
 30 31  1  0  0  0  0
 30 32  1  0  0  0  0
 31 29  1  6  0  0  0
 31 32  1  0  0  0  0
 32 34  1  6  0  0  0
 34 33  1  0  0  0  0
 35 36  1  0  0  0  0
 36 33  2  0  0  0  0
 37 34  2  0  0  0  0
 38 35  2  0  0  0  0
 38 37  1  0  0  0  0
 39 43  1  6  0  0  0
 40 41  1  0  0  0  0
 41 39  1  0  0  0  0
 41 42  2  0  0  0  0
 43 44  1  0  0  0  0
M  END
>  <MODEL>
4

>  <REMARK>
 VINA RESULT:      -6.0      4.505     10.587
  Name = 
  9 active torsions:
  status: ('A' for Active; 'I' for Inactive)
    1  A    between atoms: C_5  and  S_26
    2  A    between atoms: C_7  and  C_40
    3  A    between atoms: C_10  and  C_44
    4  A    between atoms: C_12  and  C_42
    5  A    between atoms: C_14  and  C_40
    6  A    between atoms: C_15  and  C_39
    7  A    between atoms: C_20  and  C_40
    8  A    between atoms: S_26  and  C_38
    9  A    between atoms: N_27  and  C_32
                            x       y       z     vdW  Elec       q    Type
                         _______ _______ _______ _____ _____    ______ ____

>  <TORSDO>
F 9

$$$$
=
 OpenBabel11062415503D

 44 50  0  0  1  0  0  0  0  0999 V2000
  186.4580  177.3590  136.4060 C   0  0  0  0  0  0  0  0  0  0  0  0
  188.6360  177.4430  137.7370 C   0  0  2  0  0  3  0  0  0  0  0  0
  188.0920  179.2250  136.2870 C   0  0  0  0  0  2  0  0  0  0  0  0
  188.3680  178.8820  137.6740 N   0  0  0  0  0  2  0  0  0  0  0  0
  185.2190  176.9230  136.2180 C   0  0  0  0  0  1  0  0  0  0  0  0
  187.4330  176.5690  137.2620 C   0  0  2  0  0  3  0  0  0  0  0  0
  186.8100  178.6550  135.9180 N   0  0  0  0  0  0  0  0  0  0  0  0
  191.2350  175.1630  135.0080 C   0  0  2  0  0  3  0  0  0  0  0  0
  189.7040  173.8040  136.6190 C   0  0  1  0  0  3  0  0  0  0  0  0
  190.9830  173.6130  137.3960 C   0  0  0  0  0  3  0  0  0  0  0  0
  192.1890  173.7620  136.8360 C   0  0  0  0  0  3  0  0  0  0  0  0
  187.8680  175.3540  136.5370 N   0  0  1  0  0  0  0  0  0  0  0  0
  188.7470  175.6730  135.4070 C   0  0  0  0  0  2  0  0  0  0  0  0
  188.6960  174.5610  137.4470 C   0  0  0  0  0  2  0  0  0  0  0  0
  189.8260  174.6080  135.3280 C   0  0  1  0  0  3  0  0  0  0  0  0
  192.3210  174.1390  135.3860 C   0  0  2  0  0  3  0  0  0  0  0  0
  195.7360  173.8830  135.7260 C   0  0  1  0  0  3  0  0  0  0  0  0
  195.8130  171.3940  136.2710 N   0  0  0  0  0  0  0  0  0  0  0  0
  196.0230  170.2910  137.1970 C   0  0  0  0  0  1  0  0  0  0  0  0
  193.7390  174.6280  135.0380 C   0  0  2  0  0  3  0  0  0  0  0  0
  194.7410  173.5480  134.6040 C   0  0  2  0  0  3  0  0  0  0  0  0
  194.1820  172.1110  134.6370 C   0  0  0  0  0  2  0  0  0  0  0  0
  196.5760  173.0030  137.7870 O   0  0  0  0  0  0  0  0  0  0  0  0
  194.6760  175.1280  136.5250 S   0  0  0  0  0  0  0  0  0  0  0  0
  195.2850  171.1150  134.9450 C   0  0  0  0  0  2  0  0  0  0  0  0
  196.0540  172.7500  136.6660 C   0  0  0  0  0  0  0  0  0  0  0  0
  191.6650  176.7530  136.9790 C   0  0  0  0  0  1  0  0  0  0  0  0
  191.5170  176.6080  135.4720 C   0  0  0  0  0  2  0  0  0  0  0  0
  189.0610  177.0000  139.4500 S   0  0  0  0  0  0  0  0  0  0  0  0
  187.1770  178.0020  141.1220 C   0  0  1  0  0  3  0  0  0  0  0  0
  188.2310  178.4760  140.1410 C   0  0  1  0  0  3  0  0  0  0  0  0
  188.4120  178.7180  141.6490 C   0  0  2  0  0  3  0  0  0  0  0  0
  189.0680  176.4510  142.5890 C   0  0  0  0  0  3  0  0  0  0  0  0
  189.3910  177.7910  142.3210 C   0  0  0  0  0  0  0  0  0  0  0  0
  191.2340  176.1230  143.6200 C   0  0  0  0  0  3  0  0  0  0  0  0
  189.9890  175.6190  143.2300 C   0  0  0  0  0  3  0  0  0  0  0  0
  190.6320  178.2960  142.7310 C   0  0  0  0  0  3  0  0  0  0  0  0
  191.5530  177.4640  143.3740 C   0  0  0  0  0  3  0  0  0  0  0  0
  185.9930  178.9570  141.1010 C   0  0  2  0  0  3  0  0  0  0  0  0
  184.9540  179.4750  143.4370 C   0  0  0  0  0  1  0  0  0  0  0  0
  185.0280  178.6350  142.2050 C   0  0  0  0  0  0  0  0  0  0  0  0
  184.3090  177.6570  142.1070 O   0  0  0  0  0  0  0  0  0  0  0  0
  185.2990  178.8980  139.7470 C   0  0  0  0  0  2  0  0  0  0  0  0
  184.5630  180.0610  139.5390 O   0  0  0  0  0  1  0  0  0  0  0  0
  2 29  1  1  0  0  0
  3  4  1  0  0  0  0
  4  2  1  0  0  0  0
  5  1  1  0  0  0  0
  6  1  1  6  0  0  0
  6  2  1  0  0  0  0
  7  3  1  0  0  0  0
  7  1  2  0  0  0  0
  8 15  1  0  0  0  0
  8 16  1  0  0  0  0
  8 28  1  1  0  0  0
  9 10  1  1  0  0  0
  9 14  1  0  0  0  0
 11 10  2  0  0  0  0
 12 13  1  6  0  0  0
 12  6  1  0  0  0  0
 12 14  1  0  0  0  0
 15 13  1  1  0  0  0
 15  9  1  0  0  0  0
 16 11  1  1  0  0  0
 17 24  1  1  0  0  0
 17 26  1  0  0  0  0
 18 26  1  0  0  0  0
 18 19  1  0  0  0  0
 20 16  1  0  0  0  0
 20 24  1  1  0  0  0
 21 22  1  1  0  0  0
 21 20  1  0  0  0  0
 21 17  1  0  0  0  0
 22 25  1  0  0  0  0
 25 18  1  0  0  0  0
 26 23  2  0  0  0  0
 28 27  1  0  0  0  0
 30 39  1  6  0  0  0
 30 32  1  0  0  0  0
 31 29  1  1  0  0  0
 31 30  1  0  0  0  0
 31 32  1  0  0  0  0
 32 34  1  1  0  0  0
 33 36  1  0  0  0  0
 34 33  2  0  0  0  0
 34 37  1  0  0  0  0
 36 35  2  0  0  0  0
 37 38  2  0  0  0  0
 38 35  1  0  0  0  0
 39 43  1  6  0  0  0
 39 41  1  0  0  0  0
 41 40  1  0  0  0  0
 42 41  2  0  0  0  0
 44 43  1  0  0  0  0
M  END
>  <MODEL>
5

>  <REMARK>
 VINA RESULT:      -5.9      4.615      8.276
  Name = 
  9 active torsions:
  status: ('A' for Active; 'I' for Inactive)
    1  A    between atoms: C_5  and  S_26
    2  A    between atoms: C_7  and  C_40
    3  A    between atoms: C_10  and  C_44
    4  A    between atoms: C_12  and  C_42
    5  A    between atoms: C_14  and  C_40
    6  A    between atoms: C_15  and  C_39
    7  A    between atoms: C_20  and  C_40
    8  A    between atoms: S_26  and  C_38
    9  A    between atoms: N_27  and  C_32
                            x       y       z     vdW  Elec       q    Type
                         _______ _______ _______ _____ _____    ______ ____

>  <TORSDO>
F 9

$$$$
=
 OpenBabel11062415503D

 44 50  0  0  1  0  0  0  0  0999 V2000
  190.7150  176.1050  135.8980 C   0  0  0  0  0  0  0  0  0  0  0  0
  189.1460  176.0990  137.9130 C   0  0  2  0  0  3  0  0  0  0  0  0
  190.5190  174.2230  137.5050 C   0  0  0  0  0  2  0  0  0  0  0  0
  190.2140  175.2670  138.4710 N   0  0  0  0  0  2  0  0  0  0  0  0
  191.4240  176.7360  134.9710 C   0  0  0  0  0  2  0  0  0  0  0  0
  189.5400  176.7930  136.5720 C   0  0  2  0  0  3  0  0  0  0  0  0
  191.1680  174.8300  136.3590 N   0  0  0  0  0  2  0  0  0  0  0  0
  185.2370  175.0850  136.2900 C   0  0  2  0  0  3  0  0  0  0  0  0
  186.0760  177.4830  135.7120 C   0  0  1  0  0  3  0  0  0  0  0  0
  185.0570  177.9020  136.7410 C   0  0  0  0  0  3  0  0  0  0  0  0
  184.0360  177.1140  137.0990 C   0  0  0  0  0  3  0  0  0  0  0  0
  188.4040  176.8880  135.6280 N   0  0  1  0  0  0  0  0  0  0  0  0
  187.6410  175.6370  135.5610 C   0  0  0  0  0  2  0  0  0  0  0  0
  187.4630  177.8760  136.1560 C   0  0  0  0  0  2  0  0  0  0  0  0
  186.1670  175.9840  135.4400 C   0  0  1  0  0  3  0  0  0  0  0  0
  183.8640  175.7540  136.4830 C   0  0  2  0  0  3  0  0  0  0  0  0
  180.8970  175.3680  138.1830 C   0  0  1  0  0  3  0  0  0  0  0  0
  179.5870  177.1710  136.9470 N   0  0  0  0  0  0  0  0  0  0  0  0
  178.9420  178.4750  136.8900 C   0  0  0  0  0  1  0  0  0  0  0  0
  182.8860  174.8720  137.2810 C   0  0  2  0  0  3  0  0  0  0  0  0
  181.4210  174.8940  136.8180 C   0  0  2  0  0  3  0  0  0  0  0  0
  181.1380  175.8520  135.6440 C   0  0  0  0  0  2  0  0  0  0  0  0
  179.9770  177.3030  139.2490 O   0  0  0  0  0  0  0  0  0  0  0  0
  182.5410  175.5580  138.9380 S   0  0  0  0  0  0  0  0  0  0  0  0
  179.7240  176.3950  135.7250 C   0  0  0  0  0  2  0  0  0  0  0  0
  180.1470  176.6740  138.1680 C   0  0  0  0  0  0  0  0  0  0  0  0
  185.8910  172.9720  137.5940 C   0  0  0  0  0  1  0  0  0  0  0  0
  185.8550  174.4920  137.5740 C   0  0  0  0  0  2  0  0  0  0  0  0
  188.6920  177.3680  139.1350 S   0  0  0  0  0  0  0  0  0  0  0  0
  190.2680  177.6290  141.3250 C   0  0  1  0  0  3  0  0  0  0  0  0
  189.6250  176.5490  140.4780 C   0  0  1  0  0  3  0  0  0  0  0  0
  189.1290  176.8080  141.9110 C   0  0  2  0  0  3  0  0  0  0  0  0
  187.5360  178.6180  141.1120 C   0  0  0  0  0  3  0  0  0  0  0  0
  187.8340  177.5710  142.0000 C   0  0  0  0  0  0  0  0  0  0  0  0
  185.4280  178.9910  142.2410 C   0  0  0  0  0  3  0  0  0  0  0  0
  186.3350  179.3210  141.2300 C   0  0  0  0  0  3  0  0  0  0  0  0
  186.9300  177.2580  143.0240 C   0  0  0  0  0  3  0  0  0  0  0  0
  185.7280  177.9620  143.1420 C   0  0  0  0  0  3  0  0  0  0  0  0
  191.6000  177.1300  141.8660 C   0  0  2  0  0  3  0  0  0  0  0  0
  191.6820  178.6600  143.9770 C   0  0  0  0  0  1  0  0  0  0  0  0
  191.6690  177.3030  143.3560 C   0  0  0  0  0  0  0  0  0  0  0  0
  191.7400  176.3200  144.0710 O   0  0  0  0  0  0  0  0  0  0  0  0
  192.7470  177.8660  141.1860 C   0  0  0  0  0  2  0  0  0  0  0  0
  192.8050  177.5130  139.8400 O   0  0  0  0  0  1  0  0  0  0  0  0
  1  7  1  0  0  0  0
  2  4  1  0  0  0  0
  2 29  1  1  0  0  0
  3  4  1  0  0  0  0
  5  1  2  0  0  0  0
  6  1  1  6  0  0  0
  6  2  1  0  0  0  0
  7  3  1  0  0  0  0
  8 16  1  0  0  0  0
  8 28  1  1  0  0  0
  9 14  1  1  0  0  0
  9 10  1  0  0  0  0
 10 11  2  0  0  0  0
 12 13  1  1  0  0  0
 12 14  1  0  0  0  0
 12  6  1  0  0  0  0
 15 13  1  1  0  0  0
 15  9  1  0  0  0  0
 15  8  1  0  0  0  0
 16 11  1  1  0  0  0
 16 20  1  0  0  0  0
 17 26  1  6  0  0  0
 17 24  1  0  0  0  0
 18 26  1  0  0  0  0
 19 18  1  0  0  0  0
 20 24  1  1  0  0  0
 21 22  1  6  0  0  0
 21 20  1  0  0  0  0
 21 17  1  0  0  0  0
 22 25  1  0  0  0  0
 25 18  1  0  0  0  0
 26 23  2  0  0  0  0
 28 27  1  0  0  0  0
 30 39  1  1  0  0  0
 30 32  1  0  0  0  0
 31 29  1  6  0  0  0
 31 30  1  0  0  0  0
 31 32  1  0  0  0  0
 32 34  1  6  0  0  0
 33 36  2  0  0  0  0
 33 34  1  0  0  0  0
 34 37  2  0  0  0  0
 35 38  2  0  0  0  0
 36 35  1  0  0  0  0
 37 38  1  0  0  0  0
 39 43  1  6  0  0  0
 39 41  1  0  0  0  0
 41 40  1  0  0  0  0
 41 42  2  0  0  0  0
 44 43  1  0  0  0  0
M  END
>  <MODEL>
6

>  <REMARK>
 VINA RESULT:      -5.6      2.497      3.085
  Name = 
  9 active torsions:
  status: ('A' for Active; 'I' for Inactive)
    1  A    between atoms: C_5  and  S_26
    2  A    between atoms: C_7  and  C_40
    3  A    between atoms: C_10  and  C_44
    4  A    between atoms: C_12  and  C_42
    5  A    between atoms: C_14  and  C_40
    6  A    between atoms: C_15  and  C_39
    7  A    between atoms: C_20  and  C_40
    8  A    between atoms: S_26  and  C_38
    9  A    between atoms: N_27  and  C_32
                            x       y       z     vdW  Elec       q    Type
                         _______ _______ _______ _____ _____    ______ ____

>  <TORSDO>
F 9

$$$$
=
 OpenBabel11062415503D

 44 50  0  0  1  0  0  0  0  0999 V2000
  186.2780  173.8610  135.5560 C   0  0  0  0  0  0  0  0  0  0  0  0
  188.5250  174.7730  136.3560 C   0  0  2  0  0  3  0  0  0  0  0  0
  187.3050  173.3080  137.7470 C   0  0  0  0  0  2  0  0  0  0  0  0
  188.5640  173.4780  137.0390 N   0  0  0  0  0  2  0  0  0  0  0  0
  185.4190  173.5480  134.5930 C   0  0  0  0  0  2  0  0  0  0  0  0
  187.3730  174.8850  135.3090 C   0  0  2  0  0  3  0  0  0  0  0  0
  186.2490  173.1110  136.7710 N   0  0  0  0  0  2  0  0  0  0  0  0
  183.3720  176.8880  136.5310 C   0  0  2  0  0  3  0  0  0  0  0  0
  185.7950  177.8070  136.7880 C   0  0  1  0  0  3  0  0  0  0  0  0
  185.4300  177.8750  138.2500 C   0  0  0  0  0  3  0  0  0  0  0  0
  184.1600  177.8960  138.6700 C   0  0  0  0  0  3  0  0  0  0  0  0
  186.7880  176.2440  135.2550 N   0  0  1  0  0  0  0  0  0  0  0  0
  185.3400  176.2100  135.0220 C   0  0  0  0  0  2  0  0  0  0  0  0
  186.9430  176.8520  136.5770 C   0  0  0  0  0  2  0  0  0  0  0  0
  184.6980  177.3070  135.8530 C   0  0  1  0  0  3  0  0  0  0  0  0
  183.0250  177.8460  137.6850 C   0  0  2  0  0  3  0  0  0  0  0  0
  180.1700  178.8250  139.3380 C   0  0  1  0  0  3  0  0  0  0  0  0
  180.0450  181.1850  138.3810 N   0  0  0  0  0  0  0  0  0  0  0  0
  180.1580  182.6300  138.5160 C   0  0  0  0  0  1  0  0  0  0  0  0
  181.6850  177.4980  138.3570 C   0  0  2  0  0  3  0  0  0  0  0  0
  180.4690  178.3270  137.9150 C   0  0  2  0  0  3  0  0  0  0  0  0
  180.7910  179.4340  136.8910 C   0  0  0  0  0  2  0  0  0  0  0  0
  180.2950  180.8060  140.6750 O   0  0  0  0  0  0  0  0  0  0  0  0
  181.6290  178.0480  140.0990 S   0  0  0  0  0  0  0  0  0  0  0  0
  179.8480  180.6100  137.0600 C   0  0  0  0  0  2  0  0  0  0  0  0
  180.1920  180.3210  139.5150 C   0  0  0  0  0  0  0  0  0  0  0  0
  182.1520  174.6780  136.0570 C   0  0  0  0  0  1  0  0  0  0  0  0
  183.2250  175.3890  136.8670 C   0  0  0  0  0  2  0  0  0  0  0  0
  190.1200  175.0450  135.5240 S   0  0  0  0  0  0  0  0  0  0  0  0
  190.7870  176.0050  137.9700 C   0  0  1  0  0  3  0  0  0  0  0  0
  190.5240  176.4970  136.5600 C   0  0  1  0  0  3  0  0  0  0  0  0
  191.9470  176.5440  137.1450 C   0  0  2  0  0  3  0  0  0  0  0  0
  193.0360  174.2580  137.3450 C   0  0  0  0  0  3  0  0  0  0  0  0
  192.8680  175.4640  136.6440 C   0  0  0  0  0  0  0  0  0  0  0  0
  194.6360  173.5060  135.6920 C   0  0  0  0  0  3  0  0  0  0  0  0
  193.9120  173.2810  136.8660 C   0  0  0  0  0  3  0  0  0  0  0  0
  193.6120  175.6920  135.4780 C   0  0  0  0  0  3  0  0  0  0  0  0
  194.4890  174.7140  135.0000 C   0  0  0  0  0  3  0  0  0  0  0  0
  190.3290  177.0560  138.9710 C   0  0  2  0  0  3  0  0  0  0  0  0
  192.3680  177.4760  140.5440 C   0  0  0  0  0  1  0  0  0  0  0  0
  191.0250  176.8750  140.2890 C   0  0  0  0  0  0  0  0  0  0  0  0
  190.4960  176.2070  141.1590 O   0  0  0  0  0  0  0  0  0  0  0  0
  188.8180  176.9860  139.1460 C   0  0  0  0  0  2  0  0  0  0  0  0
  188.3500  178.1730  139.7030 O   0  0  0  0  0  1  0  0  0  0  0  0
  1  7  1  0  0  0  0
  2 29  1  6  0  0  0
  2  4  1  0  0  0  0
  4  3  1  0  0  0  0
  5  1  2  0  0  0  0
  6  1  1  1  0  0  0
  6  2  1  0  0  0  0
  7  3  1  0  0  0  0
  8 28  1  1  0  0  0
  8 16  1  0  0  0  0
  9 14  1  1  0  0  0
  9 10  1  0  0  0  0
 10 11  2  0  0  0  0
 12 13  1  1  0  0  0
 12  6  1  0  0  0  0
 12 14  1  0  0  0  0
 15 13  1  1  0  0  0
 15  8  1  0  0  0  0
 15  9  1  0  0  0  0
 16 20  1  0  0  0  0
 16 11  1  1  0  0  0
 17 26  1  6  0  0  0
 17 24  1  0  0  0  0
 18 19  1  0  0  0  0
 18 26  1  0  0  0  0
 20 24  1  1  0  0  0
 21 22  1  6  0  0  0
 21 20  1  0  0  0  0
 21 17  1  0  0  0  0
 22 25  1  0  0  0  0
 25 18  1  0  0  0  0
 26 23  2  0  0  0  0
 27 28  1  0  0  0  0
 30 39  1  1  0  0  0
 31 29  1  6  0  0  0
 31 32  1  0  0  0  0
 31 30  1  0  0  0  0
 32 34  1  6  0  0  0
 32 30  1  0  0  0  0
 34 33  2  0  0  0  0
 35 36  2  0  0  0  0
 36 33  1  0  0  0  0
 37 34  1  0  0  0  0
 38 37  2  0  0  0  0
 38 35  1  0  0  0  0
 39 43  1  1  0  0  0
 39 41  1  0  0  0  0
 41 40  1  0  0  0  0
 41 42  2  0  0  0  0
 43 44  1  0  0  0  0
M  END
>  <MODEL>
7

>  <REMARK>
 VINA RESULT:      -5.5      4.150      7.038
  Name = 
  9 active torsions:
  status: ('A' for Active; 'I' for Inactive)
    1  A    between atoms: C_5  and  S_26
    2  A    between atoms: C_7  and  C_40
    3  A    between atoms: C_10  and  C_44
    4  A    between atoms: C_12  and  C_42
    5  A    between atoms: C_14  and  C_40
    6  A    between atoms: C_15  and  C_39
    7  A    between atoms: C_20  and  C_40
    8  A    between atoms: S_26  and  C_38
    9  A    between atoms: N_27  and  C_32
                            x       y       z     vdW  Elec       q    Type
                         _______ _______ _______ _____ _____    ______ ____

>  <TORSDO>
F 9

$$$$
=
 OpenBabel11062415503D

 44 50  0  0  1  0  0  0  0  0999 V2000
  187.0790  178.2450  145.8610 C   0  0  0  0  0  0  0  0  0  0  0  0
  185.2380  177.9400  144.1170 C   0  0  2  0  0  3  0  0  0  0  0  0
  184.7010  177.7890  146.4110 C   0  0  0  0  0  2  0  0  0  0  0  0
  184.4250  178.5250  145.1860 N   0  0  0  0  0  2  0  0  0  0  0  0
  188.2630  178.7080  146.2410 C   0  0  0  0  0  2  0  0  0  0  0  0
  186.7730  178.0280  144.3880 C   0  0  2  0  0  3  0  0  0  0  0  0
  186.0510  178.1020  146.8420 N   0  0  0  0  0  2  0  0  0  0  0  0
  189.5710  177.0350  140.8260 C   0  0  2  0  0  3  0  0  0  0  0  0
  189.7650  176.2690  143.3080 C   0  0  1  0  0  3  0  0  0  0  0  0
  191.1130  176.9420  143.2310 C   0  0  0  0  0  3  0  0  0  0  0  0
  191.7290  177.1770  142.0670 C   0  0  0  0  0  3  0  0  0  0  0  0
  187.5040  176.8410  143.8920 N   0  0  1  0  0  0  0  0  0  0  0  0
  187.5720  176.8110  142.4270 C   0  0  0  0  0  2  0  0  0  0  0  0
  188.8950  176.9550  144.3320 C   0  0  0  0  0  2  0  0  0  0  0  0
  188.9400  176.2880  142.0250 C   0  0  1  0  0  3  0  0  0  0  0  0
  191.0880  176.7800  140.7660 C   0  0  2  0  0  3  0  0  0  0  0  0
  193.1850  176.6470  138.0400 C   0  0  1  0  0  3  0  0  0  0  0  0
  192.9230  174.1570  137.5610 N   0  0  0  0  0  0  0  0  0  0  0  0
  193.4370  172.7960  137.5400 C   0  0  0  0  0  1  0  0  0  0  0  0
  191.7530  177.4630  139.5570 C   0  0  2  0  0  3  0  0  0  0  0  0
  191.6600  176.7140  138.2180 C   0  0  2  0  0  3  0  0  0  0  0  0
  190.9530  175.3460  138.3030 C   0  0  0  0  0  2  0  0  0  0  0  0
  194.9960  175.0850  138.1170 O   0  0  0  0  0  0  0  0  0  0  0  0
  193.5760  177.3990  139.6500 S   0  0  0  0  0  0  0  0  0  0  0  0
  191.5170  174.3880  137.2700 C   0  0  0  0  0  2  0  0  0  0  0  0
  193.7610  175.2600  137.9280 C   0  0  0  0  0  0  0  0  0  0  0  0
  188.7440  178.8690  139.2300 C   0  0  0  0  0  1  0  0  0  0  0  0
  189.1550  178.5100  140.6500 C   0  0  0  0  0  2  0  0  0  0  0  0
  184.8540  178.7930  142.5560 S   0  0  0  0  0  0  0  0  0  0  0  0
  182.2730  179.0660  141.7760 C   0  0  1  0  0  3  0  0  0  0  0  0
  183.1820  178.0590  142.4530 C   0  0  1  0  0  3  0  0  0  0  0  0
  182.6420  177.7870  141.0390 C   0  0  2  0  0  3  0  0  0  0  0  0
  184.2530  179.2560  139.7360 C   0  0  0  0  0  3  0  0  0  0  0  0
  183.6380  178.0080  139.9310 C   0  0  0  0  0  0  0  0  0  0  0  0
  185.4500  178.3790  137.8230 C   0  0  0  0  0  3  0  0  0  0  0  0
  185.1610  179.4380  138.6900 C   0  0  0  0  0  3  0  0  0  0  0  0
  183.9170  176.9570  139.0480 C   0  0  0  0  0  3  0  0  0  0  0  0
  184.8240  177.1400  138.0000 C   0  0  0  0  0  3  0  0  0  0  0  0
  180.8670  178.9490  142.3460 C   0  0  2  0  0  3  0  0  0  0  0  0
  179.7370  180.5690  140.6410 C   0  0  0  0  0  1  0  0  0  0  0  0
  180.0650  180.1830  142.0460 C   0  0  0  0  0  0  0  0  0  0  0  0
  179.6960  180.8960  142.9610 O   0  0  0  0  0  0  0  0  0  0  0  0
  180.9320  178.7030  143.8470 C   0  0  0  0  0  2  0  0  0  0  0  0
  179.8600  177.9090  144.2450 O   0  0  0  0  0  1  0  0  0  0  0  0
  1  5  2  0  0  0  0
  1  7  1  0  0  0  0
  2 29  1  6  0  0  0
  2  6  1  0  0  0  0
  2  4  1  0  0  0  0
  3  7  1  0  0  0  0
  4  3  1  0  0  0  0
  6  1  1  1  0  0  0
  8 28  1  1  0  0  0
  8 15  1  0  0  0  0
  9 10  1  6  0  0  0
  9 14  1  0  0  0  0
 11 10  2  0  0  0  0
 12 13  1  6  0  0  0
 12 14  1  0  0  0  0
 12  6  1  0  0  0  0
 15 13  1  1  0  0  0
 15  9  1  0  0  0  0
 16  8  1  0  0  0  0
 16 11  1  1  0  0  0
 17 26  1  1  0  0  0
 17 21  1  0  0  0  0
 17 24  1  0  0  0  0
 18 26  1  0  0  0  0
 19 18  1  0  0  0  0
 20 24  1  1  0  0  0
 20 16  1  0  0  0  0
 21 22  1  1  0  0  0
 21 20  1  0  0  0  0
 25 18  1  0  0  0  0
 25 22  1  0  0  0  0
 26 23  2  0  0  0  0
 27 28  1  0  0  0  0
 30 39  1  1  0  0  0
 30 31  1  0  0  0  0
 31 29  1  6  0  0  0
 32 34  1  6  0  0  0
 32 30  1  0  0  0  0
 32 31  1  0  0  0  0
 33 34  1  0  0  0  0
 35 38  2  0  0  0  0
 35 36  1  0  0  0  0
 36 33  2  0  0  0  0
 37 34  2  0  0  0  0
 38 37  1  0  0  0  0
 39 43  1  1  0  0  0
 40 41  1  0  0  0  0
 41 39  1  0  0  0  0
 41 42  2  0  0  0  0
 43 44  1  0  0  0  0
M  END
>  <MODEL>
8

>  <REMARK>
 VINA RESULT:      -5.1      4.306      9.004
  Name = 
  9 active torsions:
  status: ('A' for Active; 'I' for Inactive)
    1  A    between atoms: C_5  and  S_26
    2  A    between atoms: C_7  and  C_40
    3  A    between atoms: C_10  and  C_44
    4  A    between atoms: C_12  and  C_42
    5  A    between atoms: C_14  and  C_40
    6  A    between atoms: C_15  and  C_39
    7  A    between atoms: C_20  and  C_40
    8  A    between atoms: S_26  and  C_38
    9  A    between atoms: N_27  and  C_32
                            x       y       z     vdW  Elec       q    Type
                         _______ _______ _______ _____ _____    ______ ____

>  <TORSDO>
F 9

$$$$
=
 OpenBabel11062415503D

 44 50  0  0  1  0  0  0  0  0999 V2000
  186.9030  178.4310  146.3250 C   0  0  0  0  0  0  0  0  0  0  0  0
  184.9770  178.1020  144.6800 C   0  0  2  0  0  3  0  0  0  0  0  0
  184.5530  177.9980  147.0000 C   0  0  0  0  0  2  0  0  0  0  0  0
  184.2200  178.7110  145.7760 N   0  0  0  0  0  2  0  0  0  0  0  0
  188.1060  178.8950  146.6380 C   0  0  0  0  0  2  0  0  0  0  0  0
  186.5240  178.1870  144.8740 C   0  0  2  0  0  3  0  0  0  0  0  0
  185.9230  178.3120  147.3590 N   0  0  0  0  0  2  0  0  0  0  0  0
  189.2350  177.1390  141.2600 C   0  0  2  0  0  3  0  0  0  0  0  0
  189.4640  176.3750  143.7400 C   0  0  1  0  0  3  0  0  0  0  0  0
  190.8220  177.0240  143.6350 C   0  0  0  0  0  3  0  0  0  0  0  0
  191.4190  177.2470  142.4590 C   0  0  0  0  0  3  0  0  0  0  0  0
  187.2250  176.9860  144.3670 N   0  0  1  0  0  0  0  0  0  0  0  0
  187.2640  176.9520  142.9010 C   0  0  0  0  0  2  0  0  0  0  0  0
  188.6260  177.0770  144.7800 C   0  0  0  0  0  2  0  0  0  0  0  0
  188.6140  176.4050  142.4730 C   0  0  1  0  0  3  0  0  0  0  0  0
  190.7460  176.8580  141.1710 C   0  0  2  0  0  3  0  0  0  0  0  0
  192.0300  176.6530  137.9850 C   0  0  1  0  0  3  0  0  0  0  0  0
  190.6430  174.6590  137.2130 N   0  0  0  0  0  0  0  0  0  0  0  0
  190.5100  173.2590  136.8370 C   0  0  0  0  0  1  0  0  0  0  0  0
  191.3990  177.5280  139.9480 C   0  0  2  0  0  3  0  0  0  0  0  0
  190.7440  177.2410  138.5880 C   0  0  2  0  0  3  0  0  0  0  0  0
  189.5500  176.2670  138.6490 C   0  0  0  0  0  2  0  0  0  0  0  0
  192.9770  174.5620  137.3100 O   0  0  0  0  0  0  0  0  0  0  0  0
  193.0000  176.7610  139.5200 S   0  0  0  0  0  0  0  0  0  0  0  0
  189.4440  175.4680  137.3630 C   0  0  0  0  0  2  0  0  0  0  0  0
  191.9250  175.2310  137.5020 C   0  0  0  0  0  0  0  0  0  0  0  0
  187.4910  178.8250  140.4180 C   0  0  0  0  0  1  0  0  0  0  0  0
  188.8400  178.6210  141.0890 C   0  0  0  0  0  2  0  0  0  0  0  0
  184.5210  178.9250  143.1230 S   0  0  0  0  0  0  0  0  0  0  0  0
  181.8990  179.3900  142.6200 C   0  0  1  0  0  3  0  0  0  0  0  0
  182.7990  178.3120  143.1890 C   0  0  1  0  0  3  0  0  0  0  0  0
  182.0980  178.1010  141.8360 C   0  0  2  0  0  3  0  0  0  0  0  0
  183.3490  179.5450  140.1610 C   0  0  0  0  0  3  0  0  0  0  0  0
  182.9870  178.2710  140.6330 C   0  0  0  0  0  0  0  0  0  0  0  0
  184.6070  178.5320  138.3580 C   0  0  0  0  0  3  0  0  0  0  0  0
  184.1610  179.6730  139.0320 C   0  0  0  0  0  3  0  0  0  0  0  0
  183.4210  177.1320  139.9420 C   0  0  0  0  0  3  0  0  0  0  0  0
  184.2330  177.2610  138.8110 C   0  0  0  0  0  3  0  0  0  0  0  0
  180.5550  179.3620  143.3330 C   0  0  2  0  0  3  0  0  0  0  0  0
  179.3760  177.6390  141.7690 C   0  0  0  0  0  1  0  0  0  0  0  0
  179.8660  178.0450  143.1190 C   0  0  0  0  0  0  0  0  0  0  0  0
  179.6810  177.3040  144.0680 O   0  0  0  0  0  0  0  0  0  0  0  0
  179.6810  180.5100  142.8440 C   0  0  0  0  0  2  0  0  0  0  0  0
  180.0580  180.8770  141.5550 O   0  0  0  0  0  1  0  0  0  0  0  0
  1  5  2  0  0  0  0
  1  7  1  0  0  0  0
  2 29  1  6  0  0  0
  2  6  1  0  0  0  0
  2  4  1  0  0  0  0
  3  7  1  0  0  0  0
  4  3  1  0  0  0  0
  6  1  1  1  0  0  0
  8 28  1  1  0  0  0
  8 15  1  0  0  0  0
  9 10  1  6  0  0  0
  9 14  1  0  0  0  0
 11 10  2  0  0  0  0
 12 13  1  6  0  0  0
 12 14  1  0  0  0  0
 12  6  1  0  0  0  0
 15 13  1  1  0  0  0
 15  9  1  0  0  0  0
 16  8  1  0  0  0  0
 16 11  1  1  0  0  0
 17 26  1  1  0  0  0
 17 21  1  0  0  0  0
 17 24  1  0  0  0  0
 18 25  1  0  0  0  0
 18 26  1  0  0  0  0
 19 18  1  0  0  0  0
 20 24  1  6  0  0  0
 20 16  1  0  0  0  0
 21 22  1  1  0  0  0
 21 20  1  0  0  0  0
 23 26  2  0  0  0  0
 25 22  1  0  0  0  0
 27 28  1  0  0  0  0
 30 31  1  0  0  0  0
 30 39  1  1  0  0  0
 31 29  1  6  0  0  0
 32 34  1  6  0  0  0
 32 30  1  0  0  0  0
 32 31  1  0  0  0  0
 33 34  1  0  0  0  0
 35 38  2  0  0  0  0
 35 36  1  0  0  0  0
 36 33  2  0  0  0  0
 37 34  2  0  0  0  0
 38 37  1  0  0  0  0
 39 43  1  6  0  0  0
 40 41  1  0  0  0  0
 41 39  1  0  0  0  0
 41 42  2  0  0  0  0
 44 43  1  0  0  0  0
M  END
>  <MODEL>
9

>  <REMARK>
 VINA RESULT:      -5.1      4.314      8.725
  Name = 
  9 active torsions:
  status: ('A' for Active; 'I' for Inactive)
    1  A    between atoms: C_5  and  S_26
    2  A    between atoms: C_7  and  C_40
    3  A    between atoms: C_10  and  C_44
    4  A    between atoms: C_12  and  C_42
    5  A    between atoms: C_14  and  C_40
    6  A    between atoms: C_15  and  C_39
    7  A    between atoms: C_20  and  C_40
    8  A    between atoms: S_26  and  C_38
    9  A    between atoms: N_27  and  C_32
                            x       y       z     vdW  Elec       q    Type
                         _______ _______ _______ _____ _____    ______ ____

>  <TORSDO>
F 9

$$$$
