=
 OpenBabel11062417393D

 65 68  0  0  1  0  0  0  0  0999 V2000
  186.0410  176.4850  137.4750 O   0  0  0  0  0  0  0  0  0  0  0  0
  185.7810  175.8480  135.1400 C   0  0  2  0  0  3  0  0  0  0  0  0
  189.7690  176.9500  135.6110 C   0  0  1  0  0  3  0  0  0  0  0  0
  187.4030  176.7960  137.6180 C   0  0  1  0  0  3  0  0  0  0  0  0
  187.5210  177.7700  135.2140 C   0  0  2  0  0  3  0  0  0  0  0  0
  188.6280  176.9210  134.6010 C   0  0  0  0  0  2  0  0  0  0  0  0
  187.8300  177.9750  136.7060 C   0  0  2  0  0  3  0  0  0  0  0  0
  189.3570  177.9990  136.6440 C   0  0  0  0  0  2  0  0  0  0  0  0
  186.0500  175.4080  136.5890 C   0  0  0  0  0  2  0  0  0  0  0  0
  186.0970  177.3230  134.8920 C   0  0  0  0  0  2  0  0  0  0  0  0
  189.2530  172.1690  136.2110 C   0  0  0  0  0  2  0  0  0  0  0  0
  190.7490  173.7470  137.3760 C   0  0  0  0  0  2  0  0  0  0  0  0
  191.1600  175.1410  136.9330 C   0  0  1  0  0  3  0  0  0  0  0  0
  189.3590  174.4640  135.5490 N   0  0  0  0  0  2  0  0  0  0  0  0
  189.8720  173.3400  136.2490 C   0  0  0  0  0  0  0  0  0  0  0  0
  189.8410  175.6010  136.3150 C   0  0  2  0  0  3  0  0  0  0  0  0
  191.5530  175.9280  138.0150 O   0  0  0  0  0  0  0  0  0  0  0  0
  192.8860  176.3870  137.7960 C   0  0  2  0  0  3  0  0  0  0  0  0
  194.1140  174.2700  138.1570 O   0  0  0  0  0  1  0  0  0  0  0  0
  194.4580  175.4010  136.2090 O   0  0  0  0  0  0  0  0  0  0  0  0
  193.8660  175.3390  137.3240 C   0  0  0  0  0  0  0  0  0  0  0  0
  193.5360  177.5650  139.0400 S   0  0  2  0  0  0  0  0  0  0  0  0
  194.4090  176.6960  139.9320 O   0  0  0  0  0  0  0  0  0  0  0  0
  190.9600  178.1290  139.3640 F   0  0  0  0  0  0  0  0  0  0  0  0
  192.1290  178.0550  140.1110 C   0  0  1  0  0  3  0  0  0  0  0  0
  192.0000  177.0720  141.2670 C   0  0  0  0  0  2  0  0  0  0  0  0
  192.0600  177.7180  142.6540 C   0  0  0  0  0  2  0  0  0  0  0  0
  191.1640  177.0560  143.6050 N   0  0  0  0  0  2  0  0  0  0  0  0
  189.9860  177.9030  143.6990 C   0  0  0  0  0  2  0  0  0  0  0  0
  188.7560  177.1270  143.2680 C   0  0  0  0  0  2  0  0  0  0  0  0
  187.9630  176.5800  144.4480 C   0  0  0  0  0  2  0  0  0  0  0  0
  186.9190  177.9430  146.2790 C   0  0  0  0  0  0  0  0  0  0  0  0
  187.0210  177.6110  144.9830 C   0  0  0  0  0  3  0  0  0  0  0  0
  186.0280  180.1810  147.8200 O   0  0  0  0  0  1  0  0  0  0  0  0
  185.5290  178.9840  146.7270 P   0  0  0  0  0  0  0  0  0  0  0  0
  184.9550  179.7450  145.3220 O   0  0  0  0  0  0  0  0  0  0  0  0
  184.4100  178.1620  147.3500 O   0  0  0  0  0  1  0  0  0  0  0  0
  187.6400  177.2090  147.3650 C   0  0  0  0  0  2  0  0  0  0  0  0
  188.3460  178.2950  149.3060 O   0  0  0  0  0  0  0  0  0  0  0  0
  188.5380  178.1230  148.1130 C   0  0  0  0  0  3  0  0  0  0  0  0
  182.1970  178.4870  134.6050 C   0  0  0  0  0  1  0  0  0  0  0  0
  184.3480  175.6340  134.8400 C   0  0  0  0  0  3  0  0  0  0  0  0
  183.4440  176.5070  135.1910 C   0  0  0  0  0  0  0  0  0  0  0  0
  182.4770  177.3270  135.5060 C   0  0  0  0  0  0  0  0  0  0  0  0
  181.3760  176.8510  136.4040 C   0  0  1  0  0  3  0  0  0  0  0  0
  180.1210  177.0730  135.8160 O   0  0  0  0  0  1  0  0  0  0  0  0
  181.5470  175.4930  136.7080 O   0  0  0  0  0  0  0  0  0  0  0  0
  180.4620  174.8140  136.0970 C   0  0  0  0  0  2  0  0  0  0  0  0
  180.2760  173.4000  136.7010 C   0  0  1  0  0  3  0  0  0  0  0  0
  181.0240  171.1110  136.5370 O   0  0  0  0  0  1  0  0  0  0  0  0
  181.2980  172.4080  136.1130 C   0  0  2  0  0  3  0  0  0  0  0  0
  182.7440  172.7500  136.4810 C   0  0  0  0  0  2  0  0  0  0  0  0
  183.5990  171.7000  136.1440 O   0  0  0  0  0  1  0  0  0  0  0  0
  180.3200  173.4790  138.2300 C   0  0  0  0  0  2  0  0  0  0  0  0
  179.3240  174.3420  139.9370 O   0  0  0  0  0  1  0  0  0  0  0  0
  179.0630  173.8250  138.7500 O   0  0  0  0  0  0  0  0  0  0  0  0
  187.8160  177.0060  139.0840 C   0  0  0  0  0  2  0  0  0  0  0  0
  186.6430  177.1680  140.0530 C   0  0  0  0  0  2  0  0  0  0  0  0
  185.7370  178.7430  139.7730 S   0  0  0  0  0  0  0  0  0  0  0  0
  183.0730  178.3650  140.0220 C   0  0  2  0  0  3  0  0  0  0  0  0
  183.2860  178.7700  138.6820 O   0  0  0  0  0  0  0  0  0  0  0  0
  184.2220  177.8610  139.2250 C   0  0  1  0  0  3  0  0  0  0  0  0
  182.0130  177.4380  140.0740 O   0  0  0  0  0  0  0  0  0  0  0  0
  180.8530  178.1050  140.5180 C   0  0  0  0  0  2  0  0  0  0  0  0
  180.3570  179.0670  139.5230 N   0  0  0  0  0  1  0  0  0  0  0  0
  1  4  1  0  0  0  0
  2 42  1  1  0  0  0
  2  9  1  0  0  0  0
  3  6  1  6  0  0  0
  3 16  1  0  0  0  0
  3  8  1  0  0  0  0
  4 57  1  1  0  0  0
  5  6  1  1  0  0  0
  5  7  1  0  0  0  0
  7  8  1  6  0  0  0
  7  4  1  0  0  0  0
  9  1  1  0  0  0  0
 10  2  1  0  0  0  0
 10  5  1  0  0  0  0
 11 15  2  0  0  0  0
 13 12  1  0  0  0  0
 13 17  1  1  0  0  0
 14 15  1  0  0  0  0
 15 12  1  0  0  0  0
 16 14  1  6  0  0  0
 16 13  1  0  0  0  0
 18 21  1  1  0  0  0
 18 17  1  0  0  0  0
 18 22  1  0  0  0  0
 20 21  2  0  0  0  0
 21 19  1  0  0  0  0
 22 23  2  1  0  0  0
 22 25  1  0  0  0  0
 25 24  1  6  0  0  0
 25 26  1  0  0  0  0
 26 27  1  0  0  0  0
 27 28  1  0  0  0  0
 28 29  1  0  0  0  0
 30 29  1  0  0  0  0
 30 31  1  0  0  0  0
 31 33  1  0  0  0  0
 32 35  1  0  0  0  0
 32 38  1  0  0  0  0
 33 32  2  0  0  0  0
 35 37  1  0  0  0  0
 35 34  1  0  0  0  0
 36 35  2  0  0  0  0
 38 40  1  0  0  0  0
 40 39  2  0  0  0  0
 41 44  1  0  0  0  0
 42 43  2  0  0  0  0
 43 44  2  0  0  0  0
 44 45  1  0  0  0  0
 45 46  1  6  0  0  0
 45 47  1  0  0  0  0
 48 47  1  0  0  0  0
 49 48  1  6  0  0  0
 49 54  1  0  0  0  0
 51 52  1  0  0  0  0
 51 50  1  1  0  0  0
 51 49  1  0  0  0  0
 53 52  1  0  0  0  0
 54 56  1  0  0  0  0
 56 55  1  0  0  0  0
 57 58  1  0  0  0  0
 59 58  1  0  0  0  0
 60 63  1  6  0  0  0
 61 62  1  0  0  0  0
 61 60  1  0  0  0  0
 62 59  1  1  0  0  0
 62 60  1  0  0  0  0
 63 64  1  0  0  0  0
 65 64  1  0  0  0  0
M  END
>  <MODEL>
1

>  <REMARK>
 VINA RESULT:      -3.0      0.000      0.000
  Name = 
  31 active torsions:
  status: ('A' for Active; 'I' for Inactive)
    1  A    between atoms: C_2  and  O_28
    2  A    between atoms: C_2  and  C_57
    3  A    between atoms: O_3  and  C_24
    4  A    between atoms: O_3  and  C_34
    5  A    between atoms: C_8  and  C_26
    6  A    between atoms: O_9  and  C_30
    7  A    between atoms: O_9  and  C_53
    8  A    between atoms: N_10  and  C_38
    9  A    between atoms: N_10  and  C_55
   10  A    between atoms: C_12  and  C_60
   11  A    between atoms: C_14  and  C_38
   12  A    between atoms: C_14  and  C_44
   13  A    between atoms: C_15  and  C_39
   14  A    between atoms: C_18  and  C_52
   15  A    between atoms: S_21  and  C_61
   16  A    between atoms: S_21  and  C_65
   17  A    between atoms: C_23  and  C_29
   18  A    between atoms: C_23  and  C_33
   19  A    between atoms: O_28  and  C_59
   20  A    between atoms: C_31  and  C_42
   21  A    between atoms: C_31  and  C_52
   22  A    between atoms: C_31  and  C_59
   23  A    between atoms: C_33  and  P_35
   24  A    between atoms: C_39  and  C_61
   25  A    between atoms: S_40  and  C_53
   26  A    between atoms: S_40  and  C_56
   27  A    between atoms: C_42  and  O_62
   28  A    between atoms: C_44  and  C_45
   29  A    between atoms: C_53  and  C_58
   30  A    between atoms: C_55  and  C_63
   31  A    between atoms: C_56  and  C_63
                            x       y       z     vdW  Elec       q    Type
                         _______ _______ _______ _____ _____    ______ ____

>  <TORSDO>
F 31

$$$$
=
 OpenBabel11062417393D

 65 68  0  0  1  0  0  0  0  0999 V2000
  185.9300  176.3740  137.4960 O   0  0  0  0  0  0  0  0  0  0  0  0
  185.5190  176.1740  135.1060 C   0  0  2  0  0  3  0  0  0  0  0  0
  189.5160  177.2680  135.5160 C   0  0  1  0  0  3  0  0  0  0  0  0
  187.2940  176.6870  137.6080 C   0  0  1  0  0  3  0  0  0  0  0  0
  187.2360  178.0910  135.4250 C   0  0  2  0  0  3  0  0  0  0  0  0
  188.3090  177.3990  134.5940 C   0  0  0  0  0  2  0  0  0  0  0  0
  187.6440  178.0240  136.9050 C   0  0  2  0  0  3  0  0  0  0  0  0
  189.1630  178.0970  136.7500 C   0  0  0  0  0  2  0  0  0  0  0  0
  185.8920  175.4810  136.4270 C   0  0  0  0  0  2  0  0  0  0  0  0
  185.8000  177.6770  135.1170 C   0  0  0  0  0  2  0  0  0  0  0  0
  189.1830  172.4430  135.2070 C   0  0  0  0  0  2  0  0  0  0  0  0
  190.6500  173.8310  136.6250 C   0  0  0  0  0  2  0  0  0  0  0  0
  191.0000  175.2970  136.4480 C   0  0  1  0  0  3  0  0  0  0  0  0
  189.1920  174.8240  134.9900 N   0  0  0  0  0  2  0  0  0  0  0  0
  189.7610  173.6090  135.4560 C   0  0  0  0  0  0  0  0  0  0  0  0
  189.6520  175.8140  135.9500 C   0  0  2  0  0  3  0  0  0  0  0  0
  191.3910  175.8810  137.6520 O   0  0  0  0  0  0  0  0  0  0  0  0
  192.7200  176.3820  137.5170 C   0  0  2  0  0  3  0  0  0  0  0  0
  194.0270  174.2830  137.5700 O   0  0  0  0  0  1  0  0  0  0  0  0
  194.2540  175.6520  135.7630 O   0  0  0  0  0  0  0  0  0  0  0  0
  193.7120  175.4350  136.8830 C   0  0  0  0  0  0  0  0  0  0  0  0
  193.3560  177.3450  138.9410 S   0  0  2  0  0  0  0  0  0  0  0  0
  194.0550  176.2980  139.7950 O   0  0  0  0  0  0  0  0  0  0  0  0
  190.7860  177.9900  139.1270 F   0  0  0  0  0  0  0  0  0  0  0  0
  191.9050  177.8600  139.9390 C   0  0  1  0  0  3  0  0  0  0  0  0
  191.6760  176.8570  141.0620 C   0  0  0  0  0  2  0  0  0  0  0  0
  192.4150  177.1850  142.3620 C   0  0  0  0  0  2  0  0  0  0  0  0
  191.8070  176.5250  143.5190 N   0  0  0  0  0  2  0  0  0  0  0  0
  190.6200  177.3000  143.8430 C   0  0  0  0  0  2  0  0  0  0  0  0
  189.5900  176.4110  144.5150 C   0  0  0  0  0  2  0  0  0  0  0  0
  189.1470  176.9480  145.8700 C   0  0  0  0  0  2  0  0  0  0  0  0
  187.1100  178.0820  146.8010 C   0  0  0  0  0  0  0  0  0  0  0  0
  187.8460  177.6780  145.7550 C   0  0  0  0  0  3  0  0  0  0  0  0
  184.3980  178.2590  147.6910 O   0  0  0  0  0  1  0  0  0  0  0  0
  185.4580  178.6720  146.4320 P   0  0  0  0  0  0  0  0  0  0  0  0
  185.5080  180.3640  146.3060 O   0  0  0  0  0  1  0  0  0  0  0  0
  184.9470  178.0830  145.1250 O   0  0  0  0  0  0  0  0  0  0  0  0
  187.4380  177.7180  148.2150 C   0  0  0  0  0  2  0  0  0  0  0  0
  189.7640  177.9090  148.2530 O   0  0  0  0  0  0  0  0  0  0  0  0
  188.7010  178.3640  148.6460 C   0  0  0  0  0  3  0  0  0  0  0  0
  181.7920  178.4850  136.0340 C   0  0  0  0  0  1  0  0  0  0  0  0
  184.0720  175.9840  134.8640 C   0  0  0  0  0  3  0  0  0  0  0  0
  183.1760  176.5540  135.6250 C   0  0  0  0  0  0  0  0  0  0  0  0
  182.2170  177.0840  136.3350 C   0  0  0  0  0  0  0  0  0  0  0  0
  181.2440  176.1870  137.0370 C   0  0  1  0  0  3  0  0  0  0  0  0
  181.8560  175.5350  138.1190 O   0  0  0  0  0  1  0  0  0  0  0  0
  180.1280  176.9200  137.4670 O   0  0  0  0  0  0  0  0  0  0  0  0
  179.9530  176.6010  138.8380 C   0  0  0  0  0  2  0  0  0  0  0  0
  179.4870  177.8370  139.6450 C   0  0  1  0  0  3  0  0  0  0  0  0
  179.2490  176.3490  141.5300 O   0  0  0  0  0  1  0  0  0  0  0  0
  179.6840  177.6180  141.1570 C   0  0  2  0  0  3  0  0  0  0  0  0
  178.9550  178.6570  142.0130 C   0  0  0  0  0  2  0  0  0  0  0  0
  179.8120  179.1880  142.9770 O   0  0  0  0  0  1  0  0  0  0  0  0
  180.1880  179.0940  139.1200 C   0  0  0  0  0  2  0  0  0  0  0  0
  180.8860  181.0910  139.5450 O   0  0  0  0  0  1  0  0  0  0  0  0
  180.2000  180.1050  140.0950 O   0  0  0  0  0  0  0  0  0  0  0  0
  187.8030  176.6320  139.0560 C   0  0  0  0  0  2  0  0  0  0  0  0
  187.0000  177.4860  140.0400 C   0  0  0  0  0  2  0  0  0  0  0  0
  188.0800  178.6200  141.0020 S   0  0  0  0  0  0  0  0  0  0  0  0
  185.4960  178.3400  141.7430 C   0  0  2  0  0  3  0  0  0  0  0  0
  186.2630  178.1430  142.9170 O   0  0  0  0  0  0  0  0  0  0  0  0
  186.6830  179.1800  142.0540 C   0  0  1  0  0  3  0  0  0  0  0  0
  184.2860  178.9830  142.0690 O   0  0  0  0  0  0  0  0  0  0  0  0
  183.2940  178.5650  141.1600 C   0  0  0  0  0  2  0  0  0  0  0  0
  183.8300  178.3850  139.8030 N   0  0  0  0  0  1  0  0  0  0  0  0
  1  4  1  0  0  0  0
  2 42  1  1  0  0  0
  2 10  1  0  0  0  0
  2  9  1  0  0  0  0
  3  6  1  6  0  0  0
  3 16  1  0  0  0  0
  3  8  1  0  0  0  0
  4 57  1  1  0  0  0
  5  6  1  6  0  0  0
  5  7  1  0  0  0  0
  7  8  1  6  0  0  0
  7  4  1  0  0  0  0
  9  1  1  0  0  0  0
 10  5  1  0  0  0  0
 11 15  2  0  0  0  0
 13 12  1  0  0  0  0
 13 17  1  1  0  0  0
 14 15  1  0  0  0  0
 15 12  1  0  0  0  0
 16 14  1  6  0  0  0
 16 13  1  0  0  0  0
 18 21  1  1  0  0  0
 18 17  1  0  0  0  0
 18 22  1  0  0  0  0
 20 21  2  0  0  0  0
 21 19  1  0  0  0  0
 22 23  2  1  0  0  0
 22 25  1  0  0  0  0
 25 24  1  6  0  0  0
 25 26  1  0  0  0  0
 26 27  1  0  0  0  0
 27 28  1  0  0  0  0
 28 29  1  0  0  0  0
 29 30  1  0  0  0  0
 30 31  1  0  0  0  0
 32 38  1  0  0  0  0
 33 31  1  0  0  0  0
 33 32  2  0  0  0  0
 35 32  1  0  0  0  0
 35 34  1  0  0  0  0
 36 35  1  0  0  0  0
 37 35  2  0  0  0  0
 38 40  1  0  0  0  0
 39 40  2  0  0  0  0
 41 44  1  0  0  0  0
 42 43  2  0  0  0  0
 43 44  2  0  0  0  0
 44 45  1  0  0  0  0
 45 47  1  0  0  0  0
 45 46  1  1  0  0  0
 47 48  1  0  0  0  0
 49 48  1  6  0  0  0
 49 51  1  0  0  0  0
 51 50  1  1  0  0  0
 51 52  1  0  0  0  0
 52 53  1  0  0  0  0
 54 49  1  0  0  0  0
 54 56  1  0  0  0  0
 55 56  1  0  0  0  0
 57 58  1  0  0  0  0
 58 59  1  0  0  0  0
 60 62  1  0  0  0  0
 60 63  1  1  0  0  0
 60 61  1  0  0  0  0
 62 59  1  6  0  0  0
 62 61  1  0  0  0  0
 64 63  1  0  0  0  0
 65 64  1  0  0  0  0
M  END
>  <MODEL>
2

>  <REMARK>
 VINA RESULT:      -2.3      1.734      3.076
  Name = 
  31 active torsions:
  status: ('A' for Active; 'I' for Inactive)
    1  A    between atoms: C_2  and  O_28
    2  A    between atoms: C_2  and  C_57
    3  A    between atoms: O_3  and  C_24
    4  A    between atoms: O_3  and  C_34
    5  A    between atoms: C_8  and  C_26
    6  A    between atoms: O_9  and  C_30
    7  A    between atoms: O_9  and  C_53
    8  A    between atoms: N_10  and  C_38
    9  A    between atoms: N_10  and  C_55
   10  A    between atoms: C_12  and  C_60
   11  A    between atoms: C_14  and  C_38
   12  A    between atoms: C_14  and  C_44
   13  A    between atoms: C_15  and  C_39
   14  A    between atoms: C_18  and  C_52
   15  A    between atoms: S_21  and  C_61
   16  A    between atoms: S_21  and  C_65
   17  A    between atoms: C_23  and  C_29
   18  A    between atoms: C_23  and  C_33
   19  A    between atoms: O_28  and  C_59
   20  A    between atoms: C_31  and  C_42
   21  A    between atoms: C_31  and  C_52
   22  A    between atoms: C_31  and  C_59
   23  A    between atoms: C_33  and  P_35
   24  A    between atoms: C_39  and  C_61
   25  A    between atoms: S_40  and  C_53
   26  A    between atoms: S_40  and  C_56
   27  A    between atoms: C_42  and  O_62
   28  A    between atoms: C_44  and  C_45
   29  A    between atoms: C_53  and  C_58
   30  A    between atoms: C_55  and  C_63
   31  A    between atoms: C_56  and  C_63
                            x       y       z     vdW  Elec       q    Type
                         _______ _______ _______ _____ _____    ______ ____

>  <TORSDO>
F 31

$$$$
=
 OpenBabel11062417393D

 65 68  0  0  1  0  0  0  0  0999 V2000
  185.5340  175.9470  138.3240 O   0  0  0  0  0  0  0  0  0  0  0  0
  184.0800  174.7620  136.7730 C   0  0  2  0  0  3  0  0  0  0  0  0
  187.7460  175.1880  134.8430 C   0  0  1  0  0  3  0  0  0  0  0  0
  186.7750  176.0270  137.6730 C   0  0  1  0  0  3  0  0  0  0  0  0
  185.6370  176.2730  135.3530 C   0  0  2  0  0  3  0  0  0  0  0  0
  186.2440  175.1000  134.5940 C   0  0  0  0  0  2  0  0  0  0  0  0
  186.6840  176.8130  136.3400 C   0  0  2  0  0  3  0  0  0  0  0  0
  187.9540  176.5350  135.5350 C   0  0  0  0  0  2  0  0  0  0  0  0
  185.0590  174.6890  137.9570 C   0  0  0  0  0  2  0  0  0  0  0  0
  184.2470  176.0290  135.9340 C   0  0  0  0  0  2  0  0  0  0  0  0
  187.7400  170.8160  136.9340 C   0  0  0  0  0  2  0  0  0  0  0  0
  189.4880  172.5570  136.9340 C   0  0  0  0  0  2  0  0  0  0  0  0
  189.6260  173.7380  135.9900 C   0  0  1  0  0  3  0  0  0  0  0  0
  187.4680  172.8180  135.6560 N   0  0  0  0  0  2  0  0  0  0  0  0
  188.2660  171.9070  136.3960 C   0  0  0  0  0  0  0  0  0  0  0  0
  188.1500  174.0910  135.8200 C   0  0  2  0  0  3  0  0  0  0  0  0
  190.3660  174.7710  136.5650 O   0  0  0  0  0  0  0  0  0  0  0  0
  191.5540  174.9740  135.8010 C   0  0  2  0  0  3  0  0  0  0  0  0
  193.3690  173.8040  134.5950 O   0  0  0  0  0  0  0  0  0  0  0  0
  191.4000  172.7050  134.9130 O   0  0  0  0  0  1  0  0  0  0  0  0
  192.0820  173.7550  135.0820 C   0  0  0  0  0  0  0  0  0  0  0  0
  192.8280  176.0380  136.5780 S   0  0  2  0  0  0  0  0  0  0  0  0
  193.7230  175.0470  137.3060 O   0  0  0  0  0  0  0  0  0  0  0  0
  190.6230  176.9370  137.7580 F   0  0  0  0  0  0  0  0  0  0  0  0
  192.0020  176.9820  137.9180 C   0  0  1  0  0  3  0  0  0  0  0  0
  192.4330  176.4330  139.2710 C   0  0  0  0  0  2  0  0  0  0  0  0
  193.2820  177.3980  140.1030 C   0  0  0  0  0  2  0  0  0  0  0  0
  193.1390  177.1530  141.5400 N   0  0  0  0  0  2  0  0  0  0  0  0
  191.7620  177.4850  141.8670 C   0  0  0  0  0  2  0  0  0  0  0  0
  191.2970  176.6560  143.0500 C   0  0  0  0  0  2  0  0  0  0  0  0
  191.6080  177.3160  144.3880 C   0  0  0  0  0  2  0  0  0  0  0  0
  190.3050  177.3670  146.5330 C   0  0  0  0  0  0  0  0  0  0  0  0
  190.3630  177.4900  145.1980 C   0  0  0  0  0  3  0  0  0  0  0  0
  188.4570  175.8940  148.1420 O   0  0  0  0  0  1  0  0  0  0  0  0
  188.6660  177.3270  147.2590 P   0  0  0  0  0  0  0  0  0  0  0  0
  188.5190  178.6410  148.3240 O   0  0  0  0  0  1  0  0  0  0  0  0
  187.5910  177.4230  146.1860 O   0  0  0  0  0  0  0  0  0  0  0  0
  191.4620  176.8950  147.3560 C   0  0  0  0  0  2  0  0  0  0  0  0
  192.9130  175.0690  147.4240 O   0  0  0  0  0  0  0  0  0  0  0  0
  191.9660  175.5920  146.8590 C   0  0  0  0  0  3  0  0  0  0  0  0
  180.9070  177.8380  137.5250 C   0  0  0  0  0  1  0  0  0  0  0  0
  182.6980  174.7460  137.3010 C   0  0  0  0  0  3  0  0  0  0  0  0
  182.1670  175.8070  137.8450 C   0  0  0  0  0  0  0  0  0  0  0  0
  181.5610  176.8200  138.4030 C   0  0  0  0  0  0  0  0  0  0  0  0
  181.0830  176.6990  139.8180 C   0  0  1  0  0  3  0  0  0  0  0  0
  182.0680  177.1340  140.7170 O   0  0  0  0  0  1  0  0  0  0  0  0
  179.8950  177.4230  139.9950 O   0  0  0  0  0  0  0  0  0  0  0  0
  179.8830  177.8300  141.3540 C   0  0  0  0  0  2  0  0  0  0  0  0
  179.2780  179.2470  141.5080 C   0  0  1  0  0  3  0  0  0  0  0  0
  179.8210  180.9720  143.1080 O   0  0  0  0  0  1  0  0  0  0  0  0
  179.2840  179.6940  142.9830 C   0  0  2  0  0  3  0  0  0  0  0  0
  180.0640  178.7420  143.8940 C   0  0  0  0  0  2  0  0  0  0  0  0
  179.2100  177.7990  144.4670 O   0  0  0  0  0  1  0  0  0  0  0  0
  180.0020  180.2250  140.5770 C   0  0  0  0  0  2  0  0  0  0  0  0
  179.8510  181.5840  138.9090 O   0  0  0  0  0  1  0  0  0  0  0  0
  179.1430  180.6820  139.5650 O   0  0  0  0  0  0  0  0  0  0  0  0
  187.8970  176.5440  138.5870 C   0  0  0  0  0  2  0  0  0  0  0  0
  187.4220  177.4750  139.7040 C   0  0  0  0  0  2  0  0  0  0  0  0
  188.7980  178.4820  140.3890 S   0  0  0  0  0  0  0  0  0  0  0  0
  186.5130  178.8220  141.7920 C   0  0  2  0  0  3  0  0  0  0  0  0
  187.0530  177.5840  142.2180 O   0  0  0  0  0  0  0  0  0  0  0  0
  187.9710  178.6400  142.0210 C   0  0  1  0  0  3  0  0  0  0  0  0
  185.8780  179.4600  142.8750 O   0  0  0  0  0  0  0  0  0  0  0  0
  184.7090  178.7430  143.1990 C   0  0  0  0  0  2  0  0  0  0  0  0
  184.5160  178.6330  144.6520 N   0  0  0  0  0  1  0  0  0  0  0  0
  2 42  1  1  0  0  0
  2  9  1  0  0  0  0
  3  6  1  1  0  0  0
  3  8  1  0  0  0  0
  3 16  1  0  0  0  0
  4  1  1  0  0  0  0
  4 57  1  1  0  0  0
  5  6  1  1  0  0  0
  5 10  1  0  0  0  0
  5  7  1  0  0  0  0
  7  8  1  6  0  0  0
  7  4  1  0  0  0  0
  9  1  1  0  0  0  0
 10  2  1  0  0  0  0
 13 17  1  1  0  0  0
 13 12  1  0  0  0  0
 14 15  1  0  0  0  0
 15 12  1  0  0  0  0
 15 11  2  0  0  0  0
 16 14  1  6  0  0  0
 16 13  1  0  0  0  0
 18 21  1  1  0  0  0
 18 17  1  0  0  0  0
 18 22  1  0  0  0  0
 19 21  2  0  0  0  0
 20 21  1  0  0  0  0
 22 23  2  1  0  0  0
 22 25  1  0  0  0  0
 25 24  1  6  0  0  0
 25 26  1  0  0  0  0
 26 27  1  0  0  0  0
 27 28  1  0  0  0  0
 28 29  1  0  0  0  0
 29 30  1  0  0  0  0
 30 31  1  0  0  0  0
 31 33  1  0  0  0  0
 32 35  1  0  0  0  0
 32 38  1  0  0  0  0
 33 32  2  0  0  0  0
 35 34  1  0  0  0  0
 35 36  1  0  0  0  0
 37 35  2  0  0  0  0
 40 38  1  0  0  0  0
 40 39  2  0  0  0  0
 41 44  1  0  0  0  0
 42 43  2  0  0  0  0
 43 44  2  0  0  0  0
 44 45  1  0  0  0  0
 45 47  1  0  0  0  0
 45 46  1  1  0  0  0
 47 48  1  0  0  0  0
 48 49  1  0  0  0  0
 49 54  1  6  0  0  0
 49 51  1  0  0  0  0
 51 50  1  6  0  0  0
 51 52  1  0  0  0  0
 52 53  1  0  0  0  0
 55 56  1  0  0  0  0
 56 54  1  0  0  0  0
 57 58  1  0  0  0  0
 58 59  1  0  0  0  0
 60 62  1  0  0  0  0
 60 61  1  0  0  0  0
 60 63  1  1  0  0  0
 62 59  1  6  0  0  0
 62 61  1  0  0  0  0
 63 64  1  0  0  0  0
 64 65  1  0  0  0  0
M  END
>  <MODEL>
3

>  <REMARK>
 VINA RESULT:      -1.5      2.672      4.573
  Name = 
  31 active torsions:
  status: ('A' for Active; 'I' for Inactive)
    1  A    between atoms: C_2  and  O_28
    2  A    between atoms: C_2  and  C_57
    3  A    between atoms: O_3  and  C_24
    4  A    between atoms: O_3  and  C_34
    5  A    between atoms: C_8  and  C_26
    6  A    between atoms: O_9  and  C_30
    7  A    between atoms: O_9  and  C_53
    8  A    between atoms: N_10  and  C_38
    9  A    between atoms: N_10  and  C_55
   10  A    between atoms: C_12  and  C_60
   11  A    between atoms: C_14  and  C_38
   12  A    between atoms: C_14  and  C_44
   13  A    between atoms: C_15  and  C_39
   14  A    between atoms: C_18  and  C_52
   15  A    between atoms: S_21  and  C_61
   16  A    between atoms: S_21  and  C_65
   17  A    between atoms: C_23  and  C_29
   18  A    between atoms: C_23  and  C_33
   19  A    between atoms: O_28  and  C_59
   20  A    between atoms: C_31  and  C_42
   21  A    between atoms: C_31  and  C_52
   22  A    between atoms: C_31  and  C_59
   23  A    between atoms: C_33  and  P_35
   24  A    between atoms: C_39  and  C_61
   25  A    between atoms: S_40  and  C_53
   26  A    between atoms: S_40  and  C_56
   27  A    between atoms: C_42  and  O_62
   28  A    between atoms: C_44  and  C_45
   29  A    between atoms: C_53  and  C_58
   30  A    between atoms: C_55  and  C_63
   31  A    between atoms: C_56  and  C_63
                            x       y       z     vdW  Elec       q    Type
                         _______ _______ _______ _____ _____    ______ ____

>  <TORSDO>
F 31

$$$$
=
 OpenBabel11062417393D

 65 69  0  0  1  0  0  0  0  0999 V2000
  184.7320  174.9900  137.0560 O   0  0  0  0  0  0  0  0  0  0  0  0
  186.4090  176.2340  135.8070 C   0  0  2  0  0  3  0  0  0  0  0  0
  184.3370  179.0360  138.0860 C   0  0  1  0  0  3  0  0  0  0  0  0
  184.0870  175.9480  137.8550 C   0  0  1  0  0  3  0  0  0  0  0  0
  184.3280  177.7670  136.0190 C   0  0  2  0  0  3  0  0  0  0  0  0
  185.0860  178.8540  136.7700 C   0  0  0  0  0  2  0  0  0  0  0  0
  183.3970  177.0470  137.0060 C   0  0  2  0  0  3  0  0  0  0  0  0
  183.0560  178.2170  137.9280 C   0  0  0  0  0  2  0  0  0  0  0  0
  186.0600  175.4120  137.0580 C   0  0  0  0  0  2  0  0  0  0  0  0
  185.1850  176.8600  135.1390 C   0  0  0  0  0  2  0  0  0  0  0  0
  188.2920  177.7240  140.5600 C   0  0  0  0  0  2  0  0  0  0  0  0
  185.9750  178.0350  141.3480 C   0  0  1  0  0  3  0  0  0  0  0  0
  184.8500  178.7880  140.6600 C   0  0  1  0  0  3  0  0  0  0  0  0
  186.5980  178.5360  139.0810 N   0  0  0  0  0  2  0  0  0  0  0  0
  187.0830  178.2370  140.3810 C   0  0  0  0  0  0  0  0  0  0  0  0
  185.1560  178.4160  139.2100 C   0  0  2  0  0  3  0  0  0  0  0  0
  183.5990  178.3380  141.0810 O   0  0  0  0  0  0  0  0  0  0  0  0
  183.5630  178.3270  142.5070 C   0  0  2  0  0  3  0  0  0  0  0  0
  181.2460  178.1770  143.3590 O   0  0  0  0  0  0  0  0  0  0  0  0
  182.3050  180.1920  143.4550 O   0  0  0  0  0  1  0  0  0  0  0  0
  182.3490  178.9710  143.1330 C   0  0  0  0  0  0  0  0  0  0  0  0
  185.1550  178.6750  143.3450 S   0  0  1  0  0  0  0  0  0  0  0  0
  185.7720  177.2970  143.5270 O   0  0  0  0  0  1  0  0  0  0  0  0
  183.8710  178.3490  145.6480 F   0  0  0  0  0  0  0  0  0  0  0  0
  184.7610  179.2320  145.0490 C   0  0  1  0  0  3  0  0  0  0  0  0
  186.0480  179.3690  145.8520 C   0  0  0  0  0  2  0  0  0  0  0  0
  185.8340  179.6070  147.3490 C   0  0  0  0  0  2  0  0  0  0  0  0
  185.9880  178.3750  148.1260 N   0  0  0  0  0  2  0  0  0  0  0  0
  187.4130  178.2330  148.3730 C   0  0  0  0  0  2  0  0  0  0  0  0
  188.1520  178.0700  147.0570 C   0  0  0  0  0  2  0  0  0  0  0  0
  189.3500  177.1350  147.1680 C   0  0  0  0  0  2  0  0  0  0  0  0
  190.7010  177.0570  145.0540 C   0  0  0  0  0  0  0  0  0  0  0  0
  189.7170  176.5780  145.8300 C   0  0  0  0  0  3  0  0  0  0  0  0
  192.1460  175.4550  143.1790 O   0  0  0  0  0  1  0  0  0  0  0  0
  190.7710  176.4280  143.3770 P   0  0  0  0  0  0  0  0  0  0  0  0
  189.3940  175.4730  143.1040 O   0  0  0  0  0  1  0  0  0  0  0  0
  190.8060  177.5660  142.3680 O   0  0  0  0  0  0  0  0  0  0  0  0
  191.4560  178.3070  145.3800 C   0  0  0  0  0  2  0  0  0  0  0  0
  191.3730  180.2410  144.0770 O   0  0  0  0  0  0  0  0  0  0  0  0
  191.7490  179.0820  144.1500 C   0  0  0  0  0  3  0  0  0  0  0  0
  188.8680  172.4910  136.0120 C   0  0  0  0  0  1  0  0  0  0  0  0
  187.0580  175.3410  134.8200 C   0  0  0  0  0  3  0  0  0  0  0  0
  188.0820  174.6000  135.1460 C   0  0  0  0  0  0  0  0  0  0  0  0
  189.1080  173.8290  135.3870 C   0  0  0  0  0  0  0  0  0  0  0  0
  190.3720  174.0270  134.6100 C   0  0  1  0  0  3  0  0  0  0  0  0
  190.7470  175.3800  134.6030 O   0  0  0  0  0  1  0  0  0  0  0  0
  191.3990  173.2310  135.1370 O   0  0  0  0  0  0  0  0  0  0  0  0
  192.1730  174.0850  135.9640 C   0  0  0  0  0  2  0  0  0  0  0  0
  193.6880  173.8450  135.7530 C   0  0  1  0  0  3  0  0  0  0  0  0
  195.4630  175.1430  136.7500 O   0  0  0  0  0  1  0  0  0  0  0  0
  194.4670  175.1740  135.7770 C   0  0  2  0  0  3  0  0  0  0  0  0
  193.5710  176.3890  136.0310 C   0  0  0  0  0  2  0  0  0  0  0  0
  193.6440  176.7840  137.3670 O   0  0  0  0  0  1  0  0  0  0  0  0
  194.2000  172.8250  136.7740 C   0  0  0  0  0  2  0  0  0  0  0  0
  194.4010  171.2540  135.3100 O   0  0  0  0  0  1  0  0  0  0  0  0
  193.7780  171.5270  136.4410 O   0  0  0  0  0  0  0  0  0  0  0  0
  183.1410  175.3220  138.8910 C   0  0  0  0  0  2  0  0  0  0  0  0
  181.6750  175.7350  138.7370 C   0  0  0  0  0  2  0  0  0  0  0  0
  180.5580  174.6900  139.7560 S   0  0  0  0  0  0  0  0  0  0  0  0
  180.2650  173.5050  137.3450 C   0  0  2  0  0  3  0  0  0  0  0  0
  179.2950  172.9140  138.1910 O   0  0  0  0  0  0  0  0  0  0  0  0
  179.4800  174.3090  138.3190 C   0  0  1  0  0  3  0  0  0  0  0  0
  179.7540  173.6050  136.0360 O   0  0  0  0  0  0  0  0  0  0  0  0
  180.7250  173.1260  135.1350 C   0  0  0  0  0  2  0  0  0  0  0  0
  182.0290  173.7750  135.3340 N   0  0  0  0  0  1  0  0  0  0  0  0
  1  9  1  0  0  0  0
  1  4  1  0  0  0  0
  2 42  1  6  0  0  0
  2  9  1  0  0  0  0
  3  6  1  6  0  0  0
  3 16  1  0  0  0  0
  4 57  1  6  0  0  0
  5 10  1  1  0  0  0
  5  6  1  0  0  0  0
  5  7  1  0  0  0  0
  7  4  1  0  0  0  0
  7  8  1  1  0  0  0
  8  3  1  0  0  0  0
 10  2  1  0  0  0  0
 12 15  1  6  0  0  0
 12 22  1  0  0  0  0
 13 17  1  1  0  0  0
 13 12  1  0  0  0  0
 14 15  1  0  0  0  0
 15 11  2  0  0  0  0
 16 14  1  6  0  0  0
 16 13  1  0  0  0  0
 17 18  1  0  0  0  0
 18 21  1  1  0  0  0
 18 22  1  0  0  0  0
 21 19  2  0  0  0  0
 21 20  1  0  0  0  0
 22 23  1  1  0  0  0
 22 25  1  0  0  0  0
 25 24  1  1  0  0  0
 25 26  1  0  0  0  0
 26 27  1  0  0  0  0
 27 28  1  0  0  0  0
 28 29  1  0  0  0  0
 30 31  1  0  0  0  0
 30 29  1  0  0  0  0
 32 38  1  0  0  0  0
 32 33  2  0  0  0  0
 33 31  1  0  0  0  0
 34 35  1  0  0  0  0
 35 32  1  0  0  0  0
 36 35  1  0  0  0  0
 37 35  2  0  0  0  0
 39 40  2  0  0  0  0
 40 38  1  0  0  0  0
 42 43  2  0  0  0  0
 43 44  2  0  0  0  0
 44 41  1  0  0  0  0
 45 46  1  1  0  0  0
 45 47  1  0  0  0  0
 45 44  1  0  0  0  0
 47 48  1  0  0  0  0
 49 51  1  0  0  0  0
 49 48  1  1  0  0  0
 49 54  1  0  0  0  0
 51 52  1  0  0  0  0
 51 50  1  1  0  0  0
 52 53  1  0  0  0  0
 55 56  1  0  0  0  0
 56 54  1  0  0  0  0
 58 57  1  0  0  0  0
 58 59  1  0  0  0  0
 60 63  1  6  0  0  0
 60 61  1  0  0  0  0
 60 62  1  0  0  0  0
 61 62  1  0  0  0  0
 62 59  1  1  0  0  0
 64 65  1  0  0  0  0
 64 63  1  0  0  0  0
M  END
>  <MODEL>
4

>  <REMARK>
 VINA RESULT:      -0.9      3.285      8.491
  Name = 
  31 active torsions:
  status: ('A' for Active; 'I' for Inactive)
    1  A    between atoms: C_2  and  O_28
    2  A    between atoms: C_2  and  C_57
    3  A    between atoms: O_3  and  C_24
    4  A    between atoms: O_3  and  C_34
    5  A    between atoms: C_8  and  C_26
    6  A    between atoms: O_9  and  C_30
    7  A    between atoms: O_9  and  C_53
    8  A    between atoms: N_10  and  C_38
    9  A    between atoms: N_10  and  C_55
   10  A    between atoms: C_12  and  C_60
   11  A    between atoms: C_14  and  C_38
   12  A    between atoms: C_14  and  C_44
   13  A    between atoms: C_15  and  C_39
   14  A    between atoms: C_18  and  C_52
   15  A    between atoms: S_21  and  C_61
   16  A    between atoms: S_21  and  C_65
   17  A    between atoms: C_23  and  C_29
   18  A    between atoms: C_23  and  C_33
   19  A    between atoms: O_28  and  C_59
   20  A    between atoms: C_31  and  C_42
   21  A    between atoms: C_31  and  C_52
   22  A    between atoms: C_31  and  C_59
   23  A    between atoms: C_33  and  P_35
   24  A    between atoms: C_39  and  C_61
   25  A    between atoms: S_40  and  C_53
   26  A    between atoms: S_40  and  C_56
   27  A    between atoms: C_42  and  O_62
   28  A    between atoms: C_44  and  C_45
   29  A    between atoms: C_53  and  C_58
   30  A    between atoms: C_55  and  C_63
   31  A    between atoms: C_56  and  C_63
                            x       y       z     vdW  Elec       q    Type
                         _______ _______ _______ _____ _____    ______ ____

>  <TORSDO>
F 31

$$$$
=
 OpenBabel11062417393D

 65 69  0  0  1  0  0  0  0  0999 V2000
  184.7130  175.1870  136.8910 O   0  0  0  0  0  0  0  0  0  0  0  0
  186.2540  176.7460  135.8340 C   0  0  2  0  0  3  0  0  0  0  0  0
  183.8090  179.0250  138.3170 C   0  0  1  0  0  3  0  0  0  0  0  0
  183.9400  175.9720  137.7620 C   0  0  1  0  0  3  0  0  0  0  0  0
  183.9980  177.9910  136.1310 C   0  0  2  0  0  3  0  0  0  0  0  0
  184.6020  179.0740  137.0160 C   0  0  0  0  0  2  0  0  0  0  0  0
  183.1400  177.0640  137.0070 C   0  0  2  0  0  3  0  0  0  0  0  0
  182.6400  178.0810  138.0330 C   0  0  0  0  0  2  0  0  0  0  0  0
  185.9800  175.7600  136.9820 C   0  0  0  0  0  2  0  0  0  0  0  0
  184.9770  177.2900  135.1930 C   0  0  0  0  0  2  0  0  0  0  0  0
  187.8550  177.8070  140.6880 C   0  0  0  0  0  2  0  0  0  0  0  0
  185.5310  177.9360  141.5070 C   0  0  1  0  0  3  0  0  0  0  0  0
  184.3590  178.6600  140.8700 C   0  0  1  0  0  3  0  0  0  0  0  0
  186.1040  178.6010  139.2680 N   0  0  0  0  0  2  0  0  0  0  0  0
  186.6170  178.2580  140.5460 C   0  0  0  0  0  0  0  0  0  0  0  0
  184.6720  178.3910  139.3990 C   0  0  2  0  0  3  0  0  0  0  0  0
  183.1390  178.1150  141.2710 O   0  0  0  0  0  0  0  0  0  0  0  0
  182.8640  178.5260  142.6100 C   0  0  2  0  0  3  0  0  0  0  0  0
  180.7420  179.5780  141.8970 O   0  0  0  0  0  0  0  0  0  0  0  0
  180.8470  178.6620  143.9800 O   0  0  0  0  0  1  0  0  0  0  0  0
  181.4320  178.9170  142.8890 C   0  0  0  0  0  0  0  0  0  0  0  0
  184.1340  179.5890  143.3930 S   0  0  2  0  0  3  0  0  0  0  0  0
  185.4450  179.0290  142.8640 O   0  0  0  0  0  0  0  0  0  0  0  0
  183.5240  177.9670  145.4060 F   0  0  0  0  0  0  0  0  0  0  0  0
  184.1500  179.1860  145.1830 C   0  0  1  0  0  3  0  0  0  0  0  0
  185.5850  179.1860  145.6930 C   0  0  0  0  0  2  0  0  0  0  0  0
  185.7570  179.7880  147.0910 C   0  0  0  0  0  2  0  0  0  0  0  0
  185.9150  178.7540  148.1160 N   0  0  0  0  0  2  0  0  0  0  0  0
  187.3460  178.5350  148.2470 C   0  0  0  0  0  2  0  0  0  0  0  0
  187.8930  177.9170  146.9730 C   0  0  0  0  0  2  0  0  0  0  0  0
  189.0550  176.9670  147.2340 C   0  0  0  0  0  2  0  0  0  0  0  0
  190.3710  177.0710  145.0990 C   0  0  0  0  0  0  0  0  0  0  0  0
  189.5810  176.4030  145.9530 C   0  0  0  0  0  3  0  0  0  0  0  0
  191.0710  177.4890  142.3580 O   0  0  0  0  0  0  0  0  0  0  0  0
  190.6370  176.3090  143.4980 P   0  0  0  0  0  0  0  0  0  0  0  0
  191.9160  175.2020  143.6370 O   0  0  0  0  0  1  0  0  0  0  0  0
  189.3870  175.5820  143.0240 O   0  0  0  0  0  1  0  0  0  0  0  0
  190.7020  178.5210  145.2640 C   0  0  0  0  0  2  0  0  0  0  0  0
  191.6170  180.0760  143.7830 O   0  0  0  0  0  0  0  0  0  0  0  0
  191.6990  178.9520  144.2540 C   0  0  0  0  0  3  0  0  0  0  0  0
  187.8480  172.5940  135.2670 C   0  0  0  0  0  1  0  0  0  0  0  0
  187.0270  176.0460  134.7840 C   0  0  0  0  0  3  0  0  0  0  0  0
  187.7500  174.9950  135.0610 C   0  0  0  0  0  0  0  0  0  0  0  0
  188.4980  173.9410  135.2510 C   0  0  0  0  0  0  0  0  0  0  0  0
  189.9600  174.0140  134.9360 C   0  0  1  0  0  3  0  0  0  0  0  0
  190.4880  175.2620  135.3030 O   0  0  0  0  0  1  0  0  0  0  0  0
  190.6500  172.9760  135.5790 O   0  0  0  0  0  0  0  0  0  0  0  0
  191.9760  173.0140  135.0750 C   0  0  0  0  0  2  0  0  0  0  0  0
  193.0120  172.9200  136.2220 C   0  0  1  0  0  3  0  0  0  0  0  0
  193.9530  171.4050  134.5940 O   0  0  0  0  0  1  0  0  0  0  0  0
  194.1270  171.9130  135.8780 C   0  0  2  0  0  3  0  0  0  0  0  0
  194.2010  170.7420  136.8620 C   0  0  0  0  0  2  0  0  0  0  0  0
  193.5340  169.6280  136.3520 O   0  0  0  0  0  1  0  0  0  0  0  0
  193.5420  174.3170  136.5590 C   0  0  0  0  0  2  0  0  0  0  0  0
  194.4950  175.5920  138.0160 O   0  0  0  0  0  1  0  0  0  0  0  0
  194.0480  174.3570  137.8690 O   0  0  0  0  0  0  0  0  0  0  0  0
  183.0540  175.1310  138.6950 C   0  0  0  0  0  2  0  0  0  0  0  0
  182.1530  174.1270  137.9740 C   0  0  0  0  0  2  0  0  0  0  0  0
  183.1260  172.8180  137.1270 S   0  0  0  0  0  0  0  0  0  0  0  0
  181.0960  173.3190  135.4150 C   0  0  2  0  0  3  0  0  0  0  0  0
  181.8550  172.2780  134.8260 O   0  0  0  0  0  0  0  0  0  0  0  0
  181.6510  172.2010  136.2230 C   0  0  1  0  0  3  0  0  0  0  0  0
  179.7310  173.1360  135.1180 O   0  0  0  0  0  0  0  0  0  0  0  0
  179.1310  174.4010  134.9560 C   0  0  0  0  0  2  0  0  0  0  0  0
  179.3300  175.2590  136.1330 N   0  0  0  0  0  1  0  0  0  0  0  0
  1  9  1  0  0  0  0
  1  4  1  0  0  0  0
  2 42  1  6  0  0  0
  2  9  1  0  0  0  0
  3  6  1  6  0  0  0
  3 16  1  0  0  0  0
  4 57  1  6  0  0  0
  5 10  1  1  0  0  0
  5  7  1  0  0  0  0
  5  6  1  0  0  0  0
  7  4  1  0  0  0  0
  7  8  1  1  0  0  0
  8  3  1  0  0  0  0
 10  2  1  0  0  0  0
 12 15  1  6  0  0  0
 12 23  1  0  0  0  0
 13 17  1  1  0  0  0
 13 12  1  0  0  0  0
 14 15  1  0  0  0  0
 15 11  2  0  0  0  0
 16 14  1  6  0  0  0
 16 13  1  0  0  0  0
 17 18  1  0  0  0  0
 18 21  1  6  0  0  0
 18 22  1  0  0  0  0
 19 21  2  0  0  0  0
 21 20  1  0  0  0  0
 22 25  1  1  0  0  0
 23 22  1  0  0  0  0
 25 24  1  6  0  0  0
 25 26  1  0  0  0  0
 26 27  1  0  0  0  0
 27 28  1  0  0  0  0
 28 29  1  0  0  0  0
 30 31  1  0  0  0  0
 30 29  1  0  0  0  0
 32 38  1  0  0  0  0
 32 33  2  0  0  0  0
 33 31  1  0  0  0  0
 34 35  2  0  0  0  0
 35 36  1  0  0  0  0
 35 32  1  0  0  0  0
 37 35  1  0  0  0  0
 39 40  2  0  0  0  0
 40 38  1  0  0  0  0
 42 43  2  0  0  0  0
 43 44  2  0  0  0  0
 44 41  1  0  0  0  0
 45 44  1  0  0  0  0
 45 46  1  1  0  0  0
 45 47  1  0  0  0  0
 48 47  1  0  0  0  0
 49 48  1  6  0  0  0
 49 54  1  0  0  0  0
 51 50  1  6  0  0  0
 51 49  1  0  0  0  0
 51 52  1  0  0  0  0
 53 52  1  0  0  0  0
 54 56  1  0  0  0  0
 56 55  1  0  0  0  0
 58 57  1  0  0  0  0
 59 58  1  0  0  0  0
 60 63  1  6  0  0  0
 60 62  1  0  0  0  0
 61 60  1  0  0  0  0
 61 62  1  0  0  0  0
 62 59  1  1  0  0  0
 64 63  1  0  0  0  0
 64 65  1  0  0  0  0
M  END
>  <MODEL>
5

>  <REMARK>
 VINA RESULT:      -0.1      3.406      8.488
  Name = 
  31 active torsions:
  status: ('A' for Active; 'I' for Inactive)
    1  A    between atoms: C_2  and  O_28
    2  A    between atoms: C_2  and  C_57
    3  A    between atoms: O_3  and  C_24
    4  A    between atoms: O_3  and  C_34
    5  A    between atoms: C_8  and  C_26
    6  A    between atoms: O_9  and  C_30
    7  A    between atoms: O_9  and  C_53
    8  A    between atoms: N_10  and  C_38
    9  A    between atoms: N_10  and  C_55
   10  A    between atoms: C_12  and  C_60
   11  A    between atoms: C_14  and  C_38
   12  A    between atoms: C_14  and  C_44
   13  A    between atoms: C_15  and  C_39
   14  A    between atoms: C_18  and  C_52
   15  A    between atoms: S_21  and  C_61
   16  A    between atoms: S_21  and  C_65
   17  A    between atoms: C_23  and  C_29
   18  A    between atoms: C_23  and  C_33
   19  A    between atoms: O_28  and  C_59
   20  A    between atoms: C_31  and  C_42
   21  A    between atoms: C_31  and  C_52
   22  A    between atoms: C_31  and  C_59
   23  A    between atoms: C_33  and  P_35
   24  A    between atoms: C_39  and  C_61
   25  A    between atoms: S_40  and  C_53
   26  A    between atoms: S_40  and  C_56
   27  A    between atoms: C_42  and  O_62
   28  A    between atoms: C_44  and  C_45
   29  A    between atoms: C_53  and  C_58
   30  A    between atoms: C_55  and  C_63
   31  A    between atoms: C_56  and  C_63
                            x       y       z     vdW  Elec       q    Type
                         _______ _______ _______ _____ _____    ______ ____

>  <TORSDO>
F 31

$$$$
