=
 OpenBabel11062413583D

 53 57  0  0  1  0  0  0  0  0999 V2000
  187.9830  177.6510  136.8310 C   0  0  1  0  0  0  0  0  0  0  0  0
  183.1030  176.3350  136.7000 O   0  0  0  0  0  0  0  0  0  0  0  0
  188.9370  178.8060  136.5870 C   0  0  0  0  0  1  0  0  0  0  0  0
  182.1150  174.1820  136.4280 C   0  0  0  0  0  2  0  0  0  0  0  0
  182.6250  175.6130  134.5940 F   0  0  0  0  0  0  0  0  0  0  0  0
  186.9560  174.8340  136.4580 N   0  0  2  0  0  0  0  0  0  0  0  0
  188.6900  176.4590  136.5160 O   0  0  0  0  0  0  0  0  0  0  0  0
  188.1530  175.3210  137.1590 C   0  0  2  0  0  3  0  0  0  0  0  0
  186.1430  172.9760  134.7110 S   0  0  0  0  0  0  0  0  0  0  0  0
  186.3340  173.7810  137.2600 C   0  0  0  0  0  2  0  0  0  0  0  0
  186.2140  172.5050  136.4490 C   0  0  1  0  0  3  0  0  0  0  0  0
  185.6020  178.2190  136.2150 C   0  0  0  0  0  3  0  0  0  0  0  0
  185.2900  178.4160  137.6380 C   0  0  0  0  0  0  0  0  0  0  0  0
  183.7020  172.2500  136.8740 C   0  0  0  0  0  0  0  0  0  0  0  0
  182.7430  178.2820  138.0470 C   0  0  1  0  0  3  0  0  0  0  0  0
  185.0360  171.7320  136.8490 N   0  0  0  0  0  2  0  0  0  0  0  0
  182.7780  171.5520  137.3770 O   0  0  0  0  0  0  0  0  0  0  0  0
  187.5280  177.7610  138.2930 C   0  0  0  0  0  0  0  0  0  0  0  0
  188.3240  177.5210  139.2390 O   0  0  0  0  0  0  0  0  0  0  0  0
  183.4360  173.5690  136.3880 N   0  0  0  0  0  2  0  0  0  0  0  0
  184.3720  179.0760  139.6750 O   0  0  0  0  0  0  0  0  0  0  0  0
  185.6310  178.5970  139.7770 O   0  0  0  0  0  0  0  0  0  0  0  0
  182.2020  175.6100  135.9160 C   0  0  2  0  0  3  0  0  0  0  0  0
  187.2890  174.3120  135.1320 C   0  0  0  0  0  2  0  0  0  0  0  0
  182.6410  177.6510  136.6550 C   0  0  0  0  0  2  0  0  0  0  0  0
  184.0830  179.0280  138.2790 C   0  0  1  0  0  3  0  0  0  0  0  0
  186.8340  177.8340  135.8490 C   0  0  0  0  0  3  0  0  0  0  0  0
  186.1650  178.2270  138.5700 C   0  0  0  0  0  0  0  0  0  0  0  0
  180.8920  181.2320  137.1230 C   0  0  0  0  0  2  0  0  0  0  0  0
  181.4930  179.1730  138.3210 C   0  0  0  0  0  0  0  0  0  0  0  0
  181.8410  181.5960  138.2440 C   0  0  0  0  0  2  0  0  0  0  0  0
  181.8580  180.3970  139.1710 C   0  0  0  0  0  2  0  0  0  0  0  0
  180.9850  179.7250  136.9800 C   0  0  0  0  0  2  0  0  0  0  0  0
  180.3970  178.3380  139.0640 C   0  0  1  0  0  3  0  0  0  0  0  0
  179.5570  177.5470  138.0480 C   0  0  0  0  0  1  0  0  0  0  0  0
  180.9150  177.4290  140.2120 C   0  0  2  0  0  3  0  0  0  0  0  0
  181.8260  175.1460  139.5800 N   0  0  0  0  0  1  0  0  0  0  0  0
  180.7100  175.9640  139.9180 C   0  0  0  0  0  0  0  0  0  0  0  0
  179.5670  175.4440  140.0260 O   0  0  0  0  0  0  0  0  0  0  0  0
  180.2080  177.7610  141.5280 C   0  0  0  0  0  2  0  0  0  0  0  0
  179.3940  180.0880  142.0270 C   0  0  0  0  0  1  0  0  0  0  0  0
  180.5790  179.1390  142.0690 C   0  0  1  0  0  3  0  0  0  0  0  0
  183.0260  178.8340  144.9830 N   0  0  0  0  0  1  0  0  0  0  0  0
  180.1740  178.8460  144.5480 C   0  0  0  0  0  1  0  0  0  0  0  0
  182.5120  179.0320  143.6680 C   0  0  0  0  0  0  0  0  0  0  0  0
  183.3170  179.2000  142.7110 O   0  0  0  0  0  0  0  0  0  0  0  0
  181.0960  179.0220  143.4310 N   0  0  0  0  0  0  0  0  0  0  0  0
  189.2400  174.2440  137.2900 C   0  0  0  0  0  2  0  0  0  0  0  0
  190.6250  174.8740  137.3140 C   0  0  1  0  0  3  0  0  0  0  0  0
  190.9300  175.3480  138.6570 N   0  0  0  0  0  1  0  0  0  0  0  0
  191.3380  172.9130  135.9030 O   0  0  0  0  0  0  0  0  0  0  0  0
  192.7960  173.8960  137.3860 O   0  0  0  0  0  1  0  0  0  0  0  0
  191.6410  173.8600  136.8850 C   0  0  0  0  0  0  0  0  0  0  0  0
  1  3  1  6  0  0  0
  1 18  1  0  0  0  0
  6 24  1  6  0  0  0
  6  8  1  0  0  0  0
  6 10  1  0  0  0  0
  7  1  1  0  0  0  0
  7  8  1  0  0  0  0
  8 48  1  6  0  0  0
  9 24  1  0  0  0  0
  9 11  1  0  0  0  0
 11 16  1  0  0  0  0
 11 10  1  1  0  0  0
 12 13  1  0  0  0  0
 13 28  2  0  0  0  0
 14 17  2  0  0  0  0
 15 25  1  6  0  0  0
 15 26  1  0  0  0  0
 15 30  1  0  0  0  0
 16 14  1  0  0  0  0
 18 28  1  0  0  0  0
 18 19  2  0  0  0  0
 20  4  1  0  0  0  0
 20 14  1  0  0  0  0
 21 22  1  0  0  0  0
 23  5  1  6  0  0  0
 23  4  1  0  0  0  0
 23  2  1  0  0  0  0
 25  2  1  0  0  0  0
 26 13  1  6  0  0  0
 26 21  1  0  0  0  0
 27 12  2  0  0  0  0
 27  1  1  0  0  0  0
 28 22  1  0  0  0  0
 29 31  1  0  0  0  0
 30 34  1  0  0  0  0
 30 32  1  0  0  0  0
 31 32  1  0  0  0  0
 33 29  1  0  0  0  0
 33 30  1  0  0  0  0
 34 35  1  6  0  0  0
 34 36  1  0  0  0  0
 36 40  1  1  0  0  0
 37 38  1  0  0  0  0
 38 39  2  0  0  0  0
 38 36  1  0  0  0  0
 40 42  1  0  0  0  0
 42 41  1  1  0  0  0
 42 47  1  0  0  0  0
 45 43  1  0  0  0  0
 46 45  2  0  0  0  0
 47 45  1  0  0  0  0
 47 44  1  0  0  0  0
 48 49  1  0  0  0  0
 49 50  1  1  0  0  0
 51 53  2  0  0  0  0
 53 49  1  0  0  0  0
 53 52  1  0  0  0  0
M  END
>  <MODEL>
1

>  <REMARK>
 VINA RESULT:      -6.1      0.000      0.000
  Name = 
  10 active torsions:
  status: ('A' for Active; 'I' for Inactive)
    1  A    between atoms: C_2  and  C_20
    2  A    between atoms: C_2  and  C_53
    3  A    between atoms: C_3  and  CA_4
    4  A    between atoms: C_3  and  C_15
    5  A    between atoms: CA_4  and  C_47
    6  A    between atoms: C_16  and  C_20
    7  A    between atoms: C_16  and  C_21
    8  A    between atoms: C_20  and  C_29
    9  A    between atoms: C_21  and  C_31
   10  A    between atoms: N_46  and  C_53
                            x       y       z     vdW  Elec       q    Type
                         _______ _______ _______ _____ _____    ______ ____

>  <TORSDO>
F 10

$$$$
=
 OpenBabel11062413583D

 53 57  0  0  1  0  0  0  0  0999 V2000
  188.5210  177.9510  137.2600 C   0  0  1  0  0  0  0  0  0  0  0  0
  183.7030  176.4420  136.9870 O   0  0  0  0  0  0  0  0  0  0  0  0
  189.4210  179.1690  137.1540 C   0  0  0  0  0  1  0  0  0  0  0  0
  182.8100  174.2950  136.4590 C   0  0  0  0  0  2  0  0  0  0  0  0
  183.2380  175.9590  134.8110 F   0  0  0  0  0  0  0  0  0  0  0  0
  187.6170  175.1570  136.5500 N   0  0  2  0  0  0  0  0  0  0  0  0
  189.2770  176.8390  136.8000 O   0  0  0  0  0  0  0  0  0  0  0  0
  188.7970  175.6090  137.3020 C   0  0  2  0  0  3  0  0  0  0  0  0
  186.8720  173.4900  134.5930 S   0  0  0  0  0  0  0  0  0  0  0  0
  187.0500  173.9870  137.2210 C   0  0  0  0  0  2  0  0  0  0  0  0
  186.9790  172.8150  136.2610 C   0  0  1  0  0  3  0  0  0  0  0  0
  186.1120  178.4810  136.7270 C   0  0  0  0  0  3  0  0  0  0  0  0
  185.8040  178.4900  138.1640 C   0  0  0  0  0  0  0  0  0  0  0  0
  184.4850  172.3970  136.6610 C   0  0  0  0  0  0  0  0  0  0  0  0
  183.2690  178.1930  138.5620 C   0  0  1  0  0  3  0  0  0  0  0  0
  185.8400  171.9470  136.5680 N   0  0  0  0  0  2  0  0  0  0  0  0
  183.5970  171.6020  137.0790 O   0  0  0  0  0  0  0  0  0  0  0  0
  188.0750  177.8620  138.7260 C   0  0  0  0  0  0  0  0  0  0  0  0
  188.8890  177.5460  139.6330 O   0  0  0  0  0  0  0  0  0  0  0  0
  184.1560  173.7520  136.3400 N   0  0  0  0  0  2  0  0  0  0  0  0
  184.8760  178.8560  140.2700 O   0  0  0  0  0  0  0  0  0  0  0  0
  186.1560  178.4250  140.3080 O   0  0  0  0  0  0  0  0  0  0  0  0
  182.8280  175.7770  136.1240 C   0  0  2  0  0  3  0  0  0  0  0  0
  187.9600  174.8150  135.1690 C   0  0  0  0  0  2  0  0  0  0  0  0
  183.1830  177.7310  137.1050 C   0  0  0  0  0  2  0  0  0  0  0  0
  184.5770  178.9650  138.8790 C   0  0  1  0  0  3  0  0  0  0  0  0
  187.3560  178.2000  136.3110 C   0  0  0  0  0  3  0  0  0  0  0  0
  186.6950  178.2290  139.0620 C   0  0  0  0  0  0  0  0  0  0  0  0
  180.7790  180.5760  137.5120 C   0  0  0  0  0  2  0  0  0  0  0  0
  181.9830  178.9860  138.9480 C   0  0  0  0  0  0  0  0  0  0  0  0
  181.8850  181.3240  138.2250 C   0  0  0  0  0  2  0  0  0  0  0  0
  182.3210  180.4240  139.3630 C   0  0  0  0  0  2  0  0  0  0  0  0
  181.0930  179.1040  137.7010 C   0  0  0  0  0  2  0  0  0  0  0  0
  181.2480  178.2670  140.1270 C   0  0  1  0  0  3  0  0  0  0  0  0
  181.9590  178.5700  141.4560 C   0  0  0  0  0  1  0  0  0  0  0  0
  179.7200  178.5310  140.2210 C   0  0  2  0  0  3  0  0  0  0  0  0
  179.2970  180.4830  141.7870 N   0  0  0  0  0  1  0  0  0  0  0  0
  179.3160  179.0750  141.5680 C   0  0  0  0  0  0  0  0  0  0  0  0
  178.9370  178.2980  142.4850 O   0  0  0  0  0  0  0  0  0  0  0  0
  178.9310  177.2450  139.9640 C   0  0  0  0  0  2  0  0  0  0  0  0
  179.7260  175.0280  140.8460 C   0  0  0  0  0  1  0  0  0  0  0  0
  179.8300  176.0370  139.7160 C   0  0  1  0  0  3  0  0  0  0  0  0
  179.4410  173.4000  136.9840 N   0  0  0  0  0  1  0  0  0  0  0  0
  179.0060  176.2300  137.3320 C   0  0  0  0  0  1  0  0  0  0  0  0
  179.6870  174.0020  138.2520 C   0  0  0  0  0  0  0  0  0  0  0  0
  180.0920  173.2830  139.2060 O   0  0  0  0  0  0  0  0  0  0  0  0
  179.4930  175.4130  138.4380 N   0  0  0  0  0  0  0  0  0  0  0  0
  189.9330  174.5740  137.2960 C   0  0  0  0  0  2  0  0  0  0  0  0
  191.2500  175.2200  136.8950 C   0  0  1  0  0  3  0  0  0  0  0  0
  192.0350  175.5230  138.0850 N   0  0  0  0  0  1  0  0  0  0  0  0
  192.8290  174.7790  134.9840 O   0  0  0  0  0  0  0  0  0  0  0  0
  191.9460  173.0450  136.2110 O   0  0  0  0  0  1  0  0  0  0  0  0
  192.0110  174.2870  136.0040 C   0  0  0  0  0  0  0  0  0  0  0  0
  1  3  1  6  0  0  0
  1 18  1  0  0  0  0
  2 25  1  0  0  0  0
  6 24  1  6  0  0  0
  6 10  1  0  0  0  0
  6  8  1  0  0  0  0
  7  1  1  0  0  0  0
  7  8  1  0  0  0  0
  8 48  1  6  0  0  0
  9 24  1  0  0  0  0
  9 11  1  0  0  0  0
 11 16  1  0  0  0  0
 11 10  1  1  0  0  0
 12 13  1  0  0  0  0
 13 28  2  0  0  0  0
 14 17  2  0  0  0  0
 15 25  1  6  0  0  0
 15 26  1  0  0  0  0
 15 30  1  0  0  0  0
 16 14  1  0  0  0  0
 18 28  1  0  0  0  0
 18 19  2  0  0  0  0
 20  4  1  0  0  0  0
 20 14  1  0  0  0  0
 21 22  1  0  0  0  0
 23  5  1  6  0  0  0
 23  4  1  0  0  0  0
 23  2  1  0  0  0  0
 26 13  1  6  0  0  0
 26 21  1  0  0  0  0
 27 12  2  0  0  0  0
 27  1  1  0  0  0  0
 28 22  1  0  0  0  0
 29 33  1  0  0  0  0
 29 31  1  0  0  0  0
 30 32  1  0  0  0  0
 30 34  1  0  0  0  0
 31 32  1  0  0  0  0
 33 30  1  0  0  0  0
 34 36  1  0  0  0  0
 34 35  1  1  0  0  0
 36 40  1  1  0  0  0
 36 38  1  0  0  0  0
 38 37  1  0  0  0  0
 38 39  2  0  0  0  0
 42 40  1  0  0  0  0
 42 41  1  1  0  0  0
 43 45  1  0  0  0  0
 44 47  1  0  0  0  0
 45 47  1  0  0  0  0
 45 46  2  0  0  0  0
 47 42  1  0  0  0  0
 49 48  1  0  0  0  0
 49 50  1  1  0  0  0
 51 53  2  0  0  0  0
 53 52  1  0  0  0  0
 53 49  1  0  0  0  0
M  END
>  <MODEL>
2

>  <REMARK>
 VINA RESULT:      -5.6      1.431      3.067
  Name = 
  10 active torsions:
  status: ('A' for Active; 'I' for Inactive)
    1  A    between atoms: C_2  and  C_20
    2  A    between atoms: C_2  and  C_53
    3  A    between atoms: C_3  and  CA_4
    4  A    between atoms: C_3  and  C_15
    5  A    between atoms: CA_4  and  C_47
    6  A    between atoms: C_16  and  C_20
    7  A    between atoms: C_16  and  C_21
    8  A    between atoms: C_20  and  C_29
    9  A    between atoms: C_21  and  C_31
   10  A    between atoms: N_46  and  C_53
                            x       y       z     vdW  Elec       q    Type
                         _______ _______ _______ _____ _____    ______ ____

>  <TORSDO>
F 10

$$$$
=
 OpenBabel11062413583D

 53 57  0  0  1  0  0  0  0  0999 V2000
  188.2210  178.3930  137.4330 C   0  0  1  0  0  0  0  0  0  0  0  0
  183.6380  176.4420  138.3010 O   0  0  0  0  0  0  0  0  0  0  0  0
  188.9780  179.7020  137.2940 C   0  0  0  0  0  1  0  0  0  0  0  0
  182.7430  174.3230  137.6730 C   0  0  0  0  0  2  0  0  0  0  0  0
  182.5590  176.2620  136.3030 F   0  0  0  0  0  0  0  0  0  0  0  0
  187.2960  175.6660  136.5200 N   0  0  2  0  0  0  0  0  0  0  0  0
  188.8600  177.4550  136.5780 O   0  0  0  0  0  0  0  0  0  0  0  0
  188.6230  176.1170  136.9650 C   0  0  2  0  0  3  0  0  0  0  0  0
  186.0820  174.2580  134.5940 S   0  0  0  0  0  0  0  0  0  0  0  0
  187.0240  174.3510  137.1010 C   0  0  0  0  0  2  0  0  0  0  0  0
  186.7280  173.3450  136.0060 C   0  0  1  0  0  3  0  0  0  0  0  0
  185.7380  178.7420  137.7280 C   0  0  0  0  0  3  0  0  0  0  0  0
  185.8830  178.4910  139.1690 C   0  0  0  0  0  0  0  0  0  0  0  0
  184.5010  172.6060  137.0300 C   0  0  0  0  0  0  0  0  0  0  0  0
  183.6100  177.8670  140.2250 C   0  0  1  0  0  3  0  0  0  0  0  0
  185.7860  172.3230  136.4670 N   0  0  0  0  0  2  0  0  0  0  0  0
  183.8260  171.6650  137.5360 O   0  0  0  0  0  0  0  0  0  0  0  0
  188.2480  178.0280  138.9240 C   0  0  0  0  0  0  0  0  0  0  0  0
  189.3150  177.6610  139.4820 O   0  0  0  0  0  0  0  0  0  0  0  0
  184.0170  173.9520  137.0710 N   0  0  0  0  0  2  0  0  0  0  0  0
  185.6220  178.4200  141.4830 O   0  0  0  0  0  0  0  0  0  0  0  0
  186.8740  178.1270  141.0690 O   0  0  0  0  0  0  0  0  0  0  0  0
  182.5790  175.8330  137.6230 C   0  0  2  0  0  3  0  0  0  0  0  0
  187.2210  175.5850  135.0600 C   0  0  0  0  0  2  0  0  0  0  0  0
  183.1090  177.6340  138.7970 C   0  0  0  0  0  2  0  0  0  0  0  0
  184.9080  178.7140  140.2840 C   0  0  1  0  0  3  0  0  0  0  0  0
  186.8110  178.6640  136.9260 C   0  0  0  0  0  3  0  0  0  0  0  0
  187.0180  178.1880  139.7070 C   0  0  0  0  0  0  0  0  0  0  0  0
  182.7390  179.7300  143.1840 C   0  0  0  0  0  2  0  0  0  0  0  0
  182.4610  178.4480  141.1060 C   0  0  0  0  0  0  0  0  0  0  0  0
  182.7420  178.2570  143.5310 C   0  0  0  0  0  2  0  0  0  0  0  0
  182.1790  177.5490  142.3150 C   0  0  0  0  0  2  0  0  0  0  0  0
  182.9240  179.7960  141.6800 C   0  0  0  0  0  2  0  0  0  0  0  0
  181.1570  178.5910  140.2530 C   0  0  1  0  0  3  0  0  0  0  0  0
  180.0420  177.7110  140.8410 C   0  0  0  0  0  1  0  0  0  0  0  0
  180.6720  180.0470  140.0130 C   0  0  2  0  0  3  0  0  0  0  0  0
  178.9320  181.6880  140.8570 N   0  0  0  0  0  1  0  0  0  0  0  0
  179.6990  180.5070  141.0680 C   0  0  0  0  0  0  0  0  0  0  0  0
  179.5150  179.8230  142.1100 O   0  0  0  0  0  0  0  0  0  0  0  0
  179.9980  180.1750  138.6450 C   0  0  0  0  0  2  0  0  0  0  0  0
  180.8010  179.5920  136.3330 C   0  0  0  0  0  1  0  0  0  0  0  0
  180.9820  180.5130  137.5280 C   0  0  1  0  0  3  0  0  0  0  0  0
  181.4820  184.2940  137.3680 N   0  0  0  0  0  1  0  0  0  0  0  0
  179.7730  182.2880  136.1920 C   0  0  0  0  0  1  0  0  0  0  0  0
  181.6800  182.9190  137.6880 C   0  0  0  0  0  0  0  0  0  0  0  0
  182.6060  182.6010  138.4850 O   0  0  0  0  0  0  0  0  0  0  0  0
  180.8270  181.9100  137.1270 N   0  0  0  0  0  0  0  0  0  0  0  0
  189.7570  175.2220  136.4420 C   0  0  0  0  0  2  0  0  0  0  0  0
  191.0890  175.6240  137.0560 C   0  0  1  0  0  3  0  0  0  0  0  0
  191.3430  174.8300  138.2500 N   0  0  0  0  0  1  0  0  0  0  0  0
  193.2680  174.5790  136.3480 O   0  0  0  0  0  1  0  0  0  0  0  0
  192.0970  175.9520  134.9210 O   0  0  0  0  0  0  0  0  0  0  0  0
  192.1840  175.4100  136.0560 C   0  0  0  0  0  0  0  0  0  0  0  0
  1  3  1  6  0  0  0
  1 18  1  0  0  0  0
  2 25  1  0  0  0  0
  6 24  1  6  0  0  0
  6  8  1  0  0  0  0
  6 10  1  0  0  0  0
  7  8  1  0  0  0  0
  7  1  1  0  0  0  0
  8 48  1  6  0  0  0
  9 24  1  0  0  0  0
  9 11  1  0  0  0  0
 11 16  1  0  0  0  0
 11 10  1  1  0  0  0
 12 13  1  0  0  0  0
 13 28  2  0  0  0  0
 14 20  1  0  0  0  0
 14 17  2  0  0  0  0
 15 25  1  6  0  0  0
 15 26  1  0  0  0  0
 15 30  1  0  0  0  0
 16 14  1  0  0  0  0
 18 19  2  0  0  0  0
 18 28  1  0  0  0  0
 20  4  1  0  0  0  0
 22 21  1  0  0  0  0
 23  5  1  6  0  0  0
 23  4  1  0  0  0  0
 23  2  1  0  0  0  0
 26 13  1  6  0  0  0
 26 21  1  0  0  0  0
 27  1  1  0  0  0  0
 27 12  2  0  0  0  0
 28 22  1  0  0  0  0
 29 31  1  0  0  0  0
 30 33  1  0  0  0  0
 30 32  1  0  0  0  0
 32 31  1  0  0  0  0
 33 29  1  0  0  0  0
 34 35  1  1  0  0  0
 34 30  1  0  0  0  0
 36 40  1  6  0  0  0
 36 34  1  0  0  0  0
 36 38  1  0  0  0  0
 37 38  1  0  0  0  0
 38 39  2  0  0  0  0
 42 41  1  6  0  0  0
 42 40  1  0  0  0  0
 43 45  1  0  0  0  0
 44 47  1  0  0  0  0
 45 46  2  0  0  0  0
 47 42  1  0  0  0  0
 47 45  1  0  0  0  0
 48 49  1  0  0  0  0
 49 50  1  1  0  0  0
 52 53  2  0  0  0  0
 53 51  1  0  0  0  0
 53 49  1  0  0  0  0
M  END
>  <MODEL>
3

>  <REMARK>
 VINA RESULT:      -4.1      2.223      3.660
  Name = 
  10 active torsions:
  status: ('A' for Active; 'I' for Inactive)
    1  A    between atoms: C_2  and  C_20
    2  A    between atoms: C_2  and  C_53
    3  A    between atoms: C_3  and  CA_4
    4  A    between atoms: C_3  and  C_15
    5  A    between atoms: CA_4  and  C_47
    6  A    between atoms: C_16  and  C_20
    7  A    between atoms: C_16  and  C_21
    8  A    between atoms: C_20  and  C_29
    9  A    between atoms: C_21  and  C_31
   10  A    between atoms: N_46  and  C_53
                            x       y       z     vdW  Elec       q    Type
                         _______ _______ _______ _____ _____    ______ ____

>  <TORSDO>
F 10

$$$$
=
 OpenBabel11062413583D

 53 57  0  0  1  0  0  0  0  0999 V2000
  190.5350  177.4640  140.6000 C   0  0  1  0  0  0  0  0  0  0  0  0
  185.5770  178.2170  139.9560 O   0  0  0  0  0  0  0  0  0  0  0  0
  191.7560  177.9780  141.3430 C   0  0  0  0  0  1  0  0  0  0  0  0
  184.1830  177.6610  138.1040 C   0  0  0  0  0  2  0  0  0  0  0  0
  185.3080  179.7510  138.2950 F   0  0  0  0  0  0  0  0  0  0  0  0
  188.9690  176.6830  138.1380 N   0  0  2  0  0  0  0  0  0  0  0  0
  190.9930  176.9650  139.3510 O   0  0  0  0  0  0  0  0  0  0  0  0
  190.1090  176.0190  138.7860 C   0  0  2  0  0  3  0  0  0  0  0  0
  188.0580  177.4550  135.7430 S   0  0  0  0  0  0  0  0  0  0  0  0
  187.9960  175.6660  137.7380 C   0  0  0  0  0  2  0  0  0  0  0  0
  187.7250  175.7580  136.2480 C   0  0  1  0  0  3  0  0  0  0  0  0
  188.4870  178.8780  141.0190 C   0  0  0  0  0  3  0  0  0  0  0  0
  187.9930  177.8680  141.9650 C   0  0  0  0  0  0  0  0  0  0  0  0
  185.1870  175.9380  136.5310 C   0  0  0  0  0  0  0  0  0  0  0  0
  185.4520  178.1300  142.3460 C   0  0  1  0  0  3  0  0  0  0  0  0
  186.3510  175.3590  135.9340 N   0  0  0  0  0  2  0  0  0  0  0  0
  184.0560  175.4230  136.3070 O   0  0  0  0  0  0  0  0  0  0  0  0
  189.8790  176.4170  141.5090 C   0  0  0  0  0  0  0  0  0  0  0  0
  190.4270  175.3020  141.7160 O   0  0  0  0  0  0  0  0  0  0  0  0
  185.3160  177.0520  137.4200 N   0  0  0  0  0  2  0  0  0  0  0  0
  186.9210  176.7270  143.6910 O   0  0  0  0  0  0  0  0  0  0  0  0
  188.0010  176.0800  143.2010 O   0  0  0  0  0  0  0  0  0  0  0  0
  184.6800  178.7570  139.0310 C   0  0  2  0  0  3  0  0  0  0  0  0
  189.3910  177.4500  136.9660 C   0  0  0  0  0  2  0  0  0  0  0  0
  185.4440  179.0130  141.0940 C   0  0  0  0  0  2  0  0  0  0  0  0
  186.8680  177.9450  142.9500 C   0  0  1  0  0  3  0  0  0  0  0  0
  189.6410  178.6750  140.3660 C   0  0  0  0  0  3  0  0  0  0  0  0
  188.6320  176.7690  142.1970 C   0  0  0  0  0  0  0  0  0  0  0  0
  184.6590  180.6570  144.7890 C   0  0  0  0  0  2  0  0  0  0  0  0
  184.4110  178.6590  143.3790 C   0  0  0  0  0  0  0  0  0  0  0  0
  185.3060  179.4900  145.5030 C   0  0  0  0  0  2  0  0  0  0  0  0
  184.7870  178.2460  144.8080 C   0  0  0  0  0  2  0  0  0  0  0  0
  184.4450  180.1950  143.3600 C   0  0  0  0  0  2  0  0  0  0  0  0
  182.9900  178.1000  143.0380 C   0  0  1  0  0  3  0  0  0  0  0  0
  182.2030  177.8310  144.3310 C   0  0  0  0  0  1  0  0  0  0  0  0
  182.1650  178.9460  142.0300 C   0  0  2  0  0  3  0  0  0  0  0  0
  180.4240  180.6130  142.8240 N   0  0  0  0  0  1  0  0  0  0  0  0
  180.7830  179.2630  142.5450 C   0  0  0  0  0  0  0  0  0  0  0  0
  179.9240  178.3500  142.6750 O   0  0  0  0  0  0  0  0  0  0  0  0
  182.0240  178.2120  140.6930 C   0  0  0  0  0  2  0  0  0  0  0  0
  181.2740  180.0790  139.1830 C   0  0  0  0  0  1  0  0  0  0  0  0
  180.8890  178.7610  139.8330 C   0  0  1  0  0  3  0  0  0  0  0  0
  179.6690  175.5180  138.2330 N   0  0  0  0  0  1  0  0  0  0  0  0
  180.7270  178.0700  137.4050 C   0  0  0  0  0  1  0  0  0  0  0  0
  179.9640  176.5120  139.2110 C   0  0  0  0  0  0  0  0  0  0  0  0
  179.7550  176.2570  140.4290 O   0  0  0  0  0  0  0  0  0  0  0  0
  180.5080  177.7810  138.8180 N   0  0  0  0  0  0  0  0  0  0  0  0
  190.8830  175.1030  137.8250 C   0  0  0  0  0  2  0  0  0  0  0  0
  192.3800  175.3510  137.9300 C   0  0  1  0  0  3  0  0  0  0  0  0
  193.0910  174.0800  137.9660 N   0  0  0  0  0  1  0  0  0  0  0  0
  193.9230  177.0310  136.8630 O   0  0  0  0  0  1  0  0  0  0  0  0
  192.2560  176.0160  135.6460 O   0  0  0  0  0  0  0  0  0  0  0  0
  192.8350  176.1600  136.7550 C   0  0  0  0  0  0  0  0  0  0  0  0
  1  3  1  1  0  0  0
  1 18  1  0  0  0  0
  2 25  1  0  0  0  0
  4 23  1  0  0  0  0
  6 24  1  6  0  0  0
  6  8  1  0  0  0  0
  7  1  1  0  0  0  0
  8 48  1  6  0  0  0
  8  7  1  0  0  0  0
  9 11  1  0  0  0  0
  9 24  1  0  0  0  0
 10  6  1  0  0  0  0
 11 10  1  1  0  0  0
 12 13  1  0  0  0  0
 13 28  2  0  0  0  0
 14 20  1  0  0  0  0
 15 25  1  6  0  0  0
 15 26  1  0  0  0  0
 15 30  1  0  0  0  0
 16 11  1  0  0  0  0
 16 14  1  0  0  0  0
 17 14  2  0  0  0  0
 18 19  2  0  0  0  0
 18 28  1  0  0  0  0
 20  4  1  0  0  0  0
 22 21  1  0  0  0  0
 23  5  1  6  0  0  0
 23  2  1  0  0  0  0
 26 13  1  6  0  0  0
 26 21  1  0  0  0  0
 27  1  1  0  0  0  0
 27 12  2  0  0  0  0
 28 22  1  0  0  0  0
 29 31  1  0  0  0  0
 30 32  1  0  0  0  0
 32 31  1  0  0  0  0
 33 30  1  0  0  0  0
 33 29  1  0  0  0  0
 34 30  1  0  0  0  0
 34 35  1  1  0  0  0
 36 40  1  6  0  0  0
 36 38  1  0  0  0  0
 36 34  1  0  0  0  0
 38 39  2  0  0  0  0
 38 37  1  0  0  0  0
 42 41  1  6  0  0  0
 42 40  1  0  0  0  0
 43 45  1  0  0  0  0
 44 47  1  0  0  0  0
 45 46  2  0  0  0  0
 47 45  1  0  0  0  0
 47 42  1  0  0  0  0
 48 49  1  0  0  0  0
 49 50  1  6  0  0  0
 52 53  2  0  0  0  0
 53 51  1  0  0  0  0
 53 49  1  0  0  0  0
M  END
>  <MODEL>
4

>  <REMARK>
 VINA RESULT:      -3.6      2.826      4.947
  Name = 
  10 active torsions:
  status: ('A' for Active; 'I' for Inactive)
    1  A    between atoms: C_2  and  C_20
    2  A    between atoms: C_2  and  C_53
    3  A    between atoms: C_3  and  CA_4
    4  A    between atoms: C_3  and  C_15
    5  A    between atoms: CA_4  and  C_47
    6  A    between atoms: C_16  and  C_20
    7  A    between atoms: C_16  and  C_21
    8  A    between atoms: C_20  and  C_29
    9  A    between atoms: C_21  and  C_31
   10  A    between atoms: N_46  and  C_53
                            x       y       z     vdW  Elec       q    Type
                         _______ _______ _______ _____ _____    ______ ____

>  <TORSDO>
F 10

$$$$
=
 OpenBabel11062413583D

 53 57  0  0  1  0  0  0  0  0999 V2000
  188.0390  178.2510  137.2110 C   0  0  1  0  0  0  0  0  0  0  0  0
  183.5580  177.2480  139.3260 O   0  0  0  0  0  0  0  0  0  0  0  0
  189.0690  179.3490  137.0080 C   0  0  0  0  0  1  0  0  0  0  0  0
  181.9410  175.5930  138.7500 C   0  0  0  0  0  2  0  0  0  0  0  0
  181.9340  177.7860  137.8230 F   0  0  0  0  0  0  0  0  0  0  0  0
  186.1340  176.0950  136.2930 N   0  0  2  0  0  0  0  0  0  0  0  0
  188.0950  177.4170  136.0620 O   0  0  0  0  0  0  0  0  0  0  0  0
  187.6040  176.1160  136.3100 C   0  0  2  0  0  3  0  0  0  0  0  0
  184.0490  175.4870  134.7280 S   0  0  0  0  0  0  0  0  0  0  0  0
  185.6750  174.7780  136.7370 C   0  0  0  0  0  2  0  0  0  0  0  0
  184.7880  174.1480  135.6800 C   0  0  1  0  0  3  0  0  0  0  0  0
  185.9700  179.0780  138.3970 C   0  0  0  0  0  3  0  0  0  0  0  0
  186.4550  178.4730  139.6450 C   0  0  0  0  0  0  0  0  0  0  0  0
  182.8500  173.7180  137.2960 C   0  0  0  0  0  0  0  0  0  0  0  0
  184.5170  178.1550  141.3240 C   0  0  1  0  0  3  0  0  0  0  0  0
  183.7700  173.2890  136.2880 N   0  0  0  0  0  2  0  0  0  0  0  0
  182.1110  172.8650  137.8630 O   0  0  0  0  0  0  0  0  0  0  0  0
  188.3990  177.5540  138.5300 C   0  0  0  0  0  0  0  0  0  0  0  0
  189.4280  176.8340  138.6240 O   0  0  0  0  0  0  0  0  0  0  0  0
  182.8140  175.0920  137.6960 N   0  0  0  0  0  2  0  0  0  0  0  0
  186.8810  177.9280  141.8700 O   0  0  0  0  0  0  0  0  0  0  0  0
  187.8120  177.4620  141.0090 O   0  0  0  0  0  0  0  0  0  0  0  0
  182.2170  177.0700  138.9770 C   0  0  2  0  0  3  0  0  0  0  0  0
  185.6100  176.3740  134.9550 C   0  0  0  0  0  2  0  0  0  0  0  0
  183.5710  178.3800  140.1410 C   0  0  0  0  0  2  0  0  0  0  0  0
  185.9620  178.6470  141.0490 C   0  0  1  0  0  3  0  0  0  0  0  0
  186.6860  178.9460  137.2690 C   0  0  0  0  0  3  0  0  0  0  0  0
  187.5580  177.8030  139.7060 C   0  0  0  0  0  0  0  0  0  0  0  0
  181.6940  178.2310  143.5610 C   0  0  0  0  0  2  0  0  0  0  0  0
  183.9020  178.7620  142.6220 C   0  0  0  0  0  0  0  0  0  0  0  0
  181.5210  179.3320  142.5380 C   0  0  0  0  0  2  0  0  0  0  0  0
  182.9110  179.8860  142.2940 C   0  0  0  0  0  2  0  0  0  0  0  0
  183.0840  177.6700  143.3280 C   0  0  0  0  0  2  0  0  0  0  0  0
  185.0390  179.3260  143.5360 C   0  0  1  0  0  3  0  0  0  0  0  0
  184.6460  180.7110  144.0760 C   0  0  0  0  0  1  0  0  0  0  0  0
  185.5110  178.3800  144.6750 C   0  0  2  0  0  3  0  0  0  0  0  0
  185.7940  179.2450  147.0440 N   0  0  0  0  0  1  0  0  0  0  0  0
  184.9350  178.7650  146.0140 C   0  0  0  0  0  0  0  0  0  0  0  0
  183.6910  178.7210  146.2110 O   0  0  0  0  0  0  0  0  0  0  0  0
  187.0380  178.3860  144.7870 C   0  0  0  0  0  2  0  0  0  0  0  0
  187.6970  176.1470  143.8490 C   0  0  0  0  0  1  0  0  0  0  0  0
  187.6150  177.0080  145.0990 C   0  0  1  0  0  3  0  0  0  0  0  0
  190.3350  177.2810  147.7620 N   0  0  0  0  0  1  0  0  0  0  0  0
  190.1040  177.4010  144.8890 C   0  0  0  0  0  1  0  0  0  0  0  0
  189.0690  177.0670  147.1450 C   0  0  0  0  0  0  0  0  0  0  0  0
  188.0640  176.8270  147.8700 O   0  0  0  0  0  0  0  0  0  0  0  0
  188.9320  177.1420  145.7170 N   0  0  0  0  0  0  0  0  0  0  0  0
  188.2200  175.1340  135.3020 C   0  0  0  0  0  2  0  0  0  0  0  0
  188.8800  173.9660  136.0200 C   0  0  1  0  0  3  0  0  0  0  0  0
  188.9810  172.8250  135.1200 N   0  0  0  0  0  1  0  0  0  0  0  0
  190.9590  175.3740  135.8200 O   0  0  0  0  0  0  0  0  0  0  0  0
  190.7290  173.8390  137.5180 O   0  0  0  0  0  1  0  0  0  0  0  0
  190.2440  174.3740  136.4860 C   0  0  0  0  0  0  0  0  0  0  0  0
  1  3  1  6  0  0  0
  1 27  1  0  0  0  0
  1 18  1  0  0  0  0
  2 25  1  0  0  0  0
  4 23  1  0  0  0  0
  6 24  1  6  0  0  0
  6  8  1  0  0  0  0
  6 10  1  0  0  0  0
  7  8  1  0  0  0  0
  7  1  1  0  0  0  0
  8 48  1  6  0  0  0
  9 24  1  0  0  0  0
  9 11  1  0  0  0  0
 11 16  1  0  0  0  0
 11 10  1  1  0  0  0
 12 13  1  0  0  0  0
 13 28  2  0  0  0  0
 14 20  1  0  0  0  0
 14 17  2  0  0  0  0
 15 25  1  6  0  0  0
 15 30  1  0  0  0  0
 16 14  1  0  0  0  0
 18 19  2  0  0  0  0
 18 28  1  0  0  0  0
 20  4  1  0  0  0  0
 22 21  1  0  0  0  0
 23  5  1  6  0  0  0
 23  2  1  0  0  0  0
 26 13  1  6  0  0  0
 26 15  1  0  0  0  0
 26 21  1  0  0  0  0
 27 12  2  0  0  0  0
 28 22  1  0  0  0  0
 30 33  1  0  0  0  0
 30 34  1  0  0  0  0
 31 29  1  0  0  0  0
 32 31  1  0  0  0  0
 32 30  1  0  0  0  0
 33 29  1  0  0  0  0
 34 35  1  1  0  0  0
 34 36  1  0  0  0  0
 36 40  1  1  0  0  0
 36 38  1  0  0  0  0
 38 39  2  0  0  0  0
 38 37  1  0  0  0  0
 40 42  1  0  0  0  0
 42 41  1  6  0  0  0
 42 47  1  0  0  0  0
 44 47  1  0  0  0  0
 45 43  1  0  0  0  0
 45 46  2  0  0  0  0
 47 45  1  0  0  0  0
 48 49  1  0  0  0  0
 49 50  1  6  0  0  0
 49 53  1  0  0  0  0
 51 53  2  0  0  0  0
 53 52  1  0  0  0  0
M  END
>  <MODEL>
5

>  <REMARK>
 VINA RESULT:      -3.4      3.226      4.961
  Name = 
  10 active torsions:
  status: ('A' for Active; 'I' for Inactive)
    1  A    between atoms: C_2  and  C_20
    2  A    between atoms: C_2  and  C_53
    3  A    between atoms: C_3  and  CA_4
    4  A    between atoms: C_3  and  C_15
    5  A    between atoms: CA_4  and  C_47
    6  A    between atoms: C_16  and  C_20
    7  A    between atoms: C_16  and  C_21
    8  A    between atoms: C_20  and  C_29
    9  A    between atoms: C_21  and  C_31
   10  A    between atoms: N_46  and  C_53
                            x       y       z     vdW  Elec       q    Type
                         _______ _______ _______ _____ _____    ______ ____

>  <TORSDO>
F 10

$$$$
=
 OpenBabel11062413583D

 53 57  0  0  1  0  0  0  0  0999 V2000
  190.3950  177.7120  140.9570 C   0  0  1  0  0  0  0  0  0  0  0  0
  185.5670  178.1650  139.5280 O   0  0  0  0  0  0  0  0  0  0  0  0
  191.4620  178.3250  141.8460 C   0  0  0  0  0  1  0  0  0  0  0  0
  184.5010  177.4450  137.5200 C   0  0  0  0  0  2  0  0  0  0  0  0
  185.4870  179.5990  137.7610 F   0  0  0  0  0  0  0  0  0  0  0  0
  189.2640  176.7280  138.3340 N   0  0  2  0  0  0  0  0  0  0  0  0
  191.0620  177.1770  139.8210 O   0  0  0  0  0  0  0  0  0  0  0  0
  190.3200  176.1580  139.1840 C   0  0  2  0  0  3  0  0  0  0  0  0
  188.6990  177.3310  135.7890 S   0  0  0  0  0  0  0  0  0  0  0  0
  188.4120  175.6420  137.8490 C   0  0  0  0  0  2  0  0  0  0  0  0
  188.3700  175.6460  136.3330 C   0  0  1  0  0  3  0  0  0  0  0  0
  188.2440  179.0320  140.9800 C   0  0  0  0  0  3  0  0  0  0  0  0
  187.6570  178.0440  141.8960 C   0  0  0  0  0  0  0  0  0  0  0  0
  185.8130  175.7030  136.2180 C   0  0  0  0  0  0  0  0  0  0  0  0
  185.0780  178.1880  141.8720 C   0  0  1  0  0  3  0  0  0  0  0  0
  187.0810  175.1590  135.8380 N   0  0  0  0  0  2  0  0  0  0  0  0
  184.7550  175.1170  135.8540 O   0  0  0  0  0  0  0  0  0  0  0  0
  189.6550  176.6760  141.8140 C   0  0  0  0  0  0  0  0  0  0  0  0
  190.2150  175.6040  142.1640 O   0  0  0  0  0  0  0  0  0  0  0  0
  185.7520  176.8640  137.0510 N   0  0  0  0  0  2  0  0  0  0  0  0
  186.3850  176.9330  143.5010 O   0  0  0  0  0  0  0  0  0  0  0  0
  187.5560  176.3220  143.2180 O   0  0  0  0  0  0  0  0  0  0  0  0
  184.7980  178.6100  138.4480 C   0  0  2  0  0  3  0  0  0  0  0  0
  189.8270  177.4580  137.1980 C   0  0  0  0  0  2  0  0  0  0  0  0
  185.2230  179.0070  140.5860 C   0  0  0  0  0  2  0  0  0  0  0  0
  186.3920  178.1090  142.6940 C   0  0  1  0  0  3  0  0  0  0  0  0
  189.4940  178.8600  140.5220 C   0  0  0  0  0  3  0  0  0  0  0  0
  188.3020  176.9940  142.2840 C   0  0  0  0  0  0  0  0  0  0  0  0
  183.9950  180.1050  144.7230 C   0  0  0  0  0  2  0  0  0  0  0  0
  183.8670  178.7110  142.7040 C   0  0  0  0  0  0  0  0  0  0  0  0
  184.1130  178.6550  145.1410 C   0  0  0  0  0  2  0  0  0  0  0  0
  183.6360  177.8470  143.9500 C   0  0  0  0  0  2  0  0  0  0  0  0
  184.2050  180.1180  143.2210 C   0  0  0  0  0  2  0  0  0  0  0  0
  182.5740  178.7040  141.8240 C   0  0  1  0  0  3  0  0  0  0  0  0
  182.2940  177.2830  141.3070 C   0  0  0  0  0  1  0  0  0  0  0  0
  181.3150  179.3330  142.4820 C   0  0  2  0  0  3  0  0  0  0  0  0
  179.5420  177.5200  142.3990 N   0  0  0  0  0  1  0  0  0  0  0  0
  180.4520  178.3030  143.1660 C   0  0  0  0  0  0  0  0  0  0  0  0
  180.5710  178.0870  144.4010 O   0  0  0  0  0  0  0  0  0  0  0  0
  180.4640  180.0600  141.4380 C   0  0  0  0  0  2  0  0  0  0  0  0
  180.4100  178.7570  139.2870 C   0  0  0  0  0  1  0  0  0  0  0  0
  181.0250  179.9350  140.0240 C   0  0  1  0  0  3  0  0  0  0  0  0
  181.7170  183.1060  138.0150 N   0  0  0  0  0  1  0  0  0  0  0  0
  179.4670  181.7540  139.2120 C   0  0  0  0  0  1  0  0  0  0  0  0
  181.9090  181.8530  138.6670 C   0  0  0  0  0  0  0  0  0  0  0  0
  183.0670  181.3530  138.7090 O   0  0  0  0  0  0  0  0  0  0  0  0
  180.8040  181.1750  139.2840 N   0  0  0  0  0  0  0  0  0  0  0  0
  191.2740  175.2400  138.4050 C   0  0  0  0  0  2  0  0  0  0  0  0
  192.2880  176.0560  137.6180 C   0  0  1  0  0  3  0  0  0  0  0  0
  193.4830  176.2700  138.4230 N   0  0  0  0  0  1  0  0  0  0  0  0
  191.8630  175.4670  135.2060 O   0  0  0  0  0  0  0  0  0  0  0  0
  193.6840  174.6190  136.3280 O   0  0  0  0  0  1  0  0  0  0  0  0
  192.6430  175.3280  136.3580 C   0  0  0  0  0  0  0  0  0  0  0  0
  1 18  1  0  0  0  0
  1  3  1  1  0  0  0
  2 25  1  0  0  0  0
  4 23  1  0  0  0  0
  6 24  1  6  0  0  0
  6  8  1  0  0  0  0
  7  1  1  0  0  0  0
  8 48  1  6  0  0  0
  8  7  1  0  0  0  0
  9 11  1  0  0  0  0
  9 24  1  0  0  0  0
 10  6  1  0  0  0  0
 11 10  1  1  0  0  0
 12 13  1  0  0  0  0
 13 28  2  0  0  0  0
 14 20  1  0  0  0  0
 15 25  1  6  0  0  0
 15 26  1  0  0  0  0
 15 30  1  0  0  0  0
 16 14  1  0  0  0  0
 16 11  1  0  0  0  0
 17 14  2  0  0  0  0
 18 19  2  0  0  0  0
 18 28  1  0  0  0  0
 20  4  1  0  0  0  0
 22 21  1  0  0  0  0
 23  5  1  6  0  0  0
 23  2  1  0  0  0  0
 26 13  1  6  0  0  0
 26 21  1  0  0  0  0
 27  1  1  0  0  0  0
 27 12  2  0  0  0  0
 28 22  1  0  0  0  0
 29 31  1  0  0  0  0
 30 33  1  0  0  0  0
 30 32  1  0  0  0  0
 32 31  1  0  0  0  0
 33 29  1  0  0  0  0
 34 35  1  1  0  0  0
 34 36  1  0  0  0  0
 34 30  1  0  0  0  0
 36 40  1  6  0  0  0
 36 38  1  0  0  0  0
 37 38  1  0  0  0  0
 38 39  2  0  0  0  0
 42 41  1  6  0  0  0
 42 40  1  0  0  0  0
 43 45  1  0  0  0  0
 44 47  1  0  0  0  0
 45 46  2  0  0  0  0
 45 47  1  0  0  0  0
 47 42  1  0  0  0  0
 49 48  1  0  0  0  0
 49 50  1  1  0  0  0
 51 53  2  0  0  0  0
 52 53  1  0  0  0  0
 53 49  1  0  0  0  0
M  END
>  <MODEL>
6

>  <REMARK>
 VINA RESULT:      -3.2      2.926      4.660
  Name = 
  10 active torsions:
  status: ('A' for Active; 'I' for Inactive)
    1  A    between atoms: C_2  and  C_20
    2  A    between atoms: C_2  and  C_53
    3  A    between atoms: C_3  and  CA_4
    4  A    between atoms: C_3  and  C_15
    5  A    between atoms: CA_4  and  C_47
    6  A    between atoms: C_16  and  C_20
    7  A    between atoms: C_16  and  C_21
    8  A    between atoms: C_20  and  C_29
    9  A    between atoms: C_21  and  C_31
   10  A    between atoms: N_46  and  C_53
                            x       y       z     vdW  Elec       q    Type
                         _______ _______ _______ _____ _____    ______ ____

>  <TORSDO>
F 10

$$$$
=
 OpenBabel11062413583D

 53 57  0  0  1  0  0  0  0  0999 V2000
  185.6860  179.2260  141.4520 C   0  0  1  0  0  0  0  0  0  0  0  0
  185.0850  177.0810  136.9140 O   0  0  0  0  0  0  0  0  0  0  0  0
  185.1160  180.2820  142.3830 C   0  0  0  0  0  1  0  0  0  0  0  0
  186.6820  175.9770  135.5300 C   0  0  0  0  0  2  0  0  0  0  0  0
  186.2470  178.3130  135.3930 F   0  0  0  0  0  0  0  0  0  0  0  0
  187.8790  177.8860  139.8640 N   0  0  2  0  0  0  0  0  0  0  0  0
  187.0850  179.1730  141.6980 O   0  0  0  0  0  0  0  0  0  0  0  0
  187.6580  177.9390  141.3170 C   0  0  2  0  0  3  0  0  0  0  0  0
  189.7820  178.1870  138.0060 S   0  0  0  0  0  0  0  0  0  0  0  0
  188.2940  176.5320  139.4990 C   0  0  0  0  0  2  0  0  0  0  0  0
  189.6300  176.5680  138.7820 C   0  0  1  0  0  3  0  0  0  0  0  0
  184.5290  179.1910  139.2090 C   0  0  0  0  0  3  0  0  0  0  0  0
  183.7640  178.0090  139.6320 C   0  0  0  0  0  0  0  0  0  0  0  0
  188.7880  175.2540  136.7520 C   0  0  0  0  0  0  0  0  0  0  0  0
  182.8100  176.7530  137.5870 C   0  0  1  0  0  3  0  0  0  0  0  0
  189.7340  175.4860  137.8000 N   0  0  0  0  0  2  0  0  0  0  0  0
  188.8850  174.2070  136.0520 O   0  0  0  0  0  0  0  0  0  0  0  0
  184.9310  177.9240  141.7530 C   0  0  0  0  0  0  0  0  0  0  0  0
  185.1100  177.3050  142.8350 O   0  0  0  0  0  0  0  0  0  0  0  0
  187.7100  176.1720  136.5430 N   0  0  0  0  0  2  0  0  0  0  0  0
  182.1680  176.3330  139.8990 O   0  0  0  0  0  0  0  0  0  0  0  0
  183.0110  176.4530  140.9490 O   0  0  0  0  0  0  0  0  0  0  0  0
  185.6490  177.0850  135.6350 C   0  0  2  0  0  3  0  0  0  0  0  0
  188.9010  178.8450  139.4430 C   0  0  0  0  0  2  0  0  0  0  0  0
  183.7900  177.5690  136.7380 C   0  0  0  0  0  2  0  0  0  0  0  0
  182.5750  177.3590  138.9950 C   0  0  1  0  0  3  0  0  0  0  0  0
  185.4380  179.7290  140.0370 C   0  0  0  0  0  3  0  0  0  0  0  0
  183.9340  177.4530  140.7860 C   0  0  0  0  0  0  0  0  0  0  0  0
  180.5040  178.0390  135.1350 C   0  0  0  0  0  2  0  0  0  0  0  0
  181.4870  176.5170  136.7950 C   0  0  0  0  0  0  0  0  0  0  0  0
  180.0250  178.4620  136.5070 C   0  0  0  0  0  2  0  0  0  0  0  0
  180.3190  177.2890  137.4220 C   0  0  0  0  0  2  0  0  0  0  0  0
  181.6590  177.0880  135.3790 C   0  0  0  0  0  2  0  0  0  0  0  0
  181.1440  174.9910  136.7740 C   0  0  1  0  0  3  0  0  0  0  0  0
  179.8060  174.7390  137.4890 C   0  0  0  0  0  1  0  0  0  0  0  0
  181.1820  174.3170  135.3750 C   0  0  2  0  0  3  0  0  0  0  0  0
  179.3980  172.6290  134.7390 N   0  0  0  0  0  1  0  0  0  0  0  0
  179.8030  173.9890  134.8610 C   0  0  0  0  0  0  0  0  0  0  0  0
  178.9840  174.9090  134.5940 O   0  0  0  0  0  0  0  0  0  0  0  0
  182.0010  173.0250  135.4170 C   0  0  0  0  0  2  0  0  0  0  0  0
  181.4970  171.5360  137.3810 C   0  0  0  0  0  1  0  0  0  0  0  0
  182.4050  172.6250  136.8340 C   0  0  1  0  0  3  0  0  0  0  0  0
  186.1900  172.6760  137.3220 N   0  0  0  0  0  1  0  0  0  0  0  0
  184.1660  170.8890  136.3050 C   0  0  0  0  0  1  0  0  0  0  0  0
  184.8180  173.0580  137.3740 C   0  0  0  0  0  0  0  0  0  0  0  0
  184.5100  174.1780  137.8680 O   0  0  0  0  0  0  0  0  0  0  0  0
  183.7990  172.1890  136.8560 N   0  0  0  0  0  0  0  0  0  0  0  0
  188.9460  177.7010  142.1190 C   0  0  0  0  0  2  0  0  0  0  0  0
  188.7370  176.6210  143.1690 C   0  0  1  0  0  3  0  0  0  0  0  0
  189.8440  175.6750  143.1330 N   0  0  0  0  0  1  0  0  0  0  0  0
  189.7110  177.1690  145.4260 O   0  0  0  0  0  1  0  0  0  0  0  0
  187.6160  177.9090  144.8310 O   0  0  0  0  0  0  0  0  0  0  0  0
  188.6470  177.2540  144.5240 C   0  0  0  0  0  0  0  0  0  0  0  0
  1  7  1  0  0  0  0
  1 18  1  0  0  0  0
  1  3  1  1  0  0  0
  4 23  1  0  0  0  0
  4 20  1  0  0  0  0
  6 24  1  1  0  0  0
  6  8  1  0  0  0  0
  8  7  1  0  0  0  0
  8 48  1  1  0  0  0
  9 11  1  0  0  0  0
  9 24  1  0  0  0  0
 10  6  1  0  0  0  0
 11 10  1  6  0  0  0
 12 13  1  0  0  0  0
 12 27  2  0  0  0  0
 13 28  2  0  0  0  0
 14 16  1  0  0  0  0
 15 25  1  6  0  0  0
 15 26  1  0  0  0  0
 16 11  1  0  0  0  0
 17 14  2  0  0  0  0
 18 19  2  0  0  0  0
 20 14  1  0  0  0  0
 21 22  1  0  0  0  0
 23  5  1  1  0  0  0
 23  2  1  0  0  0  0
 25  2  1  0  0  0  0
 26 13  1  1  0  0  0
 26 21  1  0  0  0  0
 27  1  1  0  0  0  0
 28 22  1  0  0  0  0
 28 18  1  0  0  0  0
 29 33  1  0  0  0  0
 29 31  1  0  0  0  0
 30 32  1  0  0  0  0
 30 15  1  0  0  0  0
 31 32  1  0  0  0  0
 33 30  1  0  0  0  0
 34 30  1  0  0  0  0
 34 35  1  6  0  0  0
 36 40  1  1  0  0  0
 36 34  1  0  0  0  0
 37 38  1  0  0  0  0
 38 36  1  0  0  0  0
 39 38  2  0  0  0  0
 40 42  1  0  0  0  0
 42 47  1  0  0  0  0
 42 41  1  6  0  0  0
 43 45  1  0  0  0  0
 44 47  1  0  0  0  0
 45 46  2  0  0  0  0
 47 45  1  0  0  0  0
 48 49  1  0  0  0  0
 49 50  1  1  0  0  0
 49 53  1  0  0  0  0
 53 52  2  0  0  0  0
 53 51  1  0  0  0  0
M  END
>  <MODEL>
7

>  <REMARK>
 VINA RESULT:      -3.1      3.106      6.087
  Name = 
  10 active torsions:
  status: ('A' for Active; 'I' for Inactive)
    1  A    between atoms: C_2  and  C_20
    2  A    between atoms: C_2  and  C_53
    3  A    between atoms: C_3  and  CA_4
    4  A    between atoms: C_3  and  C_15
    5  A    between atoms: CA_4  and  C_47
    6  A    between atoms: C_16  and  C_20
    7  A    between atoms: C_16  and  C_21
    8  A    between atoms: C_20  and  C_29
    9  A    between atoms: C_21  and  C_31
   10  A    between atoms: N_46  and  C_53
                            x       y       z     vdW  Elec       q    Type
                         _______ _______ _______ _____ _____    ______ ____

>  <TORSDO>
F 10

$$$$
