=
 OpenBabel11062413313D

 28 30  0  0  1  0  0  0  0  0999 V2000
  190.7370  176.2560  147.3510 O   0  0  0  0  0  1  0  0  0  0  0  0
  184.5120  178.6830  146.3820 C   0  0  0  0  0  2  0  0  0  0  0  0
  184.8970  178.6620  144.9400 C   0  0  0  0  0  3  0  0  0  0  0  0
  189.5130  176.8110  146.9740 C   0  0  1  0  0  3  0  0  0  0  0  0
  188.4450  177.7730  144.9880 C   0  0  0  0  0  3  0  0  0  0  0  0
  189.2020  177.9920  147.8670 C   0  0  0  0  0  2  0  0  0  0  0  0
  185.6850  178.7550  147.2500 N   0  0  0  0  0  0  0  0  0  0  0  0
  186.0640  178.1420  144.5440 C   0  0  0  0  0  0  0  0  0  0  0  0
  186.8490  178.2590  146.9480 C   0  0  0  0  0  0  0  0  0  0  0  0
  187.0610  177.6280  145.5650 C   0  0  2  0  0  3  0  0  0  0  0  0
  189.5690  177.3390  145.5750 C   0  0  0  0  0  0  0  0  0  0  0  0
  187.8010  178.2240  147.9820 O   0  0  0  0  0  0  0  0  0  0  0  0
  190.8920  177.4850  144.8680 C   0  0  1  0  0  3  0  0  0  0  0  0
  191.3730  176.1440  144.3340 C   0  0  0  0  0  1  0  0  0  0  0  0
  190.8110  178.5220  143.7540 C   0  0  0  0  0  2  0  0  0  0  0  0
  189.6880  177.5560  141.8880 O   0  0  0  0  0  1  0  0  0  0  0  0
  190.7870  177.8640  142.4180 C   0  0  0  0  0  0  0  0  0  0  0  0
  191.9750  177.6200  141.7410 O   0  0  0  0  0  0  0  0  0  0  0  0
  186.3720  178.0430  143.1770 O   0  0  0  0  0  0  0  0  0  0  0  0
  185.5400  178.5520  142.1400 C   0  0  1  0  0  3  0  0  0  0  0  0
  186.2380  178.3900  140.7910 C   0  0  0  0  0  2  0  0  0  0  0  0
  184.2370  177.8060  142.1500 C   0  0  0  0  0  3  0  0  0  0  0  0
  183.2390  178.0480  141.2880 C   0  0  0  0  0  3  0  0  0  0  0  0
  185.7090  179.3540  139.8330 N   0  0  0  0  0  2  0  0  0  0  0  0
  184.4740  178.8250  139.2680 C   0  0  0  0  0  2  0  0  0  0  0  0
  183.3050  179.0930  140.2120 C   0  0  1  0  0  3  0  0  0  0  0  0
  182.0550  179.0770  139.4500 C   0  0  0  0  0  0  0  0  0  0  0  0
  181.0660  179.0630  138.8490 N   0  0  0  0  0  0  0  0  0  0  0  0
  2  7  1  0  0  0  0
  3  2  1  0  0  0  0
  4  1  1  1  0  0  0
  4  6  1  0  0  0  0
  5 11  2  0  0  0  0
  6 12  1  0  0  0  0
  8  3  2  0  0  0  0
  8 10  1  0  0  0  0
  9  7  2  0  0  0  0
  9 12  1  0  0  0  0
 10  5  1  6  0  0  0
 10  9  1  0  0  0  0
 11  4  1  0  0  0  0
 13 14  1  6  0  0  0
 13 11  1  0  0  0  0
 15 13  1  0  0  0  0
 16 17  1  0  0  0  0
 17 15  1  0  0  0  0
 18 17  2  0  0  0  0
 19  8  1  0  0  0  0
 20 22  1  0  0  0  0
 20 19  1  1  0  0  0
 21 20  1  0  0  0  0
 23 22  2  0  0  0  0
 24 21  1  0  0  0  0
 25 24  1  0  0  0  0
 25 26  1  0  0  0  0
 26 27  1  6  0  0  0
 26 23  1  0  0  0  0
 28 27  3  0  0  0  0
M  END
>  <MODEL>
1

>  <REMARK>
 VINA RESULT:      -8.3      0.000      0.000
  Name = 
  6 active torsions:
  status: ('A' for Active; 'I' for Inactive)
    1  A    between atoms: C_5  and  O_12
    2  A    between atoms: C_8  and  C_20
    3  A    between atoms: O_12  and  C_13
    4  A    between atoms: C_20  and  C_21
    5  A    between atoms: C_21  and  C_22
    6  A    between atoms: C_23  and  C_26
                            x       y       z     vdW  Elec       q    Type
                         _______ _______ _______ _____ _____    ______ ____

>  <TORSDO>
F 6

$$$$
=
 OpenBabel11062413313D

 28 30  0  0  1  0  0  0  0  0999 V2000
  190.0070  175.2340  142.7790 O   0  0  0  0  0  1  0  0  0  0  0  0
  185.6900  178.4560  146.8470 C   0  0  0  0  0  2  0  0  0  0  0  0
  185.1050  178.9590  145.5690 C   0  0  0  0  0  3  0  0  0  0  0  0
  189.0730  176.0110  143.4650 C   0  0  1  0  0  3  0  0  0  0  0  0
  187.4290  177.7720  143.0070 C   0  0  0  0  0  3  0  0  0  0  0  0
  189.7710  176.7770  144.5670 C   0  0  0  0  0  2  0  0  0  0  0  0
  187.0880  178.0680  146.6810 N   0  0  0  0  0  0  0  0  0  0  0  0
  185.5480  178.5210  144.3860 C   0  0  0  0  0  0  0  0  0  0  0  0
  187.5940  177.6150  145.5700 C   0  0  0  0  0  0  0  0  0  0  0  0
  186.7130  177.5530  144.3150 C   0  0  2  0  0  3  0  0  0  0  0  0
  188.4550  177.0330  142.5630 C   0  0  0  0  0  0  0  0  0  0  0  0
  188.8940  177.0860  145.6460 O   0  0  0  0  0  0  0  0  0  0  0  0
  189.0490  177.3090  141.2050 C   0  0  1  0  0  3  0  0  0  0  0  0
  188.1800  178.2790  140.4190 C   0  0  0  0  0  1  0  0  0  0  0  0
  190.4780  177.8250  141.3230 C   0  0  0  0  0  2  0  0  0  0  0  0
  192.5590  177.5480  140.1930 O   0  0  0  0  0  1  0  0  0  0  0  0
  191.3550  177.1950  140.2950 C   0  0  0  0  0  0  0  0  0  0  0  0
  190.8540  176.1940  139.4740 O   0  0  0  0  0  0  0  0  0  0  0  0
  184.9250  178.9300  143.1960 O   0  0  0  0  0  0  0  0  0  0  0  0
  183.6190  178.5190  142.8040 C   0  0  1  0  0  3  0  0  0  0  0  0
  182.5760  179.4330  143.4450 C   0  0  0  0  0  2  0  0  0  0  0  0
  183.5190  178.5770  141.3080 C   0  0  0  0  0  3  0  0  0  0  0  0
  182.4100  178.2540  140.6270 C   0  0  0  0  0  3  0  0  0  0  0  0
  181.2930  178.7460  143.5320 N   0  0  0  0  0  2  0  0  0  0  0  0
  180.6140  178.8560  142.2460 C   0  0  0  0  0  2  0  0  0  0  0  0
  181.1370  177.7970  141.2810 C   0  0  1  0  0  3  0  0  0  0  0  0
  180.1310  177.5450  140.2480 C   0  0  0  0  0  0  0  0  0  0  0  0
  179.3350  177.3470  139.4310 N   0  0  0  0  0  0  0  0  0  0  0  0
  3  2  1  0  0  0  0
  4  1  1  6  0  0  0
  4  6  1  0  0  0  0
  6 12  1  0  0  0  0
  7  2  1  0  0  0  0
  8  3  2  0  0  0  0
  9 12  1  0  0  0  0
  9  7  2  0  0  0  0
 10  5  1  6  0  0  0
 10  8  1  0  0  0  0
 10  9  1  0  0  0  0
 11  5  2  0  0  0  0
 11  4  1  0  0  0  0
 13 14  1  1  0  0  0
 13 15  1  0  0  0  0
 13 11  1  0  0  0  0
 16 17  1  0  0  0  0
 17 15  1  0  0  0  0
 18 17  2  0  0  0  0
 19  8  1  0  0  0  0
 20 19  1  6  0  0  0
 20 21  1  0  0  0  0
 21 24  1  0  0  0  0
 22 20  1  0  0  0  0
 23 26  1  0  0  0  0
 23 22  2  0  0  0  0
 25 24  1  0  0  0  0
 26 27  1  6  0  0  0
 26 25  1  0  0  0  0
 28 27  3  0  0  0  0
M  END
>  <MODEL>
2

>  <REMARK>
 VINA RESULT:      -8.1      2.108      3.101
  Name = 
  6 active torsions:
  status: ('A' for Active; 'I' for Inactive)
    1  A    between atoms: C_5  and  O_12
    2  A    between atoms: C_8  and  C_20
    3  A    between atoms: O_12  and  C_13
    4  A    between atoms: C_20  and  C_21
    5  A    between atoms: C_21  and  C_22
    6  A    between atoms: C_23  and  C_26
                            x       y       z     vdW  Elec       q    Type
                         _______ _______ _______ _____ _____    ______ ____

>  <TORSDO>
F 6

$$$$
=
 OpenBabel11062413313D

 28 30  0  0  1  0  0  0  0  0999 V2000
  185.0440  178.8270  146.9580 O   0  0  0  0  0  1  0  0  0  0  0  0
  191.4840  176.9050  146.3170 C   0  0  0  0  0  2  0  0  0  0  0  0
  191.3280  177.3980  144.9170 C   0  0  0  0  0  3  0  0  0  0  0  0
  186.3450  178.4380  146.6330 C   0  0  1  0  0  3  0  0  0  0  0  0
  187.7680  178.1930  144.6520 C   0  0  0  0  0  3  0  0  0  0  0  0
  186.5850  177.0300  147.1340 C   0  0  0  0  0  2  0  0  0  0  0  0
  190.1970  176.5400  146.9040 N   0  0  0  0  0  0  0  0  0  0  0  0
  190.2080  178.0100  144.5200 C   0  0  0  0  0  0  0  0  0  0  0  0
  189.0650  177.0990  146.5870 C   0  0  0  0  0  0  0  0  0  0  0  0
  189.0330  178.1500  145.4690 C   0  0  2  0  0  3  0  0  0  0  0  0
  186.5420  178.4010  145.1500 C   0  0  0  0  0  0  0  0  0  0  0  0
  187.9630  176.7830  147.4010 O   0  0  0  0  0  0  0  0  0  0  0  0
  185.3570  178.4860  144.2220 C   0  0  1  0  0  3  0  0  0  0  0  0
  184.8300  179.9120  144.1440 C   0  0  0  0  0  1  0  0  0  0  0  0
  185.7010  177.9520  142.8370 C   0  0  0  0  0  2  0  0  0  0  0  0
  183.6100  178.2640  141.7360 O   0  0  0  0  0  1  0  0  0  0  0  0
  184.8300  178.5700  141.7980 C   0  0  0  0  0  0  0  0  0  0  0  0
  185.3540  179.5110  140.9210 O   0  0  0  0  0  0  0  0  0  0  0  0
  190.1120  178.5520  143.2280 O   0  0  0  0  0  0  0  0  0  0  0  0
  190.0460  177.7660  142.0430 C   0  0  1  0  0  3  0  0  0  0  0  0
  188.9510  178.3050  141.1250 C   0  0  0  0  0  2  0  0  0  0  0  0
  191.3790  177.8130  141.3530 C   0  0  0  0  0  3  0  0  0  0  0  0
  191.6390  177.1760  140.2030 C   0  0  0  0  0  3  0  0  0  0  0  0
  188.4900  177.2560  140.2230 N   0  0  0  0  0  2  0  0  0  0  0  0
  189.4080  177.1720  139.0940 C   0  0  0  0  0  2  0  0  0  0  0  0
  190.6310  176.3400  139.4680 C   0  0  1  0  0  3  0  0  0  0  0  0
  191.2440  175.8060  138.2510 C   0  0  0  0  0  0  0  0  0  0  0  0
  191.7290  175.3860  137.2880 N   0  0  0  0  0  0  0  0  0  0  0  0
  2  7  1  0  0  0  0
  3  2  1  0  0  0  0
  4  1  1  6  0  0  0
  4  6  1  0  0  0  0
  5 11  2  0  0  0  0
  6 12  1  0  0  0  0
  8  3  2  0  0  0  0
  8 10  1  0  0  0  0
  9  7  2  0  0  0  0
  9 12  1  0  0  0  0
 10  5  1  6  0  0  0
 10  9  1  0  0  0  0
 11  4  1  0  0  0  0
 13 14  1  6  0  0  0
 13 11  1  0  0  0  0
 15 13  1  0  0  0  0
 16 17  1  0  0  0  0
 17 15  1  0  0  0  0
 18 17  2  0  0  0  0
 19  8  1  0  0  0  0
 20 19  1  1  0  0  0
 21 20  1  0  0  0  0
 22 20  1  0  0  0  0
 23 22  2  0  0  0  0
 24 21  1  0  0  0  0
 25 26  1  0  0  0  0
 25 24  1  0  0  0  0
 26 27  1  6  0  0  0
 26 23  1  0  0  0  0
 28 27  3  0  0  0  0
M  END
>  <MODEL>
3

>  <REMARK>
 VINA RESULT:      -8.0      2.681      5.838
  Name = 
  6 active torsions:
  status: ('A' for Active; 'I' for Inactive)
    1  A    between atoms: C_5  and  O_12
    2  A    between atoms: C_8  and  C_20
    3  A    between atoms: O_12  and  C_13
    4  A    between atoms: C_20  and  C_21
    5  A    between atoms: C_21  and  C_22
    6  A    between atoms: C_23  and  C_26
                            x       y       z     vdW  Elec       q    Type
                         _______ _______ _______ _____ _____    ______ ____

>  <TORSDO>
F 6

$$$$
=
 OpenBabel11062413313D

 28 30  0  0  1  0  0  0  0  0999 V2000
  186.0590  179.9300  147.6960 O   0  0  0  0  0  1  0  0  0  0  0  0
  191.7350  176.6420  146.0980 C   0  0  0  0  0  2  0  0  0  0  0  0
  191.0000  176.3020  144.8440 C   0  0  0  0  0  3  0  0  0  0  0  0
  187.1250  179.1570  147.2320 C   0  0  1  0  0  3  0  0  0  0  0  0
  187.6180  177.5630  145.4350 C   0  0  0  0  0  3  0  0  0  0  0  0
  187.6040  178.2460  148.3410 C   0  0  0  0  0  2  0  0  0  0  0  0
  190.8170  176.9480  147.1920 N   0  0  0  0  0  0  0  0  0  0  0  0
  189.7930  176.8180  144.5890 C   0  0  0  0  0  0  0  0  0  0  0  0
  189.6350  177.4680  147.0310 C   0  0  0  0  0  0  0  0  0  0  0  0
  189.1070  177.7060  145.6090 C   0  0  2  0  0  3  0  0  0  0  0  0
  186.6970  178.2680  146.1070 C   0  0  0  0  0  0  0  0  0  0  0  0
  188.9770  177.8980  148.1960 O   0  0  0  0  0  0  0  0  0  0  0  0
  185.2330  178.0800  145.7990 C   0  0  1  0  0  3  0  0  0  0  0  0
  184.4230  177.9440  147.0790 C   0  0  0  0  0  1  0  0  0  0  0  0
  184.7020  179.2150  144.9310 C   0  0  0  0  0  2  0  0  0  0  0  0
  183.0010  178.9230  143.2880 O   0  0  0  0  0  1  0  0  0  0  0  0
  184.1890  178.6930  143.6330 C   0  0  0  0  0  0  0  0  0  0  0  0
  185.0300  177.9810  142.7880 O   0  0  0  0  0  0  0  0  0  0  0  0
  189.1540  176.5640  143.3640 O   0  0  0  0  0  0  0  0  0  0  0  0
  189.4850  177.2260  142.1480 C   0  0  1  0  0  3  0  0  0  0  0  0
  190.5160  176.4030  141.3760 C   0  0  0  0  0  2  0  0  0  0  0  0
  188.2370  177.4010  141.3330 C   0  0  0  0  0  3  0  0  0  0  0  0
  188.2160  177.9870  140.1280 C   0  0  0  0  0  3  0  0  0  0  0  0
  191.2630  177.2610  140.4650 N   0  0  0  0  0  2  0  0  0  0  0  0
  190.4830  177.4450  139.2470 C   0  0  0  0  0  2  0  0  0  0  0  0
  189.4380  178.5380  139.4500 C   0  0  1  0  0  3  0  0  0  0  0  0
  189.0570  179.0900  138.1490 C   0  0  0  0  0  0  0  0  0  0  0  0
  188.7550  179.5290  137.1210 N   0  0  0  0  0  0  0  0  0  0  0  0
  2  7  1  0  0  0  0
  3  2  1  0  0  0  0
  4  1  1  1  0  0  0
  4  6  1  0  0  0  0
  5 11  2  0  0  0  0
  8  3  2  0  0  0  0
  8 10  1  0  0  0  0
  9  7  2  0  0  0  0
  9 12  1  0  0  0  0
 10  5  1  1  0  0  0
 10  9  1  0  0  0  0
 11  4  1  0  0  0  0
 12  6  1  0  0  0  0
 13 11  1  0  0  0  0
 13 14  1  1  0  0  0
 15 13  1  0  0  0  0
 16 17  1  0  0  0  0
 17 15  1  0  0  0  0
 18 17  2  0  0  0  0
 19  8  1  0  0  0  0
 20 19  1  1  0  0  0
 21 20  1  0  0  0  0
 22 20  1  0  0  0  0
 23 22  2  0  0  0  0
 24 21  1  0  0  0  0
 25 26  1  0  0  0  0
 25 24  1  0  0  0  0
 26 27  1  6  0  0  0
 26 23  1  0  0  0  0
 28 27  3  0  0  0  0
M  END
>  <MODEL>
4

>  <REMARK>
 VINA RESULT:      -8.0      2.794      5.384
  Name = 
  6 active torsions:
  status: ('A' for Active; 'I' for Inactive)
    1  A    between atoms: C_5  and  O_12
    2  A    between atoms: C_8  and  C_20
    3  A    between atoms: O_12  and  C_13
    4  A    between atoms: C_20  and  C_21
    5  A    between atoms: C_21  and  C_22
    6  A    between atoms: C_23  and  C_26
                            x       y       z     vdW  Elec       q    Type
                         _______ _______ _______ _____ _____    ______ ____

>  <TORSDO>
F 6

$$$$
=
 OpenBabel11062413313D

 28 30  0  0  1  0  0  0  0  0999 V2000
  187.4170  177.1290  148.7800 O   0  0  0  0  0  1  0  0  0  0  0  0
  184.6570  178.5690  142.7890 C   0  0  0  0  0  2  0  0  0  0  0  0
  186.0220  178.2680  142.2640 C   0  0  0  0  0  3  0  0  0  0  0  0
  187.0300  177.4450  147.4770 C   0  0  1  0  0  3  0  0  0  0  0  0
  188.0460  177.8130  145.2760 C   0  0  0  0  0  3  0  0  0  0  0  0
  186.2710  178.7540  147.4840 C   0  0  0  0  0  2  0  0  0  0  0  0
  184.6980  178.9640  144.1950 N   0  0  0  0  0  0  0  0  0  0  0  0
  186.9850  177.8070  143.0680 C   0  0  0  0  0  0  0  0  0  0  0  0
  185.5900  178.5460  145.0460 C   0  0  0  0  0  0  0  0  0  0  0  0
  186.7340  177.6480  144.5550 C   0  0  2  0  0  3  0  0  0  0  0  0
  188.2210  177.6500  146.5940 C   0  0  0  0  0  0  0  0  0  0  0  0
  185.3540  178.8490  146.3980 O   0  0  0  0  0  0  0  0  0  0  0  0
  189.5990  177.7800  147.1930 C   0  0  1  0  0  3  0  0  0  0  0  0
  189.5460  178.5250  148.5190 C   0  0  0  0  0  1  0  0  0  0  0  0
  190.2610  176.4170  147.3550 C   0  0  0  0  0  2  0  0  0  0  0  0
  191.9090  177.1680  145.8060 O   0  0  0  0  0  0  0  0  0  0  0  0
  191.6380  176.4260  146.7850 C   0  0  0  0  0  0  0  0  0  0  0  0
  192.6310  175.6420  147.3570 O   0  0  0  0  0  1  0  0  0  0  0  0
  188.2350  177.4390  142.5430 O   0  0  0  0  0  0  0  0  0  0  0  0
  188.5040  177.3220  141.1500 C   0  0  1  0  0  3  0  0  0  0  0  0
  188.3540  178.6850  140.4770 C   0  0  0  0  0  2  0  0  0  0  0  0
  189.8980  176.7960  140.9650 C   0  0  0  0  0  3  0  0  0  0  0  0
  190.4550  176.5790  139.7650 C   0  0  0  0  0  3  0  0  0  0  0  0
  188.0740  178.5170  139.0570 N   0  0  0  0  0  2  0  0  0  0  0  0
  189.3320  178.2970  138.3530 C   0  0  0  0  0  2  0  0  0  0  0  0
  189.7500  176.8350  138.4630 C   0  0  1  0  0  3  0  0  0  0  0  0
  190.6500  176.5040  137.3570 C   0  0  0  0  0  0  0  0  0  0  0  0
  191.3630  176.2430  136.4840 N   0  0  0  0  0  0  0  0  0  0  0  0
  2  7  1  0  0  0  0
  3  2  1  0  0  0  0
  3  8  2  0  0  0  0
  4  6  1  0  0  0  0
  4  1  1  1  0  0  0
  5 11  2  0  0  0  0
  7  9  2  0  0  0  0
  8 10  1  0  0  0  0
  9 12  1  0  0  0  0
 10  9  1  0  0  0  0
 10  5  1  1  0  0  0
 11 13  1  0  0  0  0
 11  4  1  0  0  0  0
 12  6  1  0  0  0  0
 13 15  1  0  0  0  0
 13 14  1  1  0  0  0
 16 17  2  0  0  0  0
 17 15  1  0  0  0  0
 17 18  1  0  0  0  0
 19  8  1  0  0  0  0
 20 19  1  1  0  0  0
 21 20  1  0  0  0  0
 22 20  1  0  0  0  0
 23 22  2  0  0  0  0
 24 21  1  0  0  0  0
 25 26  1  0  0  0  0
 25 24  1  0  0  0  0
 26 27  1  6  0  0  0
 26 23  1  0  0  0  0
 28 27  3  0  0  0  0
M  END
>  <MODEL>
5

>  <REMARK>
 VINA RESULT:      -7.9      2.633      4.668
  Name = 
  6 active torsions:
  status: ('A' for Active; 'I' for Inactive)
    1  A    between atoms: C_5  and  O_12
    2  A    between atoms: C_8  and  C_20
    3  A    between atoms: O_12  and  C_13
    4  A    between atoms: C_20  and  C_21
    5  A    between atoms: C_21  and  C_22
    6  A    between atoms: C_23  and  C_26
                            x       y       z     vdW  Elec       q    Type
                         _______ _______ _______ _____ _____    ______ ____

>  <TORSDO>
F 6

$$$$
=
 OpenBabel11062413313D

 28 30  0  0  1  0  0  0  0  0999 V2000
  191.4190  177.6420  145.4420 O   0  0  0  0  0  1  0  0  0  0  0  0
  189.6560  177.0010  138.9570 C   0  0  0  0  0  2  0  0  0  0  0  0
  188.4490  177.7760  139.3710 C   0  0  0  0  0  3  0  0  0  0  0  0
  190.8750  177.5570  144.1600 C   0  0  1  0  0  3  0  0  0  0  0  0
  188.7610  178.0190  143.0070 C   0  0  0  0  0  3  0  0  0  0  0  0
  190.9760  176.1300  143.6660 C   0  0  0  0  0  2  0  0  0  0  0  0
  190.2610  176.3040  140.0900 N   0  0  0  0  0  0  0  0  0  0  0  0
  188.3370  178.2730  140.6070 C   0  0  0  0  0  0  0  0  0  0  0  0
  190.2130  176.7290  141.3190 C   0  0  0  0  0  0  0  0  0  0  0  0
  189.4060  177.9930  141.6460 C   0  0  2  0  0  3  0  0  0  0  0  0
  189.4180  177.9010  144.1690 C   0  0  0  0  0  0  0  0  0  0  0  0
  191.0290  176.0560  142.2440 O   0  0  0  0  0  0  0  0  0  0  0  0
  188.6690  178.0070  145.4720 C   0  0  1  0  0  3  0  0  0  0  0  0
  187.1680  177.8920  145.2460 C   0  0  0  0  0  1  0  0  0  0  0  0
  189.1540  176.9660  146.4740 C   0  0  0  0  0  2  0  0  0  0  0  0
  187.8820  176.8040  148.4830 O   0  0  0  0  0  0  0  0  0  0  0  0
  188.8190  177.3750  147.8670 C   0  0  0  0  0  0  0  0  0  0  0  0
  189.5630  178.3630  148.4990 O   0  0  0  0  0  1  0  0  0  0  0  0
  187.2410  179.0790  140.9540 O   0  0  0  0  0  0  0  0  0  0  0  0
  185.9120  178.5900  141.0950 C   0  0  1  0  0  3  0  0  0  0  0  0
  185.2560  179.2200  142.3220 C   0  0  0  0  0  2  0  0  0  0  0  0
  185.1350  178.9250  139.8550 C   0  0  0  0  0  3  0  0  0  0  0  0
  183.8460  178.6030  139.6790 C   0  0  0  0  0  3  0  0  0  0  0  0
  184.1730  178.3720  142.8040 N   0  0  0  0  0  2  0  0  0  0  0  0
  182.9780  178.6440  142.0140 C   0  0  0  0  0  2  0  0  0  0  0  0
  183.0260  177.8690  140.7010 C   0  0  1  0  0  3  0  0  0  0  0  0
  181.6640  177.6970  140.1900 C   0  0  0  0  0  0  0  0  0  0  0  0
  180.5880  177.5600  139.7870 N   0  0  0  0  0  0  0  0  0  0  0  0
  2  3  1  0  0  0  0
  2  7  1  0  0  0  0
  3  8  2  0  0  0  0
  4 11  1  0  0  0  0
  4  1  1  1  0  0  0
  5 11  2  0  0  0  0
  6  4  1  0  0  0  0
  7  9  2  0  0  0  0
  8 19  1  0  0  0  0
  8 10  1  0  0  0  0
  9 10  1  0  0  0  0
  9 12  1  0  0  0  0
 10  5  1  1  0  0  0
 11 13  1  0  0  0  0
 12  6  1  0  0  0  0
 13 14  1  6  0  0  0
 13 15  1  0  0  0  0
 15 17  1  0  0  0  0
 17 16  2  0  0  0  0
 17 18  1  0  0  0  0
 20 19  1  6  0  0  0
 20 21  1  0  0  0  0
 21 24  1  0  0  0  0
 22 20  1  0  0  0  0
 23 22  2  0  0  0  0
 23 26  1  0  0  0  0
 25 24  1  0  0  0  0
 26 27  1  6  0  0  0
 26 25  1  0  0  0  0
 28 27  3  0  0  0  0
M  END
>  <MODEL>
6

>  <REMARK>
 VINA RESULT:      -7.9      2.011      4.684
  Name = 
  6 active torsions:
  status: ('A' for Active; 'I' for Inactive)
    1  A    between atoms: C_5  and  O_12
    2  A    between atoms: C_8  and  C_20
    3  A    between atoms: O_12  and  C_13
    4  A    between atoms: C_20  and  C_21
    5  A    between atoms: C_21  and  C_22
    6  A    between atoms: C_23  and  C_26
                            x       y       z     vdW  Elec       q    Type
                         _______ _______ _______ _____ _____    ______ ____

>  <TORSDO>
F 6

$$$$
=
 OpenBabel11062413313D

 28 30  0  0  1  0  0  0  0  0999 V2000
  189.2090  175.4680  143.2370 O   0  0  0  0  0  1  0  0  0  0  0  0
  183.7650  178.9860  145.1250 C   0  0  0  0  0  2  0  0  0  0  0  0
  183.7860  179.4750  143.7150 C   0  0  0  0  0  3  0  0  0  0  0  0
  188.1150  176.3040  143.4680 C   0  0  1  0  0  3  0  0  0  0  0  0
  186.8970  178.1170  142.3540 C   0  0  0  0  0  3  0  0  0  0  0  0
  188.3340  177.0720  144.7530 C   0  0  0  0  0  2  0  0  0  0  0  0
  185.0870  178.5350  145.5560 N   0  0  0  0  0  0  0  0  0  0  0  0
  184.6550  178.9840  142.8260 C   0  0  0  0  0  0  0  0  0  0  0  0
  185.9820  178.0290  144.7580 C   0  0  0  0  0  0  0  0  0  0  0  0
  185.6960  177.9670  143.2520 C   0  0  2  0  0  3  0  0  0  0  0  0
  187.9770  177.3240  142.3820 C   0  0  0  0  0  0  0  0  0  0  0  0
  187.1060  177.4490  145.3700 O   0  0  0  0  0  0  0  0  0  0  0  0
  189.0910  177.5350  141.3880 C   0  0  1  0  0  3  0  0  0  0  0  0
  188.5800  178.2390  140.1400 C   0  0  0  0  0  1  0  0  0  0  0  0
  190.2510  178.3000  142.0140 C   0  0  0  0  0  2  0  0  0  0  0  0
  192.0400  176.9470  142.8200 O   0  0  0  0  0  1  0  0  0  0  0  0
  191.5300  177.5560  141.8430 C   0  0  0  0  0  0  0  0  0  0  0  0
  192.1440  177.5060  140.5990 O   0  0  0  0  0  0  0  0  0  0  0  0
  184.6000  179.3840  141.4810 O   0  0  0  0  0  0  0  0  0  0  0  0
  183.5530  179.0180  140.5880 C   0  0  1  0  0  3  0  0  0  0  0  0
  183.8290  179.5950  139.2010 C   0  0  0  0  0  2  0  0  0  0  0  0
  183.4680  177.5200  140.5260 C   0  0  0  0  0  3  0  0  0  0  0  0
  182.5820  176.8600  139.7660 C   0  0  0  0  0  3  0  0  0  0  0  0
  182.5850  179.7240  138.4530 N   0  0  0  0  0  2  0  0  0  0  0  0
  182.2580  178.4320  137.8610 C   0  0  0  0  0  2  0  0  0  0  0  0
  181.5700  177.5390  138.8890 C   0  0  1  0  0  3  0  0  0  0  0  0
  180.7780  176.5230  138.1940 C   0  0  0  0  0  0  0  0  0  0  0  0
  180.1520  175.7200  137.6440 N   0  0  0  0  0  0  0  0  0  0  0  0
  2  7  1  0  0  0  0
  3  2  1  0  0  0  0
  4  1  1  6  0  0  0
  4  6  1  0  0  0  0
  5 11  2  0  0  0  0
  6 12  1  0  0  0  0
  8 10  1  0  0  0  0
  8  3  2  0  0  0  0
  9 12  1  0  0  0  0
  9  7  2  0  0  0  0
 10  5  1  6  0  0  0
 10  9  1  0  0  0  0
 11  4  1  0  0  0  0
 13 14  1  6  0  0  0
 13 15  1  0  0  0  0
 13 11  1  0  0  0  0
 17 15  1  0  0  0  0
 17 16  1  0  0  0  0
 18 17  2  0  0  0  0
 19  8  1  0  0  0  0
 20 19  1  1  0  0  0
 21 20  1  0  0  0  0
 22 20  1  0  0  0  0
 23 22  2  0  0  0  0
 24 21  1  0  0  0  0
 25 24  1  0  0  0  0
 25 26  1  0  0  0  0
 26 27  1  6  0  0  0
 26 23  1  0  0  0  0
 28 27  3  0  0  0  0
M  END
>  <MODEL>
7

>  <REMARK>
 VINA RESULT:      -7.8      2.071      2.938
  Name = 
  6 active torsions:
  status: ('A' for Active; 'I' for Inactive)
    1  A    between atoms: C_5  and  O_12
    2  A    between atoms: C_8  and  C_20
    3  A    between atoms: O_12  and  C_13
    4  A    between atoms: C_20  and  C_21
    5  A    between atoms: C_21  and  C_22
    6  A    between atoms: C_23  and  C_26
                            x       y       z     vdW  Elec       q    Type
                         _______ _______ _______ _____ _____    ______ ____

>  <TORSDO>
F 6

$$$$
=
 OpenBabel11062413313D

 28 30  0  0  1  0  0  0  0  0999 V2000
  181.3330  179.7460  139.8000 O   0  0  0  0  0  1  0  0  0  0  0  0
  184.4360  178.9290  145.7390 C   0  0  0  0  0  2  0  0  0  0  0  0
  185.4840  178.2510  144.9210 C   0  0  0  0  0  3  0  0  0  0  0  0
  182.0820  179.4410  140.9380 C   0  0  1  0  0  3  0  0  0  0  0  0
  184.0190  178.0800  141.5750 C   0  0  0  0  0  3  0  0  0  0  0  0
  181.1690  178.8640  141.9970 C   0  0  0  0  0  2  0  0  0  0  0  0
  183.1350  178.9020  145.0740 N   0  0  0  0  0  0  0  0  0  0  0  0
  185.4090  178.2240  143.5870 C   0  0  0  0  0  0  0  0  0  0  0  0
  182.9760  178.8930  143.7820 C   0  0  0  0  0  0  0  0  0  0  0  0
  184.2100  178.8190  142.8740 C   0  0  2  0  0  3  0  0  0  0  0  0
  183.1080  178.3920  140.6430 C   0  0  0  0  0  0  0  0  0  0  0  0
  181.6650  179.0890  143.3140 O   0  0  0  0  0  0  0  0  0  0  0  0
  183.0550  177.6160  139.3520 C   0  0  1  0  0  3  0  0  0  0  0  0
  184.3790  177.7050  138.6090 C   0  0  0  0  0  1  0  0  0  0  0  0
  182.6600  176.1650  139.5970 C   0  0  0  0  0  2  0  0  0  0  0  0
  180.5720  176.6850  138.5720 O   0  0  0  0  0  0  0  0  0  0  0  0
  181.1940  175.9740  139.4030 C   0  0  0  0  0  0  0  0  0  0  0  0
  180.5210  174.9900  140.1140 O   0  0  0  0  0  1  0  0  0  0  0  0
  186.4500  177.6660  142.8260 O   0  0  0  0  0  0  0  0  0  0  0  0
  187.6430  177.1310  143.3900 C   0  0  1  0  0  3  0  0  0  0  0  0
  188.7180  177.0150  142.3110 C   0  0  0  0  0  2  0  0  0  0  0  0
  188.1050  178.0320  144.4980 C   0  0  0  0  0  3  0  0  0  0  0  0
  189.2080  177.8050  145.2250 C   0  0  0  0  0  3  0  0  0  0  0  0
  189.7000  176.0050  142.6870 N   0  0  0  0  0  2  0  0  0  0  0  0
  190.6660  176.6060  143.5990 C   0  0  0  0  0  2  0  0  0  0  0  0
  190.1110  176.6220  145.0190 C   0  0  1  0  0  3  0  0  0  0  0  0
  191.2200  176.6930  145.9720 C   0  0  0  0  0  0  0  0  0  0  0  0
  192.0960  176.7520  146.7250 N   0  0  0  0  0  0  0  0  0  0  0  0
  3  2  1  0  0  0  0
  4  1  1  6  0  0  0
  4  6  1  0  0  0  0
  6 12  1  0  0  0  0
  7  2  1  0  0  0  0
  8  3  2  0  0  0  0
  9  7  2  0  0  0  0
 10  5  1  6  0  0  0
 10  8  1  0  0  0  0
 10  9  1  0  0  0  0
 11  4  1  0  0  0  0
 11  5  2  0  0  0  0
 12  9  1  0  0  0  0
 13 14  1  1  0  0  0
 13 15  1  0  0  0  0
 13 11  1  0  0  0  0
 16 17  2  0  0  0  0
 17 15  1  0  0  0  0
 17 18  1  0  0  0  0
 19  8  1  0  0  0  0
 20 19  1  6  0  0  0
 20 22  1  0  0  0  0
 21 24  1  0  0  0  0
 21 20  1  0  0  0  0
 22 23  2  0  0  0  0
 24 25  1  0  0  0  0
 25 26  1  0  0  0  0
 26 23  1  0  0  0  0
 26 27  1  1  0  0  0
 27 28  3  0  0  0  0
M  END
>  <MODEL>
8

>  <REMARK>
 VINA RESULT:      -7.7      3.370      7.929
  Name = 
  6 active torsions:
  status: ('A' for Active; 'I' for Inactive)
    1  A    between atoms: C_5  and  O_12
    2  A    between atoms: C_8  and  C_20
    3  A    between atoms: O_12  and  C_13
    4  A    between atoms: C_20  and  C_21
    5  A    between atoms: C_21  and  C_22
    6  A    between atoms: C_23  and  C_26
                            x       y       z     vdW  Elec       q    Type
                         _______ _______ _______ _____ _____    ______ ____

>  <TORSDO>
F 6

$$$$
=
 OpenBabel11062413313D

 28 30  0  0  1  0  0  0  0  0999 V2000
  181.4320  179.4640  140.4040 O   0  0  0  0  0  1  0  0  0  0  0  0
  184.9080  178.9680  146.1710 C   0  0  0  0  0  2  0  0  0  0  0  0
  185.9310  178.3010  145.3130 C   0  0  0  0  0  3  0  0  0  0  0  0
  182.2570  179.2270  141.5050 C   0  0  1  0  0  3  0  0  0  0  0  0
  184.2790  177.9590  142.0680 C   0  0  0  0  0  3  0  0  0  0  0  0
  181.4310  178.6540  142.6360 C   0  0  0  0  0  2  0  0  0  0  0  0
  183.5720  178.8720  145.5860 N   0  0  0  0  0  0  0  0  0  0  0  0
  185.7790  178.2240  143.9880 C   0  0  0  0  0  0  0  0  0  0  0  0
  183.3370  178.8120  144.3070 C   0  0  0  0  0  0  0  0  0  0  0  0
  184.5180  178.7500  143.3290 C   0  0  2  0  0  3  0  0  0  0  0  0
  183.3040  178.2060  141.1830 C   0  0  0  0  0  0  0  0  0  0  0  0
  181.9950  178.9430  143.9120 O   0  0  0  0  0  0  0  0  0  0  0  0
  183.2040  177.3830  139.9240 C   0  0  1  0  0  3  0  0  0  0  0  0
  181.9040  176.5940  139.8930 C   0  0  0  0  0  1  0  0  0  0  0  0
  183.3460  178.2560  138.6820 C   0  0  0  0  0  2  0  0  0  0  0  0
  185.7040  178.6060  138.6600 O   0  0  0  0  0  0  0  0  0  0  0  0
  184.5590  179.1160  138.7760 C   0  0  0  0  0  0  0  0  0  0  0  0
  184.4270  180.4860  138.9570 O   0  0  0  0  0  1  0  0  0  0  0  0
  186.7930  177.6780  143.1850 O   0  0  0  0  0  0  0  0  0  0  0  0
  187.9780  177.0820  143.7030 C   0  0  1  0  0  3  0  0  0  0  0  0
  189.0500  177.0320  142.6160 C   0  0  0  0  0  2  0  0  0  0  0  0
  188.4570  177.8900  144.8750 C   0  0  0  0  0  3  0  0  0  0  0  0
  189.5570  177.5900  145.5800 C   0  0  0  0  0  3  0  0  0  0  0  0
  190.0160  175.9810  142.9110 N   0  0  0  0  0  2  0  0  0  0  0  0
  190.9930  176.4960  143.8640 C   0  0  0  0  0  2  0  0  0  0  0  0
  190.4400  176.4130  145.2830 C   0  0  1  0  0  3  0  0  0  0  0  0
  191.5520  176.3940  146.2350 C   0  0  0  0  0  0  0  0  0  0  0  0
  192.4300  176.3820  146.9880 N   0  0  0  0  0  0  0  0  0  0  0  0
  3  2  1  0  0  0  0
  4  1  1  6  0  0  0
  4  6  1  0  0  0  0
  6 12  1  0  0  0  0
  7  2  1  0  0  0  0
  8  3  2  0  0  0  0
  9  7  2  0  0  0  0
 10  5  1  6  0  0  0
 10  8  1  0  0  0  0
 10  9  1  0  0  0  0
 11  4  1  0  0  0  0
 11  5  2  0  0  0  0
 12  9  1  0  0  0  0
 13 14  1  6  0  0  0
 13 11  1  0  0  0  0
 15 17  1  0  0  0  0
 15 13  1  0  0  0  0
 16 17  2  0  0  0  0
 17 18  1  0  0  0  0
 19  8  1  0  0  0  0
 20 19  1  6  0  0  0
 20 22  1  0  0  0  0
 21 24  1  0  0  0  0
 21 20  1  0  0  0  0
 22 23  2  0  0  0  0
 24 25  1  0  0  0  0
 25 26  1  0  0  0  0
 26 23  1  0  0  0  0
 26 27  1  1  0  0  0
 27 28  3  0  0  0  0
M  END
>  <MODEL>
9

>  <REMARK>
 VINA RESULT:      -7.6      2.916      7.497
  Name = 
  6 active torsions:
  status: ('A' for Active; 'I' for Inactive)
    1  A    between atoms: C_5  and  O_12
    2  A    between atoms: C_8  and  C_20
    3  A    between atoms: O_12  and  C_13
    4  A    between atoms: C_20  and  C_21
    5  A    between atoms: C_21  and  C_22
    6  A    between atoms: C_23  and  C_26
                            x       y       z     vdW  Elec       q    Type
                         _______ _______ _______ _____ _____    ______ ____

>  <TORSDO>
F 6

$$$$
