=
 OpenBabel11062415513D

 44 48  0  0  1  0  0  0  0  0999 V2000
  188.7200  179.2880  141.8740 O   0  0  0  0  0  1  0  0  0  0  0  0
  188.3790  177.1400  140.3560 C   0  0  2  0  0  3  0  0  0  0  0  0
  188.4620  177.8960  141.7270 C   0  0  1  0  0  0  0  0  0  0  0  0
  190.8870  177.9600  141.0060 C   0  0  2  0  0  3  0  0  0  0  0  0
  191.3190  177.7860  142.4500 C   0  0  0  0  0  0  0  0  0  0  0  0
  190.9530  176.5180  143.1270 C   0  0  0  0  0  2  0  0  0  0  0  0
  189.6860  177.1220  141.1320 C   0  0  2  0  0  0  0  0  0  0  0  0
  190.0170  175.8920  142.0650 C   0  0  0  0  0  2  0  0  0  0  0  0
  191.6530  178.7660  143.0820 O   0  0  0  0  0  0  0  0  0  0  0  0
  193.0720  175.9700  135.9170 C   0  0  0  0  0  1  0  0  0  0  0  0
  192.8750  176.0170  137.4010 C   0  0  0  0  0  0  0  0  0  0  0  0
  193.3890  177.2740  140.3570 C   0  0  0  0  0  3  0  0  0  0  0  0
  194.2560  176.5070  139.6610 C   0  0  0  0  0  3  0  0  0  0  0  0
  191.6460  176.1690  137.8380 C   0  0  0  0  0  0  0  0  0  0  0  0
  191.2830  176.7020  139.1680 C   0  0  0  0  0  3  0  0  0  0  0  0
  191.9730  177.3720  140.1160 C   0  0  0  0  0  0  0  0  0  0  0  0
  190.5720  175.7860  137.0530 O   0  0  0  0  0  1  0  0  0  0  0  0
  195.0290  174.9900  137.9490 O   0  0  0  0  0  1  0  0  0  0  0  0
  193.9220  175.6390  138.4390 C   0  0  2  0  0  3  0  0  0  0  0  0
  187.1340  178.0020  138.4790 O   0  0  0  0  0  0  0  0  0  0  0  0
  189.0730  179.0500  138.9180 O   0  0  0  0  0  1  0  0  0  0  0  0
  188.2200  178.0660  139.1390 C   0  0  0  0  0  0  0  0  0  0  0  0
  188.2170  177.2610  142.9360 O   0  0  0  0  0  0  0  0  0  0  0  0
  185.2050  178.3240  144.4900 C   0  0  0  0  0  0  0  0  0  0  0  0
  187.7900  177.8320  145.1900 C   0  0  0  0  0  3  0  0  0  0  0  0
  186.0180  177.9270  143.4940 C   0  0  0  0  0  3  0  0  0  0  0  0
  186.9010  178.2100  146.1950 C   0  0  0  0  0  3  0  0  0  0  0  0
  185.5600  178.4460  145.7730 C   0  0  0  0  0  0  0  0  0  0  0  0
  183.8460  178.6080  144.3880 C   0  0  0  0  0  0  0  0  0  0  0  0
  187.3780  177.6870  143.8920 C   0  0  0  0  0  0  0  0  0  0  0  0
  183.4570  178.9030  145.6620 N   0  0  0  0  0  0  0  0  0  0  0  0
  184.4940  178.8340  146.5130 N   0  0  0  0  0  2  0  0  0  0  0  0
  183.0250  178.2480  143.2460 N   0  0  0  0  0  2  0  0  0  0  0  0
  182.1890  179.1930  142.4740 C   0  0  2  0  0  3  0  0  0  0  0  0
  180.8250  179.4210  143.1330 C   0  0  0  0  0  0  0  0  0  0  0  0
  180.4260  178.6210  143.9920 O   0  0  0  0  0  0  0  0  0  0  0  0
  180.0730  180.6080  142.8370 N   0  0  0  0  0  1  0  0  0  0  0  0
  182.0790  178.8820  141.0210 N   0  0  0  0  0  2  0  0  0  0  0  0
  183.7680  177.6280  139.3690 O   0  0  0  0  0  0  0  0  0  0  0  0
  183.4830  178.9940  139.9750 P   0  0  2  0  0  0  0  0  0  0  0  0
  184.9680  179.5860  140.6320 O   0  0  0  0  0  1  0  0  0  0  0  0
  182.8500  180.1120  138.6670 C   0  0  0  0  0  2  0  0  0  0  0  0
  181.3530  182.0800  138.1550 C   0  0  0  0  0  1  0  0  0  0  0  0
  181.4240  180.6950  138.7720 C   0  0  0  0  0  2  0  0  0  0  0  0
  2 22  1  6  0  0  0
  2  7  1  0  0  0  0
  2  3  1  0  0  0  0
  3  1  1  6  0  0  0
  3 23  1  0  0  0  0
  4 16  1  6  0  0  0
  4  7  1  0  0  0  0
  4  5  1  0  0  0  0
  5  9  2  0  0  0  0
  5  6  1  0  0  0  0
  7  3  1  0  0  0  0
  7  8  1  1  0  0  0
  8  6  1  0  0  0  0
 10 11  1  0  0  0  0
 11 14  2  0  0  0  0
 11 19  1  0  0  0  0
 13 12  2  0  0  0  0
 14 15  1  0  0  0  0
 15 16  2  0  0  0  0
 16 12  1  0  0  0  0
 17 14  1  0  0  0  0
 19 18  1  6  0  0  0
 19 13  1  0  0  0  0
 20 22  2  0  0  0  0
 21 22  1  0  0  0  0
 23 30  1  0  0  0  0
 24 28  1  0  0  0  0
 25 27  1  0  0  0  0
 26 30  1  0  0  0  0
 26 24  2  0  0  0  0
 28 27  2  0  0  0  0
 28 32  1  0  0  0  0
 29 24  1  0  0  0  0
 29 31  2  0  0  0  0
 30 25  2  0  0  0  0
 31 32  1  0  0  0  0
 33 29  1  0  0  0  0
 34 38  1  6  0  0  0
 34 35  1  0  0  0  0
 34 33  1  0  0  0  0
 35 36  2  0  0  0  0
 37 35  1  0  0  0  0
 40 39  2  6  0  0  0
 40 41  1  0  0  0  0
 40 38  1  0  0  0  0
 42 44  1  0  0  0  0
 42 40  1  0  0  0  0
 43 44  1  0  0  0  0
M  END
>  <MODEL>
1

>  <REMARK>
 VINA RESULT:      -8.1      0.000      0.000
  Name = 
  11 active torsions:
  status: ('A' for Active; 'I' for Inactive)
    1  A    between atoms: C_8  and  C_29
    2  A    between atoms: C_10  and  C_44
    3  A    between atoms: C_11  and  O_43
    4  A    between atoms: C_13  and  C_30
    5  A    between atoms: P_19  and  N_24
    6  A    between atoms: P_19  and  C_29
    7  A    between atoms: N_24  and  C_25
    8  A    between atoms: C_25  and  C_26
    9  A    between atoms: C_25  and  N_37
   10  A    between atoms: C_31  and  N_37
   11  A    between atoms: C_32  and  O_43
                            x       y       z     vdW  Elec       q    Type
                         _______ _______ _______ _____ _____    ______ ____

>  <TORSDO>
F 11

$$$$
=
 OpenBabel11062415513D

 44 48  0  0  1  0  0  0  0  0999 V2000
  188.8470  176.3570  140.2910 O   0  0  0  0  0  1  0  0  0  0  0  0
  188.6920  178.8370  141.2170 C   0  0  2  0  0  3  0  0  0  0  0  0
  189.4560  177.5930  140.6470 C   0  0  1  0  0  0  0  0  0  0  0  0
  188.8280  176.7460  142.9480 C   0  0  2  0  0  3  0  0  0  0  0  0
  190.1490  176.0050  143.0340 C   0  0  0  0  0  0  0  0  0  0  0  0
  191.3920  176.8160  143.0380 C   0  0  0  0  0  2  0  0  0  0  0  0
  189.3700  177.8790  142.1830 C   0  0  2  0  0  0  0  0  0  0  0  0
  190.8140  178.2170  142.7240 C   0  0  0  0  0  2  0  0  0  0  0  0
  190.1700  174.8180  142.7850 O   0  0  0  0  0  0  0  0  0  0  0  0
  184.8690  177.9480  147.1320 C   0  0  0  0  0  1  0  0  0  0  0  0
  186.1710  178.0620  146.4030 C   0  0  0  0  0  0  0  0  0  0  0  0
  189.1420  177.0140  145.5900 C   0  0  0  0  0  3  0  0  0  0  0  0
  188.7980  177.5860  146.7640 C   0  0  0  0  0  3  0  0  0  0  0  0
  186.1210  178.1240  145.0920 C   0  0  0  0  0  0  0  0  0  0  0  0
  187.2340  177.7680  144.1870 C   0  0  0  0  0  3  0  0  0  0  0  0
  188.3920  177.0950  144.3640 C   0  0  0  0  0  0  0  0  0  0  0  0
  184.9800  178.5820  144.4560 O   0  0  0  0  0  1  0  0  0  0  0  0
  187.4540  178.8210  148.3450 O   0  0  0  0  0  1  0  0  0  0  0  0
  187.5140  178.3800  147.0460 C   0  0  2  0  0  3  0  0  0  0  0  0
  186.4310  179.2730  141.9320 O   0  0  0  0  0  1  0  0  0  0  0  0
  186.6460  178.4440  139.8540 O   0  0  0  0  0  0  0  0  0  0  0  0
  187.1680  178.7800  141.0200 C   0  0  0  0  0  0  0  0  0  0  0  0
  190.8170  177.6240  140.3750 O   0  0  0  0  0  0  0  0  0  0  0  0
  191.2490  176.4470  137.0510 C   0  0  0  0  0  0  0  0  0  0  0  0
  192.7450  176.7730  139.3020 C   0  0  0  0  0  3  0  0  0  0  0  0
  190.6020  176.9500  138.1180 C   0  0  0  0  0  3  0  0  0  0  0  0
  193.3800  176.2900  138.1590 C   0  0  0  0  0  3  0  0  0  0  0  0
  192.5510  176.1480  137.0090 C   0  0  0  0  0  0  0  0  0  0  0  0
  190.7110  176.2160  135.7880 C   0  0  0  0  0  0  0  0  0  0  0  0
  191.4150  177.0980  139.2950 C   0  0  0  0  0  0  0  0  0  0  0  0
  191.7600  175.7670  135.0410 N   0  0  0  0  0  0  0  0  0  0  0  0
  192.8820  175.6950  135.7760 N   0  0  0  0  0  2  0  0  0  0  0  0
  189.4350  176.7450  135.3410 N   0  0  0  0  0  2  0  0  0  0  0  0
  188.1160  176.1560  135.6610 C   0  0  2  0  0  3  0  0  0  0  0  0
  187.2320  177.1250  136.4520 C   0  0  0  0  0  0  0  0  0  0  0  0
  186.2220  176.6920  137.0260 O   0  0  0  0  0  0  0  0  0  0  0  0
  187.6340  178.4930  136.6170 N   0  0  0  0  0  1  0  0  0  0  0  0
  188.1730  174.8010  136.2750 N   0  0  0  0  0  2  0  0  0  0  0  0
  187.8520  172.3880  135.1650 O   0  0  0  0  0  1  0  0  0  0  0  0
  187.0630  173.5410  135.7660 P   0  0  2  0  0  0  0  0  0  0  0  0
  185.8030  173.9400  134.6530 O   0  0  0  0  0  0  0  0  0  0  0  0
  186.3720  173.0180  137.3820 C   0  0  0  0  0  2  0  0  0  0  0  0
  184.0650  172.0370  137.0800 C   0  0  0  0  0  1  0  0  0  0  0  0
  184.8630  173.1850  137.6690 C   0  0  0  0  0  2  0  0  0  0  0  0
  2 22  1  1  0  0  0
  2  7  1  0  0  0  0
  3  1  1  6  0  0  0
  3  2  1  0  0  0  0
  3  7  1  0  0  0  0
  4  5  1  0  0  0  0
  4 16  1  1  0  0  0
  5  6  1  0  0  0  0
  7  8  1  1  0  0  0
  7  4  1  0  0  0  0
  8  6  1  0  0  0  0
  9  5  2  0  0  0  0
 11 19  1  0  0  0  0
 11 10  1  0  0  0  0
 12 13  2  0  0  0  0
 13 19  1  0  0  0  0
 14 11  2  0  0  0  0
 15 16  2  0  0  0  0
 15 14  1  0  0  0  0
 16 12  1  0  0  0  0
 17 14  1  0  0  0  0
 19 18  1  1  0  0  0
 21 22  2  0  0  0  0
 22 20  1  0  0  0  0
 23  3  1  0  0  0  0
 24 26  1  0  0  0  0
 26 30  2  0  0  0  0
 27 25  2  0  0  0  0
 28 24  2  0  0  0  0
 28 27  1  0  0  0  0
 29 24  1  0  0  0  0
 30 25  1  0  0  0  0
 30 23  1  0  0  0  0
 31 32  1  0  0  0  0
 31 29  2  0  0  0  0
 32 28  1  0  0  0  0
 33 29  1  0  0  0  0
 34 33  1  1  0  0  0
 34 38  1  0  0  0  0
 34 35  1  0  0  0  0
 35 37  1  0  0  0  0
 35 36  2  0  0  0  0
 39 40  1  0  0  0  0
 40 41  2  6  0  0  0
 40 38  1  0  0  0  0
 40 42  1  0  0  0  0
 42 44  1  0  0  0  0
 43 44  1  0  0  0  0
M  END
>  <MODEL>
2

>  <REMARK>
 VINA RESULT:      -7.9      4.492      8.383
  Name = 
  11 active torsions:
  status: ('A' for Active; 'I' for Inactive)
    1  A    between atoms: C_8  and  C_29
    2  A    between atoms: C_10  and  C_44
    3  A    between atoms: C_11  and  O_43
    4  A    between atoms: C_13  and  C_30
    5  A    between atoms: P_19  and  N_24
    6  A    between atoms: P_19  and  C_29
    7  A    between atoms: N_24  and  C_25
    8  A    between atoms: C_25  and  C_26
    9  A    between atoms: C_25  and  N_37
   10  A    between atoms: C_31  and  N_37
   11  A    between atoms: C_32  and  O_43
                            x       y       z     vdW  Elec       q    Type
                         _______ _______ _______ _____ _____    ______ ____

>  <TORSDO>
F 11

$$$$
=
 OpenBabel11062415513D

 44 48  0  0  1  0  0  0  0  0999 V2000
  188.7270  176.3270  140.6470 O   0  0  0  0  0  1  0  0  0  0  0  0
  188.4750  178.8280  141.4940 C   0  0  2  0  0  3  0  0  0  0  0  0
  189.2700  177.6190  140.8900 C   0  0  1  0  0  0  0  0  0  0  0  0
  188.9570  176.8330  143.2750 C   0  0  2  0  0  3  0  0  0  0  0  0
  190.3340  176.1960  143.2440 C   0  0  0  0  0  0  0  0  0  0  0  0
  191.5020  177.0960  143.0840 C   0  0  0  0  0  2  0  0  0  0  0  0
  189.3240  177.9670  142.4150 C   0  0  2  0  0  0  0  0  0  0  0  0
  190.7860  178.4350  142.7840 C   0  0  0  0  0  2  0  0  0  0  0  0
  190.4220  175.0040  143.0370 O   0  0  0  0  0  0  0  0  0  0  0  0
  190.3770  178.2670  148.8020 C   0  0  0  0  0  1  0  0  0  0  0  0
  189.5730  177.6230  147.7160 C   0  0  0  0  0  0  0  0  0  0  0  0
  187.4100  177.6780  145.2860 C   0  0  0  0  0  3  0  0  0  0  0  0
  187.1220  177.7380  146.6040 C   0  0  0  0  0  3  0  0  0  0  0  0
  190.2360  177.0130  146.7610 C   0  0  0  0  0  0  0  0  0  0  0  0
  189.7100  176.7420  145.4060 C   0  0  0  0  0  3  0  0  0  0  0  0
  188.6460  177.2110  144.7160 C   0  0  0  0  0  0  0  0  0  0  0  0
  191.5150  176.5340  146.9920 O   0  0  0  0  0  1  0  0  0  0  0  0
  187.4810  177.5620  148.9850 O   0  0  0  0  0  1  0  0  0  0  0  0
  188.0700  177.3820  147.7580 C   0  0  2  0  0  3  0  0  0  0  0  0
  186.3340  178.5890  142.5780 O   0  0  0  0  0  1  0  0  0  0  0  0
  186.2690  178.7810  140.3400 O   0  0  0  0  0  0  0  0  0  0  0  0
  186.9480  178.6490  141.4650 C   0  0  0  0  0  0  0  0  0  0  0  0
  190.5880  177.7400  140.4710 O   0  0  0  0  0  0  0  0  0  0  0  0
  190.8060  176.6320  137.1030 C   0  0  0  0  0  0  0  0  0  0  0  0
  192.4180  176.8230  139.2880 C   0  0  0  0  0  3  0  0  0  0  0  0
  190.2350  177.1380  138.2110 C   0  0  0  0  0  3  0  0  0  0  0  0
  192.9750  176.3390  138.1050 C   0  0  0  0  0  3  0  0  0  0  0  0
  192.0880  176.2690  136.9920 C   0  0  0  0  0  0  0  0  0  0  0  0
  190.1990  176.4620  135.8620 C   0  0  0  0  0  0  0  0  0  0  0  0
  191.1080  177.2140  139.3510 C   0  0  0  0  0  0  0  0  0  0  0  0
  191.1880  175.9820  135.0550 N   0  0  0  0  0  0  0  0  0  0  0  0
  192.3380  175.8340  135.7330 N   0  0  0  0  0  2  0  0  0  0  0  0
  188.9330  177.0670  135.4880 N   0  0  0  0  0  2  0  0  0  0  0  0
  187.6090  176.6370  135.9900 C   0  0  2  0  0  3  0  0  0  0  0  0
  186.8770  177.7690  136.7170 C   0  0  0  0  0  0  0  0  0  0  0  0
  185.8240  177.5190  137.3220 O   0  0  0  0  0  0  0  0  0  0  0  0
  187.4650  179.0770  136.7870 N   0  0  0  0  0  1  0  0  0  0  0  0
  187.6230  175.3690  136.7720 N   0  0  0  0  0  2  0  0  0  0  0  0
  185.3630  174.6220  135.5520 O   0  0  0  0  0  0  0  0  0  0  0  0
  186.5070  174.0700  136.3890 P   0  0  2  0  0  0  0  0  0  0  0  0
  185.8080  173.1630  137.6840 O   0  0  0  0  0  1  0  0  0  0  0  0
  187.5640  173.0060  135.3360 C   0  0  0  0  0  2  0  0  0  0  0  0
  187.9620  170.5190  135.5080 C   0  0  0  0  0  1  0  0  0  0  0  0
  187.0770  171.6010  134.9190 C   0  0  0  0  0  2  0  0  0  0  0  0
  2 22  1  1  0  0  0
  2  7  1  0  0  0  0
  3  1  1  6  0  0  0
  3  2  1  0  0  0  0
  3  7  1  0  0  0  0
  4 16  1  1  0  0  0
  5  4  1  0  0  0  0
  6  5  1  0  0  0  0
  7  8  1  1  0  0  0
  7  4  1  0  0  0  0
  8  6  1  0  0  0  0
  9  5  2  0  0  0  0
 11 19  1  0  0  0  0
 11 10  1  0  0  0  0
 12 13  2  0  0  0  0
 13 19  1  0  0  0  0
 14 17  1  0  0  0  0
 14 11  2  0  0  0  0
 15 14  1  0  0  0  0
 16 12  1  0  0  0  0
 16 15  2  0  0  0  0
 19 18  1  1  0  0  0
 21 22  2  0  0  0  0
 22 20  1  0  0  0  0
 23  3  1  0  0  0  0
 24 26  1  0  0  0  0
 25 30  1  0  0  0  0
 26 30  2  0  0  0  0
 27 25  2  0  0  0  0
 28 24  2  0  0  0  0
 28 27  1  0  0  0  0
 29 24  1  0  0  0  0
 30 23  1  0  0  0  0
 31 32  1  0  0  0  0
 31 29  2  0  0  0  0
 32 28  1  0  0  0  0
 33 29  1  0  0  0  0
 34 33  1  1  0  0  0
 34 35  1  0  0  0  0
 34 38  1  0  0  0  0
 35 37  1  0  0  0  0
 35 36  2  0  0  0  0
 40 39  2  6  0  0  0
 40 38  1  0  0  0  0
 40 41  1  0  0  0  0
 42 40  1  0  0  0  0
 44 42  1  0  0  0  0
 44 43  1  0  0  0  0
M  END
>  <MODEL>
3

>  <REMARK>
 VINA RESULT:      -7.9      4.452      8.362
  Name = 
  11 active torsions:
  status: ('A' for Active; 'I' for Inactive)
    1  A    between atoms: C_8  and  C_29
    2  A    between atoms: C_10  and  C_44
    3  A    between atoms: C_11  and  O_43
    4  A    between atoms: C_13  and  C_30
    5  A    between atoms: P_19  and  N_24
    6  A    between atoms: P_19  and  C_29
    7  A    between atoms: N_24  and  C_25
    8  A    between atoms: C_25  and  C_26
    9  A    between atoms: C_25  and  N_37
   10  A    between atoms: C_31  and  N_37
   11  A    between atoms: C_32  and  O_43
                            x       y       z     vdW  Elec       q    Type
                         _______ _______ _______ _____ _____    ______ ____

>  <TORSDO>
F 11

$$$$
=
 OpenBabel11062415513D

 44 48  0  0  1  0  0  0  0  0999 V2000
  188.6560  176.3700  140.5310 O   0  0  0  0  0  1  0  0  0  0  0  0
  188.3620  178.8650  141.3840 C   0  0  2  0  0  3  0  0  0  0  0  0
  189.1770  177.6720  140.7770 C   0  0  1  0  0  0  0  0  0  0  0  0
  188.8800  176.8740  143.1600 C   0  0  2  0  0  3  0  0  0  0  0  0
  190.2680  176.2620  143.1260 C   0  0  0  0  0  0  0  0  0  0  0  0
  191.4200  177.1830  142.9670 C   0  0  0  0  0  2  0  0  0  0  0  0
  189.2270  178.0170  142.3020 C   0  0  2  0  0  0  0  0  0  0  0  0
  190.6810  178.5100  142.6700 C   0  0  0  0  0  2  0  0  0  0  0  0
  190.3770  175.0720  142.9170 O   0  0  0  0  0  0  0  0  0  0  0  0
  190.2810  178.2440  148.7080 C   0  0  0  0  0  1  0  0  0  0  0  0
  189.4770  177.6190  147.6110 C   0  0  0  0  0  0  0  0  0  0  0  0
  187.3310  177.7210  145.1690 C   0  0  0  0  0  3  0  0  0  0  0  0
  187.0350  177.7720  146.4860 C   0  0  0  0  0  3  0  0  0  0  0  0
  190.1390  177.0090  146.6560 C   0  0  0  0  0  0  0  0  0  0  0  0
  189.6180  176.7560  145.2950 C   0  0  0  0  0  3  0  0  0  0  0  0
  188.5650  177.2430  144.6030 C   0  0  0  0  0  0  0  0  0  0  0  0
  191.4100  176.5130  146.8910 O   0  0  0  0  0  1  0  0  0  0  0  0
  187.3760  177.5720  148.8670 O   0  0  0  0  0  1  0  0  0  0  0  0
  187.9710  177.3950  147.6420 C   0  0  2  0  0  3  0  0  0  0  0  0
  186.2220  178.6200  142.4700 O   0  0  0  0  0  1  0  0  0  0  0  0
  186.1600  178.7490  140.2270 O   0  0  0  0  0  0  0  0  0  0  0  0
  186.8380  178.6590  141.3570 C   0  0  0  0  0  0  0  0  0  0  0  0
  190.4920  177.8160  140.3560 O   0  0  0  0  0  0  0  0  0  0  0  0
  192.8330  176.1930  138.2340 C   0  0  0  0  0  0  0  0  0  0  0  0
  190.3160  177.2180  138.0750 C   0  0  0  0  0  3  0  0  0  0  0  0
  192.3500  176.7420  139.3630 C   0  0  0  0  0  3  0  0  0  0  0  0
  190.8450  176.6060  136.9400 C   0  0  0  0  0  3  0  0  0  0  0  0
  192.1620  176.0800  137.0830 C   0  0  0  0  0  0  0  0  0  0  0  0
  194.0740  175.5850  138.0720 C   0  0  0  0  0  0  0  0  0  0  0  0
  191.0240  177.2850  139.2450 C   0  0  0  0  0  0  0  0  0  0  0  0
  194.0760  175.1360  136.7840 N   0  0  0  0  0  0  0  0  0  0  0  0
  192.9290  175.4520  136.1600 N   0  0  0  0  0  2  0  0  0  0  0  0
  194.9350  175.1930  139.1730 N   0  0  0  0  0  2  0  0  0  0  0  0
  196.1400  174.3420  139.0440 C   0  0  2  0  0  3  0  0  0  0  0  0
  197.3840  175.0190  139.6270 C   0  0  0  0  0  0  0  0  0  0  0  0
  197.4470  175.2190  140.8500 O   0  0  0  0  0  0  0  0  0  0  0  0
  198.5050  175.3150  138.7810 N   0  0  0  0  0  1  0  0  0  0  0  0
  196.3710  173.7970  137.6780 N   0  0  0  0  0  2  0  0  0  0  0  0
  195.4630  171.3940  138.4230 O   0  0  0  0  0  1  0  0  0  0  0  0
  196.3570  172.0660  137.3920 P   0  0  2  0  0  0  0  0  0  0  0  0
  197.8600  171.2120  137.3770 O   0  0  0  0  0  0  0  0  0  0  0  0
  195.5430  171.9940  135.7510 C   0  0  0  0  0  2  0  0  0  0  0  0
  193.0220  171.8720  135.6680 C   0  0  0  0  0  1  0  0  0  0  0  0
  194.3130  171.0850  135.5370 C   0  0  0  0  0  2  0  0  0  0  0  0
  2 22  1  1  0  0  0
  2  7  1  0  0  0  0
  3  1  1  6  0  0  0
  3  2  1  0  0  0  0
  3  7  1  0  0  0  0
  4 16  1  1  0  0  0
  5  4  1  0  0  0  0
  6  5  1  0  0  0  0
  7  8  1  1  0  0  0
  7  4  1  0  0  0  0
  8  6  1  0  0  0  0
  9  5  2  0  0  0  0
 11 19  1  0  0  0  0
 11 10  1  0  0  0  0
 12 13  2  0  0  0  0
 13 19  1  0  0  0  0
 14 17  1  0  0  0  0
 14 11  2  0  0  0  0
 15 14  1  0  0  0  0
 16 12  1  0  0  0  0
 16 15  2  0  0  0  0
 19 18  1  1  0  0  0
 21 22  2  0  0  0  0
 22 20  1  0  0  0  0
 23  3  1  0  0  0  0
 24 26  1  0  0  0  0
 25 30  1  0  0  0  0
 27 28  1  0  0  0  0
 27 25  2  0  0  0  0
 28 24  2  0  0  0  0
 29 24  1  0  0  0  0
 29 33  1  0  0  0  0
 30 26  2  0  0  0  0
 30 23  1  0  0  0  0
 31 29  2  0  0  0  0
 32 31  1  0  0  0  0
 32 28  1  0  0  0  0
 34 38  1  6  0  0  0
 34 33  1  0  0  0  0
 34 35  1  0  0  0  0
 35 36  2  0  0  0  0
 37 35  1  0  0  0  0
 40 41  2  6  0  0  0
 40 38  1  0  0  0  0
 40 39  1  0  0  0  0
 42 40  1  0  0  0  0
 44 43  1  0  0  0  0
 44 42  1  0  0  0  0
M  END
>  <MODEL>
4

>  <REMARK>
 VINA RESULT:      -7.8      5.829     10.852
  Name = 
  11 active torsions:
  status: ('A' for Active; 'I' for Inactive)
    1  A    between atoms: C_8  and  C_29
    2  A    between atoms: C_10  and  C_44
    3  A    between atoms: C_11  and  O_43
    4  A    between atoms: C_13  and  C_30
    5  A    between atoms: P_19  and  N_24
    6  A    between atoms: P_19  and  C_29
    7  A    between atoms: N_24  and  C_25
    8  A    between atoms: C_25  and  C_26
    9  A    between atoms: C_25  and  N_37
   10  A    between atoms: C_31  and  N_37
   11  A    between atoms: C_32  and  O_43
                            x       y       z     vdW  Elec       q    Type
                         _______ _______ _______ _____ _____    ______ ____

>  <TORSDO>
F 11

$$$$
=
 OpenBabel11062415513D

 44 48  0  0  1  0  0  0  0  0999 V2000
  188.1440  176.3650  140.7450 O   0  0  0  0  0  1  0  0  0  0  0  0
  188.0240  178.8870  141.5570 C   0  0  2  0  0  3  0  0  0  0  0  0
  188.7260  177.6560  140.8870 C   0  0  1  0  0  0  0  0  0  0  0  0
  188.7100  176.9270  143.3100 C   0  0  2  0  0  3  0  0  0  0  0  0
  190.0660  176.2740  143.1210 C   0  0  0  0  0  0  0  0  0  0  0  0
  191.2130  177.1570  142.7920 C   0  0  0  0  0  2  0  0  0  0  0  0
  188.9750  178.0380  142.3840 C   0  0  2  0  0  0  0  0  0  0  0  0
  190.4760  178.4970  142.5530 C   0  0  0  0  0  2  0  0  0  0  0  0
  190.1170  175.0770  142.9330 O   0  0  0  0  0  0  0  0  0  0  0  0
  190.8160  178.1500  148.6670 C   0  0  0  0  0  1  0  0  0  0  0  0
  189.8360  177.6210  147.6660 C   0  0  0  0  0  0  0  0  0  0  0  0
  187.4830  177.9690  145.4460 C   0  0  0  0  0  3  0  0  0  0  0  0
  187.3300  178.0650  146.7850 C   0  0  0  0  0  3  0  0  0  0  0  0
  190.3200  176.9290  146.6610 C   0  0  0  0  0  0  0  0  0  0  0  0
  189.6390  176.7340  145.3640 C   0  0  0  0  0  3  0  0  0  0  0  0
  188.5880  177.3410  144.7700 C   0  0  0  0  0  0  0  0  0  0  0  0
  191.5390  176.2830  146.7790 O   0  0  0  0  0  1  0  0  0  0  0  0
  187.8810  177.8390  149.1240 O   0  0  0  0  0  1  0  0  0  0  0  0
  188.3250  177.5830  147.8500 C   0  0  2  0  0  3  0  0  0  0  0  0
  186.0740  178.2540  142.8270 O   0  0  0  0  0  1  0  0  0  0  0  0
  185.6630  179.2630  140.8620 O   0  0  0  0  0  0  0  0  0  0  0  0
  186.5040  178.7250  141.7260 C   0  0  0  0  0  0  0  0  0  0  0  0
  189.9810  177.7510  140.3010 O   0  0  0  0  0  0  0  0  0  0  0  0
  191.7700  176.4860  137.5060 C   0  0  0  0  0  0  0  0  0  0  0  0
  189.4060  177.7380  138.0080 C   0  0  0  0  0  3  0  0  0  0  0  0
  191.5270  176.7870  138.7950 C   0  0  0  0  0  3  0  0  0  0  0  0
  189.6860  177.3740  136.6920 C   0  0  0  0  0  3  0  0  0  0  0  0
  190.9320  176.7130  136.4890 C   0  0  0  0  0  0  0  0  0  0  0  0
  192.8890  175.8270  137.0060 C   0  0  0  0  0  0  0  0  0  0  0  0
  190.2770  177.4590  139.0260 C   0  0  0  0  0  0  0  0  0  0  0  0
  192.6500  175.7020  135.6690 N   0  0  0  0  0  0  0  0  0  0  0  0
  191.4740  176.2600  135.3330 N   0  0  0  0  0  2  0  0  0  0  0  0
  193.8430  175.1060  137.8300 N   0  0  0  0  0  2  0  0  0  0  0  0
  195.0350  174.3930  137.3180 C   0  0  2  0  0  3  0  0  0  0  0  0
  195.3250  173.1170  138.1140 C   0  0  0  0  0  0  0  0  0  0  0  0
  195.5990  173.2060  139.3210 O   0  0  0  0  0  0  0  0  0  0  0  0
  195.1710  171.8320  137.4940 N   0  0  0  0  0  1  0  0  0  0  0  0
  196.2420  175.2480  137.1440 N   0  0  0  0  0  2  0  0  0  0  0  0
  197.0600  173.6210  135.1840 O   0  0  0  0  0  0  0  0  0  0  0  0
  197.3370  174.9840  135.7980 P   0  0  2  0  0  0  0  0  0  0  0  0
  199.0390  175.0890  136.0760 O   0  0  0  0  0  1  0  0  0  0  0  0
  196.7780  176.2900  134.6390 C   0  0  0  0  0  2  0  0  0  0  0  0
  196.1740  178.7420  134.5940 C   0  0  0  0  0  1  0  0  0  0  0  0
  195.7820  177.3710  135.1140 C   0  0  0  0  0  2  0  0  0  0  0  0
  2 22  1  1  0  0  0
  2  7  1  0  0  0  0
  3  1  1  6  0  0  0
  3  2  1  0  0  0  0
  3  7  1  0  0  0  0
  4 16  1  1  0  0  0
  5  4  1  0  0  0  0
  6  5  1  0  0  0  0
  7  8  1  1  0  0  0
  7  4  1  0  0  0  0
  8  6  1  0  0  0  0
  9  5  2  0  0  0  0
 11 19  1  0  0  0  0
 11 10  1  0  0  0  0
 12 13  2  0  0  0  0
 13 19  1  0  0  0  0
 14 17  1  0  0  0  0
 14 11  2  0  0  0  0
 15 14  1  0  0  0  0
 16 15  2  0  0  0  0
 16 12  1  0  0  0  0
 19 18  1  1  0  0  0
 21 22  2  0  0  0  0
 22 20  1  0  0  0  0
 23  3  1  0  0  0  0
 24 26  1  0  0  0  0
 25 30  1  0  0  0  0
 26 30  2  0  0  0  0
 27 25  2  0  0  0  0
 28 27  1  0  0  0  0
 28 24  2  0  0  0  0
 29 24  1  0  0  0  0
 29 33  1  0  0  0  0
 30 23  1  0  0  0  0
 31 29  2  0  0  0  0
 32 31  1  0  0  0  0
 32 28  1  0  0  0  0
 34 38  1  1  0  0  0
 34 33  1  0  0  0  0
 34 35  1  0  0  0  0
 35 36  2  0  0  0  0
 37 35  1  0  0  0  0
 40 39  2  6  0  0  0
 40 41  1  0  0  0  0
 40 38  1  0  0  0  0
 42 44  1  0  0  0  0
 42 40  1  0  0  0  0
 43 44  1  0  0  0  0
M  END
>  <MODEL>
5

>  <REMARK>
 VINA RESULT:      -7.6      5.604     10.615
  Name = 
  11 active torsions:
  status: ('A' for Active; 'I' for Inactive)
    1  A    between atoms: C_8  and  C_29
    2  A    between atoms: C_10  and  C_44
    3  A    between atoms: C_11  and  O_43
    4  A    between atoms: C_13  and  C_30
    5  A    between atoms: P_19  and  N_24
    6  A    between atoms: P_19  and  C_29
    7  A    between atoms: N_24  and  C_25
    8  A    between atoms: C_25  and  C_26
    9  A    between atoms: C_25  and  N_37
   10  A    between atoms: C_31  and  N_37
   11  A    between atoms: C_32  and  O_43
                            x       y       z     vdW  Elec       q    Type
                         _______ _______ _______ _____ _____    ______ ____

>  <TORSDO>
F 11

$$$$
=
 OpenBabel11062415513D

 44 48  0  0  1  0  0  0  0  0999 V2000
  191.1670  175.1650  138.3870 O   0  0  0  0  0  1  0  0  0  0  0  0
  193.1550  176.8170  137.7920 C   0  0  2  0  0  3  0  0  0  0  0  0
  191.7950  176.0920  137.5080 C   0  0  1  0  0  0  0  0  0  0  0  0
  193.4110  174.1550  137.3100 C   0  0  2  0  0  3  0  0  0  0  0  0
  192.5720  173.5720  136.1890 C   0  0  0  0  0  0  0  0  0  0  0  0
  192.4600  174.3580  134.9360 C   0  0  0  0  0  2  0  0  0  0  0  0
  193.1520  175.5550  136.9450 C   0  0  2  0  0  0  0  0  0  0  0  0
  193.1400  175.6780  135.3710 C   0  0  0  0  0  2  0  0  0  0  0  0
  191.7920  172.6790  136.4460 O   0  0  0  0  0  0  0  0  0  0  0  0
  197.7050  170.1570  136.8660 C   0  0  0  0  0  1  0  0  0  0  0  0
  197.0840  171.4660  137.2400 C   0  0  0  0  0  0  0  0  0  0  0  0
  195.9620  174.4440  136.5620 C   0  0  0  0  0  3  0  0  0  0  0  0
  197.2620  174.0890  136.6510 C   0  0  0  0  0  3  0  0  0  0  0  0
  195.8930  171.4290  137.7920 C   0  0  2  0  0  3  0  0  0  0  0  0
  194.9290  172.5500  137.7970 C   0  0  0  0  0  3  0  0  0  0  0  0
  194.8500  173.7060  137.1020 C   0  0  0  0  0  0  0  0  0  0  0  0
  195.4670  170.2940  138.4610 O   0  0  0  0  0  1  0  0  0  0  0  0
  199.1800  172.7320  137.2060 O   0  0  0  0  0  1  0  0  0  0  0  0
  197.8110  172.8040  137.2870 C   0  0  0  0  0  0  0  0  0  0  0  0
  192.8500  177.2920  140.1370 O   0  0  0  0  0  1  0  0  0  0  0  0
  194.6050  175.9810  139.6360 O   0  0  0  0  0  0  0  0  0  0  0  0
  193.6020  176.7550  139.2620 C   0  0  0  0  0  0  0  0  0  0  0  0
  191.0400  176.3570  136.3740 O   0  0  0  0  0  0  0  0  0  0  0  0
  187.7530  177.2650  137.3670 C   0  0  0  0  0  0  0  0  0  0  0  0
  188.9840  176.1020  135.2350 C   0  0  0  0  0  3  0  0  0  0  0  0
  189.0870  177.1220  137.4660 C   0  0  0  0  0  3  0  0  0  0  0  0
  187.6070  176.3050  135.1640 C   0  0  0  0  0  3  0  0  0  0  0  0
  187.0170  176.9250  136.3040 C   0  0  0  0  0  0  0  0  0  0  0  0
  186.9100  177.8500  138.3080 C   0  0  0  0  0  0  0  0  0  0  0  0
  189.7070  176.4930  136.3310 C   0  0  0  0  0  0  0  0  0  0  0  0
  185.6740  177.8170  137.7330 N   0  0  0  0  0  0  0  0  0  0  0  0
  185.7160  177.2340  136.5240 N   0  0  0  0  0  2  0  0  0  0  0  0
  187.3740  178.6560  139.4230 N   0  0  0  0  0  2  0  0  0  0  0  0
  187.1120  178.3570  140.8490 C   0  0  2  0  0  3  0  0  0  0  0  0
  185.7390  178.8690  141.2970 C   0  0  0  0  0  0  0  0  0  0  0  0
  185.1250  179.6670  140.5740 O   0  0  0  0  0  0  0  0  0  0  0  0
  185.1290  178.3430  142.4860 N   0  0  0  0  0  1  0  0  0  0  0  0
  188.2050  178.7560  141.7780 N   0  0  0  0  0  2  0  0  0  0  0  0
  190.6100  178.2830  142.8490 O   0  0  0  0  0  1  0  0  0  0  0  0
  189.3590  177.5700  142.3620 P   0  0  2  0  0  0  0  0  0  0  0  0
  189.8660  176.3070  141.2970 O   0  0  0  0  0  0  0  0  0  0  0  0
  188.4540  176.8900  143.8050 C   0  0  0  0  0  2  0  0  0  0  0  0
  189.0700  177.0870  146.2450 C   0  0  0  0  0  1  0  0  0  0  0  0
  188.3160  177.7270  145.0950 C   0  0  0  0  0  2  0  0  0  0  0  0
  2 22  1  1  0  0  0
  3  2  1  0  0  0  0
  3  1  1  1  0  0  0
  4 16  1  6  0  0  0
  5  9  2  0  0  0  0
  5  4  1  0  0  0  0
  6  8  1  0  0  0  0
  6  5  1  0  0  0  0
  7  8  1  6  0  0  0
  7  4  1  0  0  0  0
  7  3  1  0  0  0  0
  7  2  1  0  0  0  0
 10 11  1  0  0  0  0
 11 19  2  0  0  0  0
 11 14  1  0  0  0  0
 12 13  2  0  0  0  0
 12 16  1  0  0  0  0
 13 19  1  0  0  0  0
 14 15  1  0  0  0  0
 14 17  1  1  0  0  0
 16 15  2  0  0  0  0
 18 19  1  0  0  0  0
 22 21  2  0  0  0  0
 22 20  1  0  0  0  0
 23  3  1  0  0  0  0
 24 26  1  0  0  0  0
 24 29  1  0  0  0  0
 25 30  1  0  0  0  0
 27 25  2  0  0  0  0
 27 28  1  0  0  0  0
 28 32  1  0  0  0  0
 28 24  2  0  0  0  0
 29 33  1  0  0  0  0
 30 23  1  0  0  0  0
 30 26  2  0  0  0  0
 31 29  2  0  0  0  0
 32 31  1  0  0  0  0
 34 33  1  6  0  0  0
 34 35  1  0  0  0  0
 34 38  1  0  0  0  0
 35 37  1  0  0  0  0
 36 35  2  0  0  0  0
 38 40  1  0  0  0  0
 40 41  2  6  0  0  0
 40 39  1  0  0  0  0
 40 42  1  0  0  0  0
 42 44  1  0  0  0  0
 44 43  1  0  0  0  0
M  END
>  <MODEL>
6

>  <REMARK>
 VINA RESULT:      -7.5      3.402      7.232
  Name = 
  11 active torsions:
  status: ('A' for Active; 'I' for Inactive)
    1  A    between atoms: C_8  and  C_29
    2  A    between atoms: C_10  and  C_44
    3  A    between atoms: C_11  and  O_43
    4  A    between atoms: C_13  and  C_30
    5  A    between atoms: P_19  and  N_24
    6  A    between atoms: P_19  and  C_29
    7  A    between atoms: N_24  and  C_25
    8  A    between atoms: C_25  and  C_26
    9  A    between atoms: C_25  and  N_37
   10  A    between atoms: C_31  and  N_37
   11  A    between atoms: C_32  and  O_43
                            x       y       z     vdW  Elec       q    Type
                         _______ _______ _______ _____ _____    ______ ____

>  <TORSDO>
F 11

$$$$
=
 OpenBabel11062415513D

 44 48  0  0  1  0  0  0  0  0999 V2000
  188.0600  175.4030  138.1520 O   0  0  0  0  0  1  0  0  0  0  0  0
  187.0800  175.1120  135.7040 C   0  0  2  0  0  3  0  0  0  0  0  0
  188.0880  175.6880  136.7580 C   0  0  1  0  0  0  0  0  0  0  0  0
  185.9750  176.9220  137.4040 C   0  0  2  0  0  3  0  0  0  0  0  0
  186.7970  178.1550  137.7310 C   0  0  0  0  0  0  0  0  0  0  0  0
  187.5280  178.8080  136.6170 C   0  0  0  0  0  2  0  0  0  0  0  0
  186.8310  176.4930  136.2880 C   0  0  2  0  0  0  0  0  0  0  0  0
  187.3080  177.7700  135.4900 C   0  0  0  0  0  2  0  0  0  0  0  0
  187.0830  178.3760  138.8890 O   0  0  0  0  0  0  0  0  0  0  0  0
  181.1460  180.2550  137.8370 C   0  0  0  0  0  1  0  0  0  0  0  0
  181.9330  179.0090  137.5770 C   0  0  0  0  0  0  0  0  0  0  0  0
  183.8730  177.1280  135.7640 C   0  0  0  0  0  3  0  0  0  0  0  0
  182.5520  177.3310  135.5640 C   0  0  0  0  0  3  0  0  0  0  0  0
  182.8830  178.7100  138.4340 C   0  0  2  0  0  3  0  0  0  0  0  0
  184.0450  177.8460  138.1380 C   0  0  0  0  0  3  0  0  0  0  0  0
  184.5850  177.3820  136.9890 C   0  0  0  0  0  0  0  0  0  0  0  0
  182.8260  179.1810  139.7340 O   0  0  0  0  0  1  0  0  0  0  0  0
  180.2910  178.0140  136.0590 O   0  0  0  0  0  1  0  0  0  0  0  0
  181.5610  177.9270  136.5730 C   0  0  0  0  0  0  0  0  0  0  0  0
  185.0020  173.9560  136.1030 O   0  0  0  0  0  0  0  0  0  0  0  0
  186.8640  172.7720  136.5250 O   0  0  0  0  0  1  0  0  0  0  0  0
  186.2690  173.9070  136.2080 C   0  0  0  0  0  0  0  0  0  0  0  0
  189.1590  176.4910  136.3910 O   0  0  0  0  0  0  0  0  0  0  0  0
  191.4470  176.9630  139.0670 C   0  0  0  0  0  0  0  0  0  0  0  0
  191.5190  176.3520  136.4150 C   0  0  0  0  0  3  0  0  0  0  0  0
  190.2560  176.9030  138.4460 C   0  0  0  0  0  3  0  0  0  0  0  0
  192.7270  176.3900  137.1100 C   0  0  0  0  0  3  0  0  0  0  0  0
  192.6290  176.7060  138.4960 C   0  0  0  0  0  0  0  0  0  0  0  0
  191.6670  177.2280  140.4160 C   0  0  0  0  0  0  0  0  0  0  0  0
  190.3270  176.5910  137.0440 C   0  0  0  0  0  0  0  0  0  0  0  0
  193.0170  177.1190  140.5750 N   0  0  0  0  0  0  0  0  0  0  0  0
  193.6200  176.8270  139.4110 N   0  0  0  0  0  2  0  0  0  0  0  0
  190.6260  177.2040  141.4270 N   0  0  0  0  0  2  0  0  0  0  0  0
  190.6900  177.9150  142.7240 C   0  0  2  0  0  3  0  0  0  0  0  0
  191.3700  177.0720  143.8070 C   0  0  0  0  0  0  0  0  0  0  0  0
  191.6790  177.6040  144.8840 O   0  0  0  0  0  0  0  0  0  0  0  0
  191.5420  175.6600  143.6150 N   0  0  0  0  0  1  0  0  0  0  0  0
  189.3960  178.4970  143.1780 N   0  0  0  0  0  2  0  0  0  0  0  0
  188.3360  176.0470  143.0210 O   0  0  0  0  0  1  0  0  0  0  0  0
  187.9920  177.4730  143.4190 P   0  0  2  0  0  0  0  0  0  0  0  0
  186.5130  177.8880  142.6270 O   0  0  0  0  0  0  0  0  0  0  0  0
  187.8100  177.5620  145.2410 C   0  0  0  0  0  2  0  0  0  0  0  0
  185.8670  178.8920  146.1540 C   0  0  0  0  0  1  0  0  0  0  0  0
  186.4060  177.5000  145.8830 C   0  0  0  0  0  2  0  0  0  0  0  0
  2 22  1  1  0  0  0
  2  7  1  0  0  0  0
  2  3  1  0  0  0  0
  3  1  1  1  0  0  0
  4 16  1  6  0  0  0
  4  5  1  0  0  0  0
  5  9  2  0  0  0  0
  6  5  1  0  0  0  0
  7  8  1  6  0  0  0
  7  3  1  0  0  0  0
  7  4  1  0  0  0  0
  8  6  1  0  0  0  0
 11 10  1  0  0  0  0
 11 14  1  0  0  0  0
 12 16  1  0  0  0  0
 13 12  2  0  0  0  0
 13 19  1  0  0  0  0
 14 17  1  1  0  0  0
 15 14  1  0  0  0  0
 16 15  2  0  0  0  0
 18 19  1  0  0  0  0
 19 11  2  0  0  0  0
 20 22  2  0  0  0  0
 22 21  1  0  0  0  0
 23  3  1  0  0  0  0
 23 30  1  0  0  0  0
 24 29  1  0  0  0  0
 25 30  2  0  0  0  0
 25 27  1  0  0  0  0
 26 24  2  0  0  0  0
 27 28  2  0  0  0  0
 28 24  1  0  0  0  0
 28 32  1  0  0  0  0
 29 31  2  0  0  0  0
 29 33  1  0  0  0  0
 30 26  1  0  0  0  0
 32 31  1  0  0  0  0
 34 33  1  6  0  0  0
 34 38  1  0  0  0  0
 34 35  1  0  0  0  0
 35 36  2  0  0  0  0
 37 35  1  0  0  0  0
 38 40  1  0  0  0  0
 39 40  1  0  0  0  0
 40 41  2  6  0  0  0
 40 42  1  0  0  0  0
 42 44  1  0  0  0  0
 44 43  1  0  0  0  0
M  END
>  <MODEL>
7

>  <REMARK>
 VINA RESULT:      -7.4      4.068      8.910
  Name = 
  11 active torsions:
  status: ('A' for Active; 'I' for Inactive)
    1  A    between atoms: C_8  and  C_29
    2  A    between atoms: C_10  and  C_44
    3  A    between atoms: C_11  and  O_43
    4  A    between atoms: C_13  and  C_30
    5  A    between atoms: P_19  and  N_24
    6  A    between atoms: P_19  and  C_29
    7  A    between atoms: N_24  and  C_25
    8  A    between atoms: C_25  and  C_26
    9  A    between atoms: C_25  and  N_37
   10  A    between atoms: C_31  and  N_37
   11  A    between atoms: C_32  and  O_43
                            x       y       z     vdW  Elec       q    Type
                         _______ _______ _______ _____ _____    ______ ____

>  <TORSDO>
F 11

$$$$
=
 OpenBabel11062415513D

 44 48  0  0  1  0  0  0  0  0999 V2000
  188.2340  176.3750  140.7450 O   0  0  0  0  0  1  0  0  0  0  0  0
  188.0270  178.8730  141.6120 C   0  0  2  0  0  3  0  0  0  0  0  0
  188.7720  177.6810  140.9170 C   0  0  1  0  0  0  0  0  0  0  0  0
  188.7720  176.8980  143.3240 C   0  0  2  0  0  3  0  0  0  0  0  0
  190.1490  176.2950  143.1260 C   0  0  0  0  0  0  0  0  0  0  0  0
  191.2670  177.2220  142.8220 C   0  0  0  0  0  2  0  0  0  0  0  0
  189.0030  178.0370  142.4240 C   0  0  2  0  0  0  0  0  0  0  0  0
  190.4870  178.5420  142.6100 C   0  0  0  0  0  2  0  0  0  0  0  0
  190.2410  175.1040  142.9110 O   0  0  0  0  0  0  0  0  0  0  0  0
  190.8210  178.1320  148.7000 C   0  0  0  0  0  1  0  0  0  0  0  0
  189.8700  177.5680  147.6910 C   0  0  0  0  0  0  0  0  0  0  0  0
  187.4940  177.8240  145.4820 C   0  0  0  0  0  3  0  0  0  0  0  0
  187.3390  177.8840  146.8230 C   0  0  0  0  0  3  0  0  0  0  0  0
  190.3900  176.9250  146.6710 C   0  0  0  0  0  0  0  0  0  0  0  0
  189.7160  176.7170  145.3710 C   0  0  0  0  0  3  0  0  0  0  0  0
  188.6310  177.2750  144.7920 C   0  0  0  0  0  0  0  0  0  0  0  0
  191.6440  176.3480  146.7730 O   0  0  0  0  0  1  0  0  0  0  0  0
  187.9100  177.6440  149.1560 O   0  0  0  0  0  1  0  0  0  0  0  0
  188.3640  177.4400  147.8760 C   0  0  2  0  0  3  0  0  0  0  0  0
  185.7520  179.0570  140.8330 O   0  0  0  0  0  0  0  0  0  0  0  0
  186.0330  177.8840  142.7280 O   0  0  0  0  0  1  0  0  0  0  0  0
  186.5130  178.6570  141.7710 C   0  0  0  0  0  0  0  0  0  0  0  0
  190.0250  177.8310  140.3400 O   0  0  0  0  0  0  0  0  0  0  0  0
  191.8170  176.2460  137.7150 C   0  0  0  0  0  0  0  0  0  0  0  0
  189.6140  177.8170  138.0110 C   0  0  0  0  0  3  0  0  0  0  0  0
  191.5280  176.6200  138.9740 C   0  0  0  0  0  3  0  0  0  0  0  0
  189.9330  177.3740  136.7290 C   0  0  0  0  0  3  0  0  0  0  0  0
  191.0900  176.5480  136.6340 C   0  0  0  0  0  0  0  0  0  0  0  0
  192.8700  175.4270  137.3140 C   0  0  0  0  0  0  0  0  0  0  0  0
  190.3670  177.4590  139.0970 C   0  0  0  0  0  0  0  0  0  0  0  0
  192.7090  175.2910  135.9660 N   0  0  0  0  0  0  0  0  0  0  0  0
  191.6450  175.9870  135.5320 N   0  0  0  0  0  2  0  0  0  0  0  0
  193.6580  174.6150  138.2230 N   0  0  0  0  0  2  0  0  0  0  0  0
  194.9690  174.0110  137.8970 C   0  0  2  0  0  3  0  0  0  0  0  0
  194.8580  172.5030  137.6480 C   0  0  0  0  0  0  0  0  0  0  0  0
  195.0850  171.7180  138.5810 O   0  0  0  0  0  0  0  0  0  0  0  0
  194.3890  172.0150  136.3830 N   0  0  0  0  0  1  0  0  0  0  0  0
  196.0660  174.3570  138.8430 N   0  0  0  0  0  2  0  0  0  0  0  0
  197.7370  175.4550  137.0660 O   0  0  0  0  0  0  0  0  0  0  0  0
  197.7160  174.5290  138.2730 P   0  0  2  0  0  0  0  0  0  0  0  0
  198.6040  173.1080  137.8490 O   0  0  0  0  0  1  0  0  0  0  0  0
  198.4860  175.3850  139.7000 C   0  0  0  0  0  2  0  0  0  0  0  0
  198.3740  175.2530  142.2190 C   0  0  0  0  0  1  0  0  0  0  0  0
  197.6480  175.6920  140.9610 C   0  0  0  0  0  2  0  0  0  0  0  0
  2 22  1  1  0  0  0
  2  7  1  0  0  0  0
  3  1  1  6  0  0  0
  3  2  1  0  0  0  0
  3  7  1  0  0  0  0
  4 16  1  1  0  0  0
  5  4  1  0  0  0  0
  6  5  1  0  0  0  0
  7  8  1  1  0  0  0
  7  4  1  0  0  0  0
  8  6  1  0  0  0  0
  9  5  2  0  0  0  0
 11 19  1  0  0  0  0
 11 10  1  0  0  0  0
 12 13  2  0  0  0  0
 13 19  1  0  0  0  0
 14 17  1  0  0  0  0
 14 11  2  0  0  0  0
 15 14  1  0  0  0  0
 16 15  2  0  0  0  0
 16 12  1  0  0  0  0
 19 18  1  1  0  0  0
 20 22  2  0  0  0  0
 22 21  1  0  0  0  0
 23  3  1  0  0  0  0
 24 26  1  0  0  0  0
 25 30  1  0  0  0  0
 26 30  2  0  0  0  0
 27 25  2  0  0  0  0
 28 27  1  0  0  0  0
 28 24  2  0  0  0  0
 29 24  1  0  0  0  0
 29 33  1  0  0  0  0
 30 23  1  0  0  0  0
 31 29  2  0  0  0  0
 32 31  1  0  0  0  0
 32 28  1  0  0  0  0
 34 35  1  1  0  0  0
 34 33  1  0  0  0  0
 34 38  1  0  0  0  0
 35 36  2  0  0  0  0
 37 35  1  0  0  0  0
 40 39  2  6  0  0  0
 40 38  1  0  0  0  0
 40 42  1  0  0  0  0
 41 40  1  0  0  0  0
 42 44  1  0  0  0  0
 44 43  1  0  0  0  0
M  END
>  <MODEL>
8

>  <REMARK>
 VINA RESULT:      -7.4      5.615     10.804
  Name = 
  11 active torsions:
  status: ('A' for Active; 'I' for Inactive)
    1  A    between atoms: C_8  and  C_29
    2  A    between atoms: C_10  and  C_44
    3  A    between atoms: C_11  and  O_43
    4  A    between atoms: C_13  and  C_30
    5  A    between atoms: P_19  and  N_24
    6  A    between atoms: P_19  and  C_29
    7  A    between atoms: N_24  and  C_25
    8  A    between atoms: C_25  and  C_26
    9  A    between atoms: C_25  and  N_37
   10  A    between atoms: C_31  and  N_37
   11  A    between atoms: C_32  and  O_43
                            x       y       z     vdW  Elec       q    Type
                         _______ _______ _______ _____ _____    ______ ____

>  <TORSDO>
F 11

$$$$
=
 OpenBabel11062415513D

 44 48  0  0  1  0  0  0  0  0999 V2000
  188.8540  179.2710  141.9670 O   0  0  0  0  0  1  0  0  0  0  0  0
  188.4640  177.1800  140.3830 C   0  0  2  0  0  3  0  0  0  0  0  0
  188.5570  177.8930  141.7760 C   0  0  1  0  0  0  0  0  0  0  0  0
  190.9890  177.9060  141.0780 C   0  0  2  0  0  3  0  0  0  0  0  0
  191.4020  177.6760  142.5190 C   0  0  0  0  0  0  0  0  0  0  0  0
  190.9930  176.3990  143.1550 C   0  0  0  0  0  2  0  0  0  0  0  0
  189.7630  177.1010  141.1690 C   0  0  2  0  0  0  0  0  0  0  0  0
  190.0490  175.8340  142.0670 C   0  0  0  0  0  2  0  0  0  0  0  0
  191.7590  178.6260  143.1830 O   0  0  0  0  0  0  0  0  0  0  0  0
  193.1610  176.0020  135.9510 C   0  0  0  0  0  1  0  0  0  0  0  0
  192.9520  176.0110  137.4340 C   0  0  0  0  0  0  0  0  0  0  0  0
  193.4760  177.1660  140.4300 C   0  0  0  0  0  3  0  0  0  0  0  0
  194.3270  176.3950  139.7180 C   0  0  0  0  0  3  0  0  0  0  0  0
  191.7240  176.1850  137.8650 C   0  0  0  0  0  0  0  0  0  0  0  0
  191.3650  176.6900  139.2070 C   0  0  0  0  0  3  0  0  0  0  0  0
  192.0660  177.3120  140.1800 C   0  0  0  0  0  0  0  0  0  0  0  0
  190.6460  175.8570  137.0610 O   0  0  0  0  0  1  0  0  0  0  0  0
  195.0710  174.9070  137.9690 O   0  0  0  0  0  1  0  0  0  0  0  0
  193.9790  175.5730  138.4690 C   0  0  2  0  0  3  0  0  0  0  0  0
  189.3930  178.7600  138.8160 O   0  0  0  0  0  1  0  0  0  0  0  0
  187.2570  178.1700  138.4430 O   0  0  0  0  0  0  0  0  0  0  0  0
  188.3440  178.1460  139.1930 C   0  0  0  0  0  0  0  0  0  0  0  0
  188.2820  177.2290  142.9630 O   0  0  0  0  0  0  0  0  0  0  0  0
  185.2470  178.5470  144.2570 C   0  0  0  0  0  0  0  0  0  0  0  0
  187.4460  177.2290  145.1750 C   0  0  0  0  0  3  0  0  0  0  0  0
  186.1830  178.2520  143.3360 C   0  0  0  0  0  3  0  0  0  0  0  0
  186.4320  177.5240  146.0860 C   0  0  0  0  0  3  0  0  0  0  0  0
  185.3020  178.2050  145.5480 C   0  0  0  0  0  0  0  0  0  0  0  0
  184.0320  179.1870  144.0290 C   0  0  0  0  0  0  0  0  0  0  0  0
  187.3360  177.5680  143.8530 C   0  0  0  0  0  0  0  0  0  0  0  0
  183.4140  179.2000  145.2450 N   0  0  0  0  0  0  0  0  0  0  0  0
  184.1840  178.6290  146.1860 N   0  0  0  0  0  2  0  0  0  0  0  0
  183.4550  179.3880  142.7130 N   0  0  0  0  0  2  0  0  0  0  0  0
  183.3350  178.3410  141.6730 C   0  0  2  0  0  3  0  0  0  0  0  0
  184.0990  178.7110  140.3980 C   0  0  0  0  0  0  0  0  0  0  0  0
  184.9010  179.6570  140.4250 O   0  0  0  0  0  0  0  0  0  0  0  0
  183.9670  177.9010  139.2200 N   0  0  0  0  0  1  0  0  0  0  0  0
  181.9410  177.8950  141.3980 N   0  0  0  0  0  2  0  0  0  0  0  0
  179.5510  178.2700  140.2570 O   0  0  0  0  0  1  0  0  0  0  0  0
  180.7340  179.0350  140.8290 P   0  0  2  0  0  0  0  0  0  0  0  0
  181.1950  180.2230  139.6610 O   0  0  0  0  0  0  0  0  0  0  0  0
  180.2340  179.8230  142.4070 C   0  0  0  0  0  2  0  0  0  0  0  0
  179.9850  178.2200  144.3430 C   0  0  0  0  0  1  0  0  0  0  0  0
  179.2470  179.1030  143.3530 C   0  0  0  0  0  2  0  0  0  0  0  0
  2 22  1  6  0  0  0
  2  7  1  0  0  0  0
  2  3  1  0  0  0  0
  3  1  1  1  0  0  0
  3 23  1  0  0  0  0
  4 16  1  6  0  0  0
  4  7  1  0  0  0  0
  4  5  1  0  0  0  0
  5  6  1  0  0  0  0
  5  9  2  0  0  0  0
  7  3  1  0  0  0  0
  7  8  1  1  0  0  0
  8  6  1  0  0  0  0
 10 11  1  0  0  0  0
 11 14  2  0  0  0  0
 11 19  1  0  0  0  0
 13 12  2  0  0  0  0
 14 15  1  0  0  0  0
 15 16  2  0  0  0  0
 16 12  1  0  0  0  0
 17 14  1  0  0  0  0
 19 18  1  6  0  0  0
 19 13  1  0  0  0  0
 20 22  1  0  0  0  0
 21 22  2  0  0  0  0
 23 30  1  0  0  0  0
 24 28  1  0  0  0  0
 25 27  1  0  0  0  0
 26 30  1  0  0  0  0
 26 24  2  0  0  0  0
 28 27  2  0  0  0  0
 28 32  1  0  0  0  0
 29 24  1  0  0  0  0
 29 31  2  0  0  0  0
 30 25  2  0  0  0  0
 31 32  1  0  0  0  0
 33 29  1  0  0  0  0
 34 35  1  6  0  0  0
 34 33  1  0  0  0  0
 35 36  2  0  0  0  0
 37 35  1  0  0  0  0
 38 34  1  0  0  0  0
 39 40  1  0  0  0  0
 40 41  2  6  0  0  0
 40 38  1  0  0  0  0
 40 42  1  0  0  0  0
 42 44  1  0  0  0  0
 44 43  1  0  0  0  0
M  END
>  <MODEL>
9

>  <REMARK>
 VINA RESULT:      -7.3      1.482      2.402
  Name = 
  11 active torsions:
  status: ('A' for Active; 'I' for Inactive)
    1  A    between atoms: C_8  and  C_29
    2  A    between atoms: C_10  and  C_44
    3  A    between atoms: C_11  and  O_43
    4  A    between atoms: C_13  and  C_30
    5  A    between atoms: P_19  and  N_24
    6  A    between atoms: P_19  and  C_29
    7  A    between atoms: N_24  and  C_25
    8  A    between atoms: C_25  and  C_26
    9  A    between atoms: C_25  and  N_37
   10  A    between atoms: C_31  and  N_37
   11  A    between atoms: C_32  and  O_43
                            x       y       z     vdW  Elec       q    Type
                         _______ _______ _______ _____ _____    ______ ____

>  <TORSDO>
F 11

$$$$
