=
 OpenBabel11062415093D

 55 62  0  0  1  0  0  0  0  0999 V2000
  190.5900  177.7310  141.3320 C   0  0  1  0  0  3  0  0  0  0  0  0
  188.8590  177.0010  138.8060 C   0  0  0  0  0  0  0  0  0  0  0  0
  190.3090  177.0750  139.1380 C   0  0  2  0  0  3  0  0  0  0  0  0
  191.0530  175.9420  139.5560 O   0  0  0  0  0  0  0  0  0  0  0  0
  188.0480  177.9330  139.3740 C   0  0  0  0  0  3  0  0  0  0  0  0
  190.1980  176.5230  140.5110 C   0  0  1  0  0  3  0  0  0  0  0  0
  189.2980  178.5660  141.5920 C   0  0  0  0  0  2  0  0  0  0  0  0
  188.5440  179.0380  140.3170 C   0  0  0  0  0  2  0  0  0  0  0  0
  187.9350  177.1310  134.5940 C   0  0  0  0  0  2  0  0  0  0  0  0
  189.3520  175.3690  136.8960 C   0  0  0  0  0  0  0  0  0  0  0  0
  188.3220  176.0510  137.7650 C   0  0  2  0  0  3  0  0  0  0  0  0
  190.4010  174.7350  137.3710 C   0  0  0  0  0  3  0  0  0  0  0  0
  189.2070  175.1370  135.4130 C   0  0  2  0  0  3  0  0  0  0  0  0
  190.4170  174.2680  135.0920 C   0  0  0  0  0  2  0  0  0  0  0  0
  189.2990  176.4500  134.6560 C   0  0  0  0  0  2  0  0  0  0  0  0
  187.5510  177.7790  135.9170 C   0  0  0  0  0  2  0  0  0  0  0  0
  187.2080  176.7290  136.9740 C   0  0  1  0  0  3  0  0  0  0  0  0
  191.0720  174.1030  136.3450 O   0  0  0  0  0  0  0  0  0  0  0  0
  186.5820  173.8730  136.6600 C   0  0  0  0  0  2  0  0  0  0  0  0
  185.8010  176.2160  137.1370 C   0  0  0  0  0  0  0  0  0  0  0  0
  184.7010  177.1760  137.4030 C   0  0  0  0  0  0  0  0  0  0  0  0
  182.3130  177.8150  137.3070 C   0  0  0  0  0  1  0  0  0  0  0  0
  183.7290  173.2520  136.5910 C   0  0  0  0  0  3  0  0  0  0  0  0
  184.0780  174.5340  136.7370 C   0  0  0  0  0  0  0  0  0  0  0  0
  183.4180  176.8350  137.1580 C   0  0  0  0  0  0  0  0  0  0  0  0
  186.0580  172.4590  136.7040 C   0  0  0  0  0  3  0  0  0  0  0  0
  184.7510  172.1820  136.6350 C   0  0  0  0  0  3  0  0  0  0  0  0
  183.0990  175.5300  136.7560 O   0  0  0  0  0  0  0  0  0  0  0  0
  184.9980  178.4390  137.9290 O   0  0  0  0  0  1  0  0  0  0  0  0
  185.4980  174.9110  136.8920 C   0  0  0  0  0  0  0  0  0  0  0  0
  191.3230  177.3540  142.6510 C   0  0  0  0  0  0  0  0  0  0  0  0
  191.8710  178.4850  143.2100 F   0  0  0  0  0  0  0  0  0  0  0  0
  192.3990  176.5140  142.3670 F   0  0  0  0  0  0  0  0  0  0  0  0
  191.2110  176.1710  144.7690 F   0  0  0  0  0  0  0  0  0  0  0  0
  190.4340  176.7200  143.7640 C   0  0  1  0  0  3  0  0  0  0  0  0
  189.4040  177.6620  144.4040 C   0  0  0  0  0  2  0  0  0  0  0  0
  188.0300  177.0000  144.5710 C   0  0  0  0  0  2  0  0  0  0  0  0
  184.4470  179.5680  144.5130 C   0  0  2  0  0  3  0  0  0  0  0  0
  187.0360  177.9180  145.3010 C   0  0  2  0  0  3  0  0  0  0  0  0
  184.9360  178.2730  143.8390 C   0  0  2  0  0  3  0  0  0  0  0  0
  186.2040  178.6230  147.5390 O   0  0  0  0  0  0  0  0  0  0  0  0
  184.6320  177.9980  146.1030 C   0  0  1  0  0  3  0  0  0  0  0  0
  187.3010  178.1110  146.8210 C   0  0  1  0  0  3  0  0  0  0  0  0
  185.5700  177.5340  145.0020 C   0  0  2  0  0  3  0  0  0  0  0  0
  185.1960  177.7760  147.3850 O   0  0  0  0  0  0  0  0  0  0  0  0
  184.3540  179.3630  145.9000 O   0  0  0  0  0  0  0  0  0  0  0  0
  183.0720  179.9760  143.9820 C   0  0  0  0  0  2  0  0  0  0  0  0
  182.2240  178.8710  144.0020 O   0  0  0  0  0  1  0  0  0  0  0  0
  185.8520  178.5010  142.6260 C   0  0  0  0  0  2  0  0  0  0  0  0
  185.0390  178.9550  141.4210 C   0  0  0  0  0  2  0  0  0  0  0  0
  183.9500  177.9180  141.1440 C   0  0  0  0  0  1  0  0  0  0  0  0
  188.1490  177.0920  147.6070 C   0  0  0  0  0  2  0  0  0  0  0  0
  190.6500  177.1100  147.5740 O   0  0  0  0  0  0  0  0  0  0  0  0
  189.4950  178.6750  148.7950 O   0  0  0  0  0  1  0  0  0  0  0  0
  189.4560  177.6530  148.0490 C   0  0  0  0  0  0  0  0  0  0  0  0
  1  7  1  0  0  0  0
  1 31  1  1  0  0  0
  2  5  2  0  0  0  0
  3  2  1  6  0  0  0
  3  4  1  0  0  0  0
  3  6  1  0  0  0  0
  5  8  1  0  0  0  0
  6  4  1  6  0  0  0
  6  1  1  0  0  0  0
  8  7  1  0  0  0  0
  9 15  1  0  0  0  0
  9 16  1  0  0  0  0
 10 12  2  0  0  0  0
 10 11  1  0  0  0  0
 11  2  1  6  0  0  0
 13 15  1  6  0  0  0
 13 10  1  0  0  0  0
 14 13  1  0  0  0  0
 14 18  1  0  0  0  0
 16 17  1  0  0  0  0
 17 20  1  6  0  0  0
 17 11  1  0  0  0  0
 18 12  1  0  0  0  0
 19 26  1  0  0  0  0
 19 30  1  0  0  0  0
 20 21  1  0  0  0  0
 21 29  1  0  0  0  0
 23 27  1  0  0  0  0
 23 24  2  0  0  0  0
 24 28  1  0  0  0  0
 24 30  1  0  0  0  0
 25 22  1  0  0  0  0
 25 21  2  0  0  0  0
 27 26  2  0  0  0  0
 28 25  1  0  0  0  0
 30 20  2  0  0  0  0
 31 32  1  0  0  0  0
 31 35  1  0  0  0  0
 33 31  1  0  0  0  0
 35 36  1  0  0  0  0
 35 34  1  1  0  0  0
 36 37  1  0  0  0  0
 38 47  1  6  0  0  0
 38 46  1  0  0  0  0
 39 37  1  1  0  0  0
 39 43  1  0  0  0  0
 40 49  1  6  0  0  0
 40 38  1  0  0  0  0
 40 44  1  0  0  0  0
 42 46  1  6  0  0  0
 42 45  1  0  0  0  0
 43 41  1  0  0  0  0
 43 52  1  1  0  0  0
 44 39  1  0  0  0  0
 44 42  1  0  0  0  0
 45 41  1  0  0  0  0
 47 48  1  0  0  0  0
 50 49  1  0  0  0  0
 51 50  1  0  0  0  0
 52 55  1  0  0  0  0
 53 55  2  0  0  0  0
 55 54  1  0  0  0  0
M  END
>  <MODEL>
1

>  <REMARK>
 VINA RESULT:      -8.7      0.000      0.000
  Name = 
  12 active torsions:
  status: ('A' for Active; 'I' for Inactive)
    1  A    between atoms: C_1  and  C_3
    2  A    between atoms: C_1  and  C_25
    3  A    between atoms: C_4  and  C_27
    4  A    between atoms: C_5  and  C_45
    5  A    between atoms: C_6  and  C_28
    6  A    between atoms: C_6  and  C_48
    7  A    between atoms: C_13  and  C_19
    8  A    between atoms: C_13  and  C_31
    9  A    between atoms: C_17  and  C_22
   10  A    between atoms: C_25  and  C_48
   11  A    between atoms: C_34  and  C_39
   12  A    between atoms: C_39  and  C_47
                            x       y       z     vdW  Elec       q    Type
                         _______ _______ _______ _____ _____    ______ ____

>  <TORSDO>
F 12

$$$$
=
 OpenBabel11062415093D

 55 62  0  0  1  0  0  0  0  0999 V2000
  183.8400  178.9910  141.8500 C   0  0  1  0  0  3  0  0  0  0  0  0
  182.3140  178.4020  139.1600 C   0  0  0  0  0  0  0  0  0  0  0  0
  183.4040  179.3150  139.6080 C   0  0  2  0  0  3  0  0  0  0  0  0
  184.7760  178.9900  139.4630 O   0  0  0  0  0  0  0  0  0  0  0  0
  181.3130  178.1550  140.0460 C   0  0  0  0  0  3  0  0  0  0  0  0
  184.0810  178.3440  140.5040 C   0  0  1  0  0  3  0  0  0  0  0  0
  182.4650  178.4800  142.3810 C   0  0  0  0  0  2  0  0  0  0  0  0
  181.2490  178.7620  141.4550 C   0  0  0  0  0  2  0  0  0  0  0  0
  179.7220  175.8020  136.8940 C   0  0  0  0  0  2  0  0  0  0  0  0
  181.2630  178.6360  136.8370 C   0  0  0  0  0  0  0  0  0  0  0  0
  182.2230  177.9000  137.7410 C   0  0  2  0  0  3  0  0  0  0  0  0
  181.2530  179.9430  136.6960 C   0  0  0  0  0  3  0  0  0  0  0  0
  180.3540  177.9780  135.8310 C   0  0  2  0  0  3  0  0  0  0  0  0
  179.7620  179.1690  135.0870 C   0  0  0  0  0  2  0  0  0  0  0  0
  179.2500  177.2070  136.5320 C   0  0  0  0  0  2  0  0  0  0  0  0
  180.6580  175.7970  138.0960 C   0  0  0  0  0  2  0  0  0  0  0  0
  182.0230  176.3880  137.7410 C   0  0  1  0  0  3  0  0  0  0  0  0
  180.3650  180.3020  135.7040 O   0  0  0  0  0  0  0  0  0  0  0  0
  181.7010  173.4740  137.5040 C   0  0  0  0  0  3  0  0  0  0  0  0
  183.1380  175.5190  137.2210 C   0  0  0  0  0  0  0  0  0  0  0  0
  184.4440  176.1360  136.8770 C   0  0  0  0  0  0  0  0  0  0  0  0
  186.8950  175.9930  136.5740 C   0  0  0  0  0  1  0  0  0  0  0  0
  184.1620  172.0220  136.8980 C   0  0  0  0  0  3  0  0  0  0  0  0
  184.2420  173.3520  137.0120 C   0  0  1  0  0  3  0  0  0  0  0  0
  185.5610  175.3820  136.8030 C   0  0  0  0  0  0  0  0  0  0  0  0
  181.7120  172.0080  137.1500 C   0  0  0  0  0  3  0  0  0  0  0  0
  182.8470  171.3420  136.9100 C   0  0  0  0  0  3  0  0  0  0  0  0
  185.4820  173.9890  136.9380 O   0  0  0  0  0  0  0  0  0  0  0  0
  184.5110  177.5090  136.6120 O   0  0  0  0  0  1  0  0  0  0  0  0
  183.0230  174.1620  137.2070 C   0  0  0  0  0  0  0  0  0  0  0  0
  184.9940  178.7320  142.8600 C   0  0  0  0  0  0  0  0  0  0  0  0
  184.5650  177.8580  143.8310 F   0  0  0  0  0  0  0  0  0  0  0  0
  185.3070  179.9150  143.5290 F   0  0  0  0  0  0  0  0  0  0  0  0
  186.9140  178.9760  141.3920 F   0  0  0  0  0  0  0  0  0  0  0  0
  186.2890  178.1000  142.2640 C   0  0  1  0  0  3  0  0  0  0  0  0
  187.3220  177.6160  143.2910 C   0  0  0  0  0  2  0  0  0  0  0  0
  188.4090  178.6630  143.5670 C   0  0  0  0  0  2  0  0  0  0  0  0
  191.2530  176.8500  146.4060 C   0  0  2  0  0  3  0  0  0  0  0  0
  189.7710  178.0120  143.8560 C   0  0  2  0  0  3  0  0  0  0  0  0
  189.7300  176.8940  146.1840 C   0  0  2  0  0  3  0  0  0  0  0  0
  191.7480  176.9130  142.8150 O   0  0  0  0  0  0  0  0  0  0  0  0
  190.8120  175.7860  144.4820 C   0  0  1  0  0  3  0  0  0  0  0  0
  190.6970  177.8290  142.6200 C   0  0  1  0  0  3  0  0  0  0  0  0
  189.6260  176.7140  144.6820 C   0  0  2  0  0  3  0  0  0  0  0  0
  191.2060  175.7440  143.1210 O   0  0  0  0  0  0  0  0  0  0  0  0
  191.8660  176.2340  145.3010 O   0  0  0  0  0  0  0  0  0  0  0  0
  191.6010  176.0600  147.6670 C   0  0  0  0  0  2  0  0  0  0  0  0
  192.9550  175.7350  147.6480 O   0  0  0  0  0  1  0  0  0  0  0  0
  189.0470  178.1500  146.7470 C   0  0  0  0  0  2  0  0  0  0  0  0
  187.7980  177.7720  147.5310 C   0  0  0  0  0  2  0  0  0  0  0  0
  186.5890  178.4560  146.8900 C   0  0  0  0  0  1  0  0  0  0  0  0
  190.1120  177.8240  141.1940 C   0  0  0  0  0  2  0  0  0  0  0  0
  192.3180  177.5970  140.0380 O   0  0  0  0  0  1  0  0  0  0  0  0
  190.6130  176.1280  139.5810 O   0  0  0  0  0  0  0  0  0  0  0  0
  191.0070  177.1530  140.2110 C   0  0  0  0  0  0  0  0  0  0  0  0
  1  7  1  0  0  0  0
  1 31  1  1  0  0  0
  2  5  2  0  0  0  0
  3  2  1  6  0  0  0
  3  6  1  0  0  0  0
  4  3  1  0  0  0  0
  5  8  1  0  0  0  0
  6  4  1  6  0  0  0
  6  1  1  0  0  0  0
  8  7  1  0  0  0  0
  9 16  1  0  0  0  0
 10 11  1  0  0  0  0
 11 17  1  0  0  0  0
 11  2  1  1  0  0  0
 12 10  2  0  0  0  0
 13 14  1  6  0  0  0
 13 15  1  0  0  0  0
 13 10  1  0  0  0  0
 14 18  1  0  0  0  0
 15  9  1  0  0  0  0
 17 20  1  6  0  0  0
 17 16  1  0  0  0  0
 18 12  1  0  0  0  0
 21 20  1  0  0  0  0
 22 25  1  0  0  0  0
 23 27  2  0  0  0  0
 24 23  1  6  0  0  0
 24 30  1  0  0  0  0
 25 21  2  0  0  0  0
 25 28  1  0  0  0  0
 26 19  2  0  0  0  0
 27 26  1  0  0  0  0
 28 24  1  0  0  0  0
 29 21  1  0  0  0  0
 30 20  2  0  0  0  0
 30 19  1  0  0  0  0
 31 33  1  0  0  0  0
 31 32  1  0  0  0  0
 35 34  1  6  0  0  0
 35 31  1  0  0  0  0
 35 36  1  0  0  0  0
 36 37  1  0  0  0  0
 38 47  1  1  0  0  0
 39 37  1  6  0  0  0
 39 44  1  0  0  0  0
 40 38  1  0  0  0  0
 40 49  1  6  0  0  0
 41 45  1  0  0  0  0
 42 45  1  6  0  0  0
 42 44  1  0  0  0  0
 42 46  1  0  0  0  0
 43 52  1  6  0  0  0
 43 41  1  0  0  0  0
 43 39  1  0  0  0  0
 44 40  1  0  0  0  0
 46 38  1  0  0  0  0
 48 47  1  0  0  0  0
 49 50  1  0  0  0  0
 51 50  1  0  0  0  0
 53 55  1  0  0  0  0
 54 55  2  0  0  0  0
 55 52  1  0  0  0  0
M  END
>  <MODEL>
2

>  <REMARK>
 VINA RESULT:      -8.5      2.893      6.843
  Name = 
  12 active torsions:
  status: ('A' for Active; 'I' for Inactive)
    1  A    between atoms: C_1  and  C_3
    2  A    between atoms: C_1  and  C_25
    3  A    between atoms: C_4  and  C_27
    4  A    between atoms: C_5  and  C_45
    5  A    between atoms: C_6  and  C_28
    6  A    between atoms: C_6  and  C_48
    7  A    between atoms: C_13  and  C_19
    8  A    between atoms: C_13  and  C_31
    9  A    between atoms: C_17  and  C_22
   10  A    between atoms: C_25  and  C_48
   11  A    between atoms: C_34  and  C_39
   12  A    between atoms: C_39  and  C_47
                            x       y       z     vdW  Elec       q    Type
                         _______ _______ _______ _____ _____    ______ ____

>  <TORSDO>
F 12

$$$$
=
 OpenBabel11062415093D

 55 62  0  0  1  0  0  0  0  0999 V2000
  190.6700  177.8780  141.6640 C   0  0  1  0  0  3  0  0  0  0  0  0
  189.5600  176.8490  138.9040 C   0  0  0  0  0  0  0  0  0  0  0  0
  190.8560  177.3690  139.4220 C   0  0  2  0  0  3  0  0  0  0  0  0
  191.8940  176.5140  139.8720 O   0  0  0  0  0  0  0  0  0  0  0  0
  188.4260  177.4020  139.4110 C   0  0  0  0  0  3  0  0  0  0  0  0
  190.7990  176.6880  140.7390 C   0  0  1  0  0  3  0  0  0  0  0  0
  189.1510  178.2090  141.8000 C   0  0  0  0  0  2  0  0  0  0  0  0
  188.4170  178.5180  140.4650 C   0  0  0  0  0  2  0  0  0  0  0  0
  189.5030  177.0480  134.5940 C   0  0  0  0  0  2  0  0  0  0  0  0
  190.8060  175.5080  137.1130 C   0  0  0  0  0  0  0  0  0  0  0  0
  189.4890  175.8740  137.7550 C   0  0  2  0  0  3  0  0  0  0  0  0
  191.8580  175.1030  137.7880 C   0  0  0  0  0  3  0  0  0  0  0  0
  191.0230  175.3510  135.6290 C   0  0  2  0  0  3  0  0  0  0  0  0
  192.4460  174.8080  135.5570 C   0  0  0  0  0  2  0  0  0  0  0  0
  190.9490  176.6980  134.9320 C   0  0  0  0  0  2  0  0  0  0  0  0
  188.7150  177.4990  135.8180 C   0  0  0  0  0  2  0  0  0  0  0  0
  188.4280  176.3290  136.7580 C   0  0  1  0  0  3  0  0  0  0  0  0
  192.8540  174.7140  136.9170 O   0  0  0  0  0  0  0  0  0  0  0  0
  185.7750  177.4260  137.3950 C   0  0  0  0  0  3  0  0  0  0  0  0
  187.1820  175.4950  136.6090 C   0  0  0  0  0  0  0  0  0  0  0  0
  187.3010  174.0750  136.1900 C   0  0  0  0  0  0  0  0  0  0  0  0
  186.4390  171.7570  136.1230 C   0  0  0  0  0  1  0  0  0  0  0  0
  183.6200  175.4550  137.4390 C   0  0  0  0  0  3  0  0  0  0  0  0
  184.8510  175.0180  137.1490 C   0  0  1  0  0  3  0  0  0  0  0  0
  186.2980  173.2030  136.4300 C   0  0  0  0  0  0  0  0  0  0  0  0
  184.3220  177.8150  137.5040 C   0  0  0  0  0  3  0  0  0  0  0  0
  183.3440  176.9030  137.5610 C   0  0  0  0  0  3  0  0  0  0  0  0
  185.0870  173.6530  136.9750 O   0  0  0  0  0  0  0  0  0  0  0  0
  188.4550  173.6450  135.5250 O   0  0  0  0  0  1  0  0  0  0  0  0
  185.9680  175.9720  137.0000 C   0  0  0  0  0  0  0  0  0  0  0  0
  191.3470  177.6460  143.0450 C   0  0  0  0  0  0  0  0  0  0  0  0
  191.6880  178.8590  143.5970 F   0  0  0  0  0  0  0  0  0  0  0  0
  192.5490  176.9610  142.8690 F   0  0  0  0  0  0  0  0  0  0  0  0
  191.2680  176.3240  145.0810 F   0  0  0  0  0  0  0  0  0  0  0  0
  190.4750  176.9230  144.1160 C   0  0  1  0  0  3  0  0  0  0  0  0
  189.4310  177.8010  144.8200 C   0  0  0  0  0  2  0  0  0  0  0  0
  188.1010  177.0670  145.0380 C   0  0  0  0  0  2  0  0  0  0  0  0
  184.4260  179.4610  144.5900 C   0  0  2  0  0  3  0  0  0  0  0  0
  187.0290  177.9890  145.6410 C   0  0  2  0  0  3  0  0  0  0  0  0
  185.0070  178.1450  144.0420 C   0  0  2  0  0  3  0  0  0  0  0  0
  186.0380  178.8120  147.7720 O   0  0  0  0  0  0  0  0  0  0  0  0
  184.5810  178.0170  146.3000 C   0  0  1  0  0  3  0  0  0  0  0  0
  187.1960  178.3000  147.1560 C   0  0  1  0  0  3  0  0  0  0  0  0
  185.6000  177.5190  145.2900 C   0  0  2  0  0  3  0  0  0  0  0  0
  185.0770  177.9130  147.6230 O   0  0  0  0  0  0  0  0  0  0  0  0
  184.2600  179.3510  145.9820 O   0  0  0  0  0  0  0  0  0  0  0  0
  183.0700  179.7680  143.9550 C   0  0  0  0  0  2  0  0  0  0  0  0
  182.2320  178.6650  144.1010 O   0  0  0  0  0  1  0  0  0  0  0  0
  185.9830  178.3270  142.8690 C   0  0  0  0  0  2  0  0  0  0  0  0
  185.4530  179.3670  141.8900 C   0  0  0  0  0  2  0  0  0  0  0  0
  184.6070  178.6580  140.8310 C   0  0  0  0  0  1  0  0  0  0  0  0
  188.0370  177.3780  148.0600 C   0  0  0  0  0  2  0  0  0  0  0  0
  190.5210  177.1580  147.8660 O   0  0  0  0  0  0  0  0  0  0  0  0
  189.5930  179.0470  148.7850 O   0  0  0  0  0  1  0  0  0  0  0  0
  189.4150  177.8980  148.2850 C   0  0  0  0  0  0  0  0  0  0  0  0
  1  7  1  0  0  0  0
  1 31  1  1  0  0  0
  2  5  2  0  0  0  0
  3  2  1  6  0  0  0
  3  4  1  0  0  0  0
  3  6  1  0  0  0  0
  5  8  1  0  0  0  0
  6  4  1  1  0  0  0
  6  1  1  0  0  0  0
  8  7  1  0  0  0  0
  9 15  1  0  0  0  0
  9 16  1  0  0  0  0
 10 11  1  0  0  0  0
 10 12  2  0  0  0  0
 11  2  1  1  0  0  0
 13 15  1  6  0  0  0
 13 10  1  0  0  0  0
 14 13  1  0  0  0  0
 14 18  1  0  0  0  0
 16 17  1  0  0  0  0
 17 20  1  6  0  0  0
 17 11  1  0  0  0  0
 18 12  1  0  0  0  0
 19 26  2  0  0  0  0
 20 30  2  0  0  0  0
 21 25  2  0  0  0  0
 21 20  1  0  0  0  0
 22 25  1  0  0  0  0
 23 27  2  0  0  0  0
 24 23  1  6  0  0  0
 25 28  1  0  0  0  0
 26 27  1  0  0  0  0
 28 24  1  0  0  0  0
 29 21  1  0  0  0  0
 30 24  1  0  0  0  0
 30 19  1  0  0  0  0
 31 32  1  0  0  0  0
 31 35  1  0  0  0  0
 33 31  1  0  0  0  0
 35 36  1  0  0  0  0
 35 34  1  1  0  0  0
 36 37  1  0  0  0  0
 38 47  1  6  0  0  0
 38 46  1  0  0  0  0
 39 37  1  1  0  0  0
 39 43  1  0  0  0  0
 40 49  1  6  0  0  0
 40 38  1  0  0  0  0
 40 44  1  0  0  0  0
 42 46  1  6  0  0  0
 42 45  1  0  0  0  0
 43 41  1  0  0  0  0
 43 52  1  1  0  0  0
 44 39  1  0  0  0  0
 44 42  1  0  0  0  0
 45 41  1  0  0  0  0
 47 48  1  0  0  0  0
 50 49  1  0  0  0  0
 51 50  1  0  0  0  0
 52 55  1  0  0  0  0
 53 55  2  0  0  0  0
 55 54  1  0  0  0  0
M  END
>  <MODEL>
3

>  <REMARK>
 VINA RESULT:      -8.5      1.138      2.175
  Name = 
  12 active torsions:
  status: ('A' for Active; 'I' for Inactive)
    1  A    between atoms: C_1  and  C_3
    2  A    between atoms: C_1  and  C_25
    3  A    between atoms: C_4  and  C_27
    4  A    between atoms: C_5  and  C_45
    5  A    between atoms: C_6  and  C_28
    6  A    between atoms: C_6  and  C_48
    7  A    between atoms: C_13  and  C_19
    8  A    between atoms: C_13  and  C_31
    9  A    between atoms: C_17  and  C_22
   10  A    between atoms: C_25  and  C_48
   11  A    between atoms: C_34  and  C_39
   12  A    between atoms: C_39  and  C_47
                            x       y       z     vdW  Elec       q    Type
                         _______ _______ _______ _____ _____    ______ ____

>  <TORSDO>
F 12

$$$$
=
 OpenBabel11062415093D

 55 62  0  0  1  0  0  0  0  0999 V2000
  183.0590  178.9510  142.0690 C   0  0  1  0  0  3  0  0  0  0  0  0
  181.7850  178.5440  139.2200 C   0  0  0  0  0  0  0  0  0  0  0  0
  182.9370  179.2950  139.7920 C   0  0  2  0  0  3  0  0  0  0  0  0
  184.2540  178.7700  139.8090 O   0  0  0  0  0  0  0  0  0  0  0  0
  180.6620  178.4620  139.9830 C   0  0  0  0  0  3  0  0  0  0  0  0
  183.3560  178.2520  140.7610 C   0  0  1  0  0  3  0  0  0  0  0  0
  181.5710  178.6560  142.4360 C   0  0  0  0  0  2  0  0  0  0  0  0
  180.5260  179.0970  141.3740 C   0  0  0  0  0  2  0  0  0  0  0  0
  179.0290  176.5090  136.5970 C   0  0  0  0  0  2  0  0  0  0  0  0
  181.1460  178.9380  136.7710 C   0  0  0  0  0  0  0  0  0  0  0  0
  181.7840  178.0350  137.8000 C   0  0  2  0  0  3  0  0  0  0  0  0
  181.4420  180.2110  136.6360 C   0  0  0  0  0  3  0  0  0  0  0  0
  180.2640  178.4650  135.6440 C   0  0  2  0  0  3  0  0  0  0  0  0
  180.0570  179.7360  134.8280 C   0  0  0  0  0  2  0  0  0  0  0  0
  178.9310  177.9720  136.1780 C   0  0  0  0  0  2  0  0  0  0  0  0
  179.7640  176.3330  137.9200 C   0  0  0  0  0  2  0  0  0  0  0  0
  181.2610  176.6030  137.7660 C   0  0  1  0  0  3  0  0  0  0  0  0
  180.8000  180.7270  135.5300 O   0  0  0  0  0  0  0  0  0  0  0  0
  183.9700  177.1980  136.7870 C   0  0  0  0  0  3  0  0  0  0  0  0
  182.2210  175.4990  137.4060 C   0  0  0  0  0  0  0  0  0  0  0  0
  181.7720  174.0860  137.4910 C   0  0  0  0  0  0  0  0  0  0  0  0
  181.9290  171.7180  136.7930 C   0  0  0  0  0  1  0  0  0  0  0  0
  185.4270  174.8860  135.7550 C   0  0  0  0  0  3  0  0  0  0  0  0
  184.1900  174.6790  136.2210 C   0  0  1  0  0  3  0  0  0  0  0  0
  182.4260  173.1170  136.8150 C   0  0  0  0  0  0  0  0  0  0  0  0
  185.4330  177.2560  136.4260 C   0  0  0  0  0  3  0  0  0  0  0  0
  186.0830  176.2030  135.9190 C   0  0  0  0  0  3  0  0  0  0  0  0
  183.6040  173.4160  136.1160 O   0  0  0  0  0  0  0  0  0  0  0  0
  180.6730  173.7570  138.2920 O   0  0  0  0  0  1  0  0  0  0  0  0
  183.4370  175.7770  136.8590 C   0  0  0  0  0  0  0  0  0  0  0  0
  184.0380  178.5430  143.2080 C   0  0  0  0  0  0  0  0  0  0  0  0
  184.5600  177.3000  142.9400 F   0  0  0  0  0  0  0  0  0  0  0  0
  183.3350  178.4070  144.4050 F   0  0  0  0  0  0  0  0  0  0  0  0
  185.7050  179.4400  144.7280 F   0  0  0  0  0  0  0  0  0  0  0  0
  185.2650  179.4820  143.4160 C   0  0  1  0  0  3  0  0  0  0  0  0
  186.4620  179.2200  142.4920 C   0  0  0  0  0  2  0  0  0  0  0  0
  186.9480  177.7660  142.5620 C   0  0  0  0  0  2  0  0  0  0  0  0
  190.7940  177.3140  144.6690 C   0  0  2  0  0  3  0  0  0  0  0  0
  188.4820  177.6730  142.5310 C   0  0  2  0  0  3  0  0  0  0  0  0
  189.3520  176.7890  144.7970 C   0  0  2  0  0  3  0  0  0  0  0  0
  190.4540  177.2870  141.0600 O   0  0  0  0  0  0  0  0  0  0  0  0
  190.3760  176.0240  142.8830 C   0  0  1  0  0  3  0  0  0  0  0  0
  189.1250  177.7460  141.1170 C   0  0  1  0  0  3  0  0  0  0  0  0
  189.0040  176.4750  143.3540 C   0  0  2  0  0  3  0  0  0  0  0  0
  190.4590  176.0260  141.4680 O   0  0  0  0  0  0  0  0  0  0  0  0
  191.3400  176.8800  143.4490 O   0  0  0  0  0  0  0  0  0  0  0  0
  191.6690  176.7960  145.8120 C   0  0  0  0  0  2  0  0  0  0  0  0
  191.2710  177.3970  147.0040 O   0  0  0  0  0  1  0  0  0  0  0  0
  188.3920  177.7530  145.5110 C   0  0  0  0  0  2  0  0  0  0  0  0
  187.7330  177.0660  146.7000 C   0  0  0  0  0  2  0  0  0  0  0  0
  187.8470  177.9810  147.9200 C   0  0  0  0  0  1  0  0  0  0  0  0
  188.2940  177.4260  139.8590 C   0  0  0  0  0  2  0  0  0  0  0  0
  188.8040  177.5180  137.4120 O   0  0  0  0  0  0  0  0  0  0  0  0
  189.0910  179.3790  138.7270 O   0  0  0  0  0  1  0  0  0  0  0  0
  188.7760  178.1550  138.6530 C   0  0  0  0  0  0  0  0  0  0  0  0
  1  7  1  0  0  0  0
  1 31  1  1  0  0  0
  2  5  2  0  0  0  0
  3  2  1  6  0  0  0
  3  4  1  0  0  0  0
  3  6  1  0  0  0  0
  5  8  1  0  0  0  0
  6  4  1  1  0  0  0
  6  1  1  0  0  0  0
  8  7  1  0  0  0  0
  9 16  1  0  0  0  0
 10 11  1  0  0  0  0
 11  2  1  1  0  0  0
 12 10  2  0  0  0  0
 13 14  1  6  0  0  0
 13 15  1  0  0  0  0
 13 10  1  0  0  0  0
 14 18  1  0  0  0  0
 15  9  1  0  0  0  0
 17 20  1  6  0  0  0
 17 11  1  0  0  0  0
 17 16  1  0  0  0  0
 18 12  1  0  0  0  0
 19 30  1  0  0  0  0
 20 21  1  0  0  0  0
 21 29  1  0  0  0  0
 22 25  1  0  0  0  0
 23 27  2  0  0  0  0
 24 23  1  1  0  0  0
 24 30  1  0  0  0  0
 25 21  2  0  0  0  0
 26 19  2  0  0  0  0
 27 26  1  0  0  0  0
 28 24  1  0  0  0  0
 28 25  1  0  0  0  0
 30 20  2  0  0  0  0
 31 35  1  0  0  0  0
 31 33  1  0  0  0  0
 32 31  1  0  0  0  0
 35 34  1  1  0  0  0
 36 37  1  0  0  0  0
 36 35  1  0  0  0  0
 38 40  1  0  0  0  0
 38 47  1  1  0  0  0
 39 37  1  6  0  0  0
 39 44  1  0  0  0  0
 40 49  1  6  0  0  0
 41 43  1  0  0  0  0
 41 45  1  0  0  0  0
 42 45  1  6  0  0  0
 42 44  1  0  0  0  0
 42 46  1  0  0  0  0
 43 52  1  6  0  0  0
 43 39  1  0  0  0  0
 44 40  1  0  0  0  0
 46 38  1  0  0  0  0
 47 48  1  0  0  0  0
 49 50  1  0  0  0  0
 50 51  1  0  0  0  0
 53 55  2  0  0  0  0
 55 54  1  0  0  0  0
 55 52  1  0  0  0  0
M  END
>  <MODEL>
4

>  <REMARK>
 VINA RESULT:      -8.4      2.941      7.245
  Name = 
  12 active torsions:
  status: ('A' for Active; 'I' for Inactive)
    1  A    between atoms: C_1  and  C_3
    2  A    between atoms: C_1  and  C_25
    3  A    between atoms: C_4  and  C_27
    4  A    between atoms: C_5  and  C_45
    5  A    between atoms: C_6  and  C_28
    6  A    between atoms: C_6  and  C_48
    7  A    between atoms: C_13  and  C_19
    8  A    between atoms: C_13  and  C_31
    9  A    between atoms: C_17  and  C_22
   10  A    between atoms: C_25  and  C_48
   11  A    between atoms: C_34  and  C_39
   12  A    between atoms: C_39  and  C_47
                            x       y       z     vdW  Elec       q    Type
                         _______ _______ _______ _____ _____    ______ ____

>  <TORSDO>
F 12

$$$$
=
 OpenBabel11062415093D

 55 62  0  0  1  0  0  0  0  0999 V2000
  183.0630  178.6310  141.5810 C   0  0  1  0  0  3  0  0  0  0  0  0
  182.8320  177.1390  138.8190 C   0  0  0  0  0  0  0  0  0  0  0  0
  183.5990  178.2950  139.3630 C   0  0  2  0  0  3  0  0  0  0  0  0
  184.9150  178.1630  139.8730 O   0  0  0  0  0  0  0  0  0  0  0  0
  181.5610  176.9750  139.2720 C   0  0  0  0  0  3  0  0  0  0  0  0
  183.8700  177.7060  140.6980 C   0  0  1  0  0  3  0  0  0  0  0  0
  181.6110  178.0650  141.6570 C   0  0  0  0  0  2  0  0  0  0  0  0
  180.8880  177.9060  140.2900 C   0  0  0  0  0  2  0  0  0  0  0  0
  182.0810  176.6350  134.6000 C   0  0  0  0  0  2  0  0  0  0  0  0
  184.4110  176.9160  136.8150 C   0  0  0  0  0  0  0  0  0  0  0  0
  183.3640  176.2810  137.6990 C   0  0  2  0  0  3  0  0  0  0  0  0
  185.4870  177.5130  137.2760 C   0  0  0  0  0  3  0  0  0  0  0  0
  184.4750  176.7670  135.3170 C   0  0  2  0  0  3  0  0  0  0  0  0
  185.7980  177.4410  134.9720 C   0  0  0  0  0  2  0  0  0  0  0  0
  183.3290  177.5110  134.6550 C   0  0  0  0  0  2  0  0  0  0  0  0
  181.3910  176.5250  135.9540 C   0  0  0  0  0  2  0  0  0  0  0  0
  182.2020  175.6660  136.9240 C   0  0  1  0  0  3  0  0  0  0  0  0
  186.3130  177.8660  136.2290 O   0  0  0  0  0  0  0  0  0  0  0  0
  184.3940  173.7870  136.3620 C   0  0  0  0  0  2  0  0  0  0  0  0
  181.9950  174.1760  137.0100 C   0  0  0  0  0  0  0  0  0  0  0  0
  180.6450  173.6450  137.3260 C   0  0  0  0  0  0  0  0  0  0  0  0
  178.9440  171.8520  137.2230 C   0  0  0  0  0  1  0  0  0  0  0  0
  183.5800  170.9890  136.1720 C   0  0  0  0  0  3  0  0  0  0  0  0
  182.6290  171.8920  136.4320 C   0  0  0  0  0  0  0  0  0  0  0  0
  180.3200  172.3700  137.0220 C   0  0  0  0  0  0  0  0  0  0  0  0
  185.3890  172.6570  136.2780 C   0  0  0  0  0  3  0  0  0  0  0  0
  185.0070  171.3810  136.1540 C   0  0  0  0  0  3  0  0  0  0  0  0
  181.2910  171.4990  136.5070 O   0  0  0  0  0  0  0  0  0  0  0  0
  179.7090  174.4700  137.9600 O   0  0  0  0  0  1  0  0  0  0  0  0
  182.9820  173.3090  136.6520 C   0  0  0  0  0  0  0  0  0  0  0  0
  183.6930  178.8240  142.9900 C   0  0  0  0  0  0  0  0  0  0  0  0
  184.3910  177.6920  143.3390 F   0  0  0  0  0  0  0  0  0  0  0  0
  182.6830  178.9530  143.9430 F   0  0  0  0  0  0  0  0  0  0  0  0
  184.7820  180.4440  144.4350 F   0  0  0  0  0  0  0  0  0  0  0  0
  184.7050  180.0030  143.1250 C   0  0  1  0  0  3  0  0  0  0  0  0
  186.1270  179.7140  142.6230 C   0  0  0  0  0  2  0  0  0  0  0  0
  186.5010  178.2320  142.7460 C   0  0  0  0  0  2  0  0  0  0  0  0
  190.0740  177.5230  145.2290 C   0  0  2  0  0  3  0  0  0  0  0  0
  188.0200  178.0320  142.8690 C   0  0  2  0  0  3  0  0  0  0  0  0
  188.5940  177.1010  145.2090 C   0  0  2  0  0  3  0  0  0  0  0  0
  190.0980  177.5040  141.6040 O   0  0  0  0  0  0  0  0  0  0  0  0
  189.7500  176.2570  143.4060 C   0  0  1  0  0  3  0  0  0  0  0  0
  188.8050  178.0530  141.5270 C   0  0  1  0  0  3  0  0  0  0  0  0
  188.3720  176.8040  143.7380 C   0  0  2  0  0  3  0  0  0  0  0  0
  189.9740  176.2470  142.0070 O   0  0  0  0  0  0  0  0  0  0  0  0
  190.7090  177.0470  144.0690 O   0  0  0  0  0  0  0  0  0  0  0  0
  190.7910  176.9520  146.4530 C   0  0  0  0  0  2  0  0  0  0  0  0
  191.9820  176.3520  146.0500 O   0  0  0  0  0  1  0  0  0  0  0  0
  187.6360  178.1320  145.8250 C   0  0  0  0  0  2  0  0  0  0  0  0
  186.2950  177.4870  146.1510 C   0  0  0  0  0  2  0  0  0  0  0  0
  185.3810  178.5430  146.7730 C   0  0  0  0  0  1  0  0  0  0  0  0
  188.0850  177.7860  140.1910 C   0  0  0  0  0  2  0  0  0  0  0  0
  189.0520  179.3690  138.5130 O   0  0  0  0  0  1  0  0  0  0  0  0
  189.6490  177.1510  138.4930 O   0  0  0  0  0  0  0  0  0  0  0  0
  188.9460  178.0700  139.0090 C   0  0  0  0  0  0  0  0  0  0  0  0
  1  7  1  0  0  0  0
  1 31  1  1  0  0  0
  2  5  2  0  0  0  0
  3  2  1  6  0  0  0
  3  4  1  0  0  0  0
  3  6  1  0  0  0  0
  5  8  1  0  0  0  0
  6  4  1  1  0  0  0
  6  1  1  0  0  0  0
  8  7  1  0  0  0  0
  9 15  1  0  0  0  0
  9 16  1  0  0  0  0
 10 12  2  0  0  0  0
 10 11  1  0  0  0  0
 11  2  1  1  0  0  0
 13 15  1  6  0  0  0
 13 10  1  0  0  0  0
 14 13  1  0  0  0  0
 14 18  1  0  0  0  0
 16 17  1  0  0  0  0
 17 20  1  6  0  0  0
 17 11  1  0  0  0  0
 18 12  1  0  0  0  0
 19 30  1  0  0  0  0
 20 21  1  0  0  0  0
 21 29  1  0  0  0  0
 23 24  2  0  0  0  0
 24 28  1  0  0  0  0
 24 30  1  0  0  0  0
 25 22  1  0  0  0  0
 25 21  2  0  0  0  0
 26 19  1  0  0  0  0
 27 23  1  0  0  0  0
 27 26  2  0  0  0  0
 28 25  1  0  0  0  0
 30 20  2  0  0  0  0
 31 35  1  0  0  0  0
 31 32  1  0  0  0  0
 31 33  1  0  0  0  0
 35 34  1  1  0  0  0
 36 37  1  0  0  0  0
 36 35  1  0  0  0  0
 38 47  1  1  0  0  0
 39 37  1  6  0  0  0
 39 44  1  0  0  0  0
 40 38  1  0  0  0  0
 40 49  1  6  0  0  0
 41 45  1  0  0  0  0
 42 45  1  6  0  0  0
 42 44  1  0  0  0  0
 42 46  1  0  0  0  0
 43 52  1  6  0  0  0
 43 41  1  0  0  0  0
 43 39  1  0  0  0  0
 44 40  1  0  0  0  0
 46 38  1  0  0  0  0
 48 47  1  0  0  0  0
 49 50  1  0  0  0  0
 50 51  1  0  0  0  0
 53 55  1  0  0  0  0
 54 55  2  0  0  0  0
 55 52  1  0  0  0  0
M  END
>  <MODEL>
5

>  <REMARK>
 VINA RESULT:      -8.3      3.144      6.250
  Name = 
  12 active torsions:
  status: ('A' for Active; 'I' for Inactive)
    1  A    between atoms: C_1  and  C_3
    2  A    between atoms: C_1  and  C_25
    3  A    between atoms: C_4  and  C_27
    4  A    between atoms: C_5  and  C_45
    5  A    between atoms: C_6  and  C_28
    6  A    between atoms: C_6  and  C_48
    7  A    between atoms: C_13  and  C_19
    8  A    between atoms: C_13  and  C_31
    9  A    between atoms: C_17  and  C_22
   10  A    between atoms: C_25  and  C_48
   11  A    between atoms: C_34  and  C_39
   12  A    between atoms: C_39  and  C_47
                            x       y       z     vdW  Elec       q    Type
                         _______ _______ _______ _____ _____    ______ ____

>  <TORSDO>
F 12

$$$$
=
 OpenBabel11062415093D

 55 62  0  0  1  0  0  0  0  0999 V2000
  190.6890  177.8920  141.0740 C   0  0  1  0  0  3  0  0  0  0  0  0
  188.5840  177.2470  138.8240 C   0  0  0  0  0  0  0  0  0  0  0  0
  190.0400  177.5560  138.8860 C   0  0  2  0  0  3  0  0  0  0  0  0
  191.0330  176.5450  138.9200 O   0  0  0  0  0  0  0  0  0  0  0  0
  187.7780  177.8910  139.7100 C   0  0  0  0  0  3  0  0  0  0  0  0
  190.3270  176.7780  140.1170 C   0  0  1  0  0  3  0  0  0  0  0  0
  189.3690  178.3960  141.7340 C   0  0  0  0  0  2  0  0  0  0  0  0
  188.2840  178.9060  140.7440 C   0  0  0  0  0  2  0  0  0  0  0  0
  187.4940  177.7240  134.6770 C   0  0  0  0  0  2  0  0  0  0  0  0
  188.9760  175.7670  136.7710 C   0  0  0  0  0  0  0  0  0  0  0  0
  187.9920  176.3900  137.7330 C   0  0  2  0  0  3  0  0  0  0  0  0
  190.0330  175.0860  137.1510 C   0  0  0  0  0  3  0  0  0  0  0  0
  188.7680  175.6570  135.2820 C   0  0  2  0  0  3  0  0  0  0  0  0
  189.9510  174.8020  134.8440 C   0  0  0  0  0  2  0  0  0  0  0  0
  188.8480  177.0250  134.6290 C   0  0  0  0  0  2  0  0  0  0  0  0
  187.1720  178.2690  136.0630 C   0  0  0  0  0  2  0  0  0  0  0  0
  186.8570  177.1410  137.0460 C   0  0  1  0  0  3  0  0  0  0  0  0
  190.6530  174.5300  136.0510 O   0  0  0  0  0  0  0  0  0  0  0  0
  184.8360  178.7230  138.4830 C   0  0  0  0  0  3  0  0  0  0  0  0
  185.4500  176.6330  137.2250 C   0  0  0  0  0  0  0  0  0  0  0  0
  185.0930  175.2830  136.7200 C   0  0  0  0  0  0  0  0  0  0  0  0
  183.6950  173.2440  136.7920 C   0  0  0  0  0  1  0  0  0  0  0  0
  182.3530  177.2960  139.0550 C   0  0  0  0  0  3  0  0  0  0  0  0
  183.3100  176.6310  138.3980 C   0  0  1  0  0  3  0  0  0  0  0  0
  184.0080  174.6370  137.1980 C   0  0  0  0  0  0  0  0  0  0  0  0
  183.6120  179.4130  139.0300 C   0  0  0  0  0  3  0  0  0  0  0  0
  182.4910  178.7450  139.3250 C   0  0  0  0  0  3  0  0  0  0  0  0
  183.1420  175.2790  138.0950 O   0  0  0  0  0  0  0  0  0  0  0  0
  185.8780  174.6870  135.7270 O   0  0  0  0  0  1  0  0  0  0  0  0
  184.5460  177.3210  137.9770 C   0  0  0  0  0  0  0  0  0  0  0  0
  191.7480  177.4620  142.1290 C   0  0  0  0  0  0  0  0  0  0  0  0
  192.0660  178.5380  142.9240 F   0  0  0  0  0  0  0  0  0  0  0  0
  192.9330  177.1050  141.4860 F   0  0  0  0  0  0  0  0  0  0  0  0
  192.3310  175.4100  143.2910 F   0  0  0  0  0  0  0  0  0  0  0  0
  191.3110  176.3280  143.1060 C   0  0  1  0  0  3  0  0  0  0  0  0
  190.8200  176.7950  144.4840 C   0  0  0  0  0  2  0  0  0  0  0  0
  189.3090  176.6020  144.6630 C   0  0  0  0  0  2  0  0  0  0  0  0
  186.1800  179.1620  146.4220 C   0  0  2  0  0  3  0  0  0  0  0  0
  188.7630  177.4160  145.8470 C   0  0  2  0  0  3  0  0  0  0  0  0
  186.2700  177.9670  145.4550 C   0  0  2  0  0  3  0  0  0  0  0  0
  188.9780  177.8170  148.2950 O   0  0  0  0  0  0  0  0  0  0  0  0
  186.9180  177.3930  147.5870 C   0  0  1  0  0  3  0  0  0  0  0  0
  189.6460  177.4030  147.1270 C   0  0  1  0  0  3  0  0  0  0  0  0
  187.2860  177.0780  146.1470 C   0  0  2  0  0  3  0  0  0  0  0  0
  187.9500  177.0010  148.4760 O   0  0  0  0  0  0  0  0  0  0  0  0
  186.6610  178.7740  147.6850 O   0  0  0  0  0  0  0  0  0  0  0  0
  184.7360  179.6400  146.5700 C   0  0  0  0  0  2  0  0  0  0  0  0
  183.9080  178.8600  145.7660 O   0  0  0  0  0  1  0  0  0  0  0  0
  186.6100  178.3530  144.0070 C   0  0  0  0  0  2  0  0  0  0  0  0
  185.5260  177.8660  143.0550 C   0  0  0  0  0  2  0  0  0  0  0  0
  184.9430  179.0710  142.3170 C   0  0  0  0  0  1  0  0  0  0  0  0
  190.6830  176.2870  147.3550 C   0  0  0  0  0  2  0  0  0  0  0  0
  193.0560  176.0150  148.0970 O   0  0  0  0  0  0  0  0  0  0  0  0
  191.8570  177.8760  148.7070 O   0  0  0  0  0  1  0  0  0  0  0  0
  191.8770  176.7590  148.1110 C   0  0  0  0  0  0  0  0  0  0  0  0
  1  7  1  0  0  0  0
  1 31  1  1  0  0  0
  2  5  2  0  0  0  0
  3  2  1  6  0  0  0
  3  4  1  0  0  0  0
  3  6  1  0  0  0  0
  5  8  1  0  0  0  0
  6  4  1  6  0  0  0
  6  1  1  0  0  0  0
  8  7  1  0  0  0  0
  9 16  1  0  0  0  0
 10 12  2  0  0  0  0
 10 11  1  0  0  0  0
 11  2  1  1  0  0  0
 13 15  1  6  0  0  0
 13 10  1  0  0  0  0
 14 13  1  0  0  0  0
 14 18  1  0  0  0  0
 15  9  1  0  0  0  0
 16 17  1  0  0  0  0
 17 20  1  6  0  0  0
 17 11  1  0  0  0  0
 18 12  1  0  0  0  0
 19 26  2  0  0  0  0
 20 30  2  0  0  0  0
 21 25  2  0  0  0  0
 21 20  1  0  0  0  0
 22 25  1  0  0  0  0
 23 27  2  0  0  0  0
 24 23  1  6  0  0  0
 25 28  1  0  0  0  0
 26 27  1  0  0  0  0
 28 24  1  0  0  0  0
 29 21  1  0  0  0  0
 30 24  1  0  0  0  0
 30 19  1  0  0  0  0
 31 32  1  0  0  0  0
 31 35  1  0  0  0  0
 33 31  1  0  0  0  0
 35 34  1  1  0  0  0
 35 36  1  0  0  0  0
 36 37  1  0  0  0  0
 38 47  1  1  0  0  0
 38 46  1  0  0  0  0
 39 37  1  6  0  0  0
 39 44  1  0  0  0  0
 39 43  1  0  0  0  0
 40 49  1  6  0  0  0
 40 44  1  0  0  0  0
 40 38  1  0  0  0  0
 41 45  1  0  0  0  0
 42 46  1  6  0  0  0
 42 45  1  0  0  0  0
 43 52  1  1  0  0  0
 43 41  1  0  0  0  0
 44 42  1  0  0  0  0
 48 47  1  0  0  0  0
 50 49  1  0  0  0  0
 51 50  1  0  0  0  0
 52 55  1  0  0  0  0
 53 55  2  0  0  0  0
 55 54  1  0  0  0  0
M  END
>  <MODEL>
6

>  <REMARK>
 VINA RESULT:      -8.2      1.283      2.597
  Name = 
  12 active torsions:
  status: ('A' for Active; 'I' for Inactive)
    1  A    between atoms: C_1  and  C_3
    2  A    between atoms: C_1  and  C_25
    3  A    between atoms: C_4  and  C_27
    4  A    between atoms: C_5  and  C_45
    5  A    between atoms: C_6  and  C_28
    6  A    between atoms: C_6  and  C_48
    7  A    between atoms: C_13  and  C_19
    8  A    between atoms: C_13  and  C_31
    9  A    between atoms: C_17  and  C_22
   10  A    between atoms: C_25  and  C_48
   11  A    between atoms: C_34  and  C_39
   12  A    between atoms: C_39  and  C_47
                            x       y       z     vdW  Elec       q    Type
                         _______ _______ _______ _____ _____    ______ ____

>  <TORSDO>
F 12

$$$$
=
 OpenBabel11062415093D

 55 62  0  0  1  0  0  0  0  0999 V2000
  184.3660  178.7550  142.9580 C   0  0  1  0  0  3  0  0  0  0  0  0
  183.1070  178.8490  140.0750 C   0  0  0  0  0  0  0  0  0  0  0  0
  182.8120  178.1580  141.3610 C   0  0  2  0  0  3  0  0  0  0  0  0
  181.8880  178.6700  142.3070 O   0  0  0  0  0  0  0  0  0  0  0  0
  184.4160  179.0250  139.7550 C   0  0  0  0  0  3  0  0  0  0  0  0
  183.1470  179.3000  142.2480 C   0  0  1  0  0  3  0  0  0  0  0  0
  185.6140  179.1010  142.0880 C   0  0  0  0  0  2  0  0  0  0  0  0
  185.5820  178.5520  140.6340 C   0  0  0  0  0  2  0  0  0  0  0  0
  178.9310  179.9240  140.2140 C   0  0  0  0  0  2  0  0  0  0  0  0
  181.7670  180.6670  138.8670 C   0  0  0  0  0  0  0  0  0  0  0  0
  182.0230  179.1940  139.0850 C   0  0  2  0  0  3  0  0  0  0  0  0
  182.7130  181.5380  138.5960 C   0  0  0  0  0  3  0  0  0  0  0  0
  180.4020  181.2890  138.7190 C   0  0  2  0  0  3  0  0  0  0  0  0
  180.7310  182.7290  138.3450 C   0  0  0  0  0  2  0  0  0  0  0  0
  179.6530  181.2560  140.0390 C   0  0  0  0  0  2  0  0  0  0  0  0
  179.8820  178.7930  140.5840 C   0  0  0  0  0  2  0  0  0  0  0  0
  180.7620  178.3960  139.4000 C   0  0  1  0  0  3  0  0  0  0  0  0
  182.1540  182.7670  138.3160 O   0  0  0  0  0  0  0  0  0  0  0  0
  180.2830  175.6280  140.2720 C   0  0  0  0  0  3  0  0  0  0  0  0
  180.3260  177.3340  138.4240 C   0  0  0  0  0  0  0  0  0  0  0  0
  180.1920  177.6760  136.9850 C   0  0  0  0  0  0  0  0  0  0  0  0
  180.1880  177.0320  134.5970 C   0  0  0  0  0  1  0  0  0  0  0  0
  179.8880  173.7170  138.0990 C   0  0  0  0  0  3  0  0  0  0  0  0
  180.1050  174.9940  137.7660 C   0  0  1  0  0  3  0  0  0  0  0  0
  180.2050  176.7070  136.0450 C   0  0  0  0  0  0  0  0  0  0  0  0
  179.8300  174.2090  140.5120 C   0  0  0  0  0  3  0  0  0  0  0  0
  179.6880  173.3300  139.5140 C   0  0  0  0  0  3  0  0  0  0  0  0
  180.2310  175.3570  136.4240 O   0  0  0  0  0  0  0  0  0  0  0  0
  180.0340  179.0140  136.6050 O   0  0  0  0  0  1  0  0  0  0  0  0
  180.2030  176.0340  138.8100 C   0  0  0  0  0  0  0  0  0  0  0  0
  184.5020  179.2800  144.4160 C   0  0  0  0  0  0  0  0  0  0  0  0
  183.2600  179.3230  145.0050 F   0  0  0  0  0  0  0  0  0  0  0  0
  184.9570  180.5990  144.4000 F   0  0  0  0  0  0  0  0  0  0  0  0
  185.2170  177.0710  145.1260 F   0  0  0  0  0  0  0  0  0  0  0  0
  185.3920  178.4230  145.3670 C   0  0  1  0  0  3  0  0  0  0  0  0
  186.8940  178.7350  145.3260 C   0  0  0  0  0  2  0  0  0  0  0  0
  187.6960  177.6590  144.5830 C   0  0  0  0  0  2  0  0  0  0  0  0
  191.3000  177.0030  147.0350 C   0  0  2  0  0  3  0  0  0  0  0  0
  189.2090  177.8210  144.7980 C   0  0  2  0  0  3  0  0  0  0  0  0
  189.9960  176.2580  146.6980 C   0  0  2  0  0  3  0  0  0  0  0  0
  191.3650  178.3520  143.6710 O   0  0  0  0  0  0  0  0  0  0  0  0
  191.3590  176.4760  144.8560 C   0  0  1  0  0  3  0  0  0  0  0  0
  189.9710  178.5420  143.6500 C   0  0  1  0  0  3  0  0  0  0  0  0
  189.8800  176.4890  145.2040 C   0  0  2  0  0  3  0  0  0  0  0  0
  191.5910  177.0490  143.5810 O   0  0  0  0  0  0  0  0  0  0  0  0
  192.0540  177.1750  145.8610 O   0  0  0  0  0  0  0  0  0  0  0  0
  192.1360  176.2170  148.0460 C   0  0  0  0  0  2  0  0  0  0  0  0
  192.7980  177.1070  148.8880 O   0  0  0  0  0  1  0  0  0  0  0  0
  188.7830  176.7020  147.5300 C   0  0  0  0  0  2  0  0  0  0  0  0
  189.0730  178.0210  148.2350 C   0  0  0  0  0  2  0  0  0  0  0  0
  187.7560  178.6010  148.7530 C   0  0  0  0  0  1  0  0  0  0  0  0
  189.3660  178.6220  142.2340 C   0  0  0  0  0  2  0  0  0  0  0  0
  190.6770  177.3760  140.5070 O   0  0  0  0  0  0  0  0  0  0  0  0
  188.9580  176.3430  141.6270 O   0  0  0  0  0  1  0  0  0  0  0  0
  189.6300  177.3980  141.4280 C   0  0  0  0  0  0  0  0  0  0  0  0
  1 31  1  1  0  0  0
  3  2  1  6  0  0  0
  3  6  1  0  0  0  0
  3  4  1  0  0  0  0
  5  2  2  0  0  0  0
  5  8  1  0  0  0  0
  6  4  1  1  0  0  0
  6  1  1  0  0  0  0
  7  1  1  0  0  0  0
  8  7  1  0  0  0  0
  9 16  1  0  0  0  0
 10 11  1  0  0  0  0
 11 17  1  0  0  0  0
 11  2  1  1  0  0  0
 12 10  2  0  0  0  0
 13 14  1  1  0  0  0
 13 10  1  0  0  0  0
 13 15  1  0  0  0  0
 15  9  1  0  0  0  0
 17 20  1  6  0  0  0
 17 16  1  0  0  0  0
 18 14  1  0  0  0  0
 18 12  1  0  0  0  0
 19 26  2  0  0  0  0
 20 30  2  0  0  0  0
 21 20  1  0  0  0  0
 22 25  1  0  0  0  0
 23 27  2  0  0  0  0
 24 23  1  6  0  0  0
 24 30  1  0  0  0  0
 25 28  1  0  0  0  0
 25 21  2  0  0  0  0
 27 26  1  0  0  0  0
 28 24  1  0  0  0  0
 29 21  1  0  0  0  0
 30 19  1  0  0  0  0
 31 32  1  0  0  0  0
 31 35  1  0  0  0  0
 33 31  1  0  0  0  0
 35 34  1  6  0  0  0
 36 35  1  0  0  0  0
 37 36  1  0  0  0  0
 38 47  1  1  0  0  0
 39 37  1  6  0  0  0
 39 44  1  0  0  0  0
 40 38  1  0  0  0  0
 40 49  1  1  0  0  0
 42 45  1  6  0  0  0
 42 44  1  0  0  0  0
 42 46  1  0  0  0  0
 43 52  1  6  0  0  0
 43 41  1  0  0  0  0
 43 39  1  0  0  0  0
 44 40  1  0  0  0  0
 45 41  1  0  0  0  0
 46 38  1  0  0  0  0
 47 48  1  0  0  0  0
 49 50  1  0  0  0  0
 50 51  1  0  0  0  0
 53 55  2  0  0  0  0
 55 54  1  0  0  0  0
 55 52  1  0  0  0  0
M  END
>  <MODEL>
7

>  <REMARK>
 VINA RESULT:      -8.1      4.006      7.405
  Name = 
  12 active torsions:
  status: ('A' for Active; 'I' for Inactive)
    1  A    between atoms: C_1  and  C_3
    2  A    between atoms: C_1  and  C_25
    3  A    between atoms: C_4  and  C_27
    4  A    between atoms: C_5  and  C_45
    5  A    between atoms: C_6  and  C_28
    6  A    between atoms: C_6  and  C_48
    7  A    between atoms: C_13  and  C_19
    8  A    between atoms: C_13  and  C_31
    9  A    between atoms: C_17  and  C_22
   10  A    between atoms: C_25  and  C_48
   11  A    between atoms: C_34  and  C_39
   12  A    between atoms: C_39  and  C_47
                            x       y       z     vdW  Elec       q    Type
                         _______ _______ _______ _____ _____    ______ ____

>  <TORSDO>
F 12

$$$$
=
 OpenBabel11062415093D

 55 62  0  0  1  0  0  0  0  0999 V2000
  185.1710  178.4430  143.3040 C   0  0  1  0  0  3  0  0  0  0  0  0
  183.5760  178.5180  140.5910 C   0  0  0  0  0  0  0  0  0  0  0  0
  183.5880  177.6690  141.8150 C   0  0  2  0  0  3  0  0  0  0  0  0
  182.7010  177.8850  142.9000 O   0  0  0  0  0  0  0  0  0  0  0  0
  184.7730  179.0000  140.1630 C   0  0  0  0  0  3  0  0  0  0  0  0
  183.7880  178.7730  142.7860 C   0  0  1  0  0  3  0  0  0  0  0  0
  186.2060  179.1250  142.3570 C   0  0  0  0  0  2  0  0  0  0  0  0
  186.1090  178.7130  140.8610 C   0  0  0  0  0  2  0  0  0  0  0  0
  179.8410  176.4460  139.9780 C   0  0  0  0  0  2  0  0  0  0  0  0
  181.1580  179.3520  140.4600 C   0  0  0  0  0  0  0  0  0  0  0  0
  182.3320  178.7090  139.7600 C   0  0  2  0  0  3  0  0  0  0  0  0
  181.2410  180.4730  141.1400 C   0  0  0  0  0  3  0  0  0  0  0  0
  179.7220  178.9250  140.2960 C   0  0  2  0  0  3  0  0  0  0  0  0
  178.9650  180.0040  141.0620 C   0  0  0  0  0  2  0  0  0  0  0  0
  179.4890  177.5720  140.9440 C   0  0  0  0  0  2  0  0  0  0  0  0
  181.3460  176.2560  139.8340 C   0  0  0  0  0  2  0  0  0  0  0  0
  181.9800  177.4050  139.0510 C   0  0  1  0  0  3  0  0  0  0  0  0
  179.9840  180.8750  141.5400 O   0  0  0  0  0  0  0  0  0  0  0  0
  184.2600  176.0600  137.7700 C   0  0  0  0  0  3  0  0  0  0  0  0
  182.1120  177.3490  137.5510 C   0  0  0  0  0  0  0  0  0  0  0  0
  181.1030  178.0350  136.7040 C   0  0  0  0  0  0  0  0  0  0  0  0
  180.4390  179.1410  134.5940 C   0  0  0  0  0  1  0  0  0  0  0  0
  184.4740  176.5000  134.8910 C   0  0  0  0  0  3  0  0  0  0  0  0
  183.4530  177.0810  135.5300 C   0  0  1  0  0  3  0  0  0  0  0  0
  181.3860  178.3550  135.4230 C   0  0  0  0  0  0  0  0  0  0  0  0
  185.2360  175.3020  136.9040 C   0  0  0  0  0  3  0  0  0  0  0  0
  185.3530  175.5370  135.5920 C   0  0  0  0  0  3  0  0  0  0  0  0
  182.5940  177.9400  134.8430 O   0  0  0  0  0  0  0  0  0  0  0  0
  179.8450  178.3370  137.2360 O   0  0  0  0  0  1  0  0  0  0  0  0
  183.2180  176.8140  136.9630 C   0  0  0  0  0  0  0  0  0  0  0  0
  185.3730  178.8540  144.7910 C   0  0  0  0  0  0  0  0  0  0  0  0
  184.1960  178.6760  145.4790 F   0  0  0  0  0  0  0  0  0  0  0  0
  185.6510  180.2190  144.8670 F   0  0  0  0  0  0  0  0  0  0  0  0
  186.0710  176.7240  145.7260 F   0  0  0  0  0  0  0  0  0  0  0  0
  186.4510  178.0470  145.5770 C   0  0  1  0  0  3  0  0  0  0  0  0
  187.8670  178.0840  144.9850 C   0  0  0  0  0  2  0  0  0  0  0  0
  188.1410  176.8980  144.0510 C   0  0  0  0  0  2  0  0  0  0  0  0
  191.5760  176.9790  141.2890 C   0  0  2  0  0  3  0  0  0  0  0  0
  189.6440  176.7120  143.7870 C   0  0  2  0  0  3  0  0  0  0  0  0
  190.2710  177.7630  141.5120 C   0  0  2  0  0  3  0  0  0  0  0  0
  191.8770  176.5140  144.8710 O   0  0  0  0  0  0  0  0  0  0  0  0
  191.7430  178.0340  143.2600 C   0  0  1  0  0  3  0  0  0  0  0  0
  190.4930  176.3130  145.0270 C   0  0  1  0  0  3  0  0  0  0  0  0
  190.2480  177.9110  143.0220 C   0  0  2  0  0  3  0  0  0  0  0  0
  192.0660  177.8010  144.6210 O   0  0  0  0  0  0  0  0  0  0  0  0
  192.4010  177.1170  142.4180 O   0  0  0  0  0  0  0  0  0  0  0  0
  192.3270  177.5010  140.0630 C   0  0  0  0  0  2  0  0  0  0  0  0
  193.6710  177.1480  140.1610 O   0  0  0  0  0  1  0  0  0  0  0  0
  189.0260  177.1060  140.8960 C   0  0  0  0  0  2  0  0  0  0  0  0
  189.1350  177.0760  139.3770 C   0  0  0  0  0  2  0  0  0  0  0  0
  189.1950  178.5140  138.8610 C   0  0  0  0  0  1  0  0  0  0  0  0
  189.9740  176.5790  146.4540 C   0  0  0  0  0  2  0  0  0  0  0  0
  191.0370  177.8860  148.3020 O   0  0  0  0  0  1  0  0  0  0  0  0
  192.0130  175.9510  147.5400 O   0  0  0  0  0  0  0  0  0  0  0  0
  191.0750  176.7950  147.4330 C   0  0  0  0  0  0  0  0  0  0  0  0
  1 31  1  1  0  0  0
  3  2  1  6  0  0  0
  3  6  1  0  0  0  0
  3  4  1  0  0  0  0
  5  2  2  0  0  0  0
  5  8  1  0  0  0  0
  6  4  1  1  0  0  0
  6  1  1  0  0  0  0
  7  1  1  0  0  0  0
  8  7  1  0  0  0  0
  9 15  1  0  0  0  0
 10 12  2  0  0  0  0
 11 10  1  0  0  0  0
 11  2  1  1  0  0  0
 12 18  1  0  0  0  0
 13 10  1  0  0  0  0
 13 15  1  1  0  0  0
 13 14  1  0  0  0  0
 14 18  1  0  0  0  0
 16  9  1  0  0  0  0
 17 20  1  6  0  0  0
 17 11  1  0  0  0  0
 17 16  1  0  0  0  0
 21 29  1  0  0  0  0
 21 20  1  0  0  0  0
 22 25  1  0  0  0  0
 23 27  2  0  0  0  0
 24 23  1  6  0  0  0
 24 30  1  0  0  0  0
 25 21  2  0  0  0  0
 26 19  2  0  0  0  0
 27 26  1  0  0  0  0
 28 25  1  0  0  0  0
 28 24  1  0  0  0  0
 30 20  2  0  0  0  0
 30 19  1  0  0  0  0
 31 33  1  0  0  0  0
 31 32  1  0  0  0  0
 31 35  1  0  0  0  0
 35 34  1  6  0  0  0
 36 35  1  0  0  0  0
 37 36  1  0  0  0  0
 38 47  1  6  0  0  0
 38 40  1  0  0  0  0
 38 46  1  0  0  0  0
 39 37  1  1  0  0  0
 39 43  1  0  0  0  0
 40 49  1  1  0  0  0
 40 44  1  0  0  0  0
 41 43  1  0  0  0  0
 42 46  1  6  0  0  0
 42 45  1  0  0  0  0
 43 52  1  1  0  0  0
 44 42  1  0  0  0  0
 44 39  1  0  0  0  0
 45 41  1  0  0  0  0
 47 48  1  0  0  0  0
 50 49  1  0  0  0  0
 51 50  1  0  0  0  0
 52 55  1  0  0  0  0
 55 54  2  0  0  0  0
 55 53  1  0  0  0  0
M  END
>  <MODEL>
8

>  <REMARK>
 VINA RESULT:      -7.7      2.830      6.778
  Name = 
  12 active torsions:
  status: ('A' for Active; 'I' for Inactive)
    1  A    between atoms: C_1  and  C_3
    2  A    between atoms: C_1  and  C_25
    3  A    between atoms: C_4  and  C_27
    4  A    between atoms: C_5  and  C_45
    5  A    between atoms: C_6  and  C_28
    6  A    between atoms: C_6  and  C_48
    7  A    between atoms: C_13  and  C_19
    8  A    between atoms: C_13  and  C_31
    9  A    between atoms: C_17  and  C_22
   10  A    between atoms: C_25  and  C_48
   11  A    between atoms: C_34  and  C_39
   12  A    between atoms: C_39  and  C_47
                            x       y       z     vdW  Elec       q    Type
                         _______ _______ _______ _____ _____    ______ ____

>  <TORSDO>
F 12

$$$$
=
 OpenBabel11062415093D

 55 62  0  0  1  0  0  0  0  0999 V2000
  186.4310  178.5450  139.9040 C   0  0  1  0  0  3  0  0  0  0  0  0
  183.3230  178.9100  139.5630 C   0  0  0  0  0  0  0  0  0  0  0  0
  184.5530  179.5040  138.9680 C   0  0  2  0  0  3  0  0  0  0  0  0
  185.1170  179.0300  137.7560 O   0  0  0  0  0  0  0  0  0  0  0  0
  183.3690  178.5900  140.8840 C   0  0  0  0  0  3  0  0  0  0  0  0
  185.3360  178.2440  138.9050 C   0  0  1  0  0  3  0  0  0  0  0  0
  185.9140  178.1210  141.3130 C   0  0  0  0  0  2  0  0  0  0  0  0
  184.6000  178.8110  141.7740 C   0  0  0  0  0  2  0  0  0  0  0  0
  179.3160  177.4910  140.3030 C   0  0  0  0  0  2  0  0  0  0  0  0
  181.0270  179.9200  139.0430 C   0  0  0  0  0  0  0  0  0  0  0  0
  182.0270  178.8150  138.7970 C   0  0  2  0  0  3  0  0  0  0  0  0
  181.3240  181.1980  138.9770 C   0  0  0  0  0  3  0  0  0  0  0  0
  179.5400  179.7170  139.1800 C   0  0  2  0  0  3  0  0  0  0  0  0
  179.0120  181.1460  139.2280 C   0  0  0  0  0  2  0  0  0  0  0  0
  179.2150  179.0030  140.4800 C   0  0  0  0  0  2  0  0  0  0  0  0
  180.7600  177.0090  140.2550 C   0  0  0  0  0  2  0  0  0  0  0  0
  181.4400  177.4150  138.9480 C   0  0  1  0  0  3  0  0  0  0  0  0
  180.1790  181.9540  139.1130 O   0  0  0  0  0  0  0  0  0  0  0  0
  183.6960  175.6550  138.2670 C   0  0  0  0  0  3  0  0  0  0  0  0
  181.3960  176.5240  137.7340 C   0  0  0  0  0  0  0  0  0  0  0  0
  180.2180  176.5770  136.8330 C   0  0  0  0  0  0  0  0  0  0  0  0
  179.1750  176.2710  134.6110 C   0  0  0  0  0  1  0  0  0  0  0  0
  183.5060  174.3930  135.6400 C   0  0  0  0  0  3  0  0  0  0  0  0
  182.5070  175.2020  136.0100 C   0  0  1  0  0  3  0  0  0  0  0  0
  180.3030  176.1240  135.5640 C   0  0  0  0  0  0  0  0  0  0  0  0
  184.6450  174.5720  137.8170 C   0  0  0  0  0  3  0  0  0  0  0  0
  184.5730  174.0260  136.5970 C   0  0  0  0  0  3  0  0  0  0  0  0
  181.4730  175.4920  135.1180 O   0  0  0  0  0  0  0  0  0  0  0  0
  179.0050  177.0860  137.3110 O   0  0  0  0  0  1  0  0  0  0  0  0
  182.4800  175.7860  137.3660 C   0  0  0  0  0  0  0  0  0  0  0  0
  187.7820  177.8640  139.5420 C   0  0  0  0  0  0  0  0  0  0  0  0
  188.3410  178.5020  138.4600 F   0  0  0  0  0  0  0  0  0  0  0  0
  187.5510  176.5520  139.1290 F   0  0  0  0  0  0  0  0  0  0  0  0
  189.3010  179.1780  140.9080 F   0  0  0  0  0  0  0  0  0  0  0  0
  188.8720  177.8860  140.6570 C   0  0  1  0  0  3  0  0  0  0  0  0
  188.4690  177.2390  141.9890 C   0  0  0  0  0  2  0  0  0  0  0  0
  188.4740  178.2410  143.1510 C   0  0  0  0  0  2  0  0  0  0  0  0
  191.0690  176.1990  146.0720 C   0  0  2  0  0  3  0  0  0  0  0  0
  188.6620  177.5430  144.5080 C   0  0  2  0  0  3  0  0  0  0  0  0
  191.1800  177.3420  145.0470 C   0  0  2  0  0  3  0  0  0  0  0  0
  187.6460  177.1800  146.7520 O   0  0  0  0  0  0  0  0  0  0  0  0
  189.7530  177.8740  146.7730 C   0  0  1  0  0  3  0  0  0  0  0  0
  187.3890  177.4640  145.3970 C   0  0  1  0  0  3  0  0  0  0  0  0
  189.8840  178.0950  145.2750 C   0  0  2  0  0  3  0  0  0  0  0  0
  188.4340  178.1390  147.2170 O   0  0  0  0  0  0  0  0  0  0  0  0
  190.1280  176.5470  147.0570 O   0  0  0  0  0  0  0  0  0  0  0  0
  192.4150  175.9350  146.7470 C   0  0  0  0  0  2  0  0  0  0  0  0
  192.2220  175.1070  147.8510 O   0  0  0  0  0  1  0  0  0  0  0  0
  191.4250  176.8740  143.6040 C   0  0  0  0  0  2  0  0  0  0  0  0
  192.0240  177.9990  142.7720 C   0  0  0  0  0  2  0  0  0  0  0  0
  192.2760  177.4820  141.3550 C   0  0  0  0  0  1  0  0  0  0  0  0
  186.2080  178.4270  145.1680 C   0  0  0  0  0  2  0  0  0  0  0  0
  184.4040  177.9140  146.8230 O   0  0  0  0  0  0  0  0  0  0  0  0
  185.8320  179.6800  147.1730 O   0  0  0  0  0  1  0  0  0  0  0  0
  185.4630  178.7300  146.4220 C   0  0  0  0  0  0  0  0  0  0  0  0
  1 31  1  6  0  0  0
  1  7  1  0  0  0  0
  2  5  2  0  0  0  0
  3  4  1  6  0  0  0
  3  2  1  0  0  0  0
  5  8  1  0  0  0  0
  6  4  1  6  0  0  0
  6  3  1  0  0  0  0
  6  1  1  0  0  0  0
  7  8  1  0  0  0  0
  9 15  1  0  0  0  0
 10 13  1  0  0  0  0
 11 17  1  0  0  0  0
 11 10  1  0  0  0  0
 11  2  1  1  0  0  0
 12 10  2  0  0  0  0
 12 18  1  0  0  0  0
 13 14  1  1  0  0  0
 13 15  1  0  0  0  0
 16  9  1  0  0  0  0
 17 20  1  6  0  0  0
 17 16  1  0  0  0  0
 18 14  1  0  0  0  0
 21 29  1  0  0  0  0
 21 20  1  0  0  0  0
 22 25  1  0  0  0  0
 23 27  2  0  0  0  0
 24 23  1  1  0  0  0
 24 30  1  0  0  0  0
 25 21  2  0  0  0  0
 26 19  2  0  0  0  0
 27 26  1  0  0  0  0
 28 25  1  0  0  0  0
 28 24  1  0  0  0  0
 30 20  2  0  0  0  0
 30 19  1  0  0  0  0
 31 35  1  0  0  0  0
 32 31  1  0  0  0  0
 33 31  1  0  0  0  0
 35 34  1  1  0  0  0
 35 36  1  0  0  0  0
 36 37  1  0  0  0  0
 38 47  1  1  0  0  0
 38 46  1  0  0  0  0
 39 37  1  6  0  0  0
 39 44  1  0  0  0  0
 39 43  1  0  0  0  0
 40 49  1  6  0  0  0
 40 44  1  0  0  0  0
 40 38  1  0  0  0  0
 41 45  1  0  0  0  0
 42 46  1  6  0  0  0
 42 45  1  0  0  0  0
 43 52  1  1  0  0  0
 43 41  1  0  0  0  0
 44 42  1  0  0  0  0
 47 48  1  0  0  0  0
 50 49  1  0  0  0  0
 51 50  1  0  0  0  0
 52 55  1  0  0  0  0
 55 53  2  0  0  0  0
 55 54  1  0  0  0  0
M  END
>  <MODEL>
9

>  <REMARK>
 VINA RESULT:      -7.4      2.882      6.539
  Name = 
  12 active torsions:
  status: ('A' for Active; 'I' for Inactive)
    1  A    between atoms: C_1  and  C_3
    2  A    between atoms: C_1  and  C_25
    3  A    between atoms: C_4  and  C_27
    4  A    between atoms: C_5  and  C_45
    5  A    between atoms: C_6  and  C_28
    6  A    between atoms: C_6  and  C_48
    7  A    between atoms: C_13  and  C_19
    8  A    between atoms: C_13  and  C_31
    9  A    between atoms: C_17  and  C_22
   10  A    between atoms: C_25  and  C_48
   11  A    between atoms: C_34  and  C_39
   12  A    between atoms: C_39  and  C_47
                            x       y       z     vdW  Elec       q    Type
                         _______ _______ _______ _____ _____    ______ ____

>  <TORSDO>
F 12

$$$$
