=
 OpenBabel11062417223D

 45 50  0  0  1  0  0  0  0  0999 V2000
  183.7030  178.6910  144.6890 C   0  0  0  0  0  3  0  0  0  0  0  0
  182.6220  178.7360  143.8120 C   0  0  0  0  0  0  0  0  0  0  0  0
  184.1590  178.6070  141.9470 C   0  0  0  0  0  3  0  0  0  0  0  0
  182.8420  178.7030  142.4220 C   0  0  0  0  0  0  0  0  0  0  0  0
  180.4660  178.7250  141.9770 N   0  0  0  0  0  0  0  0  0  0  0  0
  181.2480  178.8790  144.3950 C   0  0  0  0  0  3  0  0  0  0  0  0
  185.0240  178.6010  144.2260 C   0  0  0  0  0  0  0  0  0  0  0  0
  180.1730  178.6580  143.3760 C   0  0  0  0  0  0  0  0  0  0  0  0
  181.6740  178.7720  141.4970 C   0  0  0  0  0  0  0  0  0  0  0  0
  178.9460  178.5530  143.7650 N   0  0  0  0  0  1  0  0  0  0  0  0
  185.2520  178.5670  142.8310 C   0  0  0  0  0  0  0  0  0  0  0  0
  182.3660  175.9320  136.9200 C   0  0  0  0  0  2  0  0  0  0  0  0
  181.7820  177.5330  139.2830 C   0  0  2  0  0  3  0  0  0  0  0  0
  180.6230  179.5570  139.3270 C   0  0  2  0  0  3  0  0  0  0  0  0
  181.7920  178.8400  139.9990 C   0  0  1  0  0  3  0  0  0  0  0  0
  181.1470  176.8720  136.9490 C   0  0  2  0  0  3  0  0  0  0  0  0
  182.8800  175.5570  138.3250 C   0  0  0  0  0  2  0  0  0  0  0  0
  183.1020  176.7960  139.2020 C   0  0  0  0  0  2  0  0  0  0  0  0
  181.4330  178.0270  137.9130 C   0  0  1  0  0  3  0  0  0  0  0  0
  180.4120  178.9840  138.0450 O   0  0  0  0  0  0  0  0  0  0  0  0
  180.8540  181.0670  139.2370 C   0  0  1  0  0  3  0  0  0  0  0  0
  181.1290  181.5190  137.8100 C   0  0  0  0  0  1  0  0  0  0  0  0
  179.7410  181.7440  139.7390 O   0  0  0  0  0  1  0  0  0  0  0  0
  179.8640  176.1110  137.2820 C   0  0  0  0  0  2  0  0  0  0  0  0
  180.0500  174.7850  135.0660 C   0  0  0  0  0  2  0  0  0  0  0  0
  179.6090  172.3150  135.0400 C   0  0  2  0  0  3  0  0  0  0  0  0
  180.1650  171.0740  134.7190 O   0  0  0  0  0  1  0  0  0  0  0  0
  180.5620  173.4220  134.5940 C   0  0  0  0  0  2  0  0  0  0  0  0
  179.8320  174.8070  136.5550 C   0  0  0  0  0  0  0  0  0  0  0  0
  179.4690  173.7030  137.2100 C   0  0  0  0  0  3  0  0  0  0  0  0
  178.9510  171.4000  137.1650 O   0  0  0  0  0  0  0  0  0  0  0  0
  179.3480  172.4090  136.5230 C   0  0  0  0  0  0  0  0  0  0  0  0
  187.3340  177.8260  144.8460 C   0  0  0  0  0  2  0  0  0  0  0  0
  186.1040  178.5540  145.1850 N   0  0  0  0  0  0  0  0  0  0  0  0
  187.6580  177.5220  147.3290 C   0  0  0  0  0  2  0  0  0  0  0  0
  188.3410  177.8530  145.9990 C   0  0  1  0  0  3  0  0  0  0  0  0
  186.4460  178.4230  147.6160 C   0  0  0  0  0  2  0  0  0  0  0  0
  186.0520  179.3140  146.4350 C   0  0  0  0  0  2  0  0  0  0  0  0
  190.5480  177.2240  144.8640 C   0  0  0  0  0  0  0  0  0  0  0  0
  189.4500  176.9380  145.7390 N   0  0  0  0  0  2  0  0  0  0  0  0
  190.5900  178.3010  144.2120 O   0  0  0  0  0  0  0  0  0  0  0  0
  191.6510  176.2380  144.7270 C   0  0  0  0  0  1  0  0  0  0  0  0
  186.5600  178.5400  142.3350 O   0  0  0  0  0  0  0  0  0  0  0  0
  186.8710  178.2870  140.9720 C   0  0  0  0  0  2  0  0  0  0  0  0
  188.3470  178.5480  140.7350 C   0  0  0  0  0  1  0  0  0  0  0  0
  2  6  1  0  0  0  0
  2  1  2  0  0  0  0
  3  4  2  0  0  0  0
  3 11  1  0  0  0  0
  4  2  1  0  0  0  0
  5  8  1  0  0  0  0
  7  1  1  0  0  0  0
  7 34  1  0  0  0  0
  8 10  1  0  0  0  0
  8  6  2  0  0  0  0
  9  5  2  0  0  0  0
  9  4  1  0  0  0  0
 11  7  2  0  0  0  0
 12 16  1  0  0  0  0
 12 17  1  0  0  0  0
 13 18  1  6  0  0  0
 13 15  1  0  0  0  0
 14 21  1  6  0  0  0
 14 15  1  0  0  0  0
 15  9  1  1  0  0  0
 16 24  1  1  0  0  0
 16 19  1  0  0  0  0
 17 18  1  0  0  0  0
 19 20  1  1  0  0  0
 19 13  1  0  0  0  0
 20 14  1  0  0  0  0
 21 22  1  6  0  0  0
 21 23  1  0  0  0  0
 25 29  1  0  0  0  0
 26 27  1  1  0  0  0
 26 32  1  0  0  0  0
 28 26  1  0  0  0  0
 28 25  1  0  0  0  0
 29 30  2  0  0  0  0
 29 24  1  0  0  0  0
 32 31  2  0  0  0  0
 32 30  1  0  0  0  0
 33 34  1  0  0  0  0
 33 36  1  0  0  0  0
 34 38  1  0  0  0  0
 35 37  1  0  0  0  0
 36 40  1  6  0  0  0
 36 35  1  0  0  0  0
 38 37  1  0  0  0  0
 39 40  1  0  0  0  0
 41 39  2  0  0  0  0
 42 39  1  0  0  0  0
 43 11  1  0  0  0  0
 44 43  1  0  0  0  0
 45 44  1  0  0  0  0
M  END
>  <MODEL>
1

>  <REMARK>
 VINA RESULT:      -8.4      0.000      0.000
  Name = 
  8 active torsions:
  status: ('A' for Active; 'I' for Inactive)
    1  A    between atoms: N_3  and  C_15
    2  A    between atoms: C_9  and  O_25
    3  A    between atoms: C_16  and  C_20
    4  A    between atoms: C_18  and  C_21
    5  A    between atoms: C_22  and  C_30
    6  A    between atoms: C_24  and  N_31
    7  A    between atoms: O_25  and  C_44
    8  A    between atoms: C_30  and  C_34
                            x       y       z     vdW  Elec       q    Type
                         _______ _______ _______ _____ _____    ______ ____

>  <TORSDO>
F 8

$$$$
=
 OpenBabel11062417223D

 45 50  0  0  1  0  0  0  0  0999 V2000
  191.7760  177.0820  140.9590 C   0  0  0  0  0  3  0  0  0  0  0  0
  191.8560  176.8510  139.5880 C   0  0  0  0  0  0  0  0  0  0  0  0
  189.4480  177.0390  139.4380 C   0  0  0  0  0  3  0  0  0  0  0  0
  190.6830  176.8180  138.8110 C   0  0  0  0  0  0  0  0  0  0  0  0
  191.9560  176.4850  136.7820 N   0  0  0  0  0  0  0  0  0  0  0  0
  193.2080  176.5850  138.9970 C   0  0  0  0  0  3  0  0  0  0  0  0
  190.5460  177.2980  141.5990 C   0  0  0  0  0  0  0  0  0  0  0  0
  193.1870  176.6090  137.4990 C   0  0  0  0  0  0  0  0  0  0  0  0
  190.7860  176.5500  137.3460 C   0  0  0  0  0  0  0  0  0  0  0  0
  194.3050  176.5930  136.8520 N   0  0  0  0  0  1  0  0  0  0  0  0
  189.3640  177.2660  140.8240 C   0  0  0  0  0  0  0  0  0  0  0  0
  187.4740  173.0500  134.8410 C   0  0  0  0  0  2  0  0  0  0  0  0
  189.0530  175.0180  136.2970 C   0  0  2  0  0  3  0  0  0  0  0  0
  188.3640  177.1600  136.9110 C   0  0  2  0  0  3  0  0  0  0  0  0
  189.5980  176.3980  136.4350 C   0  0  1  0  0  3  0  0  0  0  0  0
  186.7860  174.1330  135.6930 C   0  0  2  0  0  3  0  0  0  0  0  0
  188.9440  172.8060  135.2370 C   0  0  0  0  0  2  0  0  0  0  0  0
  189.7450  174.1140  135.2980 C   0  0  0  0  0  2  0  0  0  0  0  0
  187.6970  175.3620  135.7630 C   0  0  1  0  0  3  0  0  0  0  0  0
  187.2040  176.4500  136.5030 O   0  0  0  0  0  0  0  0  0  0  0  0
  188.3500  178.6020  136.3980 C   0  0  1  0  0  3  0  0  0  0  0  0
  186.9530  179.0510  135.9940 C   0  0  0  0  0  1  0  0  0  0  0  0
  188.8520  179.4560  137.3830 O   0  0  0  0  0  1  0  0  0  0  0  0
  186.3920  173.5940  137.0670 C   0  0  0  0  0  2  0  0  0  0  0  0
  184.4960  171.9180  136.5230 C   0  0  0  0  0  2  0  0  0  0  0  0
  182.1030  172.5520  136.9340 C   0  0  2  0  0  3  0  0  0  0  0  0
  180.9390  172.1810  137.6110 O   0  0  0  0  0  1  0  0  0  0  0  0
  183.1630  171.4700  137.1280 C   0  0  0  0  0  2  0  0  0  0  0  0
  184.9410  173.2390  137.0880 C   0  0  0  0  0  0  0  0  0  0  0  0
  184.0510  174.1550  137.4720 C   0  0  0  0  0  3  0  0  0  0  0  0
  181.7950  174.7900  137.7590 O   0  0  0  0  0  0  0  0  0  0  0  0
  182.6060  173.8810  137.4380 C   0  0  0  0  0  0  0  0  0  0  0  0
  191.3940  176.7350  143.8970 C   0  0  0  0  0  2  0  0  0  0  0  0
  190.5270  177.5360  143.0240 N   0  0  0  0  0  0  0  0  0  0  0  0
  189.7170  177.1900  145.7250 C   0  0  0  0  0  2  0  0  0  0  0  0
  191.2040  177.1020  145.3720 C   0  0  1  0  0  3  0  0  0  0  0  0
  188.9410  178.1420  144.8010 C   0  0  0  0  0  2  0  0  0  0  0  0
  189.7580  178.6380  143.6070 C   0  0  0  0  0  2  0  0  0  0  0  0
  192.1190  176.3380  147.6370 C   0  0  0  0  0  0  0  0  0  0  0  0
  191.8920  176.1460  146.2360 N   0  0  0  0  0  2  0  0  0  0  0  0
  191.7680  177.4050  148.2080 O   0  0  0  0  0  0  0  0  0  0  0  0
  192.7770  175.2650  148.4260 C   0  0  0  0  0  1  0  0  0  0  0  0
  188.1170  177.4160  141.4400 O   0  0  0  0  0  0  0  0  0  0  0  0
  187.1900  178.4320  141.0860 C   0  0  0  0  0  2  0  0  0  0  0  0
  186.1200  178.5330  142.1570 C   0  0  0  0  0  1  0  0  0  0  0  0
  1  7  1  0  0  0  0
  2  1  2  0  0  0  0
  3 11  1  0  0  0  0
  4  3  2  0  0  0  0
  4  2  1  0  0  0  0
  5  9  2  0  0  0  0
  5  8  1  0  0  0  0
  6  2  1  0  0  0  0
  7 34  1  0  0  0  0
  8  6  2  0  0  0  0
  9  4  1  0  0  0  0
 10  8  1  0  0  0  0
 11 43  1  0  0  0  0
 11  7  2  0  0  0  0
 12 17  1  0  0  0  0
 12 16  1  0  0  0  0
 13 18  1  6  0  0  0
 13 15  1  0  0  0  0
 14 21  1  6  0  0  0
 15 14  1  0  0  0  0
 15  9  1  1  0  0  0
 16 19  1  0  0  0  0
 16 24  1  1  0  0  0
 17 18  1  0  0  0  0
 19 13  1  0  0  0  0
 19 20  1  1  0  0  0
 20 14  1  0  0  0  0
 21 22  1  1  0  0  0
 21 23  1  0  0  0  0
 24 29  1  0  0  0  0
 25 29  1  0  0  0  0
 25 28  1  0  0  0  0
 26 28  1  0  0  0  0
 26 32  1  0  0  0  0
 26 27  1  1  0  0  0
 29 30  2  0  0  0  0
 32 30  1  0  0  0  0
 32 31  2  0  0  0  0
 33 36  1  0  0  0  0
 34 38  1  0  0  0  0
 34 33  1  0  0  0  0
 36 35  1  0  0  0  0
 36 40  1  1  0  0  0
 37 35  1  0  0  0  0
 38 37  1  0  0  0  0
 39 41  2  0  0  0  0
 39 42  1  0  0  0  0
 40 39  1  0  0  0  0
 44 43  1  0  0  0  0
 44 45  1  0  0  0  0
M  END
>  <MODEL>
2

>  <REMARK>
 VINA RESULT:      -8.2      4.468      7.302
  Name = 
  8 active torsions:
  status: ('A' for Active; 'I' for Inactive)
    1  A    between atoms: N_3  and  C_15
    2  A    between atoms: C_9  and  O_25
    3  A    between atoms: C_16  and  C_20
    4  A    between atoms: C_18  and  C_21
    5  A    between atoms: C_22  and  C_30
    6  A    between atoms: C_24  and  N_31
    7  A    between atoms: O_25  and  C_44
    8  A    between atoms: C_30  and  C_34
                            x       y       z     vdW  Elec       q    Type
                         _______ _______ _______ _____ _____    ______ ____

>  <TORSDO>
F 8

$$$$
=
 OpenBabel11062417223D

 45 50  0  0  1  0  0  0  0  0999 V2000
  186.6140  178.3530  142.0930 C   0  0  0  0  0  3  0  0  0  0  0  0
  186.1520  178.3000  140.7800 C   0  0  0  0  0  0  0  0  0  0  0  0
  183.8780  178.2640  141.6040 C   0  0  0  0  0  3  0  0  0  0  0  0
  184.7700  178.2450  140.5220 C   0  0  0  0  0  0  0  0  0  0  0  0
  185.1460  178.2880  138.1340 N   0  0  0  0  0  0  0  0  0  0  0  0
  187.1690  178.2430  139.6790 C   0  0  0  0  0  3  0  0  0  0  0  0
  185.7310  178.3660  143.1830 C   0  0  0  0  0  0  0  0  0  0  0  0
  186.5540  178.4460  138.3280 C   0  0  0  0  0  0  0  0  0  0  0  0
  184.2950  178.1680  139.1090 C   0  0  0  0  0  0  0  0  0  0  0  0
  187.3230  178.6200  137.3050 N   0  0  0  0  0  1  0  0  0  0  0  0
  184.3410  178.3110  142.9310 C   0  0  0  0  0  0  0  0  0  0  0  0
  179.5780  180.7180  138.2460 C   0  0  0  0  0  2  0  0  0  0  0  0
  182.0970  179.2730  138.4770 C   0  0  2  0  0  3  0  0  0  0  0  0
  182.6560  177.2890  137.3850 C   0  0  2  0  0  3  0  0  0  0  0  0
  182.8500  178.0100  138.7170 C   0  0  1  0  0  3  0  0  0  0  0  0
  180.0740  179.8160  137.1000 C   0  0  2  0  0  3  0  0  0  0  0  0
  180.7030  181.1590  139.2040 C   0  0  0  0  0  2  0  0  0  0  0  0
  181.5320  179.9670  139.6990 C   0  0  0  0  0  2  0  0  0  0  0  0
  180.9580  178.7110  137.6850 C   0  0  1  0  0  3  0  0  0  0  0  0
  181.4850  177.7930  136.7600 O   0  0  0  0  0  0  0  0  0  0  0  0
  182.5910  175.7710  137.5620 C   0  0  1  0  0  3  0  0  0  0  0  0
  181.5120  175.3560  138.5530 C   0  0  0  0  0  1  0  0  0  0  0  0
  182.3530  175.1630  136.3270 O   0  0  0  0  0  1  0  0  0  0  0  0
  180.7670  180.6310  136.0090 C   0  0  0  0  0  2  0  0  0  0  0  0
  179.3350  182.7490  135.6020 C   0  0  0  0  0  2  0  0  0  0  0  0
  180.1130  184.9740  136.4630 C   0  0  2  0  0  3  0  0  0  0  0  0
  179.7610  186.0540  137.2760 O   0  0  0  0  0  1  0  0  0  0  0  0
  178.9310  184.0140  136.3630 C   0  0  0  0  0  2  0  0  0  0  0  0
  180.5350  182.0900  136.2270 C   0  0  0  0  0  0  0  0  0  0  0  0
  181.4680  182.8140  136.8480 C   0  0  0  0  0  3  0  0  0  0  0  0
  182.2510  184.9230  137.5650 O   0  0  0  0  0  0  0  0  0  0  0  0
  181.3230  184.2670  137.0190 C   0  0  0  0  0  0  0  0  0  0  0  0
  187.4950  177.6810  144.8380 C   0  0  0  0  0  2  0  0  0  0  0  0
  186.2700  178.4270  144.5230 N   0  0  0  0  0  0  0  0  0  0  0  0
  186.6700  177.6320  147.2210 C   0  0  0  0  0  2  0  0  0  0  0  0
  187.8850  177.8340  146.3120 C   0  0  1  0  0  3  0  0  0  0  0  0
  185.4910  178.5460  146.8510 C   0  0  0  0  0  2  0  0  0  0  0  0
  185.6960  179.3090  145.5410 C   0  0  0  0  0  2  0  0  0  0  0  0
  190.3450  177.1250  146.3650 C   0  0  0  0  0  0  0  0  0  0  0  0
  188.9600  176.9080  146.6610 N   0  0  0  0  0  2  0  0  0  0  0  0
  190.7140  178.1420  145.7190 O   0  0  0  0  0  0  0  0  0  0  0  0
  191.3560  176.1390  146.8250 C   0  0  0  0  0  1  0  0  0  0  0  0
  183.4370  178.2610  143.9970 O   0  0  0  0  0  0  0  0  0  0  0  0
  182.4170  179.2280  144.2000 C   0  0  0  0  0  2  0  0  0  0  0  0
  181.1130  178.7160  143.6190 C   0  0  0  0  0  1  0  0  0  0  0  0
  1  7  1  0  0  0  0
  2  1  2  0  0  0  0
  3 11  1  0  0  0  0
  4  2  1  0  0  0  0
  4  3  2  0  0  0  0
  5  8  1  0  0  0  0
  5  9  2  0  0  0  0
  6  2  1  0  0  0  0
  7 34  1  0  0  0  0
  8  6  2  0  0  0  0
  9  4  1  0  0  0  0
 10  8  1  0  0  0  0
 11  7  2  0  0  0  0
 11 43  1  0  0  0  0
 12 17  1  0  0  0  0
 13 15  1  0  0  0  0
 13 18  1  1  0  0  0
 14 21  1  1  0  0  0
 14 15  1  0  0  0  0
 15  9  1  6  0  0  0
 16 24  1  6  0  0  0
 16 19  1  0  0  0  0
 16 12  1  0  0  0  0
 17 18  1  0  0  0  0
 19 20  1  6  0  0  0
 19 13  1  0  0  0  0
 20 14  1  0  0  0  0
 21 22  1  1  0  0  0
 23 21  1  0  0  0  0
 24 29  1  0  0  0  0
 25 29  1  0  0  0  0
 25 28  1  0  0  0  0
 26 32  1  0  0  0  0
 26 27  1  1  0  0  0
 28 26  1  0  0  0  0
 29 30  2  0  0  0  0
 30 32  1  0  0  0  0
 32 31  2  0  0  0  0
 33 36  1  0  0  0  0
 34 33  1  0  0  0  0
 34 38  1  0  0  0  0
 36 40  1  1  0  0  0
 36 35  1  0  0  0  0
 37 35  1  0  0  0  0
 38 37  1  0  0  0  0
 39 40  1  0  0  0  0
 39 42  1  0  0  0  0
 41 39  2  0  0  0  0
 43 44  1  0  0  0  0
 45 44  1  0  0  0  0
M  END
>  <MODEL>
3

>  <REMARK>
 VINA RESULT:      -7.9      2.659      6.292
  Name = 
  8 active torsions:
  status: ('A' for Active; 'I' for Inactive)
    1  A    between atoms: N_3  and  C_15
    2  A    between atoms: C_9  and  O_25
    3  A    between atoms: C_16  and  C_20
    4  A    between atoms: C_18  and  C_21
    5  A    between atoms: C_22  and  C_30
    6  A    between atoms: C_24  and  N_31
    7  A    between atoms: O_25  and  C_44
    8  A    between atoms: C_30  and  C_34
                            x       y       z     vdW  Elec       q    Type
                         _______ _______ _______ _____ _____    ______ ____

>  <TORSDO>
F 8

$$$$
=
 OpenBabel11062417223D

 45 50  0  0  1  0  0  0  0  0999 V2000
  183.6080  178.6950  144.2150 C   0  0  0  0  0  3  0  0  0  0  0  0
  182.6020  178.6280  143.2530 C   0  0  0  0  0  0  0  0  0  0  0  0
  184.2550  177.9930  141.6030 C   0  0  0  0  0  3  0  0  0  0  0  0
  182.9210  178.2830  141.9270 C   0  0  0  0  0  0  0  0  0  0  0  0
  180.5950  178.3780  141.2730 N   0  0  0  0  0  0  0  0  0  0  0  0
  181.2070  178.9900  143.6670 C   0  0  0  0  0  3  0  0  0  0  0  0
  184.9460  178.4130  143.9020 C   0  0  0  0  0  0  0  0  0  0  0  0
  180.1950  178.6330  142.6230 C   0  0  0  0  0  0  0  0  0  0  0  0
  181.8340  178.2350  140.9050 C   0  0  0  0  0  0  0  0  0  0  0  0
  178.9380  178.7010  142.9120 N   0  0  0  0  0  1  0  0  0  0  0  0
  185.2720  178.0660  142.5710 C   0  0  0  0  0  0  0  0  0  0  0  0
  185.5460  177.7730  136.9680 C   0  0  0  0  0  2  0  0  0  0  0  0
  183.4880  177.7910  139.0290 C   0  0  2  0  0  3  0  0  0  0  0  0
  181.4460  176.6670  138.9510 C   0  0  2  0  0  3  0  0  0  0  0  0
  182.0680  177.9720  139.4420 C   0  0  1  0  0  3  0  0  0  0  0  0
  184.5660  176.5940  137.1090 C   0  0  2  0  0  3  0  0  0  0  0  0
  185.6600  178.6260  138.2480 C   0  0  0  0  0  2  0  0  0  0  0  0
  184.2840  179.0540  138.7740 C   0  0  0  0  0  2  0  0  0  0  0  0
  183.2580  177.1050  137.7190 C   0  0  1  0  0  3  0  0  0  0  0  0
  182.2500  176.1440  137.9050 O   0  0  0  0  0  0  0  0  0  0  0  0
  179.9950  176.8570  138.5040 C   0  0  1  0  0  3  0  0  0  0  0  0
  179.7950  178.1660  137.7540 C   0  0  0  0  0  1  0  0  0  0  0  0
  179.6080  175.7880  137.6950 O   0  0  0  0  0  1  0  0  0  0  0  0
  185.1900  175.4420  137.8960 C   0  0  0  0  0  2  0  0  0  0  0  0
  185.7700  174.0380  135.8000 C   0  0  0  0  0  2  0  0  0  0  0  0
  184.7480  171.7670  135.4870 C   0  0  2  0  0  3  0  0  0  0  0  0
  185.0420  170.4140  135.3010 O   0  0  0  0  0  1  0  0  0  0  0  0
  186.0440  172.5730  135.4510 C   0  0  0  0  0  2  0  0  0  0  0  0
  185.0740  174.1670  137.1270 C   0  0  0  0  0  0  0  0  0  0  0  0
  184.2400  173.2180  137.5590 C   0  0  0  0  0  3  0  0  0  0  0  0
  183.1980  171.1280  137.2120 O   0  0  0  0  0  0  0  0  0  0  0  0
  184.0320  171.9770  136.7980 C   0  0  0  0  0  0  0  0  0  0  0  0
  187.2120  177.7730  144.7820 C   0  0  0  0  0  2  0  0  0  0  0  0
  185.9440  178.4960  144.9440 N   0  0  0  0  0  0  0  0  0  0  0  0
  187.3360  177.7340  147.3010 C   0  0  0  0  0  2  0  0  0  0  0  0
  188.1200  177.9470  146.0040 C   0  0  1  0  0  3  0  0  0  0  0  0
  186.0870  178.6250  147.3950 C   0  0  0  0  0  2  0  0  0  0  0  0
  185.7740  179.3790  146.1000 C   0  0  0  0  0  2  0  0  0  0  0  0
  190.5110  177.3610  145.3000 C   0  0  0  0  0  0  0  0  0  0  0  0
  189.2650  177.0420  145.9300 N   0  0  0  0  0  2  0  0  0  0  0  0
  190.6720  178.4640  144.7110 O   0  0  0  0  0  0  0  0  0  0  0  0
  191.6260  176.3810  145.3420 C   0  0  0  0  0  1  0  0  0  0  0  0
  186.6050  177.8400  142.2120 O   0  0  0  0  0  0  0  0  0  0  0  0
  187.3240  178.6760  141.3170 C   0  0  0  0  0  2  0  0  0  0  0  0
  188.4700  177.8930  140.7060 C   0  0  0  0  0  1  0  0  0  0  0  0
  2  6  1  0  0  0  0
  2  1  2  0  0  0  0
  3  4  2  0  0  0  0
  3 11  1  0  0  0  0
  4  2  1  0  0  0  0
  5  8  1  0  0  0  0
  7  1  1  0  0  0  0
  7 34  1  0  0  0  0
  8 10  1  0  0  0  0
  8  6  2  0  0  0  0
  9  5  2  0  0  0  0
  9  4  1  0  0  0  0
 11  7  2  0  0  0  0
 12 16  1  0  0  0  0
 12 17  1  0  0  0  0
 13 18  1  6  0  0  0
 13 15  1  0  0  0  0
 14 21  1  6  0  0  0
 14 15  1  0  0  0  0
 15  9  1  1  0  0  0
 16 19  1  0  0  0  0
 16 24  1  1  0  0  0
 17 18  1  0  0  0  0
 19 20  1  1  0  0  0
 19 13  1  0  0  0  0
 20 14  1  0  0  0  0
 21 22  1  6  0  0  0
 23 21  1  0  0  0  0
 25 29  1  0  0  0  0
 26 27  1  1  0  0  0
 26 32  1  0  0  0  0
 28 26  1  0  0  0  0
 28 25  1  0  0  0  0
 29 30  2  0  0  0  0
 29 24  1  0  0  0  0
 32 31  2  0  0  0  0
 32 30  1  0  0  0  0
 33 34  1  0  0  0  0
 33 36  1  0  0  0  0
 34 38  1  0  0  0  0
 35 37  1  0  0  0  0
 36 40  1  6  0  0  0
 36 35  1  0  0  0  0
 38 37  1  0  0  0  0
 39 42  1  0  0  0  0
 39 40  1  0  0  0  0
 41 39  2  0  0  0  0
 43 11  1  0  0  0  0
 44 43  1  0  0  0  0
 45 44  1  0  0  0  0
M  END
>  <MODEL>
4

>  <REMARK>
 VINA RESULT:      -7.7      2.300      2.965
  Name = 
  8 active torsions:
  status: ('A' for Active; 'I' for Inactive)
    1  A    between atoms: N_3  and  C_15
    2  A    between atoms: C_9  and  O_25
    3  A    between atoms: C_16  and  C_20
    4  A    between atoms: C_18  and  C_21
    5  A    between atoms: C_22  and  C_30
    6  A    between atoms: C_24  and  N_31
    7  A    between atoms: O_25  and  C_44
    8  A    between atoms: C_30  and  C_34
                            x       y       z     vdW  Elec       q    Type
                         _______ _______ _______ _____ _____    ______ ____

>  <TORSDO>
F 8

$$$$
=
 OpenBabel11062417223D

 45 50  0  0  1  0  0  0  0  0999 V2000
  184.2080  177.2800  137.4290 C   0  0  0  0  0  3  0  0  0  0  0  0
  185.4640  176.7390  137.1590 C   0  0  0  0  0  0  0  0  0  0  0  0
  186.3960  178.0620  138.9570 C   0  0  0  0  0  3  0  0  0  0  0  0
  186.5790  177.1350  137.9210 C   0  0  0  0  0  0  0  0  0  0  0  0
  188.0220  175.6070  136.7260 N   0  0  0  0  0  0  0  0  0  0  0  0
  185.5850  175.7840  136.0090 C   0  0  0  0  0  3  0  0  0  0  0  0
  184.0150  178.2120  138.4590 C   0  0  0  0  0  0  0  0  0  0  0  0
  186.9120  175.0890  135.9880 C   0  0  0  0  0  0  0  0  0  0  0  0
  187.9190  176.5610  137.6040 C   0  0  0  0  0  0  0  0  0  0  0  0
  187.0920  174.0980  135.1790 N   0  0  0  0  0  1  0  0  0  0  0  0
  185.1310  178.6140  139.2280 C   0  0  0  0  0  0  0  0  0  0  0  0
  190.1250  178.6120  142.1230 C   0  0  0  0  0  2  0  0  0  0  0  0
  189.0810  177.3140  139.7330 C   0  0  2  0  0  3  0  0  0  0  0  0
  190.2560  175.8830  138.3150 C   0  0  2  0  0  3  0  0  0  0  0  0
  189.1940  176.9790  138.2850 C   0  0  1  0  0  3  0  0  0  0  0  0
  190.7290  177.2870  141.6220 C   0  0  2  0  0  3  0  0  0  0  0  0
  188.7000  178.8700  141.5930 C   0  0  0  0  0  2  0  0  0  0  0  0
  188.6200  178.7170  140.0680 C   0  0  0  0  0  2  0  0  0  0  0  0
  190.5260  177.1900  140.1080 C   0  0  1  0  0  3  0  0  0  0  0  0
  191.0340  176.0330  139.4930 O   0  0  0  0  0  0  0  0  0  0  0  0
  191.1300  175.9000  137.0580 C   0  0  1  0  0  3  0  0  0  0  0  0
  192.5460  176.3720  137.3530 C   0  0  0  0  0  1  0  0  0  0  0  0
  191.1680  174.6230  136.4940 O   0  0  0  0  0  1  0  0  0  0  0  0
  190.1620  176.0910  142.3870 C   0  0  0  0  0  2  0  0  0  0  0  0
  191.3560  176.0890  144.6830 C   0  0  0  0  0  2  0  0  0  0  0  0
  190.0990  176.7490  146.7520 C   0  0  2  0  0  3  0  0  0  0  0  0
  190.0880  177.6380  147.8300 O   0  0  0  0  0  1  0  0  0  0  0  0
  191.3840  176.9440  145.9530 C   0  0  0  0  0  2  0  0  0  0  0  0
  190.1360  176.3780  143.8520 C   0  0  0  0  0  0  0  0  0  0  0  0
  188.9890  176.7490  144.4240 C   0  0  0  0  0  3  0  0  0  0  0  0
  187.7790  177.2670  146.3840 O   0  0  0  0  0  0  0  0  0  0  0  0
  188.8920  176.9690  145.8750 C   0  0  0  0  0  0  0  0  0  0  0  0
  182.4050  180.1400  138.3800 C   0  0  0  0  0  2  0  0  0  0  0  0
  182.6880  178.7340  138.6940 N   0  0  0  0  0  0  0  0  0  0  0  0
  180.5930  180.0080  140.1310 C   0  0  0  0  0  2  0  0  0  0  0  0
  180.9630  180.5180  138.7350 C   0  0  1  0  0  3  0  0  0  0  0  0
  180.8390  178.4990  140.2970 C   0  0  0  0  0  2  0  0  0  0  0  0
  181.5870  177.8670  139.1210 C   0  0  0  0  0  2  0  0  0  0  0  0
  180.5340  182.6680  137.4130 C   0  0  0  0  0  0  0  0  0  0  0  0
  180.7680  181.9630  138.6380 N   0  0  0  0  0  2  0  0  0  0  0  0
  180.5340  182.0610  136.3090 O   0  0  0  0  0  0  0  0  0  0  0  0
  180.2880  184.1330  137.4470 C   0  0  0  0  0  1  0  0  0  0  0  0
  184.9830  179.5870  140.2220 O   0  0  0  0  0  0  0  0  0  0  0  0
  185.2290  179.3390  141.5990 C   0  0  0  0  0  2  0  0  0  0  0  0
  184.3180  178.2260  142.0810 C   0  0  0  0  0  1  0  0  0  0  0  0
  1  7  1  0  0  0  0
  2  1  2  0  0  0  0
  2  4  1  0  0  0  0
  3 11  1  0  0  0  0
  4  3  2  0  0  0  0
  5  9  2  0  0  0  0
  6  2  1  0  0  0  0
  7 34  1  0  0  0  0
  7 11  2  0  0  0  0
  8  6  2  0  0  0  0
  8  5  1  0  0  0  0
  9  4  1  0  0  0  0
 10  8  1  0  0  0  0
 11 43  1  0  0  0  0
 13 18  1  6  0  0  0
 13 19  1  0  0  0  0
 14 21  1  6  0  0  0
 14 20  1  0  0  0  0
 15  9  1  1  0  0  0
 15 14  1  0  0  0  0
 15 13  1  0  0  0  0
 16 12  1  0  0  0  0
 16 24  1  1  0  0  0
 17 12  1  0  0  0  0
 18 17  1  0  0  0  0
 19 20  1  1  0  0  0
 19 16  1  0  0  0  0
 21 22  1  1  0  0  0
 23 21  1  0  0  0  0
 24 29  1  0  0  0  0
 25 28  1  0  0  0  0
 26 27  1  1  0  0  0
 28 26  1  0  0  0  0
 29 30  2  0  0  0  0
 29 25  1  0  0  0  0
 30 32  1  0  0  0  0
 32 31  2  0  0  0  0
 32 26  1  0  0  0  0
 33 34  1  0  0  0  0
 33 36  1  0  0  0  0
 34 38  1  0  0  0  0
 35 37  1  0  0  0  0
 36 40  1  1  0  0  0
 36 35  1  0  0  0  0
 38 37  1  0  0  0  0
 39 42  1  0  0  0  0
 39 40  1  0  0  0  0
 41 39  2  0  0  0  0
 43 44  1  0  0  0  0
 44 45  1  0  0  0  0
M  END
>  <MODEL>
5

>  <REMARK>
 VINA RESULT:      -7.5      4.216     10.701
  Name = 
  8 active torsions:
  status: ('A' for Active; 'I' for Inactive)
    1  A    between atoms: N_3  and  C_15
    2  A    between atoms: C_9  and  O_25
    3  A    between atoms: C_16  and  C_20
    4  A    between atoms: C_18  and  C_21
    5  A    between atoms: C_22  and  C_30
    6  A    between atoms: C_24  and  N_31
    7  A    between atoms: O_25  and  C_44
    8  A    between atoms: C_30  and  C_34
                            x       y       z     vdW  Elec       q    Type
                         _______ _______ _______ _____ _____    ______ ____

>  <TORSDO>
F 8

$$$$
=
 OpenBabel11062417223D

 45 50  0  0  1  0  0  0  0  0999 V2000
  184.1540  177.1440  137.5350 C   0  0  0  0  0  3  0  0  0  0  0  0
  185.4060  176.5950  137.2660 C   0  0  0  0  0  0  0  0  0  0  0  0
  186.3620  177.9800  139.0040 C   0  0  0  0  0  3  0  0  0  0  0  0
  186.5310  177.0190  137.9980 C   0  0  0  0  0  0  0  0  0  0  0  0
  187.9600  175.4510  136.8360 N   0  0  0  0  0  0  0  0  0  0  0  0
  185.5130  175.6020  136.1480 C   0  0  0  0  0  3  0  0  0  0  0  0
  183.9740  178.1100  138.5350 C   0  0  0  0  0  0  0  0  0  0  0  0
  186.8400  174.9070  136.1310 C   0  0  0  0  0  0  0  0  0  0  0  0
  187.8680  176.4350  137.6820 C   0  0  0  0  0  0  0  0  0  0  0  0
  187.0110  173.8890  135.3540 N   0  0  0  0  0  1  0  0  0  0  0  0
  185.1000  178.5400  139.2740 C   0  0  0  0  0  0  0  0  0  0  0  0
  190.1400  178.5960  142.1160 C   0  0  0  0  0  2  0  0  0  0  0  0
  189.0630  177.2410  139.7730 C   0  0  2  0  0  3  0  0  0  0  0  0
  190.2240  175.7910  138.3630 C   0  0  2  0  0  3  0  0  0  0  0  0
  189.1520  176.8770  138.3310 C   0  0  1  0  0  3  0  0  0  0  0  0
  190.7460  177.2660  141.6310 C   0  0  2  0  0  3  0  0  0  0  0  0
  188.7030  178.8320  141.6080 C   0  0  0  0  0  2  0  0  0  0  0  0
  188.5960  178.6470  140.0880 C   0  0  0  0  0  2  0  0  0  0  0  0
  190.5150  177.1360  140.1230 C   0  0  1  0  0  3  0  0  0  0  0  0
  191.0220  175.9710  139.5230 O   0  0  0  0  0  0  0  0  0  0  0  0
  191.0740  175.7890  137.0900 C   0  0  1  0  0  3  0  0  0  0  0  0
  192.4650  176.3580  137.3300 C   0  0  0  0  0  1  0  0  0  0  0  0
  191.1770  174.4870  136.5950 O   0  0  0  0  0  1  0  0  0  0  0  0
  190.2040  176.0820  142.4300 C   0  0  0  0  0  2  0  0  0  0  0  0
  191.2960  176.2040  144.7740 C   0  0  0  0  0  2  0  0  0  0  0  0
  189.9390  176.9340  146.7550 C   0  0  2  0  0  3  0  0  0  0  0  0
  189.8680  177.8710  147.7890 O   0  0  0  0  0  1  0  0  0  0  0  0
  191.2560  177.1150  146.0030 C   0  0  0  0  0  2  0  0  0  0  0  0
  190.1090  176.4340  143.8780 C   0  0  0  0  0  0  0  0  0  0  0  0
  188.9320  176.8100  144.3830 C   0  0  0  0  0  3  0  0  0  0  0  0
  187.6300  177.3940  146.2640 O   0  0  0  0  0  0  0  0  0  0  0  0
  188.7690  177.0930  145.8170 C   0  0  0  0  0  0  0  0  0  0  0  0
  182.0260  178.4520  140.0870 C   0  0  0  0  0  2  0  0  0  0  0  0
  182.6500  178.6390  138.7710 N   0  0  0  0  0  0  0  0  0  0  0  0
  179.8110  178.6300  138.8930 C   0  0  0  0  0  2  0  0  0  0  0  0
  180.6130  179.0420  140.1300 C   0  0  1  0  0  3  0  0  0  0  0  0
  180.5270  178.9750  137.5780 C   0  0  0  0  0  2  0  0  0  0  0  0
  181.9650  179.4630  137.7720 C   0  0  0  0  0  2  0  0  0  0  0  0
  180.1560  179.2320  142.6420 C   0  0  0  0  0  0  0  0  0  0  0  0
  179.9250  178.6450  141.3560 N   0  0  0  0  0  2  0  0  0  0  0  0
  181.0360  180.1210  142.7960 O   0  0  0  0  0  0  0  0  0  0  0  0
  179.3490  178.7870  143.8070 C   0  0  0  0  0  1  0  0  0  0  0  0
  184.9650  179.5470  140.2360 O   0  0  0  0  0  0  0  0  0  0  0  0
  185.3270  179.3760  141.5990 C   0  0  0  0  0  2  0  0  0  0  0  0
  184.3470  178.4290  142.2660 C   0  0  0  0  0  1  0  0  0  0  0  0
  1  7  1  0  0  0  0
  2  1  2  0  0  0  0
  2  4  1  0  0  0  0
  3 11  1  0  0  0  0
  4  3  2  0  0  0  0
  5  9  2  0  0  0  0
  6  2  1  0  0  0  0
  7 34  1  0  0  0  0
  7 11  2  0  0  0  0
  8  6  2  0  0  0  0
  8  5  1  0  0  0  0
  9  4  1  0  0  0  0
 10  8  1  0  0  0  0
 11 43  1  0  0  0  0
 13 18  1  6  0  0  0
 13 19  1  0  0  0  0
 14 21  1  6  0  0  0
 14 20  1  0  0  0  0
 15  9  1  1  0  0  0
 15 14  1  0  0  0  0
 15 13  1  0  0  0  0
 16 12  1  0  0  0  0
 16 24  1  1  0  0  0
 17 12  1  0  0  0  0
 18 17  1  0  0  0  0
 19 20  1  1  0  0  0
 19 16  1  0  0  0  0
 21 22  1  1  0  0  0
 23 21  1  0  0  0  0
 24 29  1  0  0  0  0
 25 28  1  0  0  0  0
 26 27  1  1  0  0  0
 28 26  1  0  0  0  0
 29 30  2  0  0  0  0
 29 25  1  0  0  0  0
 30 32  1  0  0  0  0
 32 31  2  0  0  0  0
 32 26  1  0  0  0  0
 33 36  1  0  0  0  0
 34 33  1  0  0  0  0
 35 36  1  0  0  0  0
 36 40  1  1  0  0  0
 37 38  1  0  0  0  0
 37 35  1  0  0  0  0
 38 34  1  0  0  0  0
 39 41  2  0  0  0  0
 39 42  1  0  0  0  0
 40 39  1  0  0  0  0
 43 44  1  0  0  0  0
 44 45  1  0  0  0  0
M  END
>  <MODEL>
6

>  <REMARK>
 VINA RESULT:      -7.0      4.053     10.447
  Name = 
  8 active torsions:
  status: ('A' for Active; 'I' for Inactive)
    1  A    between atoms: N_3  and  C_15
    2  A    between atoms: C_9  and  O_25
    3  A    between atoms: C_16  and  C_20
    4  A    between atoms: C_18  and  C_21
    5  A    between atoms: C_22  and  C_30
    6  A    between atoms: C_24  and  N_31
    7  A    between atoms: O_25  and  C_44
    8  A    between atoms: C_30  and  C_34
                            x       y       z     vdW  Elec       q    Type
                         _______ _______ _______ _____ _____    ______ ____

>  <TORSDO>
F 8

$$$$
=
 OpenBabel11062417223D

 45 50  0  0  1  0  0  0  0  0999 V2000
  183.9870  178.6850  144.0740 C   0  0  0  0  0  3  0  0  0  0  0  0
  183.0680  178.6150  143.0290 C   0  0  0  0  0  0  0  0  0  0  0  0
  184.8370  177.8770  141.5530 C   0  0  0  0  0  3  0  0  0  0  0  0
  183.4900  178.2160  141.7480 C   0  0  0  0  0  0  0  0  0  0  0  0
  181.2340  178.3570  140.8880 N   0  0  0  0  0  0  0  0  0  0  0  0
  181.6540  179.0310  143.3070 C   0  0  0  0  0  3  0  0  0  0  0  0
  185.3370  178.3540  143.8900 C   0  0  0  0  0  0  0  0  0  0  0  0
  180.7260  178.6690  142.1880 C   0  0  0  0  0  0  0  0  0  0  0  0
  182.4950  178.1660  140.6360 C   0  0  0  0  0  0  0  0  0  0  0  0
  179.4510  178.7840  142.3630 N   0  0  0  0  0  1  0  0  0  0  0  0
  185.7680  177.9520  142.6040 C   0  0  0  0  0  0  0  0  0  0  0  0
  186.3790  178.2820  136.8410 C   0  0  0  0  0  2  0  0  0  0  0  0
  184.2870  177.9770  138.8450 C   0  0  2  0  0  3  0  0  0  0  0  0
  182.5740  176.3940  138.8230 C   0  0  2  0  0  3  0  0  0  0  0  0
  182.8480  177.8460  139.2080 C   0  0  1  0  0  3  0  0  0  0  0  0
  185.7000  176.9180  137.0660 C   0  0  2  0  0  3  0  0  0  0  0  0
  186.2320  179.2400  138.0400 C   0  0  0  0  0  2  0  0  0  0  0  0
  184.7720  179.3680  138.4950 C   0  0  0  0  0  2  0  0  0  0  0  0
  184.2830  177.1500  137.5970 C   0  0  1  0  0  3  0  0  0  0  0  0
  183.5230  175.9940  137.8470 O   0  0  0  0  0  0  0  0  0  0  0  0
  181.1400  176.1950  138.3290 C   0  0  1  0  0  3  0  0  0  0  0  0
  180.6790  177.3370  137.4350 C   0  0  0  0  0  1  0  0  0  0  0  0
  181.0450  174.9870  137.6340 O   0  0  0  0  0  1  0  0  0  0  0  0
  186.5430  176.0170  137.9670 C   0  0  0  0  0  2  0  0  0  0  0  0
  188.1650  175.1040  136.1680 C   0  0  0  0  0  2  0  0  0  0  0  0
  190.6370  175.4660  136.4050 C   0  0  2  0  0  3  0  0  0  0  0  0
  191.7630  176.0060  135.7790 O   0  0  0  0  0  1  0  0  0  0  0  0
  189.4440  175.5510  135.4560 C   0  0  0  0  0  2  0  0  0  0  0  0
  187.9300  175.8950  137.4260 C   0  0  0  0  0  0  0  0  0  0  0  0
  188.9530  176.3650  138.1410 C   0  0  0  0  0  3  0  0  0  0  0  0
  191.2850  176.6120  138.4180 O   0  0  0  0  0  0  0  0  0  0  0  0
  190.3430  176.2010  137.6890 C   0  0  0  0  0  0  0  0  0  0  0  0
  187.5040  177.6910  144.9790 C   0  0  0  0  0  2  0  0  0  0  0  0
  186.2420  178.4430  145.0130 N   0  0  0  0  0  0  0  0  0  0  0  0
  187.4070  177.7120  147.4990 C   0  0  0  0  0  2  0  0  0  0  0  0
  188.3060  177.8770  146.2710 C   0  0  1  0  0  3  0  0  0  0  0  0
  186.1750  178.6290  147.4630 C   0  0  0  0  0  2  0  0  0  0  0  0
  185.9910  179.3570  146.1290 C   0  0  0  0  0  2  0  0  0  0  0  0
  190.4690  176.9810  147.3060 C   0  0  0  0  0  0  0  0  0  0  0  0
  189.4330  176.9490  146.3180 N   0  0  0  0  0  2  0  0  0  0  0  0
  190.4880  177.8780  148.1910 O   0  0  0  0  0  0  0  0  0  0  0  0
  191.5330  175.9450  147.2870 C   0  0  0  0  0  1  0  0  0  0  0  0
  187.1190  177.6750  142.3720 O   0  0  0  0  0  0  0  0  0  0  0  0
  187.8830  178.3170  141.3610 C   0  0  0  0  0  2  0  0  0  0  0  0
  189.3150  177.8190  141.4190 C   0  0  0  0  0  1  0  0  0  0  0  0
  2  6  1  0  0  0  0
  2  1  2  0  0  0  0
  3  4  2  0  0  0  0
  3 11  1  0  0  0  0
  4  2  1  0  0  0  0
  5  8  1  0  0  0  0
  7  1  1  0  0  0  0
  7 34  1  0  0  0  0
  8 10  1  0  0  0  0
  8  6  2  0  0  0  0
  9  5  2  0  0  0  0
  9  4  1  0  0  0  0
 11  7  2  0  0  0  0
 12 16  1  0  0  0  0
 12 17  1  0  0  0  0
 13 18  1  6  0  0  0
 13 15  1  0  0  0  0
 14 21  1  6  0  0  0
 14 15  1  0  0  0  0
 15  9  1  1  0  0  0
 16 19  1  0  0  0  0
 16 24  1  1  0  0  0
 17 18  1  0  0  0  0
 19 20  1  1  0  0  0
 19 13  1  0  0  0  0
 20 14  1  0  0  0  0
 21 22  1  6  0  0  0
 23 21  1  0  0  0  0
 25 29  1  0  0  0  0
 26 27  1  6  0  0  0
 26 32  1  0  0  0  0
 28 25  1  0  0  0  0
 28 26  1  0  0  0  0
 29 24  1  0  0  0  0
 29 30  2  0  0  0  0
 32 30  1  0  0  0  0
 32 31  2  0  0  0  0
 33 34  1  0  0  0  0
 33 36  1  0  0  0  0
 34 38  1  0  0  0  0
 36 40  1  1  0  0  0
 36 35  1  0  0  0  0
 37 35  1  0  0  0  0
 38 37  1  0  0  0  0
 39 41  2  0  0  0  0
 40 39  1  0  0  0  0
 42 39  1  0  0  0  0
 43 11  1  0  0  0  0
 44 45  1  0  0  0  0
 44 43  1  0  0  0  0
M  END
>  <MODEL>
7

>  <REMARK>
 VINA RESULT:      -7.0      3.054      5.255
  Name = 
  8 active torsions:
  status: ('A' for Active; 'I' for Inactive)
    1  A    between atoms: N_3  and  C_15
    2  A    between atoms: C_9  and  O_25
    3  A    between atoms: C_16  and  C_20
    4  A    between atoms: C_18  and  C_21
    5  A    between atoms: C_22  and  C_30
    6  A    between atoms: C_24  and  N_31
    7  A    between atoms: O_25  and  C_44
    8  A    between atoms: C_30  and  C_34
                            x       y       z     vdW  Elec       q    Type
                         _______ _______ _______ _____ _____    ______ ____

>  <TORSDO>
F 8

$$$$
=
 OpenBabel11062417223D

 45 50  0  0  1  0  0  0  0  0999 V2000
  185.3350  178.3370  143.3960 C   0  0  0  0  0  3  0  0  0  0  0  0
  184.0550  178.5660  142.8980 C   0  0  0  0  0  0  0  0  0  0  0  0
  184.9390  178.4790  140.6470 C   0  0  0  0  0  3  0  0  0  0  0  0
  183.8450  178.6490  141.5080 C   0  0  0  0  0  0  0  0  0  0  0  0
  181.4640  178.9320  141.8170 N   0  0  0  0  0  0  0  0  0  0  0  0
  182.9440  178.7770  143.8830 C   0  0  0  0  0  3  0  0  0  0  0  0
  186.4380  178.1720  142.5450 C   0  0  0  0  0  0  0  0  0  0  0  0
  181.5960  178.7560  143.2300 C   0  0  0  0  0  0  0  0  0  0  0  0
  182.4700  178.9150  140.9930 C   0  0  0  0  0  0  0  0  0  0  0  0
  180.5370  178.7260  143.9700 N   0  0  0  0  0  1  0  0  0  0  0  0
  186.2340  178.2540  141.1480 C   0  0  0  0  0  0  0  0  0  0  0  0
  182.1030  176.5660  136.1100 C   0  0  0  0  0  2  0  0  0  0  0  0
  182.0630  177.8820  138.7090 C   0  0  2  0  0  3  0  0  0  0  0  0
  180.7630  179.7250  139.3030 C   0  0  2  0  0  3  0  0  0  0  0  0
  182.1430  179.1170  139.5380 C   0  0  1  0  0  3  0  0  0  0  0  0
  180.8530  177.3310  136.5830 C   0  0  2  0  0  3  0  0  0  0  0  0
  183.0360  176.1500  137.2660 C   0  0  0  0  0  2  0  0  0  0  0  0
  183.3730  177.3340  138.1830 C   0  0  0  0  0  2  0  0  0  0  0  0
  181.2840  178.4330  137.5550 C   0  0  1  0  0  3  0  0  0  0  0  0
  180.2510  179.2330  138.0730 O   0  0  0  0  0  0  0  0  0  0  0  0
  180.8010  181.2540  139.3250 C   0  0  1  0  0  3  0  0  0  0  0  0
  181.9550  181.8100  138.5040 C   0  0  0  0  0  1  0  0  0  0  0  0
  179.5930  181.7620  138.8410 O   0  0  0  0  0  1  0  0  0  0  0  0
  179.8070  176.3840  137.1680 C   0  0  0  0  0  2  0  0  0  0  0  0
  179.6950  174.7940  135.1290 C   0  0  0  0  0  2  0  0  0  0  0  0
  180.0890  172.3340  135.4310 C   0  0  2  0  0  3  0  0  0  0  0  0
  180.8810  171.2590  135.0190 O   0  0  0  0  0  1  0  0  0  0  0  0
  180.4400  173.5660  134.6000 C   0  0  0  0  0  2  0  0  0  0  0  0
  179.9670  175.0150  136.5920 C   0  0  0  0  0  0  0  0  0  0  0  0
  180.2070  173.9870  137.4080 C   0  0  0  0  0  3  0  0  0  0  0  0
  180.4720  171.6600  137.7090 O   0  0  0  0  0  0  0  0  0  0  0  0
  180.2960  172.6100  136.9000 C   0  0  0  0  0  0  0  0  0  0  0  0
  187.9280  178.1010  144.5680 C   0  0  0  0  0  2  0  0  0  0  0  0
  187.7410  177.9330  143.1210 N   0  0  0  0  0  0  0  0  0  0  0  0
  190.3510  178.5710  144.0460 C   0  0  0  0  0  2  0  0  0  0  0  0
  189.3810  177.8460  144.9820 C   0  0  1  0  0  3  0  0  0  0  0  0
  190.1180  178.2280  142.5660 C   0  0  0  0  0  2  0  0  0  0  0  0
  188.8490  177.4080  142.3190 C   0  0  0  0  0  2  0  0  0  0  0  0
  188.7750  177.8340  147.4700 C   0  0  0  0  0  0  0  0  0  0  0  0
  189.5990  178.2420  146.3710 N   0  0  0  0  0  2  0  0  0  0  0  0
  187.7510  177.1240  147.2790 O   0  0  0  0  0  0  0  0  0  0  0  0
  189.1340  178.2510  148.8500 C   0  0  0  0  0  1  0  0  0  0  0  0
  187.3220  178.1550  140.2740 O   0  0  0  0  0  0  0  0  0  0  0  0
  187.1840  177.8880  138.8850 C   0  0  0  0  0  2  0  0  0  0  0  0
  188.4690  178.2590  138.1710 C   0  0  0  0  0  1  0  0  0  0  0  0
  2  1  1  0  0  0  0
  2  6  1  0  0  0  0
  3 11  2  0  0  0  0
  3  4  1  0  0  0  0
  4  2  2  0  0  0  0
  5  8  1  0  0  0  0
  7 34  1  0  0  0  0
  7  1  2  0  0  0  0
  8  6  2  0  0  0  0
  8 10  1  0  0  0  0
  9  4  1  0  0  0  0
  9  5  2  0  0  0  0
 11  7  1  0  0  0  0
 12 16  1  0  0  0  0
 12 17  1  0  0  0  0
 13 18  1  6  0  0  0
 13 15  1  0  0  0  0
 14 21  1  6  0  0  0
 14 15  1  0  0  0  0
 15  9  1  1  0  0  0
 16 24  1  1  0  0  0
 16 19  1  0  0  0  0
 17 18  1  0  0  0  0
 19 20  1  1  0  0  0
 19 13  1  0  0  0  0
 20 14  1  0  0  0  0
 21 22  1  6  0  0  0
 23 21  1  0  0  0  0
 25 29  1  0  0  0  0
 26 27  1  6  0  0  0
 26 32  1  0  0  0  0
 28 25  1  0  0  0  0
 28 26  1  0  0  0  0
 29 24  1  0  0  0  0
 29 30  2  0  0  0  0
 32 30  1  0  0  0  0
 32 31  2  0  0  0  0
 33 36  1  0  0  0  0
 34 33  1  0  0  0  0
 35 36  1  0  0  0  0
 36 40  1  1  0  0  0
 37 35  1  0  0  0  0
 38 37  1  0  0  0  0
 38 34  1  0  0  0  0
 39 42  1  0  0  0  0
 40 39  1  0  0  0  0
 41 39  2  0  0  0  0
 43 11  1  0  0  0  0
 44 43  1  0  0  0  0
 45 44  1  0  0  0  0
M  END
>  <MODEL>
8

>  <REMARK>
 VINA RESULT:      -6.9      1.425      2.188
  Name = 
  8 active torsions:
  status: ('A' for Active; 'I' for Inactive)
    1  A    between atoms: N_3  and  C_15
    2  A    between atoms: C_9  and  O_25
    3  A    between atoms: C_16  and  C_20
    4  A    between atoms: C_18  and  C_21
    5  A    between atoms: C_22  and  C_30
    6  A    between atoms: C_24  and  N_31
    7  A    between atoms: O_25  and  C_44
    8  A    between atoms: C_30  and  C_34
                            x       y       z     vdW  Elec       q    Type
                         _______ _______ _______ _____ _____    ______ ____

>  <TORSDO>
F 8

$$$$
=
 OpenBabel11062417223D

 45 50  0  0  1  0  0  0  0  0999 V2000
  188.0120  178.2570  142.1440 C   0  0  0  0  0  3  0  0  0  0  0  0
  187.7190  178.2950  140.7830 C   0  0  0  0  0  0  0  0  0  0  0  0
  185.3580  178.2490  141.3130 C   0  0  0  0  0  3  0  0  0  0  0  0
  186.3790  178.2820  140.3520 C   0  0  0  0  0  0  0  0  0  0  0  0
  187.0520  178.4690  138.0370 N   0  0  0  0  0  0  0  0  0  0  0  0
  188.8650  178.2880  139.8160 C   0  0  0  0  0  3  0  0  0  0  0  0
  187.0000  178.2180  143.1140 C   0  0  0  0  0  0  0  0  0  0  0  0
  188.4260  178.5880  138.4150 C   0  0  0  0  0  0  0  0  0  0  0  0
  186.0840  178.3030  138.8890 C   0  0  0  0  0  0  0  0  0  0  0  0
  189.3190  178.8120  137.5090 N   0  0  0  0  0  1  0  0  0  0  0  0
  185.6520  178.2050  142.6880 C   0  0  0  0  0  0  0  0  0  0  0  0
  182.8750  175.6740  135.3830 C   0  0  0  0  0  2  0  0  0  0  0  0
  184.4420  177.0150  137.4410 C   0  0  2  0  0  3  0  0  0  0  0  0
  183.6080  178.0320  139.3670 C   0  0  2  0  0  3  0  0  0  0  0  0
  184.6990  178.1970  138.3110 C   0  0  1  0  0  3  0  0  0  0  0  0
  182.3540  175.7690  136.8300 C   0  0  2  0  0  3  0  0  0  0  0  0
  184.4010  175.8650  135.2720 C   0  0  0  0  0  2  0  0  0  0  0  0
  184.8730  177.1340  135.9940 C   0  0  0  0  0  2  0  0  0  0  0  0
  182.9460  177.0180  137.4890 C   0  0  1  0  0  3  0  0  0  0  0  0
  182.5560  177.2530  138.8190 O   0  0  0  0  0  0  0  0  0  0  0  0
  183.1010  179.3820  139.8800 C   0  0  1  0  0  3  0  0  0  0  0  0
  182.9240  180.3910  138.7550 C   0  0  0  0  0  1  0  0  0  0  0  0
  181.8870  179.2050  140.5470 O   0  0  0  0  0  1  0  0  0  0  0  0
  182.6330  174.4840  137.6080 C   0  0  0  0  0  2  0  0  0  0  0  0
  183.0170  172.3100  136.2580 C   0  0  0  0  0  2  0  0  0  0  0  0
  181.0610  171.0710  135.2900 C   0  0  2  0  0  3  0  0  0  0  0  0
  180.4060  169.8370  135.2690 O   0  0  0  0  0  1  0  0  0  0  0  0
  182.3540  170.9400  136.0920 C   0  0  0  0  0  2  0  0  0  0  0  0
  182.0770  173.3060  136.8800 C   0  0  0  0  0  0  0  0  0  0  0  0
  180.7610  173.2310  136.6670 C   0  0  0  0  0  3  0  0  0  0  0  0
  178.9320  172.1240  135.6670 O   0  0  0  0  0  0  0  0  0  0  0  0
  180.1720  172.1310  135.8900 C   0  0  0  0  0  0  0  0  0  0  0  0
  188.5710  177.4490  144.9200 C   0  0  0  0  0  2  0  0  0  0  0  0
  187.3670  178.1840  144.5120 N   0  0  0  0  0  0  0  0  0  0  0  0
  187.4620  177.1830  147.1690 C   0  0  0  0  0  2  0  0  0  0  0  0
  188.7710  177.4920  146.4380 C   0  0  1  0  0  3  0  0  0  0  0  0
  186.3030  178.0910  146.7260 C   0  0  0  0  0  2  0  0  0  0  0  0
  186.6380  178.9640  145.5150 C   0  0  0  0  0  2  0  0  0  0  0  0
  191.2170  176.7410  146.5330 C   0  0  0  0  0  0  0  0  0  0  0  0
  189.8290  176.5720  146.8470 N   0  0  0  0  0  2  0  0  0  0  0  0
  191.6030  177.7040  145.8190 O   0  0  0  0  0  0  0  0  0  0  0  0
  192.2100  175.7700  147.0580 C   0  0  0  0  0  1  0  0  0  0  0  0
  184.6210  178.1040  143.6270 O   0  0  0  0  0  0  0  0  0  0  0  0
  183.7390  179.1750  143.9350 C   0  0  0  0  0  2  0  0  0  0  0  0
  182.3140  178.6570  143.9830 C   0  0  0  0  0  1  0  0  0  0  0  0
  1  7  1  0  0  0  0
  2  1  2  0  0  0  0
  3 11  1  0  0  0  0
  4  2  1  0  0  0  0
  4  3  2  0  0  0  0
  5  8  1  0  0  0  0
  5  9  2  0  0  0  0
  6  2  1  0  0  0  0
  7 34  1  0  0  0  0
  8  6  2  0  0  0  0
  9  4  1  0  0  0  0
 10  8  1  0  0  0  0
 11  7  2  0  0  0  0
 11 43  1  0  0  0  0
 12 16  1  0  0  0  0
 13 18  1  6  0  0  0
 13 19  1  0  0  0  0
 13 15  1  0  0  0  0
 14 21  1  6  0  0  0
 15  9  1  1  0  0  0
 15 14  1  0  0  0  0
 16 19  1  0  0  0  0
 16 24  1  1  0  0  0
 17 12  1  0  0  0  0
 17 18  1  0  0  0  0
 19 20  1  1  0  0  0
 20 14  1  0  0  0  0
 21 22  1  6  0  0  0
 21 23  1  0  0  0  0
 25 29  1  0  0  0  0
 26 27  1  1  0  0  0
 26 32  1  0  0  0  0
 26 28  1  0  0  0  0
 28 25  1  0  0  0  0
 29 24  1  0  0  0  0
 30 29  2  0  0  0  0
 31 32  2  0  0  0  0
 32 30  1  0  0  0  0
 33 36  1  0  0  0  0
 34 33  1  0  0  0  0
 34 38  1  0  0  0  0
 36 40  1  6  0  0  0
 36 35  1  0  0  0  0
 37 35  1  0  0  0  0
 38 37  1  0  0  0  0
 39 40  1  0  0  0  0
 39 42  1  0  0  0  0
 41 39  2  0  0  0  0
 43 44  1  0  0  0  0
 44 45  1  0  0  0  0
M  END
>  <MODEL>
9

>  <REMARK>
 VINA RESULT:      -6.8      2.432      4.061
  Name = 
  8 active torsions:
  status: ('A' for Active; 'I' for Inactive)
    1  A    between atoms: N_3  and  C_15
    2  A    between atoms: C_9  and  O_25
    3  A    between atoms: C_16  and  C_20
    4  A    between atoms: C_18  and  C_21
    5  A    between atoms: C_22  and  C_30
    6  A    between atoms: C_24  and  N_31
    7  A    between atoms: O_25  and  C_44
    8  A    between atoms: C_30  and  C_34
                            x       y       z     vdW  Elec       q    Type
                         _______ _______ _______ _____ _____    ______ ____

>  <TORSDO>
F 8

$$$$
