=
 OpenBabel11062416233D

 67 73  0  0  1  0  0  0  0  0999 V2000
  180.5070  176.9450  137.0290 C   0  0  0  0  0  0  0  0  0  0  0  0
  182.4400  179.2550  138.9450 C   0  0  2  0  0  3  0  0  0  0  0  0
  187.1550  179.2150  136.8960 C   0  0  0  0  0  0  0  0  0  0  0  0
  185.8300  178.9180  136.1920 C   0  0  2  0  0  3  0  0  0  0  0  0
  184.1120  180.9860  138.5380 O   0  0  0  0  0  1  0  0  0  0  0  0
  185.5760  178.2950  138.6270 C   0  0  2  0  0  3  0  0  0  0  0  0
  183.7140  179.9830  139.4260 C   0  0  2  0  0  3  0  0  0  0  0  0
  186.9630  178.8040  138.3280 C   0  0  0  0  0  0  0  0  0  0  0  0
  188.2060  178.4870  136.3170 O   0  0  0  0  0  1  0  0  0  0  0  0
  183.5550  177.8420  137.0030 C   0  0  1  0  0  3  0  0  0  0  0  0
  178.9330  176.0140  135.5820 O   0  0  0  0  0  1  0  0  0  0  0  0
  186.4950  179.0910  142.3040 C   0  0  1  0  0  3  0  0  0  0  0  0
  188.1000  178.2010  140.5320 C   0  0  1  0  0  3  0  0  0  0  0  0
  187.7260  178.7030  142.8530 O   0  0  0  0  0  0  0  0  0  0  0  0
  187.7850  179.2840  141.5730 C   0  0  2  0  0  3  0  0  0  0  0  0
  184.5300  178.1920  141.0250 C   0  0  1  0  0  3  0  0  0  0  0  0
  183.7970  176.9110  140.6700 C   0  0  0  0  0  1  0  0  0  0  0  0
  180.5160  179.2260  137.6330 O   0  0  0  0  0  0  0  0  0  0  0  0
  182.4810  177.9490  138.1160 C   0  0  2  0  0  3  0  0  0  0  0  0
  181.1250  177.9890  137.5110 C   0  0  0  0  0  0  0  0  0  0  0  0
  185.7220  177.8440  141.8940 C   0  0  0  0  0  2  0  0  0  0  0  0
  184.8510  178.5870  137.3160 C   0  0  2  0  0  3  0  0  0  0  0  0
  185.9530  177.8470  135.2980 O   0  0  0  0  0  1  0  0  0  0  0  0
  181.3270  180.1310  138.3600 C   0  0  1  0  0  3  0  0  0  0  0  0
  179.9060  175.8860  136.5660 C   0  0  0  0  0  0  0  0  0  0  0  0
  184.8900  179.0540  139.7970 C   0  0  1  0  0  3  0  0  0  0  0  0
  188.0370  178.7480  139.1360 C   0  0  0  0  0  3  0  0  0  0  0  0
  187.4410  180.5820  136.8160 O   0  0  0  0  0  1  0  0  0  0  0  0
  185.3940  173.7570  136.4720 C   0  0  0  0  0  2  0  0  0  0  0  0
  183.8590  175.3680  137.6860 C   0  0  0  0  0  2  0  0  0  0  0  0
  183.2710  172.5160  135.9150 C   0  0  0  0  0  0  0  0  0  0  0  0
  183.4220  174.7330  134.8840 O   0  0  0  0  0  0  0  0  0  0  0  0
  182.5080  171.3420  136.1320 C   0  0  0  0  0  0  0  0  0  0  0  0
  185.1810  174.6120  137.7190 C   0  0  0  0  0  2  0  0  0  0  0  0
  183.8540  176.4010  136.5590 C   0  0  1  0  0  3  0  0  0  0  0  0
  180.6850  172.2760  134.8170 C   0  0  0  0  0  3  0  0  0  0  0  0
  181.2230  171.2410  135.5790 C   0  0  0  0  0  3  0  0  0  0  0  0
  182.9710  175.9790  135.3940 C   0  0  0  0  0  2  0  0  0  0  0  0
  184.5520  172.6070  136.4900 O   0  0  0  0  0  0  0  0  0  0  0  0
  182.7130  173.5620  135.1340 C   0  0  0  0  0  0  0  0  0  0  0  0
  181.4290  173.4290  134.5960 C   0  0  0  0  0  3  0  0  0  0  0  0
  184.0960  169.6280  136.5860 O   0  0  0  0  0  0  0  0  0  0  0  0
  183.0190  170.1940  136.9200 C   0  0  0  0  0  0  0  0  0  0  0  0
  182.3580  169.7510  138.0560 O   0  0  0  0  0  1  0  0  0  0  0  0
  180.9470  180.4700  140.7100 F   0  0  0  0  0  0  0  0  0  0  0  0
  180.5220  180.8670  139.4450 C   0  0  0  0  0  0  0  0  0  0  0  0
  179.2000  180.4830  139.3190 F   0  0  0  0  0  0  0  0  0  0  0  0
  180.5810  182.2750  139.2930 O   0  0  0  0  0  0  0  0  0  0  0  0
  179.9450  182.6480  138.0960 C   0  0  0  0  0  2  0  0  0  0  0  0
  180.8560  183.2450  137.2460 F   0  0  0  0  0  0  0  0  0  0  0  0
  189.4650  177.5630  140.8250 C   0  0  1  0  0  3  0  0  0  0  0  0
  190.3170  177.5070  139.5650 C   0  0  0  0  0  1  0  0  0  0  0  0
  190.8270  177.6100  142.9260 C   0  0  0  0  0  3  0  0  0  0  0  0
  190.2080  178.2580  141.9330 C   0  0  0  0  0  3  0  0  0  0  0  0
  190.8210  176.1230  143.0510 C   0  0  0  0  0  2  0  0  0  0  0  0
  190.9350  175.7470  144.5150 C   0  0  0  0  0  2  0  0  0  0  0  0
  191.9050  177.3010  146.0540 O   0  0  0  0  0  1  0  0  0  0  0  0
  190.7220  176.9690  145.3920 C   0  0  2  0  0  3  0  0  0  0  0  0
  189.5970  176.7470  146.4000 C   0  0  0  0  0  2  0  0  0  0  0  0
  188.8260  178.0220  146.7230 C   0  0  2  0  0  3  0  0  0  0  0  0
  189.0110  178.3690  148.0600 O   0  0  0  0  0  1  0  0  0  0  0  0
  186.5330  178.0660  147.3080 O   0  0  0  0  0  0  0  0  0  0  0  0
  187.3700  177.8300  146.4520 C   0  0  0  0  0  3  0  0  0  0  0  0
  180.2940  174.5390  137.0700 C   0  0  0  0  0  2  0  0  0  0  0  0
  180.6190  174.5910  138.5530 C   0  0  0  0  0  2  0  0  0  0  0  0
  179.5880  175.2690  140.7310 C   0  0  0  0  0  1  0  0  0  0  0  0
  179.3360  174.6500  139.3610 C   0  0  0  0  0  2  0  0  0  0  0  0
  1 20  2  0  0  0  0
  2  7  1  0  0  0  0
  3  8  1  0  0  0  0
  4  3  1  0  0  0  0
  4 22  1  0  0  0  0
  5  7  1  0  0  0  0
  6 26  1  0  0  0  0
  7 26  1  0  0  0  0
  8  6  1  0  0  0  0
  8 27  2  0  0  0  0
  9  3  1  0  0  0  0
 10 22  1  0  0  0  0
 10 19  1  0  0  0  0
 11 25  1  0  0  0  0
 12 14  1  0  0  0  0
 13 51  1  0  0  0  0
 13 15  1  0  0  0  0
 15 12  1  0  0  0  0
 15 14  1  0  0  0  0
 16 21  1  0  0  0  0
 17 16  1  0  0  0  0
 18 24  1  0  0  0  0
 19  2  1  0  0  0  0
 20 18  1  0  0  0  0
 20 19  1  0  0  0  0
 21 12  1  0  0  0  0
 22  6  1  0  0  0  0
 23  4  1  0  0  0  0
 24  2  1  0  0  0  0
 24 46  1  0  0  0  0
 25  1  2  0  0  0  0
 25 64  1  0  0  0  0
 26 16  1  0  0  0  0
 27 13  1  0  0  0  0
 28  3  1  0  0  0  0
 29 39  1  0  0  0  0
 29 34  1  0  0  0  0
 30 34  1  0  0  0  0
 31 33  1  0  0  0  0
 31 39  1  0  0  0  0
 32 40  1  0  0  0  0
 32 38  1  0  0  0  0
 33 43  1  0  0  0  0
 35 10  1  0  0  0  0
 35 30  1  0  0  0  0
 36 37  1  0  0  0  0
 37 33  2  0  0  0  0
 38 35  1  0  0  0  0
 40 31  2  0  0  0  0
 41 36  2  0  0  0  0
 41 40  1  0  0  0  0
 42 43  2  0  0  0  0
 43 44  1  0  0  0  0
 46 45  1  0  0  0  0
 47 46  1  0  0  0  0
 48 46  1  0  0  0  0
 49 48  1  0  0  0  0
 50 49  1  0  0  0  0
 51 54  1  0  0  0  0
 52 51  1  0  0  0  0
 53 55  1  0  0  0  0
 54 53  2  0  0  0  0
 55 56  1  0  0  0  0
 56 58  1  0  0  0  0
 58 57  1  0  0  0  0
 58 59  1  0  0  0  0
 59 60  1  0  0  0  0
 60 61  1  0  0  0  0
 63 60  1  0  0  0  0
 63 62  2  0  0  0  0
 64 65  1  0  0  0  0
 65 67  1  0  0  0  0
 67 66  1  0  0  0  0
M  END
>  <MODEL>
1

>  <REMARK>
 VINA RESULT:      -1.0      0.000      0.000
  Name = 
  16 active torsions:
  status: ('A' for Active; 'I' for Inactive)
    1  A    between atoms: C_7  and  C_23
    2  A    between atoms: C_7  and  C_64
    3  A    between atoms: C_8  and  C_35
    4  A    between atoms: C_8  and  C_59
    5  A    between atoms: O_14  and  C_27
    6  A    between atoms: O_14  and  C_38
    7  A    between atoms: C_21  and  C_40
    8  A    between atoms: C_22  and  C_36
    9  A    between atoms: C_26  and  C_28
   10  A    between atoms: C_29  and  C_40
   11  A    between atoms: C_29  and  C_53
   12  A    between atoms: C_31  and  C_42
   13  A    between atoms: C_31  and  C_56
   14  A    between atoms: C_38  and  C_54
   15  A    between atoms: C_53  and  C_64
   16  A    between atoms: C_55  and  C_56
                            x       y       z     vdW  Elec       q    Type
                         _______ _______ _______ _____ _____    ______ ____

>  <TORSDO>
F 16

$$$$
=
 OpenBabel11062416233D

 67 73  0  0  1  0  0  0  0  0999 V2000
  190.3220  177.3400  139.9680 C   0  0  0  0  0  0  0  0  0  0  0  0
  188.2320  177.1350  137.0810 C   0  0  2  0  0  3  0  0  0  0  0  0
  183.7250  179.2050  138.4330 C   0  0  0  0  0  0  0  0  0  0  0  0
  185.1070  179.5290  139.0010 C   0  0  2  0  0  3  0  0  0  0  0  0
  186.6120  178.5430  135.9200 O   0  0  0  0  0  1  0  0  0  0  0  0
  185.1340  177.1320  138.2040 C   0  0  2  0  0  3  0  0  0  0  0  0
  186.9230  177.2260  136.2680 C   0  0  2  0  0  3  0  0  0  0  0  0
  183.7830  177.7670  138.0000 C   0  0  0  0  0  0  0  0  0  0  0  0
  182.7280  179.3800  139.4050 O   0  0  0  0  0  1  0  0  0  0  0  0
  187.2930  178.0880  139.3670 C   0  0  1  0  0  3  0  0  0  0  0  0
  192.0180  177.9250  141.4580 O   0  0  0  0  0  1  0  0  0  0  0  0
  183.8870  174.5530  135.5980 C   0  0  1  0  0  3  0  0  0  0  0  0
  182.4460  175.6850  137.3740 C   0  0  1  0  0  3  0  0  0  0  0  0
  182.6090  173.9810  135.6850 O   0  0  0  0  0  0  0  0  0  0  0  0
  182.6700  175.3720  135.8880 C   0  0  2  0  0  3  0  0  0  0  0  0
  185.9560  174.9830  136.9530 C   0  0  1  0  0  3  0  0  0  0  0  0
  186.7130  174.5310  138.1890 C   0  0  0  0  0  1  0  0  0  0  0  0
  190.2680  178.0660  137.7240 O   0  0  0  0  0  0  0  0  0  0  0  0
  188.2620  177.1280  138.6290 C   0  0  2  0  0  3  0  0  0  0  0  0
  189.6670  177.5490  138.8590 C   0  0  0  0  0  0  0  0  0  0  0  0
  184.6890  174.1620  136.8330 C   0  0  0  0  0  2  0  0  0  0  0  0
  185.9780  178.3310  138.6300 C   0  0  2  0  0  3  0  0  0  0  0  0
  185.0610  179.7090  140.3890 O   0  0  0  0  0  1  0  0  0  0  0  0
  189.3980  178.0100  136.6080 C   0  0  1  0  0  3  0  0  0  0  0  0
  190.9590  177.1090  141.0810 C   0  0  0  0  0  0  0  0  0  0  0  0
  185.7140  176.5070  136.9040 C   0  0  1  0  0  3  0  0  0  0  0  0
  182.6390  177.1450  137.6620 C   0  0  0  0  0  3  0  0  0  0  0  0
  183.4530  180.0320  137.3380 O   0  0  0  0  0  1  0  0  0  0  0  0
  187.7290  176.6760  143.6290 C   0  0  0  0  0  2  0  0  0  0  0  0
  187.8510  178.4860  141.8580 C   0  0  0  0  0  2  0  0  0  0  0  0
  185.9060  178.1020  144.6300 C   0  0  0  0  0  0  0  0  0  0  0  0
  185.3350  177.1550  142.4440 O   0  0  0  0  0  0  0  0  0  0  0  0
  185.5300  178.9340  145.7130 C   0  0  0  0  0  0  0  0  0  0  0  0
  188.6370  177.5380  142.7550 C   0  0  0  0  0  2  0  0  0  0  0  0
  187.0300  177.7060  140.8320 C   0  0  1  0  0  3  0  0  0  0  0  0
  183.4400  179.4680  144.5870 C   0  0  0  0  0  3  0  0  0  0  0  0
  184.3000  179.6070  145.6740 C   0  0  0  0  0  3  0  0  0  0  0  0
  185.5430  177.7140  141.1550 C   0  0  0  0  0  2  0  0  0  0  0  0
  187.1500  177.4460  144.6800 O   0  0  0  0  0  0  0  0  0  0  0  0
  185.0190  177.9650  143.5300 C   0  0  0  0  0  0  0  0  0  0  0  0
  183.7990  178.6490  143.5210 C   0  0  0  0  0  3  0  0  0  0  0  0
  187.3890  178.3760  147.0910 O   0  0  0  0  0  0  0  0  0  0  0  0
  186.3870  179.1190  146.9100 C   0  0  0  0  0  0  0  0  0  0  0  0
  186.1360  180.1340  147.8220 O   0  0  0  0  0  1  0  0  0  0  0  0
  190.6430  178.4640  134.6020 F   0  0  0  0  0  0  0  0  0  0  0  0
  190.1040  177.4340  135.3680 C   0  0  0  0  0  0  0  0  0  0  0  0
  189.1450  176.8080  134.5940 F   0  0  0  0  0  0  0  0  0  0  0  0
  191.0850  176.4690  135.7090 O   0  0  0  0  0  0  0  0  0  0  0  0
  190.7070  175.2130  135.2050 C   0  0  0  0  0  2  0  0  0  0  0  0
  190.9050  174.2420  136.1680 F   0  0  0  0  0  0  0  0  0  0  0  0
  181.0580  175.2030  137.8160 C   0  0  1  0  0  3  0  0  0  0  0  0
  180.6230  173.9890  137.0060 C   0  0  0  0  0  1  0  0  0  0  0  0
  180.0210  175.3800  140.0890 C   0  0  0  0  0  3  0  0  0  0  0  0
  180.9840  174.9080  139.2890 C   0  0  0  0  0  3  0  0  0  0  0  0
  178.9310  176.2760  139.6040 C   0  0  0  0  0  2  0  0  0  0  0  0
  179.4860  177.6730  139.4080 C   0  0  0  0  0  2  0  0  0  0  0  0
  179.5070  179.8810  140.3290 O   0  0  0  0  0  1  0  0  0  0  0  0
  179.0090  178.5920  140.5200 C   0  0  2  0  0  3  0  0  0  0  0  0
  179.4160  178.0660  141.8940 C   0  0  0  0  0  2  0  0  0  0  0  0
  179.2460  179.1010  143.0020 C   0  0  2  0  0  3  0  0  0  0  0  0
  179.9830  180.2460  142.7060 O   0  0  0  0  0  1  0  0  0  0  0  0
  179.3700  177.4160  144.6590 O   0  0  0  0  0  0  0  0  0  0  0  0
  179.6960  178.5400  144.3100 C   0  0  0  0  0  3  0  0  0  0  0  0
  190.5200  175.9900  141.9620 C   0  0  0  0  0  2  0  0  0  0  0  0
  191.6120  175.6230  142.9510 C   0  0  0  0  0  2  0  0  0  0  0  0
  192.1900  175.5330  145.3850 C   0  0  0  0  0  1  0  0  0  0  0  0
  191.2240  176.0840  144.3440 C   0  0  0  0  0  2  0  0  0  0  0  0
  1 25  2  0  0  0  0
  2 19  1  0  0  0  0
  3  4  1  0  0  0  0
  3  9  1  0  0  0  0
  4 23  1  0  0  0  0
  5  7  1  0  0  0  0
  6 22  1  0  0  0  0
  7 26  1  0  0  0  0
  7  2  1  0  0  0  0
  8  6  1  0  0  0  0
  8  3  1  0  0  0  0
 10 35  1  0  0  0  0
 12 14  1  0  0  0  0
 12 15  1  0  0  0  0
 12 21  1  0  0  0  0
 13 27  1  0  0  0  0
 13 51  1  0  0  0  0
 14 15  1  0  0  0  0
 15 13  1  0  0  0  0
 16 17  1  0  0  0  0
 18 20  1  0  0  0  0
 19 20  1  0  0  0  0
 19 10  1  0  0  0  0
 20  1  2  0  0  0  0
 21 16  1  0  0  0  0
 22  4  1  0  0  0  0
 22 10  1  0  0  0  0
 24  2  1  0  0  0  0
 24 18  1  0  0  0  0
 25 11  1  0  0  0  0
 25 64  1  0  0  0  0
 26 16  1  0  0  0  0
 26  6  1  0  0  0  0
 27  8  2  0  0  0  0
 28  3  1  0  0  0  0
 29 39  1  0  0  0  0
 30 34  1  0  0  0  0
 31 39  1  0  0  0  0
 31 33  1  0  0  0  0
 32 40  1  0  0  0  0
 33 43  1  0  0  0  0
 34 29  1  0  0  0  0
 35 38  1  0  0  0  0
 35 30  1  0  0  0  0
 36 37  1  0  0  0  0
 37 33  2  0  0  0  0
 38 32  1  0  0  0  0
 40 31  2  0  0  0  0
 41 40  1  0  0  0  0
 41 36  2  0  0  0  0
 43 42  2  0  0  0  0
 43 44  1  0  0  0  0
 45 46  1  0  0  0  0
 46 48  1  0  0  0  0
 46 24  1  0  0  0  0
 47 46  1  0  0  0  0
 49 48  1  0  0  0  0
 49 50  1  0  0  0  0
 51 54  1  0  0  0  0
 52 51  1  0  0  0  0
 54 53  2  0  0  0  0
 55 53  1  0  0  0  0
 56 55  1  0  0  0  0
 56 58  1  0  0  0  0
 57 58  1  0  0  0  0
 58 59  1  0  0  0  0
 59 60  1  0  0  0  0
 60 63  1  0  0  0  0
 61 60  1  0  0  0  0
 63 62  2  0  0  0  0
 64 65  1  0  0  0  0
 65 67  1  0  0  0  0
 67 66  1  0  0  0  0
M  END
>  <MODEL>
2

>  <REMARK>
 VINA RESULT:       1.0      3.412      9.712
  Name = 
  16 active torsions:
  status: ('A' for Active; 'I' for Inactive)
    1  A    between atoms: C_7  and  C_23
    2  A    between atoms: C_7  and  C_64
    3  A    between atoms: C_8  and  C_35
    4  A    between atoms: C_8  and  C_59
    5  A    between atoms: O_14  and  C_27
    6  A    between atoms: O_14  and  C_38
    7  A    between atoms: C_21  and  C_40
    8  A    between atoms: C_22  and  C_36
    9  A    between atoms: C_26  and  C_28
   10  A    between atoms: C_29  and  C_40
   11  A    between atoms: C_29  and  C_53
   12  A    between atoms: C_31  and  C_42
   13  A    between atoms: C_31  and  C_56
   14  A    between atoms: C_38  and  C_54
   15  A    between atoms: C_53  and  C_64
   16  A    between atoms: C_55  and  C_56
                            x       y       z     vdW  Elec       q    Type
                         _______ _______ _______ _____ _____    ______ ____

>  <TORSDO>
F 16

$$$$
=
 OpenBabel11062416233D

 67 73  0  0  1  0  0  0  0  0999 V2000
  180.6180  177.0000  137.2440 C   0  0  0  0  0  0  0  0  0  0  0  0
  182.6680  179.2130  139.1540 C   0  0  2  0  0  3  0  0  0  0  0  0
  187.2730  179.2220  136.8680 C   0  0  0  0  0  0  0  0  0  0  0  0
  185.9110  178.9650  136.2200 C   0  0  2  0  0  3  0  0  0  0  0  0
  184.3350  180.9460  138.7340 O   0  0  0  0  0  1  0  0  0  0  0  0
  185.7740  178.2420  138.6380 C   0  0  2  0  0  3  0  0  0  0  0  0
  183.9720  179.9100  139.5990 C   0  0  2  0  0  3  0  0  0  0  0  0
  187.1500  178.7530  138.2900 C   0  0  0  0  0  0  0  0  0  0  0  0
  188.2860  178.5100  136.2070 O   0  0  0  0  0  1  0  0  0  0  0  0
  183.6700  177.8730  137.1010 C   0  0  1  0  0  3  0  0  0  0  0  0
  178.9640  176.1430  135.8420 O   0  0  0  0  0  1  0  0  0  0  0  0
  186.8850  178.8770  142.2930 C   0  0  1  0  0  3  0  0  0  0  0  0
  188.3900  178.0490  140.4070 C   0  0  1  0  0  3  0  0  0  0  0  0
  188.1390  178.4570  142.7630 O   0  0  0  0  0  0  0  0  0  0  0  0
  188.1380  179.0900  141.5060 C   0  0  2  0  0  3  0  0  0  0  0  0
  184.8500  178.0470  141.0800 C   0  0  1  0  0  3  0  0  0  0  0  0
  184.0870  176.7880  140.7100 C   0  0  0  0  0  1  0  0  0  0  0  0
  180.6800  179.2540  137.9400 O   0  0  0  0  0  0  0  0  0  0  0  0
  182.6540  177.9420  138.2700 C   0  0  2  0  0  3  0  0  0  0  0  0
  181.2700  178.0180  137.7370 C   0  0  0  0  0  0  0  0  0  0  0  0
  186.0800  177.6540  141.8710 C   0  0  0  0  0  2  0  0  0  0  0  0
  184.9870  178.5950  137.3780 C   0  0  2  0  0  3  0  0  0  0  0  0
  185.9790  177.9310  135.2780 O   0  0  0  0  0  1  0  0  0  0  0  0
  181.5360  180.1210  138.6620 C   0  0  1  0  0  3  0  0  0  0  0  0
  179.9840  175.9660  136.7690 C   0  0  0  0  0  0  0  0  0  0  0  0
  185.1560  178.9570  139.8710 C   0  0  1  0  0  3  0  0  0  0  0  0
  188.2620  178.6540  139.0390 C   0  0  0  0  0  3  0  0  0  0  0  0
  187.5680  180.5880  136.8310 O   0  0  0  0  0  1  0  0  0  0  0  0
  185.4320  173.7940  136.3180 C   0  0  0  0  0  2  0  0  0  0  0  0
  183.9680  175.3690  137.6630 C   0  0  0  0  0  2  0  0  0  0  0  0
  183.2720  172.6040  135.7960 C   0  0  0  0  0  0  0  0  0  0  0  0
  183.4100  174.8620  134.8560 O   0  0  0  0  0  0  0  0  0  0  0  0
  182.5030  171.4300  135.9930 C   0  0  0  0  0  0  0  0  0  0  0  0
  185.2810  174.5970  137.6090 C   0  0  0  0  0  2  0  0  0  0  0  0
  183.9310  176.4500  136.5830 C   0  0  1  0  0  3  0  0  0  0  0  0
  180.6410  172.4410  134.7950 C   0  0  0  0  0  3  0  0  0  0  0  0
  181.1950  171.3680  135.4890 C   0  0  0  0  0  3  0  0  0  0  0  0
  182.9970  176.0900  135.4380 C   0  0  0  0  0  2  0  0  0  0  0  0
  184.5760  172.6550  136.3220 O   0  0  0  0  0  0  0  0  0  0  0  0
  182.6970  173.6890  135.0840 C   0  0  0  0  0  0  0  0  0  0  0  0
  181.3900  173.5950  134.5940 C   0  0  0  0  0  3  0  0  0  0  0  0
  184.1510  169.7590  136.3900 O   0  0  0  0  0  0  0  0  0  0  0  0
  183.0300  170.2430  136.7090 C   0  0  0  0  0  0  0  0  0  0  0  0
  182.3340  169.6730  137.7640 O   0  0  0  0  0  1  0  0  0  0  0  0
  179.4180  180.6860  139.6500 F   0  0  0  0  0  0  0  0  0  0  0  0
  180.7930  180.8180  139.8170 C   0  0  0  0  0  0  0  0  0  0  0  0
  181.0860  182.1670  139.7480 F   0  0  0  0  0  0  0  0  0  0  0  0
  181.2130  180.3460  141.0850 O   0  0  0  0  0  0  0  0  0  0  0  0
  180.1260  179.7590  141.7540 C   0  0  0  0  0  2  0  0  0  0  0  0
  180.4780  179.4690  143.0590 F   0  0  0  0  0  0  0  0  0  0  0  0
  189.7620  177.3890  140.6030 C   0  0  1  0  0  3  0  0  0  0  0  0
  190.0810  177.2350  142.0840 C   0  0  0  0  0  1  0  0  0  0  0  0
  190.4010  175.9230  138.6750 C   0  0  0  0  0  3  0  0  0  0  0  0
  189.8780  176.0650  139.8980 C   0  0  0  0  0  3  0  0  0  0  0  0
  190.9000  177.0760  137.8690 C   0  0  0  0  0  2  0  0  0  0  0  0
  191.5790  176.5510  136.6190 C   0  0  0  0  0  2  0  0  0  0  0  0
  193.9520  176.5410  136.9180 O   0  0  0  0  0  1  0  0  0  0  0  0
  192.8100  175.7410  136.9880 C   0  0  2  0  0  3  0  0  0  0  0  0
  192.9660  174.5170  136.0890 C   0  0  0  0  0  2  0  0  0  0  0  0
  192.0170  173.3820  136.4590 C   0  0  2  0  0  3  0  0  0  0  0  0
  192.4720  172.1820  135.9180 O   0  0  0  0  0  1  0  0  0  0  0  0
  190.3980  173.6810  134.7590 O   0  0  0  0  0  0  0  0  0  0  0  0
  190.6420  173.6700  135.9540 C   0  0  0  0  0  3  0  0  0  0  0  0
  180.3830  174.5960  137.1970 C   0  0  0  0  0  2  0  0  0  0  0  0
  179.1900  173.8310  137.7410 C   0  0  0  0  0  2  0  0  0  0  0  0
  179.0480  174.9560  139.9730 C   0  0  0  0  0  1  0  0  0  0  0  0
  179.3320  173.6510  139.2410 C   0  0  0  0  0  2  0  0  0  0  0  0
  1 20  2  0  0  0  0
  2  7  1  0  0  0  0
  3  8  1  0  0  0  0
  4  3  1  0  0  0  0
  4 22  1  0  0  0  0
  5  7  1  0  0  0  0
  6 26  1  0  0  0  0
  7 26  1  0  0  0  0
  8  6  1  0  0  0  0
  8 27  2  0  0  0  0
  9  3  1  0  0  0  0
 10 22  1  0  0  0  0
 10 19  1  0  0  0  0
 11 25  1  0  0  0  0
 12 14  1  0  0  0  0
 13 51  1  0  0  0  0
 13 15  1  0  0  0  0
 15 12  1  0  0  0  0
 15 14  1  0  0  0  0
 16 21  1  0  0  0  0
 17 16  1  0  0  0  0
 18 24  1  0  0  0  0
 19  2  1  0  0  0  0
 20 18  1  0  0  0  0
 20 19  1  0  0  0  0
 21 12  1  0  0  0  0
 22  6  1  0  0  0  0
 23  4  1  0  0  0  0
 24  2  1  0  0  0  0
 24 46  1  0  0  0  0
 25 64  1  0  0  0  0
 25  1  2  0  0  0  0
 26 16  1  0  0  0  0
 27 13  1  0  0  0  0
 28  3  1  0  0  0  0
 29 39  1  0  0  0  0
 29 34  1  0  0  0  0
 31 33  1  0  0  0  0
 31 39  1  0  0  0  0
 32 40  1  0  0  0  0
 32 38  1  0  0  0  0
 33 43  1  0  0  0  0
 34 30  1  0  0  0  0
 35 10  1  0  0  0  0
 35 30  1  0  0  0  0
 36 37  1  0  0  0  0
 37 33  2  0  0  0  0
 38 35  1  0  0  0  0
 40 31  2  0  0  0  0
 41 36  2  0  0  0  0
 41 40  1  0  0  0  0
 42 43  2  0  0  0  0
 43 44  1  0  0  0  0
 45 46  1  0  0  0  0
 46 48  1  0  0  0  0
 47 46  1  0  0  0  0
 48 49  1  0  0  0  0
 49 50  1  0  0  0  0
 51 52  1  0  0  0  0
 53 54  2  0  0  0  0
 54 51  1  0  0  0  0
 55 53  1  0  0  0  0
 56 58  1  0  0  0  0
 56 55  1  0  0  0  0
 57 58  1  0  0  0  0
 59 60  1  0  0  0  0
 59 58  1  0  0  0  0
 61 60  1  0  0  0  0
 62 63  2  0  0  0  0
 63 60  1  0  0  0  0
 64 65  1  0  0  0  0
 65 67  1  0  0  0  0
 67 66  1  0  0  0  0
M  END
>  <MODEL>
3

>  <REMARK>
 VINA RESULT:       1.2      2.045      4.189
  Name = 
  16 active torsions:
  status: ('A' for Active; 'I' for Inactive)
    1  A    between atoms: C_7  and  C_23
    2  A    between atoms: C_7  and  C_64
    3  A    between atoms: C_8  and  C_35
    4  A    between atoms: C_8  and  C_59
    5  A    between atoms: O_14  and  C_27
    6  A    between atoms: O_14  and  C_38
    7  A    between atoms: C_21  and  C_40
    8  A    between atoms: C_22  and  C_36
    9  A    between atoms: C_26  and  C_28
   10  A    between atoms: C_29  and  C_40
   11  A    between atoms: C_29  and  C_53
   12  A    between atoms: C_31  and  C_42
   13  A    between atoms: C_31  and  C_56
   14  A    between atoms: C_38  and  C_54
   15  A    between atoms: C_53  and  C_64
   16  A    between atoms: C_55  and  C_56
                            x       y       z     vdW  Elec       q    Type
                         _______ _______ _______ _____ _____    ______ ____

>  <TORSDO>
F 16

$$$$
