=
 OpenBabel11062417483D

 64 70  0  0  1  0  0  0  0  0999 V2000
  182.9170  178.3790  139.3120 C   0  0  2  0  0  0  0  0  0  0  0  0
  180.3640  178.6830  139.6400 C   0  0  1  0  0  3  0  0  0  0  0  0
  184.1530  178.5090  141.1310 C   0  0  1  0  0  3  0  0  0  0  0  0
  180.4580  177.1520  139.7510 C   0  0  2  0  0  3  0  0  0  0  0  0
  184.8450  179.3380  140.2270 O   0  0  0  0  0  0  0  0  0  0  0  0
  182.4790  177.4240  138.1710 C   0  0  1  0  0  3  0  0  0  0  0  0
  183.2780  177.6490  140.4430 O   0  0  0  0  0  0  0  0  0  0  0  0
  181.2680  176.5580  138.5740 C   0  0  1  0  0  3  0  0  0  0  0  0
  181.7530  179.3330  139.6720 C   0  0  0  0  0  2  0  0  0  0  0  0
  184.1540  179.2130  139.0130 C   0  0  1  0  0  3  0  0  0  0  0  0
  185.5730  177.2380  138.2590 C   0  0  0  0  0  1  0  0  0  0  0  0
  185.0880  178.6440  137.9320 C   0  0  0  0  0  3  0  0  0  0  0  0
  186.2750  179.5630  137.7260 C   0  0  0  0  0  1  0  0  0  0  0  0
  179.0930  176.5400  139.8400 C   0  0  0  0  0  3  0  0  0  0  0  0
  178.9450  175.2530  140.1540 C   0  0  0  0  0  2  0  0  0  0  0  0
  182.1450  178.1560  137.0240 O   0  0  0  0  0  0  0  0  0  0  0  0
  182.7810  177.5600  136.0350 O   0  0  0  0  0  0  0  0  0  0  0  0
  181.7760  176.9500  135.2790 C   0  0  0  0  0  1  0  0  0  0  0  0
  179.7040  179.0550  138.4350 O   0  0  0  0  0  0  0  0  0  0  0  0
  179.3250  181.4380  139.0600 C   0  0  0  0  0  1  0  0  0  0  0  0
  179.7020  180.7150  136.8260 O   0  0  0  0  0  0  0  0  0  0  0  0
  179.5910  180.3890  138.0390 C   0  0  0  0  0  0  0  0  0  0  0  0
  185.1310  177.7090  141.9710 C   0  0  0  0  0  2  0  0  0  0  0  0
  185.8540  178.6510  142.9230 C   0  0  1  0  0  3  0  0  0  0  0  0
  185.3520  178.5000  144.2780 N   0  0  0  0  0  0  0  0  0  0  0  0
  186.0750  178.8260  145.3010 C   0  0  0  0  0  3  0  0  0  0  0  0
  186.4660  178.3050  147.6800 C   0  0  0  0  0  1  0  0  0  0  0  0
  185.6050  178.6690  146.6060 O   0  0  0  0  0  0  0  0  0  0  0  0
  187.3670  178.4450  142.8720 C   0  0  0  0  0  2  0  0  0  0  0  0
  187.9090  178.3290  141.4510 C   0  0  0  0  0  2  0  0  0  0  0  0
  189.8800  177.5090  140.5150 C   0  0  2  0  0  3  0  0  0  0  0  0
  189.9850  177.3690  141.9820 C   0  0  1  0  0  3  0  0  0  0  0  0
  188.7020  177.1230  141.3070 N   0  0  0  0  0  0  0  0  0  0  0  0
  190.5480  176.0440  142.4820 C   0  0  0  0  0  1  0  0  0  0  0  0
  190.3630  176.3120  139.6970 C   0  0  0  0  0  2  0  0  0  0  0  0
  191.7730  176.5320  139.1280 C   0  0  2  0  0  3  0  0  0  0  0  0
  192.1550  177.8650  139.2040 F   0  0  0  0  0  0  0  0  0  0  0  0
  192.2730  174.4650  137.7160 C   0  0  1  0  0  3  0  0  0  0  0  0
  193.3980  176.3160  137.2090 C   0  0  0  0  0  2  0  0  0  0  0  0
  193.9900  174.5950  137.1360 S   0  0  0  0  0  0  0  0  0  0  0  0
  192.0120  175.9670  137.7180 C   0  0  2  0  0  3  0  0  0  0  0  0
  192.0390  173.1880  135.7230 O   0  0  0  0  0  0  0  0  0  0  0  0
  190.0240  173.7680  136.7440 N   0  0  0  0  0  2  0  0  0  0  0  0
  191.4550  173.7300  136.6970 C   0  0  0  0  0  0  0  0  0  0  0  0
  189.0320  173.3540  135.3380 S   0  0  0  0  0  0  0  0  0  0  0  0
  187.7470  174.5740  135.7640 C   0  0  1  0  0  3  0  0  0  0  0  0
  189.4700  178.2590  136.5290 C   0  0  0  0  0  1  0  0  0  0  0  0
  188.3760  175.8740  136.0310 C   0  0  0  0  0  0  0  0  0  0  0  0
  188.8810  176.9490  136.2580 C   0  0  0  0  0  0  0  0  0  0  0  0
  186.7730  174.7160  134.6050 C   0  0  0  0  0  2  0  0  0  0  0  0
  185.6150  175.6030  135.0060 C   0  0  0  0  0  1  0  0  0  0  0  0
  181.6890  175.2490  138.8520 O   0  0  0  0  0  0  0  0  0  0  0  0
  180.0610  173.6060  134.9510 N   0  0  0  0  0  2  0  0  0  0  0  0
  183.3460  173.9380  137.6820 C   0  0  0  0  0  2  0  0  0  0  0  0
  181.5230  172.2280  135.4420 C   0  0  2  0  0  0  0  0  0  0  0  0
  180.3410  172.2730  134.5980 N   0  0  0  0  0  2  0  0  0  0  0  0
  181.2350  173.6890  135.7980 C   0  0  2  0  0  0  0  0  0  0  0  0
  181.0110  173.8430  137.1780 O   0  0  0  0  0  0  0  0  0  0  0  0
  183.7030  173.2960  136.3260 C   0  0  0  0  0  2  0  0  0  0  0  0
  182.0270  174.7020  137.6100 C   0  0  1  0  0  3  0  0  0  0  0  0
  182.5970  173.2920  135.2430 C   0  0  1  0  0  3  0  0  0  0  0  0
  180.3680  171.0080  137.1620 O   0  0  0  0  0  1  0  0  0  0  0  0
  182.6290  170.6410  137.0490 O   0  0  0  0  0  0  0  0  0  0  0  0
  181.4700  171.2770  136.6120 C   0  0  0  0  0  0  0  0  0  0  0  0
  1  9  1  1  0  0  0
  1  7  1  0  0  0  0
  2 19  1  6  0  0  0
  2  9  1  0  0  0  0
  2  4  1  0  0  0  0
  3 23  1  6  0  0  0
  4 14  1  6  0  0  0
  5  3  1  0  0  0  0
  6 16  1  6  0  0  0
  6  8  1  0  0  0  0
  6  1  1  0  0  0  0
  7  3  1  0  0  0  0
  8 52  1  1  0  0  0
  8  4  1  0  0  0  0
 10 12  1  6  0  0  0
 10  1  1  0  0  0  0
 10  5  1  0  0  0  0
 12 11  1  0  0  0  0
 13 12  1  0  0  0  0
 14 15  2  0  0  0  0
 17 16  1  0  0  0  0
 18 17  1  0  0  0  0
 21 22  2  0  0  0  0
 22 19  1  0  0  0  0
 22 20  1  0  0  0  0
 24 23  1  6  0  0  0
 24 25  1  0  0  0  0
 25 26  2  0  0  0  0
 26 28  1  0  0  0  0
 28 27  1  0  0  0  0
 29 24  1  0  0  0  0
 30 29  1  0  0  0  0
 31 35  1  6  0  0  0
 31 33  1  0  0  0  0
 31 32  1  0  0  0  0
 32 34  1  6  0  0  0
 33 30  1  0  0  0  0
 33 32  1  0  0  0  0
 36 37  1  6  0  0  0
 36 35  1  0  0  0  0
 38 44  1  6  0  0  0
 38 41  1  0  0  0  0
 39 41  1  0  0  0  0
 40 39  1  0  0  0  0
 40 38  1  0  0  0  0
 41 36  1  1  0  0  0
 42 44  2  0  0  0  0
 44 43  1  0  0  0  0
 45 46  1  0  0  0  0
 45 43  1  0  0  0  0
 46 50  1  6  0  0  0
 46 48  1  0  0  0  0
 48 49  3  0  0  0  0
 49 47  1  0  0  0  0
 50 51  1  0  0  0  0
 55 57  1  0  0  0  0
 55 64  1  1  0  0  0
 56 53  1  0  0  0  0
 56 55  1  0  0  0  0
 57 53  1  6  0  0  0
 57 58  1  0  0  0  0
 58 60  1  0  0  0  0
 59 54  1  0  0  0  0
 60 54  1  0  0  0  0
 60 52  1  1  0  0  0
 61 55  1  0  0  0  0
 61 57  1  0  0  0  0
 61 59  1  1  0  0  0
 64 63  2  0  0  0  0
 64 62  1  0  0  0  0
M  END
>  <MODEL>
1

>  <REMARK>
 VINA RESULT:      -3.9      0.000      0.000
  Name = 
  24 active torsions:
  status: ('A' for Active; 'I' for Inactive)
    1  A    between atoms: C_1  and  C_42
    2  A    between atoms: N_2  and  C_43
    3  A    between atoms: C_5  and  C_18
    4  A    between atoms: C_5  and  C_43
    5  A    between atoms: S_7  and  N_25
    6  A    between atoms: S_7  and  C_51
    7  A    between atoms: C_8  and  C_19
    8  A    between atoms: C_8  and  C_60
    9  A    between atoms: O_9  and  O_26
   10  A    between atoms: O_9  and  C_31
   11  A    between atoms: C_14  and  C_19
   12  A    between atoms: C_15  and  C_20
   13  A    between atoms: C_17  and  O_41
   14  A    between atoms: C_21  and  C_51
   15  A    between atoms: C_24  and  C_45
   16  A    between atoms: N_32  and  C_37
   17  A    between atoms: C_36  and  C_51
   18  A    between atoms: C_37  and  C_38
   19  A    between atoms: C_38  and  C_43
   20  A    between atoms: C_39  and  O_54
   21  A    between atoms: C_40  and  O_61
   22  A    between atoms: O_41  and  C_56
   23  A    between atoms: C_46  and  C_64
   24  A    between atoms: C_59  and  O_61
                            x       y       z     vdW  Elec       q    Type
                         _______ _______ _______ _____ _____    ______ ____

>  <TORSDO>
F 24

$$$$
=
 OpenBabel11062417483D

 64 70  0  0  1  0  0  0  0  0999 V2000
  183.8570  178.6120  139.7750 C   0  0  2  0  0  0  0  0  0  0  0  0
  181.4260  179.4750  140.0200 C   0  0  1  0  0  3  0  0  0  0  0  0
  185.0180  178.4340  141.6400 C   0  0  1  0  0  3  0  0  0  0  0  0
  181.1710  177.9610  140.0990 C   0  0  2  0  0  3  0  0  0  0  0  0
  185.9130  179.1000  140.7800 O   0  0  0  0  0  0  0  0  0  0  0  0
  183.2620  177.7960  138.5980 C   0  0  1  0  0  3  0  0  0  0  0  0
  184.0000  177.8030  140.9010 O   0  0  0  0  0  0  0  0  0  0  0  0
  181.8730  177.2180  138.9380 C   0  0  1  0  0  3  0  0  0  0  0  0
  182.9230  179.7970  140.1160 C   0  0  0  0  0  2  0  0  0  0  0  0
  185.2610  179.1510  139.5400 C   0  0  1  0  0  3  0  0  0  0  0  0
  187.3950  177.8580  139.0350 C   0  0  0  0  0  1  0  0  0  0  0  0
  186.0850  178.4030  138.4800 C   0  0  0  0  0  3  0  0  0  0  0  0
  186.3640  179.3080  137.2970 C   0  0  0  0  0  1  0  0  0  0  0  0
  179.7010  177.6690  140.1250 C   0  0  0  0  0  3  0  0  0  0  0  0
  179.1930  176.8190  141.0180 C   0  0  0  0  0  2  0  0  0  0  0  0
  183.1470  178.6010  137.4570 O   0  0  0  0  0  0  0  0  0  0  0  0
  182.1830  178.0530  136.7430 O   0  0  0  0  0  0  0  0  0  0  0  0
  182.7280  177.8970  135.4660 C   0  0  0  0  0  1  0  0  0  0  0  0
  180.9140  180.0040  138.8010 O   0  0  0  0  0  0  0  0  0  0  0  0
  179.4210  181.9870  139.0180 C   0  0  0  0  0  1  0  0  0  0  0  0
  181.6160  182.0950  138.1090 O   0  0  0  0  0  0  0  0  0  0  0  0
  180.7160  181.3730  138.6180 C   0  0  0  0  0  0  0  0  0  0  0  0
  185.7580  177.4240  142.4960 C   0  0  0  0  0  2  0  0  0  0  0  0
  186.7110  178.1620  143.4240 C   0  0  1  0  0  3  0  0  0  0  0  0
  186.1150  178.3420  144.7370 N   0  0  0  0  0  0  0  0  0  0  0  0
  186.6870  177.8780  145.8020 C   0  0  0  0  0  3  0  0  0  0  0  0
  185.6920  179.3050  147.5500 C   0  0  0  0  0  1  0  0  0  0  0  0
  186.1130  178.0340  147.0650 O   0  0  0  0  0  0  0  0  0  0  0  0
  188.0580  177.4480  143.5260 C   0  0  0  0  0  2  0  0  0  0  0  0
  188.4380  176.7000  142.2520 C   0  0  0  0  0  2  0  0  0  0  0  0
  190.4990  177.0310  141.2150 C   0  0  2  0  0  3  0  0  0  0  0  0
  190.6180  177.4940  142.6130 C   0  0  1  0  0  3  0  0  0  0  0  0
  189.8300  176.2950  142.2980 N   0  0  0  0  0  0  0  0  0  0  0  0
  191.8900  177.0810  143.3420 C   0  0  0  0  0  1  0  0  0  0  0  0
  191.6740  176.2100  140.6850 C   0  0  0  0  0  2  0  0  0  0  0  0
  192.5450  177.0130  139.7070 C   0  0  2  0  0  3  0  0  0  0  0  0
  192.4770  178.3770  139.9600 F   0  0  0  0  0  0  0  0  0  0  0  0
  191.5600  175.4090  137.9830 C   0  0  1  0  0  3  0  0  0  0  0  0
  193.5820  176.2240  137.5450 C   0  0  0  0  0  2  0  0  0  0  0  0
  192.9420  174.5630  137.1620 S   0  0  0  0  0  0  0  0  0  0  0  0
  192.3120  176.7140  138.2170 C   0  0  2  0  0  3  0  0  0  0  0  0
  189.8230  176.6630  136.9480 O   0  0  0  0  0  0  0  0  0  0  0  0
  189.9170  174.4230  136.3030 N   0  0  0  0  0  2  0  0  0  0  0  0
  190.4190  175.5560  137.0200 C   0  0  0  0  0  0  0  0  0  0  0  0
  188.3130  174.4270  135.5570 S   0  0  0  0  0  0  0  0  0  0  0  0
  188.3540  172.6340  135.2330 C   0  0  1  0  0  3  0  0  0  0  0  0
  192.2570  171.4140  134.5940 C   0  0  0  0  0  1  0  0  0  0  0  0
  189.7420  172.2060  135.0250 C   0  0  0  0  0  0  0  0  0  0  0  0
  190.8840  171.8530  134.8390 C   0  0  0  0  0  0  0  0  0  0  0  0
  187.7700  171.8860  136.4230 C   0  0  0  0  0  2  0  0  0  0  0  0
  186.8350  172.7910  137.1960 C   0  0  0  0  0  1  0  0  0  0  0  0
  181.9790  175.8440  139.2010 O   0  0  0  0  0  0  0  0  0  0  0  0
  179.7520  173.7760  135.8340 N   0  0  0  0  0  2  0  0  0  0  0  0
  183.4830  174.6080  137.7700 C   0  0  0  0  0  2  0  0  0  0  0  0
  181.4210  172.5770  136.0700 C   0  0  2  0  0  0  0  0  0  0  0  0
  180.0910  172.4520  135.4990 N   0  0  0  0  0  2  0  0  0  0  0  0
  181.0620  174.0290  136.4020 C   0  0  2  0  0  0  0  0  0  0  0  0
  181.1180  174.2620  137.7880 O   0  0  0  0  0  0  0  0  0  0  0  0
  183.6130  173.9030  136.4050 C   0  0  0  0  0  2  0  0  0  0  0  0
  182.1050  175.2410  137.9450 C   0  0  1  0  0  3  0  0  0  0  0  0
  182.3110  173.7180  135.5880 C   0  0  1  0  0  3  0  0  0  0  0  0
  182.8570  171.1970  137.4170 O   0  0  0  0  0  0  0  0  0  0  0  0
  180.7500  171.5370  138.2580 O   0  0  0  0  0  1  0  0  0  0  0  0
  181.7160  171.7140  137.2710 C   0  0  0  0  0  0  0  0  0  0  0  0
  1  9  1  1  0  0  0
  1  7  1  0  0  0  0
  2 19  1  6  0  0  0
  2  4  1  0  0  0  0
  2  9  1  0  0  0  0
  3 23  1  6  0  0  0
  4 14  1  6  0  0  0
  5  3  1  0  0  0  0
  6 16  1  6  0  0  0
  6  8  1  0  0  0  0
  6  1  1  0  0  0  0
  7  3  1  0  0  0  0
  8 52  1  1  0  0  0
  8  4  1  0  0  0  0
 10 12  1  6  0  0  0
 10  1  1  0  0  0  0
 10  5  1  0  0  0  0
 12 11  1  0  0  0  0
 13 12  1  0  0  0  0
 14 15  2  0  0  0  0
 17 16  1  0  0  0  0
 18 17  1  0  0  0  0
 21 22  2  0  0  0  0
 22 19  1  0  0  0  0
 22 20  1  0  0  0  0
 24 23  1  6  0  0  0
 24 29  1  0  0  0  0
 24 25  1  0  0  0  0
 25 26  2  0  0  0  0
 26 28  1  0  0  0  0
 28 27  1  0  0  0  0
 30 33  1  0  0  0  0
 30 29  1  0  0  0  0
 31 35  1  1  0  0  0
 31 33  1  0  0  0  0
 31 32  1  0  0  0  0
 32 34  1  1  0  0  0
 33 32  1  0  0  0  0
 36 37  1  6  0  0  0
 36 35  1  0  0  0  0
 38 44  1  6  0  0  0
 38 41  1  0  0  0  0
 39 41  1  0  0  0  0
 40 39  1  0  0  0  0
 40 38  1  0  0  0  0
 41 36  1  1  0  0  0
 42 44  2  0  0  0  0
 43 44  1  0  0  0  0
 45 43  1  0  0  0  0
 46 48  1  1  0  0  0
 46 45  1  0  0  0  0
 46 50  1  0  0  0  0
 47 49  1  0  0  0  0
 49 48  3  0  0  0  0
 50 51  1  0  0  0  0
 54 60  1  0  0  0  0
 55 57  1  0  0  0  0
 55 64  1  1  0  0  0
 56 53  1  0  0  0  0
 56 55  1  0  0  0  0
 57 53  1  6  0  0  0
 57 58  1  0  0  0  0
 58 60  1  0  0  0  0
 59 54  1  0  0  0  0
 60 52  1  1  0  0  0
 61 55  1  0  0  0  0
 61 57  1  0  0  0  0
 61 59  1  1  0  0  0
 64 62  2  0  0  0  0
 64 63  1  0  0  0  0
M  END
>  <MODEL>
2

>  <REMARK>
 VINA RESULT:      -3.5      1.467      1.981
  Name = 
  24 active torsions:
  status: ('A' for Active; 'I' for Inactive)
    1  A    between atoms: C_1  and  C_42
    2  A    between atoms: N_2  and  C_43
    3  A    between atoms: C_5  and  C_18
    4  A    between atoms: C_5  and  C_43
    5  A    between atoms: S_7  and  N_25
    6  A    between atoms: S_7  and  C_51
    7  A    between atoms: C_8  and  C_19
    8  A    between atoms: C_8  and  C_60
    9  A    between atoms: O_9  and  O_26
   10  A    between atoms: O_9  and  C_31
   11  A    between atoms: C_14  and  C_19
   12  A    between atoms: C_15  and  C_20
   13  A    between atoms: C_17  and  O_41
   14  A    between atoms: C_21  and  C_51
   15  A    between atoms: C_24  and  C_45
   16  A    between atoms: N_32  and  C_37
   17  A    between atoms: C_36  and  C_51
   18  A    between atoms: C_37  and  C_38
   19  A    between atoms: C_38  and  C_43
   20  A    between atoms: C_39  and  O_54
   21  A    between atoms: C_40  and  O_61
   22  A    between atoms: O_41  and  C_56
   23  A    between atoms: C_46  and  C_64
   24  A    between atoms: C_59  and  O_61
                            x       y       z     vdW  Elec       q    Type
                         _______ _______ _______ _____ _____    ______ ____

>  <TORSDO>
F 24

$$$$
=
 OpenBabel11062417483D

 64 70  0  0  1  0  0  0  0  0999 V2000
  183.9840  178.1360  137.8030 C   0  0  2  0  0  0  0  0  0  0  0  0
  182.0950  179.2880  139.1530 C   0  0  1  0  0  3  0  0  0  0  0  0
  185.9490  178.0130  138.7920 C   0  0  1  0  0  3  0  0  0  0  0  0
  181.8550  177.8280  139.5700 C   0  0  2  0  0  3  0  0  0  0  0  0
  186.2770  178.4850  137.5060 O   0  0  0  0  0  0  0  0  0  0  0  0
  182.8190  177.2800  137.2400 C   0  0  1  0  0  3  0  0  0  0  0  0
  184.6680  177.4310  138.7920 O   0  0  0  0  0  0  0  0  0  0  0  0
  181.7990  176.9000  138.3330 C   0  0  1  0  0  3  0  0  0  0  0  0
  183.4270  179.4470  138.4070 C   0  0  0  0  0  2  0  0  0  0  0  0
  185.0690  178.4880  136.7960 C   0  0  1  0  0  3  0  0  0  0  0  0
  185.5210  176.1210  135.9740 C   0  0  0  0  0  1  0  0  0  0  0  0
  185.1700  177.5500  135.5820 C   0  0  0  0  0  3  0  0  0  0  0  0
  186.1900  178.0790  134.5940 C   0  0  0  0  0  1  0  0  0  0  0  0
  180.6130  177.7080  140.4010 C   0  0  0  0  0  3  0  0  0  0  0  0
  179.8660  176.6050  140.3500 C   0  0  0  0  0  2  0  0  0  0  0  0
  182.1490  177.9770  136.2250 O   0  0  0  0  0  0  0  0  0  0  0  0
  180.8890  177.5990  136.3190 O   0  0  0  0  0  0  0  0  0  0  0  0
  180.3940  177.6800  135.0150 C   0  0  0  0  0  1  0  0  0  0  0  0
  181.0380  179.7490  138.3190 O   0  0  0  0  0  0  0  0  0  0  0  0
  179.8220  181.5140  139.5910 C   0  0  0  0  0  1  0  0  0  0  0  0
  180.7530  181.8630  137.4300 O   0  0  0  0  0  0  0  0  0  0  0  0
  180.5660  181.0600  138.3850 C   0  0  0  0  0  0  0  0  0  0  0  0
  186.9860  177.0140  139.2700 C   0  0  0  0  0  2  0  0  0  0  0  0
  187.9010  177.6940  140.2790 C   0  0  1  0  0  3  0  0  0  0  0  0
  189.2570  177.7850  139.7650 N   0  0  0  0  0  0  0  0  0  0  0  0
  189.6240  177.1130  138.7200 C   0  0  0  0  0  3  0  0  0  0  0  0
  191.4430  176.2280  137.3090 C   0  0  0  0  0  1  0  0  0  0  0  0
  190.9290  177.1850  138.2300 O   0  0  0  0  0  0  0  0  0  0  0  0
  187.3710  179.0710  140.6760 C   0  0  0  0  0  2  0  0  0  0  0  0
  187.3780  179.3050  142.1830 C   0  0  0  0  0  2  0  0  0  0  0  0
  185.7160  179.5390  143.8000 C   0  0  2  0  0  3  0  0  0  0  0  0
  185.0520  179.3580  142.4930 C   0  0  1  0  0  3  0  0  0  0  0  0
  186.2730  178.6050  142.8100 N   0  0  0  0  0  0  0  0  0  0  0  0
  183.8640  178.4040  142.4800 C   0  0  0  0  0  1  0  0  0  0  0  0
  185.1150  178.7540  144.9650 C   0  0  0  0  0  2  0  0  0  0  0  0
  186.1020  177.7270  145.5410 C   0  0  2  0  0  3  0  0  0  0  0  0
  185.4480  176.7140  146.2280 F   0  0  0  0  0  0  0  0  0  0  0  0
  187.9090  177.2820  147.2880 C   0  0  1  0  0  3  0  0  0  0  0  0
  186.7220  179.1470  147.5340 C   0  0  0  0  0  2  0  0  0  0  0  0
  187.3800  178.0630  148.8420 S   0  0  0  0  0  0  0  0  0  0  0  0
  187.2500  178.3140  146.3810 C   0  0  2  0  0  3  0  0  0  0  0  0
  190.0510  178.0540  147.9790 O   0  0  0  0  0  0  0  0  0  0  0  0
  190.0880  176.5910  146.1620 N   0  0  0  0  0  2  0  0  0  0  0  0
  189.4060  177.3010  147.2030 C   0  0  0  0  0  0  0  0  0  0  0  0
  191.7600  176.9620  145.7200 S   0  0  0  0  0  0  0  0  0  0  0  0
  191.4500  176.7000  143.9430 C   0  0  1  0  0  3  0  0  0  0  0  0
  187.4200  175.9800  143.3380 C   0  0  0  0  0  1  0  0  0  0  0  0
  190.0240  176.4260  143.7310 C   0  0  0  0  0  0  0  0  0  0  0  0
  188.8470  176.2140  143.5500 C   0  0  0  0  0  0  0  0  0  0  0  0
  191.8430  177.9480  143.1670 C   0  0  0  0  0  2  0  0  0  0  0  0
  192.1210  177.5940  141.7220 C   0  0  0  0  0  1  0  0  0  0  0  0
  181.9690  175.5550  138.6960 O   0  0  0  0  0  0  0  0  0  0  0  0
  179.8230  174.3890  134.8740 N   0  0  0  0  0  2  0  0  0  0  0  0
  183.0480  173.6880  137.6070 C   0  0  0  0  0  2  0  0  0  0  0  0
  180.7150  172.6130  135.4470 C   0  0  2  0  0  0  0  0  0  0  0  0
  179.6150  173.0260  134.5940 N   0  0  0  0  0  2  0  0  0  0  0  0
  180.9620  174.0990  135.7240 C   0  0  2  0  0  0  0  0  0  0  0  0
  180.8220  174.3910  137.0930 O   0  0  0  0  0  0  0  0  0  0  0  0
  183.1410  172.8930  136.2890 C   0  0  0  0  0  2  0  0  0  0  0  0
  182.0800  174.8610  137.4860 C   0  0  1  0  0  3  0  0  0  0  0  0
  182.0920  173.2220  135.2000 C   0  0  1  0  0  3  0  0  0  0  0  0
  181.0900  170.8570  137.0470 O   0  0  0  0  0  0  0  0  0  0  0  0
  179.2180  172.1320  137.4100 O   0  0  0  0  0  1  0  0  0  0  0  0
  180.3470  171.8020  136.6650 C   0  0  0  0  0  0  0  0  0  0  0  0
  1  9  1  1  0  0  0
  1  7  1  0  0  0  0
  2 19  1  6  0  0  0
  2  4  1  0  0  0  0
  3 23  1  6  0  0  0
  4 14  1  6  0  0  0
  5  3  1  0  0  0  0
  6 16  1  6  0  0  0
  6  1  1  0  0  0  0
  6  8  1  0  0  0  0
  7  3  1  0  0  0  0
  8 52  1  1  0  0  0
  8  4  1  0  0  0  0
  9  2  1  0  0  0  0
 10 12  1  6  0  0  0
 10  5  1  0  0  0  0
 10  1  1  0  0  0  0
 12 11  1  0  0  0  0
 13 12  1  0  0  0  0
 15 14  2  0  0  0  0
 16 17  1  0  0  0  0
 18 17  1  0  0  0  0
 19 22  1  0  0  0  0
 21 22  2  0  0  0  0
 22 20  1  0  0  0  0
 24 23  1  6  0  0  0
 24 29  1  0  0  0  0
 25 24  1  0  0  0  0
 26 25  2  0  0  0  0
 27 28  1  0  0  0  0
 28 26  1  0  0  0  0
 29 30  1  0  0  0  0
 30 33  1  0  0  0  0
 31 35  1  1  0  0  0
 32 34  1  1  0  0  0
 32 33  1  0  0  0  0
 32 31  1  0  0  0  0
 33 31  1  0  0  0  0
 35 36  1  0  0  0  0
 36 37  1  1  0  0  0
 38 44  1  1  0  0  0
 38 40  1  0  0  0  0
 39 40  1  0  0  0  0
 41 36  1  1  0  0  0
 41 38  1  0  0  0  0
 41 39  1  0  0  0  0
 43 44  1  0  0  0  0
 44 42  2  0  0  0  0
 45 43  1  0  0  0  0
 46 50  1  6  0  0  0
 46 45  1  0  0  0  0
 47 49  1  0  0  0  0
 48 46  1  0  0  0  0
 49 48  3  0  0  0  0
 51 50  1  0  0  0  0
 55 57  1  0  0  0  0
 55 64  1  1  0  0  0
 56 53  1  0  0  0  0
 56 55  1  0  0  0  0
 57 53  1  6  0  0  0
 57 58  1  0  0  0  0
 58 60  1  0  0  0  0
 59 54  1  0  0  0  0
 60 54  1  0  0  0  0
 60 52  1  1  0  0  0
 61 55  1  0  0  0  0
 61 57  1  0  0  0  0
 61 59  1  1  0  0  0
 64 62  2  0  0  0  0
 64 63  1  0  0  0  0
M  END
>  <MODEL>
3

>  <REMARK>
 VINA RESULT:      -2.7      2.977      6.110
  Name = 
  24 active torsions:
  status: ('A' for Active; 'I' for Inactive)
    1  A    between atoms: C_1  and  C_42
    2  A    between atoms: N_2  and  C_43
    3  A    between atoms: C_5  and  C_18
    4  A    between atoms: C_5  and  C_43
    5  A    between atoms: S_7  and  N_25
    6  A    between atoms: S_7  and  C_51
    7  A    between atoms: C_8  and  C_19
    8  A    between atoms: C_8  and  C_60
    9  A    between atoms: O_9  and  O_26
   10  A    between atoms: O_9  and  C_31
   11  A    between atoms: C_14  and  C_19
   12  A    between atoms: C_15  and  C_20
   13  A    between atoms: C_17  and  O_41
   14  A    between atoms: C_21  and  C_51
   15  A    between atoms: C_24  and  C_45
   16  A    between atoms: N_32  and  C_37
   17  A    between atoms: C_36  and  C_51
   18  A    between atoms: C_37  and  C_38
   19  A    between atoms: C_38  and  C_43
   20  A    between atoms: C_39  and  O_54
   21  A    between atoms: C_40  and  O_61
   22  A    between atoms: O_41  and  C_56
   23  A    between atoms: C_46  and  C_64
   24  A    between atoms: C_59  and  O_61
                            x       y       z     vdW  Elec       q    Type
                         _______ _______ _______ _____ _____    ______ ____

>  <TORSDO>
F 24

$$$$
=
 OpenBabel11062417483D

 64 70  0  0  1  0  0  0  0  0999 V2000
  183.5340  177.8030  137.3540 C   0  0  2  0  0  0  0  0  0  0  0  0
  182.4490  179.1880  139.2570 C   0  0  1  0  0  3  0  0  0  0  0  0
  185.6430  177.2340  137.6470 C   0  0  1  0  0  3  0  0  0  0  0  0
  182.0610  177.7730  139.7150 C   0  0  2  0  0  3  0  0  0  0  0  0
  185.6360  177.7310  136.3300 O   0  0  0  0  0  0  0  0  0  0  0  0
  182.1020  177.2300  137.1930 C   0  0  1  0  0  3  0  0  0  0  0  0
  184.3370  176.9080  138.0590 O   0  0  0  0  0  0  0  0  0  0  0  0
  181.4270  176.9680  138.5550 C   0  0  1  0  0  3  0  0  0  0  0  0
  183.4780  179.1470  138.1200 C   0  0  0  0  0  2  0  0  0  0  0  0
  184.2920  178.0170  136.0520 C   0  0  1  0  0  3  0  0  0  0  0  0
  182.3190  177.3370  134.5940 C   0  0  0  0  0  1  0  0  0  0  0  0
  183.8090  177.1720  134.8620 C   0  0  0  0  0  3  0  0  0  0  0  0
  184.1310  175.7090  135.0920 C   0  0  0  0  0  1  0  0  0  0  0  0
  181.1490  177.8280  140.9040 C   0  0  0  0  0  3  0  0  0  0  0  0
  181.5020  178.5000  142.0000 C   0  0  0  0  0  2  0  0  0  0  0  0
  181.3020  178.1160  136.4590 O   0  0  0  0  0  0  0  0  0  0  0  0
  180.0710  177.8990  136.8770 O   0  0  0  0  0  0  0  0  0  0  0  0
  179.2550  178.5000  135.9150 C   0  0  0  0  0  1  0  0  0  0  0  0
  181.2990  179.9020  138.8180 O   0  0  0  0  0  0  0  0  0  0  0  0
  180.7900  181.5420  137.0120 C   0  0  0  0  0  1  0  0  0  0  0  0
  181.9660  182.1080  139.0010 O   0  0  0  0  0  0  0  0  0  0  0  0
  181.3840  181.2090  138.3350 C   0  0  0  0  0  0  0  0  0  0  0  0
  186.5510  176.0230  137.7520 C   0  0  0  0  0  2  0  0  0  0  0  0
  187.9700  176.4900  138.0400 C   0  0  1  0  0  3  0  0  0  0  0  0
  188.7490  176.5580  136.8160 N   0  0  0  0  0  0  0  0  0  0  0  0
  189.5190  175.5820  136.4560 C   0  0  0  0  0  3  0  0  0  0  0  0
  190.4940  176.8720  134.5940 C   0  0  0  0  0  1  0  0  0  0  0  0
  190.2810  175.6470  135.2880 O   0  0  0  0  0  0  0  0  0  0  0  0
  187.9790  177.8320  138.7720 C   0  0  0  0  0  2  0  0  0  0  0  0
  189.3770  178.2800  139.1860 C   0  0  0  0  0  2  0  0  0  0  0  0
  189.2240  176.9100  141.0650 C   0  0  2  0  0  3  0  0  0  0  0  0
  190.6170  177.3940  140.9720 C   0  0  1  0  0  3  0  0  0  0  0  0
  189.5010  178.2870  140.6310 N   0  0  0  0  0  0  0  0  0  0  0  0
  191.2460  177.8560  142.2800 C   0  0  0  0  0  1  0  0  0  0  0  0
  188.6070  176.9260  142.4630 C   0  0  0  0  0  2  0  0  0  0  0  0
  187.1780  177.4890  142.4580 C   0  0  2  0  0  3  0  0  0  0  0  0
  186.8730  178.1040  141.2510 F   0  0  0  0  0  0  0  0  0  0  0  0
  186.0750  177.6610  144.7530 C   0  0  1  0  0  3  0  0  0  0  0  0
  185.6510  179.3060  143.3180 C   0  0  0  0  0  2  0  0  0  0  0  0
  184.5240  178.5860  144.5540 S   0  0  0  0  0  0  0  0  0  0  0  0
  186.8210  178.3970  143.6470 C   0  0  2  0  0  3  0  0  0  0  0  0
  186.2620  178.9440  146.7470 O   0  0  0  0  0  0  0  0  0  0  0  0
  187.7070  177.1160  146.6330 N   0  0  0  0  0  2  0  0  0  0  0  0
  186.6430  177.9240  146.1160 C   0  0  0  0  0  0  0  0  0  0  0  0
  188.7250  177.6610  147.9730 S   0  0  0  0  0  0  0  0  0  0  0  0
  190.2370  177.6540  146.9550 C   0  0  1  0  0  3  0  0  0  0  0  0
  193.3120  175.9590  149.1460 C   0  0  0  0  0  1  0  0  0  0  0  0
  191.3360  177.0470  147.7150 C   0  0  0  0  0  0  0  0  0  0  0  0
  192.2330  176.5480  148.3540 C   0  0  0  0  0  0  0  0  0  0  0  0
  189.9950  176.8460  145.6890 C   0  0  0  0  0  2  0  0  0  0  0  0
  191.3110  176.3460  145.1340 C   0  0  0  0  0  1  0  0  0  0  0  0
  181.4240  175.5920  138.8300 O   0  0  0  0  0  0  0  0  0  0  0  0
  179.0100  174.3370  135.2010 N   0  0  0  0  0  2  0  0  0  0  0  0
  182.5840  173.9200  137.5270 C   0  0  0  0  0  2  0  0  0  0  0  0
  180.1640  172.6610  135.5730 C   0  0  2  0  0  0  0  0  0  0  0  0
  178.9320  172.9720  134.8670 N   0  0  0  0  0  2  0  0  0  0  0  0
  180.2640  174.1520  135.9050 C   0  0  2  0  0  0  0  0  0  0  0  0
  180.2470  174.3670  137.2950 O   0  0  0  0  0  0  0  0  0  0  0  0
  182.6200  173.2000  136.1640 C   0  0  0  0  0  2  0  0  0  0  0  0
  181.4770  174.9700  137.5770 C   0  0  1  0  0  3  0  0  0  0  0  0
  181.4220  173.4440  135.2140 C   0  0  1  0  0  3  0  0  0  0  0  0
  180.9360  170.9190  137.0400 O   0  0  0  0  0  0  0  0  0  0  0  0
  178.9470  171.8930  137.6360 O   0  0  0  0  0  1  0  0  0  0  0  0
  180.0330  171.7590  136.7750 C   0  0  0  0  0  0  0  0  0  0  0  0
  1  7  1  0  0  0  0
  1  9  1  1  0  0  0
  2 19  1  6  0  0  0
  2  4  1  0  0  0  0
  3 23  1  6  0  0  0
  3  7  1  0  0  0  0
  4 14  1  1  0  0  0
  5  3  1  0  0  0  0
  6 16  1  6  0  0  0
  6  1  1  0  0  0  0
  6  8  1  0  0  0  0
  8 52  1  1  0  0  0
  8  4  1  0  0  0  0
  9  2  1  0  0  0  0
 10 12  1  6  0  0  0
 10  5  1  0  0  0  0
 10  1  1  0  0  0  0
 11 12  1  0  0  0  0
 12 13  1  0  0  0  0
 14 15  2  0  0  0  0
 16 17  1  0  0  0  0
 18 17  1  0  0  0  0
 20 22  1  0  0  0  0
 22 19  1  0  0  0  0
 22 21  2  0  0  0  0
 24 23  1  6  0  0  0
 24 29  1  0  0  0  0
 25 24  1  0  0  0  0
 26 25  2  0  0  0  0
 27 28  1  0  0  0  0
 28 26  1  0  0  0  0
 29 30  1  0  0  0  0
 30 33  1  0  0  0  0
 31 35  1  1  0  0  0
 32 31  1  0  0  0  0
 32 34  1  1  0  0  0
 33 32  1  0  0  0  0
 33 31  1  0  0  0  0
 36 37  1  6  0  0  0
 36 35  1  0  0  0  0
 38 44  1  1  0  0  0
 39 41  1  0  0  0  0
 39 40  1  0  0  0  0
 40 38  1  0  0  0  0
 41 36  1  6  0  0  0
 41 38  1  0  0  0  0
 43 45  1  0  0  0  0
 44 43  1  0  0  0  0
 44 42  2  0  0  0  0
 46 50  1  6  0  0  0
 46 48  1  0  0  0  0
 46 45  1  0  0  0  0
 48 49  3  0  0  0  0
 49 47  1  0  0  0  0
 51 50  1  0  0  0  0
 54 60  1  0  0  0  0
 55 57  1  0  0  0  0
 55 64  1  1  0  0  0
 56 53  1  0  0  0  0
 56 55  1  0  0  0  0
 57 53  1  6  0  0  0
 57 58  1  0  0  0  0
 58 60  1  0  0  0  0
 59 54  1  0  0  0  0
 60 52  1  1  0  0  0
 61 55  1  0  0  0  0
 61 57  1  0  0  0  0
 61 59  1  1  0  0  0
 64 62  2  0  0  0  0
 64 63  1  0  0  0  0
M  END
>  <MODEL>
4

>  <REMARK>
 VINA RESULT:      -2.6      3.142      6.689
  Name = 
  24 active torsions:
  status: ('A' for Active; 'I' for Inactive)
    1  A    between atoms: C_1  and  C_42
    2  A    between atoms: N_2  and  C_43
    3  A    between atoms: C_5  and  C_18
    4  A    between atoms: C_5  and  C_43
    5  A    between atoms: S_7  and  N_25
    6  A    between atoms: S_7  and  C_51
    7  A    between atoms: C_8  and  C_19
    8  A    between atoms: C_8  and  C_60
    9  A    between atoms: O_9  and  O_26
   10  A    between atoms: O_9  and  C_31
   11  A    between atoms: C_14  and  C_19
   12  A    between atoms: C_15  and  C_20
   13  A    between atoms: C_17  and  O_41
   14  A    between atoms: C_21  and  C_51
   15  A    between atoms: C_24  and  C_45
   16  A    between atoms: N_32  and  C_37
   17  A    between atoms: C_36  and  C_51
   18  A    between atoms: C_37  and  C_38
   19  A    between atoms: C_38  and  C_43
   20  A    between atoms: C_39  and  O_54
   21  A    between atoms: C_40  and  O_61
   22  A    between atoms: O_41  and  C_56
   23  A    between atoms: C_46  and  C_64
   24  A    between atoms: C_59  and  O_61
                            x       y       z     vdW  Elec       q    Type
                         _______ _______ _______ _____ _____    ______ ____

>  <TORSDO>
F 24

$$$$
=
 OpenBabel11062417483D

 64 70  0  0  1  0  0  0  0  0999 V2000
  185.2040  177.2890  137.1200 C   0  0  2  0  0  0  0  0  0  0  0  0
  183.9390  178.6770  138.9060 C   0  0  1  0  0  3  0  0  0  0  0  0
  187.2970  176.7820  137.5870 C   0  0  1  0  0  3  0  0  0  0  0  0
  183.5520  177.2610  139.3600 C   0  0  2  0  0  3  0  0  0  0  0  0
  187.3800  177.2560  136.2630 O   0  0  0  0  0  0  0  0  0  0  0  0
  183.8040  176.6750  136.8600 C   0  0  1  0  0  3  0  0  0  0  0  0
  185.9720  176.4280  137.9020 O   0  0  0  0  0  0  0  0  0  0  0  0
  183.0310  176.4190  138.1700 C   0  0  1  0  0  3  0  0  0  0  0  0
  185.0540  178.6440  137.8530 C   0  0  0  0  0  2  0  0  0  0  0  0
  186.0560  177.5010  135.8770 C   0  0  1  0  0  3  0  0  0  0  0  0
  184.2360  176.1650  134.6990 C   0  0  0  0  0  1  0  0  0  0  0  0
  185.6880  176.6220  134.6700 C   0  0  0  0  0  3  0  0  0  0  0  0
  186.6060  175.4180  134.5990 C   0  0  0  0  0  1  0  0  0  0  0  0
  182.5490  177.3130  140.4730 C   0  0  0  0  0  3  0  0  0  0  0  0
  182.6260  178.2550  141.4120 C   0  0  0  0  0  2  0  0  0  0  0  0
  183.0420  177.5260  136.0490 O   0  0  0  0  0  0  0  0  0  0  0  0
  181.7890  177.1770  136.2610 O   0  0  0  0  0  0  0  0  0  0  0  0
  181.0490  178.3410  136.0370 C   0  0  0  0  0  1  0  0  0  0  0  0
  182.8090  179.3530  138.3650 O   0  0  0  0  0  0  0  0  0  0  0  0
  181.2090  180.7480  139.6710 C   0  0  0  0  0  1  0  0  0  0  0  0
  183.0760  181.6450  138.5010 O   0  0  0  0  0  0  0  0  0  0  0  0
  182.4200  180.6150  138.8160 C   0  0  0  0  0  0  0  0  0  0  0  0
  188.2250  175.5980  137.7860 C   0  0  0  0  0  2  0  0  0  0  0  0
  189.6660  176.0720  137.6720 C   0  0  1  0  0  3  0  0  0  0  0  0
  190.2340  175.6920  136.3900 N   0  0  0  0  0  0  0  0  0  0  0  0
  191.4990  175.8320  136.1490 C   0  0  0  0  0  3  0  0  0  0  0  0
  192.7000  174.2340  134.7040 C   0  0  0  0  0  1  0  0  0  0  0  0
  192.0480  175.4830  134.9140 O   0  0  0  0  0  0  0  0  0  0  0  0
  189.7790  177.5800  137.8970 C   0  0  0  0  0  2  0  0  0  0  0  0
  189.0420  178.0560  139.1450 C   0  0  0  0  0  2  0  0  0  0  0  0
  189.7860  177.0860  141.1290 C   0  0  2  0  0  3  0  0  0  0  0  0
  190.9280  177.1290  140.1920 C   0  0  1  0  0  3  0  0  0  0  0  0
  189.9710  178.2440  140.2420 N   0  0  0  0  0  0  0  0  0  0  0  0
  192.2560  177.5820  140.7860 C   0  0  0  0  0  1  0  0  0  0  0  0
  190.0940  177.4880  142.5710 C   0  0  0  0  0  2  0  0  0  0  0  0
  190.6530  176.3150  143.3910 C   0  0  2  0  0  3  0  0  0  0  0  0
  190.2860  175.0900  142.8510 F   0  0  0  0  0  0  0  0  0  0  0  0
  189.8120  177.7130  145.3540 C   0  0  1  0  0  3  0  0  0  0  0  0
  191.6380  176.4940  145.7080 C   0  0  0  0  0  2  0  0  0  0  0  0
  191.2470  178.1390  146.3840 S   0  0  0  0  0  0  0  0  0  0  0  0
  190.3600  176.3660  144.9000 C   0  0  2  0  0  3  0  0  0  0  0  0
  188.5310  176.6410  147.0470 O   0  0  0  0  0  0  0  0  0  0  0  0
  187.4580  178.4350  146.0100 N   0  0  0  0  0  2  0  0  0  0  0  0
  188.5940  177.5880  146.2190 C   0  0  0  0  0  0  0  0  0  0  0  0
  185.8580  178.0230  146.6410 S   0  0  0  0  0  0  0  0  0  0  0  0
  185.0010  179.0850  145.4330 C   0  0  1  0  0  3  0  0  0  0  0  0
  186.2300  178.0820  141.6100 C   0  0  0  0  0  1  0  0  0  0  0  0
  185.4500  178.7440  144.0780 C   0  0  0  0  0  0  0  0  0  0  0  0
  185.8070  178.4540  142.9590 C   0  0  0  0  0  0  0  0  0  0  0  0
  183.4990  178.8660  145.5350 C   0  0  0  0  0  2  0  0  0  0  0  0
  182.8220  179.3120  144.2580 C   0  0  0  0  0  1  0  0  0  0  0  0
  183.0420  175.0490  138.4700 O   0  0  0  0  0  0  0  0  0  0  0  0
  180.3630  174.2350  134.9020 N   0  0  0  0  0  2  0  0  0  0  0  0
  183.8170  173.1490  137.1940 C   0  0  0  0  0  2  0  0  0  0  0  0
  181.1590  172.3670  135.3000 C   0  0  2  0  0  0  0  0  0  0  0  0
  180.0050  172.9080  134.6020 N   0  0  0  0  0  2  0  0  0  0  0  0
  181.5650  173.8140  135.5960 C   0  0  2  0  0  0  0  0  0  0  0  0
  181.6150  174.0560  136.9800 O   0  0  0  0  0  0  0  0  0  0  0  0
  183.6830  172.4090  135.8480 C   0  0  0  0  0  2  0  0  0  0  0  0
  182.9470  174.4030  137.2330 C   0  0  1  0  0  3  0  0  0  0  0  0
  182.5440  172.8710  134.9080 C   0  0  1  0  0  3  0  0  0  0  0  0
  179.8190  171.7390  137.1950 O   0  0  0  0  0  1  0  0  0  0  0  0
  181.7230  170.4980  136.8840 O   0  0  0  0  0  0  0  0  0  0  0  0
  180.8680  171.5360  136.5250 C   0  0  0  0  0  0  0  0  0  0  0  0
  1  9  1  1  0  0  0
  1  7  1  0  0  0  0
  2 19  1  6  0  0  0
  2  4  1  0  0  0  0
  3 23  1  6  0  0  0
  3  7  1  0  0  0  0
  4 14  1  1  0  0  0
  5  3  1  0  0  0  0
  6 16  1  6  0  0  0
  6  1  1  0  0  0  0
  6  8  1  0  0  0  0
  8 52  1  1  0  0  0
  8  4  1  0  0  0  0
  9  2  1  0  0  0  0
 10 12  1  6  0  0  0
 10  5  1  0  0  0  0
 10  1  1  0  0  0  0
 12 11  1  0  0  0  0
 13 12  1  0  0  0  0
 14 15  2  0  0  0  0
 16 17  1  0  0  0  0
 18 17  1  0  0  0  0
 19 22  1  0  0  0  0
 21 22  2  0  0  0  0
 22 20  1  0  0  0  0
 24 23  1  6  0  0  0
 24 29  1  0  0  0  0
 25 24  1  0  0  0  0
 26 25  2  0  0  0  0
 27 28  1  0  0  0  0
 28 26  1  0  0  0  0
 29 30  1  0  0  0  0
 30 33  1  0  0  0  0
 31 35  1  1  0  0  0
 32 33  1  0  0  0  0
 32 34  1  1  0  0  0
 32 31  1  0  0  0  0
 33 31  1  0  0  0  0
 35 36  1  0  0  0  0
 36 37  1  6  0  0  0
 38 44  1  1  0  0  0
 38 40  1  0  0  0  0
 39 40  1  0  0  0  0
 41 36  1  6  0  0  0
 41 38  1  0  0  0  0
 41 39  1  0  0  0  0
 43 44  1  0  0  0  0
 43 45  1  0  0  0  0
 44 42  2  0  0  0  0
 46 48  1  6  0  0  0
 46 50  1  0  0  0  0
 46 45  1  0  0  0  0
 47 49  1  0  0  0  0
 49 48  3  0  0  0  0
 51 50  1  0  0  0  0
 54 60  1  0  0  0  0
 55 57  1  0  0  0  0
 55 64  1  1  0  0  0
 56 53  1  0  0  0  0
 56 55  1  0  0  0  0
 57 53  1  6  0  0  0
 57 58  1  0  0  0  0
 58 60  1  0  0  0  0
 59 54  1  0  0  0  0
 60 52  1  1  0  0  0
 61 55  1  0  0  0  0
 61 57  1  0  0  0  0
 61 59  1  1  0  0  0
 64 63  2  0  0  0  0
 64 62  1  0  0  0  0
M  END
>  <MODEL>
5

>  <REMARK>
 VINA RESULT:      -2.4      2.811      6.258
  Name = 
  24 active torsions:
  status: ('A' for Active; 'I' for Inactive)
    1  A    between atoms: C_1  and  C_42
    2  A    between atoms: N_2  and  C_43
    3  A    between atoms: C_5  and  C_18
    4  A    between atoms: C_5  and  C_43
    5  A    between atoms: S_7  and  N_25
    6  A    between atoms: S_7  and  C_51
    7  A    between atoms: C_8  and  C_19
    8  A    between atoms: C_8  and  C_60
    9  A    between atoms: O_9  and  O_26
   10  A    between atoms: O_9  and  C_31
   11  A    between atoms: C_14  and  C_19
   12  A    between atoms: C_15  and  C_20
   13  A    between atoms: C_17  and  O_41
   14  A    between atoms: C_21  and  C_51
   15  A    between atoms: C_24  and  C_45
   16  A    between atoms: N_32  and  C_37
   17  A    between atoms: C_36  and  C_51
   18  A    between atoms: C_37  and  C_38
   19  A    between atoms: C_38  and  C_43
   20  A    between atoms: C_39  and  O_54
   21  A    between atoms: C_40  and  O_61
   22  A    between atoms: O_41  and  C_56
   23  A    between atoms: C_46  and  C_64
   24  A    between atoms: C_59  and  O_61
                            x       y       z     vdW  Elec       q    Type
                         _______ _______ _______ _____ _____    ______ ____

>  <TORSDO>
F 24

$$$$
=
 OpenBabel11062417483D

 64 70  0  0  1  0  0  0  0  0999 V2000
  190.4100  176.6040  138.6380 C   0  0  2  0  0  0  0  0  0  0  0  0
  188.3830  175.9750  137.1510 C   0  0  1  0  0  3  0  0  0  0  0  0
  190.0490  176.6360  140.8110 C   0  0  1  0  0  3  0  0  0  0  0  0
  189.0110  174.5840  137.3310 C   0  0  2  0  0  3  0  0  0  0  0  0
  190.7260  177.8510  140.5910 O   0  0  0  0  0  0  0  0  0  0  0  0
  191.2240  175.8970  137.5220 C   0  0  1  0  0  3  0  0  0  0  0  0
  190.2510  175.7560  139.7320 O   0  0  0  0  0  0  0  0  0  0  0  0
  190.5270  174.6150  137.0230 C   0  0  1  0  0  3  0  0  0  0  0  0
  189.0170  177.0040  138.0970 C   0  0  0  0  0  2  0  0  0  0  0  0
  191.0720  177.8380  139.2330 C   0  0  1  0  0  3  0  0  0  0  0  0
  193.1020  177.1140  137.8780 C   0  0  0  0  0  1  0  0  0  0  0  0
  192.6000  177.9050  139.0780 C   0  0  0  0  0  3  0  0  0  0  0  0
  193.2780  177.4100  140.3410 C   0  0  0  0  0  1  0  0  0  0  0  0
  188.3020  173.5660  136.4900 C   0  0  0  0  0  3  0  0  0  0  0  0
  187.3770  172.7690  137.0240 C   0  0  0  0  0  2  0  0  0  0  0  0
  191.4100  176.7590  136.4340 O   0  0  0  0  0  0  0  0  0  0  0  0
  191.3180  175.9930  135.3650 O   0  0  0  0  0  0  0  0  0  0  0  0
  192.5420  176.1460  134.7090 C   0  0  0  0  0  1  0  0  0  0  0  0
  188.5370  176.4210  135.8090 O   0  0  0  0  0  0  0  0  0  0  0  0
  186.3930  176.8030  134.5970 C   0  0  0  0  0  1  0  0  0  0  0  0
  187.8820  178.5550  135.2060 O   0  0  0  0  0  0  0  0  0  0  0  0
  187.6420  177.3170  135.2220 C   0  0  0  0  0  0  0  0  0  0  0  0
  190.5090  176.0000  142.1090 C   0  0  0  0  0  2  0  0  0  0  0  0
  189.4450  176.2200  143.1750 C   0  0  1  0  0  3  0  0  0  0  0  0
  190.0560  176.4690  144.4690 N   0  0  0  0  0  0  0  0  0  0  0  0
  191.2240  175.9900  144.7630 C   0  0  0  0  0  3  0  0  0  0  0  0
  191.1250  176.8970  147.0540 C   0  0  0  0  0  1  0  0  0  0  0  0
  191.8100  176.2130  146.0100 O   0  0  0  0  0  0  0  0  0  0  0  0
  188.4950  177.3530  142.7900 C   0  0  0  0  0  2  0  0  0  0  0  0
  187.1090  177.2110  143.4120 C   0  0  0  0  0  2  0  0  0  0  0  0
  185.0720  177.9640  142.5670 C   0  0  2  0  0  3  0  0  0  0  0  0
  185.1120  178.2910  144.0070 C   0  0  1  0  0  3  0  0  0  0  0  0
  186.3270  178.4110  143.1890 N   0  0  0  0  0  0  0  0  0  0  0  0
  184.6220  179.6840  144.3830 C   0  0  0  0  0  1  0  0  0  0  0  0
  184.5330  179.0620  141.6500 C   0  0  0  0  0  2  0  0  0  0  0  0
  184.2040  178.5320  140.2460 C   0  0  2  0  0  3  0  0  0  0  0  0
  184.4460  179.4870  139.2680 F   0  0  0  0  0  0  0  0  0  0  0  0
  182.5010  177.4990  138.6500 C   0  0  1  0  0  3  0  0  0  0  0  0
  181.7230  178.9810  140.1160 C   0  0  0  0  0  2  0  0  0  0  0  0
  181.1700  178.7120  138.4010 S   0  0  0  0  0  0  0  0  0  0  0  0
  182.8040  177.9160  140.0840 C   0  0  2  0  0  3  0  0  0  0  0  0
  182.2670  175.2600  139.4170 O   0  0  0  0  0  0  0  0  0  0  0  0
  181.1660  175.7170  137.4120 N   0  0  0  0  0  2  0  0  0  0  0  0
  181.9400  176.1120  138.5500 C   0  0  0  0  0  0  0  0  0  0  0  0
  180.9050  174.0150  137.0060 S   0  0  0  0  0  0  0  0  0  0  0  0
  181.6280  174.2000  135.3430 C   0  0  1  0  0  3  0  0  0  0  0  0
  182.6520  178.1670  134.7510 C   0  0  0  0  0  1  0  0  0  0  0  0
  181.9790  175.6080  135.1170 C   0  0  0  0  0  0  0  0  0  0  0  0
  182.2810  176.7650  134.9410 C   0  0  0  0  0  0  0  0  0  0  0  0
  182.8810  173.3450  135.2320 C   0  0  0  0  0  2  0  0  0  0  0  0
  183.3820  172.9770  136.6120 C   0  0  0  0  0  1  0  0  0  0  0  0
  191.1770  173.4850  137.5420 O   0  0  0  0  0  0  0  0  0  0  0  0
  193.8010  171.1930  134.6380 N   0  0  0  0  0  2  0  0  0  0  0  0
  193.4980  174.1220  137.7510 C   0  0  0  0  0  2  0  0  0  0  0  0
  195.1150  171.6410  136.1720 C   0  0  2  0  0  0  0  0  0  0  0  0
  195.0330  170.6800  135.0850 N   0  0  0  0  0  2  0  0  0  0  0  0
  193.7920  172.2190  135.6620 C   0  0  2  0  0  0  0  0  0  0  0  0
  192.7860  172.1280  136.6420 O   0  0  0  0  0  0  0  0  0  0  0  0
  194.8800  174.0520  137.0700 C   0  0  0  0  0  2  0  0  0  0  0  0
  192.4210  173.4530  136.9020 C   0  0  1  0  0  3  0  0  0  0  0  0
  195.0040  173.1250  135.8360 C   0  0  1  0  0  3  0  0  0  0  0  0
  194.6100  169.9100  137.7620 O   0  0  0  0  0  0  0  0  0  0  0  0
  195.5510  171.8080  138.6420 O   0  0  0  0  0  1  0  0  0  0  0  0
  195.0550  171.0750  137.5680 C   0  0  0  0  0  0  0  0  0  0  0  0
  1  9  1  6  0  0  0
  1 10  1  0  0  0  0
  1  7  1  0  0  0  0
  2 19  1  6  0  0  0
  2  4  1  0  0  0  0
  2  9  1  0  0  0  0
  3 23  1  1  0  0  0
  4 14  1  6  0  0  0
  5  3  1  0  0  0  0
  6 16  1  6  0  0  0
  6  1  1  0  0  0  0
  7  3  1  0  0  0  0
  8  4  1  0  0  0  0
  8  6  1  0  0  0  0
  8 52  1  1  0  0  0
 10 12  1  1  0  0  0
 10  5  1  0  0  0  0
 11 12  1  0  0  0  0
 12 13  1  0  0  0  0
 14 15  2  0  0  0  0
 17 16  1  0  0  0  0
 18 17  1  0  0  0  0
 20 22  1  0  0  0  0
 21 22  2  0  0  0  0
 22 19  1  0  0  0  0
 24 23  1  6  0  0  0
 24 25  1  0  0  0  0
 25 26  2  0  0  0  0
 26 28  1  0  0  0  0
 28 27  1  0  0  0  0
 29 24  1  0  0  0  0
 29 30  1  0  0  0  0
 31 35  1  6  0  0  0
 31 33  1  0  0  0  0
 31 32  1  0  0  0  0
 32 34  1  6  0  0  0
 33 30  1  0  0  0  0
 33 32  1  0  0  0  0
 36 37  1  6  0  0  0
 36 35  1  0  0  0  0
 38 44  1  1  0  0  0
 38 41  1  0  0  0  0
 40 38  1  0  0  0  0
 40 39  1  0  0  0  0
 41 39  1  0  0  0  0
 41 36  1  6  0  0  0
 43 44  1  0  0  0  0
 44 42  2  0  0  0  0
 45 43  1  0  0  0  0
 46 48  1  1  0  0  0
 46 45  1  0  0  0  0
 47 49  1  0  0  0  0
 49 48  3  0  0  0  0
 50 46  1  0  0  0  0
 50 51  1  0  0  0  0
 53 56  1  0  0  0  0
 55 64  1  1  0  0  0
 56 55  1  0  0  0  0
 57 53  1  6  0  0  0
 57 61  1  0  0  0  0
 57 55  1  0  0  0  0
 57 58  1  0  0  0  0
 58 60  1  0  0  0  0
 59 54  1  0  0  0  0
 60 52  1  1  0  0  0
 60 54  1  0  0  0  0
 61 55  1  0  0  0  0
 61 59  1  1  0  0  0
 64 62  2  0  0  0  0
 64 63  1  0  0  0  0
M  END
>  <MODEL>
6

>  <REMARK>
 VINA RESULT:      -2.0      3.451      9.061
  Name = 
  24 active torsions:
  status: ('A' for Active; 'I' for Inactive)
    1  A    between atoms: C_1  and  C_42
    2  A    between atoms: N_2  and  C_43
    3  A    between atoms: C_5  and  C_18
    4  A    between atoms: C_5  and  C_43
    5  A    between atoms: S_7  and  N_25
    6  A    between atoms: S_7  and  C_51
    7  A    between atoms: C_8  and  C_19
    8  A    between atoms: C_8  and  C_60
    9  A    between atoms: O_9  and  O_26
   10  A    between atoms: O_9  and  C_31
   11  A    between atoms: C_14  and  C_19
   12  A    between atoms: C_15  and  C_20
   13  A    between atoms: C_17  and  O_41
   14  A    between atoms: C_21  and  C_51
   15  A    between atoms: C_24  and  C_45
   16  A    between atoms: N_32  and  C_37
   17  A    between atoms: C_36  and  C_51
   18  A    between atoms: C_37  and  C_38
   19  A    between atoms: C_38  and  C_43
   20  A    between atoms: C_39  and  O_54
   21  A    between atoms: C_40  and  O_61
   22  A    between atoms: O_41  and  C_56
   23  A    between atoms: C_46  and  C_64
   24  A    between atoms: C_59  and  O_61
                            x       y       z     vdW  Elec       q    Type
                         _______ _______ _______ _____ _____    ______ ____

>  <TORSDO>
F 24

$$$$
=
 OpenBabel11062417483D

 64 70  0  0  1  0  0  0  0  0999 V2000
  185.5180  177.5760  136.9480 C   0  0  2  0  0  0  0  0  0  0  0  0
  183.2960  178.3790  138.0130 C   0  0  1  0  0  3  0  0  0  0  0  0
  187.3470  177.9450  138.1190 C   0  0  1  0  0  3  0  0  0  0  0  0
  183.3210  176.9320  138.5320 C   0  0  2  0  0  3  0  0  0  0  0  0
  187.7070  178.3920  136.8330 O   0  0  0  0  0  0  0  0  0  0  0  0
  184.6240  176.4550  136.3560 C   0  0  1  0  0  3  0  0  0  0  0  0
  186.2230  177.1010  138.0520 O   0  0  0  0  0  0  0  0  0  0  0  0
  183.5940  175.9350  137.3800 C   0  0  1  0  0  3  0  0  0  0  0  0
  184.6380  178.7730  137.3820 C   0  0  0  0  0  2  0  0  0  0  0  0
  186.6080  178.0880  136.0180 C   0  0  1  0  0  3  0  0  0  0  0  0
  186.5920  175.6850  135.1760 C   0  0  0  0  0  1  0  0  0  0  0  0
  187.0320  177.1170  134.9040 C   0  0  0  0  0  3  0  0  0  0  0  0
  188.5350  177.1650  134.7090 C   0  0  0  0  0  1  0  0  0  0  0  0
  182.0500  176.6010  139.2520 C   0  0  0  0  0  3  0  0  0  0  0  0
  181.8970  176.9120  140.5390 C   0  0  0  0  0  2  0  0  0  0  0  0
  183.9370  176.9220  135.2280 O   0  0  0  0  0  0  0  0  0  0  0  0
  182.7900  176.2730  135.2260 O   0  0  0  0  0  0  0  0  0  0  0  0
  181.8890  177.1420  134.6040 C   0  0  0  0  0  1  0  0  0  0  0  0
  182.2620  178.5450  137.0500 O   0  0  0  0  0  0  0  0  0  0  0  0
  180.9200  180.4310  136.1260 C   0  0  0  0  0  1  0  0  0  0  0  0
  180.5810  179.5240  138.2990 O   0  0  0  0  0  0  0  0  0  0  0  0
  181.2370  179.4760  137.2220 C   0  0  0  0  0  0  0  0  0  0  0  0
  188.5110  177.2270  138.7750 C   0  0  0  0  0  2  0  0  0  0  0  0
  189.3500  178.2390  139.5420 C   0  0  1  0  0  3  0  0  0  0  0  0
  188.9520  178.2870  140.9380 N   0  0  0  0  0  0  0  0  0  0  0  0
  187.7640  177.9280  141.3090 C   0  0  0  0  0  3  0  0  0  0  0  0
  187.5510  176.8870  143.5340 C   0  0  0  0  0  1  0  0  0  0  0  0
  187.3700  177.9860  142.6470 O   0  0  0  0  0  0  0  0  0  0  0  0
  190.8440  177.9430  139.4070 C   0  0  0  0  0  2  0  0  0  0  0  0
  191.3290  176.8560  140.3600 C   0  0  0  0  0  2  0  0  0  0  0  0
  191.7280  176.3190  142.5920 C   0  0  2  0  0  3  0  0  0  0  0  0
  191.9810  177.7640  142.4240 C   0  0  1  0  0  3  0  0  0  0  0  0
  190.8690  177.1220  141.7090 N   0  0  0  0  0  0  0  0  0  0  0  0
  191.4200  178.6670  143.5160 C   0  0  0  0  0  1  0  0  0  0  0  0
  190.9480  175.9230  143.8450 C   0  0  0  0  0  2  0  0  0  0  0  0
  191.8770  175.5890  145.0220 C   0  0  2  0  0  3  0  0  0  0  0  0
  192.5860  174.4160  144.8000 F   0  0  0  0  0  0  0  0  0  0  0  0
  190.5770  176.9150  146.7730 C   0  0  1  0  0  3  0  0  0  0  0  0
  192.2410  175.6440  147.5190 C   0  0  0  0  0  2  0  0  0  0  0  0
  191.7060  177.2660  148.1530 S   0  0  0  0  0  0  0  0  0  0  0  0
  191.2100  175.5780  146.4080 C   0  0  2  0  0  3  0  0  0  0  0  0
  188.8340  175.6930  147.8330 O   0  0  0  0  0  0  0  0  0  0  0  0
  188.2030  177.7980  147.0510 N   0  0  0  0  0  2  0  0  0  0  0  0
  189.1770  176.7770  147.2930 C   0  0  0  0  0  0  0  0  0  0  0  0
  186.4670  177.4860  147.1970 S   0  0  0  0  0  0  0  0  0  0  0  0
  186.0180  179.0680  146.4110 C   0  0  1  0  0  3  0  0  0  0  0  0
  182.7370  178.5570  143.9400 C   0  0  0  0  0  1  0  0  0  0  0  0
  184.8530  178.8680  145.5410 C   0  0  0  0  0  0  0  0  0  0  0  0
  183.8970  178.7160  144.8170 C   0  0  0  0  0  0  0  0  0  0  0  0
  185.6760  180.0920  147.4830 C   0  0  0  0  0  2  0  0  0  0  0  0
  186.9070  180.4170  148.3010 C   0  0  0  0  0  1  0  0  0  0  0  0
  184.0000  174.6850  137.8720 O   0  0  0  0  0  0  0  0  0  0  0  0
  180.6840  173.7590  134.9190 N   0  0  0  0  0  2  0  0  0  0  0  0
  183.9350  172.3340  137.3190 C   0  0  0  0  0  2  0  0  0  0  0  0
  180.9080  171.9620  135.9200 C   0  0  2  0  0  0  0  0  0  0  0  0
  179.8870  172.6160  135.1190 N   0  0  0  0  0  2  0  0  0  0  0  0
  181.7860  173.1920  135.6720 C   0  0  2  0  0  0  0  0  0  0  0  0
  182.1220  173.8290  136.8800 O   0  0  0  0  0  0  0  0  0  0  0  0
  183.3710  171.2980  136.3260 C   0  0  0  0  0  2  0  0  0  0  0  0
  183.5180  173.7540  136.9460 C   0  0  1  0  0  3  0  0  0  0  0  0
  182.3030  171.8020  135.3250 C   0  0  1  0  0  3  0  0  0  0  0  0
  181.3130  171.0030  138.0870 O   0  0  0  0  0  1  0  0  0  0  0  0
  179.4540  172.3390  137.9370 O   0  0  0  0  0  0  0  0  0  0  0  0
  180.5640  171.7200  137.3690 C   0  0  0  0  0  0  0  0  0  0  0  0
  1  9  1  1  0  0  0
  1  7  1  0  0  0  0
  2 19  1  6  0  0  0
  2  4  1  0  0  0  0
  3 23  1  6  0  0  0
  4 14  1  6  0  0  0
  5  3  1  0  0  0  0
  6 16  1  6  0  0  0
  6  1  1  0  0  0  0
  6  8  1  0  0  0  0
  7  3  1  0  0  0  0
  8 52  1  1  0  0  0
  8  4  1  0  0  0  0
  9  2  1  0  0  0  0
 10 12  1  6  0  0  0
 10  5  1  0  0  0  0
 10  1  1  0  0  0  0
 12 11  1  0  0  0  0
 13 12  1  0  0  0  0
 14 15  2  0  0  0  0
 17 16  1  0  0  0  0
 18 17  1  0  0  0  0
 19 22  1  0  0  0  0
 20 22  1  0  0  0  0
 22 21  2  0  0  0  0
 24 23  1  6  0  0  0
 24 25  1  0  0  0  0
 25 26  2  0  0  0  0
 26 28  1  0  0  0  0
 28 27  1  0  0  0  0
 29 24  1  0  0  0  0
 29 30  1  0  0  0  0
 30 33  1  0  0  0  0
 31 35  1  1  0  0  0
 32 31  1  0  0  0  0
 32 34  1  1  0  0  0
 33 32  1  0  0  0  0
 33 31  1  0  0  0  0
 35 36  1  0  0  0  0
 36 37  1  6  0  0  0
 38 44  1  1  0  0  0
 38 40  1  0  0  0  0
 39 40  1  0  0  0  0
 41 36  1  6  0  0  0
 41 38  1  0  0  0  0
 41 39  1  0  0  0  0
 43 45  1  0  0  0  0
 43 44  1  0  0  0  0
 44 42  2  0  0  0  0
 46 48  1  6  0  0  0
 46 45  1  0  0  0  0
 46 50  1  0  0  0  0
 47 49  1  0  0  0  0
 49 48  3  0  0  0  0
 50 51  1  0  0  0  0
 53 56  1  0  0  0  0
 55 64  1  1  0  0  0
 56 55  1  0  0  0  0
 57 53  1  6  0  0  0
 57 55  1  0  0  0  0
 57 58  1  0  0  0  0
 58 60  1  0  0  0  0
 59 54  1  0  0  0  0
 60 54  1  0  0  0  0
 60 52  1  1  0  0  0
 61 57  1  0  0  0  0
 61 55  1  0  0  0  0
 61 59  1  1  0  0  0
 64 63  2  0  0  0  0
 64 62  1  0  0  0  0
M  END
>  <MODEL>
7

>  <REMARK>
 VINA RESULT:      -1.6      3.294      6.141
  Name = 
  24 active torsions:
  status: ('A' for Active; 'I' for Inactive)
    1  A    between atoms: C_1  and  C_42
    2  A    between atoms: N_2  and  C_43
    3  A    between atoms: C_5  and  C_18
    4  A    between atoms: C_5  and  C_43
    5  A    between atoms: S_7  and  N_25
    6  A    between atoms: S_7  and  C_51
    7  A    between atoms: C_8  and  C_19
    8  A    between atoms: C_8  and  C_60
    9  A    between atoms: O_9  and  O_26
   10  A    between atoms: O_9  and  C_31
   11  A    between atoms: C_14  and  C_19
   12  A    between atoms: C_15  and  C_20
   13  A    between atoms: C_17  and  O_41
   14  A    between atoms: C_21  and  C_51
   15  A    between atoms: C_24  and  C_45
   16  A    between atoms: N_32  and  C_37
   17  A    between atoms: C_36  and  C_51
   18  A    between atoms: C_37  and  C_38
   19  A    between atoms: C_38  and  C_43
   20  A    between atoms: C_39  and  O_54
   21  A    between atoms: C_40  and  O_61
   22  A    between atoms: O_41  and  C_56
   23  A    between atoms: C_46  and  C_64
   24  A    between atoms: C_59  and  O_61
                            x       y       z     vdW  Elec       q    Type
                         _______ _______ _______ _____ _____    ______ ____

>  <TORSDO>
F 24

$$$$
=
 OpenBabel11062417483D

 64 70  0  0  1  0  0  0  0  0999 V2000
  183.6000  178.6380  141.6140 C   0  0  2  0  0  0  0  0  0  0  0  0
  181.0520  178.4430  142.0480 C   0  0  1  0  0  3  0  0  0  0  0  0
  184.9180  177.8650  143.2010 C   0  0  1  0  0  3  0  0  0  0  0  0
  181.2860  177.1260  141.2890 C   0  0  2  0  0  3  0  0  0  0  0  0
  185.4830  179.1230  142.9130 O   0  0  0  0  0  0  0  0  0  0  0  0
  183.1850  178.4360  140.1330 C   0  0  1  0  0  3  0  0  0  0  0  0
  184.0850  177.4460  142.1480 O   0  0  0  0  0  0  0  0  0  0  0  0
  182.0780  177.3720  139.9830 C   0  0  1  0  0  3  0  0  0  0  0  0
  182.3790  179.1060  142.4410 C   0  0  0  0  0  2  0  0  0  0  0  0
  184.7410  179.6210  141.8340 C   0  0  1  0  0  3  0  0  0  0  0  0
  185.6310  178.6800  139.6420 C   0  0  0  0  0  1  0  0  0  0  0  0
  185.6590  179.8460  140.6220 C   0  0  0  0  0  3  0  0  0  0  0  0
  187.0810  180.0990  141.0810 C   0  0  0  0  0  1  0  0  0  0  0  0
  179.9870  176.4300  141.0180 C   0  0  0  0  0  3  0  0  0  0  0  0
  179.8170  175.1520  141.3590 C   0  0  0  0  0  2  0  0  0  0  0  0
  182.7250  179.6410  139.5870 O   0  0  0  0  0  0  0  0  0  0  0  0
  182.2730  179.3280  138.3890 O   0  0  0  0  0  0  0  0  0  0  0  0
  181.5780  180.4630  137.9610 C   0  0  0  0  0  1  0  0  0  0  0  0
  180.2970  179.3490  141.2530 O   0  0  0  0  0  0  0  0  0  0  0  0
  179.0160  181.4620  140.9270 C   0  0  0  0  0  1  0  0  0  0  0  0
  179.4900  180.5350  143.0660 O   0  0  0  0  0  0  0  0  0  0  0  0
  179.6080  180.4250  141.8150 C   0  0  0  0  0  0  0  0  0  0  0  0
  186.0080  176.8410  143.4570 C   0  0  0  0  0  2  0  0  0  0  0  0
  187.2650  177.5590  143.9250 C   0  0  1  0  0  3  0  0  0  0  0  0
  187.3710  177.5230  145.3730 N   0  0  0  0  0  0  0  0  0  0  0  0
  188.5130  177.3450  145.9580 C   0  0  0  0  0  3  0  0  0  0  0  0
  189.8610  177.4900  148.0180 C   0  0  0  0  0  1  0  0  0  0  0  0
  188.6200  177.2940  147.3480 O   0  0  0  0  0  0  0  0  0  0  0  0
  188.5170  176.9790  143.2680 C   0  0  0  0  0  2  0  0  0  0  0  0
  188.3520  176.7370  141.7710 C   0  0  0  0  0  2  0  0  0  0  0  0
  190.1690  176.7380  140.3130 C   0  0  2  0  0  3  0  0  0  0  0  0
  189.0130  177.3100  139.5930 C   0  0  1  0  0  3  0  0  0  0  0  0
  189.2220  177.6160  141.0150 N   0  0  0  0  0  0  0  0  0  0  0  0
  189.2990  178.5570  138.7650 C   0  0  0  0  0  1  0  0  0  0  0  0
  191.4990  177.4670  140.1200 C   0  0  0  0  0  2  0  0  0  0  0  0
  192.5770  176.5520  139.5190 C   0  0  2  0  0  3  0  0  0  0  0  0
  193.8530  176.9410  139.9040 F   0  0  0  0  0  0  0  0  0  0  0  0
  191.4900  175.2760  137.5930 C   0  0  1  0  0  3  0  0  0  0  0  0
  193.6910  175.5710  137.4780 C   0  0  0  0  0  2  0  0  0  0  0  0
  192.7280  174.1280  136.9220 S   0  0  0  0  0  0  0  0  0  0  0  0
  192.4960  176.3480  137.9960 C   0  0  2  0  0  3  0  0  0  0  0  0
  190.5880  176.9280  136.1380 O   0  0  0  0  0  0  0  0  0  0  0  0
  189.5870  174.8290  135.9590 N   0  0  0  0  0  2  0  0  0  0  0  0
  190.5710  175.7200  136.4940 C   0  0  0  0  0  0  0  0  0  0  0  0
  188.1910  175.4180  135.0450 S   0  0  0  0  0  0  0  0  0  0  0  0
  187.3160  173.8240  135.1660 C   0  0  1  0  0  3  0  0  0  0  0  0
  190.0460  170.7660  134.5960 C   0  0  0  0  0  1  0  0  0  0  0  0
  188.2700  172.7270  134.9620 C   0  0  0  0  0  0  0  0  0  0  0  0
  189.0660  171.8320  134.8000 C   0  0  0  0  0  0  0  0  0  0  0  0
  186.6840  173.6920  136.5430 C   0  0  0  0  0  2  0  0  0  0  0  0
  186.5470  175.0550  137.1850 C   0  0  0  0  0  1  0  0  0  0  0  0
  182.6270  176.1800  139.4870 O   0  0  0  0  0  0  0  0  0  0  0  0
  179.6780  173.3010  137.5930 N   0  0  0  0  0  2  0  0  0  0  0  0
  182.5970  176.3960  137.0810 C   0  0  0  0  0  2  0  0  0  0  0  0
  181.0620  173.5840  136.0810 C   0  0  2  0  0  0  0  0  0  0  0  0
  180.0540  172.5980  136.4330 N   0  0  0  0  0  2  0  0  0  0  0  0
  180.6270  174.3640  137.3250 C   0  0  2  0  0  0  0  0  0  0  0  0
  181.6910  174.5080  138.2340 O   0  0  0  0  0  0  0  0  0  0  0  0
  181.8090  176.0410  135.8030 C   0  0  0  0  0  2  0  0  0  0  0  0
  181.8890  175.8890  138.3340 C   0  0  1  0  0  3  0  0  0  0  0  0
  180.6360  175.0430  135.9620 C   0  0  1  0  0  3  0  0  0  0  0  0
  183.3440  173.6190  135.3260 O   0  0  0  0  0  0  0  0  0  0  0  0
  182.9000  172.1600  137.0390 O   0  0  0  0  0  1  0  0  0  0  0  0
  182.4940  173.1120  136.1080 C   0  0  0  0  0  0  0  0  0  0  0  0
  1 10  1  0  0  0  0
  1  7  1  0  0  0  0
  1  9  1  1  0  0  0
  2 19  1  6  0  0  0
  2  9  1  0  0  0  0
  3 23  1  6  0  0  0
  4 14  1  6  0  0  0
  4  2  1  0  0  0  0
  5  3  1  0  0  0  0
  6 16  1  1  0  0  0
  6  1  1  0  0  0  0
  7  3  1  0  0  0  0
  8 52  1  1  0  0  0
  8  6  1  0  0  0  0
  8  4  1  0  0  0  0
 10 12  1  6  0  0  0
 10  5  1  0  0  0  0
 11 12  1  0  0  0  0
 12 13  1  0  0  0  0
 14 15  2  0  0  0  0
 17 16  1  0  0  0  0
 18 17  1  0  0  0  0
 19 22  1  0  0  0  0
 20 22  1  0  0  0  0
 22 21  2  0  0  0  0
 23 24  1  0  0  0  0
 24 29  1  6  0  0  0
 24 25  1  0  0  0  0
 25 26  2  0  0  0  0
 26 28  1  0  0  0  0
 28 27  1  0  0  0  0
 30 29  1  0  0  0  0
 31 35  1  6  0  0  0
 31 33  1  0  0  0  0
 32 34  1  6  0  0  0
 32 31  1  0  0  0  0
 32 33  1  0  0  0  0
 33 30  1  0  0  0  0
 36 37  1  6  0  0  0
 36 35  1  0  0  0  0
 38 44  1  6  0  0  0
 38 41  1  0  0  0  0
 39 41  1  0  0  0  0
 40 39  1  0  0  0  0
 40 38  1  0  0  0  0
 41 36  1  1  0  0  0
 42 44  2  0  0  0  0
 43 44  1  0  0  0  0
 45 46  1  0  0  0  0
 45 43  1  0  0  0  0
 46 48  1  1  0  0  0
 46 50  1  0  0  0  0
 47 49  1  0  0  0  0
 49 48  3  0  0  0  0
 50 51  1  0  0  0  0
 54 60  1  0  0  0  0
 55 64  1  6  0  0  0
 55 56  1  0  0  0  0
 55 57  1  0  0  0  0
 56 53  1  0  0  0  0
 57 53  1  1  0  0  0
 57 58  1  0  0  0  0
 58 60  1  0  0  0  0
 59 54  1  0  0  0  0
 60 52  1  1  0  0  0
 61 59  1  1  0  0  0
 61 55  1  0  0  0  0
 61 57  1  0  0  0  0
 62 64  2  0  0  0  0
 64 63  1  0  0  0  0
M  END
>  <MODEL>
8

>  <REMARK>
 VINA RESULT:      -1.3      2.058      2.790
  Name = 
  24 active torsions:
  status: ('A' for Active; 'I' for Inactive)
    1  A    between atoms: C_1  and  C_42
    2  A    between atoms: N_2  and  C_43
    3  A    between atoms: C_5  and  C_18
    4  A    between atoms: C_5  and  C_43
    5  A    between atoms: S_7  and  N_25
    6  A    between atoms: S_7  and  C_51
    7  A    between atoms: C_8  and  C_19
    8  A    between atoms: C_8  and  C_60
    9  A    between atoms: O_9  and  O_26
   10  A    between atoms: O_9  and  C_31
   11  A    between atoms: C_14  and  C_19
   12  A    between atoms: C_15  and  C_20
   13  A    between atoms: C_17  and  O_41
   14  A    between atoms: C_21  and  C_51
   15  A    between atoms: C_24  and  C_45
   16  A    between atoms: N_32  and  C_37
   17  A    between atoms: C_36  and  C_51
   18  A    between atoms: C_37  and  C_38
   19  A    between atoms: C_38  and  C_43
   20  A    between atoms: C_39  and  O_54
   21  A    between atoms: C_40  and  O_61
   22  A    between atoms: O_41  and  C_56
   23  A    between atoms: C_46  and  C_64
   24  A    between atoms: C_59  and  O_61
                            x       y       z     vdW  Elec       q    Type
                         _______ _______ _______ _____ _____    ______ ____

>  <TORSDO>
F 24

$$$$
