=
 OpenBabel11062412323D

 33 38  0  0  1  0  0  0  0  0999 V2000
  186.8190  177.8790  143.2320 C   0  0  0  0  0  0  0  0  0  0  0  0
  187.0200  178.3630  139.6160 N   0  0  0  0  0  0  0  0  0  0  0  0
  189.8890  178.1380  142.2350 C   0  0  1  0  0  3  0  0  0  0  0  0
  185.8400  177.9320  144.2020 C   0  0  0  0  0  0  0  0  0  0  0  0
  188.9680  177.7340  141.0500 C   0  0  2  0  0  3  0  0  0  0  0  0
  187.5910  177.8690  138.5580 C   0  0  0  0  0  0  0  0  0  0  0  0
  187.7110  176.8790  145.2100 C   0  0  0  0  0  2  0  0  0  0  0  0
  190.9920  176.8990  139.8000 C   0  0  0  0  0  2  0  0  0  0  0  0
  192.0270  177.7270  143.2650 O   0  0  0  0  0  1  0  0  0  0  0  0
  188.1940  175.9440  143.0700 O   0  0  0  0  0  1  0  0  0  0  0  0
  189.7810  177.8140  139.7460 C   0  0  1  0  0  3  0  0  0  0  0  0
  191.9060  177.3520  140.9260 C   0  0  0  0  0  2  0  0  0  0  0  0
  189.2360  178.0670  143.6230 C   0  0  0  0  0  2  0  0  0  0  0  0
  184.6340  178.6020  143.9860 C   0  0  0  0  0  3  0  0  0  0  0  0
  187.6990  178.6170  140.8950 C   0  0  2  0  0  3  0  0  0  0  0  0
  188.9550  177.4600  138.6060 N   0  0  0  0  0  2  0  0  0  0  0  0
  185.4490  179.2470  141.7950 C   0  0  0  0  0  3  0  0  0  0  0  0
  184.4430  179.2620  142.7690 C   0  0  0  0  0  3  0  0  0  0  0  0
  191.1690  177.2850  142.2570 C   0  0  2  0  0  3  0  0  0  0  0  0
  186.2460  177.2550  145.4570 C   0  0  1  0  0  3  0  0  0  0  0  0
  186.6580  178.5510  141.9990 C   0  0  0  0  0  0  0  0  0  0  0  0
  188.0170  177.1610  143.7350 C   0  0  1  0  0  0  0  0  0  0  0  0
  186.6360  175.0640  137.0920 C   0  0  0  0  0  2  0  0  0  0  0  0
  183.0680  175.2250  135.9940 O   0  0  0  0  0  1  0  0  0  0  0  0
  185.3890  174.7810  136.2650 C   0  0  0  0  0  2  0  0  0  0  0  0
  184.4310  177.1070  136.5020 C   0  0  0  0  0  2  0  0  0  0  0  0
  185.2900  177.6530  137.6330 C   0  0  0  0  0  2  0  0  0  0  0  0
  184.1950  175.6170  136.7150 C   0  0  1  0  0  3  0  0  0  0  0  0
  187.2930  176.3480  136.6030 C   0  0  0  0  0  2  0  0  0  0  0  0
  186.7910  177.6080  137.3230 C   0  0  2  0  0  3  0  0  0  0  0  0
  187.1720  178.5380  147.2640 O   0  0  0  0  0  1  0  0  0  0  0  0
  184.8910  178.6040  147.0570 O   0  0  0  0  0  0  0  0  0  0  0  0
  186.1410  178.1650  146.6420 C   0  0  0  0  0  0  0  0  0  0  0  0
  1 22  1  0  0  0  0
  1  4  1  0  0  0  0
  2 15  1  0  0  0  0
  3 19  1  0  0  0  0
  3 13  1  1  0  0  0
  4 20  1  0  0  0  0
  5  3  1  0  0  0  0
  6 16  1  0  0  0  0
  6  2  2  0  0  0  0
  7 20  1  0  0  0  0
  8 12  1  0  0  0  0
 10 22  1  0  0  0  0
 11  8  1  0  0  0  0
 11  5  1  0  0  0  0
 12 19  1  0  0  0  0
 13 22  1  0  0  0  0
 14  4  2  0  0  0  0
 15  5  1  0  0  0  0
 15 21  1  0  0  0  0
 16 11  1  0  0  0  0
 17 21  1  0  0  0  0
 17 18  2  0  0  0  0
 18 14  1  0  0  0  0
 19  9  1  0  0  0  0
 20 33  1  0  0  0  0
 21  1  2  0  0  0  0
 22  7  1  0  0  0  0
 24 28  1  0  0  0  0
 25 28  1  0  0  0  0
 25 23  1  0  0  0  0
 26 28  1  0  0  0  0
 26 27  1  0  0  0  0
 29 23  1  0  0  0  0
 29 30  1  0  0  0  0
 30 27  1  0  0  0  0
 30  6  1  0  0  0  0
 33 32  2  0  0  0  0
 33 31  1  0  0  0  0
M  END
>  <MODEL>
1

>  <REMARK>
 VINA RESULT:     -11.1      0.000      0.000
  Name = 
  2 active torsions:
  status: ('A' for Active; 'I' for Inactive)
    1  A    between atoms: C_11  and  C_32
    2  A    between atoms: C_18  and  C_30
                            x       y       z     vdW  Elec       q    Type
                         _______ _______ _______ _____ _____    ______ ____

>  <TORSDO>
F 2

$$$$
=
 OpenBabel11062412323D

 33 38  0  0  1  0  0  0  0  0999 V2000
  186.8500  177.9820  143.7980 C   0  0  0  0  0  0  0  0  0  0  0  0
  185.4940  178.8870  140.5280 N   0  0  0  0  0  0  0  0  0  0  0  0
  189.1880  178.2620  141.5750 C   0  0  1  0  0  3  0  0  0  0  0  0
  186.3990  177.9510  145.1010 C   0  0  0  0  0  0  0  0  0  0  0  0
  187.8150  178.0300  140.8880 C   0  0  2  0  0  3  0  0  0  0  0  0
  185.5050  178.5050  139.2850 C   0  0  0  0  0  0  0  0  0  0  0  0
  188.4300  176.7260  145.0750 C   0  0  0  0  0  2  0  0  0  0  0  0
  189.0170  177.2880  138.8000 C   0  0  0  0  0  2  0  0  0  0  0  0
  191.5210  177.6640  141.5120 O   0  0  0  0  0  1  0  0  0  0  0  0
  187.8570  176.0380  142.8660 O   0  0  0  0  0  1  0  0  0  0  0  0
  187.9820  178.2390  139.3730 C   0  0  1  0  0  3  0  0  0  0  0  0
  190.3630  177.5740  139.4430 C   0  0  0  0  0  2  0  0  0  0  0  0
  189.2020  178.0470  143.0960 C   0  0  0  0  0  2  0  0  0  0  0  0
  185.2780  178.6790  145.5030 C   0  0  0  0  0  3  0  0  0  0  0  0
  186.6810  178.9650  141.3930 C   0  0  2  0  0  3  0  0  0  0  0  0
  186.7160  178.0500  138.6870 N   0  0  0  0  0  2  0  0  0  0  0  0
  185.1070  179.5540  143.2480 C   0  0  0  0  0  3  0  0  0  0  0  0
  184.6300  179.4850  144.5640 C   0  0  0  0  0  3  0  0  0  0  0  0
  190.2770  177.3720  140.9500 C   0  0  2  0  0  3  0  0  0  0  0  0
  187.2560  177.1160  145.9770 C   0  0  1  0  0  3  0  0  0  0  0  0
  186.2230  178.8010  142.8320 C   0  0  0  0  0  0  0  0  0  0  0  0
  188.0850  177.1720  143.6510 C   0  0  1  0  0  0  0  0  0  0  0  0
  182.7600  176.7210  139.7410 C   0  0  0  0  0  2  0  0  0  0  0  0
  179.6790  178.7670  139.2050 O   0  0  0  0  0  1  0  0  0  0  0  0
  181.3190  177.0520  139.3750 C   0  0  0  0  0  2  0  0  0  0  0  0
  181.8510  179.3280  138.4140 C   0  0  0  0  0  2  0  0  0  0  0  0
  183.2650  179.5320  138.9370 C   0  0  0  0  0  2  0  0  0  0  0  0
  181.0360  178.5500  139.4400 C   0  0  1  0  0  3  0  0  0  0  0  0
  183.6650  176.9900  138.5470 C   0  0  0  0  0  2  0  0  0  0  0  0
  184.2290  178.4180  138.5130 C   0  0  2  0  0  3  0  0  0  0  0  0
  186.9610  178.2290  148.0860 O   0  0  0  0  0  1  0  0  0  0  0  0
  189.0960  178.2110  147.2550 O   0  0  0  0  0  0  0  0  0  0  0  0
  187.7510  177.8820  147.1660 C   0  0  0  0  0  0  0  0  0  0  0  0
  1  4  1  0  0  0  0
  2 15  1  0  0  0  0
  3 13  1  1  0  0  0
  4 14  2  0  0  0  0
  4 20  1  0  0  0  0
  5 15  1  0  0  0  0
  5  3  1  0  0  0  0
  6  2  2  0  0  0  0
  7 20  1  0  0  0  0
  8 11  1  0  0  0  0
  8 12  1  0  0  0  0
 10 22  1  0  0  0  0
 11  5  1  0  0  0  0
 12 19  1  0  0  0  0
 13 22  1  0  0  0  0
 15 21  1  0  0  0  0
 16  6  1  0  0  0  0
 16 11  1  0  0  0  0
 17 18  2  0  0  0  0
 18 14  1  0  0  0  0
 19  9  1  0  0  0  0
 19  3  1  0  0  0  0
 20 33  1  0  0  0  0
 21 17  1  0  0  0  0
 21  1  2  0  0  0  0
 22  1  1  0  0  0  0
 22  7  1  0  0  0  0
 24 28  1  0  0  0  0
 25 28  1  0  0  0  0
 25 23  1  0  0  0  0
 26 27  1  0  0  0  0
 26 28  1  0  0  0  0
 29 23  1  0  0  0  0
 30 29  1  0  0  0  0
 30 27  1  0  0  0  0
 30  6  1  0  0  0  0
 33 32  2  0  0  0  0
 33 31  1  0  0  0  0
M  END
>  <MODEL>
2

>  <REMARK>
 VINA RESULT:     -10.2      2.132      2.690
  Name = 
  2 active torsions:
  status: ('A' for Active; 'I' for Inactive)
    1  A    between atoms: C_11  and  C_32
    2  A    between atoms: C_18  and  C_30
                            x       y       z     vdW  Elec       q    Type
                         _______ _______ _______ _____ _____    ______ ____

>  <TORSDO>
F 2

$$$$
=
 OpenBabel11062412323D

 33 38  0  0  1  0  0  0  0  0999 V2000
  186.8760  177.9260  143.8430 C   0  0  0  0  0  0  0  0  0  0  0  0
  185.2960  178.7660  140.6570 N   0  0  0  0  0  0  0  0  0  0  0  0
  189.0700  178.3350  141.4960 C   0  0  1  0  0  3  0  0  0  0  0  0
  186.5000  177.8680  145.1680 C   0  0  0  0  0  0  0  0  0  0  0  0
  187.6750  178.0320  140.8840 C   0  0  2  0  0  3  0  0  0  0  0  0
  185.2580  178.3870  139.4140 C   0  0  0  0  0  0  0  0  0  0  0  0
  188.5890  176.7530  145.0240 C   0  0  0  0  0  2  0  0  0  0  0  0
  188.7980  177.3590  138.7290 C   0  0  0  0  0  2  0  0  0  0  0  0
  191.4240  177.8600  141.3010 O   0  0  0  0  0  1  0  0  0  0  0  0
  187.9310  176.0400  142.8470 O   0  0  0  0  0  1  0  0  0  0  0  0
  187.7470  178.2530  139.3630 C   0  0  1  0  0  3  0  0  0  0  0  0
  190.1600  177.7140  139.2990 C   0  0  0  0  0  2  0  0  0  0  0  0
  189.1800  178.1170  143.0120 C   0  0  0  0  0  2  0  0  0  0  0  0
  185.3660  178.5350  145.6350 C   0  0  0  0  0  3  0  0  0  0  0  0
  186.5230  178.9050  141.4550 C   0  0  2  0  0  3  0  0  0  0  0  0
  186.4570  177.9980  138.7480 N   0  0  0  0  0  2  0  0  0  0  0  0
  185.0250  179.4050  143.3980 C   0  0  0  0  0  3  0  0  0  0  0  0
  184.6260  179.3070  144.7370 C   0  0  0  0  0  3  0  0  0  0  0  0
  190.1690  177.5050  140.8070 C   0  0  2  0  0  3  0  0  0  0  0  0
  187.4470  177.0780  145.9920 C   0  0  1  0  0  3  0  0  0  0  0  0
  186.1540  178.7130  142.9170 C   0  0  0  0  0  0  0  0  0  0  0  0
  188.1420  177.1830  143.6230 C   0  0  1  0  0  0  0  0  0  0  0  0
  183.8120  175.7900  137.9680 C   0  0  0  0  0  2  0  0  0  0  0  0
  180.1870  175.5610  138.8470 O   0  0  0  0  0  1  0  0  0  0  0  0
  182.3320  175.4650  137.8210 C   0  0  0  0  0  2  0  0  0  0  0  0
  181.5290  177.5130  139.0650 C   0  0  0  0  0  2  0  0  0  0  0  0
  182.8240  177.9700  139.7210 C   0  0  0  0  0  2  0  0  0  0  0  0
  181.5060  175.9910  138.9910 C   0  0  1  0  0  3  0  0  0  0  0  0
  184.0620  177.2330  137.5530 C   0  0  0  0  0  2  0  0  0  0  0  0
  183.9480  178.2340  138.7120 C   0  0  2  0  0  3  0  0  0  0  0  0
  187.1870  178.2710  148.0610 O   0  0  0  0  0  1  0  0  0  0  0  0
  189.3220  178.1530  147.2370 O   0  0  0  0  0  0  0  0  0  0  0  0
  187.9660  177.8670  147.1560 C   0  0  0  0  0  0  0  0  0  0  0  0
  1  4  1  0  0  0  0
  2 15  1  0  0  0  0
  3 13  1  1  0  0  0
  4 14  2  0  0  0  0
  4 20  1  0  0  0  0
  5 15  1  0  0  0  0
  5  3  1  0  0  0  0
  6  2  2  0  0  0  0
  7 20  1  0  0  0  0
  8 12  1  0  0  0  0
  8 11  1  0  0  0  0
 10 22  1  0  0  0  0
 11  5  1  0  0  0  0
 12 19  1  0  0  0  0
 13 22  1  0  0  0  0
 15 21  1  0  0  0  0
 16 11  1  0  0  0  0
 16  6  1  0  0  0  0
 17 18  2  0  0  0  0
 18 14  1  0  0  0  0
 19  9  1  0  0  0  0
 19  3  1  0  0  0  0
 20 33  1  0  0  0  0
 21 17  1  0  0  0  0
 21  1  2  0  0  0  0
 22  1  1  0  0  0  0
 22  7  1  0  0  0  0
 24 28  1  0  0  0  0
 25 23  1  0  0  0  0
 25 28  1  0  0  0  0
 26 27  1  0  0  0  0
 28 26  1  0  0  0  0
 29 23  1  0  0  0  0
 29 30  1  0  0  0  0
 30  6  1  0  0  0  0
 30 27  1  0  0  0  0
 33 32  2  0  0  0  0
 33 31  1  0  0  0  0
M  END
>  <MODEL>
3

>  <REMARK>
 VINA RESULT:      -9.7      1.755      2.367
  Name = 
  2 active torsions:
  status: ('A' for Active; 'I' for Inactive)
    1  A    between atoms: C_11  and  C_32
    2  A    between atoms: C_18  and  C_30
                            x       y       z     vdW  Elec       q    Type
                         _______ _______ _______ _____ _____    ______ ____

>  <TORSDO>
F 2

$$$$
=
 OpenBabel11062412323D

 33 38  0  0  1  0  0  0  0  0999 V2000
  189.9870  176.8770  144.8800 C   0  0  0  0  0  0  0  0  0  0  0  0
  188.4490  177.2610  141.5870 N   0  0  0  0  0  0  0  0  0  0  0  0
  186.7950  177.3720  145.1070 C   0  0  1  0  0  3  0  0  0  0  0  0
  191.1960  176.4420  145.3810 C   0  0  0  0  0  0  0  0  0  0  0  0
  187.3230  177.8720  143.7340 C   0  0  2  0  0  3  0  0  0  0  0  0
  187.6870  178.0700  140.9130 C   0  0  0  0  0  0  0  0  0  0  0  0
  190.0950  177.5420  147.1710 C   0  0  0  0  0  2  0  0  0  0  0  0
  185.2560  179.2960  143.4900 C   0  0  0  0  0  2  0  0  0  0  0  0
  185.3050  177.8960  146.9260 O   0  0  0  0  0  1  0  0  0  0  0  0
  189.1480  179.0030  145.5420 O   0  0  0  0  0  1  0  0  0  0  0  0
  186.1190  178.2260  142.8440 C   0  0  1  0  0  3  0  0  0  0  0  0
  184.7030  178.7630  144.8000 C   0  0  0  0  0  2  0  0  0  0  0  0
  187.8800  177.0170  146.1330 C   0  0  0  0  0  2  0  0  0  0  0  0
  192.0550  175.6440  144.6240 C   0  0  0  0  0  3  0  0  0  0  0  0
  188.2100  176.8440  142.9770 C   0  0  2  0  0  3  0  0  0  0  0  0
  186.5630  178.6830  141.5390 N   0  0  0  0  0  2  0  0  0  0  0  0
  190.4090  175.6570  142.8430 C   0  0  0  0  0  3  0  0  0  0  0  0
  191.6540  175.2530  143.3450 C   0  0  0  0  0  3  0  0  0  0  0  0
  185.8450  178.4030  145.7420 C   0  0  2  0  0  3  0  0  0  0  0  0
  191.4190  176.8780  146.7810 C   0  0  1  0  0  3  0  0  0  0  0  0
  189.5490  176.4830  143.5950 C   0  0  0  0  0  0  0  0  0  0  0  0
  189.2440  177.6550  145.9020 C   0  0  1  0  0  0  0  0  0  0  0  0
  189.7970  176.7660  138.7280 C   0  0  0  0  0  2  0  0  0  0  0  0
  188.3120  176.6020  135.3030 O   0  0  0  0  0  1  0  0  0  0  0  0
  189.7300  176.7550  137.2070 C   0  0  0  0  0  2  0  0  0  0  0  0
  187.5270  177.9850  137.0710 C   0  0  0  0  0  2  0  0  0  0  0  0
  187.0540  177.8780  138.5140 C   0  0  0  0  0  2  0  0  0  0  0  0
  188.2950  176.7250  136.6910 C   0  0  1  0  0  3  0  0  0  0  0  0
  189.5360  178.1760  139.2410 C   0  0  0  0  0  2  0  0  0  0  0  0
  188.0530  178.4640  139.5190 C   0  0  2  0  0  3  0  0  0  0  0  0
  190.9120  174.7390  147.7490 O   0  0  0  0  0  0  0  0  0  0  0  0
  192.8490  175.7270  148.4680 O   0  0  0  0  0  1  0  0  0  0  0  0
  191.7020  175.7200  147.6880 C   0  0  0  0  0  0  0  0  0  0  0  0
  1  4  1  0  0  0  0
  1 22  1  0  0  0  0
  2 15  1  0  0  0  0
  3 19  1  0  0  0  0
  3 13  1  1  0  0  0
  4 20  1  0  0  0  0
  5  3  1  0  0  0  0
  6 16  1  0  0  0  0
  6  2  2  0  0  0  0
  8 12  1  0  0  0  0
 10 22  1  0  0  0  0
 11  8  1  0  0  0  0
 11  5  1  0  0  0  0
 12 19  1  0  0  0  0
 14  4  2  0  0  0  0
 15 21  1  0  0  0  0
 15  5  1  0  0  0  0
 16 11  1  0  0  0  0
 17 18  2  0  0  0  0
 17 21  1  0  0  0  0
 18 14  1  0  0  0  0
 19  9  1  0  0  0  0
 20  7  1  0  0  0  0
 20 33  1  0  0  0  0
 21  1  2  0  0  0  0
 22 13  1  0  0  0  0
 22  7  1  0  0  0  0
 23 29  1  0  0  0  0
 24 28  1  0  0  0  0
 25 23  1  0  0  0  0
 26 27  1  0  0  0  0
 27 30  1  0  0  0  0
 28 26  1  0  0  0  0
 28 25  1  0  0  0  0
 29 30  1  0  0  0  0
 30  6  1  0  0  0  0
 33 31  2  0  0  0  0
 33 32  1  0  0  0  0
M  END
>  <MODEL>
4

>  <REMARK>
 VINA RESULT:      -9.4      2.554      5.155
  Name = 
  2 active torsions:
  status: ('A' for Active; 'I' for Inactive)
    1  A    between atoms: C_11  and  C_32
    2  A    between atoms: C_18  and  C_30
                            x       y       z     vdW  Elec       q    Type
                         _______ _______ _______ _____ _____    ______ ____

>  <TORSDO>
F 2

$$$$
=
 OpenBabel11062412323D

 33 38  0  0  1  0  0  0  0  0999 V2000
  186.8310  177.9100  143.9740 C   0  0  0  0  0  0  0  0  0  0  0  0
  184.8250  178.7360  141.0340 N   0  0  0  0  0  0  0  0  0  0  0  0
  188.6830  178.3470  141.3540 C   0  0  1  0  0  3  0  0  0  0  0  0
  186.6380  177.8450  145.3380 C   0  0  0  0  0  0  0  0  0  0  0  0
  187.2210  178.0290  140.9350 C   0  0  2  0  0  3  0  0  0  0  0  0
  184.6240  178.3580  139.8060 C   0  0  0  0  0  0  0  0  0  0  0  0
  188.7010  176.7550  144.9100 C   0  0  0  0  0  2  0  0  0  0  0  0
  188.0500  177.3730  138.6460 C   0  0  0  0  0  2  0  0  0  0  0  0
  190.9940  177.9010  140.8410 O   0  0  0  0  0  1  0  0  0  0  0  0
  187.7630  176.0380  142.8380 O   0  0  0  0  0  1  0  0  0  0  0  0
  187.0840  178.2530  139.4190 C   0  0  1  0  0  3  0  0  0  0  0  0
  189.4730  177.7430  139.0270 C   0  0  0  0  0  2  0  0  0  0  0  0
  188.9990  178.1280  142.8400 C   0  0  0  0  0  2  0  0  0  0  0  0
  185.5710  178.4980  145.9560 C   0  0  0  0  0  3  0  0  0  0  0  0
  186.1470  178.8880  141.6600 C   0  0  2  0  0  3  0  0  0  0  0  0
  185.7250  177.9850  138.9830 N   0  0  0  0  0  2  0  0  0  0  0  0
  184.9200  179.3670  143.7880 C   0  0  0  0  0  3  0  0  0  0  0  0
  184.7070  179.2630  145.1690 C   0  0  0  0  0  3  0  0  0  0  0  0
  189.6870  177.5310  140.5200 C   0  0  2  0  0  3  0  0  0  0  0  0
  187.6970  177.0650  146.0240 C   0  0  1  0  0  3  0  0  0  0  0  0
  185.9820  178.6890  143.1570 C   0  0  0  0  0  0  0  0  0  0  0  0
  188.0640  177.1820  143.5830 C   0  0  1  0  0  0  0  0  0  0  0  0
  182.3920  180.5410  138.7190 C   0  0  0  0  0  2  0  0  0  0  0  0
  180.6990  179.3520  135.6080 O   0  0  0  0  0  1  0  0  0  0  0  0
  181.2990  180.3670  137.6730 C   0  0  0  0  0  2  0  0  0  0  0  0
  181.8820  177.9670  137.1380 C   0  0  0  0  0  2  0  0  0  0  0  0
  183.2510  177.8570  137.7920 C   0  0  0  0  0  2  0  0  0  0  0  0
  181.6930  179.3740  136.5840 C   0  0  1  0  0  3  0  0  0  0  0  0
  182.3500  179.3780  139.7010 C   0  0  0  0  0  2  0  0  0  0  0  0
  183.2330  178.1920  139.2880 C   0  0  2  0  0  3  0  0  0  0  0  0
  189.5330  178.2950  146.9650 O   0  0  0  0  0  0  0  0  0  0  0  0
  187.6700  178.1130  148.2870 O   0  0  0  0  0  1  0  0  0  0  0  0
  188.3600  177.8570  147.1090 C   0  0  0  0  0  0  0  0  0  0  0  0
  1  4  1  0  0  0  0
  2 15  1  0  0  0  0
  3 13  1  1  0  0  0
  4 14  2  0  0  0  0
  4 20  1  0  0  0  0
  5  3  1  0  0  0  0
  5 15  1  0  0  0  0
  6  2  2  0  0  0  0
  7 20  1  0  0  0  0
  8 12  1  0  0  0  0
  8 11  1  0  0  0  0
 10 22  1  0  0  0  0
 11  5  1  0  0  0  0
 12 19  1  0  0  0  0
 13 22  1  0  0  0  0
 15 21  1  0  0  0  0
 16 11  1  0  0  0  0
 16  6  1  0  0  0  0
 17 18  2  0  0  0  0
 18 14  1  0  0  0  0
 19  9  1  0  0  0  0
 19  3  1  0  0  0  0
 20 33  1  0  0  0  0
 21 17  1  0  0  0  0
 21  1  2  0  0  0  0
 22  1  1  0  0  0  0
 22  7  1  0  0  0  0
 23 29  1  0  0  0  0
 24 28  1  0  0  0  0
 25 23  1  0  0  0  0
 26 27  1  0  0  0  0
 27 30  1  0  0  0  0
 28 26  1  0  0  0  0
 28 25  1  0  0  0  0
 30 29  1  0  0  0  0
 30  6  1  0  0  0  0
 31 33  2  0  0  0  0
 33 32  1  0  0  0  0
M  END
>  <MODEL>
5

>  <REMARK>
 VINA RESULT:      -9.0      2.163      3.193
  Name = 
  2 active torsions:
  status: ('A' for Active; 'I' for Inactive)
    1  A    between atoms: C_11  and  C_32
    2  A    between atoms: C_18  and  C_30
                            x       y       z     vdW  Elec       q    Type
                         _______ _______ _______ _____ _____    ______ ____

>  <TORSDO>
F 2

$$$$
=
 OpenBabel11062412323D

 33 38  0  0  1  0  0  0  0  0999 V2000
  190.3230  177.5060  141.4790 C   0  0  0  0  0  0  0  0  0  0  0  0
  187.0570  177.8670  143.0810 N   0  0  0  0  0  0  0  0  0  0  0  0
  190.3530  176.3780  144.5150 C   0  0  1  0  0  3  0  0  0  0  0  0
  190.8300  177.5860  140.2000 C   0  0  0  0  0  0  0  0  0  0  0  0
  189.1710  177.3670  144.3180 C   0  0  2  0  0  3  0  0  0  0  0  0
  186.5020  178.3540  144.1500 C   0  0  0  0  0  0  0  0  0  0  0  0
  192.7030  177.5980  141.6560 C   0  0  0  0  0  2  0  0  0  0  0  0
  189.0440  177.6680  146.8180 C   0  0  0  0  0  2  0  0  0  0  0  0
  192.0970  175.7090  146.0370 O   0  0  0  0  0  1  0  0  0  0  0  0
  191.3380  178.7730  143.2190 O   0  0  0  0  0  1  0  0  0  0  0  0
  188.2690  177.3080  145.5630 C   0  0  1  0  0  3  0  0  0  0  0  0
  190.1560  176.6530  147.0230 C   0  0  0  0  0  2  0  0  0  0  0  0
  191.3780  176.3490  143.3710 C   0  0  0  0  0  2  0  0  0  0  0  0
  190.0050  177.4830  139.0790 C   0  0  0  0  0  3  0  0  0  0  0  0
  188.3000  177.0800  143.0640 C   0  0  2  0  0  3  0  0  0  0  0  0
  187.1370  178.2060  145.4170 N   0  0  0  0  0  2  0  0  0  0  0  0
  188.1230  177.1300  140.5670 C   0  0  0  0  0  3  0  0  0  0  0  0
  188.6400  177.2550  139.2710 C   0  0  0  0  0  3  0  0  0  0  0  0
  191.1020  176.6650  145.8290 C   0  0  2  0  0  3  0  0  0  0  0  0
  192.3050  177.7420  140.1840 C   0  0  1  0  0  3  0  0  0  0  0  0
  188.9490  177.2590  141.7020 C   0  0  0  0  0  0  0  0  0  0  0  0
  191.4130  177.5860  142.4830 C   0  0  1  0  0  0  0  0  0  0  0  0
  183.9470  178.2530  142.0560 C   0  0  0  0  0  2  0  0  0  0  0  0
  180.6840  178.6280  143.8390 O   0  0  0  0  0  1  0  0  0  0  0  0
  182.4890  178.6280  142.2900 C   0  0  0  0  0  2  0  0  0  0  0  0
  182.8050  179.2490  144.7180 C   0  0  0  0  0  2  0  0  0  0  0  0
  184.1770  178.6480  144.9880 C   0  0  0  0  0  2  0  0  0  0  0  0
  182.0500  178.3710  143.7280 C   0  0  1  0  0  3  0  0  0  0  0  0
  184.8500  179.3630  142.5770 C   0  0  0  0  0  2  0  0  0  0  0  0
  185.2620  179.1810  144.0450 C   0  0  2  0  0  3  0  0  0  0  0  0
  192.3300  176.0560  138.4730 O   0  0  0  0  0  0  0  0  0  0  0  0
  194.3060  176.3780  139.5880 O   0  0  0  0  0  1  0  0  0  0  0  0
  192.9690  176.6790  139.3640 C   0  0  0  0  0  0  0  0  0  0  0  0
  1 21  1  0  0  0  0
  1 22  1  0  0  0  0
  2  6  2  0  0  0  0
  3 13  1  6  0  0  0
  3 19  1  0  0  0  0
  4  1  2  0  0  0  0
  5  3  1  0  0  0  0
  5 11  1  0  0  0  0
  6 16  1  0  0  0  0
  7 22  1  0  0  0  0
  8 12  1  0  0  0  0
 11  8  1  0  0  0  0
 14 18  2  0  0  0  0
 14  4  1  0  0  0  0
 15  2  1  0  0  0  0
 15  5  1  0  0  0  0
 16 11  1  0  0  0  0
 17 21  2  0  0  0  0
 18 17  1  0  0  0  0
 19  9  1  0  0  0  0
 19 12  1  0  0  0  0
 20  4  1  0  0  0  0
 20  7  1  0  0  0  0
 21 15  1  0  0  0  0
 22 10  1  0  0  0  0
 22 13  1  0  0  0  0
 23 25  1  0  0  0  0
 23 29  1  0  0  0  0
 25 28  1  0  0  0  0
 26 27  1  0  0  0  0
 28 24  1  0  0  0  0
 28 26  1  0  0  0  0
 29 30  1  0  0  0  0
 30  6  1  0  0  0  0
 30 27  1  0  0  0  0
 31 33  2  0  0  0  0
 33 32  1  0  0  0  0
 33 20  1  0  0  0  0
M  END
>  <MODEL>
6

>  <REMARK>
 VINA RESULT:      -9.0      3.252      6.557
  Name = 
  2 active torsions:
  status: ('A' for Active; 'I' for Inactive)
    1  A    between atoms: C_11  and  C_32
    2  A    between atoms: C_18  and  C_30
                            x       y       z     vdW  Elec       q    Type
                         _______ _______ _______ _____ _____    ______ ____

>  <TORSDO>
F 2

$$$$
=
 OpenBabel11062412323D

 33 38  0  0  1  0  0  0  0  0999 V2000
  187.7040  177.5810  142.8600 C   0  0  0  0  0  0  0  0  0  0  0  0
  187.0000  178.1670  139.3220 N   0  0  0  0  0  0  0  0  0  0  0  0
  190.4290  177.9020  141.1400 C   0  0  1  0  0  3  0  0  0  0  0  0
  186.9960  177.5970  144.0430 C   0  0  0  0  0  0  0  0  0  0  0  0
  189.2450  177.5200  140.2090 C   0  0  2  0  0  3  0  0  0  0  0  0
  187.2920  177.7080  138.1410 C   0  0  0  0  0  0  0  0  0  0  0  0
  189.0630  176.5370  144.5240 C   0  0  0  0  0  2  0  0  0  0  0  0
  190.8990  176.7430  138.4720 C   0  0  0  0  0  2  0  0  0  0  0  0
  192.7580  177.4860  141.5950 O   0  0  0  0  0  1  0  0  0  0  0  0
  189.0040  175.6670  142.3050 O   0  0  0  0  0  1  0  0  0  0  0  0
  189.7090  177.6440  138.7470 C   0  0  1  0  0  3  0  0  0  0  0  0
  192.0620  177.1740  139.3490 C   0  0  0  0  0  2  0  0  0  0  0  0
  190.1420  177.7860  142.6440 C   0  0  0  0  0  2  0  0  0  0  0  0
  185.7720  178.2590  144.1520 C   0  0  0  0  0  3  0  0  0  0  0  0
  187.9740  178.3930  140.4000 C   0  0  2  0  0  3  0  0  0  0  0  0
  188.6270  177.3130  137.8380 N   0  0  0  0  0  2  0  0  0  0  0  0
  186.0150  178.9720  141.8470 C   0  0  0  0  0  3  0  0  0  0  0  0
  185.2820  178.9500  143.0410 C   0  0  0  0  0  3  0  0  0  0  0  0
  191.6790  177.0630  140.8180 C   0  0  2  0  0  3  0  0  0  0  0  0
  187.7050  176.8900  145.1370 C   0  0  1  0  0  3  0  0  0  0  0  0
  187.2400  178.2850  141.7250 C   0  0  0  0  0  0  0  0  0  0  0  0
  188.9920  176.8630  143.0280 C   0  0  1  0  0  0  0  0  0  0  0  0
  185.9880  174.9330  136.9050 C   0  0  0  0  0  2  0  0  0  0  0  0
  182.2610  175.1210  136.7190 O   0  0  0  0  0  1  0  0  0  0  0  0
  184.5750  174.6680  136.4040 C   0  0  0  0  0  2  0  0  0  0  0  0
  183.7190  176.9910  136.9110 C   0  0  0  0  0  2  0  0  0  0  0  0
  184.8340  177.5130  137.8060 C   0  0  0  0  0  2  0  0  0  0  0  0
  183.5330  175.4970  137.1490 C   0  0  1  0  0  3  0  0  0  0  0  0
  186.5140  176.2250  136.2920 C   0  0  0  0  0  2  0  0  0  0  0  0
  186.2120  177.4720  137.1360 C   0  0  2  0  0  3  0  0  0  0  0  0
  189.0230  178.2520  146.6120 O   0  0  0  0  0  0  0  0  0  0  0  0
  186.8070  178.0480  147.1550 O   0  0  0  0  0  1  0  0  0  0  0  0
  187.8930  177.7670  146.3370 C   0  0  0  0  0  0  0  0  0  0  0  0
  1 22  1  0  0  0  0
  1  4  1  0  0  0  0
  2 15  1  0  0  0  0
  3 13  1  1  0  0  0
  4 14  2  0  0  0  0
  4 20  1  0  0  0  0
  5 15  1  0  0  0  0
  5  3  1  0  0  0  0
  6  2  2  0  0  0  0
  7 20  1  0  0  0  0
  8 11  1  0  0  0  0
  8 12  1  0  0  0  0
 10 22  1  0  0  0  0
 11  5  1  0  0  0  0
 12 19  1  0  0  0  0
 13 22  1  0  0  0  0
 15 21  1  0  0  0  0
 16  6  1  0  0  0  0
 16 11  1  0  0  0  0
 17 18  2  0  0  0  0
 18 14  1  0  0  0  0
 19  3  1  0  0  0  0
 19  9  1  0  0  0  0
 20 33  1  0  0  0  0
 21 17  1  0  0  0  0
 21  1  2  0  0  0  0
 22  7  1  0  0  0  0
 24 28  1  0  0  0  0
 25 23  1  0  0  0  0
 25 28  1  0  0  0  0
 26 28  1  0  0  0  0
 26 27  1  0  0  0  0
 29 23  1  0  0  0  0
 29 30  1  0  0  0  0
 30 27  1  0  0  0  0
 30  6  1  0  0  0  0
 33 31  2  0  0  0  0
 33 32  1  0  0  0  0
M  END
>  <MODEL>
7

>  <REMARK>
 VINA RESULT:      -8.8      1.001      1.187
  Name = 
  2 active torsions:
  status: ('A' for Active; 'I' for Inactive)
    1  A    between atoms: C_11  and  C_32
    2  A    between atoms: C_18  and  C_30
                            x       y       z     vdW  Elec       q    Type
                         _______ _______ _______ _____ _____    ______ ____

>  <TORSDO>
F 2

$$$$
=
 OpenBabel11062412323D

 33 38  0  0  1  0  0  0  0  0999 V2000
  186.7760  177.7990  138.5110 C   0  0  0  0  0  0  0  0  0  0  0  0
  186.8170  178.1010  142.1530 N   0  0  0  0  0  0  0  0  0  0  0  0
  184.1670  179.3760  139.6050 C   0  0  1  0  0  3  0  0  0  0  0  0
  187.6710  177.4560  137.5200 C   0  0  0  0  0  0  0  0  0  0  0  0
  184.7980  178.5230  140.7400 C   0  0  2  0  0  3  0  0  0  0  0  0
  186.0820  177.8600  143.1980 C   0  0  0  0  0  0  0  0  0  0  0  0
  185.5250  177.4410  136.5080 C   0  0  0  0  0  2  0  0  0  0  0  0
  182.6160  178.6350  141.9990 C   0  0  0  0  0  2  0  0  0  0  0  0
  182.0790  180.0530  138.6120 O   0  0  0  0  0  1  0  0  0  0  0  0
  184.6650  176.7040  138.6060 O   0  0  0  0  0  1  0  0  0  0  0  0
  184.1120  178.8870  142.0680 C   0  0  1  0  0  3  0  0  0  0  0  0
  182.0130  179.5240  140.9240 C   0  0  0  0  0  2  0  0  0  0  0  0
  184.7150  179.0980  138.1980 C   0  0  0  0  0  2  0  0  0  0  0  0
  189.0490  177.4840  137.7390 C   0  0  0  0  0  3  0  0  0  0  0  0
  186.3310  178.7150  140.9080 C   0  0  2  0  0  3  0  0  0  0  0  0
  184.6820  178.1260  143.1650 N   0  0  0  0  0  2  0  0  0  0  0  0
  188.6190  178.2970  139.9830 C   0  0  0  0  0  3  0  0  0  0  0  0
  189.5210  177.9080  138.9840 C   0  0  0  0  0  3  0  0  0  0  0  0
  182.6370  179.2070  139.5720 C   0  0  2  0  0  3  0  0  0  0  0  0
  186.9990  177.1180  136.2420 C   0  0  1  0  0  3  0  0  0  0  0  0
  187.2260  178.2460  139.7740 C   0  0  0  0  0  0  0  0  0  0  0  0
  185.3820  177.7420  138.0030 C   0  0  1  0  0  0  0  0  0  0  0  0
  189.1460  177.8380  144.4370 C   0  0  0  0  0  2  0  0  0  0  0  0
  189.1370  178.2420  148.1520 O   0  0  0  0  0  1  0  0  0  0  0  0
  189.6040  177.7000  145.8830 C   0  0  0  0  0  2  0  0  0  0  0  0
  187.2710  177.5620  146.8430 C   0  0  0  0  0  2  0  0  0  0  0  0
  186.4470  178.0330  145.6540 C   0  0  0  0  0  2  0  0  0  0  0  0
  188.6030  178.3010  146.8650 C   0  0  1  0  0  3  0  0  0  0  0  0
  188.1210  176.7570  144.1210 C   0  0  0  0  0  2  0  0  0  0  0  0
  186.6720  177.1870  144.3950 C   0  0  2  0  0  3  0  0  0  0  0  0
  186.7980  178.8540  134.5940 O   0  0  0  0  0  0  0  0  0  0  0  0
  188.7890  177.7190  134.6130 O   0  0  0  0  0  1  0  0  0  0  0  0
  187.5110  177.9490  135.1050 C   0  0  0  0  0  0  0  0  0  0  0  0
  1 21  1  0  0  0  0
  2  6  2  0  0  0  0
  3 13  1  6  0  0  0
  3  5  1  0  0  0  0
  4 14  1  0  0  0  0
  4  1  2  0  0  0  0
  5 15  1  0  0  0  0
  5 11  1  0  0  0  0
  6 30  1  0  0  0  0
  7 22  1  0  0  0  0
  8 11  1  0  0  0  0
  9 19  1  0  0  0  0
 11 16  1  0  0  0  0
 12  8  1  0  0  0  0
 14 18  2  0  0  0  0
 15  2  1  0  0  0  0
 16  6  1  0  0  0  0
 18 17  1  0  0  0  0
 19  3  1  0  0  0  0
 19 12  1  0  0  0  0
 20  7  1  0  0  0  0
 20  4  1  0  0  0  0
 21 17  2  0  0  0  0
 21 15  1  0  0  0  0
 22 13  1  0  0  0  0
 22  1  1  0  0  0  0
 22 10  1  0  0  0  0
 23 25  1  0  0  0  0
 25 28  1  0  0  0  0
 26 28  1  0  0  0  0
 27 26  1  0  0  0  0
 28 24  1  0  0  0  0
 29 30  1  0  0  0  0
 29 23  1  0  0  0  0
 30 27  1  0  0  0  0
 31 33  2  0  0  0  0
 32 33  1  0  0  0  0
 33 20  1  0  0  0  0
M  END
>  <MODEL>
8

>  <REMARK>
 VINA RESULT:      -8.3      2.540      8.362
  Name = 
  2 active torsions:
  status: ('A' for Active; 'I' for Inactive)
    1  A    between atoms: C_11  and  C_32
    2  A    between atoms: C_18  and  C_30
                            x       y       z     vdW  Elec       q    Type
                         _______ _______ _______ _____ _____    ______ ____

>  <TORSDO>
F 2

$$$$
