=
 OpenBabel11062416113D

 67 75  0  0  1  0  0  0  0  0999 V2000
  190.3810  177.2140  142.0480 C   0  0  0  0  0  0  0  0  0  0  0  0
  190.4450  177.8590  143.1590 C   0  0  0  0  0  0  0  0  0  0  0  0
  190.5890  176.5170  141.0600 C   0  0  0  0  0  3  0  0  0  0  0  0
  192.0410  177.0450  139.4210 O   0  0  0  0  0  0  0  0  0  0  0  0
  190.7930  176.9490  139.7990 C   0  0  0  0  0  0  0  0  0  0  0  0
  189.7540  176.3360  139.0220 O   0  0  0  0  0  0  0  0  0  0  0  0
  189.8930  177.8090  137.3880 O   0  0  0  0  0  0  0  0  0  0  0  0
  187.8420  177.5730  136.4690 C   0  0  0  0  0  2  0  0  0  0  0  0
  189.5140  176.4840  137.6310 C   0  0  2  0  0  0  0  0  0  0  0  0
  188.8670  178.4560  136.7940 O   0  0  0  0  0  0  0  0  0  0  0  0
  187.9620  176.5310  137.5000 C   0  0  0  0  0  2  0  0  0  0  0  0
  190.1190  175.8430  135.2290 O   0  0  0  0  0  0  0  0  0  0  0  0
  191.3840  176.0830  135.6940 C   0  0  1  0  0  3  0  0  0  0  0  0
  190.2520  175.4950  136.5590 C   0  0  1  0  0  0  0  0  0  0  0  0
  197.4560  175.9060  136.0570 N   0  0  0  0  0  0  0  0  0  0  0  0
  194.7070  177.3110  135.3050 F   0  0  0  0  0  0  0  0  0  0  0  0
  196.1490  175.3770  135.9230 C   0  0  0  0  0  0  0  0  0  0  0  0
  196.1290  174.1460  135.5150 C   0  0  0  0  0  0  0  0  0  0  0  0
  198.3470  174.7910  135.7440 C   0  0  0  0  0  3  0  0  0  0  0  0
  192.5200  175.0520  135.9980 C   0  0  2  0  0  3  0  0  0  0  0  0
  194.6960  173.7750  135.2170 C   0  0  0  0  0  2  0  0  0  0  0  0
  193.7310  175.5170  136.8170 C   0  0  2  0  0  3  0  0  0  0  0  0
  197.4830  173.7040  135.3450 O   0  0  0  0  0  0  0  0  0  0  0  0
  194.8810  176.0690  135.9340 C   0  0  1  0  0  0  0  0  0  0  0  0
  193.8960  175.1550  135.3020 C   0  0  2  0  0  0  0  0  0  0  0  0
  189.4340  173.0990  137.4150 O   0  0  0  0  0  0  0  0  0  0  0  0
  189.6150  173.9930  136.3570 C   0  0  0  0  0  0  0  0  0  0  0  0
  188.4440  173.9070  135.5720 O   0  0  0  0  0  0  0  0  0  0  0  0
  184.2370  171.5860  136.0360 C   0  0  0  0  0  2  0  0  0  0  0  0
  187.9130  172.7680  135.0140 C   0  0  0  0  0  2  0  0  0  0  0  0
  185.5440  172.2860  136.1570 C   0  0  0  0  0  3  0  0  0  0  0  0
  184.5200  172.2850  137.2990 C   0  0  0  0  0  2  0  0  0  0  0  0
  186.7200  172.5050  135.5440 C   0  0  0  0  0  2  0  0  0  0  0  0
  191.6960  177.7170  143.8030 O   0  0  0  0  0  0  0  0  0  0  0  0
  191.7980  177.7560  145.1190 O   0  0  0  0  0  0  0  0  0  0  0  0
  192.0720  175.5720  145.0460 O   0  0  0  0  0  1  0  0  0  0  0  0
  191.4620  176.5750  145.7840 C   0  0  2  0  0  0  0  0  0  0  0  0
  190.1690  176.1500  145.5680 F   0  0  0  0  0  0  0  0  0  0  0  0
  191.8260  176.3770  147.3360 C   0  0  0  0  0  2  0  0  0  0  0  0
  192.8690  175.4590  147.4360 O   0  0  0  0  0  1  0  0  0  0  0  0
  189.3550  178.7440  143.6450 C   0  0  0  0  0  2  0  0  0  0  0  0
  187.8610  178.3000  143.2560 C   0  0  2  0  0  3  0  0  0  0  0  0
  188.2970  179.1510  140.0090 N   0  0  0  0  0  1  0  0  0  0  0  0
  187.1550  178.5370  140.6950 C   0  0  1  0  0  3  0  0  0  0  0  0
  187.0140  179.0520  142.1210 C   0  0  1  0  0  3  0  0  0  0  0  0
  184.8800  178.8160  140.9330 C   0  0  1  0  0  3  0  0  0  0  0  0
  185.5100  178.8220  142.3320 C   0  0  2  0  0  3  0  0  0  0  0  0
  185.9780  178.9150  139.9530 N   0  0  0  0  0  2  0  0  0  0  0  0
  183.2740  177.1380  141.5850 O   0  0  0  0  0  0  0  0  0  0  0  0
  183.2180  175.4370  137.5460 C   0  0  1  0  0  3  0  0  0  0  0  0
  184.1770  177.6440  138.0030 C   0  0  0  0  0  2  0  0  0  0  0  0
  182.0200  175.3630  136.8340 O   0  0  0  0  0  1  0  0  0  0  0  0
  183.9210  177.6400  140.5820 C   0  0  0  0  0  0  0  0  0  0  0  0
  184.1310  176.5260  136.9500 C   0  0  0  0  0  2  0  0  0  0  0  0
  182.8910  175.8550  138.9850 C   0  0  0  0  0  2  0  0  0  0  0  0
  183.6240  177.0690  139.2610 N   0  0  0  0  0  0  0  0  0  0  0  0
  184.9910  179.7370  143.4670 C   0  0  0  0  0  0  0  0  0  0  0  0
  185.6200  180.7010  143.8550 O   0  0  0  0  0  0  0  0  0  0  0  0
  183.6710  179.6060  143.8630 O   0  0  0  0  0  1  0  0  0  0  0  0
  187.2980  177.0800  144.0780 C   0  0  2  0  0  3  0  0  0  0  0  0
  186.8320  176.0120  143.2940 O   0  0  0  0  0  1  0  0  0  0  0  0
  186.2910  177.4550  145.1880 C   0  0  0  0  0  2  0  0  0  0  0  0
  187.0330  178.1960  146.2570 N   0  0  0  0  0  0  0  0  0  0  0  0
  186.0030  178.9540  146.9590 C   0  0  0  0  0  2  0  0  0  0  0  0
  184.7130  178.2390  146.7130 C   0  0  0  0  0  1  0  0  0  0  0  0
  188.0370  177.4700  147.0000 C   0  0  0  0  0  2  0  0  0  0  0  0
  188.1780  177.8900  148.4700 C   0  0  0  0  0  1  0  0  0  0  0  0
  1  2  2  0  0  0  0
  2 41  1  0  0  0  0
  2 34  1  0  0  0  0
  3  1  2  0  0  0  0
  4  5  2  0  0  0  0
  5  3  1  0  0  0  0
  6  5  1  0  0  0  0
  7  9  1  0  0  0  0
  8 10  1  0  0  0  0
  8 11  1  0  0  0  0
  9  6  1  1  0  0  0
 10  7  1  0  0  0  0
 11  9  1  0  0  0  0
 12 14  1  0  0  0  0
 13 12  1  6  0  0  0
 13 14  1  0  0  0  0
 14 27  1  1  0  0  0
 14  9  1  0  0  0  0
 16 24  1  0  0  0  0
 17 24  1  0  0  0  0
 17 15  1  0  0  0  0
 18 17  2  0  0  0  0
 19 15  2  0  0  0  0
 20 13  1  6  0  0  0
 20 22  1  0  0  0  0
 21 25  1  0  0  0  0
 21 18  1  0  0  0  0
 23 18  1  0  0  0  0
 23 19  1  0  0  0  0
 24 22  1  0  0  0  0
 25 24  1  0  0  0  0
 25 20  1  0  0  0  0
 25 22  1  0  0  0  0
 27 26  2  0  0  0  0
 28 27  1  0  0  0  0
 29 31  1  0  0  0  0
 29 32  1  0  0  0  0
 30 33  1  0  0  0  0
 30 28  1  0  0  0  0
 31 32  1  0  0  0  0
 33 31  1  0  0  0  0
 34 35  1  0  0  0  0
 35 37  1  0  0  0  0
 36 37  1  0  0  0  0
 37 39  1  0  0  0  0
 38 37  1  0  0  0  0
 39 40  1  0  0  0  0
 42 41  1  0  0  0  0
 42 60  1  0  0  0  0
 43 44  1  0  0  0  0
 44 45  1  0  0  0  0
 45 47  1  0  0  0  0
 45 42  1  0  0  0  0
 46 47  1  0  0  0  0
 47 57  1  0  0  0  0
 48 44  1  0  0  0  0
 48 46  1  0  0  0  0
 50 55  1  0  0  0  0
 51 56  1  0  0  0  0
 52 50  1  0  0  0  0
 53 46  1  0  0  0  0
 53 49  2  0  0  0  0
 54 50  1  0  0  0  0
 54 51  1  0  0  0  0
 55 56  1  0  0  0  0
 56 53  1  0  0  0  0
 57 58  2  0  0  0  0
 57 59  1  0  0  0  0
 60 62  1  0  0  0  0
 61 60  1  0  0  0  0
 62 63  1  0  0  0  0
 63 64  1  0  0  0  0
 63 66  1  0  0  0  0
 65 64  1  0  0  0  0
 66 67  1  0  0  0  0
M  END
>  <MODEL>
1

>  <REMARK>
 VINA RESULT:      -6.7      0.000      0.000
  Name = 
  22 active torsions:
  status: ('A' for Active; 'I' for Inactive)
    1  A    between atoms: C_1  and  N_54
    2  A    between atoms: C_10  and  O_36
    3  A    between atoms: C_11  and  C_16
    4  A    between atoms: C_11  and  N_54
    5  A    between atoms: O_12  and  C_20
    6  A    between atoms: O_12  and  C_30
    7  A    between atoms: C_16  and  C_23
    8  A    between atoms: C_20  and  C_61
    9  A    between atoms: C_23  and  C_40
   10  A    between atoms: C_23  and  C_62
   11  A    between atoms: C_25  and  C_39
   12  A    between atoms: C_27  and  N_54
   13  A    between atoms: C_30  and  C_60
   14  A    between atoms: C_34  and  C_43
   15  A    between atoms: C_35  and  O_48
   16  A    between atoms: C_35  and  C_62
   17  A    between atoms: O_36  and  C_64
   18  A    between atoms: C_38  and  C_51
   19  A    between atoms: C_39  and  O_56
   20  A    between atoms: C_45  and  C_46
   21  A    between atoms: O_48  and  O_56
   22  A    between atoms: C_61  and  C_64
                            x       y       z     vdW  Elec       q    Type
                         _______ _______ _______ _____ _____    ______ ____

>  <TORSDO>
F 22

$$$$
=
 OpenBabel11062416113D

 67 75  0  0  1  0  0  0  0  0999 V2000
  185.8000  178.4000  139.4630 C   0  0  0  0  0  0  0  0  0  0  0  0
  184.7780  179.1260  139.7500 C   0  0  0  0  0  0  0  0  0  0  0  0
  186.8150  177.7120  139.4760 C   0  0  0  0  0  3  0  0  0  0  0  0
  188.6340  179.0130  139.7470 O   0  0  0  0  0  0  0  0  0  0  0  0
  188.0420  178.0790  139.0500 C   0  0  0  0  0  0  0  0  0  0  0  0
  188.6690  176.8600  138.6270 O   0  0  0  0  0  0  0  0  0  0  0  0
  189.7420  177.9790  137.0590 O   0  0  0  0  0  0  0  0  0  0  0  0
  189.1280  176.7920  135.2370 C   0  0  0  0  0  2  0  0  0  0  0  0
  189.5230  176.6720  137.5090 C   0  0  2  0  0  0  0  0  0  0  0  0
  189.4140  178.0530  135.7510 O   0  0  0  0  0  0  0  0  0  0  0  0
  188.6030  176.0680  136.4050 C   0  0  0  0  0  2  0  0  0  0  0  0
  190.8920  174.6260  138.2060 O   0  0  0  0  0  0  0  0  0  0  0  0
  191.1950  174.6200  136.8710 C   0  0  1  0  0  3  0  0  0  0  0  0
  190.9560  175.9050  137.6880 C   0  0  1  0  0  0  0  0  0  0  0  0
  196.3890  171.9250  135.2010 N   0  0  0  0  0  0  0  0  0  0  0  0
  193.6020  171.9950  136.7250 F   0  0  0  0  0  0  0  0  0  0  0  0
  195.5380  173.0080  135.5280 C   0  0  0  0  0  0  0  0  0  0  0  0
  196.1720  174.1190  135.7410 C   0  0  0  0  0  0  0  0  0  0  0  0
  197.7290  172.5040  135.1450 C   0  0  0  0  0  3  0  0  0  0  0  0
  192.5490  174.9890  136.1790 C   0  0  2  0  0  3  0  0  0  0  0  0
  195.1840  175.1270  136.2770 C   0  0  0  0  0  2  0  0  0  0  0  0
  193.1690  173.9830  135.2020 C   0  0  2  0  0  3  0  0  0  0  0  0
  197.5740  173.8820  135.5490 O   0  0  0  0  0  0  0  0  0  0  0  0
  194.1390  172.9890  135.8930 C   0  0  1  0  0  0  0  0  0  0  0  0
  193.8630  174.2790  136.5740 C   0  0  2  0  0  0  0  0  0  0  0  0
  193.1830  177.0870  138.5750 O   0  0  0  0  0  0  0  0  0  0  0  0
  191.9660  176.4600  138.8590 C   0  0  0  0  0  0  0  0  0  0  0  0
  191.3740  177.2150  139.8960 O   0  0  0  0  0  0  0  0  0  0  0  0
  189.6610  177.2350  144.4090 C   0  0  0  0  0  2  0  0  0  0  0  0
  191.9230  177.4890  141.1270 C   0  0  0  0  0  2  0  0  0  0  0  0
  189.9840  177.3860  142.9650 C   0  0  0  0  0  3  0  0  0  0  0  0
  188.5520  177.5430  143.4930 C   0  0  0  0  0  2  0  0  0  0  0  0
  190.9900  177.4270  142.0740 C   0  0  0  0  0  2  0  0  0  0  0  0
  184.6720  179.3990  141.1350 O   0  0  0  0  0  0  0  0  0  0  0  0
  184.1280  178.5290  141.9650 O   0  0  0  0  0  0  0  0  0  0  0  0
  185.3180  179.7830  143.3290 O   0  0  0  0  0  1  0  0  0  0  0  0
  184.4500  178.7030  143.3130 C   0  0  2  0  0  0  0  0  0  0  0  0
  185.3500  177.7830  143.8060 F   0  0  0  0  0  0  0  0  0  0  0  0
  183.2960  178.9440  144.4050 C   0  0  0  0  0  2  0  0  0  0  0  0
  183.8720  178.9230  145.6740 O   0  0  0  0  0  1  0  0  0  0  0  0
  183.8770  179.7010  138.7170 C   0  0  0  0  0  2  0  0  0  0  0  0
  182.6050  178.8070  138.3150 C   0  0  2  0  0  3  0  0  0  0  0  0
  184.5450  176.4520  136.8500 N   0  0  0  0  0  1  0  0  0  0  0  0
  183.0940  176.5040  137.0600 C   0  0  1  0  0  3  0  0  0  0  0  0
  182.5660  177.9300  136.9730 C   0  0  1  0  0  3  0  0  0  0  0  0
  181.1280  176.2690  135.8800 C   0  0  1  0  0  3  0  0  0  0  0  0
  181.1140  177.6450  136.5600 C   0  0  2  0  0  3  0  0  0  0  0  0
  182.4960  175.7290  136.0020 N   0  0  0  0  0  2  0  0  0  0  0  0
  178.9310  175.7210  136.7100 O   0  0  0  0  0  0  0  0  0  0  0  0
  180.0190  171.5010  137.1790 C   0  0  1  0  0  3  0  0  0  0  0  0
  181.3840  173.0460  135.8580 C   0  0  0  0  0  2  0  0  0  0  0  0
  179.2930  170.5120  136.5130 O   0  0  0  0  0  1  0  0  0  0  0  0
  180.0720  175.2250  136.3500 C   0  0  0  0  0  0  0  0  0  0  0  0
  181.4100  171.6690  136.5390 C   0  0  0  0  0  2  0  0  0  0  0  0
  179.2760  172.8320  137.0090 C   0  0  0  0  0  2  0  0  0  0  0  0
  180.1890  173.7610  136.3850 N   0  0  0  0  0  0  0  0  0  0  0  0
  180.5040  178.8940  135.8820 C   0  0  0  0  0  0  0  0  0  0  0  0
  179.3030  179.0780  135.8320 O   0  0  0  0  0  1  0  0  0  0  0  0
  181.3470  179.9440  135.5620 O   0  0  0  0  0  0  0  0  0  0  0  0
  181.4060  178.8660  139.3350 C   0  0  2  0  0  3  0  0  0  0  0  0
  181.3370  180.0480  140.0890 O   0  0  0  0  0  1  0  0  0  0  0  0
  181.2480  177.6120  140.2240 C   0  0  0  0  0  2  0  0  0  0  0  0
  179.7880  177.4130  140.4910 N   0  0  0  0  0  0  0  0  0  0  0  0
  179.6260  175.9650  140.5780 C   0  0  0  0  0  2  0  0  0  0  0  0
  180.7880  175.3680  139.8510 C   0  0  0  0  0  1  0  0  0  0  0  0
  179.1620  178.2770  141.4660 C   0  0  0  0  0  2  0  0  0  0  0  0
  179.6800  178.1050  142.9010 C   0  0  0  0  0  1  0  0  0  0  0  0
  1  3  2  0  0  0  0
  1  2  2  0  0  0  0
  2 34  1  0  0  0  0
  5  3  1  0  0  0  0
  5  4  2  0  0  0  0
  6  5  1  0  0  0  0
  7  9  1  0  0  0  0
  8 10  1  0  0  0  0
  8 11  1  0  0  0  0
  9 14  1  0  0  0  0
  9  6  1  1  0  0  0
 10  7  1  0  0  0  0
 11  9  1  0  0  0  0
 13 14  1  0  0  0  0
 13 12  1  1  0  0  0
 14 12  1  0  0  0  0
 14 27  1  1  0  0  0
 15 17  1  0  0  0  0
 17 18  2  0  0  0  0
 17 24  1  0  0  0  0
 18 21  1  0  0  0  0
 19 15  2  0  0  0  0
 19 23  1  0  0  0  0
 20 25  1  0  0  0  0
 20 13  1  1  0  0  0
 21 25  1  0  0  0  0
 22 24  1  0  0  0  0
 22 20  1  0  0  0  0
 22 25  1  0  0  0  0
 23 18  1  0  0  0  0
 24 25  1  0  0  0  0
 24 16  1  0  0  0  0
 26 27  2  0  0  0  0
 27 28  1  0  0  0  0
 28 30  1  0  0  0  0
 30 33  1  0  0  0  0
 31 32  1  0  0  0  0
 31 29  1  0  0  0  0
 32 29  1  0  0  0  0
 33 31  1  0  0  0  0
 34 35  1  0  0  0  0
 35 37  1  0  0  0  0
 37 36  1  0  0  0  0
 37 38  1  0  0  0  0
 37 39  1  0  0  0  0
 39 40  1  0  0  0  0
 41  2  1  0  0  0  0
 42 41  1  0  0  0  0
 42 60  1  0  0  0  0
 43 44  1  0  0  0  0
 45 44  1  0  0  0  0
 45 42  1  0  0  0  0
 46 48  1  0  0  0  0
 46 53  1  0  0  0  0
 46 47  1  0  0  0  0
 47 45  1  0  0  0  0
 48 44  1  0  0  0  0
 51 56  1  0  0  0  0
 51 54  1  0  0  0  0
 52 50  1  0  0  0  0
 53 56  1  0  0  0  0
 53 49  2  0  0  0  0
 54 50  1  0  0  0  0
 55 50  1  0  0  0  0
 56 55  1  0  0  0  0
 57 47  1  0  0  0  0
 58 57  1  0  0  0  0
 59 57  2  0  0  0  0
 60 61  1  0  0  0  0
 60 62  1  0  0  0  0
 62 63  1  0  0  0  0
 63 64  1  0  0  0  0
 63 66  1  0  0  0  0
 65 64  1  0  0  0  0
 66 67  1  0  0  0  0
M  END
>  <MODEL>
2

>  <REMARK>
 VINA RESULT:      -6.4      3.050      6.412
  Name = 
  22 active torsions:
  status: ('A' for Active; 'I' for Inactive)
    1  A    between atoms: C_1  and  N_54
    2  A    between atoms: C_10  and  O_36
    3  A    between atoms: C_11  and  C_16
    4  A    between atoms: C_11  and  N_54
    5  A    between atoms: O_12  and  C_20
    6  A    between atoms: O_12  and  C_30
    7  A    between atoms: C_16  and  C_23
    8  A    between atoms: C_20  and  C_61
    9  A    between atoms: C_23  and  C_40
   10  A    between atoms: C_23  and  C_62
   11  A    between atoms: C_25  and  C_39
   12  A    between atoms: C_27  and  N_54
   13  A    between atoms: C_30  and  C_60
   14  A    between atoms: C_34  and  C_43
   15  A    between atoms: C_35  and  O_48
   16  A    between atoms: C_35  and  C_62
   17  A    between atoms: O_36  and  C_64
   18  A    between atoms: C_38  and  C_51
   19  A    between atoms: C_39  and  O_56
   20  A    between atoms: C_45  and  C_46
   21  A    between atoms: O_48  and  O_56
   22  A    between atoms: C_61  and  C_64
                            x       y       z     vdW  Elec       q    Type
                         _______ _______ _______ _____ _____    ______ ____

>  <TORSDO>
F 22

$$$$
=
 OpenBabel11062416113D

 67 75  0  0  1  0  0  0  0  0999 V2000
  189.8030  177.2780  138.5820 C   0  0  0  0  0  0  0  0  0  0  0  0
  190.6030  176.3070  138.8470 C   0  0  0  0  0  0  0  0  0  0  0  0
  189.1510  178.3170  138.5710 C   0  0  0  0  0  3  0  0  0  0  0  0
  187.0720  177.4670  138.4000 O   0  0  0  0  0  0  0  0  0  0  0  0
  187.8320  178.4420  138.8260 C   0  0  0  0  0  0  0  0  0  0  0  0
  187.7600  179.0150  140.1390 O   0  0  0  0  0  0  0  0  0  0  0  0
  187.6070  179.2050  142.3310 O   0  0  0  0  0  0  0  0  0  0  0  0
  187.5560  177.0230  142.9140 C   0  0  0  0  0  2  0  0  0  0  0  0
  187.0200  178.5330  141.2520 C   0  0  2  0  0  0  0  0  0  0  0  0
  188.0000  178.2970  143.2500 O   0  0  0  0  0  0  0  0  0  0  0  0
  187.5060  177.0650  141.4440 C   0  0  0  0  0  2  0  0  0  0  0  0
  184.8990  179.8300  140.6500 O   0  0  0  0  0  0  0  0  0  0  0  0
  184.6210  178.6730  139.9730 C   0  0  1  0  0  3  0  0  0  0  0  0
  185.3970  178.7200  141.3040 C   0  0  1  0  0  0  0  0  0  0  0  0
  180.1740  175.5550  137.2290 N   0  0  0  0  0  0  0  0  0  0  0  0
  182.3390  177.8770  137.3530 F   0  0  0  0  0  0  0  0  0  0  0  0
  180.8970  176.0920  138.3210 C   0  0  0  0  0  0  0  0  0  0  0  0
  180.2480  176.0490  139.4430 C   0  0  0  0  0  0  0  0  0  0  0  0
  178.9310  175.0550  137.8100 C   0  0  0  0  0  3  0  0  0  0  0  0
  183.5620  177.5750  140.3170 C   0  0  2  0  0  3  0  0  0  0  0  0
  181.0330  176.8290  140.4690 C   0  0  0  0  0  2  0  0  0  0  0  0
  183.2640  176.4930  139.2720 C   0  0  2  0  0  3  0  0  0  0  0  0
  178.9740  175.4330  139.2030 O   0  0  0  0  0  0  0  0  0  0  0  0
  182.1090  176.8800  138.3120 C   0  0  1  0  0  0  0  0  0  0  0  0
  182.1780  177.5620  139.6300 C   0  0  2  0  0  0  0  0  0  0  0  0
  183.3600  179.0260  143.0070 O   0  0  0  0  0  0  0  0  0  0  0  0
  184.7310  179.1230  142.7510 C   0  0  0  0  0  0  0  0  0  0  0  0
  185.3770  178.6200  143.9030 O   0  0  0  0  0  0  0  0  0  0  0  0
  187.6130  178.2090  148.1610 C   0  0  0  0  0  2  0  0  0  0  0  0
  184.9920  178.8140  145.2090 C   0  0  0  0  0  2  0  0  0  0  0  0
  187.0090  178.0890  146.8070 C   0  0  0  0  0  3  0  0  0  0  0  0
  188.2350  177.2650  147.2200 C   0  0  0  0  0  2  0  0  0  0  0  0
  185.9800  178.4830  146.0370 C   0  0  0  0  0  2  0  0  0  0  0  0
  191.3230  176.5030  140.0490 O   0  0  0  0  0  0  0  0  0  0  0  0
  190.7490  176.3440  141.2260 O   0  0  0  0  0  0  0  0  0  0  0  0
  191.0740  178.2650  142.2520 O   0  0  0  0  0  1  0  0  0  0  0  0
  191.4190  176.9240  142.3060 C   0  0  2  0  0  0  0  0  0  0  0  0
  192.7690  177.1110  142.1020 F   0  0  0  0  0  0  0  0  0  0  0  0
  191.1860  176.3830  143.8010 C   0  0  0  0  0  2  0  0  0  0  0  0
  191.9850  175.2600  143.9980 O   0  0  0  0  0  1  0  0  0  0  0  0
  190.6720  175.0680  138.0290 C   0  0  0  0  0  2  0  0  0  0  0  0
  190.8290  175.2770  136.4450 C   0  0  2  0  0  3  0  0  0  0  0  0
  190.4130  172.4640  134.6090 N   0  0  0  0  0  1  0  0  0  0  0  0
  189.4650  173.2190  135.4350 C   0  0  1  0  0  3  0  0  0  0  0  0
  189.7540  174.7140  135.3970 C   0  0  1  0  0  3  0  0  0  0  0  0
  187.3650  174.1600  135.3000 C   0  0  1  0  0  3  0  0  0  0  0  0
  188.3540  175.2580  135.7180 C   0  0  2  0  0  3  0  0  0  0  0  0
  188.1570  172.9910  134.8720 N   0  0  0  0  0  2  0  0  0  0  0  0
  186.3490  174.3400  137.4800 O   0  0  0  0  0  0  0  0  0  0  0  0
  183.5680  171.0690  136.5950 C   0  0  1  0  0  3  0  0  0  0  0  0
  184.8460  172.1880  134.8310 C   0  0  0  0  0  2  0  0  0  0  0  0
  182.1900  171.2840  136.6620 O   0  0  0  0  0  1  0  0  0  0  0  0
  186.2720  173.7490  136.3300 C   0  0  0  0  0  0  0  0  0  0  0  0
  184.0190  170.9280  135.1290 C   0  0  0  0  0  2  0  0  0  0  0  0
  184.2700  172.3050  137.1700 C   0  0  0  0  0  2  0  0  0  0  0  0
  185.1470  172.8220  136.1450 N   0  0  0  0  0  0  0  0  0  0  0  0
  188.2270  176.7160  135.2180 C   0  0  0  0  0  0  0  0  0  0  0  0
  189.1510  177.2950  134.6800 O   0  0  0  0  0  0  0  0  0  0  0  0
  186.9640  177.2770  135.1460 O   0  0  0  0  0  1  0  0  0  0  0  0
  192.1170  176.0700  136.0060 C   0  0  2  0  0  3  0  0  0  0  0  0
  192.2520  176.2450  134.6190 O   0  0  0  0  0  1  0  0  0  0  0  0
  193.4320  175.5780  136.6500 C   0  0  0  0  0  2  0  0  0  0  0  0
  194.2800  174.9760  135.5710 N   0  0  0  0  0  0  0  0  0  0  0  0
  195.6010  175.5620  135.7750 C   0  0  0  0  0  2  0  0  0  0  0  0
  195.6500  176.7950  134.9300 C   0  0  0  0  0  1  0  0  0  0  0  0
  194.1410  173.5590  135.3240 C   0  0  0  0  0  2  0  0  0  0  0  0
  193.5750  172.7550  136.5030 C   0  0  0  0  0  1  0  0  0  0  0  0
  1  2  2  0  0  0  0
  2 34  1  0  0  0  0
  3  1  2  0  0  0  0
  3  5  1  0  0  0  0
  4  5  2  0  0  0  0
  5  6  1  0  0  0  0
  7 10  1  0  0  0  0
  8 10  1  0  0  0  0
  9  6  1  6  0  0  0
  9 14  1  0  0  0  0
  9 11  1  0  0  0  0
  9  7  1  0  0  0  0
 11  8  1  0  0  0  0
 12 14  1  0  0  0  0
 13 12  1  1  0  0  0
 13 14  1  0  0  0  0
 14 27  1  1  0  0  0
 15 19  2  0  0  0  0
 15 17  1  0  0  0  0
 16 24  1  0  0  0  0
 17 18  2  0  0  0  0
 18 21  1  0  0  0  0
 19 23  1  0  0  0  0
 20 13  1  6  0  0  0
 22 25  1  0  0  0  0
 22 20  1  0  0  0  0
 23 18  1  0  0  0  0
 24 17  1  0  0  0  0
 24 22  1  0  0  0  0
 24 25  1  0  0  0  0
 25 20  1  0  0  0  0
 25 21  1  0  0  0  0
 27 26  2  0  0  0  0
 27 28  1  0  0  0  0
 28 30  1  0  0  0  0
 30 33  1  0  0  0  0
 31 32  1  0  0  0  0
 31 29  1  0  0  0  0
 32 29  1  0  0  0  0
 33 31  1  0  0  0  0
 34 35  1  0  0  0  0
 35 37  1  0  0  0  0
 36 37  1  0  0  0  0
 37 39  1  0  0  0  0
 38 37  1  0  0  0  0
 39 40  1  0  0  0  0
 41  2  1  0  0  0  0
 42 41  1  0  0  0  0
 43 44  1  0  0  0  0
 45 44  1  0  0  0  0
 45 47  1  0  0  0  0
 45 42  1  0  0  0  0
 46 47  1  0  0  0  0
 46 53  1  0  0  0  0
 48 46  1  0  0  0  0
 48 44  1  0  0  0  0
 50 52  1  0  0  0  0
 50 55  1  0  0  0  0
 51 54  1  0  0  0  0
 51 56  1  0  0  0  0
 53 49  2  0  0  0  0
 54 50  1  0  0  0  0
 56 53  1  0  0  0  0
 56 55  1  0  0  0  0
 57 47  1  0  0  0  0
 58 57  2  0  0  0  0
 59 57  1  0  0  0  0
 60 42  1  0  0  0  0
 60 62  1  0  0  0  0
 61 60  1  0  0  0  0
 63 64  1  0  0  0  0
 63 62  1  0  0  0  0
 65 64  1  0  0  0  0
 66 63  1  0  0  0  0
 66 67  1  0  0  0  0
M  END
>  <MODEL>
3

>  <REMARK>
 VINA RESULT:      -6.3      2.934      9.874
  Name = 
  22 active torsions:
  status: ('A' for Active; 'I' for Inactive)
    1  A    between atoms: C_1  and  N_54
    2  A    between atoms: C_10  and  O_36
    3  A    between atoms: C_11  and  C_16
    4  A    between atoms: C_11  and  N_54
    5  A    between atoms: O_12  and  C_20
    6  A    between atoms: O_12  and  C_30
    7  A    between atoms: C_16  and  C_23
    8  A    between atoms: C_20  and  C_61
    9  A    between atoms: C_23  and  C_40
   10  A    between atoms: C_23  and  C_62
   11  A    between atoms: C_25  and  C_39
   12  A    between atoms: C_27  and  N_54
   13  A    between atoms: C_30  and  C_60
   14  A    between atoms: C_34  and  C_43
   15  A    between atoms: C_35  and  O_48
   16  A    between atoms: C_35  and  C_62
   17  A    between atoms: O_36  and  C_64
   18  A    between atoms: C_38  and  C_51
   19  A    between atoms: C_39  and  O_56
   20  A    between atoms: C_45  and  C_46
   21  A    between atoms: O_48  and  O_56
   22  A    between atoms: C_61  and  C_64
                            x       y       z     vdW  Elec       q    Type
                         _______ _______ _______ _____ _____    ______ ____

>  <TORSDO>
F 22

$$$$
=
 OpenBabel11062416113D

 67 75  0  0  1  0  0  0  0  0999 V2000
  189.9330  177.5190  139.2440 C   0  0  0  0  0  0  0  0  0  0  0  0
  190.9010  176.6980  139.4490 C   0  0  0  0  0  0  0  0  0  0  0  0
  189.1550  178.4680  139.2370 C   0  0  0  0  0  3  0  0  0  0  0  0
  187.0370  177.7020  139.2410 O   0  0  0  0  0  0  0  0  0  0  0  0
  187.9210  178.4990  139.7810 C   0  0  0  0  0  0  0  0  0  0  0  0
  188.1400  178.6330  141.1920 O   0  0  0  0  0  0  0  0  0  0  0  0
  187.9280  178.6990  143.3860 O   0  0  0  0  0  0  0  0  0  0  0  0
  187.4750  176.5250  143.8040 C   0  0  0  0  0  2  0  0  0  0  0  0
  187.2810  178.2150  142.2430 C   0  0  2  0  0  0  0  0  0  0  0  0
  188.1180  177.6770  144.2470 O   0  0  0  0  0  0  0  0  0  0  0  0
  187.4960  176.6750  142.3410 C   0  0  0  0  0  2  0  0  0  0  0  0
  185.4680  179.9770  141.8510 O   0  0  0  0  0  0  0  0  0  0  0  0
  185.0600  179.0630  140.9160 C   0  0  1  0  0  3  0  0  0  0  0  0
  185.7140  178.6810  142.2580 C   0  0  1  0  0  0  0  0  0  0  0  0
  180.3860  177.5060  137.3450 N   0  0  0  0  0  0  0  0  0  0  0  0
  182.8960  179.3040  138.0950 F   0  0  0  0  0  0  0  0  0  0  0  0
  181.0990  177.6430  138.5600 C   0  0  0  0  0  0  0  0  0  0  0  0
  180.3620  177.4720  139.6140 C   0  0  0  0  0  0  0  0  0  0  0  0
  179.0330  177.1260  137.7430 C   0  0  0  0  0  3  0  0  0  0  0  0
  183.8060  178.1300  140.9520 C   0  0  2  0  0  3  0  0  0  0  0  0
  181.1830  177.8460  140.8250 C   0  0  0  0  0  2  0  0  0  0  0  0
  183.4150  177.3810  139.6720 C   0  0  2  0  0  3  0  0  0  0  0  0
  179.0270  177.1700  139.1870 O   0  0  0  0  0  0  0  0  0  0  0  0
  182.4230  178.1770  138.7840 C   0  0  1  0  0  0  0  0  0  0  0  0
  182.5000  178.5240  140.2260 C   0  0  2  0  0  0  0  0  0  0  0  0
  184.0890  177.9600  144.2550 O   0  0  0  0  0  0  0  0  0  0  0  0
  185.0010  178.8780  143.7260 C   0  0  0  0  0  0  0  0  0  0  0  0
  185.8510  179.2390  144.7950 O   0  0  0  0  0  0  0  0  0  0  0  0
  188.1250  177.8860  148.8330 C   0  0  0  0  0  2  0  0  0  0  0  0
  185.5240  179.2600  146.1310 C   0  0  0  0  0  2  0  0  0  0  0  0
  187.4780  178.0580  147.5050 C   0  0  0  0  0  3  0  0  0  0  0  0
  188.6060  177.0420  147.7280 C   0  0  0  0  0  2  0  0  0  0  0  0
  186.4850  178.6870  146.8530 C   0  0  0  0  0  2  0  0  0  0  0  0
  191.8340  177.1760  140.3990 O   0  0  0  0  0  0  0  0  0  0  0  0
  191.4680  177.9980  141.3650 O   0  0  0  0  0  0  0  0  0  0  0  0
  192.5330  176.6730  142.7660 O   0  0  0  0  0  1  0  0  0  0  0  0
  191.3770  177.4290  142.6370 C   0  0  2  0  0  0  0  0  0  0  0  0
  190.4990  176.3700  142.7240 F   0  0  0  0  0  0  0  0  0  0  0  0
  191.2110  178.3550  143.9390 C   0  0  0  0  0  2  0  0  0  0  0  0
  191.8180  177.7200  145.0190 O   0  0  0  0  0  1  0  0  0  0  0  0
  190.9610  175.3470  138.8310 C   0  0  0  0  0  2  0  0  0  0  0  0
  191.9020  175.2060  137.5370 C   0  0  2  0  0  3  0  0  0  0  0  0
  192.4230  172.5490  135.5050 N   0  0  0  0  0  1  0  0  0  0  0  0
  191.1790  173.1820  135.9570 C   0  0  1  0  0  3  0  0  0  0  0  0
  191.3430  174.6860  136.1260 C   0  0  1  0  0  3  0  0  0  0  0  0
  189.2140  174.0290  135.0980 C   0  0  1  0  0  3  0  0  0  0  0  0
  189.8860  175.1310  135.9280 C   0  0  2  0  0  3  0  0  0  0  0  0
  190.1970  172.9410  134.9280 N   0  0  0  0  0  2  0  0  0  0  0  0
  187.8360  172.2060  135.8710 O   0  0  0  0  0  0  0  0  0  0  0  0
  184.2720  174.7570  135.9290 C   0  0  1  0  0  3  0  0  0  0  0  0
  186.5270  175.6960  135.7710 C   0  0  0  0  0  2  0  0  0  0  0  0
  183.5550  174.9310  137.1140 O   0  0  0  0  0  1  0  0  0  0  0  0
  187.8520  173.4750  135.6100 C   0  0  0  0  0  0  0  0  0  0  0  0
  185.0430  176.0410  135.5730 C   0  0  0  0  0  2  0  0  0  0  0  0
  185.3090  173.6510  136.1600 C   0  0  0  0  0  2  0  0  0  0  0  0
  186.6100  174.2130  135.8800 N   0  0  0  0  0  0  0  0  0  0  0  0
  189.8420  176.6210  135.5110 C   0  0  0  0  0  0  0  0  0  0  0  0
  189.1790  177.4390  136.1180 O   0  0  0  0  0  1  0  0  0  0  0  0
  190.7770  177.0730  134.5960 O   0  0  0  0  0  0  0  0  0  0  0  0
  193.4070  175.6110  137.7640 C   0  0  2  0  0  3  0  0  0  0  0  0
  193.8190  176.7520  137.0560 O   0  0  0  0  0  1  0  0  0  0  0  0
  194.4190  174.4540  137.6210 C   0  0  0  0  0  2  0  0  0  0  0  0
  195.7290  175.0340  137.1810 N   0  0  0  0  0  0  0  0  0  0  0  0
  196.7140  174.4280  138.0700 C   0  0  0  0  0  2  0  0  0  0  0  0
  196.1160  174.4510  139.4400 C   0  0  0  0  0  1  0  0  0  0  0  0
  195.9800  175.1150  135.7600 C   0  0  0  0  0  2  0  0  0  0  0  0
  197.1660  176.0080  135.3680 C   0  0  0  0  0  1  0  0  0  0  0  0
  1  2  2  0  0  0  0
  2 34  1  0  0  0  0
  3  1  2  0  0  0  0
  3  5  1  0  0  0  0
  4  5  2  0  0  0  0
  5  6  1  0  0  0  0
  7 10  1  0  0  0  0
  8 10  1  0  0  0  0
  9  6  1  6  0  0  0
  9 14  1  0  0  0  0
  9 11  1  0  0  0  0
  9  7  1  0  0  0  0
 11  8  1  0  0  0  0
 12 14  1  0  0  0  0
 13 12  1  1  0  0  0
 13 14  1  0  0  0  0
 14 27  1  1  0  0  0
 15 19  2  0  0  0  0
 15 17  1  0  0  0  0
 16 24  1  0  0  0  0
 17 24  1  0  0  0  0
 17 18  2  0  0  0  0
 18 21  1  0  0  0  0
 19 23  1  0  0  0  0
 20 13  1  6  0  0  0
 22 25  1  0  0  0  0
 22 20  1  0  0  0  0
 23 18  1  0  0  0  0
 24 22  1  0  0  0  0
 24 25  1  0  0  0  0
 25 21  1  0  0  0  0
 25 20  1  0  0  0  0
 27 26  2  0  0  0  0
 27 28  1  0  0  0  0
 28 30  1  0  0  0  0
 30 33  1  0  0  0  0
 31 32  1  0  0  0  0
 31 29  1  0  0  0  0
 32 29  1  0  0  0  0
 33 31  1  0  0  0  0
 34 35  1  0  0  0  0
 35 37  1  0  0  0  0
 37 38  1  0  0  0  0
 37 36  1  0  0  0  0
 37 39  1  0  0  0  0
 39 40  1  0  0  0  0
 41  2  1  0  0  0  0
 42 60  1  0  0  0  0
 42 41  1  0  0  0  0
 43 44  1  0  0  0  0
 44 45  1  0  0  0  0
 45 42  1  0  0  0  0
 46 53  1  0  0  0  0
 46 47  1  0  0  0  0
 47 45  1  0  0  0  0
 48 46  1  0  0  0  0
 48 44  1  0  0  0  0
 50 55  1  0  0  0  0
 50 52  1  0  0  0  0
 51 56  1  0  0  0  0
 53 49  2  0  0  0  0
 53 56  1  0  0  0  0
 54 51  1  0  0  0  0
 54 50  1  0  0  0  0
 56 55  1  0  0  0  0
 57 47  1  0  0  0  0
 57 58  1  0  0  0  0
 59 57  2  0  0  0  0
 61 60  1  0  0  0  0
 62 60  1  0  0  0  0
 63 62  1  0  0  0  0
 63 64  1  0  0  0  0
 64 65  1  0  0  0  0
 66 63  1  0  0  0  0
 67 66  1  0  0  0  0
M  END
>  <MODEL>
4

>  <REMARK>
 VINA RESULT:      -6.1      2.739      9.990
  Name = 
  22 active torsions:
  status: ('A' for Active; 'I' for Inactive)
    1  A    between atoms: C_1  and  N_54
    2  A    between atoms: C_10  and  O_36
    3  A    between atoms: C_11  and  C_16
    4  A    between atoms: C_11  and  N_54
    5  A    between atoms: O_12  and  C_20
    6  A    between atoms: O_12  and  C_30
    7  A    between atoms: C_16  and  C_23
    8  A    between atoms: C_20  and  C_61
    9  A    between atoms: C_23  and  C_40
   10  A    between atoms: C_23  and  C_62
   11  A    between atoms: C_25  and  C_39
   12  A    between atoms: C_27  and  N_54
   13  A    between atoms: C_30  and  C_60
   14  A    between atoms: C_34  and  C_43
   15  A    between atoms: C_35  and  O_48
   16  A    between atoms: C_35  and  C_62
   17  A    between atoms: O_36  and  C_64
   18  A    between atoms: C_38  and  C_51
   19  A    between atoms: C_39  and  O_56
   20  A    between atoms: C_45  and  C_46
   21  A    between atoms: O_48  and  O_56
   22  A    between atoms: C_61  and  C_64
                            x       y       z     vdW  Elec       q    Type
                         _______ _______ _______ _____ _____    ______ ____

>  <TORSDO>
F 22

$$$$
=
 OpenBabel11062416113D

 67 75  0  0  1  0  0  0  0  0999 V2000
  182.1670  178.6770  141.3950 C   0  0  0  0  0  0  0  0  0  0  0  0
  181.8120  179.1420  140.2500 C   0  0  0  0  0  0  0  0  0  0  0  0
  182.2490  178.3410  142.5720 C   0  0  0  0  0  3  0  0  0  0  0  0
  182.4740  179.3330  144.5820 O   0  0  0  0  0  0  0  0  0  0  0  0
  183.0610  178.8760  143.5060 C   0  0  0  0  0  0  0  0  0  0  0  0
  184.2260  178.0390  143.5100 O   0  0  0  0  0  0  0  0  0  0  0  0
  185.5260  179.6990  142.8650 O   0  0  0  0  0  0  0  0  0  0  0  0
  186.0300  179.0150  140.7720 C   0  0  0  0  0  2  0  0  0  0  0  0
  185.4800  178.3010  142.8980 C   0  0  2  0  0  0  0  0  0  0  0  0
  185.7540  180.1010  141.5970 O   0  0  0  0  0  0  0  0  0  0  0  0
  185.2750  177.9200  141.4000 C   0  0  0  0  0  2  0  0  0  0  0  0
  186.8280  176.3920  143.9390 O   0  0  0  0  0  0  0  0  0  0  0  0
  187.5930  176.5860  142.8200 C   0  0  1  0  0  3  0  0  0  0  0  0
  186.8570  177.7200  143.5600 C   0  0  1  0  0  0  0  0  0  0  0  0
  192.0410  177.2370  138.7190 N   0  0  0  0  0  0  0  0  0  0  0  0
  189.2970  176.0070  139.7430 F   0  0  0  0  0  0  0  0  0  0  0  0
  191.4650  177.2030  140.0120 C   0  0  0  0  0  0  0  0  0  0  0  0
  192.3410  177.1560  140.9670 C   0  0  0  0  0  0  0  0  0  0  0  0
  193.4820  177.2870  138.9510 C   0  0  0  0  0  3  0  0  0  0  0  0
  189.0210  177.2150  142.7150 C   0  0  2  0  0  3  0  0  0  0  0  0
  191.6060  176.9150  142.2640 C   0  0  0  0  0  2  0  0  0  0  0  0
  189.4170  177.9190  141.4120 C   0  0  2  0  0  3  0  0  0  0  0  0
  193.6500  177.1740  140.3810 O   0  0  0  0  0  0  0  0  0  0  0  0
  190.0900  176.9660  140.3900 C   0  0  1  0  0  0  0  0  0  0  0  0
  190.1080  176.5760  141.8230 C   0  0  2  0  0  0  0  0  0  0  0  0
  186.3150  178.4850  146.0630 O   0  0  0  0  0  0  0  0  0  0  0  0
  187.2600  178.2640  145.0580 C   0  0  0  0  0  0  0  0  0  0  0  0
  188.3530  177.6270  145.6860 O   0  0  0  0  0  0  0  0  0  0  0  0
  192.3300  176.2760  148.0640 C   0  0  0  0  0  2  0  0  0  0  0  0
  188.8810  177.9320  146.9190 C   0  0  0  0  0  2  0  0  0  0  0  0
  191.0610  176.4330  147.3040 C   0  0  0  0  0  3  0  0  0  0  0  0
  191.9370  175.1810  147.1630 C   0  0  0  0  0  2  0  0  0  0  0  0
  189.9830  177.2180  147.1400 C   0  0  0  0  0  2  0  0  0  0  0  0
  180.5640  179.8070  140.2910 O   0  0  0  0  0  0  0  0  0  0  0  0
  180.4890  181.1250  140.2830 O   0  0  0  0  0  0  0  0  0  0  0  0
  178.9750  182.5250  139.5090 O   0  0  0  0  0  1  0  0  0  0  0  0
  180.0050  181.6920  139.1010 C   0  0  2  0  0  0  0  0  0  0  0  0
  179.2210  180.8490  138.3450 F   0  0  0  0  0  0  0  0  0  0  0  0
  180.9850  182.5110  138.1260 C   0  0  0  0  0  2  0  0  0  0  0  0
  180.5650  182.3230  136.8110 O   0  0  0  0  0  1  0  0  0  0  0  0
  182.6810  179.0780  139.0460 C   0  0  0  0  0  2  0  0  0  0  0  0
  182.2330  178.0380  137.9080 C   0  0  2  0  0  3  0  0  0  0  0  0
  179.4060  178.9250  136.2710 N   0  0  0  0  0  1  0  0  0  0  0  0
  180.0490  177.6170  136.4350 C   0  0  1  0  0  3  0  0  0  0  0  0
  180.7300  177.4920  137.7920 C   0  0  1  0  0  3  0  0  0  0  0  0
  179.5370  175.4670  137.0880 C   0  0  1  0  0  3  0  0  0  0  0  0
  180.6980  175.9650  137.9590 C   0  0  2  0  0  3  0  0  0  0  0  0
  179.0000  176.6300  136.3560 N   0  0  0  0  0  2  0  0  0  0  0  0
  178.9310  174.0930  135.2000 O   0  0  0  0  0  0  0  0  0  0  0  0
  182.3000  171.3840  135.9260 C   0  0  1  0  0  3  0  0  0  0  0  0
  182.1670  173.5890  136.9820 C   0  0  0  0  0  2  0  0  0  0  0  0
  183.2570  171.1750  134.9310 O   0  0  0  0  0  1  0  0  0  0  0  0
  179.8240  174.2820  136.1190 C   0  0  0  0  0  0  0  0  0  0  0  0
  182.8880  172.2350  137.0670 C   0  0  0  0  0  2  0  0  0  0  0  0
  181.1430  172.1830  135.3120 C   0  0  0  0  0  2  0  0  0  0  0  0
  180.9940  173.3940  136.0850 N   0  0  0  0  0  0  0  0  0  0  0  0
  180.8230  175.5960  139.4570 C   0  0  0  0  0  0  0  0  0  0  0  0
  179.8540  175.3120  140.1330 O   0  0  0  0  0  1  0  0  0  0  0  0
  182.0840  175.3300  139.9620 O   0  0  0  0  0  0  0  0  0  0  0  0
  183.3830  177.5950  136.9250 C   0  0  2  0  0  3  0  0  0  0  0  0
  182.9620  176.7740  135.8660 O   0  0  0  0  0  1  0  0  0  0  0  0
  184.6460  177.0350  137.6150 C   0  0  0  0  0  2  0  0  0  0  0  0
  185.8130  177.2650  136.7040 N   0  0  0  0  0  0  0  0  0  0  0  0
  186.5690  178.3380  137.3430 C   0  0  0  0  0  2  0  0  0  0  0  0
  188.0120  177.9610  137.2280 C   0  0  0  0  0  1  0  0  0  0  0  0
  186.4940  176.1030  136.1830 C   0  0  0  0  0  2  0  0  0  0  0  0
  186.5620  174.9120  137.1490 C   0  0  0  0  0  1  0  0  0  0  0  0
  1  3  2  0  0  0  0
  2 34  1  0  0  0  0
  2  1  2  0  0  0  0
  3  5  1  0  0  0  0
  5  6  1  0  0  0  0
  5  4  2  0  0  0  0
  7  9  1  0  0  0  0
  8 11  1  0  0  0  0
  8 10  1  0  0  0  0
  9  6  1  1  0  0  0
  9 14  1  0  0  0  0
 10  7  1  0  0  0  0
 11  9  1  0  0  0  0
 13 14  1  0  0  0  0
 13 12  1  1  0  0  0
 14 12  1  0  0  0  0
 14 27  1  1  0  0  0
 15 19  2  0  0  0  0
 15 17  1  0  0  0  0
 16 24  1  0  0  0  0
 17 24  1  0  0  0  0
 17 18  2  0  0  0  0
 18 21  1  0  0  0  0
 19 23  1  0  0  0  0
 20 13  1  6  0  0  0
 22 25  1  0  0  0  0
 22 20  1  0  0  0  0
 23 18  1  0  0  0  0
 24 22  1  0  0  0  0
 24 25  1  0  0  0  0
 25 21  1  0  0  0  0
 25 20  1  0  0  0  0
 27 28  1  0  0  0  0
 27 26  2  0  0  0  0
 28 30  1  0  0  0  0
 30 33  1  0  0  0  0
 31 29  1  0  0  0  0
 32 31  1  0  0  0  0
 32 29  1  0  0  0  0
 33 31  1  0  0  0  0
 35 34  1  0  0  0  0
 37 36  1  0  0  0  0
 37 35  1  0  0  0  0
 38 37  1  0  0  0  0
 39 37  1  0  0  0  0
 40 39  1  0  0  0  0
 41  2  1  0  0  0  0
 42 41  1  0  0  0  0
 43 44  1  0  0  0  0
 44 45  1  0  0  0  0
 45 42  1  0  0  0  0
 45 47  1  0  0  0  0
 46 47  1  0  0  0  0
 47 57  1  0  0  0  0
 48 44  1  0  0  0  0
 48 46  1  0  0  0  0
 49 53  2  0  0  0  0
 50 54  1  0  0  0  0
 51 54  1  0  0  0  0
 52 50  1  0  0  0  0
 53 46  1  0  0  0  0
 55 50  1  0  0  0  0
 55 56  1  0  0  0  0
 56 53  1  0  0  0  0
 56 51  1  0  0  0  0
 57 59  2  0  0  0  0
 57 58  1  0  0  0  0
 60 62  1  0  0  0  0
 60 42  1  0  0  0  0
 61 60  1  0  0  0  0
 63 64  1  0  0  0  0
 63 62  1  0  0  0  0
 65 64  1  0  0  0  0
 66 63  1  0  0  0  0
 66 67  1  0  0  0  0
M  END
>  <MODEL>
5

>  <REMARK>
 VINA RESULT:      -5.6      3.652      9.356
  Name = 
  22 active torsions:
  status: ('A' for Active; 'I' for Inactive)
    1  A    between atoms: C_1  and  N_54
    2  A    between atoms: C_10  and  O_36
    3  A    between atoms: C_11  and  C_16
    4  A    between atoms: C_11  and  N_54
    5  A    between atoms: O_12  and  C_20
    6  A    between atoms: O_12  and  C_30
    7  A    between atoms: C_16  and  C_23
    8  A    between atoms: C_20  and  C_61
    9  A    between atoms: C_23  and  C_40
   10  A    between atoms: C_23  and  C_62
   11  A    between atoms: C_25  and  C_39
   12  A    between atoms: C_27  and  N_54
   13  A    between atoms: C_30  and  C_60
   14  A    between atoms: C_34  and  C_43
   15  A    between atoms: C_35  and  O_48
   16  A    between atoms: C_35  and  C_62
   17  A    between atoms: O_36  and  C_64
   18  A    between atoms: C_38  and  C_51
   19  A    between atoms: C_39  and  O_56
   20  A    between atoms: C_45  and  C_46
   21  A    between atoms: O_48  and  O_56
   22  A    between atoms: C_61  and  C_64
                            x       y       z     vdW  Elec       q    Type
                         _______ _______ _______ _____ _____    ______ ____

>  <TORSDO>
F 22

$$$$
=
 OpenBabel11062416113D

 67 75  0  0  1  0  0  0  0  0999 V2000
  186.0780  178.1650  140.2320 C   0  0  0  0  0  0  0  0  0  0  0  0
  184.9240  178.6060  140.5890 C   0  0  0  0  0  0  0  0  0  0  0  0
  187.2750  177.9610  140.0570 C   0  0  0  0  0  3  0  0  0  0  0  0
  187.4060  178.9800  138.0520 O   0  0  0  0  0  0  0  0  0  0  0  0
  187.9730  178.1880  138.9250 C   0  0  0  0  0  0  0  0  0  0  0  0
  189.3410  178.2880  139.3450 O   0  0  0  0  0  0  0  0  0  0  0  0
  189.6060  176.4380  140.5160 O   0  0  0  0  0  0  0  0  0  0  0  0
  191.6960  176.7690  141.3080 C   0  0  0  0  0  2  0  0  0  0  0  0
  190.2580  177.2250  139.5600 C   0  0  2  0  0  0  0  0  0  0  0  0
  190.4280  176.2620  141.5730 O   0  0  0  0  0  0  0  0  0  0  0  0
  191.4250  177.8680  140.3680 C   0  0  0  0  0  2  0  0  0  0  0  0
  191.0620  176.9560  137.1460 O   0  0  0  0  0  0  0  0  0  0  0  0
  192.1740  176.4700  137.7790 C   0  0  1  0  0  3  0  0  0  0  0  0
  190.7380  176.2870  138.3100 C   0  0  1  0  0  0  0  0  0  0  0  0
  197.0150  173.1750  136.1250 N   0  0  0  0  0  0  0  0  0  0  0  0
  195.2520  175.8180  136.1050 F   0  0  0  0  0  0  0  0  0  0  0  0
  195.6750  173.4000  136.5240 C   0  0  0  0  0  0  0  0  0  0  0  0
  194.9060  172.3690  136.3590 C   0  0  0  0  0  0  0  0  0  0  0  0
  197.0570  171.7700  135.7250 C   0  0  0  0  0  3  0  0  0  0  0  0
  192.6800  174.9920  137.8570 C   0  0  2  0  0  3  0  0  0  0  0  0
  193.4830  172.8000  136.6220 C   0  0  0  0  0  2  0  0  0  0  0  0
  194.1670  174.7410  138.1350 C   0  0  2  0  0  3  0  0  0  0  0  0
  195.6960  171.2970  135.8260 O   0  0  0  0  0  0  0  0  0  0  0  0
  195.0170  174.6470  136.8400 C   0  0  1  0  0  0  0  0  0  0  0  0
  193.5570  174.3910  136.7360 C   0  0  2  0  0  0  0  0  0  0  0  0
  188.9980  175.6730  136.3760 O   0  0  0  0  0  0  0  0  0  0  0  0
  189.5980  175.3430  137.5950 C   0  0  0  0  0  0  0  0  0  0  0  0
  189.8770  173.9610  137.5280 O   0  0  0  0  0  0  0  0  0  0  0  0
  185.3560  172.5740  136.5590 C   0  0  0  0  0  2  0  0  0  0  0  0
  189.3200  173.0530  136.6580 C   0  0  0  0  0  2  0  0  0  0  0  0
  186.6870  172.9470  137.1090 C   0  0  0  0  0  3  0  0  0  0  0  0
  185.4140  173.0130  137.9620 C   0  0  0  0  0  2  0  0  0  0  0  0
  188.0030  172.9860  136.8380 C   0  0  0  0  0  2  0  0  0  0  0  0
  185.0080  179.7510  141.4170 O   0  0  0  0  0  0  0  0  0  0  0  0
  185.6670  179.7240  142.5600 O   0  0  0  0  0  0  0  0  0  0  0  0
  184.8810  180.3540  144.5180 O   0  0  0  0  0  1  0  0  0  0  0  0
  184.9420  179.2650  143.6620 C   0  0  2  0  0  0  0  0  0  0  0  0
  185.6550  178.4490  144.5130 F   0  0  0  0  0  0  0  0  0  0  0  0
  183.4640  178.6630  143.4770 C   0  0  0  0  0  2  0  0  0  0  0  0
  182.5450  179.7070  143.5540 O   0  0  0  0  0  1  0  0  0  0  0  0
  183.6480  178.0330  140.0890 C   0  0  0  0  0  2  0  0  0  0  0  0
  183.1190  178.6070  138.6860 C   0  0  2  0  0  3  0  0  0  0  0  0
  185.2160  176.6230  136.9190 N   0  0  0  0  0  1  0  0  0  0  0  0
  183.8360  176.4040  137.3640 C   0  0  1  0  0  3  0  0  0  0  0  0
  183.0350  177.6990  137.3670 C   0  0  1  0  0  3  0  0  0  0  0  0
  181.7890  175.7620  136.5210 C   0  0  1  0  0  3  0  0  0  0  0  0
  181.6190  177.1290  137.1970 C   0  0  2  0  0  3  0  0  0  0  0  0
  183.2370  175.4970  136.4160 N   0  0  0  0  0  2  0  0  0  0  0  0
  180.9550  173.5010  136.4000 O   0  0  0  0  0  0  0  0  0  0  0  0
  178.9450  173.8980  140.2750 C   0  0  1  0  0  3  0  0  0  0  0  0
  180.6430  175.4990  139.5330 C   0  0  0  0  0  2  0  0  0  0  0  0
  179.2580  173.0260  141.3190 O   0  0  0  0  0  1  0  0  0  0  0  0
  181.0440  174.5500  137.1550 C   0  0  0  0  0  0  0  0  0  0  0  0
  179.5150  175.3010  140.5580 C   0  0  0  0  0  2  0  0  0  0  0  0
  179.6230  173.3790  139.0020 C   0  0  0  0  0  2  0  0  0  0  0  0
  180.4810  174.4310  138.5080 N   0  0  0  0  0  0  0  0  0  0  0  0
  180.6770  178.2180  136.6300 C   0  0  0  0  0  0  0  0  0  0  0  0
  179.5540  178.3870  137.0640 O   0  0  0  0  0  1  0  0  0  0  0  0
  181.2170  179.1830  135.7970 O   0  0  0  0  0  0  0  0  0  0  0  0
  182.6990  180.1250  138.7080 C   0  0  2  0  0  3  0  0  0  0  0  0
  183.7730  181.0300  138.7150 O   0  0  0  0  0  1  0  0  0  0  0  0
  181.6390  180.4890  139.7710 C   0  0  0  0  0  2  0  0  0  0  0  0
  180.3710  180.8480  139.0590 N   0  0  0  0  0  0  0  0  0  0  0  0
  179.3100  180.3460  139.9260 C   0  0  0  0  0  2  0  0  0  0  0  0
  179.8270  179.0810  140.5340 C   0  0  0  0  0  1  0  0  0  0  0  0
  180.2780  182.1710  138.4840 C   0  0  0  0  0  2  0  0  0  0  0  0
  180.4120  182.2180  136.9560 C   0  0  0  0  0  1  0  0  0  0  0  0
  1  2  2  0  0  0  0
  2 34  1  0  0  0  0
  3  1  2  0  0  0  0
  4  5  2  0  0  0  0
  5  6  1  0  0  0  0
  5  3  1  0  0  0  0
  7 10  1  0  0  0  0
  8 10  1  0  0  0  0
  9  6  1  6  0  0  0
  9 11  1  0  0  0  0
  9  7  1  0  0  0  0
 11  8  1  0  0  0  0
 12 14  1  0  0  0  0
 13 12  1  6  0  0  0
 13 14  1  0  0  0  0
 14 27  1  6  0  0  0
 14  9  1  0  0  0  0
 15 17  1  0  0  0  0
 16 24  1  0  0  0  0
 17 24  1  0  0  0  0
 18 17  2  0  0  0  0
 18 21  1  0  0  0  0
 19 23  1  0  0  0  0
 19 15  2  0  0  0  0
 20 13  1  6  0  0  0
 20 22  1  0  0  0  0
 21 25  1  0  0  0  0
 23 18  1  0  0  0  0
 24 22  1  0  0  0  0
 25 24  1  0  0  0  0
 25 20  1  0  0  0  0
 25 22  1  0  0  0  0
 26 27  2  0  0  0  0
 28 27  1  0  0  0  0
 29 31  1  0  0  0  0
 29 32  1  0  0  0  0
 30 33  1  0  0  0  0
 30 28  1  0  0  0  0
 31 32  1  0  0  0  0
 33 31  1  0  0  0  0
 34 35  1  0  0  0  0
 35 37  1  0  0  0  0
 37 38  1  0  0  0  0
 37 36  1  0  0  0  0
 39 40  1  0  0  0  0
 39 37  1  0  0  0  0
 41  2  1  0  0  0  0
 42 60  1  0  0  0  0
 42 41  1  0  0  0  0
 43 44  1  0  0  0  0
 44 45  1  0  0  0  0
 45 42  1  0  0  0  0
 46 53  1  0  0  0  0
 46 47  1  0  0  0  0
 47 45  1  0  0  0  0
 48 46  1  0  0  0  0
 48 44  1  0  0  0  0
 49 53  2  0  0  0  0
 50 54  1  0  0  0  0
 50 52  1  0  0  0  0
 51 54  1  0  0  0  0
 53 56  1  0  0  0  0
 55 50  1  0  0  0  0
 56 55  1  0  0  0  0
 56 51  1  0  0  0  0
 57 58  1  0  0  0  0
 57 47  1  0  0  0  0
 59 57  2  0  0  0  0
 60 61  1  0  0  0  0
 60 62  1  0  0  0  0
 63 62  1  0  0  0  0
 63 64  1  0  0  0  0
 64 65  1  0  0  0  0
 66 63  1  0  0  0  0
 67 66  1  0  0  0  0
M  END
>  <MODEL>
6

>  <REMARK>
 VINA RESULT:      -5.4      2.963      5.945
  Name = 
  22 active torsions:
  status: ('A' for Active; 'I' for Inactive)
    1  A    between atoms: C_1  and  N_54
    2  A    between atoms: C_10  and  O_36
    3  A    between atoms: C_11  and  C_16
    4  A    between atoms: C_11  and  N_54
    5  A    between atoms: O_12  and  C_20
    6  A    between atoms: O_12  and  C_30
    7  A    between atoms: C_16  and  C_23
    8  A    between atoms: C_20  and  C_61
    9  A    between atoms: C_23  and  C_40
   10  A    between atoms: C_23  and  C_62
   11  A    between atoms: C_25  and  C_39
   12  A    between atoms: C_27  and  N_54
   13  A    between atoms: C_30  and  C_60
   14  A    between atoms: C_34  and  C_43
   15  A    between atoms: C_35  and  O_48
   16  A    between atoms: C_35  and  C_62
   17  A    between atoms: O_36  and  C_64
   18  A    between atoms: C_38  and  C_51
   19  A    between atoms: C_39  and  O_56
   20  A    between atoms: C_45  and  C_46
   21  A    between atoms: O_48  and  O_56
   22  A    between atoms: C_61  and  C_64
                            x       y       z     vdW  Elec       q    Type
                         _______ _______ _______ _____ _____    ______ ____

>  <TORSDO>
F 22

$$$$
=
 OpenBabel11062416113D

 67 75  0  0  1  0  0  0  0  0999 V2000
  186.7500  178.3630  141.8700 C   0  0  0  0  0  0  0  0  0  0  0  0
  187.0160  177.6750  142.9240 C   0  0  0  0  0  0  0  0  0  0  0  0
  186.2880  179.1290  141.0320 C   0  0  0  0  0  3  0  0  0  0  0  0
  186.2700  178.4170  138.8950 O   0  0  0  0  0  0  0  0  0  0  0  0
  185.5750  178.7900  139.9380 C   0  0  0  0  0  0  0  0  0  0  0  0
  184.4290  178.0900  140.4430 O   0  0  0  0  0  0  0  0  0  0  0  0
  182.9340  179.4200  139.5180 O   0  0  0  0  0  0  0  0  0  0  0  0
  181.1160  178.8870  140.7480 C   0  0  0  0  0  2  0  0  0  0  0  0
  183.1140  178.0890  139.9090 C   0  0  2  0  0  0  0  0  0  0  0  0
  181.8110  179.9000  140.0950 O   0  0  0  0  0  0  0  0  0  0  0  0
  182.1830  177.9580  141.1530 C   0  0  0  0  0  2  0  0  0  0  0  0
  183.1390  177.5080  137.4180 O   0  0  0  0  0  0  0  0  0  0  0  0
  183.8820  176.4530  137.8740 C   0  0  1  0  0  3  0  0  0  0  0  0
  182.7290  177.0940  138.6700 C   0  0  1  0  0  0  0  0  0  0  0  0
  184.9560  171.1980  134.9990 N   0  0  0  0  0  0  0  0  0  0  0  0
  185.1070  174.3610  135.2610 F   0  0  0  0  0  0  0  0  0  0  0  0
  184.2590  172.0930  135.8460 C   0  0  0  0  0  0  0  0  0  0  0  0
  183.0630  171.6930  136.1500 C   0  0  0  0  0  0  0  0  0  0  0  0
  184.0560  170.0600  134.8330 C   0  0  0  0  0  3  0  0  0  0  0  0
  183.4740  174.9460  137.9740 C   0  0  2  0  0  3  0  0  0  0  0  0
  182.3630  172.8180  136.8730 C   0  0  0  0  0  2  0  0  0  0  0  0
  184.5380  173.8790  137.6900 C   0  0  2  0  0  3  0  0  0  0  0  0
  182.8390  170.4230  135.5220 O   0  0  0  0  0  0  0  0  0  0  0  0
  184.5870  173.4560  136.1980 C   0  0  1  0  0  0  0  0  0  0  0  0
  183.3360  174.0740  136.7060 C   0  0  2  0  0  0  0  0  0  0  0  0
  180.2190  176.2240  138.9680 O   0  0  0  0  0  0  0  0  0  0  0  0
  181.1430  176.9900  138.2510 C   0  0  0  0  0  0  0  0  0  0  0  0
  180.4900  178.2070  137.9530 O   0  0  0  0  0  0  0  0  0  0  0  0
  180.6840  182.3610  135.5020 C   0  0  0  0  0  2  0  0  0  0  0  0
  180.0360  178.6130  136.7200 C   0  0  0  0  0  2  0  0  0  0  0  0
  180.5230  181.2280  136.4530 C   0  0  0  0  0  3  0  0  0  0  0  0
  180.6950  182.6720  136.9400 C   0  0  0  0  0  2  0  0  0  0  0  0
  180.2800  179.9090  136.5400 C   0  0  0  0  0  2  0  0  0  0  0  0
  186.1240  177.9390  143.9900 O   0  0  0  0  0  0  0  0  0  0  0  0
  184.8180  177.9640  143.8000 O   0  0  0  0  0  0  0  0  0  0  0  0
  182.7970  178.6350  144.3620 O   0  0  0  0  0  1  0  0  0  0  0  0
  184.1340  178.9910  144.4550 C   0  0  2  0  0  0  0  0  0  0  0  0
  184.0270  180.1560  143.7280 F   0  0  0  0  0  0  0  0  0  0  0  0
  184.4730  179.3550  145.9830 C   0  0  0  0  0  2  0  0  0  0  0  0
  184.1840  178.2500  146.7800 O   0  0  0  0  0  1  0  0  0  0  0  0
  188.0800  176.6390  142.9670 C   0  0  0  0  0  2  0  0  0  0  0  0
  189.4570  177.0110  142.2300 C   0  0  2  0  0  3  0  0  0  0  0  0
  191.4090  179.7000  142.8750 N   0  0  0  0  0  1  0  0  0  0  0  0
  190.9070  178.6450  143.7610 C   0  0  1  0  0  3  0  0  0  0  0  0
  190.8090  177.3070  143.0410 C   0  0  1  0  0  3  0  0  0  0  0  0
  191.6770  177.1420  145.3300 C   0  0  1  0  0  3  0  0  0  0  0  0
  190.9350  176.3560  144.2410 C   0  0  2  0  0  3  0  0  0  0  0  0
  191.8640  178.5190  144.8330 N   0  0  0  0  0  2  0  0  0  0  0  0
  191.8730  176.8000  147.7100 O   0  0  0  0  0  0  0  0  0  0  0  0
  187.5800  177.4690  148.2890 C   0  0  1  0  0  3  0  0  0  0  0  0
  188.7120  178.0860  146.2070 C   0  0  0  0  0  2  0  0  0  0  0  0
  187.1380  178.4860  149.1370 O   0  0  0  0  0  1  0  0  0  0  0  0
  191.0610  177.1420  146.7600 C   0  0  0  0  0  0  0  0  0  0  0  0
  187.3220  177.8460  146.8180 C   0  0  0  0  0  2  0  0  0  0  0  0
  189.0970  177.3300  148.4650 C   0  0  0  0  0  2  0  0  0  0  0  0
  189.7040  177.5290  147.1690 N   0  0  0  0  0  0  0  0  0  0  0  0
  191.4080  174.9620  143.7610 C   0  0  0  0  0  0  0  0  0  0  0  0
  192.4500  174.4690  144.1470 O   0  0  0  0  0  1  0  0  0  0  0  0
  190.5030  174.1580  143.0910 O   0  0  0  0  0  0  0  0  0  0  0  0
  189.3730  177.0670  140.6580 C   0  0  2  0  0  3  0  0  0  0  0  0
  188.3060  176.3410  140.1040 O   0  0  0  0  0  1  0  0  0  0  0  0
  190.7010  176.7770  139.9260 C   0  0  0  0  0  2  0  0  0  0  0  0
  190.7570  177.6420  138.7040 N   0  0  0  0  0  0  0  0  0  0  0  0
  191.3220  176.7800  137.6710 C   0  0  0  0  0  2  0  0  0  0  0  0
  191.4990  175.4330  138.2970 C   0  0  0  0  0  1  0  0  0  0  0  0
  189.6060  178.4670  138.4160 C   0  0  0  0  0  2  0  0  0  0  0  0
  189.0780  178.3530  136.9790 C   0  0  0  0  0  1  0  0  0  0  0  0
  1  2  2  0  0  0  0
  2 41  1  0  0  0  0
  2 34  1  0  0  0  0
  3  1  2  0  0  0  0
  4  5  2  0  0  0  0
  5  6  1  0  0  0  0
  5  3  1  0  0  0  0
  7  9  1  0  0  0  0
  7 10  1  0  0  0  0
  8 11  1  0  0  0  0
  9  6  1  1  0  0  0
  9 11  1  0  0  0  0
 10  8  1  0  0  0  0
 12 14  1  0  0  0  0
 13 12  1  6  0  0  0
 13 14  1  0  0  0  0
 14 27  1  1  0  0  0
 14  9  1  0  0  0  0
 15 17  1  0  0  0  0
 16 24  1  0  0  0  0
 17 18  2  0  0  0  0
 17 24  1  0  0  0  0
 18 21  1  0  0  0  0
 19 15  2  0  0  0  0
 19 23  1  0  0  0  0
 20 13  1  6  0  0  0
 22 20  1  0  0  0  0
 23 18  1  0  0  0  0
 24 25  1  0  0  0  0
 24 22  1  0  0  0  0
 25 21  1  0  0  0  0
 25 22  1  0  0  0  0
 25 20  1  0  0  0  0
 27 26  2  0  0  0  0
 28 27  1  0  0  0  0
 29 31  1  0  0  0  0
 29 32  1  0  0  0  0
 30 28  1  0  0  0  0
 31 33  1  0  0  0  0
 31 32  1  0  0  0  0
 33 30  1  0  0  0  0
 35 34  1  0  0  0  0
 35 37  1  0  0  0  0
 36 37  1  0  0  0  0
 37 39  1  0  0  0  0
 38 37  1  0  0  0  0
 39 40  1  0  0  0  0
 42 41  1  0  0  0  0
 42 45  1  0  0  0  0
 43 44  1  0  0  0  0
 44 48  1  0  0  0  0
 45 44  1  0  0  0  0
 45 47  1  0  0  0  0
 46 53  1  0  0  0  0
 47 46  1  0  0  0  0
 48 46  1  0  0  0  0
 50 55  1  0  0  0  0
 50 52  1  0  0  0  0
 51 54  1  0  0  0  0
 51 56  1  0  0  0  0
 53 56  1  0  0  0  0
 53 49  2  0  0  0  0
 54 50  1  0  0  0  0
 56 55  1  0  0  0  0
 57 58  1  0  0  0  0
 57 47  1  0  0  0  0
 59 57  2  0  0  0  0
 60 42  1  0  0  0  0
 61 60  1  0  0  0  0
 62 60  1  0  0  0  0
 63 62  1  0  0  0  0
 64 65  1  0  0  0  0
 64 63  1  0  0  0  0
 66 63  1  0  0  0  0
 67 66  1  0  0  0  0
M  END
>  <MODEL>
7

>  <REMARK>
 VINA RESULT:      -4.9      3.538      9.077
  Name = 
  22 active torsions:
  status: ('A' for Active; 'I' for Inactive)
    1  A    between atoms: C_1  and  N_54
    2  A    between atoms: C_10  and  O_36
    3  A    between atoms: C_11  and  C_16
    4  A    between atoms: C_11  and  N_54
    5  A    between atoms: O_12  and  C_20
    6  A    between atoms: O_12  and  C_30
    7  A    between atoms: C_16  and  C_23
    8  A    between atoms: C_20  and  C_61
    9  A    between atoms: C_23  and  C_40
   10  A    between atoms: C_23  and  C_62
   11  A    between atoms: C_25  and  C_39
   12  A    between atoms: C_27  and  N_54
   13  A    between atoms: C_30  and  C_60
   14  A    between atoms: C_34  and  C_43
   15  A    between atoms: C_35  and  O_48
   16  A    between atoms: C_35  and  C_62
   17  A    between atoms: O_36  and  C_64
   18  A    between atoms: C_38  and  C_51
   19  A    between atoms: C_39  and  O_56
   20  A    between atoms: C_45  and  C_46
   21  A    between atoms: O_48  and  O_56
   22  A    between atoms: C_61  and  C_64
                            x       y       z     vdW  Elec       q    Type
                         _______ _______ _______ _____ _____    ______ ____

>  <TORSDO>
F 22

$$$$
=
 OpenBabel11062416113D

 67 75  0  0  1  0  0  0  0  0999 V2000
  183.4490  177.2240  139.4570 C   0  0  0  0  0  0  0  0  0  0  0  0
  182.6350  176.4360  138.8490 C   0  0  0  0  0  0  0  0  0  0  0  0
  183.9980  178.1560  140.0360 C   0  0  0  0  0  3  0  0  0  0  0  0
  184.5660  180.1610  139.1790 O   0  0  0  0  0  0  0  0  0  0  0  0
  184.9550  178.9630  139.5320 C   0  0  0  0  0  0  0  0  0  0  0  0
  186.1240  178.6860  140.3150 O   0  0  0  0  0  0  0  0  0  0  0  0
  185.0250  177.9320  142.0710 O   0  0  0  0  0  0  0  0  0  0  0  0
  185.1470  179.7400  143.4200 C   0  0  0  0  0  2  0  0  0  0  0  0
  186.2140  178.5860  141.7280 C   0  0  2  0  0  0  0  0  0  0  0  0
  184.3680  178.6700  142.9920 O   0  0  0  0  0  0  0  0  0  0  0  0
  185.9790  180.0380  142.2430 C   0  0  0  0  0  2  0  0  0  0  0  0
  188.3110  177.1300  141.5580 O   0  0  0  0  0  0  0  0  0  0  0  0
  188.9020  178.2730  142.0270 C   0  0  1  0  0  3  0  0  0  0  0  0
  187.4820  177.8200  142.4200 C   0  0  1  0  0  0  0  0  0  0  0  0
  192.4740  175.5270  146.1170 N   0  0  0  0  0  0  0  0  0  0  0  0
  190.7320  175.5710  143.4600 F   0  0  0  0  0  0  0  0  0  0  0  0
  191.5150  176.4590  145.6520 C   0  0  0  0  0  0  0  0  0  0  0  0
  190.8610  177.0470  146.6050 C   0  0  0  0  0  0  0  0  0  0  0  0
  192.4260  175.6330  147.5730 C   0  0  0  0  0  3  0  0  0  0  0  0
  189.5010  178.5460  143.4460 C   0  0  2  0  0  3  0  0  0  0  0  0
  189.7430  177.8470  145.9810 C   0  0  0  0  0  2  0  0  0  0  0  0
  190.9350  178.0890  143.7350 C   0  0  2  0  0  3  0  0  0  0  0  0
  191.3550  176.5580  147.8600 O   0  0  0  0  0  0  0  0  0  0  0  0
  191.0070  176.6510  144.3130 C   0  0  1  0  0  0  0  0  0  0  0  0
  189.7280  177.3940  144.4490 C   0  0  2  0  0  0  0  0  0  0  0  0
  187.8950  175.3240  143.2810 O   0  0  0  0  0  0  0  0  0  0  0  0
  187.1520  176.5060  143.3500 C   0  0  0  0  0  0  0  0  0  0  0  0
  186.9330  176.7460  144.7250 O   0  0  0  0  0  0  0  0  0  0  0  0
  186.7240  179.5740  148.6310 C   0  0  0  0  0  2  0  0  0  0  0  0
  185.9630  177.5540  145.2710 C   0  0  0  0  0  2  0  0  0  0  0  0
  186.8660  178.5150  147.5970 C   0  0  0  0  0  3  0  0  0  0  0  0
  187.6680  178.4790  148.9040 C   0  0  0  0  0  2  0  0  0  0  0  0
  186.3840  178.0690  146.4240 C   0  0  0  0  0  2  0  0  0  0  0  0
  181.3690  177.0250  138.6200 O   0  0  0  0  0  0  0  0  0  0  0  0
  181.2000  178.3330  138.6860 O   0  0  0  0  0  0  0  0  0  0  0  0
  179.0850  177.7850  138.4060 O   0  0  0  0  0  1  0  0  0  0  0  0
  179.8990  178.7570  138.9670 C   0  0  2  0  0  0  0  0  0  0  0  0
  179.4560  179.7940  138.1750 F   0  0  0  0  0  0  0  0  0  0  0  0
  179.4330  179.0190  140.4820 C   0  0  0  0  0  2  0  0  0  0  0  0
  179.3080  177.7920  141.1290 O   0  0  0  0  0  1  0  0  0  0  0  0
  183.0300  175.0930  138.3490 C   0  0  0  0  0  2  0  0  0  0  0  0
  182.8650  174.8520  136.7710 C   0  0  2  0  0  3  0  0  0  0  0  0
  182.8540  177.4460  134.5970 N   0  0  0  0  0  1  0  0  0  0  0  0
  183.8750  176.9980  135.5500 C   0  0  1  0  0  3  0  0  0  0  0  0
  183.8770  175.4830  135.6990 C   0  0  1  0  0  3  0  0  0  0  0  0
  186.1190  176.4770  135.6200 C   0  0  1  0  0  3  0  0  0  0  0  0
  185.3320  175.2670  136.1420 C   0  0  2  0  0  3  0  0  0  0  0  0
  185.1490  177.4080  135.0120 N   0  0  0  0  0  2  0  0  0  0  0  0
  186.6810  178.4230  136.9310 O   0  0  0  0  0  0  0  0  0  0  0  0
  190.4730  176.6300  138.2030 C   0  0  1  0  0  3  0  0  0  0  0  0
  188.6970  175.2950  137.1730 C   0  0  0  0  0  2  0  0  0  0  0  0
  190.7430  176.4520  139.5610 O   0  0  0  0  0  1  0  0  0  0  0  0
  187.0480  177.2180  136.6280 C   0  0  0  0  0  0  0  0  0  0  0  0
  190.1920  175.2740  137.5280 C   0  0  0  0  0  2  0  0  0  0  0  0
  189.1990  177.4740  138.0780 C   0  0  0  0  0  2  0  0  0  0  0  0
  188.2450  176.7080  137.3090 N   0  0  0  0  0  0  0  0  0  0  0  0
  185.7640  173.8110  135.8430 C   0  0  0  0  0  0  0  0  0  0  0  0
  186.3840  173.5170  134.8400 O   0  0  0  0  0  0  0  0  0  0  0  0
  185.6720  172.8790  136.8620 O   0  0  0  0  0  1  0  0  0  0  0  0
  181.6340  173.9570  136.3620 C   0  0  2  0  0  3  0  0  0  0  0  0
  181.4800  173.7710  134.9790 O   0  0  0  0  0  1  0  0  0  0  0  0
  180.3000  174.3410  137.0380 C   0  0  0  0  0  2  0  0  0  0  0  0
  179.7570  173.1230  137.7200 N   0  0  0  0  0  0  0  0  0  0  0  0
  178.9850  173.6450  138.8430 C   0  0  0  0  0  2  0  0  0  0  0  0
  179.9720  173.9610  139.9210 C   0  0  0  0  0  1  0  0  0  0  0  0
  179.2130  172.0760  136.8860 C   0  0  0  0  0  2  0  0  0  0  0  0
  180.2220  170.9980  136.4680 C   0  0  0  0  0  1  0  0  0  0  0  0
  1  3  2  0  0  0  0
  2  1  2  0  0  0  0
  4  5  2  0  0  0  0
  5  3  1  0  0  0  0
  5  6  1  0  0  0  0
  7 10  1  0  0  0  0
  9  6  1  6  0  0  0
  9  7  1  0  0  0  0
  9 11  1  0  0  0  0
  9 14  1  0  0  0  0
 10  8  1  0  0  0  0
 11  8  1  0  0  0  0
 12 14  1  0  0  0  0
 13 12  1  1  0  0  0
 13 14  1  0  0  0  0
 14 27  1  1  0  0  0
 15 19  2  0  0  0  0
 16 24  1  0  0  0  0
 17 15  1  0  0  0  0
 17 18  2  0  0  0  0
 18 23  1  0  0  0  0
 19 23  1  0  0  0  0
 20 13  1  6  0  0  0
 20 22  1  0  0  0  0
 20 25  1  0  0  0  0
 21 18  1  0  0  0  0
 22 24  1  0  0  0  0
 22 25  1  0  0  0  0
 24 25  1  0  0  0  0
 24 17  1  0  0  0  0
 25 21  1  0  0  0  0
 26 27  2  0  0  0  0
 27 28  1  0  0  0  0
 28 30  1  0  0  0  0
 29 32  1  0  0  0  0
 30 33  1  0  0  0  0
 31 29  1  0  0  0  0
 31 32  1  0  0  0  0
 33 31  1  0  0  0  0
 34 35  1  0  0  0  0
 34  2  1  0  0  0  0
 35 37  1  0  0  0  0
 36 37  1  0  0  0  0
 37 39  1  0  0  0  0
 38 37  1  0  0  0  0
 39 40  1  0  0  0  0
 41  2  1  0  0  0  0
 42 41  1  0  0  0  0
 43 44  1  0  0  0  0
 44 45  1  0  0  0  0
 45 47  1  0  0  0  0
 45 42  1  0  0  0  0
 46 47  1  0  0  0  0
 46 53  1  0  0  0  0
 48 44  1  0  0  0  0
 48 46  1  0  0  0  0
 50 52  1  0  0  0  0
 51 56  1  0  0  0  0
 51 54  1  0  0  0  0
 53 49  2  0  0  0  0
 53 56  1  0  0  0  0
 54 50  1  0  0  0  0
 55 50  1  0  0  0  0
 56 55  1  0  0  0  0
 57 47  1  0  0  0  0
 57 59  1  0  0  0  0
 58 57  2  0  0  0  0
 60 42  1  0  0  0  0
 60 62  1  0  0  0  0
 61 60  1  0  0  0  0
 62 63  1  0  0  0  0
 63 64  1  0  0  0  0
 64 65  1  0  0  0  0
 66 63  1  0  0  0  0
 67 66  1  0  0  0  0
M  END
>  <MODEL>
8

>  <REMARK>
 VINA RESULT:      -4.9      3.382      9.979
  Name = 
  22 active torsions:
  status: ('A' for Active; 'I' for Inactive)
    1  A    between atoms: C_1  and  N_54
    2  A    between atoms: C_10  and  O_36
    3  A    between atoms: C_11  and  C_16
    4  A    between atoms: C_11  and  N_54
    5  A    between atoms: O_12  and  C_20
    6  A    between atoms: O_12  and  C_30
    7  A    between atoms: C_16  and  C_23
    8  A    between atoms: C_20  and  C_61
    9  A    between atoms: C_23  and  C_40
   10  A    between atoms: C_23  and  C_62
   11  A    between atoms: C_25  and  C_39
   12  A    between atoms: C_27  and  N_54
   13  A    between atoms: C_30  and  C_60
   14  A    between atoms: C_34  and  C_43
   15  A    between atoms: C_35  and  O_48
   16  A    between atoms: C_35  and  C_62
   17  A    between atoms: O_36  and  C_64
   18  A    between atoms: C_38  and  C_51
   19  A    between atoms: C_39  and  O_56
   20  A    between atoms: C_45  and  C_46
   21  A    between atoms: O_48  and  O_56
   22  A    between atoms: C_61  and  C_64
                            x       y       z     vdW  Elec       q    Type
                         _______ _______ _______ _____ _____    ______ ____

>  <TORSDO>
F 22

$$$$
=
 OpenBabel11062416113D

 67 75  0  0  1  0  0  0  0  0999 V2000
  188.9740  177.8770  141.0290 C   0  0  0  0  0  0  0  0  0  0  0  0
  188.7180  178.7880  141.9000 C   0  0  0  0  0  0  0  0  0  0  0  0
  189.4820  177.0150  140.3190 C   0  0  0  0  0  3  0  0  0  0  0  0
  191.0760  177.0340  138.7280 O   0  0  0  0  0  0  0  0  0  0  0  0
  189.8050  177.1360  139.0140 C   0  0  0  0  0  0  0  0  0  0  0  0
  188.7560  176.4580  138.3080 O   0  0  0  0  0  0  0  0  0  0  0  0
  188.8140  177.6560  136.4580 O   0  0  0  0  0  0  0  0  0  0  0  0
  186.8780  176.9960  135.4980 C   0  0  0  0  0  2  0  0  0  0  0  0
  188.5940  176.3480  136.9020 C   0  0  2  0  0  0  0  0  0  0  0  0
  187.7560  178.0520  135.7180 O   0  0  0  0  0  0  0  0  0  0  0  0
  187.0610  176.1580  136.6940 C   0  0  0  0  0  2  0  0  0  0  0  0
  189.8240  175.6990  134.7540 O   0  0  0  0  0  0  0  0  0  0  0  0
  190.9100  175.8000  135.5810 C   0  0  1  0  0  3  0  0  0  0  0  0
  189.5240  175.3110  136.0450 C   0  0  1  0  0  0  0  0  0  0  0  0
  196.7070  174.8510  137.1700 N   0  0  0  0  0  0  0  0  0  0  0  0
  194.3870  176.5490  135.8180 F   0  0  0  0  0  0  0  0  0  0  0  0
  195.3890  174.4900  136.7980 C   0  0  0  0  0  0  0  0  0  0  0  0
  195.2720  173.2470  136.4480 C   0  0  0  0  0  0  0  0  0  0  0  0
  197.4730  173.6090  137.0920 C   0  0  0  0  0  3  0  0  0  0  0  0
  191.8060  174.6520  136.1530 C   0  0  2  0  0  3  0  0  0  0  0  0
  193.8870  173.0480  135.8830 C   0  0  0  0  0  2  0  0  0  0  0  0
  192.8890  175.0110  137.1780 C   0  0  2  0  0  3  0  0  0  0  0  0
  196.5560  172.6200  136.5750 O   0  0  0  0  0  0  0  0  0  0  0  0
  194.2560  175.3430  136.5230 C   0  0  1  0  0  0  0  0  0  0  0  0
  193.2910  174.5240  135.7450 C   0  0  2  0  0  0  0  0  0  0  0  0
  189.3870  173.0710  134.5940 O   0  0  0  0  0  0  0  0  0  0  0  0
  188.8420  173.8870  135.5890 C   0  0  0  0  0  0  0  0  0  0  0  0
  188.4450  173.0180  136.6290 O   0  0  0  0  0  0  0  0  0  0  0  0
  183.9460  171.4460  135.8610 C   0  0  0  0  0  2  0  0  0  0  0  0
  187.8770  171.7730  136.4850 C   0  0  0  0  0  2  0  0  0  0  0  0
  185.2260  172.0640  136.2990 C   0  0  0  0  0  3  0  0  0  0  0  0
  183.8710  172.7230  136.5870 C   0  0  0  0  0  2  0  0  0  0  0  0
  186.5550  171.8780  136.3680 C   0  0  0  0  0  2  0  0  0  0  0  0
  189.8460  179.1270  142.6850 O   0  0  0  0  0  0  0  0  0  0  0  0
  190.8830  178.3170  142.7810 O   0  0  0  0  0  0  0  0  0  0  0  0
  190.2170  178.4590  144.8750 O   0  0  0  0  0  1  0  0  0  0  0  0
  191.1820  177.8720  144.0710 C   0  0  2  0  0  0  0  0  0  0  0  0
  192.2610  178.5000  144.6530 F   0  0  0  0  0  0  0  0  0  0  0  0
  191.2510  176.3010  144.4000 C   0  0  0  0  0  2  0  0  0  0  0  0
  190.8890  175.5900  143.2580 O   0  0  0  0  0  1  0  0  0  0  0  0
  187.4060  179.4790  141.9860 C   0  0  0  0  0  2  0  0  0  0  0  0
  186.1120  178.5310  142.0490 C   0  0  2  0  0  3  0  0  0  0  0  0
  187.2000  175.5770  143.2950 N   0  0  0  0  0  1  0  0  0  0  0  0
  186.9570  176.8650  143.9540 C   0  0  1  0  0  3  0  0  0  0  0  0
  185.7880  177.6080  143.3200 C   0  0  1  0  0  3  0  0  0  0  0  0
  185.8360  177.7370  145.7700 C   0  0  1  0  0  3  0  0  0  0  0  0
  185.3510  178.4720  144.5130 C   0  0  2  0  0  3  0  0  0  0  0  0
  186.6210  176.5700  145.3250 N   0  0  0  0  0  2  0  0  0  0  0  0
  186.0650  179.6860  147.1730 O   0  0  0  0  0  0  0  0  0  0  0  0
  190.0670  178.4460  148.4620 C   0  0  1  0  0  3  0  0  0  0  0  0
  188.5380  176.9000  147.3360 C   0  0  0  0  0  2  0  0  0  0  0  0
  190.3370  178.2520  149.8180 O   0  0  0  0  0  1  0  0  0  0  0  0
  186.6200  178.5670  146.8290 C   0  0  0  0  0  0  0  0  0  0  0  0
  190.0120  177.0950  147.7260 C   0  0  0  0  0  2  0  0  0  0  0  0
  188.6790  179.0880  148.3410 C   0  0  0  0  0  2  0  0  0  0  0  0
  187.8700  178.2190  147.5180 N   0  0  0  0  0  0  0  0  0  0  0  0
  183.8790  178.9140  144.3320 C   0  0  0  0  0  0  0  0  0  0  0  0
  182.9500  178.2250  144.7030 O   0  0  0  0  0  1  0  0  0  0  0  0
  183.6290  180.2300  143.9840 O   0  0  0  0  0  0  0  0  0  0  0  0
  185.1960  178.5740  140.7680 C   0  0  2  0  0  3  0  0  0  0  0  0
  185.7800  179.1990  139.6530 O   0  0  0  0  0  1  0  0  0  0  0  0
  183.7580  179.0780  141.0160 C   0  0  0  0  0  2  0  0  0  0  0  0
  182.8070  178.0240  140.5340 N   0  0  0  0  0  0  0  0  0  0  0  0
  181.5380  178.7250  140.3690 C   0  0  0  0  0  2  0  0  0  0  0  0
  180.7120  178.3880  141.5700 C   0  0  0  0  0  1  0  0  0  0  0  0
  183.2770  177.1160  139.5140 C   0  0  0  0  0  2  0  0  0  0  0  0
  182.4010  175.8730  139.3080 C   0  0  0  0  0  1  0  0  0  0  0  0
  1  2  2  0  0  0  0
  2 41  1  0  0  0  0
  2 34  1  0  0  0  0
  3  1  2  0  0  0  0
  4  5  2  0  0  0  0
  5  3  1  0  0  0  0
  6  5  1  0  0  0  0
  7  9  1  0  0  0  0
  8 10  1  0  0  0  0
  8 11  1  0  0  0  0
  9  6  1  1  0  0  0
 10  7  1  0  0  0  0
 11  9  1  0  0  0  0
 12 14  1  0  0  0  0
 13 12  1  6  0  0  0
 13 14  1  0  0  0  0
 14 27  1  1  0  0  0
 14  9  1  0  0  0  0
 16 24  1  0  0  0  0
 17 15  1  0  0  0  0
 18 23  1  0  0  0  0
 18 17  2  0  0  0  0
 19 15  2  0  0  0  0
 20 13  1  6  0  0  0
 20 22  1  0  0  0  0
 21 18  1  0  0  0  0
 23 19  1  0  0  0  0
 24 17  1  0  0  0  0
 24 22  1  0  0  0  0
 25 21  1  0  0  0  0
 25 20  1  0  0  0  0
 25 24  1  0  0  0  0
 25 22  1  0  0  0  0
 26 27  2  0  0  0  0
 27 28  1  0  0  0  0
 29 31  1  0  0  0  0
 29 32  1  0  0  0  0
 30 28  1  0  0  0  0
 31 33  1  0  0  0  0
 31 32  1  0  0  0  0
 33 30  1  0  0  0  0
 34 35  1  0  0  0  0
 35 37  1  0  0  0  0
 37 39  1  0  0  0  0
 37 38  1  0  0  0  0
 37 36  1  0  0  0  0
 40 39  1  0  0  0  0
 41 42  1  0  0  0  0
 42 45  1  0  0  0  0
 43 44  1  0  0  0  0
 44 48  1  0  0  0  0
 45 44  1  0  0  0  0
 45 47  1  0  0  0  0
 46 53  1  0  0  0  0
 47 46  1  0  0  0  0
 48 46  1  0  0  0  0
 50 52  1  0  0  0  0
 51 56  1  0  0  0  0
 51 54  1  0  0  0  0
 53 49  2  0  0  0  0
 53 56  1  0  0  0  0
 54 50  1  0  0  0  0
 55 50  1  0  0  0  0
 56 55  1  0  0  0  0
 57 47  1  0  0  0  0
 57 58  1  0  0  0  0
 59 57  2  0  0  0  0
 60 62  1  0  0  0  0
 60 42  1  0  0  0  0
 61 60  1  0  0  0  0
 63 62  1  0  0  0  0
 64 63  1  0  0  0  0
 64 65  1  0  0  0  0
 66 63  1  0  0  0  0
 67 66  1  0  0  0  0
M  END
>  <MODEL>
9

>  <REMARK>
 VINA RESULT:      -4.7      1.906      5.021
  Name = 
  22 active torsions:
  status: ('A' for Active; 'I' for Inactive)
    1  A    between atoms: C_1  and  N_54
    2  A    between atoms: C_10  and  O_36
    3  A    between atoms: C_11  and  C_16
    4  A    between atoms: C_11  and  N_54
    5  A    between atoms: O_12  and  C_20
    6  A    between atoms: O_12  and  C_30
    7  A    between atoms: C_16  and  C_23
    8  A    between atoms: C_20  and  C_61
    9  A    between atoms: C_23  and  C_40
   10  A    between atoms: C_23  and  C_62
   11  A    between atoms: C_25  and  C_39
   12  A    between atoms: C_27  and  N_54
   13  A    between atoms: C_30  and  C_60
   14  A    between atoms: C_34  and  C_43
   15  A    between atoms: C_35  and  O_48
   16  A    between atoms: C_35  and  C_62
   17  A    between atoms: O_36  and  C_64
   18  A    between atoms: C_38  and  C_51
   19  A    between atoms: C_39  and  O_56
   20  A    between atoms: C_45  and  C_46
   21  A    between atoms: O_48  and  O_56
   22  A    between atoms: C_61  and  C_64
                            x       y       z     vdW  Elec       q    Type
                         _______ _______ _______ _____ _____    ______ ____

>  <TORSDO>
F 22

$$$$
