=
 OpenBabel11062415223D

 48 53  0  0  1  0  0  0  0  0999 V2000
  188.4910  176.9410  139.0540 C   0  0  2  0  0  3  0  0  0  0  0  0
  189.0790  180.0420  137.2230 O   0  0  0  0  0  0  0  0  0  0  0  0
  189.1890  179.1220  138.0750 C   0  0  0  0  0  3  0  0  0  0  0  0
  188.1670  178.1210  138.2350 N   0  0  0  0  0  0  0  0  0  0  0  0
  186.9990  178.1560  137.4320 N   0  0  0  0  0  0  0  0  0  0  0  0
  186.4340  176.8090  137.3840 C   0  0  2  0  0  0  0  0  0  0  0  0
  186.8150  176.5320  136.0070 N   0  0  0  0  0  2  0  0  0  0  0  0
  187.3530  177.8790  136.0400 C   0  0  2  0  0  3  0  0  0  0  0  0
  184.9060  176.8630  137.4700 C   0  0  0  0  0  2  0  0  0  0  0  0
  184.2490  176.3120  136.2150 C   0  0  0  0  0  2  0  0  0  0  0  0
  183.0550  177.1680  135.8350 C   0  0  0  0  0  2  0  0  0  0  0  0
  181.3660  175.6200  138.5700 C   0  0  0  0  0  2  0  0  0  0  0  0
  181.3100  176.4830  139.8350 C   0  0  0  0  0  2  0  0  0  0  0  0
  180.7550  178.6830  139.1300 N   0  0  0  0  0  0  0  0  0  0  0  0
  180.1820  177.4930  139.7560 C   0  0  2  0  0  3  0  0  0  0  0  0
  181.1720  176.3860  137.2500 C   0  0  0  0  0  2  0  0  0  0  0  0
  181.5760  178.8310  136.9420 C   0  0  0  0  0  3  0  0  0  0  0  0
  180.9310  179.3790  137.9280 N   0  0  0  0  0  0  0  0  0  0  0  0
  182.2220  177.4740  137.0610 C   0  0  2  0  0  3  0  0  0  0  0  0
  180.3930  178.5510  140.4840 O   0  0  0  0  0  0  0  0  0  0  0  0
  188.3020  177.2130  140.5550 C   0  0  2  0  0  3  0  0  0  0  0  0
  187.7440  178.6330  140.7770 C   0  0  2  0  0  3  0  0  0  0  0  0
  188.5250  179.3530  141.6850 O   0  0  0  0  0  1  0  0  0  0  0  0
  183.6880  178.5500  142.2120 C   0  0  0  0  0  3  0  0  0  0  0  0
  186.0620  178.2370  142.5930 C   0  0  0  0  0  3  0  0  0  0  0  0
  186.3270  178.5920  141.2650 C   0  0  0  0  0  0  0  0  0  0  0  0
  183.9460  178.8970  140.8820 C   0  0  0  0  0  3  0  0  0  0  0  0
  185.2620  178.9170  140.4090 C   0  0  0  0  0  3  0  0  0  0  0  0
  184.7450  178.2180  143.0660 C   0  0  0  0  0  3  0  0  0  0  0  0
  189.5190  177.0520  141.2290 O   0  0  0  0  0  0  0  0  0  0  0  0
  189.1900  176.3300  142.3830 C   0  0  0  0  0  2  0  0  0  0  0  0
  190.4520  175.8530  143.0830 C   0  0  0  0  0  2  0  0  0  0  0  0
  190.8940  176.9110  144.0830 C   0  0  1  0  0  3  0  0  0  0  0  0
  191.5790  179.0140  143.9900 C   0  0  0  0  0  1  0  0  0  0  0  0
  191.8480  177.7420  143.4870 O   0  0  0  0  0  0  0  0  0  0  0  0
  189.7080  177.7620  144.5360 C   0  0  0  0  0  2  0  0  0  0  0  0
  187.0270  177.8890  147.0790 C   0  0  0  0  0  2  0  0  0  0  0  0
  190.4470  176.8170  147.5210 O   0  0  0  0  0  1  0  0  0  0  0  0
  188.2210  177.6250  147.9750 C   0  0  0  0  0  0  0  0  0  0  0  0
  189.4330  177.6590  147.0570 C   0  0  2  0  0  3  0  0  0  0  0  0
  188.9240  177.1750  145.7150 C   0  0  1  0  0  3  0  0  0  0  0  0
  188.3190  178.6120  148.9440 F   0  0  0  0  0  0  0  0  0  0  0  0
  187.4390  177.4980  145.6620 C   0  0  0  0  0  2  0  0  0  0  0  0
  188.0770  176.3810  148.5780 F   0  0  0  0  0  0  0  0  0  0  0  0
  189.8970  176.4340  138.7430 C   0  0  0  0  0  2  0  0  0  0  0  0
  189.8580  175.4620  137.5790 C   0  0  0  0  0  2  0  0  0  0  0  0
  191.9720  175.5080  136.2820 C   0  0  0  0  0  1  0  0  0  0  0  0
  191.2220  174.8160  137.4000 C   0  0  0  0  0  2  0  0  0  0  0  0
  1 45  1  1  0  0  0
  1 21  1  0  0  0  0
  2  3  2  0  0  0  0
  3  4  1  0  0  0  0
  4  1  1  0  0  0  0
  5  4  1  0  0  0  0
  6  5  1  0  0  0  0
  6  9  1  6  0  0  0
  7  6  1  0  0  0  0
  8  7  1  1  0  0  0
  8  6  1  0  0  0  0
  8  5  1  0  0  0  0
 10  9  1  0  0  0  0
 11 10  1  0  0  0  0
 12 13  1  0  0  0  0
 14 15  1  0  0  0  0
 14 20  1  0  0  0  0
 15 13  1  1  0  0  0
 15 20  1  0  0  0  0
 16 12  1  0  0  0  0
 17 19  1  0  0  0  0
 17 18  2  0  0  0  0
 18 14  1  0  0  0  0
 19 11  1  6  0  0  0
 19 16  1  0  0  0  0
 21 22  1  0  0  0  0
 21 30  1  1  0  0  0
 22 26  1  0  0  0  0
 22 23  1  1  0  0  0
 24 29  1  0  0  0  0
 25 29  2  0  0  0  0
 26 25  1  0  0  0  0
 27 24  2  0  0  0  0
 28 27  1  0  0  0  0
 28 26  2  0  0  0  0
 30 31  1  0  0  0  0
 31 32  1  0  0  0  0
 33 32  1  6  0  0  0
 33 36  1  0  0  0  0
 35 34  1  0  0  0  0
 35 33  1  0  0  0  0
 37 39  1  0  0  0  0
 39 44  1  0  0  0  0
 39 42  1  0  0  0  0
 40 38  1  1  0  0  0
 40 39  1  0  0  0  0
 41 36  1  6  0  0  0
 41 40  1  0  0  0  0
 43 41  1  0  0  0  0
 43 37  1  0  0  0  0
 46 45  1  0  0  0  0
 47 48  1  0  0  0  0
 48 46  1  0  0  0  0
M  END
>  <MODEL>
1

>  <REMARK>
 VINA RESULT:      -7.2      0.000      0.000
  Name = 
  19 active torsions:
  status: ('A' for Active; 'I' for Inactive)
    1  A    between atoms: C_1  and  C_12
    2  A    between atoms: C_1  and  C_31
    3  A    between atoms: C_4  and  C_15
    4  A    between atoms: C_4  and  C_16
    5  A    between atoms: N_5  and  N_47
    6  A    between atoms: C_7  and  C_20
    7  A    between atoms: C_7  and  C_45
    8  A    between atoms: C_8  and  C_20
    9  A    between atoms: C_8  and  C_23
   10  A    between atoms: C_8  and  N_47
   11  A    between atoms: C_11  and  C_15
   12  A    between atoms: C_11  and  C_33
   13  A    between atoms: C_12  and  O_27
   14  A    between atoms: C_12  and  C_39
   15  A    between atoms: C_18  and  C_23
   16  A    between atoms: C_18  and  C_34
   17  A    between atoms: C_23  and  O_41
   18  A    between atoms: C_39  and  C_46
   19  A    between atoms: O_41  and  C_46
                            x       y       z     vdW  Elec       q    Type
                         _______ _______ _______ _____ _____    ______ ____

>  <TORSDO>
F 19

$$$$
=
 OpenBabel11062415223D

 48 53  0  0  1  0  0  0  0  0999 V2000
  189.2120  177.1350  139.5590 C   0  0  2  0  0  3  0  0  0  0  0  0
  188.8810  179.9450  137.2540 O   0  0  0  0  0  0  0  0  0  0  0  0
  189.1440  179.2760  138.2870 C   0  0  0  0  0  3  0  0  0  0  0  0
  188.6450  177.9370  138.4610 N   0  0  0  0  0  0  0  0  0  0  0  0
  187.8320  177.3410  137.4650 N   0  0  0  0  0  0  0  0  0  0  0  0
  187.9980  175.8910  137.5420 C   0  0  2  0  0  0  0  0  0  0  0  0
  188.7850  175.7610  136.3250 N   0  0  0  0  0  2  0  0  0  0  0  0
  188.5980  177.1970  136.2270 C   0  0  2  0  0  3  0  0  0  0  0  0
  186.6550  175.1840  137.3380 C   0  0  0  0  0  2  0  0  0  0  0  0
  185.4920  176.1620  137.3630 C   0  0  0  0  0  2  0  0  0  0  0  0
  184.5130  175.8320  136.2510 C   0  0  0  0  0  2  0  0  0  0  0  0
  181.9650  176.6960  138.5940 C   0  0  0  0  0  2  0  0  0  0  0  0
  180.5760  176.1650  138.2260 C   0  0  0  0  0  2  0  0  0  0  0  0
  180.8780  173.9200  137.5060 N   0  0  0  0  0  0  0  0  0  0  0  0
  180.4190  174.7160  138.6430 C   0  0  2  0  0  3  0  0  0  0  0  0
  183.1290  175.7310  138.3090 C   0  0  0  0  0  2  0  0  0  0  0  0
  183.0610  173.8560  136.6590 C   0  0  0  0  0  3  0  0  0  0  0  0
  181.9600  173.2290  136.9480 N   0  0  0  0  0  0  0  0  0  0  0  0
  183.2040  175.3480  136.8350 C   0  0  2  0  0  3  0  0  0  0  0  0
  179.5440  174.0700  137.9280 O   0  0  0  0  0  0  0  0  0  0  0  0
  188.6270  177.5330  140.9240 C   0  0  2  0  0  3  0  0  0  0  0  0
  189.0820  176.5410  142.0120 C   0  0  2  0  0  3  0  0  0  0  0  0
  187.9920  176.0140  142.7100 O   0  0  0  0  0  1  0  0  0  0  0  0
  191.8290  178.3720  144.7710 C   0  0  0  0  0  3  0  0  0  0  0  0
  190.7880  176.3890  143.8410 C   0  0  0  0  0  3  0  0  0  0  0  0
  190.0260  177.1870  142.9800 C   0  0  0  0  0  0  0  0  0  0  0  0
  191.0640  179.1750  143.9180 C   0  0  0  0  0  3  0  0  0  0  0  0
  190.1640  178.5840  143.0250 C   0  0  0  0  0  3  0  0  0  0  0  0
  191.6890  176.9810  144.7340 C   0  0  0  0  0  3  0  0  0  0  0  0
  187.2290  177.5790  140.8520 O   0  0  0  0  0  0  0  0  0  0  0  0
  186.8690  178.6500  141.6800 C   0  0  0  0  0  2  0  0  0  0  0  0
  185.5140  178.3890  142.3170 C   0  0  0  0  0  2  0  0  0  0  0  0
  185.4580  179.0930  143.6650 C   0  0  1  0  0  3  0  0  0  0  0  0
  183.4840  178.8860  144.6450 C   0  0  0  0  0  1  0  0  0  0  0  0
  184.2180  179.7240  143.8070 O   0  0  0  0  0  0  0  0  0  0  0  0
  185.6420  178.0960  144.8090 C   0  0  0  0  0  2  0  0  0  0  0  0
  188.4460  177.1400  147.0200 C   0  0  0  0  0  2  0  0  0  0  0  0
  185.9190  179.6500  147.6120 O   0  0  0  0  0  1  0  0  0  0  0  0
  187.6540  178.0150  147.9700 C   0  0  0  0  0  0  0  0  0  0  0  0
  186.3910  178.3960  147.2140 C   0  0  2  0  0  3  0  0  0  0  0  0
  186.8000  178.4280  145.7570 C   0  0  1  0  0  3  0  0  0  0  0  0
  187.3370  177.3070  149.1200 F   0  0  0  0  0  0  0  0  0  0  0  0
  187.9810  177.4830  145.6070 C   0  0  0  0  0  2  0  0  0  0  0  0
  188.4070  179.1370  148.2980 F   0  0  0  0  0  0  0  0  0  0  0  0
  190.7370  177.2100  139.5520 C   0  0  0  0  0  2  0  0  0  0  0  0
  191.3180  176.0100  138.8280 C   0  0  0  0  0  2  0  0  0  0  0  0
  193.5020  175.7010  137.6930 C   0  0  0  0  0  1  0  0  0  0  0  0
  192.2030  176.4760  137.6830 C   0  0  0  0  0  2  0  0  0  0  0  0
  1 45  1  1  0  0  0
  1 21  1  0  0  0  0
  2  3  2  0  0  0  0
  3  4  1  0  0  0  0
  4  1  1  0  0  0  0
  5  6  1  0  0  0  0
  5  4  1  0  0  0  0
  6  9  1  6  0  0  0
  7  6  1  0  0  0  0
  8  7  1  1  0  0  0
  8  5  1  0  0  0  0
  8  6  1  0  0  0  0
  9 10  1  0  0  0  0
 11 10  1  0  0  0  0
 13 12  1  0  0  0  0
 14 20  1  0  0  0  0
 14 15  1  0  0  0  0
 15 13  1  6  0  0  0
 16 12  1  0  0  0  0
 17 19  1  0  0  0  0
 17 18  2  0  0  0  0
 18 14  1  0  0  0  0
 19 11  1  1  0  0  0
 19 16  1  0  0  0  0
 20 15  1  0  0  0  0
 21 30  1  6  0  0  0
 21 22  1  0  0  0  0
 22 23  1  1  0  0  0
 22 26  1  0  0  0  0
 25 29  2  0  0  0  0
 26 28  2  0  0  0  0
 26 25  1  0  0  0  0
 27 24  2  0  0  0  0
 28 27  1  0  0  0  0
 29 24  1  0  0  0  0
 30 31  1  0  0  0  0
 31 32  1  0  0  0  0
 33 32  1  6  0  0  0
 33 35  1  0  0  0  0
 33 36  1  0  0  0  0
 35 34  1  0  0  0  0
 37 39  1  0  0  0  0
 39 44  1  0  0  0  0
 39 42  1  0  0  0  0
 40 38  1  1  0  0  0
 40 39  1  0  0  0  0
 41 36  1  6  0  0  0
 41 40  1  0  0  0  0
 43 41  1  0  0  0  0
 43 37  1  0  0  0  0
 46 45  1  0  0  0  0
 48 47  1  0  0  0  0
 48 46  1  0  0  0  0
M  END
>  <MODEL>
2

>  <REMARK>
 VINA RESULT:      -6.9      2.149      3.959
  Name = 
  19 active torsions:
  status: ('A' for Active; 'I' for Inactive)
    1  A    between atoms: C_1  and  C_12
    2  A    between atoms: C_1  and  C_31
    3  A    between atoms: C_4  and  C_15
    4  A    between atoms: C_4  and  C_16
    5  A    between atoms: N_5  and  N_47
    6  A    between atoms: C_7  and  C_20
    7  A    between atoms: C_7  and  C_45
    8  A    between atoms: C_8  and  C_20
    9  A    between atoms: C_8  and  C_23
   10  A    between atoms: C_8  and  N_47
   11  A    between atoms: C_11  and  C_15
   12  A    between atoms: C_11  and  C_33
   13  A    between atoms: C_12  and  O_27
   14  A    between atoms: C_12  and  C_39
   15  A    between atoms: C_18  and  C_23
   16  A    between atoms: C_18  and  C_34
   17  A    between atoms: C_23  and  O_41
   18  A    between atoms: C_39  and  C_46
   19  A    between atoms: O_41  and  C_46
                            x       y       z     vdW  Elec       q    Type
                         _______ _______ _______ _____ _____    ______ ____

>  <TORSDO>
F 19

$$$$
=
 OpenBabel11062415223D

 48 53  0  0  1  0  0  0  0  0999 V2000
  189.4800  176.0370  137.6570 C   0  0  2  0  0  3  0  0  0  0  0  0
  188.6010  177.8240  134.5990 O   0  0  0  0  0  0  0  0  0  0  0  0
  189.0920  177.5660  135.7290 C   0  0  0  0  0  3  0  0  0  0  0  0
  188.6750  176.4120  136.4830 N   0  0  0  0  0  0  0  0  0  0  0  0
  187.6860  175.5380  135.9650 N   0  0  0  0  0  0  0  0  0  0  0  0
  186.5090  175.6120  136.8290 C   0  0  2  0  0  0  0  0  0  0  0  0
  186.6860  174.3050  137.4420 N   0  0  0  0  0  2  0  0  0  0  0  0
  187.8390  174.2130  136.5660 C   0  0  2  0  0  3  0  0  0  0  0  0
  185.2260  175.5950  135.9930 C   0  0  0  0  0  2  0  0  0  0  0  0
  184.0000  175.9130  136.8330 C   0  0  0  0  0  2  0  0  0  0  0  0
  183.3590  177.2000  136.3460 C   0  0  0  0  0  2  0  0  0  0  0  0
  181.7600  176.3260  139.4140 C   0  0  0  0  0  2  0  0  0  0  0  0
  181.3940  177.5290  140.2890 C   0  0  0  0  0  2  0  0  0  0  0  0
  180.4640  179.1640  138.8370 N   0  0  0  0  0  0  0  0  0  0  0  0
  180.0930  178.1600  139.8320 C   0  0  2  0  0  3  0  0  0  0  0  0
  181.5470  176.5290  137.9040 C   0  0  0  0  0  2  0  0  0  0  0  0
  181.4560  178.7460  136.7570 C   0  0  0  0  0  3  0  0  0  0  0  0
  180.6120  179.4310  137.4710 N   0  0  0  0  0  0  0  0  0  0  0  0
  182.3580  177.7010  137.3650 C   0  0  2  0  0  3  0  0  0  0  0  0
  180.0000  179.4200  140.1410 O   0  0  0  0  0  0  0  0  0  0  0  0
  189.1550  176.9110  138.8800 C   0  0  2  0  0  3  0  0  0  0  0  0
  188.3300  178.1410  138.4560 C   0  0  2  0  0  3  0  0  0  0  0  0
  189.1170  179.2960  138.4180 O   0  0  0  0  0  1  0  0  0  0  0  0
  185.0140  178.8190  141.1120 C   0  0  0  0  0  3  0  0  0  0  0  0
  187.3890  178.4930  140.7520 C   0  0  0  0  0  3  0  0  0  0  0  0
  187.1680  178.3630  139.3760 C   0  0  0  0  0  0  0  0  0  0  0  0
  184.7860  178.6820  139.7390 C   0  0  0  0  0  3  0  0  0  0  0  0
  185.8600  178.4530  138.8730 C   0  0  0  0  0  3  0  0  0  0  0  0
  186.3150  178.7230  141.6180 C   0  0  0  0  0  3  0  0  0  0  0  0
  190.3390  177.3070  139.5150 O   0  0  0  0  0  0  0  0  0  0  0  0
  190.3180  176.6400  140.7470 C   0  0  0  0  0  2  0  0  0  0  0  0
  190.8740  177.5370  141.8400 C   0  0  0  0  0  2  0  0  0  0  0  0
  190.4850  176.9650  143.1950 C   0  0  1  0  0  3  0  0  0  0  0  0
  191.8440  175.4300  144.0330 C   0  0  0  0  0  1  0  0  0  0  0  0
  191.6320  176.8070  143.9800 O   0  0  0  0  0  0  0  0  0  0  0  0
  189.5110  177.8940  143.9190 C   0  0  0  0  0  2  0  0  0  0  0  0
  186.8400  177.7870  146.4720 C   0  0  0  0  0  2  0  0  0  0  0  0
  190.3600  177.1230  146.9250 O   0  0  0  0  0  1  0  0  0  0  0  0
  188.0570  177.6860  147.3680 C   0  0  0  0  0  0  0  0  0  0  0  0
  189.2560  177.8310  146.4430 C   0  0  2  0  0  3  0  0  0  0  0  0
  188.8020  177.2550  145.1180 C   0  0  1  0  0  3  0  0  0  0  0  0
  188.0450  178.7040  148.3100 F   0  0  0  0  0  0  0  0  0  0  0  0
  187.2900  177.4060  145.0640 C   0  0  0  0  0  2  0  0  0  0  0  0
  188.0570  176.4510  148.0070 F   0  0  0  0  0  0  0  0  0  0  0  0
  190.9700  176.0620  137.3230 C   0  0  0  0  0  2  0  0  0  0  0  0
  191.5650  174.6760  137.4800 C   0  0  0  0  0  2  0  0  0  0  0  0
  193.6660  175.4560  136.4150 C   0  0  0  0  0  1  0  0  0  0  0  0
  193.0750  174.7760  137.6310 C   0  0  0  0  0  2  0  0  0  0  0  0
  1 45  1  6  0  0  0
  1 21  1  0  0  0  0
  2  3  2  0  0  0  0
  3  4  1  0  0  0  0
  4  1  1  0  0  0  0
  5  4  1  0  0  0  0
  5  8  1  0  0  0  0
  5  6  1  0  0  0  0
  6  9  1  6  0  0  0
  6  7  1  0  0  0  0
  8  6  1  0  0  0  0
  8  7  1  1  0  0  0
  9 10  1  0  0  0  0
 11 10  1  0  0  0  0
 12 13  1  0  0  0  0
 14 15  1  0  0  0  0
 14 20  1  0  0  0  0
 15 20  1  0  0  0  0
 15 13  1  1  0  0  0
 16 12  1  0  0  0  0
 17 19  1  0  0  0  0
 17 18  2  0  0  0  0
 18 14  1  0  0  0  0
 19 11  1  6  0  0  0
 19 16  1  0  0  0  0
 21 30  1  6  0  0  0
 22 23  1  1  0  0  0
 22 21  1  0  0  0  0
 22 26  1  0  0  0  0
 24 29  1  0  0  0  0
 25 29  2  0  0  0  0
 26 25  1  0  0  0  0
 27 24  2  0  0  0  0
 28 26  2  0  0  0  0
 28 27  1  0  0  0  0
 30 31  1  0  0  0  0
 31 32  1  0  0  0  0
 33 32  1  6  0  0  0
 33 36  1  0  0  0  0
 33 35  1  0  0  0  0
 35 34  1  0  0  0  0
 37 39  1  0  0  0  0
 39 44  1  0  0  0  0
 39 42  1  0  0  0  0
 40 38  1  1  0  0  0
 40 39  1  0  0  0  0
 41 36  1  6  0  0  0
 41 40  1  0  0  0  0
 43 41  1  0  0  0  0
 43 37  1  0  0  0  0
 45 46  1  0  0  0  0
 46 48  1  0  0  0  0
 47 48  1  0  0  0  0
M  END
>  <MODEL>
3

>  <REMARK>
 VINA RESULT:      -6.8      1.325      1.826
  Name = 
  19 active torsions:
  status: ('A' for Active; 'I' for Inactive)
    1  A    between atoms: C_1  and  C_12
    2  A    between atoms: C_1  and  C_31
    3  A    between atoms: C_4  and  C_15
    4  A    between atoms: C_4  and  C_16
    5  A    between atoms: N_5  and  N_47
    6  A    between atoms: C_7  and  C_20
    7  A    between atoms: C_7  and  C_45
    8  A    between atoms: C_8  and  C_20
    9  A    between atoms: C_8  and  C_23
   10  A    between atoms: C_8  and  N_47
   11  A    between atoms: C_11  and  C_15
   12  A    between atoms: C_11  and  C_33
   13  A    between atoms: C_12  and  O_27
   14  A    between atoms: C_12  and  C_39
   15  A    between atoms: C_18  and  C_23
   16  A    between atoms: C_18  and  C_34
   17  A    between atoms: C_23  and  O_41
   18  A    between atoms: C_39  and  C_46
   19  A    between atoms: O_41  and  C_46
                            x       y       z     vdW  Elec       q    Type
                         _______ _______ _______ _____ _____    ______ ____

>  <TORSDO>
F 19

$$$$
=
 OpenBabel11062415223D

 48 53  0  0  1  0  0  0  0  0999 V2000
  181.4650  178.2260  138.3060 C   0  0  2  0  0  3  0  0  0  0  0  0
  184.3840  180.1100  139.4210 O   0  0  0  0  0  0  0  0  0  0  0  0
  183.6560  179.3170  138.7700 C   0  0  0  0  0  3  0  0  0  0  0  0
  182.3510  178.9340  139.2440 N   0  0  0  0  0  0  0  0  0  0  0  0
  181.8590  179.4430  140.4730 N   0  0  0  0  0  0  0  0  0  0  0  0
  182.0300  178.4140  141.4970 C   0  0  2  0  0  0  0  0  0  0  0  0
  180.6210  178.0690  141.6050 N   0  0  0  0  0  2  0  0  0  0  0  0
  180.4410  179.1100  140.6090 C   0  0  2  0  0  3  0  0  0  0  0  0
  182.4860  179.0410  142.8180 C   0  0  0  0  0  2  0  0  0  0  0  0
  183.8590  178.5400  143.2360 C   0  0  0  0  0  2  0  0  0  0  0  0
  184.5190  179.5480  144.1590 C   0  0  0  0  0  2  0  0  0  0  0  0
  187.4660  177.6220  143.5800 C   0  0  0  0  0  2  0  0  0  0  0  0
  188.5960  177.8980  144.5780 C   0  0  0  0  0  2  0  0  0  0  0  0
  187.5900  177.9960  146.7280 N   0  0  0  0  0  0  0  0  0  0  0  0
  188.3860  177.1260  145.8650 C   0  0  2  0  0  3  0  0  0  0  0  0
  186.0520  177.5960  144.1860 C   0  0  0  0  0  2  0  0  0  0  0  0
  185.3940  178.7040  146.3270 C   0  0  0  0  0  3  0  0  0  0  0  0
  186.3000  178.3090  147.1720 N   0  0  0  0  0  0  0  0  0  0  0  0
  185.6980  178.9150  144.8650 C   0  0  2  0  0  3  0  0  0  0  0  0
  188.9530  177.6850  146.8940 O   0  0  0  0  0  0  0  0  0  0  0  0
  181.8280  176.7370  138.1840 C   0  0  2  0  0  3  0  0  0  0  0  0
  180.6770  175.8590  138.7130 C   0  0  2  0  0  3  0  0  0  0  0  0
  181.0240  175.2280  139.9110 O   0  0  0  0  0  1  0  0  0  0  0  0
  179.5670  172.8840  135.8100 C   0  0  0  0  0  3  0  0  0  0  0  0
  180.5660  175.0250  136.3520 C   0  0  0  0  0  3  0  0  0  0  0  0
  180.2740  174.8250  137.7060 C   0  0  0  0  0  0  0  0  0  0  0  0
  179.2640  172.6820  137.1610 C   0  0  0  0  0  3  0  0  0  0  0  0
  179.6170  173.6500  138.1060 C   0  0  0  0  0  3  0  0  0  0  0  0
  180.2150  174.0550  135.4060 C   0  0  0  0  0  3  0  0  0  0  0  0
  183.0110  176.4730  138.8860 O   0  0  0  0  0  0  0  0  0  0  0  0
  183.7440  175.6320  138.0380 C   0  0  0  0  0  2  0  0  0  0  0  0
  184.2010  176.3960  136.8070 C   0  0  0  0  0  2  0  0  0  0  0  0
  185.7180  176.3330  136.7200 C   0  0  1  0  0  3  0  0  0  0  0  0
  186.9290  174.4790  136.7040 C   0  0  0  0  0  1  0  0  0  0  0  0
  186.0930  175.2590  135.9060 O   0  0  0  0  0  0  0  0  0  0  0  0
  186.2850  177.6240  136.1300 C   0  0  0  0  0  2  0  0  0  0  0  0
  189.8120  177.2970  137.1870 C   0  0  0  0  0  2  0  0  0  0  0  0
  187.0240  178.5130  139.1320 O   0  0  0  0  0  1  0  0  0  0  0  0
  189.1670  177.5890  138.5260 C   0  0  0  0  0  0  0  0  0  0  0  0
  187.6710  177.6390  138.2550 C   0  0  2  0  0  3  0  0  0  0  0  0
  187.5470  178.1380  136.8310 C   0  0  1  0  0  3  0  0  0  0  0  0
  189.4620  176.5800  139.4310 F   0  0  0  0  0  0  0  0  0  0  0  0
  188.8280  177.7480  136.1110 C   0  0  0  0  0  2  0  0  0  0  0  0
  189.6350  178.8070  139.0070 F   0  0  0  0  0  0  0  0  0  0  0  0
  181.4510  178.9190  136.9450 C   0  0  0  0  0  2  0  0  0  0  0  0
  180.2520  179.8410  136.8380 C   0  0  0  0  0  2  0  0  0  0  0  0
  180.7670  181.1170  134.7740 C   0  0  0  0  0  1  0  0  0  0  0  0
  180.6840  181.1890  136.2830 C   0  0  0  0  0  2  0  0  0  0  0  0
  1 45  1  6  0  0  0
  1  4  1  0  0  0  0
  3  4  1  0  0  0  0
  3  2  2  0  0  0  0
  4  5  1  0  0  0  0
  5  8  1  0  0  0  0
  5  6  1  0  0  0  0
  6  7  1  0  0  0  0
  6  9  1  1  0  0  0
  8  6  1  0  0  0  0
  8  7  1  6  0  0  0
  9 10  1  0  0  0  0
 10 11  1  0  0  0  0
 12 16  1  0  0  0  0
 12 13  1  0  0  0  0
 14 20  1  0  0  0  0
 14 18  1  0  0  0  0
 15 13  1  6  0  0  0
 15 14  1  0  0  0  0
 15 20  1  0  0  0  0
 16 19  1  0  0  0  0
 17 18  2  0  0  0  0
 19 11  1  6  0  0  0
 19 17  1  0  0  0  0
 21  1  1  0  0  0  0
 21 22  1  0  0  0  0
 21 30  1  1  0  0  0
 22 23  1  1  0  0  0
 24 27  1  0  0  0  0
 25 26  2  0  0  0  0
 26 28  1  0  0  0  0
 26 22  1  0  0  0  0
 27 28  2  0  0  0  0
 29 24  2  0  0  0  0
 29 25  1  0  0  0  0
 31 30  1  0  0  0  0
 32 31  1  0  0  0  0
 33 36  1  6  0  0  0
 33 32  1  0  0  0  0
 35 34  1  0  0  0  0
 35 33  1  0  0  0  0
 37 39  1  0  0  0  0
 39 44  1  0  0  0  0
 39 42  1  0  0  0  0
 40 39  1  0  0  0  0
 40 38  1  1  0  0  0
 41 36  1  6  0  0  0
 41 40  1  0  0  0  0
 43 41  1  0  0  0  0
 43 37  1  0  0  0  0
 46 45  1  0  0  0  0
 47 48  1  0  0  0  0
 48 46  1  0  0  0  0
M  END
>  <MODEL>
4

>  <REMARK>
 VINA RESULT:      -6.5      3.474      8.890
  Name = 
  19 active torsions:
  status: ('A' for Active; 'I' for Inactive)
    1  A    between atoms: C_1  and  C_12
    2  A    between atoms: C_1  and  C_31
    3  A    between atoms: C_4  and  C_15
    4  A    between atoms: C_4  and  C_16
    5  A    between atoms: N_5  and  N_47
    6  A    between atoms: C_7  and  C_20
    7  A    between atoms: C_7  and  C_45
    8  A    between atoms: C_8  and  C_20
    9  A    between atoms: C_8  and  C_23
   10  A    between atoms: C_8  and  N_47
   11  A    between atoms: C_11  and  C_15
   12  A    between atoms: C_11  and  C_33
   13  A    between atoms: C_12  and  O_27
   14  A    between atoms: C_12  and  C_39
   15  A    between atoms: C_18  and  C_23
   16  A    between atoms: C_18  and  C_34
   17  A    between atoms: C_23  and  O_41
   18  A    between atoms: C_39  and  C_46
   19  A    between atoms: O_41  and  C_46
                            x       y       z     vdW  Elec       q    Type
                         _______ _______ _______ _____ _____    ______ ____

>  <TORSDO>
F 19

$$$$
=
 OpenBabel11062415223D

 48 53  0  0  1  0  0  0  0  0999 V2000
  189.0070  177.0620  139.5880 C   0  0  2  0  0  3  0  0  0  0  0  0
  188.8630  179.9620  137.3770 O   0  0  0  0  0  0  0  0  0  0  0  0
  189.1660  179.2140  138.3430 C   0  0  0  0  0  3  0  0  0  0  0  0
  188.4290  178.0070  138.6180 N   0  0  0  0  0  0  0  0  0  0  0  0
  187.3300  177.6390  137.8020 N   0  0  0  0  0  0  0  0  0  0  0  0
  187.5070  176.2450  137.3960 C   0  0  2  0  0  0  0  0  0  0  0  0
  187.8480  176.5310  136.0100 N   0  0  0  0  0  2  0  0  0  0  0  0
  187.6460  177.9140  136.4000 C   0  0  2  0  0  3  0  0  0  0  0  0
  186.1690  175.5010  137.4300 C   0  0  0  0  0  2  0  0  0  0  0  0
  185.9360  174.6980  136.1600 C   0  0  0  0  0  2  0  0  0  0  0  0
  184.4490  174.4820  135.9490 C   0  0  0  0  0  2  0  0  0  0  0  0
  182.7260  175.6030  138.8640 C   0  0  0  0  0  2  0  0  0  0  0  0
  182.7570  177.1230  139.0590 C   0  0  0  0  0  2  0  0  0  0  0  0
  182.3320  178.0870  136.9290 N   0  0  0  0  0  0  0  0  0  0  0  0
  181.6970  177.8020  138.2140 C   0  0  2  0  0  3  0  0  0  0  0  0
  182.5520  175.1360  137.4080 C   0  0  0  0  0  2  0  0  0  0  0  0
  183.1100  176.5010  135.3920 C   0  0  0  0  0  3  0  0  0  0  0  0
  182.5260  177.6400  135.6170 N   0  0  0  0  0  0  0  0  0  0  0  0
  183.6680  175.6510  136.5070 C   0  0  2  0  0  3  0  0  0  0  0  0
  181.9940  179.0330  137.9150 O   0  0  0  0  0  0  0  0  0  0  0  0
  188.6320  177.4220  141.0340 C   0  0  2  0  0  3  0  0  0  0  0  0
  189.2900  176.4360  142.0200 C   0  0  2  0  0  3  0  0  0  0  0  0
  188.3320  175.7230  142.7450 O   0  0  0  0  0  1  0  0  0  0  0  0
  191.8800  178.4950  144.7690 C   0  0  0  0  0  3  0  0  0  0  0  0
  190.2670  178.5430  142.9600 C   0  0  0  0  0  3  0  0  0  0  0  0
  190.2060  177.1450  142.9710 C   0  0  0  0  0  0  0  0  0  0  0  0
  191.8300  177.0980  144.7790 C   0  0  0  0  0  3  0  0  0  0  0  0
  190.9950  176.4240  143.8810 C   0  0  0  0  0  3  0  0  0  0  0  0
  191.1020  179.2170  143.8590 C   0  0  0  0  0  3  0  0  0  0  0  0
  187.2400  177.4130  141.1860 O   0  0  0  0  0  0  0  0  0  0  0  0
  186.9490  178.6140  141.8460 C   0  0  0  0  0  2  0  0  0  0  0  0
  185.5040  178.6200  142.3140 C   0  0  0  0  0  2  0  0  0  0  0  0
  185.4680  178.9150  143.8060 C   0  0  1  0  0  3  0  0  0  0  0  0
  183.3800  178.8330  143.0740 C   0  0  0  0  0  1  0  0  0  0  0  0
  184.1420  179.0940  144.2120 O   0  0  0  0  0  0  0  0  0  0  0  0
  186.0800  177.7650  144.6040 C   0  0  0  0  0  2  0  0  0  0  0  0
  188.5900  177.0650  147.2270 C   0  0  0  0  0  2  0  0  0  0  0  0
  185.9330  179.5080  147.3030 O   0  0  0  0  0  1  0  0  0  0  0  0
  187.6520  177.9690  148.0010 C   0  0  0  0  0  0  0  0  0  0  0  0
  186.4910  178.2510  147.0610 C   0  0  2  0  0  3  0  0  0  0  0  0
  187.0900  178.2030  145.6710 C   0  0  1  0  0  3  0  0  0  0  0  0
  187.2040  177.3260  149.1460 F   0  0  0  0  0  0  0  0  0  0  0  0
  188.3080  177.2970  145.7440 C   0  0  0  0  0  2  0  0  0  0  0  0
  188.3200  179.1380  148.3450 F   0  0  0  0  0  0  0  0  0  0  0  0
  190.5190  176.9540  139.4040 C   0  0  0  0  0  2  0  0  0  0  0  0
  190.8460  176.5290  137.9850 C   0  0  0  0  0  2  0  0  0  0  0  0
  190.9180  174.4490  136.6350 C   0  0  0  0  0  1  0  0  0  0  0  0
  191.2750  175.0710  137.9680 C   0  0  0  0  0  2  0  0  0  0  0  0
  1 45  1  1  0  0  0
  1 21  1  0  0  0  0
  2  3  2  0  0  0  0
  3  4  1  0  0  0  0
  4  1  1  0  0  0  0
  5  4  1  0  0  0  0
  6  9  1  6  0  0  0
  6  5  1  0  0  0  0
  7  6  1  0  0  0  0
  8  7  1  1  0  0  0
  8  6  1  0  0  0  0
  8  5  1  0  0  0  0
 10  9  1  0  0  0  0
 11 10  1  0  0  0  0
 12 13  1  0  0  0  0
 14 20  1  0  0  0  0
 14 15  1  0  0  0  0
 15 13  1  1  0  0  0
 16 12  1  0  0  0  0
 17 18  2  0  0  0  0
 17 19  1  0  0  0  0
 18 14  1  0  0  0  0
 19 11  1  6  0  0  0
 19 16  1  0  0  0  0
 20 15  1  0  0  0  0
 21 30  1  6  0  0  0
 21 22  1  0  0  0  0
 22 23  1  1  0  0  0
 22 26  1  0  0  0  0
 24 27  1  0  0  0  0
 25 26  2  0  0  0  0
 25 29  1  0  0  0  0
 26 28  1  0  0  0  0
 28 27  2  0  0  0  0
 29 24  2  0  0  0  0
 30 31  1  0  0  0  0
 31 32  1  0  0  0  0
 33 32  1  6  0  0  0
 33 35  1  0  0  0  0
 33 36  1  0  0  0  0
 34 35  1  0  0  0  0
 37 39  1  0  0  0  0
 39 44  1  0  0  0  0
 39 42  1  0  0  0  0
 40 38  1  1  0  0  0
 40 39  1  0  0  0  0
 41 36  1  6  0  0  0
 41 43  1  0  0  0  0
 41 40  1  0  0  0  0
 43 37  1  0  0  0  0
 46 45  1  0  0  0  0
 47 48  1  0  0  0  0
 48 46  1  0  0  0  0
M  END
>  <MODEL>
5

>  <REMARK>
 VINA RESULT:      -6.5      1.705      3.752
  Name = 
  19 active torsions:
  status: ('A' for Active; 'I' for Inactive)
    1  A    between atoms: C_1  and  C_12
    2  A    between atoms: C_1  and  C_31
    3  A    between atoms: C_4  and  C_15
    4  A    between atoms: C_4  and  C_16
    5  A    between atoms: N_5  and  N_47
    6  A    between atoms: C_7  and  C_20
    7  A    between atoms: C_7  and  C_45
    8  A    between atoms: C_8  and  C_20
    9  A    between atoms: C_8  and  C_23
   10  A    between atoms: C_8  and  N_47
   11  A    between atoms: C_11  and  C_15
   12  A    between atoms: C_11  and  C_33
   13  A    between atoms: C_12  and  O_27
   14  A    between atoms: C_12  and  C_39
   15  A    between atoms: C_18  and  C_23
   16  A    between atoms: C_18  and  C_34
   17  A    between atoms: C_23  and  O_41
   18  A    between atoms: C_39  and  C_46
   19  A    between atoms: O_41  and  C_46
                            x       y       z     vdW  Elec       q    Type
                         _______ _______ _______ _____ _____    ______ ____

>  <TORSDO>
F 19

$$$$
=
 OpenBabel11062415223D

 48 53  0  0  1  0  0  0  0  0999 V2000
  188.3980  177.5600  138.2290 C   0  0  2  0  0  3  0  0  0  0  0  0
  187.7340  174.2110  136.9410 O   0  0  0  0  0  0  0  0  0  0  0  0
  187.6210  175.2800  137.5960 C   0  0  0  0  0  3  0  0  0  0  0  0
  188.7000  176.2300  137.6750 N   0  0  0  0  0  0  0  0  0  0  0  0
  189.9280  175.9730  137.0150 N   0  0  0  0  0  0  0  0  0  0  0  0
  190.8380  175.3400  137.9690 C   0  0  2  0  0  0  0  0  0  0  0  0
  191.7040  176.4960  138.1460 N   0  0  0  0  0  2  0  0  0  0  0  0
  190.8210  177.1200  137.1770 C   0  0  2  0  0  3  0  0  0  0  0  0
  191.6380  174.2250  137.2900 C   0  0  0  0  0  2  0  0  0  0  0  0
  193.1170  174.5630  137.2020 C   0  0  0  0  0  2  0  0  0  0  0  0
  193.9370  173.2890  137.1160 C   0  0  0  0  0  2  0  0  0  0  0  0
  197.2420  172.3950  136.1140 C   0  0  0  0  0  2  0  0  0  0  0  0
  198.2600  173.5330  136.2430 C   0  0  0  0  0  2  0  0  0  0  0  0
  197.8480  174.5750  138.3380 N   0  0  0  0  0  0  0  0  0  0  0  0
  198.7640  173.6540  137.6680 C   0  0  2  0  0  3  0  0  0  0  0  0
  196.2130  172.3080  137.2540 C   0  0  0  0  0  2  0  0  0  0  0  0
  195.5730  174.2040  138.7500 C   0  0  0  0  0  3  0  0  0  0  0  0
  196.7130  174.6820  139.1510 N   0  0  0  0  0  0  0  0  0  0  0  0
  195.3960  173.5890  137.3840 C   0  0  2  0  0  3  0  0  0  0  0  0
  199.1760  174.8520  137.9640 O   0  0  0  0  0  0  0  0  0  0  0  0
  188.0910  177.5010  139.7340 C   0  0  2  0  0  3  0  0  0  0  0  0
  187.4850  178.8350  140.2110 C   0  0  2  0  0  3  0  0  0  0  0  0
  188.2820  179.4380  141.1870 O   0  0  0  0  0  1  0  0  0  0  0  0
  183.5110  178.3300  141.7790 C   0  0  0  0  0  3  0  0  0  0  0  0
  185.8810  178.6970  142.1310 C   0  0  0  0  0  3  0  0  0  0  0  0
  186.0990  178.6430  140.7500 C   0  0  0  0  0  0  0  0  0  0  0  0
  183.7240  178.2670  140.3990 C   0  0  0  0  0  3  0  0  0  0  0  0
  185.0150  178.4230  139.8850 C   0  0  0  0  0  3  0  0  0  0  0  0
  184.5880  178.5420  142.6450 C   0  0  0  0  0  3  0  0  0  0  0  0
  189.2570  177.2060  140.4510 O   0  0  0  0  0  0  0  0  0  0  0  0
  188.8030  176.8050  141.7140 C   0  0  0  0  0  2  0  0  0  0  0  0
  189.8640  175.9750  142.4150 C   0  0  0  0  0  2  0  0  0  0  0  0
  190.4190  176.7690  143.5890 C   0  0  1  0  0  3  0  0  0  0  0  0
  191.3360  178.7760  143.7750 C   0  0  0  0  0  1  0  0  0  0  0  0
  191.5050  177.5370  143.1570 O   0  0  0  0  0  0  0  0  0  0  0  0
  189.3530  177.6980  144.1700 C   0  0  0  0  0  2  0  0  0  0  0  0
  186.8820  177.9330  146.9090 C   0  0  0  0  0  2  0  0  0  0  0  0
  190.2730  176.7060  147.0890 O   0  0  0  0  0  1  0  0  0  0  0  0
  188.1270  177.6120  147.7110 C   0  0  0  0  0  0  0  0  0  0  0  0
  189.2660  177.5950  146.7040 C   0  0  2  0  0  3  0  0  0  0  0  0
  188.6350  177.1410  145.4040 C   0  0  1  0  0  3  0  0  0  0  0  0
  188.3430  178.5880  148.6720 F   0  0  0  0  0  0  0  0  0  0  0  0
  187.1670  177.5320  145.4640 C   0  0  0  0  0  2  0  0  0  0  0  0
  187.9730  176.3720  148.3220 F   0  0  0  0  0  0  0  0  0  0  0  0
  187.2720  178.2310  137.4460 C   0  0  0  0  0  2  0  0  0  0  0  0
  187.5300  178.1200  135.9560 C   0  0  0  0  0  2  0  0  0  0  0  0
  185.9190  176.6470  134.7760 C   0  0  0  0  0  1  0  0  0  0  0  0
  186.2100  178.0690  135.2040 C   0  0  0  0  0  2  0  0  0  0  0  0
  1 45  1  6  0  0  0
  1 21  1  0  0  0  0
  2  3  2  0  0  0  0
  3  4  1  0  0  0  0
  4  1  1  0  0  0  0
  5  8  1  0  0  0  0
  5  4  1  0  0  0  0
  5  6  1  0  0  0  0
  6  9  1  6  0  0  0
  6  7  1  0  0  0  0
  8  6  1  0  0  0  0
  8  7  1  1  0  0  0
 10  9  1  0  0  0  0
 11 10  1  0  0  0  0
 12 13  1  0  0  0  0
 12 16  1  0  0  0  0
 14 18  1  0  0  0  0
 15 13  1  6  0  0  0
 15 20  1  0  0  0  0
 15 14  1  0  0  0  0
 16 19  1  0  0  0  0
 17 18  2  0  0  0  0
 19 11  1  1  0  0  0
 19 17  1  0  0  0  0
 20 14  1  0  0  0  0
 21 22  1  0  0  0  0
 21 30  1  1  0  0  0
 22 26  1  0  0  0  0
 22 23  1  1  0  0  0
 24 29  1  0  0  0  0
 25 29  2  0  0  0  0
 26 25  1  0  0  0  0
 27 24  2  0  0  0  0
 28 27  1  0  0  0  0
 28 26  2  0  0  0  0
 30 31  1  0  0  0  0
 31 32  1  0  0  0  0
 33 32  1  6  0  0  0
 33 36  1  0  0  0  0
 35 33  1  0  0  0  0
 35 34  1  0  0  0  0
 37 39  1  0  0  0  0
 39 44  1  0  0  0  0
 39 42  1  0  0  0  0
 40 38  1  1  0  0  0
 40 39  1  0  0  0  0
 41 36  1  6  0  0  0
 41 43  1  0  0  0  0
 41 40  1  0  0  0  0
 43 37  1  0  0  0  0
 46 45  1  0  0  0  0
 47 48  1  0  0  0  0
 48 46  1  0  0  0  0
M  END
>  <MODEL>
6

>  <REMARK>
 VINA RESULT:      -6.1      3.481      8.000
  Name = 
  19 active torsions:
  status: ('A' for Active; 'I' for Inactive)
    1  A    between atoms: C_1  and  C_12
    2  A    between atoms: C_1  and  C_31
    3  A    between atoms: C_4  and  C_15
    4  A    between atoms: C_4  and  C_16
    5  A    between atoms: N_5  and  N_47
    6  A    between atoms: C_7  and  C_20
    7  A    between atoms: C_7  and  C_45
    8  A    between atoms: C_8  and  C_20
    9  A    between atoms: C_8  and  C_23
   10  A    between atoms: C_8  and  N_47
   11  A    between atoms: C_11  and  C_15
   12  A    between atoms: C_11  and  C_33
   13  A    between atoms: C_12  and  O_27
   14  A    between atoms: C_12  and  C_39
   15  A    between atoms: C_18  and  C_23
   16  A    between atoms: C_18  and  C_34
   17  A    between atoms: C_23  and  O_41
   18  A    between atoms: C_39  and  C_46
   19  A    between atoms: O_41  and  C_46
                            x       y       z     vdW  Elec       q    Type
                         _______ _______ _______ _____ _____    ______ ____

>  <TORSDO>
F 19

$$$$
=
 OpenBabel11062415223D

 48 53  0  0  1  0  0  0  0  0999 V2000
  181.9850  178.2770  140.5140 C   0  0  2  0  0  3  0  0  0  0  0  0
  184.2580  180.5440  138.7790 O   0  0  0  0  0  0  0  0  0  0  0  0
  183.3590  179.6880  138.9890 C   0  0  0  0  0  3  0  0  0  0  0  0
  183.2120  179.0550  140.2740 N   0  0  0  0  0  0  0  0  0  0  0  0
  184.0920  179.3800  141.3370 N   0  0  0  0  0  0  0  0  0  0  0  0
  184.9920  178.2480  141.5510 C   0  0  2  0  0  0  0  0  0  0  0  0
  184.3880  177.8050  142.7980 N   0  0  0  0  0  2  0  0  0  0  0  0
  183.5090  178.9450  142.6060 C   0  0  2  0  0  3  0  0  0  0  0  0
  186.4130  178.7380  141.8400 C   0  0  0  0  0  2  0  0  0  0  0  0
  187.1010  177.8890  142.8960 C   0  0  0  0  0  2  0  0  0  0  0  0
  188.3480  177.2480  142.3160 C   0  0  0  0  0  2  0  0  0  0  0  0
  189.0320  177.9120  145.7540 C   0  0  0  0  0  2  0  0  0  0  0  0
  189.8270  176.8050  146.4550 C   0  0  0  0  0  2  0  0  0  0  0  0
  191.5550  176.1590  144.9580 N   0  0  0  0  0  0  0  0  0  0  0  0
  191.3100  176.9350  146.1720 C   0  0  2  0  0  3  0  0  0  0  0  0
  189.4690  178.2130  144.3100 C   0  0  0  0  0  2  0  0  0  0  0  0
  190.6990  176.6230  142.8280 C   0  0  0  0  0  3  0  0  0  0  0  0
  191.6870  176.2120  143.5650 N   0  0  0  0  0  0  0  0  0  0  0  0
  189.3570  176.9850  143.4130 C   0  0  2  0  0  3  0  0  0  0  0  0
  191.9480  175.8050  146.2620 O   0  0  0  0  0  0  0  0  0  0  0  0
  181.8000  177.1600  139.4740 C   0  0  2  0  0  3  0  0  0  0  0  0
  180.4170  176.5000  139.6360 C   0  0  2  0  0  3  0  0  0  0  0  0
  180.3800  175.6600  140.7530 O   0  0  0  0  0  1  0  0  0  0  0  0
  179.3720  174.2710  136.1070 C   0  0  0  0  0  3  0  0  0  0  0  0
  179.8260  176.3860  137.2030 C   0  0  0  0  0  3  0  0  0  0  0  0
  180.0390  175.7170  138.4150 C   0  0  0  0  0  0  0  0  0  0  0  0
  179.5760  173.5990  137.3170 C   0  0  0  0  0  3  0  0  0  0  0  0
  179.9080  174.3210  138.4680 C   0  0  0  0  0  3  0  0  0  0  0  0
  179.4950  175.6630  136.0510 C   0  0  0  0  0  3  0  0  0  0  0  0
  182.8190  176.2080  139.6040 O   0  0  0  0  0  0  0  0  0  0  0  0
  183.4200  176.1590  138.3410 C   0  0  0  0  0  2  0  0  0  0  0  0
  183.8040  174.7290  137.9960 C   0  0  0  0  0  2  0  0  0  0  0  0
  185.1100  174.7420  137.2150 C   0  0  1  0  0  3  0  0  0  0  0  0
  185.3050  172.7250  136.3250 C   0  0  0  0  0  1  0  0  0  0  0  0
  184.9430  174.0360  136.0200 O   0  0  0  0  0  0  0  0  0  0  0  0
  185.5370  176.1730  136.8920 C   0  0  0  0  0  2  0  0  0  0  0  0
  188.3700  178.5000  137.3660 C   0  0  0  0  0  2  0  0  0  0  0  0
  188.3680  175.3480  135.6060 O   0  0  0  0  0  1  0  0  0  0  0  0
  188.9750  177.5630  136.3410 C   0  0  0  0  0  0  0  0  0  0  0  0
  187.8600  176.6000  135.9640 C   0  0  2  0  0  3  0  0  0  0  0  0
  187.0050  176.4820  137.2080 C   0  0  1  0  0  3  0  0  0  0  0  0
  189.3970  178.2760  135.2290 F   0  0  0  0  0  0  0  0  0  0  0  0
  187.1860  177.7700  137.9940 C   0  0  0  0  0  2  0  0  0  0  0  0
  190.0520  176.8920  136.9100 F   0  0  0  0  0  0  0  0  0  0  0  0
  180.7670  179.1940  140.5850 C   0  0  0  0  0  2  0  0  0  0  0  0
  180.4730  179.5670  142.0250 C   0  0  0  0  0  2  0  0  0  0  0  0
  180.0080  178.4120  144.1710 C   0  0  0  0  0  1  0  0  0  0  0  0
  179.6780  178.4580  142.6940 C   0  0  0  0  0  2  0  0  0  0  0  0
  1 45  1  6  0  0  0
  2  3  2  0  0  0  0
  3  4  1  0  0  0  0
  4  1  1  0  0  0  0
  4  5  1  0  0  0  0
  5  6  1  0  0  0  0
  5  8  1  0  0  0  0
  6  9  1  1  0  0  0
  6  8  1  0  0  0  0
  6  7  1  0  0  0  0
  8  7  1  6  0  0  0
  9 10  1  0  0  0  0
 11 10  1  0  0  0  0
 12 13  1  0  0  0  0
 14 15  1  0  0  0  0
 14 20  1  0  0  0  0
 15 20  1  0  0  0  0
 15 13  1  1  0  0  0
 16 12  1  0  0  0  0
 17 19  1  0  0  0  0
 17 18  2  0  0  0  0
 18 14  1  0  0  0  0
 19 11  1  6  0  0  0
 19 16  1  0  0  0  0
 21 30  1  1  0  0  0
 21 22  1  0  0  0  0
 21  1  1  0  0  0  0
 22 23  1  1  0  0  0
 24 27  1  0  0  0  0
 25 26  2  0  0  0  0
 26 28  1  0  0  0  0
 26 22  1  0  0  0  0
 27 28  2  0  0  0  0
 29 24  2  0  0  0  0
 29 25  1  0  0  0  0
 31 30  1  0  0  0  0
 32 31  1  0  0  0  0
 33 36  1  6  0  0  0
 33 32  1  0  0  0  0
 35 34  1  0  0  0  0
 35 33  1  0  0  0  0
 37 43  1  0  0  0  0
 39 44  1  0  0  0  0
 39 37  1  0  0  0  0
 40 38  1  1  0  0  0
 40 39  1  0  0  0  0
 40 41  1  0  0  0  0
 41 36  1  6  0  0  0
 41 43  1  0  0  0  0
 42 39  1  0  0  0  0
 45 46  1  0  0  0  0
 46 48  1  0  0  0  0
 48 47  1  0  0  0  0
M  END
>  <MODEL>
7

>  <REMARK>
 VINA RESULT:      -6.1      3.926      9.595
  Name = 
  19 active torsions:
  status: ('A' for Active; 'I' for Inactive)
    1  A    between atoms: C_1  and  C_12
    2  A    between atoms: C_1  and  C_31
    3  A    between atoms: C_4  and  C_15
    4  A    between atoms: C_4  and  C_16
    5  A    between atoms: N_5  and  N_47
    6  A    between atoms: C_7  and  C_20
    7  A    between atoms: C_7  and  C_45
    8  A    between atoms: C_8  and  C_20
    9  A    between atoms: C_8  and  C_23
   10  A    between atoms: C_8  and  N_47
   11  A    between atoms: C_11  and  C_15
   12  A    between atoms: C_11  and  C_33
   13  A    between atoms: C_12  and  O_27
   14  A    between atoms: C_12  and  C_39
   15  A    between atoms: C_18  and  C_23
   16  A    between atoms: C_18  and  C_34
   17  A    between atoms: C_23  and  O_41
   18  A    between atoms: C_39  and  C_46
   19  A    between atoms: O_41  and  C_46
                            x       y       z     vdW  Elec       q    Type
                         _______ _______ _______ _____ _____    ______ ____

>  <TORSDO>
F 19

$$$$
=
 OpenBabel11062415223D

 48 53  0  0  1  0  0  0  0  0999 V2000
  189.6380  178.1020  138.9610 C   0  0  2  0  0  3  0  0  0  0  0  0
  188.0610  175.1820  137.4450 O   0  0  0  0  0  0  0  0  0  0  0  0
  188.2740  176.1570  138.2100 C   0  0  0  0  0  3  0  0  0  0  0  0
  189.5540  176.8170  138.2450 N   0  0  0  0  0  0  0  0  0  0  0  0
  190.6120  176.3710  137.4150 N   0  0  0  0  0  0  0  0  0  0  0  0
  191.1000  175.0960  137.9380 C   0  0  2  0  0  0  0  0  0  0  0  0
  192.3510  175.6170  138.4690 N   0  0  0  0  0  2  0  0  0  0  0  0
  191.8850  176.8800  137.9260 C   0  0  2  0  0  3  0  0  0  0  0  0
  191.4160  174.1300  136.7930 C   0  0  0  0  0  2  0  0  0  0  0  0
  192.6020  173.2370  137.1180 C   0  0  0  0  0  2  0  0  0  0  0  0
  193.6930  173.4240  136.0790 C   0  0  0  0  0  2  0  0  0  0  0  0
  197.0950  174.2550  135.4000 C   0  0  0  0  0  2  0  0  0  0  0  0
  197.7080  175.2360  136.4040 C   0  0  0  0  0  2  0  0  0  0  0  0
  197.0240  174.5130  138.5620 N   0  0  0  0  0  0  0  0  0  0  0  0
  198.1710  174.5170  137.6560 C   0  0  2  0  0  3  0  0  0  0  0  0
  196.1630  173.1940  136.0110 C   0  0  0  0  0  2  0  0  0  0  0  0
  194.9860  173.4170  138.2020 C   0  0  0  0  0  3  0  0  0  0  0  0
  195.9250  173.7790  139.0240 N   0  0  0  0  0  0  0  0  0  0  0  0
  194.9890  173.8250  136.7500 C   0  0  2  0  0  3  0  0  0  0  0  0
  198.1920  175.2840  138.7070 O   0  0  0  0  0  0  0  0  0  0  0  0
  189.3560  177.9430  140.4630 C   0  0  2  0  0  3  0  0  0  0  0  0
  190.2990  176.8900  141.0780 C   0  0  2  0  0  3  0  0  0  0  0  0
  189.6810  175.6390  141.1610 O   0  0  0  0  0  1  0  0  0  0  0  0
  191.6840  178.0580  144.9800 C   0  0  0  0  0  3  0  0  0  0  0  0
  191.1770  176.3300  143.3580 C   0  0  0  0  0  3  0  0  0  0  0  0
  190.7660  177.3040  142.4400 C   0  0  0  0  0  0  0  0  0  0  0  0
  191.2680  179.0360  144.0710 C   0  0  0  0  0  3  0  0  0  0  0  0
  190.8090  178.6600  142.8040 C   0  0  0  0  0  3  0  0  0  0  0  0
  191.6360  176.7070  144.6250 C   0  0  0  0  0  3  0  0  0  0  0  0
  188.0180  177.5840  140.6650 O   0  0  0  0  0  0  0  0  0  0  0  0
  187.5370  178.5190  141.5910 C   0  0  0  0  0  2  0  0  0  0  0  0
  187.1310  177.8230  142.8790 C   0  0  0  0  0  2  0  0  0  0  0  0
  185.8280  178.4300  143.3790 C   0  0  1  0  0  3  0  0  0  0  0  0
  183.6930  178.7640  142.9020 C   0  0  0  0  0  1  0  0  0  0  0  0
  184.7600  177.9040  142.6460 O   0  0  0  0  0  0  0  0  0  0  0  0
  185.6150  178.1170  144.8600 C   0  0  0  0  0  2  0  0  0  0  0  0
  188.5590  177.0900  146.8470 C   0  0  0  0  0  2  0  0  0  0  0  0
  186.0530  179.5410  147.7110 O   0  0  0  0  0  1  0  0  0  0  0  0
  187.8210  177.9110  147.8850 C   0  0  0  0  0  0  0  0  0  0  0  0
  186.5100  178.3130  147.2270 C   0  0  2  0  0  3  0  0  0  0  0  0
  186.8270  178.4170  145.7500 C   0  0  1  0  0  3  0  0  0  0  0  0
  187.5800  177.1470  149.0170 F   0  0  0  0  0  0  0  0  0  0  0  0
  188.0040  177.4930  145.4830 C   0  0  0  0  0  2  0  0  0  0  0  0
  188.5830  179.0250  148.2180 F   0  0  0  0  0  0  0  0  0  0  0  0
  188.7230  179.1410  138.3190 C   0  0  0  0  0  2  0  0  0  0  0  0
  188.9170  179.1550  136.8150 C   0  0  0  0  0  2  0  0  0  0  0  0
  187.9010  177.7520  135.0390 C   0  0  0  0  0  1  0  0  0  0  0  0
  187.6200  178.7710  136.1220 C   0  0  0  0  0  2  0  0  0  0  0  0
  1 45  1  6  0  0  0
  1 21  1  0  0  0  0
  2  3  2  0  0  0  0
  3  4  1  0  0  0  0
  4  1  1  0  0  0  0
  5  8  1  0  0  0  0
  5  6  1  0  0  0  0
  5  4  1  0  0  0  0
  6  9  1  6  0  0  0
  6  7  1  0  0  0  0
  8  6  1  0  0  0  0
  8  7  1  1  0  0  0
  9 10  1  0  0  0  0
 11 10  1  0  0  0  0
 12 16  1  0  0  0  0
 12 13  1  0  0  0  0
 14 20  1  0  0  0  0
 14 18  1  0  0  0  0
 15 13  1  6  0  0  0
 15 14  1  0  0  0  0
 15 20  1  0  0  0  0
 16 19  1  0  0  0  0
 17 18  2  0  0  0  0
 19 11  1  6  0  0  0
 19 17  1  0  0  0  0
 21 30  1  6  0  0  0
 21 22  1  0  0  0  0
 22 23  1  1  0  0  0
 22 26  1  0  0  0  0
 25 29  2  0  0  0  0
 26 28  2  0  0  0  0
 26 25  1  0  0  0  0
 27 24  2  0  0  0  0
 28 27  1  0  0  0  0
 29 24  1  0  0  0  0
 30 31  1  0  0  0  0
 31 32  1  0  0  0  0
 33 32  1  6  0  0  0
 33 36  1  0  0  0  0
 35 34  1  0  0  0  0
 35 33  1  0  0  0  0
 37 39  1  0  0  0  0
 39 44  1  0  0  0  0
 39 42  1  0  0  0  0
 40 38  1  1  0  0  0
 40 39  1  0  0  0  0
 41 36  1  6  0  0  0
 41 40  1  0  0  0  0
 43 41  1  0  0  0  0
 43 37  1  0  0  0  0
 46 45  1  0  0  0  0
 47 48  1  0  0  0  0
 48 46  1  0  0  0  0
M  END
>  <MODEL>
8

>  <REMARK>
 VINA RESULT:      -6.0      3.441      8.413
  Name = 
  19 active torsions:
  status: ('A' for Active; 'I' for Inactive)
    1  A    between atoms: C_1  and  C_12
    2  A    between atoms: C_1  and  C_31
    3  A    between atoms: C_4  and  C_15
    4  A    between atoms: C_4  and  C_16
    5  A    between atoms: N_5  and  N_47
    6  A    between atoms: C_7  and  C_20
    7  A    between atoms: C_7  and  C_45
    8  A    between atoms: C_8  and  C_20
    9  A    between atoms: C_8  and  C_23
   10  A    between atoms: C_8  and  N_47
   11  A    between atoms: C_11  and  C_15
   12  A    between atoms: C_11  and  C_33
   13  A    between atoms: C_12  and  O_27
   14  A    between atoms: C_12  and  C_39
   15  A    between atoms: C_18  and  C_23
   16  A    between atoms: C_18  and  C_34
   17  A    between atoms: C_23  and  O_41
   18  A    between atoms: C_39  and  C_46
   19  A    between atoms: O_41  and  C_46
                            x       y       z     vdW  Elec       q    Type
                         _______ _______ _______ _____ _____    ______ ____

>  <TORSDO>
F 19

$$$$
=
 OpenBabel11062415223D

 48 53  0  0  1  0  0  0  0  0999 V2000
  180.9170  178.4080  138.8210 C   0  0  2  0  0  3  0  0  0  0  0  0
  184.0640  180.0880  139.5850 O   0  0  0  0  0  0  0  0  0  0  0  0
  183.2180  179.3370  139.0350 C   0  0  0  0  0  3  0  0  0  0  0  0
  181.9420  179.0700  139.6460 N   0  0  0  0  0  0  0  0  0  0  0  0
  181.6130  179.6480  140.8980 N   0  0  0  0  0  0  0  0  0  0  0  0
  181.8110  178.6370  141.9360 C   0  0  2  0  0  0  0  0  0  0  0  0
  180.3980  178.4020  142.1920 N   0  0  0  0  0  2  0  0  0  0  0  0
  180.1950  179.4250  141.1830 C   0  0  2  0  0  3  0  0  0  0  0  0
  182.4400  179.2630  143.1830 C   0  0  0  0  0  2  0  0  0  0  0  0
  183.7460  178.5810  143.5600 C   0  0  0  0  0  2  0  0  0  0  0  0
  184.4530  178.0880  142.3110 C   0  0  0  0  0  2  0  0  0  0  0  0
  186.8330  177.4430  144.8880 C   0  0  0  0  0  2  0  0  0  0  0  0
  188.1120  176.7570  144.3970 C   0  0  0  0  0  2  0  0  0  0  0  0
  188.7410  177.8570  142.3860 N   0  0  0  0  0  0  0  0  0  0  0  0
  189.0780  177.7640  143.8050 C   0  0  2  0  0  3  0  0  0  0  0  0
  186.2680  178.5210  143.9470 C   0  0  0  0  0  2  0  0  0  0  0  0
  186.7300  178.6630  141.4960 C   0  0  0  0  0  3  0  0  0  0  0  0
  188.0240  178.5710  141.4180 N   0  0  0  0  0  0  0  0  0  0  0  0
  185.9380  177.9580  142.5690 C   0  0  2  0  0  3  0  0  0  0  0  0
  189.8860  177.2440  142.9280 O   0  0  0  0  0  0  0  0  0  0  0  0
  181.1760  176.8990  138.6830 C   0  0  2  0  0  3  0  0  0  0  0  0
  179.8990  176.1030  139.0170 C   0  0  2  0  0  3  0  0  0  0  0  0
  179.9520  175.5710  140.3080 O   0  0  0  0  0  1  0  0  0  0  0  0
  179.2950  172.9360  136.1680 C   0  0  0  0  0  3  0  0  0  0  0  0
  179.5590  175.2930  136.6700 C   0  0  0  0  0  3  0  0  0  0  0  0
  179.6740  174.9950  138.0330 C   0  0  0  0  0  0  0  0  0  0  0  0
  179.4010  172.6330  137.5290 C   0  0  0  0  0  3  0  0  0  0  0  0
  179.5900  173.6610  138.4590 C   0  0  0  0  0  3  0  0  0  0  0  0
  179.3710  174.2650  135.7390 C   0  0  0  0  0  3  0  0  0  0  0  0
  182.2290  176.5140  139.5220 O   0  0  0  0  0  0  0  0  0  0  0  0
  182.9760  175.6090  138.7580 C   0  0  0  0  0  2  0  0  0  0  0  0
  183.2160  176.1690  137.3660 C   0  0  0  0  0  2  0  0  0  0  0  0
  184.6290  175.8150  136.9270 C   0  0  1  0  0  3  0  0  0  0  0  0
  184.8490  173.7090  136.2810 C   0  0  0  0  0  1  0  0  0  0  0  0
  184.5720  174.9880  135.8000 O   0  0  0  0  0  0  0  0  0  0  0  0
  185.4220  177.0740  136.5790 C   0  0  0  0  0  2  0  0  0  0  0  0
  188.6790  178.7000  137.2210 C   0  0  0  0  0  2  0  0  0  0  0  0
  187.9390  175.1670  137.1950 O   0  0  0  0  0  1  0  0  0  0  0  0
  189.1310  177.2600  137.0920 C   0  0  0  0  0  0  0  0  0  0  0  0
  187.8850  176.4760  136.7100 C   0  0  2  0  0  3  0  0  0  0  0  0
  186.7370  177.2260  137.3520 C   0  0  1  0  0  3  0  0  0  0  0  0
  190.0970  177.1480  136.1030 F   0  0  0  0  0  0  0  0  0  0  0  0
  187.1780  178.6730  137.4970 C   0  0  0  0  0  2  0  0  0  0  0  0
  189.6470  176.8290  138.3090 F   0  0  0  0  0  0  0  0  0  0  0  0
  180.7930  179.0890  137.4600 C   0  0  0  0  0  2  0  0  0  0  0  0
  179.7610  180.1990  137.5210 C   0  0  0  0  0  2  0  0  0  0  0  0
  181.0870  182.1520  138.2840 C   0  0  0  0  0  1  0  0  0  0  0  0
  180.3930  181.5160  137.0990 C   0  0  0  0  0  2  0  0  0  0  0  0
  1 45  1  6  0  0  0
  1  4  1  0  0  0  0
  3  2  2  0  0  0  0
  3  4  1  0  0  0  0
  4  5  1  0  0  0  0
  5  8  1  0  0  0  0
  5  6  1  0  0  0  0
  6  7  1  0  0  0  0
  6  9  1  1  0  0  0
  8  6  1  0  0  0  0
  8  7  1  6  0  0  0
  9 10  1  0  0  0  0
 11 10  1  0  0  0  0
 13 12  1  0  0  0  0
 14 20  1  0  0  0  0
 14 15  1  0  0  0  0
 15 13  1  1  0  0  0
 16 12  1  0  0  0  0
 17 19  1  0  0  0  0
 18 17  2  0  0  0  0
 18 14  1  0  0  0  0
 19 11  1  6  0  0  0
 19 16  1  0  0  0  0
 20 15  1  0  0  0  0
 21  1  1  0  0  0  0
 21 22  1  0  0  0  0
 21 30  1  1  0  0  0
 22 23  1  1  0  0  0
 24 27  1  0  0  0  0
 25 26  2  0  0  0  0
 26 28  1  0  0  0  0
 26 22  1  0  0  0  0
 27 28  2  0  0  0  0
 29 24  2  0  0  0  0
 29 25  1  0  0  0  0
 31 30  1  0  0  0  0
 32 31  1  0  0  0  0
 33 36  1  6  0  0  0
 33 32  1  0  0  0  0
 35 34  1  0  0  0  0
 35 33  1  0  0  0  0
 37 43  1  0  0  0  0
 39 37  1  0  0  0  0
 39 44  1  0  0  0  0
 40 39  1  0  0  0  0
 40 38  1  1  0  0  0
 40 41  1  0  0  0  0
 41 36  1  6  0  0  0
 41 43  1  0  0  0  0
 42 39  1  0  0  0  0
 45 46  1  0  0  0  0
 48 46  1  0  0  0  0
 48 47  1  0  0  0  0
M  END
>  <MODEL>
9

>  <REMARK>
 VINA RESULT:      -6.0      3.416      9.048
  Name = 
  19 active torsions:
  status: ('A' for Active; 'I' for Inactive)
    1  A    between atoms: C_1  and  C_12
    2  A    between atoms: C_1  and  C_31
    3  A    between atoms: C_4  and  C_15
    4  A    between atoms: C_4  and  C_16
    5  A    between atoms: N_5  and  N_47
    6  A    between atoms: C_7  and  C_20
    7  A    between atoms: C_7  and  C_45
    8  A    between atoms: C_8  and  C_20
    9  A    between atoms: C_8  and  C_23
   10  A    between atoms: C_8  and  N_47
   11  A    between atoms: C_11  and  C_15
   12  A    between atoms: C_11  and  C_33
   13  A    between atoms: C_12  and  O_27
   14  A    between atoms: C_12  and  C_39
   15  A    between atoms: C_18  and  C_23
   16  A    between atoms: C_18  and  C_34
   17  A    between atoms: C_23  and  O_41
   18  A    between atoms: C_39  and  C_46
   19  A    between atoms: O_41  and  C_46
                            x       y       z     vdW  Elec       q    Type
                         _______ _______ _______ _____ _____    ______ ____

>  <TORSDO>
F 19

$$$$
