=
 OpenBabel11062417353D

 57 66  0  0  1  0  0  0  0  0999 V2000
  181.8140  177.9700  140.4930 C   0  0  2  0  0  0  0  0  0  0  0  0
  181.7640  178.8970  139.4380 O   0  0  0  0  0  1  0  0  0  0  0  0
  180.6900  176.1030  139.2850 C   0  0  1  0  0  0  0  0  0  0  0  0
  180.5030  174.8090  139.7660 O   0  0  0  0  0  1  0  0  0  0  0  0
  179.8790  177.2990  137.3630 O   0  0  0  0  0  0  0  0  0  0  0  0
  181.9420  176.2370  138.3330 C   0  0  2  0  0  0  0  0  0  0  0  0
  182.5170  177.4500  137.6070 C   0  0  0  0  0  1  0  0  0  0  0  0
  178.9370  172.7910  135.3860 F   0  0  0  0  0  0  0  0  0  0  0  0
  181.1860  174.6290  135.9590 O   0  0  0  0  0  0  0  0  0  0  0  0
  179.9010  172.4800  136.3350 C   0  0  2  0  0  0  0  0  0  0  0  0
  180.1790  174.9270  136.8960 C   0  0  2  0  0  0  0  0  0  0  0  0
  180.5270  176.1230  137.7860 C   0  0  1  0  0  0  0  0  0  0  0  0
  179.0700  176.9250  136.2700 C   0  0  0  0  0  2  0  0  0  0  0  0
  180.1310  173.5050  137.4320 C   0  0  2  0  0  3  0  0  0  0  0  0
  178.9310  175.4140  136.2210 C   0  0  0  0  0  2  0  0  0  0  0  0
  182.0140  176.5630  139.8390 C   0  0  1  0  0  3  0  0  0  0  0  0
  181.1930  173.2740  136.3550 C   0  0  2  0  0  0  0  0  0  0  0  0
  184.6170  172.1320  134.8230 O   0  0  0  0  0  0  0  0  0  0  0  0
  185.7750  173.8970  135.9240 N   0  0  0  0  0  0  0  0  0  0  0  0
  183.4480  170.4080  136.8810 F   0  0  0  0  0  0  0  0  0  0  0  0
  183.7260  173.4480  136.7040 C   0  0  0  0  0  0  0  0  0  0  0  0
  182.4940  172.6060  136.8320 C   0  0  2  0  0  3  0  0  0  0  0  0
  184.1250  174.3570  137.5200 N   0  0  0  0  0  0  0  0  0  0  0  0
  183.3680  171.4370  134.7160 C   0  0  0  0  0  2  0  0  0  0  0  0
  182.6920  171.2620  136.0960 C   0  0  1  0  0  3  0  0  0  0  0  0
  185.4580  174.7680  137.0620 C   0  0  0  0  0  2  0  0  0  0  0  0
  184.7390  173.1600  135.7510 C   0  0  0  0  0  0  0  0  0  0  0  0
  179.9580  171.1620  136.8100 O   0  0  0  0  0  0  0  0  0  0  0  0
  178.9980  170.4440  136.0880 C   0  0  0  0  0  1  0  0  0  0  0  0
  179.0220  180.2380  140.8790 C   0  0  0  0  0  2  0  0  0  0  0  0
  179.4410  178.8550  140.3240 C   0  0  0  0  0  2  0  0  0  0  0  0
  180.0100  180.8100  141.7790 N   0  0  0  0  0  0  0  0  0  0  0  0
  181.2090  177.8700  143.6830 C   0  0  0  0  0  1  0  0  0  0  0  0
  180.6360  180.0850  142.6420 C   0  0  0  0  0  3  0  0  0  0  0  0
  180.3880  178.6130  142.6510 C   0  0  1  0  0  3  0  0  0  0  0  0
  180.4350  178.0640  141.2090 C   0  0  2  0  0  3  0  0  0  0  0  0
  182.8840  178.3170  141.4500 N   0  0  0  0  0  2  0  0  0  0  0  0
  184.2150  177.8890  141.0250 C   0  0  0  0  0  2  0  0  0  0  0  0
  185.2410  178.2970  142.0700 C   0  0  1  0  0  3  0  0  0  0  0  0
  189.3820  176.7230  142.7970 O   0  0  0  0  0  0  0  0  0  0  0  0
  189.0550  178.3970  141.1420 C   0  0  2  0  0  3  0  0  0  0  0  0
  188.0350  177.0030  142.7640 C   0  0  0  0  0  0  0  0  0  0  0  0
  187.1940  176.4300  143.5050 O   0  0  0  0  0  0  0  0  0  0  0  0
  190.1010  177.5190  141.8600 C   0  0  0  0  0  2  0  0  0  0  0  0
  186.5850  178.5980  141.4630 C   0  0  0  0  0  3  0  0  0  0  0  0
  187.7540  178.0230  141.7750 C   0  0  0  0  0  0  0  0  0  0  0  0
  189.0490  178.0980  139.6760 C   0  0  0  0  0  0  0  0  0  0  0  0
  189.4110  176.9570  139.2800 O   0  0  0  0  0  0  0  0  0  0  0  0
  188.6610  179.0790  138.7620 O   0  0  0  0  0  0  0  0  0  0  0  0
  188.9950  178.9940  137.3840 C   0  0  0  0  0  1  0  0  0  0  0  0
  184.7150  179.4350  142.9380 C   0  0  0  0  0  2  0  0  0  0  0  0
  186.2580  178.6450  146.2950 C   0  0  0  0  0  3  0  0  0  0  0  0
  184.8630  179.1180  144.3870 C   0  0  0  0  0  0  0  0  0  0  0  0
  186.1370  178.9700  144.9430 C   0  0  0  0  0  3  0  0  0  0  0  0
  183.7310  178.9340  145.1850 C   0  0  0  0  0  3  0  0  0  0  0  0
  185.1430  178.4730  147.0570 N   0  0  0  0  0  0  0  0  0  0  0  0
  183.8940  178.6110  146.5340 C   0  0  0  0  0  3  0  0  0  0  0  0
  1  2  1  6  0  0  0
  1 36  1  0  0  0  0
  1 37  1  0  0  0  0
  3  4  1  1  0  0  0
  3 16  1  0  0  0  0
  6  7  1  1  0  0  0
  6  3  1  0  0  0  0
  6 16  1  0  0  0  0
  9 17  1  0  0  0  0
  9 11  1  0  0  0  0
 10  8  1  6  0  0  0
 10 17  1  0  0  0  0
 10 28  1  0  0  0  0
 10 14  1  0  0  0  0
 11 15  1  6  0  0  0
 11 14  1  0  0  0  0
 11 12  1  0  0  0  0
 12  5  1  6  0  0  0
 12  6  1  0  0  0  0
 12  3  1  0  0  0  0
 13  5  1  0  0  0  0
 15 13  1  0  0  0  0
 16  1  1  0  0  0  0
 17 22  1  0  0  0  0
 17 14  1  0  0  0  0
 18 27  1  0  0  0  0
 19 26  1  0  0  0  0
 21 22  1  0  0  0  0
 21 23  2  0  0  0  0
 24 18  1  0  0  0  0
 24 25  1  0  0  0  0
 25 22  1  0  0  0  0
 25 20  1  0  0  0  0
 26 23  1  0  0  0  0
 27 19  2  0  0  0  0
 27 21  1  0  0  0  0
 29 28  1  0  0  0  0
 30 32  1  0  0  0  0
 31 30  1  0  0  0  0
 31 36  1  0  0  0  0
 32 34  2  0  0  0  0
 34 35  1  0  0  0  0
 35 33  1  0  0  0  0
 36 35  1  0  0  0  0
 38 37  1  0  0  0  0
 38 39  1  0  0  0  0
 39 51  1  0  0  0  0
 41 46  1  0  0  0  0
 41 44  1  0  0  0  0
 42 40  1  0  0  0  0
 42 43  2  0  0  0  0
 44 40  1  0  0  0  0
 45 46  2  0  0  0  0
 45 39  1  0  0  0  0
 46 42  1  0  0  0  0
 47 41  1  0  0  0  0
 48 47  2  0  0  0  0
 49 47  1  0  0  0  0
 50 49  1  0  0  0  0
 51 53  1  0  0  0  0
 52 56  1  0  0  0  0
 53 54  1  0  0  0  0
 53 55  2  0  0  0  0
 54 52  2  0  0  0  0
 55 57  1  0  0  0  0
 57 56  2  0  0  0  0
M  END
>  <MODEL>
1

>  <REMARK>
 VINA RESULT:      -7.4      0.000      0.000
  Name = 
  12 active torsions:
  status: ('A' for Active; 'I' for Inactive)
    1  A    between atoms: C_10  and  C_12
    2  A    between atoms: C_12  and  C_23
    3  A    between atoms: O_20  and  C_24
    4  A    between atoms: C_22  and  C_39
    5  A    between atoms: C_23  and  C_31
    6  A    between atoms: C_23  and  C_44
    7  A    between atoms: C_26  and  C_46
    8  A    between atoms: C_26  and  C_48
    9  A    between atoms: C_26  and  N_51
   10  A    between atoms: C_31  and  N_51
   11  A    between atoms: O_33  and  C_39
   12  A    between atoms: C_37  and  C_50
                            x       y       z     vdW  Elec       q    Type
                         _______ _______ _______ _____ _____    ______ ____

>  <TORSDO>
F 12

$$$$
=
 OpenBabel11062417353D

 57 66  0  0  1  0  0  0  0  0999 V2000
  188.8840  177.2140  137.1680 C   0  0  2  0  0  0  0  0  0  0  0  0
  188.9520  178.5830  136.8590 O   0  0  0  0  0  1  0  0  0  0  0  0
  190.3640  175.2140  137.3110 C   0  0  1  0  0  0  0  0  0  0  0  0
  191.1000  174.8160  138.4250 O   0  0  0  0  0  1  0  0  0  0  0  0
  189.8650  174.1940  135.1910 O   0  0  0  0  0  0  0  0  0  0  0  0
  191.2170  176.0260  136.2590 C   0  0  2  0  0  0  0  0  0  0  0  0
  190.8210  176.6550  134.9260 C   0  0  0  0  0  1  0  0  0  0  0  0
  193.8360  171.2620  136.0610 F   0  0  0  0  0  0  0  0  0  0  0  0
  193.1480  174.0210  135.2360 O   0  0  0  0  0  0  0  0  0  0  0  0
  194.1130  172.3500  136.8760 C   0  0  2  0  0  0  0  0  0  0  0  0
  192.0690  173.5560  136.0110 C   0  0  2  0  0  0  0  0  0  0  0  0
  190.9050  174.5480  136.0710 C   0  0  1  0  0  0  0  0  0  0  0  0
  190.2590  172.9790  134.5940 C   0  0  0  0  0  2  0  0  0  0  0  0
  192.9450  173.2590  137.2170 C   0  0  2  0  0  3  0  0  0  0  0  0
  191.4110  172.3670  135.3720 C   0  0  0  0  0  2  0  0  0  0  0  0
  190.3580  176.7210  137.3360 C   0  0  1  0  0  3  0  0  0  0  0  0
  194.0550  173.7450  136.2830 C   0  0  2  0  0  0  0  0  0  0  0  0
  197.6580  175.1590  135.6550 O   0  0  0  0  0  0  0  0  0  0  0  0
  196.7810  177.1430  134.6730 N   0  0  0  0  0  0  0  0  0  0  0  0
  196.7420  175.0560  138.4340 F   0  0  0  0  0  0  0  0  0  0  0  0
  195.3290  175.9300  135.8670 C   0  0  0  0  0  0  0  0  0  0  0  0
  194.9630  174.8530  136.8430 C   0  0  2  0  0  3  0  0  0  0  0  0
  194.6160  176.9480  135.5440 N   0  0  0  0  0  0  0  0  0  0  0  0
  197.3310  173.9670  136.3800 C   0  0  0  0  0  2  0  0  0  0  0  0
  196.2400  174.2280  137.4460 C   0  0  1  0  0  3  0  0  0  0  0  0
  195.4680  177.7970  134.7000 C   0  0  0  0  0  2  0  0  0  0  0  0
  196.6450  176.0630  135.3540 C   0  0  0  0  0  0  0  0  0  0  0  0
  194.9790  172.1580  137.9610 O   0  0  0  0  0  0  0  0  0  0  0  0
  195.3700  170.8150  137.9160 C   0  0  0  0  0  1  0  0  0  0  0  0
  186.3830  177.8850  134.6410 C   0  0  0  0  0  2  0  0  0  0  0  0
  187.8870  177.6000  134.8650 C   0  0  0  0  0  2  0  0  0  0  0  0
  185.5690  177.5800  135.8060 N   0  0  0  0  0  0  0  0  0  0  0  0
  187.1180  174.4860  137.1230 C   0  0  0  0  0  1  0  0  0  0  0  0
  185.7850  176.5310  136.5230 C   0  0  0  0  0  3  0  0  0  0  0  0
  186.9510  175.6630  136.1850 C   0  0  1  0  0  3  0  0  0  0  0  0
  188.2020  176.5340  135.9440 C   0  0  2  0  0  3  0  0  0  0  0  0
  188.0590  176.9850  138.3720 N   0  0  0  0  0  2  0  0  0  0  0  0
  187.3870  178.1870  138.8600 C   0  0  0  0  0  2  0  0  0  0  0  0
  187.1520  178.0680  140.3580 C   0  0  1  0  0  3  0  0  0  0  0  0
  188.1650  177.2170  144.6480 O   0  0  0  0  0  0  0  0  0  0  0  0
  189.9050  177.8240  143.1470 C   0  0  2  0  0  3  0  0  0  0  0  0
  187.5900  177.3950  143.4100 C   0  0  0  0  0  0  0  0  0  0  0  0
  186.3600  177.2400  143.1940 O   0  0  0  0  0  0  0  0  0  0  0  0
  189.5670  177.4610  144.6080 C   0  0  0  0  0  2  0  0  0  0  0  0
  188.4400  178.0720  141.1380 C   0  0  0  0  0  3  0  0  0  0  0  0
  188.5930  177.7720  142.4360 C   0  0  0  0  0  0  0  0  0  0  0  0
  190.8690  176.8310  142.5790 C   0  0  0  0  0  0  0  0  0  0  0  0
  190.5570  175.6110  142.5630 O   0  0  0  0  0  0  0  0  0  0  0  0
  192.1050  177.2570  142.0860 O   0  0  0  0  0  0  0  0  0  0  0  0
  192.3190  177.4900  140.7020 C   0  0  0  0  0  1  0  0  0  0  0  0
  186.1640  179.1220  140.8420 C   0  0  0  0  0  2  0  0  0  0  0  0
  183.0830  179.1150  138.6570 C   0  0  0  0  0  3  0  0  0  0  0  0
  184.7900  178.8440  140.3360 C   0  0  0  0  0  0  0  0  0  0  0  0
  184.3820  179.3600  139.1030 C   0  0  0  0  0  3  0  0  0  0  0  0
  183.8940  178.0980  141.1070 C   0  0  0  0  0  3  0  0  0  0  0  0
  182.2260  178.3830  139.4200 N   0  0  0  0  0  0  0  0  0  0  0  0
  182.6030  177.8740  140.6250 C   0  0  0  0  0  3  0  0  0  0  0  0
  1  2  1  6  0  0  0
  1 16  1  0  0  0  0
  1 37  1  0  0  0  0
  3 16  1  0  0  0  0
  3  4  1  1  0  0  0
  6  7  1  6  0  0  0
  6  3  1  0  0  0  0
  6 16  1  0  0  0  0
  9 11  1  0  0  0  0
  9 17  1  0  0  0  0
 10  8  1  6  0  0  0
 10 14  1  0  0  0  0
 10 28  1  0  0  0  0
 11 15  1  6  0  0  0
 11 12  1  0  0  0  0
 11 14  1  0  0  0  0
 12  5  1  6  0  0  0
 12  6  1  0  0  0  0
 12  3  1  0  0  0  0
 13  5  1  0  0  0  0
 13 15  1  0  0  0  0
 17 22  1  0  0  0  0
 17 10  1  0  0  0  0
 17 14  1  0  0  0  0
 18 24  1  0  0  0  0
 19 26  1  0  0  0  0
 19 27  2  0  0  0  0
 21 22  1  0  0  0  0
 22 25  1  0  0  0  0
 23 21  2  0  0  0  0
 24 25  1  0  0  0  0
 25 20  1  0  0  0  0
 26 23  1  0  0  0  0
 27 18  1  0  0  0  0
 27 21  1  0  0  0  0
 29 28  1  0  0  0  0
 30 31  1  0  0  0  0
 30 32  1  0  0  0  0
 31 36  1  0  0  0  0
 32 34  2  0  0  0  0
 35 34  1  0  0  0  0
 35 33  1  0  0  0  0
 36 35  1  0  0  0  0
 36  1  1  0  0  0  0
 37 38  1  0  0  0  0
 38 39  1  0  0  0  0
 39 51  1  0  0  0  0
 39 45  1  0  0  0  0
 41 44  1  0  0  0  0
 42 40  1  0  0  0  0
 43 42  2  0  0  0  0
 44 40  1  0  0  0  0
 45 46  2  0  0  0  0
 46 41  1  0  0  0  0
 46 42  1  0  0  0  0
 47 41  1  0  0  0  0
 48 47  2  0  0  0  0
 49 47  1  0  0  0  0
 50 49  1  0  0  0  0
 52 54  2  0  0  0  0
 52 56  1  0  0  0  0
 53 51  1  0  0  0  0
 53 55  2  0  0  0  0
 54 53  1  0  0  0  0
 56 57  2  0  0  0  0
 57 55  1  0  0  0  0
M  END
>  <MODEL>
2

>  <REMARK>
 VINA RESULT:      -6.8      5.497      9.641
  Name = 
  12 active torsions:
  status: ('A' for Active; 'I' for Inactive)
    1  A    between atoms: C_10  and  C_12
    2  A    between atoms: C_12  and  C_23
    3  A    between atoms: O_20  and  C_24
    4  A    between atoms: C_22  and  C_39
    5  A    between atoms: C_23  and  C_31
    6  A    between atoms: C_23  and  C_44
    7  A    between atoms: C_26  and  C_46
    8  A    between atoms: C_26  and  C_48
    9  A    between atoms: C_26  and  N_51
   10  A    between atoms: C_31  and  N_51
   11  A    between atoms: O_33  and  C_39
   12  A    between atoms: C_37  and  C_50
                            x       y       z     vdW  Elec       q    Type
                         _______ _______ _______ _____ _____    ______ ____

>  <TORSDO>
F 12

$$$$
=
 OpenBabel11062417353D

 57 66  0  0  1  0  0  0  0  0999 V2000
  181.9220  178.5500  138.5930 C   0  0  2  0  0  0  0  0  0  0  0  0
  180.8210  178.9820  137.8330 O   0  0  0  0  0  1  0  0  0  0  0  0
  180.7150  176.4990  137.8520 C   0  0  1  0  0  0  0  0  0  0  0  0
  180.3790  175.4100  138.6520 O   0  0  0  0  0  1  0  0  0  0  0  0
  180.1480  177.1570  135.6090 O   0  0  0  0  0  0  0  0  0  0  0  0
  182.0360  176.2730  137.0160 C   0  0  2  0  0  0  0  0  0  0  0  0
  182.7670  177.1900  136.0380 C   0  0  0  0  0  1  0  0  0  0  0  0
  178.9340  172.3490  134.8780 F   0  0  0  0  0  0  0  0  0  0  0  0
  181.2980  174.1160  135.1210 O   0  0  0  0  0  0  0  0  0  0  0  0
  179.8000  172.2540  135.9580 C   0  0  2  0  0  0  0  0  0  0  0  0
  180.2620  174.7340  135.8450 C   0  0  2  0  0  0  0  0  0  0  0  0
  180.6560  176.1070  136.3970 C   0  0  1  0  0  0  0  0  0  0  0  0
  179.3840  176.5460  134.5940 C   0  0  0  0  0  2  0  0  0  0  0  0
  180.0480  173.5290  136.7460 C   0  0  2  0  0  3  0  0  0  0  0  0
  179.1110  175.0950  134.9510 C   0  0  0  0  0  2  0  0  0  0  0  0
  182.0350  177.0060  138.3740 C   0  0  1  0  0  3  0  0  0  0  0  0
  181.1550  172.9310  135.8750 C   0  0  2  0  0  0  0  0  0  0  0  0
  184.7800  171.6710  135.0690 O   0  0  0  0  0  0  0  0  0  0  0  0
  185.7480  173.5620  136.1440 N   0  0  0  0  0  0  0  0  0  0  0  0
  183.2740  170.1710  137.0840 F   0  0  0  0  0  0  0  0  0  0  0  0
  183.5960  173.1760  136.6170 C   0  0  0  0  0  0  0  0  0  0  0  0
  182.3550  172.3370  136.6320 C   0  0  2  0  0  3  0  0  0  0  0  0
  183.8570  174.1750  137.3820 N   0  0  0  0  0  0  0  0  0  0  0  0
  183.5620  170.9520  134.8340 C   0  0  0  0  0  2  0  0  0  0  0  0
  182.6650  170.9220  136.0950 C   0  0  1  0  0  3  0  0  0  0  0  0
  185.2510  174.5500  137.1090 C   0  0  0  0  0  2  0  0  0  0  0  0
  184.7510  172.7970  135.8850 C   0  0  0  0  0  0  0  0  0  0  0  0
  179.7050  171.1230  136.7820 O   0  0  0  0  0  0  0  0  0  0  0  0
  179.1710  170.1040  135.9860 C   0  0  0  0  0  1  0  0  0  0  0  0
  179.9920  177.2450  141.3610 C   0  0  0  0  0  2  0  0  0  0  0  0
  181.4270  177.5660  140.8810 C   0  0  0  0  0  2  0  0  0  0  0  0
  178.9670  177.8590  140.5340 N   0  0  0  0  0  0  0  0  0  0  0  0
  180.4030  181.1790  139.7490 C   0  0  0  0  0  1  0  0  0  0  0  0
  179.0930  179.0600  140.0840 C   0  0  0  0  0  3  0  0  0  0  0  0
  180.3630  179.7960  140.3610 C   0  0  1  0  0  3  0  0  0  0  0  0
  181.5720  178.8810  140.0740 C   0  0  2  0  0  3  0  0  0  0  0  0
  183.1470  179.2790  138.2080 N   0  0  0  0  0  2  0  0  0  0  0  0
  183.8790  179.8370  139.3430 C   0  0  0  0  0  2  0  0  0  0  0  0
  185.0540  178.9350  139.6860 C   0  0  1  0  0  3  0  0  0  0  0  0
  188.1840  178.2600  142.8330 O   0  0  0  0  0  0  0  0  0  0  0  0
  185.9090  177.7990  143.3460 C   0  0  2  0  0  3  0  0  0  0  0  0
  187.4440  178.5730  141.7150 C   0  0  0  0  0  0  0  0  0  0  0  0
  187.9550  179.0210  140.6560 O   0  0  0  0  0  0  0  0  0  0  0  0
  187.3560  177.7710  143.8830 C   0  0  0  0  0  2  0  0  0  0  0  0
  185.0030  178.4490  141.1100 C   0  0  0  0  0  3  0  0  0  0  0  0
  186.0390  178.3150  141.9500 C   0  0  0  0  0  0  0  0  0  0  0  0
  185.0670  178.7090  144.1830 C   0  0  0  0  0  0  0  0  0  0  0  0
  184.8540  179.8860  143.7880 O   0  0  0  0  0  0  0  0  0  0  0  0
  184.5380  178.2580  145.3940 O   0  0  0  0  0  0  0  0  0  0  0  0
  185.2110  178.4620  146.6280 C   0  0  0  0  0  1  0  0  0  0  0  0
  185.1850  177.7990  138.6780 C   0  0  0  0  0  2  0  0  0  0  0  0
  188.7920  177.2480  137.7000 C   0  0  0  0  0  3  0  0  0  0  0  0
  186.4790  177.8800  137.9420 C   0  0  0  0  0  0  0  0  0  0  0  0
  187.5800  177.1390  138.3820 C   0  0  0  0  0  3  0  0  0  0  0  0
  186.6060  178.7210  136.8340 C   0  0  0  0  0  3  0  0  0  0  0  0
  188.8960  178.0690  136.6200 N   0  0  0  0  0  0  0  0  0  0  0  0
  187.8360  178.8010  136.1770 C   0  0  0  0  0  3  0  0  0  0  0  0
  1  2  1  6  0  0  0
  1 36  1  0  0  0  0
  3 16  1  0  0  0  0
  3  4  1  1  0  0  0
  6  7  1  6  0  0  0
  6  3  1  0  0  0  0
  6 16  1  0  0  0  0
  9 11  1  0  0  0  0
  9 17  1  0  0  0  0
 10  8  1  6  0  0  0
 10 14  1  0  0  0  0
 10 28  1  0  0  0  0
 11 15  1  6  0  0  0
 11 12  1  0  0  0  0
 11 14  1  0  0  0  0
 12  5  1  6  0  0  0
 12  6  1  0  0  0  0
 12  3  1  0  0  0  0
 13 15  1  0  0  0  0
 13  5  1  0  0  0  0
 16  1  1  0  0  0  0
 17 10  1  0  0  0  0
 17 22  1  0  0  0  0
 17 14  1  0  0  0  0
 18 27  1  0  0  0  0
 19 26  1  0  0  0  0
 21 22  1  0  0  0  0
 21 23  2  0  0  0  0
 24 18  1  0  0  0  0
 24 25  1  0  0  0  0
 25 22  1  0  0  0  0
 25 20  1  0  0  0  0
 26 23  1  0  0  0  0
 27 19  2  0  0  0  0
 27 21  1  0  0  0  0
 29 28  1  0  0  0  0
 31 30  1  0  0  0  0
 32 30  1  0  0  0  0
 33 35  1  0  0  0  0
 34 35  1  0  0  0  0
 34 32  2  0  0  0  0
 36 35  1  0  0  0  0
 36 31  1  0  0  0  0
 37  1  1  0  0  0  0
 37 38  1  0  0  0  0
 38 39  1  0  0  0  0
 39 45  1  0  0  0  0
 40 44  1  0  0  0  0
 41 44  1  0  0  0  0
 41 47  1  0  0  0  0
 42 46  1  0  0  0  0
 42 40  1  0  0  0  0
 43 42  2  0  0  0  0
 45 46  2  0  0  0  0
 46 41  1  0  0  0  0
 47 49  1  0  0  0  0
 48 47  2  0  0  0  0
 49 50  1  0  0  0  0
 51 39  1  0  0  0  0
 52 54  1  0  0  0  0
 53 54  2  0  0  0  0
 53 51  1  0  0  0  0
 55 53  1  0  0  0  0
 56 52  2  0  0  0  0
 57 56  1  0  0  0  0
 57 55  2  0  0  0  0
M  END
>  <MODEL>
3

>  <REMARK>
 VINA RESULT:      -6.4      1.889      4.098
  Name = 
  12 active torsions:
  status: ('A' for Active; 'I' for Inactive)
    1  A    between atoms: C_10  and  C_12
    2  A    between atoms: C_12  and  C_23
    3  A    between atoms: O_20  and  C_24
    4  A    between atoms: C_22  and  C_39
    5  A    between atoms: C_23  and  C_31
    6  A    between atoms: C_23  and  C_44
    7  A    between atoms: C_26  and  C_46
    8  A    between atoms: C_26  and  C_48
    9  A    between atoms: C_26  and  N_51
   10  A    between atoms: C_31  and  N_51
   11  A    between atoms: O_33  and  C_39
   12  A    between atoms: C_37  and  C_50
                            x       y       z     vdW  Elec       q    Type
                         _______ _______ _______ _____ _____    ______ ____

>  <TORSDO>
F 12

$$$$
=
 OpenBabel11062417353D

 57 66  0  0  1  0  0  0  0  0999 V2000
  189.3780  176.9610  139.3870 C   0  0  2  0  0  0  0  0  0  0  0  0
  189.9930  178.2240  139.3420 O   0  0  0  0  0  1  0  0  0  0  0  0
  189.7390  176.6850  141.8370 C   0  0  1  0  0  0  0  0  0  0  0  0
  189.3390  175.5960  142.6090 O   0  0  0  0  0  1  0  0  0  0  0  0
  191.1270  178.6040  142.2570 O   0  0  0  0  0  0  0  0  0  0  0  0
  188.7360  177.9030  141.9140 C   0  0  2  0  0  0  0  0  0  0  0  0
  188.7710  179.2680  141.2310 C   0  0  0  0  0  1  0  0  0  0  0  0
  190.3060  177.7020  147.1180 F   0  0  0  0  0  0  0  0  0  0  0  0
  188.9660  178.8170  144.7240 O   0  0  0  0  0  0  0  0  0  0  0  0
  189.2230  177.0620  146.5320 C   0  0  2  0  0  0  0  0  0  0  0  0
  189.9230  177.9000  144.2550 C   0  0  2  0  0  0  0  0  0  0  0  0
  190.0210  177.8700  142.7270 C   0  0  1  0  0  0  0  0  0  0  0  0
  191.8010  179.0690  143.4040 C   0  0  0  0  0  2  0  0  0  0  0  0
  189.3400  176.7440  145.0520 C   0  0  2  0  0  3  0  0  0  0  0  0
  191.3140  178.3190  144.6320 C   0  0  0  0  0  2  0  0  0  0  0  0
  188.6770  176.8570  140.7810 C   0  0  1  0  0  3  0  0  0  0  0  0
  188.3710  177.8250  145.5350 C   0  0  2  0  0  0  0  0  0  0  0  0
  184.9510  179.7410  145.4920 O   0  0  0  0  0  0  0  0  0  0  0  0
  184.6860  179.3530  143.1580 N   0  0  0  0  0  0  0  0  0  0  0  0
  184.9930  177.1380  146.8330 F   0  0  0  0  0  0  0  0  0  0  0  0
  186.2060  178.0730  144.1860 C   0  0  0  0  0  0  0  0  0  0  0  0
  186.8760  177.4940  145.3950 C   0  0  2  0  0  3  0  0  0  0  0  0
  186.2230  177.5940  142.9940 N   0  0  0  0  0  0  0  0  0  0  0  0
  185.7240  179.4160  146.6540 C   0  0  0  0  0  2  0  0  0  0  0  0
  186.1230  177.9210  146.6740 C   0  0  1  0  0  3  0  0  0  0  0  0
  185.2860  178.4080  142.2090 C   0  0  0  0  0  2  0  0  0  0  0  0
  185.2580  179.1250  144.2840 C   0  0  0  0  0  0  0  0  0  0  0  0
  188.5920  176.0390  147.2540 O   0  0  0  0  0  0  0  0  0  0  0  0
  188.2670  176.5830  148.5010 C   0  0  0  0  0  1  0  0  0  0  0  0
  192.8340  176.7430  138.3380 C   0  0  0  0  0  2  0  0  0  0  0  0
  191.8870  176.6100  139.5550 C   0  0  0  0  0  2  0  0  0  0  0  0
  192.1270  176.7510  137.0680 N   0  0  0  0  0  0  0  0  0  0  0  0
  189.4430  174.2560  137.5890 C   0  0  0  0  0  1  0  0  0  0  0  0
  191.1270  175.9690  136.8490 C   0  0  0  0  0  3  0  0  0  0  0  0
  190.6440  175.0980  137.9610 C   0  0  1  0  0  3  0  0  0  0  0  0
  190.5310  175.9210  139.2610 C   0  0  2  0  0  3  0  0  0  0  0  0
  188.4430  176.7880  138.2570 N   0  0  0  0  0  2  0  0  0  0  0  0
  187.3090  177.7090  138.2880 C   0  0  0  0  0  2  0  0  0  0  0  0
  186.1180  177.0750  137.5860 C   0  0  1  0  0  3  0  0  0  0  0  0
  181.7940  176.2260  138.4480 O   0  0  0  0  0  0  0  0  0  0  0  0
  182.4640  178.4580  137.9780 C   0  0  2  0  0  3  0  0  0  0  0  0
  183.1560  176.2080  138.2480 C   0  0  0  0  0  0  0  0  0  0  0  0
  183.8480  175.1600  138.3220 O   0  0  0  0  0  0  0  0  0  0  0  0
  181.2660  177.5400  138.2990 C   0  0  0  0  0  2  0  0  0  0  0  0
  184.8870  177.9390  137.6590 C   0  0  0  0  0  3  0  0  0  0  0  0
  183.6420  177.5400  137.9520 C   0  0  0  0  0  0  0  0  0  0  0  0
  182.6140  179.5000  139.0410 C   0  0  0  0  0  0  0  0  0  0  0  0
  182.6950  179.1420  140.2470 O   0  0  0  0  0  0  0  0  0  0  0  0
  182.6480  180.8530  138.6970 O   0  0  0  0  0  0  0  0  0  0  0  0
  181.4620  181.5890  138.4360 C   0  0  0  0  0  1  0  0  0  0  0  0
  186.4740  176.6720  136.1600 C   0  0  0  0  0  2  0  0  0  0  0  0
  185.7240  172.9850  135.8250 C   0  0  0  0  0  3  0  0  0  0  0  0
  185.8090  175.3930  135.7810 C   0  0  0  0  0  0  0  0  0  0  0  0
  186.3410  174.1750  136.2130 C   0  0  0  0  0  3  0  0  0  0  0  0
  184.6750  175.4050  134.9640 C   0  0  0  0  0  3  0  0  0  0  0  0
  184.6180  173.0170  135.0320 N   0  0  0  0  0  0  0  0  0  0  0  0
  184.0860  174.1930  134.5980 C   0  0  0  0  0  3  0  0  0  0  0  0
  1  2  1  6  0  0  0
  1 16  1  0  0  0  0
  3  6  1  0  0  0  0
  3  4  1  1  0  0  0
  3 12  1  0  0  0  0
  5 13  1  0  0  0  0
  6  7  1  6  0  0  0
  6 12  1  0  0  0  0
  9 17  1  0  0  0  0
 10  8  1  1  0  0  0
 10 28  1  0  0  0  0
 11 15  1  1  0  0  0
 11  9  1  0  0  0  0
 11 14  1  0  0  0  0
 12  5  1  6  0  0  0
 12 11  1  0  0  0  0
 13 15  1  0  0  0  0
 14 17  1  0  0  0  0
 14 10  1  0  0  0  0
 16  3  1  0  0  0  0
 16  6  1  0  0  0  0
 17 10  1  0  0  0  0
 18 24  1  0  0  0  0
 19 27  2  0  0  0  0
 21 27  1  0  0  0  0
 21 22  1  0  0  0  0
 22 17  1  0  0  0  0
 22 25  1  0  0  0  0
 23 21  2  0  0  0  0
 24 25  1  0  0  0  0
 25 20  1  0  0  0  0
 26 23  1  0  0  0  0
 26 19  1  0  0  0  0
 27 18  1  0  0  0  0
 28 29  1  0  0  0  0
 30 31  1  0  0  0  0
 32 30  1  0  0  0  0
 33 35  1  0  0  0  0
 34 32  2  0  0  0  0
 34 35  1  0  0  0  0
 35 36  1  0  0  0  0
 36  1  1  0  0  0  0
 36 31  1  0  0  0  0
 37 38  1  0  0  0  0
 37  1  1  0  0  0  0
 39 45  1  0  0  0  0
 39 38  1  0  0  0  0
 41 44  1  0  0  0  0
 41 47  1  0  0  0  0
 42 43  2  0  0  0  0
 42 40  1  0  0  0  0
 44 40  1  0  0  0  0
 45 46  2  0  0  0  0
 46 41  1  0  0  0  0
 46 42  1  0  0  0  0
 47 48  2  0  0  0  0
 49 47  1  0  0  0  0
 50 49  1  0  0  0  0
 51 39  1  0  0  0  0
 52 54  1  0  0  0  0
 53 51  1  0  0  0  0
 53 54  2  0  0  0  0
 55 53  1  0  0  0  0
 56 52  2  0  0  0  0
 57 55  2  0  0  0  0
 57 56  1  0  0  0  0
M  END
>  <MODEL>
4

>  <REMARK>
 VINA RESULT:      -5.9      3.701     10.705
  Name = 
  12 active torsions:
  status: ('A' for Active; 'I' for Inactive)
    1  A    between atoms: C_10  and  C_12
    2  A    between atoms: C_12  and  C_23
    3  A    between atoms: O_20  and  C_24
    4  A    between atoms: C_22  and  C_39
    5  A    between atoms: C_23  and  C_31
    6  A    between atoms: C_23  and  C_44
    7  A    between atoms: C_26  and  C_46
    8  A    between atoms: C_26  and  C_48
    9  A    between atoms: C_26  and  N_51
   10  A    between atoms: C_31  and  N_51
   11  A    between atoms: O_33  and  C_39
   12  A    between atoms: C_37  and  C_50
                            x       y       z     vdW  Elec       q    Type
                         _______ _______ _______ _____ _____    ______ ____

>  <TORSDO>
F 12

$$$$
=
 OpenBabel11062417353D

 57 66  0  0  1  0  0  0  0  0999 V2000
  184.2520  176.4250  137.2110 C   0  0  2  0  0  0  0  0  0  0  0  0
  184.2680  175.0810  137.6230 O   0  0  0  0  0  1  0  0  0  0  0  0
  183.1420  176.8210  139.4060 C   0  0  1  0  0  0  0  0  0  0  0  0
  181.8960  176.3340  139.7960 O   0  0  0  0  0  1  0  0  0  0  0  0
  184.9260  177.9460  140.5620 O   0  0  0  0  0  0  0  0  0  0  0  0
  183.0910  178.3090  138.8810 C   0  0  2  0  0  0  0  0  0  0  0  0
  184.1970  179.2170  138.3490 C   0  0  0  0  0  1  0  0  0  0  0  0
  181.4880  179.1140  144.0160 F   0  0  0  0  0  0  0  0  0  0  0  0
  182.3660  179.8740  141.2920 O   0  0  0  0  0  0  0  0  0  0  0  0
  180.6920  178.8710  142.9060 C   0  0  2  0  0  0  0  0  0  0  0  0
  182.7430  178.5300  141.4730 C   0  0  2  0  0  0  0  0  0  0  0  0
  183.5440  177.9720  140.2940 C   0  0  1  0  0  0  0  0  0  0  0  0
  185.0730  178.4040  141.8870 C   0  0  0  0  0  2  0  0  0  0  0  0
  181.3250  178.0770  141.7760 C   0  0  2  0  0  3  0  0  0  0  0  0
  183.7300  178.3860  142.5950 C   0  0  0  0  0  2  0  0  0  0  0  0
  183.0360  177.0960  137.9290 C   0  0  1  0  0  3  0  0  0  0  0  0
  181.0220  179.5670  141.5990 C   0  0  2  0  0  0  0  0  0  0  0  0
  180.6400  180.3510  137.7760 O   0  0  0  0  0  0  0  0  0  0  0  0
  179.5940  178.2490  137.3810 N   0  0  0  0  0  0  0  0  0  0  0  0
  178.9380  181.8660  139.6150 F   0  0  0  0  0  0  0  0  0  0  0  0
  179.6800  178.9010  139.5190 C   0  0  0  0  0  0  0  0  0  0  0  0
  179.8970  179.9080  140.6080 C   0  0  2  0  0  3  0  0  0  0  0  0
  179.0070  177.8100  139.6050 N   0  0  0  0  0  0  0  0  0  0  0  0
  181.1040  181.2580  138.7830 C   0  0  0  0  0  2  0  0  0  0  0  0
  180.1430  181.3050  139.9960 C   0  0  1  0  0  3  0  0  0  0  0  0
  178.9360  177.2610  138.2450 C   0  0  0  0  0  2  0  0  0  0  0  0
  180.0150  179.1720  138.1670 C   0  0  0  0  0  0  0  0  0  0  0  0
  179.3500  178.5260  143.1190 O   0  0  0  0  0  0  0  0  0  0  0  0
  178.9630  179.1690  144.3000 C   0  0  0  0  0  1  0  0  0  0  0  0
  181.6290  176.7600  134.7420 C   0  0  0  0  0  2  0  0  0  0  0  0
  182.9350  177.4000  135.2720 C   0  0  0  0  0  2  0  0  0  0  0  0
  181.4260  175.4040  135.2250 N   0  0  0  0  0  0  0  0  0  0  0  0
  184.8400  173.9730  135.1620 C   0  0  0  0  0  1  0  0  0  0  0  0
  182.4020  174.5670  135.3130 C   0  0  0  0  0  3  0  0  0  0  0  0
  183.7790  175.0380  134.9840 C   0  0  1  0  0  3  0  0  0  0  0  0
  184.0460  176.3960  135.6680 C   0  0  2  0  0  3  0  0  0  0  0  0
  185.5380  177.0850  137.5170 N   0  0  0  0  0  2  0  0  0  0  0  0
  186.6970  176.4140  136.9330 C   0  0  0  0  0  2  0  0  0  0  0  0
  187.8240  176.3620  137.9520 C   0  0  1  0  0  3  0  0  0  0  0  0
  190.7570  176.8900  134.5940 O   0  0  0  0  0  0  0  0  0  0  0  0
  190.9390  174.9820  135.9990 C   0  0  2  0  0  3  0  0  0  0  0  0
  189.7640  176.9880  135.5420 C   0  0  0  0  0  0  0  0  0  0  0  0
  188.9500  177.9470  135.5900 O   0  0  0  0  0  0  0  0  0  0  0  0
  191.5270  175.7050  134.7700 C   0  0  0  0  0  2  0  0  0  0  0  0
  188.9960  175.5530  137.4640 C   0  0  0  0  0  3  0  0  0  0  0  0
  189.8080  175.8520  136.4390 C   0  0  0  0  0  0  0  0  0  0  0  0
  191.9760  174.8600  137.0700 C   0  0  0  0  0  0  0  0  0  0  0  0
  192.1160  173.7600  137.6690 O   0  0  0  0  0  0  0  0  0  0  0  0
  192.7670  175.9600  137.4090 O   0  0  0  0  0  0  0  0  0  0  0  0
  193.8610  175.8480  138.3070 C   0  0  0  0  0  1  0  0  0  0  0  0
  188.2200  177.7630  138.4030 C   0  0  0  0  0  2  0  0  0  0  0  0
  191.1610  177.4460  140.7520 C   0  0  0  0  0  3  0  0  0  0  0  0
  189.0350  177.7160  139.6500 C   0  0  0  0  0  0  0  0  0  0  0  0
  190.4160  177.5170  139.5740 C   0  0  0  0  0  3  0  0  0  0  0  0
  188.4180  177.8350  140.8980 C   0  0  0  0  0  3  0  0  0  0  0  0
  190.5430  177.5690  141.9580 N   0  0  0  0  0  0  0  0  0  0  0  0
  189.1990  177.7600  142.0530 C   0  0  0  0  0  3  0  0  0  0  0  0
  1 37  1  0  0  0  0
  1  2  1  1  0  0  0
  1 16  1  0  0  0  0
  3  4  1  1  0  0  0
  3 12  1  0  0  0  0
  5 13  1  0  0  0  0
  6  7  1  6  0  0  0
  6  3  1  0  0  0  0
  6 12  1  0  0  0  0
  9 11  1  0  0  0  0
  9 17  1  0  0  0  0
 10 28  1  0  0  0  0
 10  8  1  1  0  0  0
 11 14  1  0  0  0  0
 11 15  1  1  0  0  0
 12  5  1  1  0  0  0
 12 11  1  0  0  0  0
 13 15  1  0  0  0  0
 14 10  1  0  0  0  0
 16  6  1  0  0  0  0
 16  3  1  0  0  0  0
 17 14  1  0  0  0  0
 17 10  1  0  0  0  0
 18 27  1  0  0  0  0
 18 24  1  0  0  0  0
 19 27  2  0  0  0  0
 19 26  1  0  0  0  0
 20 25  1  0  0  0  0
 21 23  2  0  0  0  0
 21 22  1  0  0  0  0
 22 17  1  0  0  0  0
 24 25  1  0  0  0  0
 25 22  1  0  0  0  0
 26 23  1  0  0  0  0
 27 21  1  0  0  0  0
 28 29  1  0  0  0  0
 30 32  1  0  0  0  0
 30 31  1  0  0  0  0
 31 36  1  0  0  0  0
 32 34  2  0  0  0  0
 35 33  1  0  0  0  0
 35 34  1  0  0  0  0
 35 36  1  0  0  0  0
 36  1  1  0  0  0  0
 38 37  1  0  0  0  0
 38 39  1  0  0  0  0
 39 51  1  0  0  0  0
 40 44  1  0  0  0  0
 40 42  1  0  0  0  0
 41 46  1  0  0  0  0
 41 47  1  0  0  0  0
 42 43  2  0  0  0  0
 42 46  1  0  0  0  0
 44 41  1  0  0  0  0
 45 39  1  0  0  0  0
 46 45  2  0  0  0  0
 47 49  1  0  0  0  0
 47 48  2  0  0  0  0
 49 50  1  0  0  0  0
 51 53  1  0  0  0  0
 52 56  1  0  0  0  0
 53 55  2  0  0  0  0
 54 53  1  0  0  0  0
 54 52  2  0  0  0  0
 55 57  1  0  0  0  0
 56 57  2  0  0  0  0
M  END
>  <MODEL>
5

>  <REMARK>
 VINA RESULT:      -5.8      3.524      7.394
  Name = 
  12 active torsions:
  status: ('A' for Active; 'I' for Inactive)
    1  A    between atoms: C_10  and  C_12
    2  A    between atoms: C_12  and  C_23
    3  A    between atoms: O_20  and  C_24
    4  A    between atoms: C_22  and  C_39
    5  A    between atoms: C_23  and  C_31
    6  A    between atoms: C_23  and  C_44
    7  A    between atoms: C_26  and  C_46
    8  A    between atoms: C_26  and  C_48
    9  A    between atoms: C_26  and  N_51
   10  A    between atoms: C_31  and  N_51
   11  A    between atoms: O_33  and  C_39
   12  A    between atoms: C_37  and  C_50
                            x       y       z     vdW  Elec       q    Type
                         _______ _______ _______ _____ _____    ______ ____

>  <TORSDO>
F 12

$$$$
=
 OpenBabel11062417353D

 57 66  0  0  1  0  0  0  0  0999 V2000
  186.7620  177.0830  137.7820 C   0  0  2  0  0  0  0  0  0  0  0  0
  187.5150  175.9380  138.0960 O   0  0  0  0  0  1  0  0  0  0  0  0
  184.4680  177.2380  138.7420 C   0  0  1  0  0  0  0  0  0  0  0  0
  183.7510  176.1970  139.3260 O   0  0  0  0  0  1  0  0  0  0  0  0
  184.1280  179.6130  138.5840 O   0  0  0  0  0  0  0  0  0  0  0  0
  184.0760  177.4920  137.2330 C   0  0  2  0  0  0  0  0  0  0  0  0
  184.6090  178.5040  136.2220 C   0  0  0  0  0  1  0  0  0  0  0  0
  179.3180  178.6420  139.6050 F   0  0  0  0  0  0  0  0  0  0  0  0
  181.2830  178.4720  137.3970 O   0  0  0  0  0  0  0  0  0  0  0  0
  179.7480  177.4180  139.1140 C   0  0  2  0  0  0  0  0  0  0  0  0
  182.0190  178.3920  138.5930 C   0  0  2  0  0  0  0  0  0  0  0  0
  183.5320  178.3570  138.3610 C   0  0  1  0  0  0  0  0  0  0  0  0
  183.0890  180.4650  139.0130 C   0  0  0  0  0  2  0  0  0  0  0  0
  181.2480  177.1820  139.0940 C   0  0  2  0  0  3  0  0  0  0  0  0
  181.8750  179.6440  139.4090 C   0  0  0  0  0  2  0  0  0  0  0  0
  185.2780  176.6130  137.6350 C   0  0  1  0  0  3  0  0  0  0  0  0
  180.4800  177.3770  137.7850 C   0  0  2  0  0  0  0  0  0  0  0  0
  182.2250  175.9140  134.5940 O   0  0  0  0  0  0  0  0  0  0  0  0
  183.2800  174.2040  135.8720 N   0  0  0  0  0  0  0  0  0  0  0  0
  179.3300  175.5350  134.8100 F   0  0  0  0  0  0  0  0  0  0  0  0
  181.5700  175.2450  136.8710 C   0  0  0  0  0  0  0  0  0  0  0  0
  180.3640  176.1350  136.8860 C   0  0  2  0  0  3  0  0  0  0  0  0
  181.8730  174.3470  137.7380 N   0  0  0  0  0  0  0  0  0  0  0  0
  181.2490  176.9620  134.6180 C   0  0  0  0  0  2  0  0  0  0  0  0
  180.0030  176.5630  135.4460 C   0  0  1  0  0  3  0  0  0  0  0  0
  183.0360  173.6290  137.2000 C   0  0  0  0  0  2  0  0  0  0  0  0
  182.4130  175.1400  135.7340 C   0  0  0  0  0  0  0  0  0  0  0  0
  179.0280  176.2710  139.4770 O   0  0  0  0  0  0  0  0  0  0  0  0
  179.8630  175.5370  140.3270 C   0  0  0  0  0  1  0  0  0  0  0  0
  188.5750  175.9040  134.8810 C   0  0  0  0  0  2  0  0  0  0  0  0
  187.2220  176.4820  135.3580 C   0  0  0  0  0  2  0  0  0  0  0  0
  189.6350  176.0560  135.8650 N   0  0  0  0  0  0  0  0  0  0  0  0
  188.9770  179.4090  137.2900 C   0  0  0  0  0  1  0  0  0  0  0  0
  189.7600  177.1350  136.5590 C   0  0  0  0  0  3  0  0  0  0  0  0
  188.7390  178.2120  136.3950 C   0  0  1  0  0  3  0  0  0  0  0  0
  187.3220  177.6010  136.4240 C   0  0  2  0  0  3  0  0  0  0  0  0
  186.9370  178.1280  138.8100 N   0  0  0  0  0  2  0  0  0  0  0  0
  187.9130  177.7810  139.8410 C   0  0  0  0  0  2  0  0  0  0  0  0
  187.3920  178.2100  141.2030 C   0  0  1  0  0  3  0  0  0  0  0  0
  188.4370  177.0630  145.4160 O   0  0  0  0  0  0  0  0  0  0  0  0
  189.8160  178.6200  144.2650 C   0  0  2  0  0  3  0  0  0  0  0  0
  187.9110  177.2150  144.1530 C   0  0  0  0  0  0  0  0  0  0  0  0
  186.8860  176.6010  143.7560 O   0  0  0  0  0  0  0  0  0  0  0  0
  189.5910  177.8770  145.5990 C   0  0  0  0  0  2  0  0  0  0  0  0
  188.5020  178.6070  142.1390 C   0  0  0  0  0  3  0  0  0  0  0  0
  188.6990  178.1570  143.3870 C   0  0  0  0  0  0  0  0  0  0  0  0
  191.1460  178.2540  143.6890 C   0  0  0  0  0  0  0  0  0  0  0  0
  192.1510  178.9650  143.9590 O   0  0  0  0  0  0  0  0  0  0  0  0
  191.2640  177.1440  142.8490 O   0  0  0  0  0  0  0  0  0  0  0  0
  191.8240  177.2450  141.5480 C   0  0  0  0  0  1  0  0  0  0  0  0
  186.3220  179.2870  141.0650 C   0  0  0  0  0  2  0  0  0  0  0  0
  184.5210  179.6620  144.3640 C   0  0  0  0  0  3  0  0  0  0  0  0
  185.2940  179.1640  142.1370 C   0  0  0  0  0  0  0  0  0  0  0  0
  185.4790  179.8120  143.3610 C   0  0  0  0  0  3  0  0  0  0  0  0
  184.1590  178.3730  141.9350 C   0  0  0  0  0  3  0  0  0  0  0  0
  183.4210  178.8910  144.1480 N   0  0  0  0  0  0  0  0  0  0  0  0
  183.2230  178.2490  142.9630 C   0  0  0  0  0  3  0  0  0  0  0  0
  1  2  1  1  0  0  0
  1 37  1  0  0  0  0
  3  4  1  1  0  0  0
  5 13  1  0  0  0  0
  6  7  1  1  0  0  0
  6 16  1  0  0  0  0
  6 12  1  0  0  0  0
  6  3  1  0  0  0  0
  9 17  1  0  0  0  0
  9 11  1  0  0  0  0
 10 28  1  0  0  0  0
 10  8  1  1  0  0  0
 11 14  1  0  0  0  0
 11 15  1  1  0  0  0
 12  5  1  1  0  0  0
 12 11  1  0  0  0  0
 12  3  1  0  0  0  0
 13 15  1  0  0  0  0
 14 10  1  0  0  0  0
 16  1  1  0  0  0  0
 16  3  1  0  0  0  0
 17 14  1  0  0  0  0
 17 10  1  0  0  0  0
 18 24  1  0  0  0  0
 18 27  1  0  0  0  0
 19 26  1  0  0  0  0
 20 25  1  0  0  0  0
 21 22  1  0  0  0  0
 21 23  2  0  0  0  0
 22 17  1  0  0  0  0
 24 25  1  0  0  0  0
 25 22  1  0  0  0  0
 26 23  1  0  0  0  0
 27 19  2  0  0  0  0
 27 21  1  0  0  0  0
 28 29  1  0  0  0  0
 30 31  1  0  0  0  0
 30 32  1  0  0  0  0
 31 36  1  0  0  0  0
 32 34  2  0  0  0  0
 35 36  1  0  0  0  0
 35 34  1  0  0  0  0
 35 33  1  0  0  0  0
 36  1  1  0  0  0  0
 37 38  1  0  0  0  0
 38 39  1  0  0  0  0
 39 45  1  0  0  0  0
 40 44  1  0  0  0  0
 41 44  1  0  0  0  0
 42 40  1  0  0  0  0
 43 42  2  0  0  0  0
 45 46  2  0  0  0  0
 46 42  1  0  0  0  0
 46 41  1  0  0  0  0
 47 48  2  0  0  0  0
 47 41  1  0  0  0  0
 49 47  1  0  0  0  0
 50 49  1  0  0  0  0
 51 39  1  0  0  0  0
 51 53  1  0  0  0  0
 53 54  1  0  0  0  0
 54 52  2  0  0  0  0
 55 53  2  0  0  0  0
 55 57  1  0  0  0  0
 56 52  1  0  0  0  0
 57 56  2  0  0  0  0
M  END
>  <MODEL>
6

>  <REMARK>
 VINA RESULT:      -5.6      2.533      5.505
  Name = 
  12 active torsions:
  status: ('A' for Active; 'I' for Inactive)
    1  A    between atoms: C_10  and  C_12
    2  A    between atoms: C_12  and  C_23
    3  A    between atoms: O_20  and  C_24
    4  A    between atoms: C_22  and  C_39
    5  A    between atoms: C_23  and  C_31
    6  A    between atoms: C_23  and  C_44
    7  A    between atoms: C_26  and  C_46
    8  A    between atoms: C_26  and  C_48
    9  A    between atoms: C_26  and  N_51
   10  A    between atoms: C_31  and  N_51
   11  A    between atoms: O_33  and  C_39
   12  A    between atoms: C_37  and  C_50
                            x       y       z     vdW  Elec       q    Type
                         _______ _______ _______ _____ _____    ______ ____

>  <TORSDO>
F 12

$$$$
=
 OpenBabel11062417353D

 57 66  0  0  1  0  0  0  0  0999 V2000
  185.5700  174.6360  137.0960 C   0  0  2  0  0  0  0  0  0  0  0  0
  184.9210  173.7370  137.9590 O   0  0  0  0  0  1  0  0  0  0  0  0
  183.9110  176.1930  136.0790 C   0  0  1  0  0  0  0  0  0  0  0  0
  184.1800  177.4620  135.5730 O   0  0  0  0  0  1  0  0  0  0  0  0
  181.9890  174.7480  136.0230 O   0  0  0  0  0  0  0  0  0  0  0  0
  183.3410  176.2190  137.5510 C   0  0  2  0  0  0  0  0  0  0  0  0
  182.9300  175.0800  138.4820 C   0  0  0  0  0  1  0  0  0  0  0  0
  179.3470  178.8810  134.9910 F   0  0  0  0  0  0  0  0  0  0  0  0
  180.6890  177.5090  137.2460 O   0  0  0  0  0  0  0  0  0  0  0  0
  180.4740  179.4180  135.5970 C   0  0  2  0  0  0  0  0  0  0  0  0
  181.3570  177.1010  136.0770 C   0  0  2  0  0  0  0  0  0  0  0  0
  182.4340  176.0460  136.3420 C   0  0  1  0  0  0  0  0  0  0  0  0
  180.6880  174.9020  135.5010 C   0  0  0  0  0  2  0  0  0  0  0  0
  181.7000  178.5240  135.6670 C   0  0  2  0  0  3  0  0  0  0  0  0
  180.4370  176.3580  135.1530 C   0  0  0  0  0  2  0  0  0  0  0  0
  184.8400  176.0100  137.2520 C   0  0  1  0  0  3  0  0  0  0  0  0
  180.9200  178.8670  136.9380 C   0  0  2  0  0  0  0  0  0  0  0  0
  180.4100  180.1570  140.6050 O   0  0  0  0  0  0  0  0  0  0  0  0
  182.2010  178.8050  141.4020 N   0  0  0  0  0  0  0  0  0  0  0  0
  181.5160  182.0600  138.6750 F   0  0  0  0  0  0  0  0  0  0  0  0
  182.1270  179.1080  139.1860 C   0  0  0  0  0  0  0  0  0  0  0  0
  181.6430  179.7840  137.9400 C   0  0  2  0  0  3  0  0  0  0  0  0
  183.2110  178.4320  139.3220 N   0  0  0  0  0  0  0  0  0  0  0  0
  179.7380  180.6420  139.4370 C   0  0  0  0  0  2  0  0  0  0  0  0
  180.7360  180.9800  138.3030 C   0  0  1  0  0  3  0  0  0  0  0  0
  183.3310  178.1280  140.7540 C   0  0  0  0  0  2  0  0  0  0  0  0
  181.5310  179.3480  140.4510 C   0  0  0  0  0  0  0  0  0  0  0  0
  180.7980  180.7540  135.3200 O   0  0  0  0  0  0  0  0  0  0  0  0
  179.6450  181.3320  134.7790 C   0  0  0  0  0  1  0  0  0  0  0  0
  185.0550  171.4810  135.4020 C   0  0  0  0  0  2  0  0  0  0  0  0
  184.4110  172.8550  135.7070 C   0  0  0  0  0  2  0  0  0  0  0  0
  186.4790  171.4460  135.6900 N   0  0  0  0  0  0  0  0  0  0  0  0
  187.6380  174.7870  134.5940 C   0  0  0  0  0  1  0  0  0  0  0  0
  187.2490  172.4410  135.4080 C   0  0  0  0  0  3  0  0  0  0  0  0
  186.6360  173.6810  134.8460 C   0  0  1  0  0  3  0  0  0  0  0  0
  185.3810  174.0620  135.6610 C   0  0  2  0  0  3  0  0  0  0  0  0
  187.0130  174.7130  137.4020 N   0  0  0  0  0  2  0  0  0  0  0  0
  187.5270  176.0790  137.4740 C   0  0  0  0  0  2  0  0  0  0  0  0
  188.7150  176.1280  138.4220 C   0  0  1  0  0  3  0  0  0  0  0  0
  191.0870  176.7260  134.6570 O   0  0  0  0  0  0  0  0  0  0  0  0
  191.7440  175.0240  136.1810 C   0  0  2  0  0  3  0  0  0  0  0  0
  190.2160  176.7760  135.7220 C   0  0  0  0  0  0  0  0  0  0  0  0
  189.2720  177.6040  135.8000 O   0  0  0  0  0  0  0  0  0  0  0  0
  192.0520  175.6920  134.8240 C   0  0  0  0  0  2  0  0  0  0  0  0
  189.9320  175.4540  137.8460 C   0  0  0  0  0  3  0  0  0  0  0  0
  190.5520  175.7600  136.6980 C   0  0  0  0  0  0  0  0  0  0  0  0
  192.9120  175.1690  137.1040 C   0  0  0  0  0  0  0  0  0  0  0  0
  193.2990  176.3230  137.4290 O   0  0  0  0  0  0  0  0  0  0  0  0
  193.5710  174.0350  137.5840 O   0  0  0  0  0  0  0  0  0  0  0  0
  194.9550  174.0520  137.9010 C   0  0  0  0  0  1  0  0  0  0  0  0
  188.9910  177.5560  138.8790 C   0  0  0  0  0  2  0  0  0  0  0  0
  189.4650  177.7960  142.6190 C   0  0  0  0  0  3  0  0  0  0  0  0
  189.6310  177.5750  140.2250 C   0  0  0  0  0  0  0  0  0  0  0  0
  188.8470  177.7500  141.3680 C   0  0  0  0  0  3  0  0  0  0  0  0
  191.0180  177.4540  140.3460 C   0  0  0  0  0  3  0  0  0  0  0  0
  190.8170  177.6720  142.7170 N   0  0  0  0  0  0  0  0  0  0  0  0
  191.5980  177.5030  141.6150 C   0  0  0  0  0  3  0  0  0  0  0  0
  1 16  1  0  0  0  0
  1 37  1  0  0  0  0
  1  2  1  1  0  0  0
  3  4  1  6  0  0  0
  3 12  1  0  0  0  0
  3 16  1  0  0  0  0
  3  6  1  0  0  0  0
  6  7  1  6  0  0  0
 10  8  1  6  0  0  0
 10 14  1  0  0  0  0
 10 17  1  0  0  0  0
 11 15  1  6  0  0  0
 11 12  1  0  0  0  0
 11  9  1  0  0  0  0
 12  5  1  6  0  0  0
 12  6  1  0  0  0  0
 13  5  1  0  0  0  0
 14 11  1  0  0  0  0
 14 17  1  0  0  0  0
 15 13  1  0  0  0  0
 16  6  1  0  0  0  0
 17  9  1  0  0  0  0
 17 22  1  0  0  0  0
 21 23  2  0  0  0  0
 21 27  1  0  0  0  0
 22 25  1  0  0  0  0
 22 21  1  0  0  0  0
 23 26  1  0  0  0  0
 24 18  1  0  0  0  0
 25 20  1  0  0  0  0
 25 24  1  0  0  0  0
 26 19  1  0  0  0  0
 27 18  1  0  0  0  0
 27 19  2  0  0  0  0
 28 10  1  0  0  0  0
 29 28  1  0  0  0  0
 30 32  1  0  0  0  0
 30 31  1  0  0  0  0
 33 35  1  0  0  0  0
 34 32  2  0  0  0  0
 35 34  1  0  0  0  0
 35 36  1  0  0  0  0
 36 31  1  0  0  0  0
 36  1  1  0  0  0  0
 37 38  1  0  0  0  0
 38 39  1  0  0  0  0
 39 51  1  0  0  0  0
 40 44  1  0  0  0  0
 40 42  1  0  0  0  0
 41 46  1  0  0  0  0
 41 47  1  0  0  0  0
 42 43  2  0  0  0  0
 42 46  1  0  0  0  0
 44 41  1  0  0  0  0
 45 39  1  0  0  0  0
 46 45  2  0  0  0  0
 47 48  2  0  0  0  0
 47 49  1  0  0  0  0
 49 50  1  0  0  0  0
 51 53  1  0  0  0  0
 52 56  1  0  0  0  0
 53 55  2  0  0  0  0
 53 54  1  0  0  0  0
 54 52  2  0  0  0  0
 55 57  1  0  0  0  0
 57 56  2  0  0  0  0
M  END
>  <MODEL>
7

>  <REMARK>
 VINA RESULT:      -5.5      3.377      7.464
  Name = 
  12 active torsions:
  status: ('A' for Active; 'I' for Inactive)
    1  A    between atoms: C_10  and  C_12
    2  A    between atoms: C_12  and  C_23
    3  A    between atoms: O_20  and  C_24
    4  A    between atoms: C_22  and  C_39
    5  A    between atoms: C_23  and  C_31
    6  A    between atoms: C_23  and  C_44
    7  A    between atoms: C_26  and  C_46
    8  A    between atoms: C_26  and  C_48
    9  A    between atoms: C_26  and  N_51
   10  A    between atoms: C_31  and  N_51
   11  A    between atoms: O_33  and  C_39
   12  A    between atoms: C_37  and  C_50
                            x       y       z     vdW  Elec       q    Type
                         _______ _______ _______ _____ _____    ______ ____

>  <TORSDO>
F 12

$$$$
=
 OpenBabel11062417353D

 57 66  0  0  1  0  0  0  0  0999 V2000
  187.1370  175.4150  136.9680 C   0  0  2  0  0  0  0  0  0  0  0  0
  188.1370  174.5290  137.4050 O   0  0  0  0  0  1  0  0  0  0  0  0
  184.6700  175.6850  137.1840 C   0  0  1  0  0  0  0  0  0  0  0  0
  183.9030  175.3590  138.3000 O   0  0  0  0  0  1  0  0  0  0  0  0
  184.2140  176.8560  135.1330 O   0  0  0  0  0  0  0  0  0  0  0  0
  184.6560  174.5650  136.0720 C   0  0  2  0  0  0  0  0  0  0  0  0
  185.3550  174.4960  134.7170 C   0  0  0  0  0  1  0  0  0  0  0  0
  179.3830  175.9010  136.0680 F   0  0  0  0  0  0  0  0  0  0  0  0
  181.8510  174.5710  135.1140 O   0  0  0  0  0  0  0  0  0  0  0  0
  180.0090  174.9160  136.8180 C   0  0  2  0  0  0  0  0  0  0  0  0
  182.2640  175.6350  135.9360 C   0  0  2  0  0  0  0  0  0  0  0  0
  183.7850  175.8080  135.9700 C   0  0  1  0  0  0  0  0  0  0  0  0
  183.0430  177.4260  134.5940 C   0  0  0  0  0  2  0  0  0  0  0  0
  181.4780  175.1330  137.1370 C   0  0  2  0  0  3  0  0  0  0  0  0
  181.8290  176.9590  135.3770 C   0  0  0  0  0  2  0  0  0  0  0  0
  185.7760  174.6630  137.1290 C   0  0  1  0  0  3  0  0  0  0  0  0
  181.0550  174.0410  136.1530 C   0  0  2  0  0  0  0  0  0  0  0  0
  181.1380  170.4390  134.6040 O   0  0  0  0  0  0  0  0  0  0  0  0
  183.4930  170.2860  134.9180 N   0  0  0  0  0  0  0  0  0  0  0  0
  179.9000  170.7170  137.2430 F   0  0  0  0  0  0  0  0  0  0  0  0
  182.4650  171.9020  136.0740 C   0  0  0  0  0  0  0  0  0  0  0  0
  181.2580  172.5930  136.6320 C   0  0  2  0  0  3  0  0  0  0  0  0
  183.6740  172.0050  136.4980 N   0  0  0  0  0  0  0  0  0  0  0  0
  179.9650  171.2080  134.8960 C   0  0  0  0  0  2  0  0  0  0  0  0
  179.9890  171.7620  136.3410 C   0  0  1  0  0  3  0  0  0  0  0  0
  184.4580  171.0110  135.7540 C   0  0  0  0  0  2  0  0  0  0  0  0
  182.3590  170.8460  135.1330 C   0  0  0  0  0  0  0  0  0  0  0  0
  179.3030  174.3560  137.8920 O   0  0  0  0  0  0  0  0  0  0  0  0
  179.9740  174.7570  139.0520 C   0  0  0  0  0  1  0  0  0  0  0  0
  189.8590  175.2050  134.5940 C   0  0  0  0  0  2  0  0  0  0  0  0
  188.4550  174.6520  134.9360 C   0  0  0  0  0  2  0  0  0  0  0  0
  190.1890  176.4120  135.3340 N   0  0  0  0  0  0  0  0  0  0  0  0
  186.9800  178.2560  135.4010 C   0  0  0  0  0  1  0  0  0  0  0  0
  189.3160  177.3370  135.5390 C   0  0  0  0  0  3  0  0  0  0  0  0
  187.9160  177.1150  135.0680 C   0  0  1  0  0  3  0  0  0  0  0  0
  187.4460  175.7000  135.4690 C   0  0  2  0  0  3  0  0  0  0  0  0
  187.1890  176.6820  137.7250 N   0  0  0  0  0  2  0  0  0  0  0  0
  188.2940  176.7530  138.6780 C   0  0  0  0  0  2  0  0  0  0  0  0
  187.8470  177.5000  139.9240 C   0  0  1  0  0  3  0  0  0  0  0  0
  188.7480  177.1360  144.3070 O   0  0  0  0  0  0  0  0  0  0  0  0
  190.3260  178.2050  142.8870 C   0  0  2  0  0  3  0  0  0  0  0  0
  188.2400  177.0890  143.0290 C   0  0  0  0  0  0  0  0  0  0  0  0
  187.1360  176.5560  142.7460 O   0  0  0  0  0  0  0  0  0  0  0  0
  190.0070  177.8010  144.3410 C   0  0  0  0  0  2  0  0  0  0  0  0
  189.0090  177.9260  140.7810 C   0  0  0  0  0  3  0  0  0  0  0  0
  189.1490  177.7280  142.1000 C   0  0  0  0  0  0  0  0  0  0  0  0
  191.5870  177.5420  142.4320 C   0  0  0  0  0  0  0  0  0  0  0  0
  192.0940  176.6320  143.1410 O   0  0  0  0  0  0  0  0  0  0  0  0
  192.1980  177.9410  141.2410 O   0  0  0  0  0  0  0  0  0  0  0  0
  192.3160  177.0640  140.1300 C   0  0  0  0  0  1  0  0  0  0  0  0
  186.9210  178.6570  139.5660 C   0  0  0  0  0  2  0  0  0  0  0  0
  184.7020  179.2870  142.5580 C   0  0  0  0  0  3  0  0  0  0  0  0
  185.7300  178.6890  140.4620 C   0  0  0  0  0  0  0  0  0  0  0  0
  185.8180  179.2910  141.7200 C   0  0  0  0  0  3  0  0  0  0  0  0
  184.5330  178.0870  140.0620 C   0  0  0  0  0  3  0  0  0  0  0  0
  183.5440  178.6990  142.1500 N   0  0  0  0  0  0  0  0  0  0  0  0
  183.4390  178.1050  140.9290 C   0  0  0  0  0  3  0  0  0  0  0  0
  1 16  1  0  0  0  0
  1  2  1  1  0  0  0
  1 37  1  0  0  0  0
  3  4  1  1  0  0  0
  6  7  1  6  0  0  0
  6 16  1  0  0  0  0
  6  3  1  0  0  0  0
  9 11  1  0  0  0  0
  9 17  1  0  0  0  0
 10  8  1  6  0  0  0
 10 14  1  0  0  0  0
 10 28  1  0  0  0  0
 11 15  1  6  0  0  0
 11 12  1  0  0  0  0
 11 14  1  0  0  0  0
 12  5  1  6  0  0  0
 12  6  1  0  0  0  0
 12  3  1  0  0  0  0
 13  5  1  0  0  0  0
 13 15  1  0  0  0  0
 16  3  1  0  0  0  0
 17 22  1  0  0  0  0
 17 10  1  0  0  0  0
 17 14  1  0  0  0  0
 18 24  1  0  0  0  0
 18 27  1  0  0  0  0
 19 27  2  0  0  0  0
 19 26  1  0  0  0  0
 21 23  2  0  0  0  0
 21 22  1  0  0  0  0
 24 25  1  0  0  0  0
 25 22  1  0  0  0  0
 25 20  1  0  0  0  0
 26 23  1  0  0  0  0
 27 21  1  0  0  0  0
 28 29  1  0  0  0  0
 30 31  1  0  0  0  0
 30 32  1  0  0  0  0
 31 36  1  0  0  0  0
 32 34  2  0  0  0  0
 35 33  1  0  0  0  0
 35 36  1  0  0  0  0
 35 34  1  0  0  0  0
 36  1  1  0  0  0  0
 37 38  1  0  0  0  0
 38 39  1  0  0  0  0
 39 45  1  0  0  0  0
 40 44  1  0  0  0  0
 41 44  1  0  0  0  0
 42 40  1  0  0  0  0
 43 42  2  0  0  0  0
 45 46  2  0  0  0  0
 46 41  1  0  0  0  0
 46 42  1  0  0  0  0
 47 41  1  0  0  0  0
 47 48  2  0  0  0  0
 49 47  1  0  0  0  0
 50 49  1  0  0  0  0
 51 39  1  0  0  0  0
 51 53  1  0  0  0  0
 53 54  1  0  0  0  0
 54 52  2  0  0  0  0
 55 53  2  0  0  0  0
 55 57  1  0  0  0  0
 56 52  1  0  0  0  0
 57 56  2  0  0  0  0
M  END
>  <MODEL>
8

>  <REMARK>
 VINA RESULT:      -5.4      2.549      5.444
  Name = 
  12 active torsions:
  status: ('A' for Active; 'I' for Inactive)
    1  A    between atoms: C_10  and  C_12
    2  A    between atoms: C_12  and  C_23
    3  A    between atoms: O_20  and  C_24
    4  A    between atoms: C_22  and  C_39
    5  A    between atoms: C_23  and  C_31
    6  A    between atoms: C_23  and  C_44
    7  A    between atoms: C_26  and  C_46
    8  A    between atoms: C_26  and  C_48
    9  A    between atoms: C_26  and  N_51
   10  A    between atoms: C_31  and  N_51
   11  A    between atoms: O_33  and  C_39
   12  A    between atoms: C_37  and  C_50
                            x       y       z     vdW  Elec       q    Type
                         _______ _______ _______ _____ _____    ______ ____

>  <TORSDO>
F 12

$$$$
=
 OpenBabel11062417353D

 57 66  0  0  1  0  0  0  0  0999 V2000
  189.3550  177.0020  139.1390 C   0  0  2  0  0  0  0  0  0  0  0  0
  189.9810  178.2600  139.1110 O   0  0  0  0  0  1  0  0  0  0  0  0
  189.6680  176.6980  141.5920 C   0  0  1  0  0  0  0  0  0  0  0  0
  189.2360  175.6080  142.3460 O   0  0  0  0  0  1  0  0  0  0  0  0
  191.0810  178.5880  142.0540 O   0  0  0  0  0  0  0  0  0  0  0  0
  188.6850  177.9310  141.6630 C   0  0  2  0  0  0  0  0  0  0  0  0
  188.7550  179.3020  140.9950 C   0  0  0  0  0  1  0  0  0  0  0  0
  190.1600  177.6550  146.8920 F   0  0  0  0  0  0  0  0  0  0  0  0
  188.8820  178.8150  144.4860 O   0  0  0  0  0  0  0  0  0  0  0  0
  189.0770  177.0390  146.2810 C   0  0  2  0  0  0  0  0  0  0  0  0
  189.8310  177.8850  144.0240 C   0  0  2  0  0  0  0  0  0  0  0  0
  189.9560  177.8680  142.4980 C   0  0  1  0  0  0  0  0  0  0  0  0
  191.7430  179.0300  143.2180 C   0  0  0  0  0  2  0  0  0  0  0  0
  189.2150  176.7320  144.8000 C   0  0  2  0  0  3  0  0  0  0  0  0
  191.2220  178.2770  144.4290 C   0  0  0  0  0  2  0  0  0  0  0  0
  188.6280  176.8980  140.5200 C   0  0  1  0  0  3  0  0  0  0  0  0
  188.2560  177.8250  145.2760 C   0  0  2  0  0  0  0  0  0  0  0  0
  184.8250  179.5840  145.9880 O   0  0  0  0  0  0  0  0  0  0  0  0
  184.4470  179.9360  143.6640 N   0  0  0  0  0  0  0  0  0  0  0  0
  184.9510  176.6950  146.4460 F   0  0  0  0  0  0  0  0  0  0  0  0
  186.0250  178.4340  144.1720 C   0  0  0  0  0  0  0  0  0  0  0  0
  186.7580  177.5220  145.1070 C   0  0  2  0  0  3  0  0  0  0  0  0
  185.9860  178.3500  142.8900 N   0  0  0  0  0  0  0  0  0  0  0  0
  185.6570  178.9300  146.9540 C   0  0  0  0  0  2  0  0  0  0  0  0
  186.0670  177.5130  146.4890 C   0  0  1  0  0  3  0  0  0  0  0  0
  185.0060  179.3480  142.4410 C   0  0  0  0  0  2  0  0  0  0  0  0
  185.0760  179.3820  144.6350 C   0  0  0  0  0  0  0  0  0  0  0  0
  188.4160  176.0200  146.9810 O   0  0  0  0  0  0  0  0  0  0  0  0
  188.8120  176.1440  148.3180 C   0  0  0  0  0  1  0  0  0  0  0  0
  192.8150  176.7510  138.1130 C   0  0  0  0  0  2  0  0  0  0  0  0
  191.8610  176.6350  139.3250 C   0  0  0  0  0  2  0  0  0  0  0  0
  192.1160  176.7540  136.8380 N   0  0  0  0  0  0  0  0  0  0  0  0
  189.4110  174.2820  137.3630 C   0  0  0  0  0  1  0  0  0  0  0  0
  191.1110  175.9780  136.6190 C   0  0  0  0  0  3  0  0  0  0  0  0
  190.6160  175.1190  137.7350 C   0  0  1  0  0  3  0  0  0  0  0  0
  190.5010  175.9540  139.0290 C   0  0  2  0  0  3  0  0  0  0  0  0
  188.4390  176.8440  137.9920 N   0  0  0  0  0  2  0  0  0  0  0  0
  187.6180  178.0230  137.7280 C   0  0  0  0  0  2  0  0  0  0  0  0
  186.1470  177.6550  137.8350 C   0  0  1  0  0  3  0  0  0  0  0  0
  183.2910  175.4270  135.1820 O   0  0  0  0  0  0  0  0  0  0  0  0
  184.8130  174.1990  136.5330 C   0  0  2  0  0  3  0  0  0  0  0  0
  184.0560  176.3430  135.8670 C   0  0  0  0  0  0  0  0  0  0  0  0
  183.9160  177.5880  135.7420 O   0  0  0  0  0  0  0  0  0  0  0  0
  183.6570  174.0920  135.5160 C   0  0  0  0  0  2  0  0  0  0  0  0
  185.9040  176.1930  137.5710 C   0  0  0  0  0  3  0  0  0  0  0  0
  185.0110  175.6680  136.7200 C   0  0  0  0  0  0  0  0  0  0  0  0
  186.0450  173.5520  135.9830 C   0  0  0  0  0  0  0  0  0  0  0  0
  186.5970  174.0470  134.9650 O   0  0  0  0  0  0  0  0  0  0  0  0
  186.5620  172.4040  136.5870 O   0  0  0  0  0  0  0  0  0  0  0  0
  187.3820  171.4880  135.8760 C   0  0  0  0  0  1  0  0  0  0  0  0
  185.5610  178.1210  139.1620 C   0  0  0  0  0  2  0  0  0  0  0  0
  182.2060  179.7690  138.6150 C   0  0  0  0  0  3  0  0  0  0  0  0
  184.0890  178.3310  139.0560 C   0  0  0  0  0  0  0  0  0  0  0  0
  183.5870  179.5810  138.6800 C   0  0  0  0  0  3  0  0  0  0  0  0
  183.2060  177.2930  139.3660 C   0  0  0  0  0  3  0  0  0  0  0  0
  181.3620  178.7450  138.9160 N   0  0  0  0  0  0  0  0  0  0  0  0
  181.8310  177.5220  139.2860 C   0  0  0  0  0  3  0  0  0  0  0  0
  1  2  1  6  0  0  0
  1 16  1  0  0  0  0
  3  6  1  0  0  0  0
  3  4  1  1  0  0  0
  3 12  1  0  0  0  0
  5 13  1  0  0  0  0
  6  7  1  6  0  0  0
  6 12  1  0  0  0  0
  9 17  1  0  0  0  0
 10  8  1  1  0  0  0
 10 28  1  0  0  0  0
 11 15  1  1  0  0  0
 11  9  1  0  0  0  0
 11 14  1  0  0  0  0
 12  5  1  6  0  0  0
 12 11  1  0  0  0  0
 13 15  1  0  0  0  0
 14 17  1  0  0  0  0
 14 10  1  0  0  0  0
 16  3  1  0  0  0  0
 16  6  1  0  0  0  0
 17 10  1  0  0  0  0
 18 24  1  0  0  0  0
 19 27  2  0  0  0  0
 20 25  1  0  0  0  0
 21 27  1  0  0  0  0
 21 22  1  0  0  0  0
 22 17  1  0  0  0  0
 22 25  1  0  0  0  0
 23 21  2  0  0  0  0
 25 24  1  0  0  0  0
 26 23  1  0  0  0  0
 26 19  1  0  0  0  0
 27 18  1  0  0  0  0
 28 29  1  0  0  0  0
 30 31  1  0  0  0  0
 32 30  1  0  0  0  0
 33 35  1  0  0  0  0
 34 32  2  0  0  0  0
 34 35  1  0  0  0  0
 35 36  1  0  0  0  0
 36  1  1  0  0  0  0
 36 31  1  0  0  0  0
 37  1  1  0  0  0  0
 38 39  1  0  0  0  0
 38 37  1  0  0  0  0
 39 51  1  0  0  0  0
 40 44  1  0  0  0  0
 40 42  1  0  0  0  0
 41 46  1  0  0  0  0
 42 46  1  0  0  0  0
 43 42  2  0  0  0  0
 44 41  1  0  0  0  0
 45 39  1  0  0  0  0
 46 45  2  0  0  0  0
 47 41  1  0  0  0  0
 47 49  1  0  0  0  0
 48 47  2  0  0  0  0
 50 49  1  0  0  0  0
 52 54  2  0  0  0  0
 52 56  1  0  0  0  0
 53 51  1  0  0  0  0
 53 55  2  0  0  0  0
 54 53  1  0  0  0  0
 56 57  2  0  0  0  0
 57 55  1  0  0  0  0
M  END
>  <MODEL>
9

>  <REMARK>
 VINA RESULT:      -5.3      3.741     10.324
  Name = 
  12 active torsions:
  status: ('A' for Active; 'I' for Inactive)
    1  A    between atoms: C_10  and  C_12
    2  A    between atoms: C_12  and  C_23
    3  A    between atoms: O_20  and  C_24
    4  A    between atoms: C_22  and  C_39
    5  A    between atoms: C_23  and  C_31
    6  A    between atoms: C_23  and  C_44
    7  A    between atoms: C_26  and  C_46
    8  A    between atoms: C_26  and  C_48
    9  A    between atoms: C_26  and  N_51
   10  A    between atoms: C_31  and  N_51
   11  A    between atoms: O_33  and  C_39
   12  A    between atoms: C_37  and  C_50
                            x       y       z     vdW  Elec       q    Type
                         _______ _______ _______ _____ _____    ______ ____

>  <TORSDO>
F 12

$$$$
