=
 OpenBabel11062413183D

 30 34  0  0  1  0  0  0  0  0999 V2000
  189.9590  177.5000  139.7190 C   0  0  0  0  0  2  0  0  0  0  0  0
  188.6990  177.7790  141.8750 C   0  0  0  0  0  0  0  0  0  0  0  0
  187.3810  178.0520  142.2580 C   0  0  0  0  0  0  0  0  0  0  0  0
  186.0120  178.0740  146.6640 C   0  0  0  0  0  2  0  0  0  0  0  0
  185.2990  178.5900  141.1150 C   0  0  0  0  0  0  0  0  0  0  0  0
  187.3600  178.0050  146.0330 C   0  0  0  0  0  3  0  0  0  0  0  0
  188.7980  177.8730  140.5300 N   0  0  0  0  0  0  0  0  0  0  0  0
  184.5070  178.3080  144.7840 C   0  0  0  0  0  2  0  0  0  0  0  0
  189.7860  177.9630  138.2720 C   0  0  0  0  0  2  0  0  0  0  0  0
  187.6440  177.9950  144.7280 C   0  0  0  0  0  3  0  0  0  0  0  0
  186.7680  178.1000  143.5310 C   0  0  0  0  0  0  0  0  0  0  0  0
  187.5710  178.1550  140.0410 C   0  0  0  0  0  0  0  0  0  0  0  0
  186.6740  178.3050  141.0910 C   0  0  0  0  0  0  0  0  0  0  0  0
  185.3620  178.3490  143.5580 C   0  0  0  0  0  0  0  0  0  0  0  0
  188.3990  177.5920  137.7390 C   0  0  2  0  0  3  0  0  0  0  0  0
  184.6620  178.5770  142.3610 C   0  0  0  0  0  3  0  0  0  0  0  0
  187.3000  178.2630  138.5690 C   0  0  0  0  0  2  0  0  0  0  0  0
  185.1140  179.0490  145.9490 C   0  0  0  0  0  2  0  0  0  0  0  0
  189.8100  177.3310  142.7320 C   0  0  0  0  0  0  0  0  0  0  0  0
  190.7160  178.3280  143.3390 C   0  0  0  0  0  3  0  0  0  0  0  0
  191.5780  177.9620  144.2940 C   0  0  0  0  0  3  0  0  0  0  0  0
  191.5730  176.5510  144.8180 C   0  0  0  0  0  2  0  0  0  0  0  0
  190.0400  176.0240  142.9180 C   0  0  0  0  0  3  0  0  0  0  0  0
  191.2430  175.5610  143.6970 C   0  0  0  0  0  2  0  0  0  0  0  0
  187.0320  175.9880  137.0600 C   0  0  0  0  0  1  0  0  0  0  0  0
  188.2290  176.2040  137.7440 O   0  0  0  0  0  0  0  0  0  0  0  0
  184.5560  180.0950  139.4500 O   0  0  0  0  0  0  0  0  0  0  0  0
  184.5020  178.9270  139.9230 C   0  0  0  0  0  0  0  0  0  0  0  0
  183.6900  177.8650  137.8560 C   0  0  0  0  0  1  0  0  0  0  0  0
  183.7610  177.9390  139.2720 O   0  0  0  0  0  0  0  0  0  0  0  0
  1  7  1  0  0  0  0
  2  3  2  0  0  0  0
  2 19  1  0  0  0  0
  3 11  1  0  0  0  0
  5 16  2  0  0  0  0
  6  4  1  0  0  0  0
  7  2  1  0  0  0  0
  8 18  1  0  0  0  0
  9  1  1  0  0  0  0
 10  6  2  0  0  0  0
 11 14  2  0  0  0  0
 11 10  1  0  0  0  0
 12  7  1  0  0  0  0
 12 13  2  0  0  0  0
 13  5  1  0  0  0  0
 13  3  1  0  0  0  0
 14  8  1  0  0  0  0
 15 26  1  1  0  0  0
 15  9  1  0  0  0  0
 15 17  1  0  0  0  0
 16 14  1  0  0  0  0
 17 12  1  0  0  0  0
 18  4  1  0  0  0  0
 19 23  2  0  0  0  0
 19 20  1  0  0  0  0
 20 21  2  0  0  0  0
 21 22  1  0  0  0  0
 23 24  1  0  0  0  0
 24 22  1  0  0  0  0
 25 26  1  0  0  0  0
 27 28  2  0  0  0  0
 28  5  1  0  0  0  0
 29 30  1  0  0  0  0
 30 28  1  0  0  0  0
M  END
>  <MODEL>
1

>  <REMARK>
 VINA RESULT:     -10.0      0.000      0.000
  Name = 
  4 active torsions:
  status: ('A' for Active; 'I' for Inactive)
    1  A    between atoms: C_4  and  C_5
    2  A    between atoms: C_11  and  C_21
    3  A    between atoms: O_20  and  C_21
    4  A    between atoms: C_23  and  O_30
                            x       y       z     vdW  Elec       q    Type
                         _______ _______ _______ _____ _____    ______ ____

>  <TORSDO>
F 4

$$$$
=
 OpenBabel11062413183D

 30 34  0  0  1  0  0  0  0  0999 V2000
  184.0190  178.5480  141.4280 C   0  0  0  0  0  2  0  0  0  0  0  0
  186.3210  178.1750  142.3650 C   0  0  0  0  0  0  0  0  0  0  0  0
  187.6230  178.0760  141.8620 C   0  0  0  0  0  0  0  0  0  0  0  0
  191.3250  177.6430  144.5810 C   0  0  0  0  0  2  0  0  0  0  0  0
  188.6540  178.0690  139.6560 C   0  0  0  0  0  0  0  0  0  0  0  0
  189.8630  177.5740  144.8600 C   0  0  0  0  0  3  0  0  0  0  0  0
  185.4520  178.2630  141.3330 N   0  0  0  0  0  0  0  0  0  0  0  0
  191.4420  177.9420  142.1820 C   0  0  0  0  0  2  0  0  0  0  0  0
  183.3280  178.3370  140.0800 C   0  0  0  0  0  2  0  0  0  0  0  0
  188.8640  177.7270  143.9860 C   0  0  0  0  0  3  0  0  0  0  0  0
  188.8700  177.9460  142.5160 C   0  0  0  0  0  0  0  0  0  0  0  0
  186.1670  178.2660  140.1870 C   0  0  0  0  0  0  0  0  0  0  0  0
  187.5170  178.1180  140.4790 C   0  0  0  0  0  0  0  0  0  0  0  0
  190.0320  177.9370  141.6850 C   0  0  0  0  0  0  0  0  0  0  0  0
  184.1140  179.0100  138.9500 C   0  0  2  0  0  3  0  0  0  0  0  0
  189.9010  178.0070  140.2890 C   0  0  0  0  0  3  0  0  0  0  0  0
  185.5230  178.4210  138.8400 C   0  0  0  0  0  2  0  0  0  0  0  0
  191.6770  176.9480  143.2920 C   0  0  0  0  0  2  0  0  0  0  0  0
  185.9070  178.2990  143.7740 C   0  0  0  0  0  0  0  0  0  0  0  0
  186.2680  177.2410  144.7410 C   0  0  0  0  0  3  0  0  0  0  0  0
  186.1060  177.4440  146.0520 C   0  0  0  0  0  3  0  0  0  0  0  0
  185.6350  178.7800  146.5600 C   0  0  0  0  0  2  0  0  0  0  0  0
  185.1570  179.3360  144.1730 C   0  0  0  0  0  3  0  0  0  0  0  0
  184.6350  179.4050  145.5830 C   0  0  0  0  0  2  0  0  0  0  0  0
  182.9180  180.8680  138.8100 C   0  0  0  0  0  1  0  0  0  0  0  0
  184.1830  180.3910  139.1590 O   0  0  0  0  0  0  0  0  0  0  0  0
  188.5220  179.1360  137.5510 O   0  0  0  0  0  0  0  0  0  0  0  0
  188.6110  178.0490  138.1840 C   0  0  0  0  0  0  0  0  0  0  0  0
  187.6800  175.9240  137.3600 C   0  0  0  0  0  1  0  0  0  0  0  0
  188.7540  176.8430  137.4950 O   0  0  0  0  0  0  0  0  0  0  0  0
  2 19  1  0  0  0  0
  3  2  2  0  0  0  0
  3 11  1  0  0  0  0
  4  6  1  0  0  0  0
  5 16  2  0  0  0  0
  5 13  1  0  0  0  0
  7  1  1  0  0  0  0
  7  2  1  0  0  0  0
  8 18  1  0  0  0  0
  9  1  1  0  0  0  0
 10  6  2  0  0  0  0
 11 10  1  0  0  0  0
 12 13  2  0  0  0  0
 12  7  1  0  0  0  0
 13  3  1  0  0  0  0
 14  8  1  0  0  0  0
 14 11  2  0  0  0  0
 15 26  1  1  0  0  0
 15  9  1  0  0  0  0
 16 14  1  0  0  0  0
 17 15  1  0  0  0  0
 17 12  1  0  0  0  0
 18  4  1  0  0  0  0
 19 23  2  0  0  0  0
 19 20  1  0  0  0  0
 20 21  2  0  0  0  0
 21 22  1  0  0  0  0
 23 24  1  0  0  0  0
 24 22  1  0  0  0  0
 25 26  1  0  0  0  0
 27 28  2  0  0  0  0
 28  5  1  0  0  0  0
 29 30  1  0  0  0  0
 30 28  1  0  0  0  0
M  END
>  <MODEL>
2

>  <REMARK>
 VINA RESULT:      -7.5      1.406      4.983
  Name = 
  4 active torsions:
  status: ('A' for Active; 'I' for Inactive)
    1  A    between atoms: C_4  and  C_5
    2  A    between atoms: C_11  and  C_21
    3  A    between atoms: O_20  and  C_21
    4  A    between atoms: C_23  and  O_30
                            x       y       z     vdW  Elec       q    Type
                         _______ _______ _______ _____ _____    ______ ____

>  <TORSDO>
F 4

$$$$
=
 OpenBabel11062413183D

 30 34  0  0  1  0  0  0  0  0999 V2000
  186.1770  178.2550  139.9220 C   0  0  0  0  0  2  0  0  0  0  0  0
  186.6000  178.2370  142.3990 C   0  0  0  0  0  0  0  0  0  0  0  0
  185.8370  178.3660  143.5650 C   0  0  0  0  0  0  0  0  0  0  0  0
  187.6270  177.8840  147.7900 C   0  0  0  0  0  2  0  0  0  0  0  0
  183.5050  178.8310  144.0900 C   0  0  0  0  0  0  0  0  0  0  0  0
  188.2520  177.9830  146.4410 C   0  0  0  0  0  3  0  0  0  0  0  0
  185.8100  178.4570  141.3240 N   0  0  0  0  0  0  0  0  0  0  0  0
  185.2630  178.1610  147.3510 C   0  0  0  0  0  2  0  0  0  0  0  0
  185.1100  178.8280  138.9880 C   0  0  0  0  0  2  0  0  0  0  0  0
  187.6290  178.1120  145.2660 C   0  0  0  0  0  3  0  0  0  0  0  0
  186.1880  178.2510  144.9290 C   0  0  0  0  0  0  0  0  0  0  0  0
  184.5540  178.6810  141.7700 C   0  0  0  0  0  0  0  0  0  0  0  0
  184.5430  178.6630  143.1590 C   0  0  0  0  0  0  0  0  0  0  0  0
  185.1280  178.3800  145.8780 C   0  0  0  0  0  0  0  0  0  0  0  0
  183.7080  178.3940  139.4250 C   0  0  2  0  0  3  0  0  0  0  0  0
  183.8210  178.6560  145.4430 C   0  0  0  0  0  3  0  0  0  0  0  0
  183.3980  178.8970  140.8390 C   0  0  0  0  0  2  0  0  0  0  0  0
  186.4740  178.8430  147.9370 C   0  0  0  0  0  2  0  0  0  0  0  0
  188.0040  177.8070  142.2860 C   0  0  0  0  0  0  0  0  0  0  0  0
  188.4090  176.4800  142.7950 C   0  0  0  0  0  3  0  0  0  0  0  0
  189.6130  175.9820  142.4970 C   0  0  0  0  0  3  0  0  0  0  0  0
  190.5340  176.7310  141.5720 C   0  0  0  0  0  2  0  0  0  0  0  0
  188.9290  178.6330  141.7770 C   0  0  0  0  0  3  0  0  0  0  0  0
  190.3830  178.2420  141.7680 C   0  0  0  0  0  2  0  0  0  0  0  0
  182.2860  176.7380  139.7950 C   0  0  0  0  0  1  0  0  0  0  0  0
  183.5890  177.0020  139.3700 O   0  0  0  0  0  0  0  0  0  0  0  0
  181.8380  180.4230  143.5620 O   0  0  0  0  0  0  0  0  0  0  0  0
  182.1260  179.2060  143.7340 C   0  0  0  0  0  0  0  0  0  0  0  0
  179.8920  178.2520  144.1300 C   0  0  0  0  0  1  0  0  0  0  0  0
  181.1670  178.2190  143.5060 O   0  0  0  0  0  0  0  0  0  0  0  0
  1  7  1  0  0  0  0
  2  3  2  0  0  0  0
  3 11  1  0  0  0  0
  4 18  1  0  0  0  0
  5 16  2  0  0  0  0
  6  4  1  0  0  0  0
  7 12  1  0  0  0  0
  7  2  1  0  0  0  0
  8 18  1  0  0  0  0
  9 15  1  0  0  0  0
  9  1  1  0  0  0  0
 10  6  2  0  0  0  0
 11 10  1  0  0  0  0
 11 14  2  0  0  0  0
 12 13  2  0  0  0  0
 13  3  1  0  0  0  0
 13  5  1  0  0  0  0
 14  8  1  0  0  0  0
 15 26  1  1  0  0  0
 15 17  1  0  0  0  0
 16 14  1  0  0  0  0
 17 12  1  0  0  0  0
 19  2  1  0  0  0  0
 19 20  1  0  0  0  0
 21 20  2  0  0  0  0
 22 24  1  0  0  0  0
 22 21  1  0  0  0  0
 23 19  2  0  0  0  0
 24 23  1  0  0  0  0
 26 25  1  0  0  0  0
 27 28  2  0  0  0  0
 28  5  1  0  0  0  0
 30 28  1  0  0  0  0
 30 29  1  0  0  0  0
M  END
>  <MODEL>
3

>  <REMARK>
 VINA RESULT:      -7.4      2.095      3.688
  Name = 
  4 active torsions:
  status: ('A' for Active; 'I' for Inactive)
    1  A    between atoms: C_4  and  C_5
    2  A    between atoms: C_11  and  C_21
    3  A    between atoms: O_20  and  C_21
    4  A    between atoms: C_23  and  O_30
                            x       y       z     vdW  Elec       q    Type
                         _______ _______ _______ _____ _____    ______ ____

>  <TORSDO>
F 4

$$$$
=
 OpenBabel11062413183D

 30 34  0  0  1  0  0  0  0  0999 V2000
  188.5660  177.8640  137.5380 C   0  0  0  0  0  2  0  0  0  0  0  0
  189.4340  177.5130  139.8700 C   0  0  0  0  0  0  0  0  0  0  0  0
  188.9170  177.5640  141.1690 C   0  0  0  0  0  0  0  0  0  0  0  0
  191.3950  176.4300  144.8920 C   0  0  0  0  0  2  0  0  0  0  0  0
  186.7840  178.1560  142.1840 C   0  0  0  0  0  0  0  0  0  0  0  0
  191.7670  176.6370  143.4640 C   0  0  0  0  0  3  0  0  0  0  0  0
  188.4870  177.9270  138.9980 N   0  0  0  0  0  0  0  0  0  0  0  0
  189.0330  176.9540  144.9530 C   0  0  0  0  0  2  0  0  0  0  0  0
  187.4120  178.6330  136.8930 C   0  0  0  0  0  2  0  0  0  0  0  0
  190.9550  176.9580  142.4530 C   0  0  0  0  0  3  0  0  0  0  0  0
  189.4990  177.2570  142.4200 C   0  0  0  0  0  0  0  0  0  0  0  0
  187.3660  178.1990  139.7010 C   0  0  0  0  0  0  0  0  0  0  0  0
  187.6090  178.0150  141.0560 C   0  0  0  0  0  0  0  0  0  0  0  0
  188.6520  177.3590  143.5650 C   0  0  0  0  0  0  0  0  0  0  0  0
  186.0770  178.2680  137.5490 C   0  0  2  0  0  3  0  0  0  0  0  0
  187.3240  177.7930  143.4230 C   0  0  0  0  0  3  0  0  0  0  0  0
  186.0870  178.6210  139.0390 C   0  0  0  0  0  2  0  0  0  0  0  0
  190.3960  177.4570  145.3590 C   0  0  0  0  0  2  0  0  0  0  0  0
  190.7410  176.9840  139.4420 C   0  0  0  0  0  0  0  0  0  0  0  0
  190.8050  175.7320  138.6590 C   0  0  0  0  0  3  0  0  0  0  0  0
  191.9470  175.3640  138.0700 C   0  0  0  0  0  3  0  0  0  0  0  0
  193.1530  176.2620  138.1270 C   0  0  0  0  0  2  0  0  0  0  0  0
  191.8750  177.5990  139.8050 C   0  0  0  0  0  3  0  0  0  0  0  0
  193.2140  176.9980  139.4690 C   0  0  0  0  0  2  0  0  0  0  0  0
  184.4120  176.8160  137.4080 C   0  0  0  0  0  1  0  0  0  0  0  0
  185.8040  176.9080  137.3760 O   0  0  0  0  0  0  0  0  0  0  0  0
  185.2180  179.9240  142.2800 O   0  0  0  0  0  0  0  0  0  0  0  0
  185.4100  178.6850  142.1440 C   0  0  0  0  0  0  0  0  0  0  0  0
  183.1190  178.3140  141.3250 C   0  0  0  0  0  1  0  0  0  0  0  0
  184.3380  177.8340  141.8710 O   0  0  0  0  0  0  0  0  0  0  0  0
  1  7  1  0  0  0  0
  2  3  2  0  0  0  0
  3 11  1  0  0  0  0
  4 18  1  0  0  0  0
  5 16  2  0  0  0  0
  6  4  1  0  0  0  0
  7 12  1  0  0  0  0
  7  2  1  0  0  0  0
  8 18  1  0  0  0  0
  9  1  1  0  0  0  0
  9 15  1  0  0  0  0
 10  6  2  0  0  0  0
 11 10  1  0  0  0  0
 11 14  2  0  0  0  0
 12 13  2  0  0  0  0
 13  3  1  0  0  0  0
 13  5  1  0  0  0  0
 14  8  1  0  0  0  0
 15 26  1  1  0  0  0
 15 17  1  0  0  0  0
 16 14  1  0  0  0  0
 17 12  1  0  0  0  0
 19 23  2  0  0  0  0
 19  2  1  0  0  0  0
 20 19  1  0  0  0  0
 21 22  1  0  0  0  0
 21 20  2  0  0  0  0
 22 24  1  0  0  0  0
 24 23  1  0  0  0  0
 26 25  1  0  0  0  0
 28  5  1  0  0  0  0
 28 27  2  0  0  0  0
 29 30  1  0  0  0  0
 30 28  1  0  0  0  0
M  END
>  <MODEL>
4

>  <REMARK>
 VINA RESULT:      -7.3      1.802      3.751
  Name = 
  4 active torsions:
  status: ('A' for Active; 'I' for Inactive)
    1  A    between atoms: C_4  and  C_5
    2  A    between atoms: C_11  and  C_21
    3  A    between atoms: O_20  and  C_21
    4  A    between atoms: C_23  and  O_30
                            x       y       z     vdW  Elec       q    Type
                         _______ _______ _______ _____ _____    ______ ____

>  <TORSDO>
F 4

$$$$
=
 OpenBabel11062413183D

 30 34  0  0  1  0  0  0  0  0999 V2000
  190.2750  177.4590  141.5050 C   0  0  0  0  0  2  0  0  0  0  0  0
  187.9460  177.8520  140.6480 C   0  0  0  0  0  0  0  0  0  0  0  0
  186.6880  178.1170  141.2000 C   0  0  0  0  0  0  0  0  0  0  0  0
  182.9610  178.9860  138.6210 C   0  0  0  0  0  2  0  0  0  0  0  0
  185.7580  178.2830  143.4440 C   0  0  0  0  0  0  0  0  0  0  0  0
  184.3270  178.4990  138.2780 C   0  0  0  0  0  3  0  0  0  0  0  0
  188.8260  177.6110  141.6450 N   0  0  0  0  0  0  0  0  0  0  0  0
  183.0000  179.1560  141.0350 C   0  0  0  0  0  2  0  0  0  0  0  0
  190.9030  176.9670  142.8100 C   0  0  0  0  0  2  0  0  0  0  0  0
  185.3470  178.2900  139.1160 C   0  0  0  0  0  3  0  0  0  0  0  0
  185.4440  178.4090  140.5940 C   0  0  0  0  0  0  0  0  0  0  0  0
  188.1740  177.7570  142.8190 C   0  0  0  0  0  0  0  0  0  0  0  0
  186.8360  178.0400  142.5770 C   0  0  0  0  0  0  0  0  0  0  0  0
  184.3550  178.6970  141.4710 C   0  0  0  0  0  0  0  0  0  0  0  0
  190.3860  177.7730  144.0050 C   0  0  2  0  0  3  0  0  0  0  0  0
  184.5350  178.6380  142.8630 C   0  0  0  0  0  3  0  0  0  0  0  0
  188.8680  177.6280  144.1440 C   0  0  0  0  0  2  0  0  0  0  0  0
  182.4480  178.3490  139.8870 C   0  0  0  0  0  2  0  0  0  0  0  0
  188.3430  177.9340  139.2320 C   0  0  0  0  0  0  0  0  0  0  0  0
  188.3790  176.7080  138.4080 C   0  0  0  0  0  3  0  0  0  0  0  0
  188.5090  176.7920  137.0800 C   0  0  0  0  0  3  0  0  0  0  0  0
  188.5350  178.1380  136.4050 C   0  0  0  0  0  2  0  0  0  0  0  0
  188.7270  179.1040  138.7000 C   0  0  0  0  0  3  0  0  0  0  0  0
  189.2430  179.1690  137.2870 C   0  0  0  0  0  2  0  0  0  0  0  0
  192.0680  179.1880  144.2700 C   0  0  0  0  0  1  0  0  0  0  0  0
  190.7330  179.1210  143.8720 O   0  0  0  0  0  0  0  0  0  0  0  0
  186.0450  177.0290  145.4280 O   0  0  0  0  0  0  0  0  0  0  0  0
  185.8290  178.1590  144.9100 C   0  0  0  0  0  0  0  0  0  0  0  0
  186.0090  179.2490  147.1090 C   0  0  0  0  0  1  0  0  0  0  0  0
  185.7450  179.2960  145.7150 O   0  0  0  0  0  0  0  0  0  0  0  0
  1  7  1  0  0  0  0
  1  9  1  0  0  0  0
  2  3  2  0  0  0  0
  2  7  1  0  0  0  0
  3 13  1  0  0  0  0
  4 18  1  0  0  0  0
  5 28  1  0  0  0  0
  6  4  1  0  0  0  0
  6 10  2  0  0  0  0
  7 12  1  0  0  0  0
  8 14  1  0  0  0  0
  9 15  1  0  0  0  0
 10 11  1  0  0  0  0
 11  3  1  0  0  0  0
 11 14  2  0  0  0  0
 12 17  1  0  0  0  0
 13 12  2  0  0  0  0
 13  5  1  0  0  0  0
 14 16  1  0  0  0  0
 15 26  1  6  0  0  0
 15 17  1  0  0  0  0
 16  5  2  0  0  0  0
 18  8  1  0  0  0  0
 19  2  1  0  0  0  0
 20 19  1  0  0  0  0
 21 20  2  0  0  0  0
 22 21  1  0  0  0  0
 22 24  1  0  0  0  0
 23 19  2  0  0  0  0
 24 23  1  0  0  0  0
 26 25  1  0  0  0  0
 28 27  2  0  0  0  0
 28 30  1  0  0  0  0
 30 29  1  0  0  0  0
M  END
>  <MODEL>
5

>  <REMARK>
 VINA RESULT:      -7.0      2.447      5.825
  Name = 
  4 active torsions:
  status: ('A' for Active; 'I' for Inactive)
    1  A    between atoms: C_4  and  C_5
    2  A    between atoms: C_11  and  C_21
    3  A    between atoms: O_20  and  C_21
    4  A    between atoms: C_23  and  O_30
                            x       y       z     vdW  Elec       q    Type
                         _______ _______ _______ _____ _____    ______ ____

>  <TORSDO>
F 4

$$$$
=
 OpenBabel11062413183D

 30 34  0  0  1  0  0  0  0  0999 V2000
  187.2350  177.3750  145.2680 C   0  0  0  0  0  2  0  0  0  0  0  0
  188.4440  177.2820  143.0670 C   0  0  0  0  0  0  0  0  0  0  0  0
  188.1660  177.6160  141.7360 C   0  0  0  0  0  0  0  0  0  0  0  0
  191.3080  177.2950  138.3730 C   0  0  0  0  0  2  0  0  0  0  0  0
  186.2350  178.4380  140.5010 C   0  0  0  0  0  0  0  0  0  0  0  0
  191.3040  176.8300  139.7890 C   0  0  0  0  0  3  0  0  0  0  0  0
  187.3270  177.4520  143.8090 N   0  0  0  0  0  0  0  0  0  0  0  0
  189.1060  178.2520  138.0740 C   0  0  0  0  0  2  0  0  0  0  0  0
  185.7760  177.3910  145.7270 C   0  0  0  0  0  2  0  0  0  0  0  0
  190.3300  176.9880  140.6900 C   0  0  0  0  0  3  0  0  0  0  0  0
  188.9780  177.5940  140.5790 C   0  0  0  0  0  0  0  0  0  0  0  0
  186.3560  177.9250  142.9970 C   0  0  0  0  0  0  0  0  0  0  0  0
  186.8360  178.0070  141.6960 C   0  0  0  0  0  0  0  0  0  0  0  0
  188.3840  178.0690  139.3700 C   0  0  0  0  0  0  0  0  0  0  0  0
  184.9920  178.5020  145.0230 C   0  0  2  0  0  3  0  0  0  0  0  0
  187.0420  178.4860  139.3590 C   0  0  0  0  0  3  0  0  0  0  0  0
  184.9930  178.2930  143.5060 C   0  0  0  0  0  2  0  0  0  0  0  0
  189.9730  177.0720  137.7120 C   0  0  0  0  0  2  0  0  0  0  0  0
  189.7470  176.9250  143.6520 C   0  0  0  0  0  0  0  0  0  0  0  0
  190.5160  177.9370  144.4050 C   0  0  0  0  0  3  0  0  0  0  0  0
  191.5780  177.5730  145.1320 C   0  0  0  0  0  3  0  0  0  0  0  0
  191.9480  176.1200  145.2570 C   0  0  0  0  0  2  0  0  0  0  0  0
  190.2680  175.7040  143.4560 C   0  0  0  0  0  3  0  0  0  0  0  0
  191.6500  175.3740  143.9530 C   0  0  0  0  0  2  0  0  0  0  0  0
  185.7990  179.6920  146.7070 C   0  0  0  0  0  1  0  0  0  0  0  0
  185.5290  179.7540  145.3390 O   0  0  0  0  0  0  0  0  0  0  0  0
  184.5090  179.9390  139.9050 O   0  0  0  0  0  0  0  0  0  0  0  0
  184.8150  178.8090  140.3750 C   0  0  0  0  0  0  0  0  0  0  0  0
  182.9050  177.4040  139.7160 C   0  0  0  0  0  1  0  0  0  0  0  0
  183.8180  177.8850  140.6910 O   0  0  0  0  0  0  0  0  0  0  0  0
  1  9  1  0  0  0  0
  2 19  1  0  0  0  0
  2  7  1  0  0  0  0
  3  2  2  0  0  0  0
  4  6  1  0  0  0  0
  5 13  1  0  0  0  0
  6 10  2  0  0  0  0
  7  1  1  0  0  0  0
  8 14  1  0  0  0  0
 11 10  1  0  0  0  0
 11  3  1  0  0  0  0
 12 17  1  0  0  0  0
 12  7  1  0  0  0  0
 13  3  1  0  0  0  0
 13 12  2  0  0  0  0
 14 11  2  0  0  0  0
 15 26  1  6  0  0  0
 15  9  1  0  0  0  0
 16 14  1  0  0  0  0
 16  5  2  0  0  0  0
 17 15  1  0  0  0  0
 18  8  1  0  0  0  0
 18  4  1  0  0  0  0
 19 20  1  0  0  0  0
 20 21  2  0  0  0  0
 21 22  1  0  0  0  0
 23 19  2  0  0  0  0
 23 24  1  0  0  0  0
 24 22  1  0  0  0  0
 26 25  1  0  0  0  0
 27 28  2  0  0  0  0
 28  5  1  0  0  0  0
 28 30  1  0  0  0  0
 29 30  1  0  0  0  0
M  END
>  <MODEL>
6

>  <REMARK>
 VINA RESULT:      -7.0      1.627      5.245
  Name = 
  4 active torsions:
  status: ('A' for Active; 'I' for Inactive)
    1  A    between atoms: C_4  and  C_5
    2  A    between atoms: C_11  and  C_21
    3  A    between atoms: O_20  and  C_21
    4  A    between atoms: C_23  and  O_30
                            x       y       z     vdW  Elec       q    Type
                         _______ _______ _______ _____ _____    ______ ____

>  <TORSDO>
F 4

$$$$
=
 OpenBabel11062413183D

 30 34  0  0  1  0  0  0  0  0999 V2000
  187.4220  177.7260  145.9010 C   0  0  0  0  0  2  0  0  0  0  0  0
  187.5160  177.8170  143.3920 C   0  0  0  0  0  0  0  0  0  0  0  0
  186.6430  178.1480  142.3500 C   0  0  0  0  0  0  0  0  0  0  0  0
  187.9550  178.2520  137.9280 C   0  0  0  0  0  2  0  0  0  0  0  0
  184.2990  178.7810  142.1620 C   0  0  0  0  0  0  0  0  0  0  0  0
  188.6270  177.7570  139.1620 C   0  0  0  0  0  3  0  0  0  0  0  0
  186.8410  177.8460  144.5630 N   0  0  0  0  0  0  0  0  0  0  0  0
  185.7780  178.9680  138.7050 C   0  0  0  0  0  2  0  0  0  0  0  0
  186.3290  177.5700  146.9600 C   0  0  0  0  0  2  0  0  0  0  0  0
  188.1530  177.7870  140.4100 C   0  0  0  0  0  3  0  0  0  0  0  0
  186.8470  178.2430  140.9540 C   0  0  0  0  0  0  0  0  0  0  0  0
  185.5720  178.2280  144.3020 C   0  0  0  0  0  0  0  0  0  0  0  0
  185.4070  178.3920  142.9320 C   0  0  0  0  0  0  0  0  0  0  0  0
  185.7340  178.6770  140.1710 C   0  0  0  0  0  0  0  0  0  0  0  0
  185.2180  178.6040  146.7570 C   0  0  2  0  0  3  0  0  0  0  0  0
  184.4990  178.9430  140.7860 C   0  0  0  0  0  3  0  0  0  0  0  0
  184.5560  178.4320  145.3870 C   0  0  0  0  0  2  0  0  0  0  0  0
  186.4900  177.8990  137.9150 C   0  0  0  0  0  2  0  0  0  0  0  0
  188.9700  177.5920  143.3100 C   0  0  0  0  0  0  0  0  0  0  0  0
  189.4940  176.2140  143.2060 C   0  0  0  0  0  3  0  0  0  0  0  0
  190.7780  176.0030  142.9010 C   0  0  0  0  0  3  0  0  0  0  0  0
  191.6810  177.1630  142.5780 C   0  0  0  0  0  2  0  0  0  0  0  0
  189.8230  178.6230  143.3880 C   0  0  0  0  0  3  0  0  0  0  0  0
  191.3090  178.3860  143.4220 C   0  0  0  0  0  2  0  0  0  0  0  0
  186.4310  179.8880  148.0940 C   0  0  0  0  0  1  0  0  0  0  0  0
  185.7270  179.9010  146.8890 O   0  0  0  0  0  0  0  0  0  0  0  0
  182.7640  179.8880  143.5790 O   0  0  0  0  0  0  0  0  0  0  0  0
  182.9470  178.9960  142.7050 C   0  0  0  0  0  0  0  0  0  0  0  0
  180.7100  178.9280  141.6810 C   0  0  0  0  0  1  0  0  0  0  0  0
  181.8630  178.2790  142.1950 O   0  0  0  0  0  0  0  0  0  0  0  0
  1  9  1  0  0  0  0
  2  7  1  0  0  0  0
  3 13  1  0  0  0  0
  3  2  2  0  0  0  0
  4  6  1  0  0  0  0
  5 28  1  0  0  0  0
  5 13  1  0  0  0  0
  6 10  2  0  0  0  0
  7  1  1  0  0  0  0
  8 14  1  0  0  0  0
 10 11  1  0  0  0  0
 11  3  1  0  0  0  0
 12  7  1  0  0  0  0
 12 17  1  0  0  0  0
 13 12  2  0  0  0  0
 14 16  1  0  0  0  0
 14 11  2  0  0  0  0
 15 26  1  6  0  0  0
 15  9  1  0  0  0  0
 16  5  2  0  0  0  0
 17 15  1  0  0  0  0
 18  4  1  0  0  0  0
 18  8  1  0  0  0  0
 19 23  2  0  0  0  0
 19  2  1  0  0  0  0
 20 19  1  0  0  0  0
 21 20  2  0  0  0  0
 22 21  1  0  0  0  0
 22 24  1  0  0  0  0
 23 24  1  0  0  0  0
 26 25  1  0  0  0  0
 28 27  2  0  0  0  0
 29 30  1  0  0  0  0
 30 28  1  0  0  0  0
M  END
>  <MODEL>
7

>  <REMARK>
 VINA RESULT:      -7.0      2.266      5.629
  Name = 
  4 active torsions:
  status: ('A' for Active; 'I' for Inactive)
    1  A    between atoms: C_4  and  C_5
    2  A    between atoms: C_11  and  C_21
    3  A    between atoms: O_20  and  C_21
    4  A    between atoms: C_23  and  O_30
                            x       y       z     vdW  Elec       q    Type
                         _______ _______ _______ _____ _____    ______ ____

>  <TORSDO>
F 4

$$$$
