=
 OpenBabel11062418153D

 59 67  0  0  1  0  0  0  0  0999 V2000
  183.4710  179.9700  138.5620 C   0  0  0  0  0  2  0  0  0  0  0  0
  184.7580  179.3860  139.1440 C   0  0  1  0  0  3  0  0  0  0  0  0
  185.9250  178.9850  143.6420 C   0  0  2  0  0  3  0  0  0  0  0  0
  183.5000  179.5160  144.2350 C   0  0  0  0  0  2  0  0  0  0  0  0
  184.0130  178.1780  142.1250 C   0  0  2  0  0  3  0  0  0  0  0  0
  184.9100  180.0750  144.0080 C   0  0  0  0  0  2  0  0  0  0  0  0
  185.9890  178.9010  141.1550 C   0  0  0  0  0  2  0  0  0  0  0  0
  183.1850  178.2670  143.4040 C   0  0  0  0  0  2  0  0  0  0  0  0
  185.5060  178.2050  142.3800 C   0  0  1  0  0  3  0  0  0  0  0  0
  183.6840  179.2180  141.2360 O   0  0  0  0  0  0  0  0  0  0  0  0
  184.8390  179.6040  140.6040 N   0  0  0  0  0  0  0  0  0  0  0  0
  186.1540  178.0410  144.8210 C   0  0  0  0  0  2  0  0  0  0  0  0
  187.2780  177.8000  147.7110 Cl  0  0  0  0  0  0  0  0  0  0  0  0
  190.3010  176.9880  145.1500 C   0  0  0  0  0  3  0  0  0  0  0  0
  188.1980  177.5220  146.2320 C   0  0  0  0  0  0  0  0  0  0  0  0
  189.5490  177.1470  146.3220 C   0  0  0  0  0  0  0  0  0  0  0  0
  188.3730  177.5460  143.8110 C   0  0  0  0  0  3  0  0  0  0  0  0
  187.6060  177.7090  144.9670 C   0  0  0  0  0  0  0  0  0  0  0  0
  189.7240  177.1940  143.8940 C   0  0  0  0  0  0  0  0  0  0  0  0
  190.5190  176.9960  142.6680 C   0  0  0  0  0  0  0  0  0  0  0  0
  189.8710  176.9380  141.3970 N   0  0  0  0  0  2  0  0  0  0  0  0
  190.6170  176.7830  140.1580 C   0  0  0  0  0  1  0  0  0  0  0  0
  191.7730  176.8920  142.7380 O   0  0  0  0  0  0  0  0  0  0  0  0
  191.4930  176.6020  147.7550 C   0  0  0  0  0  1  0  0  0  0  0  0
  190.1210  176.9290  147.5810 O   0  0  0  0  0  0  0  0  0  0  0  0
  183.6760  177.1740  138.4920 C   0  0  0  0  0  1  0  0  0  0  0  0
  184.9840  177.9380  138.6490 C   0  0  1  0  0  3  0  0  0  0  0  0
  185.8570  177.8410  137.3980 C   0  0  0  0  0  2  0  0  0  0  0  0
  186.7520  178.9120  137.3350 O   0  0  0  0  0  0  0  0  0  0  0  0
  187.9880  178.3140  137.0920 C   0  0  0  0  0  1  0  0  0  0  0  0
  182.4190  178.8850  138.3620 C   0  0  0  0  0  2  0  0  0  0  0  0
  180.5280  183.8940  136.8130 C   0  0  0  0  0  0  0  0  0  0  0  0
  179.4470  183.7170  134.5950 F   0  0  0  0  0  0  0  0  0  0  0  0
  181.2430  183.2260  137.7340 C   0  0  0  0  0  3  0  0  0  0  0  0
  181.3820  181.7400  137.5410 C   0  0  1  0  0  3  0  0  0  0  0  0
  179.8210  183.1230  135.7530 C   0  0  0  0  0  0  0  0  0  0  0  0
  180.9810  179.3540  138.6570 C   0  0  1  0  0  0  0  0  0  0  0  0
  180.4430  185.2780  136.8570 O   0  0  0  0  0  1  0  0  0  0  0  0
  180.6930  180.8290  138.4980 C   0  0  1  0  0  0  0  0  0  0  0  0
  179.5960  181.8110  135.9510 C   0  0  0  0  0  3  0  0  0  0  0  0
  179.9150  181.2350  137.3210 C   0  0  1  0  0  0  0  0  0  0  0  0
  180.0110  179.7330  137.5330 C   0  0  2  0  0  0  0  0  0  0  0  0
  180.8720  177.6300  140.4760 O   0  0  0  0  0  1  0  0  0  0  0  0
  179.2860  179.2710  140.3660 O   0  0  0  0  0  0  0  0  0  0  0  0
  180.3240  178.7550  139.8720 C   0  0  0  0  0  0  0  0  0  0  0  0
  180.5950  179.1370  136.2470 C   0  0  0  0  0  0  0  0  0  0  0  0
  180.9140  179.8340  135.2900 O   0  0  0  0  0  0  0  0  0  0  0  0
  181.6910  172.3810  136.0370 C   0  0  0  0  0  3  0  0  0  0  0  0
  181.9370  177.3000  135.2220 C   0  0  0  0  0  2  0  0  0  0  0  0
  179.4270  176.9500  135.8470 C   0  0  2  0  0  3  0  0  0  0  0  0
  180.6450  174.9740  136.7150 N   0  0  2  0  0  0  0  0  0  0  0  0
  181.8480  174.8110  135.8420 C   0  0  1  0  0  3  0  0  0  0  0  0
  180.2260  173.7590  137.4470 C   0  0  0  0  0  2  0  0  0  0  0  0
  180.7660  177.6510  136.1560 C   0  0  2  0  0  3  0  0  0  0  0  0
  179.4860  175.4180  135.9430 C   0  0  0  0  0  2  0  0  0  0  0  0
  178.9360  177.3250  134.5940 O   0  0  0  0  0  1  0  0  0  0  0  0
  181.2700  172.6390  137.4470 C   0  0  0  0  0  2  0  0  0  0  0  0
  181.9610  173.4290  135.2590 C   0  0  0  0  0  3  0  0  0  0  0  0
  181.9520  175.8540  134.7230 C   0  0  0  0  0  2  0  0  0  0  0  0
  2  1  1  1  0  0  0
  2 11  1  0  0  0  0
  3  6  1  0  0  0  0
  3 12  1  1  0  0  0
  5  9  1  0  0  0  0
  5  8  1  1  0  0  0
  6  4  1  0  0  0  0
  8  4  1  0  0  0  0
  9  7  1  6  0  0  0
  9  3  1  0  0  0  0
 10  5  1  0  0  0  0
 11  7  1  0  0  0  0
 11 10  1  0  0  0  0
 12 18  1  0  0  0  0
 14 16  1  0  0  0  0
 15 16  2  0  0  0  0
 15 13  1  0  0  0  0
 16 25  1  0  0  0  0
 17 19  1  0  0  0  0
 17 18  2  0  0  0  0
 18 15  1  0  0  0  0
 19 14  2  0  0  0  0
 20 23  2  0  0  0  0
 20 19  1  0  0  0  0
 21 20  1  0  0  0  0
 22 21  1  0  0  0  0
 25 24  1  0  0  0  0
 27 26  1  6  0  0  0
 27  2  1  0  0  0  0
 28 27  1  0  0  0  0
 29 28  1  0  0  0  0
 30 29  1  0  0  0  0
 31  1  1  0  0  0  0
 32 38  1  0  0  0  0
 32 34  2  0  0  0  0
 33 36  1  0  0  0  0
 35 34  1  1  0  0  0
 35 39  1  0  0  0  0
 36 40  2  0  0  0  0
 36 32  1  0  0  0  0
 37 31  1  6  0  0  0
 37 45  1  0  0  0  0
 39 37  1  0  0  0  0
 40 41  1  0  0  0  0
 41 42  1  0  0  0  0
 41 35  1  0  0  0  0
 41 39  1  0  0  0  0
 42 39  1  0  0  0  0
 42 37  1  0  0  0  0
 45 44  2  0  0  0  0
 45 43  1  0  0  0  0
 46 42  1  0  0  0  0
 47 46  2  0  0  0  0
 48 57  1  0  0  0  0
 49 54  1  0  0  0  0
 50 55  1  0  0  0  0
 50 54  1  0  0  0  0
 51 53  1  0  0  0  0
 52 51  1  0  0  0  0
 54 46  1  0  0  0  0
 55 51  1  0  0  0  0
 56 50  1  0  0  0  0
 57 53  1  0  0  0  0
 58 52  1  0  0  0  0
 58 48  2  0  0  0  0
 59 49  1  0  0  0  0
 59 52  1  0  0  0  0
M  END
>  <MODEL>
1

>  <REMARK>
 VINA RESULT:      -8.6      0.000      0.000
  Name = 
  14 active torsions:
  status: ('A' for Active; 'I' for Inactive)
    1  A    between atoms: C_3  and  C_55
    2  A    between atoms: C_4  and  C_56
    3  A    between atoms: C_6  and  O_8
    4  A    between atoms: C_6  and  C_38
    5  A    between atoms: C_19  and  C_39
    6  A    between atoms: C_23  and  C_32
    7  A    between atoms: C_23  and  C_44
    8  A    between atoms: C_32  and  C_38
    9  A    between atoms: C_32  and  N_58
   10  A    between atoms: C_33  and  C_44
   11  A    between atoms: C_33  and  C_45
   12  A    between atoms: C_36  and  O_51
   13  A    between atoms: C_39  and  C_54
   14  A    between atoms: C_53  and  C_56
                            x       y       z     vdW  Elec       q    Type
                         _______ _______ _______ _____ _____    ______ ____

>  <TORSDO>
F 14

$$$$
=
 OpenBabel11062418153D

 59 67  0  0  1  0  0  0  0  0999 V2000
  185.3740  176.7380  137.4730 C   0  0  0  0  0  2  0  0  0  0  0  0
  186.7900  177.3040  137.3870 C   0  0  1  0  0  3  0  0  0  0  0  0
  188.6040  177.4020  141.6820 C   0  0  2  0  0  3  0  0  0  0  0  0
  190.8330  176.6790  140.6700 C   0  0  0  0  0  2  0  0  0  0  0  0
  189.2890  178.2150  139.3420 C   0  0  2  0  0  3  0  0  0  0  0  0
  189.5230  176.2260  141.3260 C   0  0  0  0  0  2  0  0  0  0  0  0
  187.0680  177.6940  139.7460 C   0  0  0  0  0  2  0  0  0  0  0  0
  190.7060  177.9710  139.8550 C   0  0  0  0  0  2  0  0  0  0  0  0
  188.2550  178.2560  140.4480 C   0  0  1  0  0  3  0  0  0  0  0  0
  188.9140  177.2340  138.4050 O   0  0  0  0  0  0  0  0  0  0  0  0
  187.5810  176.9720  138.5910 N   0  0  0  0  0  0  0  0  0  0  0  0
  189.2240  178.2560  142.7860 C   0  0  0  0  0  2  0  0  0  0  0  0
  190.8240  177.3470  145.2950 Cl  0  0  0  0  0  0  0  0  0  0  0  0
  186.9920  177.9500  146.4400 C   0  0  0  0  0  3  0  0  0  0  0  0
  189.1080  177.7550  145.2710 C   0  0  0  0  0  0  0  0  0  0  0  0
  188.3690  177.6900  146.4650 C   0  0  0  0  0  0  0  0  0  0  0  0
  187.0920  178.3620  144.0640 C   0  0  0  0  0  3  0  0  0  0  0  0
  188.4650  178.1070  144.0680 C   0  0  0  0  0  0  0  0  0  0  0  0
  186.3460  178.2780  145.2440 C   0  0  0  0  0  0  0  0  0  0  0  0
  184.9020  178.5770  145.2370 C   0  0  0  0  0  0  0  0  0  0  0  0
  184.2480  178.9110  144.0120 N   0  0  0  0  0  2  0  0  0  0  0  0
  182.8180  179.1750  143.9500 C   0  0  0  0  0  1  0  0  0  0  0  0
  184.2400  178.5250  146.3080 O   0  0  0  0  0  0  0  0  0  0  0  0
  188.8400  178.1210  148.8570 C   0  0  0  0  0  1  0  0  0  0  0  0
  189.0210  177.3730  147.6620 O   0  0  0  0  0  0  0  0  0  0  0  0
  187.9940  178.2080  135.3330 C   0  0  0  0  0  1  0  0  0  0  0  0
  187.4390  176.9700  136.0220 C   0  0  1  0  0  3  0  0  0  0  0  0
  188.4670  175.8410  136.0870 C   0  0  0  0  0  2  0  0  0  0  0  0
  187.8350  174.6030  136.2310 O   0  0  0  0  0  0  0  0  0  0  0  0
  188.8830  173.6840  136.2730 C   0  0  0  0  0  1  0  0  0  0  0  0
  184.3340  177.8500  137.3980 C   0  0  0  0  0  2  0  0  0  0  0  0
  180.5200  175.0770  140.3710 C   0  0  0  0  0  0  0  0  0  0  0  0
  178.9310  176.6840  141.3750 F   0  0  0  0  0  0  0  0  0  0  0  0
  181.6620  174.9660  139.6710 C   0  0  0  0  0  3  0  0  0  0  0  0
  182.2150  176.2280  139.0660 C   0  0  1  0  0  3  0  0  0  0  0  0
  179.8170  176.3890  140.3950 C   0  0  0  0  0  0  0  0  0  0  0  0
  182.9860  177.3990  136.8000 C   0  0  1  0  0  0  0  0  0  0  0  0
  180.0030  173.9840  141.0510 O   0  0  0  0  0  1  0  0  0  0  0  0
  182.1950  176.3770  137.5840 C   0  0  1  0  0  0  0  0  0  0  0  0
  180.1090  177.2960  139.4430 C   0  0  0  0  0  3  0  0  0  0  0  0
  181.0040  176.8570  138.2970 C   0  0  1  0  0  0  0  0  0  0  0  0
  181.6490  177.8790  137.3740 C   0  0  2  0  0  0  0  0  0  0  0  0
  181.8620  176.5480  134.7250 O   0  0  0  0  0  1  0  0  0  0  0  0
  183.9480  177.4720  134.5940 O   0  0  0  0  0  0  0  0  0  0  0  0
  182.9710  177.1420  135.3170 C   0  0  0  0  0  0  0  0  0  0  0  0
  181.9710  179.1110  138.2300 C   0  0  0  0  0  0  0  0  0  0  0  0
  182.6530  179.0400  139.2470 O   0  0  0  0  0  0  0  0  0  0  0  0
  179.7570  185.3440  136.4630 C   0  0  0  0  0  3  0  0  0  0  0  0
  180.9800  181.2500  139.0440 C   0  0  0  0  0  2  0  0  0  0  0  0
  180.3610  180.2830  136.7010 C   0  0  2  0  0  3  0  0  0  0  0  0
  180.8550  182.6870  136.3560 N   0  0  2  0  0  0  0  0  0  0  0  0
  180.5500  183.3640  137.6530 C   0  0  1  0  0  3  0  0  0  0  0  0
  180.8520  183.5670  135.1670 C   0  0  0  0  0  2  0  0  0  0  0  0
  181.4190  180.4390  137.8130 C   0  0  2  0  0  3  0  0  0  0  0  0
  179.9020  181.6110  136.0820 C   0  0  0  0  0  2  0  0  0  0  0  0
  179.2510  179.5660  137.1540 O   0  0  0  0  0  1  0  0  0  0  0  0
  180.8620  185.0630  135.4980 C   0  0  0  0  0  2  0  0  0  0  0  0
  179.5990  184.5190  137.4980 C   0  0  0  0  0  3  0  0  0  0  0  0
  180.0370  182.4170  138.7450 C   0  0  0  0  0  2  0  0  0  0  0  0
  2  1  1  1  0  0  0
  2 11  1  0  0  0  0
  3 12  1  1  0  0  0
  4  6  1  0  0  0  0
  5  8  1  1  0  0  0
  5  9  1  0  0  0  0
  6  3  1  0  0  0  0
  8  4  1  0  0  0  0
  9  7  1  6  0  0  0
  9  3  1  0  0  0  0
 10 11  1  0  0  0  0
 10  5  1  0  0  0  0
 11  7  1  0  0  0  0
 12 18  1  0  0  0  0
 14 16  1  0  0  0  0
 15 13  1  0  0  0  0
 15 16  2  0  0  0  0
 16 25  1  0  0  0  0
 17 18  2  0  0  0  0
 17 19  1  0  0  0  0
 18 15  1  0  0  0  0
 19 14  2  0  0  0  0
 20 19  1  0  0  0  0
 20 23  2  0  0  0  0
 21 20  1  0  0  0  0
 22 21  1  0  0  0  0
 25 24  1  0  0  0  0
 27 26  1  1  0  0  0
 27 28  1  0  0  0  0
 27  2  1  0  0  0  0
 28 29  1  0  0  0  0
 29 30  1  0  0  0  0
 31  1  1  0  0  0  0
 32 36  1  0  0  0  0
 32 38  1  0  0  0  0
 34 32  2  0  0  0  0
 35 34  1  6  0  0  0
 36 33  1  0  0  0  0
 37 42  1  0  0  0  0
 37 31  1  1  0  0  0
 37 39  1  0  0  0  0
 39 41  1  0  0  0  0
 39 35  1  0  0  0  0
 40 36  2  0  0  0  0
 41 35  1  0  0  0  0
 41 40  1  0  0  0  0
 42 39  1  0  0  0  0
 42 46  1  0  0  0  0
 42 41  1  0  0  0  0
 43 45  1  0  0  0  0
 44 45  2  0  0  0  0
 45 37  1  0  0  0  0
 46 47  2  0  0  0  0
 48 58  2  0  0  0  0
 50 56  1  0  0  0  0
 50 54  1  0  0  0  0
 51 52  1  0  0  0  0
 52 59  1  0  0  0  0
 53 57  1  0  0  0  0
 53 51  1  0  0  0  0
 54 46  1  0  0  0  0
 54 49  1  0  0  0  0
 55 51  1  0  0  0  0
 55 50  1  0  0  0  0
 57 48  1  0  0  0  0
 58 52  1  0  0  0  0
 59 49  1  0  0  0  0
M  END
>  <MODEL>
2

>  <REMARK>
 VINA RESULT:      -8.5      2.799      6.347
  Name = 
  14 active torsions:
  status: ('A' for Active; 'I' for Inactive)
    1  A    between atoms: C_3  and  C_55
    2  A    between atoms: C_4  and  C_56
    3  A    between atoms: C_6  and  O_8
    4  A    between atoms: C_6  and  C_38
    5  A    between atoms: C_19  and  C_39
    6  A    between atoms: C_23  and  C_32
    7  A    between atoms: C_23  and  C_44
    8  A    between atoms: C_32  and  C_38
    9  A    between atoms: C_32  and  N_58
   10  A    between atoms: C_33  and  C_44
   11  A    between atoms: C_33  and  C_45
   12  A    between atoms: C_36  and  O_51
   13  A    between atoms: C_39  and  C_54
   14  A    between atoms: C_53  and  C_56
                            x       y       z     vdW  Elec       q    Type
                         _______ _______ _______ _____ _____    ______ ____

>  <TORSDO>
F 14

$$$$
=
 OpenBabel11062418153D

 59 67  0  0  1  0  0  0  0  0999 V2000
  182.5490  179.0520  140.2480 C   0  0  0  0  0  2  0  0  0  0  0  0
  182.2190  178.7670  141.7120 C   0  0  1  0  0  3  0  0  0  0  0  0
  186.1680  178.3270  144.1540 C   0  0  2  0  0  3  0  0  0  0  0  0
  185.0920  179.7310  145.9930 C   0  0  0  0  0  2  0  0  0  0  0  0
  183.6480  178.1380  144.6210 C   0  0  2  0  0  3  0  0  0  0  0  0
  185.9700  179.7320  144.7370 C   0  0  0  0  0  2  0  0  0  0  0  0
  184.3960  178.0330  142.4310 C   0  0  0  0  0  2  0  0  0  0  0  0
  184.0410  178.6160  146.0170 C   0  0  0  0  0  2  0  0  0  0  0  0
  184.8270  177.6520  143.8040 C   0  0  1  0  0  3  0  0  0  0  0  0
  182.9870  179.1550  143.9060 O   0  0  0  0  0  0  0  0  0  0  0  0
  183.3710  179.0540  142.5930 N   0  0  0  0  0  0  0  0  0  0  0  0
  186.9910  177.4590  145.1040 C   0  0  0  0  0  2  0  0  0  0  0  0
  189.2400  177.1490  147.2310 Cl  0  0  0  0  0  0  0  0  0  0  0  0
  190.9630  176.8960  143.5810 C   0  0  0  0  0  3  0  0  0  0  0  0
  189.4730  177.0920  145.4830 C   0  0  0  0  0  0  0  0  0  0  0  0
  190.7620  176.8780  144.9680 C   0  0  0  0  0  0  0  0  0  0  0  0
  188.6130  177.3100  143.2240 C   0  0  0  0  0  3  0  0  0  0  0  0
  188.3920  177.2960  144.6030 C   0  0  0  0  0  0  0  0  0  0  0  0
  189.8980  177.1200  142.7040 C   0  0  0  0  0  0  0  0  0  0  0  0
  190.1180  177.1080  141.2460 C   0  0  0  0  0  0  0  0  0  0  0  0
  191.4470  177.1310  140.7250 N   0  0  0  0  0  2  0  0  0  0  0  0
  191.7150  177.0810  139.2960 C   0  0  0  0  0  1  0  0  0  0  0  0
  189.1360  177.0650  140.4590 O   0  0  0  0  0  0  0  0  0  0  0  0
  192.1570  175.3450  146.3220 C   0  0  0  0  0  1  0  0  0  0  0  0
  191.8250  176.6420  145.8470 O   0  0  0  0  0  0  0  0  0  0  0  0
  180.1980  180.1100  140.9390 C   0  0  0  0  0  1  0  0  0  0  0  0
  180.8690  179.4090  142.1110 C   0  0  1  0  0  3  0  0  0  0  0  0
  179.9170  178.4510  142.8260 C   0  0  0  0  0  2  0  0  0  0  0  0
  180.1270  178.4820  144.2070 O   0  0  0  0  0  0  0  0  0  0  0  0
  178.9570  179.0390  144.7220 C   0  0  0  0  0  1  0  0  0  0  0  0
  182.3080  177.8200  139.3820 C   0  0  0  0  0  2  0  0  0  0  0  0
  187.0670  177.4640  136.5020 C   0  0  0  0  0  0  0  0  0  0  0  0
  187.2850  175.1910  135.5500 F   0  0  0  0  0  0  0  0  0  0  0  0
  186.3300  178.2380  137.3180 C   0  0  0  0  0  3  0  0  0  0  0  0
  185.0110  177.6800  137.7780 C   0  0  1  0  0  3  0  0  0  0  0  0
  186.4870  176.1840  136.0100 C   0  0  0  0  0  0  0  0  0  0  0  0
  182.3820  178.1010  137.8690 C   0  0  1  0  0  0  0  0  0  0  0  0
  188.3410  177.8570  136.1200 O   0  0  0  0  0  1  0  0  0  0  0  0
  183.7570  178.3060  137.2750 C   0  0  1  0  0  0  0  0  0  0  0  0
  185.1530  176.0150  136.0670 C   0  0  0  0  0  3  0  0  0  0  0  0
  184.3030  177.2110  136.4620 C   0  0  1  0  0  0  0  0  0  0  0  0
  182.8500  177.0350  136.8730 C   0  0  2  0  0  0  0  0  0  0  0  0
  181.6390  180.4190  137.2610 O   0  0  0  0  0  1  0  0  0  0  0  0
  180.2460  178.6440  136.8970 O   0  0  0  0  0  0  0  0  0  0  0  0
  181.3580  179.0590  137.3210 C   0  0  0  0  0  0  0  0  0  0  0  0
  182.7540  175.6930  137.6100 C   0  0  0  0  0  0  0  0  0  0  0  0
  183.3980  175.4590  138.6270 O   0  0  0  0  0  0  0  0  0  0  0  0
  178.9320  170.7170  134.8700 C   0  0  0  0  0  3  0  0  0  0  0  0
  181.5280  174.9210  135.5800 C   0  0  0  0  0  2  0  0  0  0  0  0
  180.6400  174.3880  137.9750 C   0  0  2  0  0  3  0  0  0  0  0  0
  180.5230  172.2670  136.6990 N   0  0  2  0  0  0  0  0  0  0  0  0
  180.3670  172.6540  135.2640 C   0  0  1  0  0  3  0  0  0  0  0  0
  180.0770  170.8980  137.0370 C   0  0  0  0  0  2  0  0  0  0  0  0
  181.8540  174.6320  137.0550 C   0  0  2  0  0  3  0  0  0  0  0  0
  179.7860  173.1760  137.5760 C   0  0  0  0  0  2  0  0  0  0  0  0
  179.8330  175.5260  138.0620 O   0  0  0  0  0  1  0  0  0  0  0  0
  179.8380  170.0000  135.8190 C   0  0  0  0  0  2  0  0  0  0  0  0
  179.1810  172.0000  134.6100 C   0  0  0  0  0  3  0  0  0  0  0  0
  180.3160  174.1690  135.0280 C   0  0  0  0  0  2  0  0  0  0  0  0
  2  1  1  6  0  0  0
  2 27  1  0  0  0  0
  2 11  1  0  0  0  0
  3  6  1  0  0  0  0
  3 12  1  1  0  0  0
  4  8  1  0  0  0  0
  5  8  1  1  0  0  0
  6  4  1  0  0  0  0
  7 11  1  0  0  0  0
  9  7  1  6  0  0  0
  9  3  1  0  0  0  0
  9  5  1  0  0  0  0
 10  5  1  0  0  0  0
 11 10  1  0  0  0  0
 14 16  1  0  0  0  0
 15 13  1  0  0  0  0
 16 15  2  0  0  0  0
 16 25  1  0  0  0  0
 17 18  2  0  0  0  0
 18 12  1  0  0  0  0
 18 15  1  0  0  0  0
 19 17  1  0  0  0  0
 19 14  2  0  0  0  0
 20 19  1  0  0  0  0
 21 20  1  0  0  0  0
 22 21  1  0  0  0  0
 23 20  2  0  0  0  0
 25 24  1  0  0  0  0
 27 26  1  6  0  0  0
 27 28  1  0  0  0  0
 28 29  1  0  0  0  0
 29 30  1  0  0  0  0
 31  1  1  0  0  0  0
 32 34  2  0  0  0  0
 33 36  1  0  0  0  0
 35 34  1  6  0  0  0
 36 40  2  0  0  0  0
 36 32  1  0  0  0  0
 37 31  1  1  0  0  0
 38 32  1  0  0  0  0
 39 35  1  0  0  0  0
 39 37  1  0  0  0  0
 40 41  1  0  0  0  0
 41 42  1  0  0  0  0
 41 39  1  0  0  0  0
 41 35  1  0  0  0  0
 42 39  1  0  0  0  0
 42 46  1  0  0  0  0
 42 37  1  0  0  0  0
 43 45  1  0  0  0  0
 44 45  2  0  0  0  0
 45 37  1  0  0  0  0
 46 47  2  0  0  0  0
 48 57  1  0  0  0  0
 49 54  1  0  0  0  0
 50 56  1  0  0  0  0
 51 53  1  0  0  0  0
 51 55  1  0  0  0  0
 52 51  1  0  0  0  0
 54 46  1  0  0  0  0
 54 50  1  0  0  0  0
 55 50  1  0  0  0  0
 57 53  1  0  0  0  0
 58 48  2  0  0  0  0
 58 52  1  0  0  0  0
 59 52  1  0  0  0  0
 59 49  1  0  0  0  0
M  END
>  <MODEL>
3

>  <REMARK>
 VINA RESULT:      -8.4      2.673      4.737
  Name = 
  14 active torsions:
  status: ('A' for Active; 'I' for Inactive)
    1  A    between atoms: C_3  and  C_55
    2  A    between atoms: C_4  and  C_56
    3  A    between atoms: C_6  and  O_8
    4  A    between atoms: C_6  and  C_38
    5  A    between atoms: C_19  and  C_39
    6  A    between atoms: C_23  and  C_32
    7  A    between atoms: C_23  and  C_44
    8  A    between atoms: C_32  and  C_38
    9  A    between atoms: C_32  and  N_58
   10  A    between atoms: C_33  and  C_44
   11  A    between atoms: C_33  and  C_45
   12  A    between atoms: C_36  and  O_51
   13  A    between atoms: C_39  and  C_54
   14  A    between atoms: C_53  and  C_56
                            x       y       z     vdW  Elec       q    Type
                         _______ _______ _______ _____ _____    ______ ____

>  <TORSDO>
F 14

$$$$
=
 OpenBabel11062418153D

 59 67  0  0  1  0  0  0  0  0999 V2000
  186.5680  176.5730  136.4710 C   0  0  0  0  0  2  0  0  0  0  0  0
  185.8410  175.2760  136.1220 C   0  0  1  0  0  3  0  0  0  0  0  0
  181.4710  176.8190  136.6500 C   0  0  2  0  0  3  0  0  0  0  0  0
  180.6560  174.4930  135.9890 C   0  0  0  0  0  2  0  0  0  0  0  0
  182.8150  174.7340  137.3260 C   0  0  2  0  0  3  0  0  0  0  0  0
  181.0050  175.9060  135.5090 C   0  0  0  0  0  2  0  0  0  0  0  0
  183.9530  176.6530  136.7040 C   0  0  0  0  0  2  0  0  0  0  0  0
  181.4640  174.0310  137.2070 C   0  0  0  0  0  2  0  0  0  0  0  0
  182.6960  176.2440  137.3870 C   0  0  1  0  0  3  0  0  0  0  0  0
  183.6620  174.3870  136.2570 O   0  0  0  0  0  0  0  0  0  0  0  0
  184.3920  175.5010  135.9290 N   0  0  0  0  0  0  0  0  0  0  0  0
  180.3250  177.0980  137.6200 C   0  0  0  0  0  2  0  0  0  0  0  0
  179.9980  177.6640  140.6620 Cl  0  0  0  0  0  0  0  0  0  0  0  0
  180.4490  181.2240  138.7960 C   0  0  0  0  0  3  0  0  0  0  0  0
  180.2450  178.8890  139.4160 C   0  0  0  0  0  0  0  0  0  0  0  0
  180.3180  180.2420  139.7870 C   0  0  0  0  0  0  0  0  0  0  0  0
  180.4590  179.5240  137.0840 C   0  0  0  0  0  3  0  0  0  0  0  0
  180.3290  178.5300  138.0570 C   0  0  0  0  0  0  0  0  0  0  0  0
  180.5110  180.8740  137.4440 C   0  0  0  0  0  0  0  0  0  0  0  0
  180.6770  181.9150  136.4130 C   0  0  0  0  0  0  0  0  0  0  0  0
  180.8490  183.2800  136.7970 N   0  0  0  0  0  2  0  0  0  0  0  0
  181.0550  184.3350  135.8170 C   0  0  0  0  0  1  0  0  0  0  0  0
  180.6810  181.6010  135.1920 O   0  0  0  0  0  0  0  0  0  0  0  0
  179.0610  180.9520  141.7990 C   0  0  0  0  0  1  0  0  0  0  0  0
  180.2680  180.5890  141.1420 O   0  0  0  0  0  0  0  0  0  0  0  0
  187.8790  175.1920  134.5970 C   0  0  0  0  0  1  0  0  0  0  0  0
  186.5760  174.5130  134.9940 C   0  0  1  0  0  3  0  0  0  0  0  0
  186.7710  173.0240  135.2810 C   0  0  0  0  0  2  0  0  0  0  0  0
  188.0610  172.7760  135.7550 O   0  0  0  0  0  0  0  0  0  0  0  0
  187.8650  172.2690  137.0390 C   0  0  0  0  0  1  0  0  0  0  0  0
  187.6930  176.3200  137.4670 C   0  0  0  0  0  2  0  0  0  0  0  0
  189.8740  177.8850  142.3510 C   0  0  0  0  0  0  0  0  0  0  0  0
  192.0280  176.7210  142.7030 F   0  0  0  0  0  0  0  0  0  0  0  0
  188.7980  177.9700  141.5500 C   0  0  0  0  0  3  0  0  0  0  0  0
  188.8680  177.2380  140.2380 C   0  0  1  0  0  3  0  0  0  0  0  0
  191.0940  177.1980  141.8460 C   0  0  0  0  0  0  0  0  0  0  0  0
  188.6870  177.4920  137.5920 C   0  0  1  0  0  0  0  0  0  0  0  0
  189.8490  178.4400  143.6230 O   0  0  0  0  0  1  0  0  0  0  0  0
  188.9390  178.0330  138.9800 C   0  0  1  0  0  0  0  0  0  0  0  0
  191.2340  177.0220  140.5190 C   0  0  0  0  0  3  0  0  0  0  0  0
  190.2250  177.6980  139.6050 C   0  0  1  0  0  0  0  0  0  0  0  0
  190.1020  177.2940  138.1440 C   0  0  2  0  0  0  0  0  0  0  0  0
  189.0670  178.3660  135.2710 O   0  0  0  0  0  0  0  0  0  0  0  0
  188.0090  179.6710  136.8210 O   0  0  0  0  0  1  0  0  0  0  0  0
  188.5700  178.5750  136.5520 C   0  0  0  0  0  0  0  0  0  0  0  0
  190.3790  175.7860  138.0740 C   0  0  0  0  0  0  0  0  0  0  0  0
  189.5080  174.9510  138.2930 O   0  0  0  0  0  0  0  0  0  0  0  0
  196.8430  173.9040  136.8270 C   0  0  0  0  0  3  0  0  0  0  0  0
  192.5620  176.4600  137.0720 C   0  0  0  0  0  2  0  0  0  0  0  0
  191.7430  173.9840  136.9810 C   0  0  2  0  0  3  0  0  0  0  0  0
  194.1080  173.9110  137.7200 N   0  0  2  0  0  0  0  0  0  0  0  0
  194.7570  175.1330  137.1550 C   0  0  1  0  0  3  0  0  0  0  0  0
  195.0310  172.8110  138.0750 C   0  0  0  0  0  2  0  0  0  0  0  0
  191.7650  175.3260  137.7400 C   0  0  2  0  0  3  0  0  0  0  0  0
  193.1290  173.3510  136.7870 C   0  0  0  0  0  2  0  0  0  0  0  0
  191.1070  174.1110  135.7430 O   0  0  0  0  0  1  0  0  0  0  0  0
  196.5060  173.2210  138.1130 C   0  0  0  0  0  2  0  0  0  0  0  0
  195.9950  174.8190  136.3590 C   0  0  0  0  0  3  0  0  0  0  0  0
  193.8150  176.0100  136.3200 C   0  0  0  0  0  2  0  0  0  0  0  0
  1 31  1  0  0  0  0
  2  1  1  6  0  0  0
  3  9  1  0  0  0  0
  3 12  1  1  0  0  0
  4  8  1  0  0  0  0
  5  8  1  6  0  0  0
  5  9  1  0  0  0  0
  6  4  1  0  0  0  0
  6  3  1  0  0  0  0
  9  7  1  6  0  0  0
 10  5  1  0  0  0  0
 11  2  1  0  0  0  0
 11 10  1  0  0  0  0
 11  7  1  0  0  0  0
 12 18  1  0  0  0  0
 14 16  1  0  0  0  0
 15 16  2  0  0  0  0
 15 13  1  0  0  0  0
 16 25  1  0  0  0  0
 17 19  1  0  0  0  0
 17 18  2  0  0  0  0
 18 15  1  0  0  0  0
 19 14  2  0  0  0  0
 20 21  1  0  0  0  0
 20 19  1  0  0  0  0
 22 21  1  0  0  0  0
 23 20  2  0  0  0  0
 25 24  1  0  0  0  0
 27 26  1  1  0  0  0
 27 28  1  0  0  0  0
 27  2  1  0  0  0  0
 28 29  1  0  0  0  0
 29 30  1  0  0  0  0
 32 38  1  0  0  0  0
 34 32  2  0  0  0  0
 35 34  1  1  0  0  0
 36 32  1  0  0  0  0
 36 33  1  0  0  0  0
 37 31  1  6  0  0  0
 37 42  1  0  0  0  0
 37 39  1  0  0  0  0
 39 41  1  0  0  0  0
 39 35  1  0  0  0  0
 40 36  2  0  0  0  0
 41 35  1  0  0  0  0
 41 40  1  0  0  0  0
 42 39  1  0  0  0  0
 42 41  1  0  0  0  0
 43 45  2  0  0  0  0
 45 44  1  0  0  0  0
 45 37  1  0  0  0  0
 46 42  1  0  0  0  0
 46 47  2  0  0  0  0
 48 57  1  0  0  0  0
 49 54  1  0  0  0  0
 50 54  1  0  0  0  0
 51 53  1  0  0  0  0
 52 51  1  0  0  0  0
 53 57  1  0  0  0  0
 54 46  1  0  0  0  0
 55 50  1  0  0  0  0
 55 51  1  0  0  0  0
 56 50  1  0  0  0  0
 58 48  2  0  0  0  0
 58 52  1  0  0  0  0
 59 49  1  0  0  0  0
 59 52  1  0  0  0  0
M  END
>  <MODEL>
4

>  <REMARK>
 VINA RESULT:      -8.4      4.392     10.837
  Name = 
  14 active torsions:
  status: ('A' for Active; 'I' for Inactive)
    1  A    between atoms: C_3  and  C_55
    2  A    between atoms: C_4  and  C_56
    3  A    between atoms: C_6  and  O_8
    4  A    between atoms: C_6  and  C_38
    5  A    between atoms: C_19  and  C_39
    6  A    between atoms: C_23  and  C_32
    7  A    between atoms: C_23  and  C_44
    8  A    between atoms: C_32  and  C_38
    9  A    between atoms: C_32  and  N_58
   10  A    between atoms: C_33  and  C_44
   11  A    between atoms: C_33  and  C_45
   12  A    between atoms: C_36  and  O_51
   13  A    between atoms: C_39  and  C_54
   14  A    between atoms: C_53  and  C_56
                            x       y       z     vdW  Elec       q    Type
                         _______ _______ _______ _____ _____    ______ ____

>  <TORSDO>
F 14

$$$$
=
 OpenBabel11062418153D

 59 67  0  0  1  0  0  0  0  0999 V2000
  190.5620  175.6620  137.8520 C   0  0  0  0  0  2  0  0  0  0  0  0
  191.2690  176.9180  138.3570 C   0  0  1  0  0  3  0  0  0  0  0  0
  189.1800  177.0240  142.5260 C   0  0  2  0  0  3  0  0  0  0  0  0
  188.0480  179.1970  141.8130 C   0  0  0  0  0  2  0  0  0  0  0  0
  188.4890  177.3820  140.0760 C   0  0  2  0  0  3  0  0  0  0  0  0
  189.2450  178.5560  142.5250 C   0  0  0  0  0  2  0  0  0  0  0  0
  190.4690  176.2720  140.5350 C   0  0  0  0  0  2  0  0  0  0  0  0
  187.4680  178.3440  140.6800 C   0  0  0  0  0  2  0  0  0  0  0  0
  189.1030  176.4480  141.0980 C   0  0  1  0  0  3  0  0  0  0  0  0
  189.5200  178.0840  139.4230 O   0  0  0  0  0  0  0  0  0  0  0  0
  190.6870  177.3920  139.6310 N   0  0  0  0  0  0  0  0  0  0  0  0
  188.0130  176.5330  143.3810 C   0  0  0  0  0  2  0  0  0  0  0  0
  185.5420  177.8500  144.7360 Cl  0  0  0  0  0  0  0  0  0  0  0  0
  188.5050  177.6940  147.4830 C   0  0  0  0  0  3  0  0  0  0  0  0
  187.0900  177.5360  145.5220 C   0  0  0  0  0  0  0  0  0  0  0  0
  187.2580  177.8820  146.8730 C   0  0  0  0  0  0  0  0  0  0  0  0
  189.4010  176.8010  145.4280 C   0  0  0  0  0  3  0  0  0  0  0  0
  188.1650  176.9800  144.8010 C   0  0  0  0  0  0  0  0  0  0  0  0
  189.5820  177.1630  146.7670 C   0  0  0  0  0  0  0  0  0  0  0  0
  190.8810  176.9440  147.4300 C   0  0  0  0  0  0  0  0  0  0  0  0
  191.4420  175.6330  147.4850 N   0  0  0  0  0  2  0  0  0  0  0  0
  192.7390  175.3750  148.0930 C   0  0  0  0  0  1  0  0  0  0  0  0
  191.5040  177.9150  147.9360 O   0  0  0  0  0  0  0  0  0  0  0  0
  186.0060  179.7920  147.8290 C   0  0  0  0  0  1  0  0  0  0  0  0
  186.1750  178.4010  147.5910 O   0  0  0  0  0  0  0  0  0  0  0  0
  193.4710  177.2730  139.5880 C   0  0  0  0  0  1  0  0  0  0  0  0
  192.8060  176.7390  138.3270 C   0  0  1  0  0  3  0  0  0  0  0  0
  193.2560  175.3160  138.0000 C   0  0  0  0  0  2  0  0  0  0  0  0
  194.4800  175.3250  137.3260 O   0  0  0  0  0  0  0  0  0  0  0  0
  194.1880  175.9020  136.0900 C   0  0  0  0  0  1  0  0  0  0  0  0
  189.1270  175.9700  137.4390 C   0  0  0  0  0  2  0  0  0  0  0  0
  188.6390  170.9430  135.0810 C   0  0  0  0  0  0  0  0  0  0  0  0
  186.2560  170.2800  135.0390 F   0  0  0  0  0  0  0  0  0  0  0  0
  189.5060  171.8690  135.5260 C   0  0  0  0  0  3  0  0  0  0  0  0
  188.9190  173.1270  136.1070 C   0  0  1  0  0  3  0  0  0  0  0  0
  187.1860  171.2650  135.0700 C   0  0  0  0  0  0  0  0  0  0  0  0
  188.8620  175.7850  135.9320 C   0  0  1  0  0  0  0  0  0  0  0  0
  189.0960  169.7120  134.6320 O   0  0  0  0  0  1  0  0  0  0  0  0
  189.0880  174.4040  135.3590 C   0  0  1  0  0  0  0  0  0  0  0  0
  186.8100  172.5560  135.1330 C   0  0  0  0  0  3  0  0  0  0  0  0
  187.8940  173.6160  135.0270 C   0  0  1  0  0  0  0  0  0  0  0  0
  187.6150  175.0590  135.4160 C   0  0  2  0  0  0  0  0  0  0  0  0
  188.5210  177.9340  134.6840 O   0  0  0  0  0  1  0  0  0  0  0  0
  190.5430  176.8730  134.5940 O   0  0  0  0  0  0  0  0  0  0  0  0
  189.3610  176.8830  135.0310 C   0  0  0  0  0  0  0  0  0  0  0  0
  186.6280  175.0220  136.5890 C   0  0  0  0  0  0  0  0  0  0  0  0
  186.8640  174.4040  137.6220 O   0  0  0  0  0  0  0  0  0  0  0  0
  180.5370  178.0570  135.8350 C   0  0  0  0  0  3  0  0  0  0  0  0
  185.0340  176.0630  134.9790 C   0  0  0  0  0  2  0  0  0  0  0  0
  185.2610  176.9570  137.4210 C   0  0  2  0  0  3  0  0  0  0  0  0
  182.8320  176.7490  136.9770 N   0  0  2  0  0  0  0  0  0  0  0  0
  182.6650  176.9040  135.5000 C   0  0  1  0  0  3  0  0  0  0  0  0
  181.6210  177.0230  137.7820 C   0  0  0  0  0  2  0  0  0  0  0  0
  185.3280  175.7540  136.4570 C   0  0  2  0  0  3  0  0  0  0  0  0
  183.8820  177.6300  137.4870 C   0  0  0  0  0  2  0  0  0  0  0  0
  186.2360  177.9100  137.1110 O   0  0  0  0  0  1  0  0  0  0  0  0
  180.3300  177.0990  136.9630 C   0  0  0  0  0  2  0  0  0  0  0  0
  181.6680  177.9710  135.1350 C   0  0  0  0  0  3  0  0  0  0  0  0
  183.9780  177.1460  134.7460 C   0  0  0  0  0  2  0  0  0  0  0  0
  2  1  1  1  0  0  0
  2 11  1  0  0  0  0
  3 12  1  1  0  0  0
  4  6  1  0  0  0  0
  5  8  1  1  0  0  0
  5  9  1  0  0  0  0
  6  3  1  0  0  0  0
  8  4  1  0  0  0  0
  9  7  1  6  0  0  0
  9  3  1  0  0  0  0
 10 11  1  0  0  0  0
 10  5  1  0  0  0  0
 11  7  1  0  0  0  0
 12 18  1  0  0  0  0
 13 15  1  0  0  0  0
 15 16  2  0  0  0  0
 16 14  1  0  0  0  0
 16 25  1  0  0  0  0
 17 19  1  0  0  0  0
 18 17  2  0  0  0  0
 18 15  1  0  0  0  0
 19 20  1  0  0  0  0
 19 14  2  0  0  0  0
 20 21  1  0  0  0  0
 20 23  2  0  0  0  0
 21 22  1  0  0  0  0
 25 24  1  0  0  0  0
 27  2  1  0  0  0  0
 27 26  1  1  0  0  0
 28 27  1  0  0  0  0
 29 28  1  0  0  0  0
 30 29  1  0  0  0  0
 31  1  1  0  0  0  0
 32 34  2  0  0  0  0
 33 36  1  0  0  0  0
 35 34  1  6  0  0  0
 36 32  1  0  0  0  0
 36 40  2  0  0  0  0
 37 31  1  1  0  0  0
 38 32  1  0  0  0  0
 39 42  1  0  0  0  0
 39 37  1  0  0  0  0
 39 35  1  0  0  0  0
 41 40  1  0  0  0  0
 41 39  1  0  0  0  0
 41 42  1  0  0  0  0
 41 35  1  0  0  0  0
 42 37  1  0  0  0  0
 42 46  1  0  0  0  0
 43 45  1  0  0  0  0
 44 45  2  0  0  0  0
 45 37  1  0  0  0  0
 46 47  2  0  0  0  0
 48 57  1  0  0  0  0
 49 54  1  0  0  0  0
 50 55  1  0  0  0  0
 51 55  1  0  0  0  0
 51 53  1  0  0  0  0
 52 51  1  0  0  0  0
 54 46  1  0  0  0  0
 54 50  1  0  0  0  0
 56 50  1  0  0  0  0
 57 53  1  0  0  0  0
 58 52  1  0  0  0  0
 58 48  2  0  0  0  0
 59 49  1  0  0  0  0
 59 52  1  0  0  0  0
M  END
>  <MODEL>
5

>  <REMARK>
 VINA RESULT:      -8.0      4.088      7.863
  Name = 
  14 active torsions:
  status: ('A' for Active; 'I' for Inactive)
    1  A    between atoms: C_3  and  C_55
    2  A    between atoms: C_4  and  C_56
    3  A    between atoms: C_6  and  O_8
    4  A    between atoms: C_6  and  C_38
    5  A    between atoms: C_19  and  C_39
    6  A    between atoms: C_23  and  C_32
    7  A    between atoms: C_23  and  C_44
    8  A    between atoms: C_32  and  C_38
    9  A    between atoms: C_32  and  N_58
   10  A    between atoms: C_33  and  C_44
   11  A    between atoms: C_33  and  C_45
   12  A    between atoms: C_36  and  O_51
   13  A    between atoms: C_39  and  C_54
   14  A    between atoms: C_53  and  C_56
                            x       y       z     vdW  Elec       q    Type
                         _______ _______ _______ _____ _____    ______ ____

>  <TORSDO>
F 14

$$$$
=
 OpenBabel11062418153D

 59 67  0  0  1  0  0  0  0  0999 V2000
  186.8810  176.5110  137.0910 C   0  0  0  0  0  2  0  0  0  0  0  0
  186.2250  175.2310  136.5770 C   0  0  1  0  0  3  0  0  0  0  0  0
  181.7780  176.5830  136.9690 C   0  0  2  0  0  3  0  0  0  0  0  0
  181.0890  174.3050  136.0500 C   0  0  0  0  0  2  0  0  0  0  0  0
  183.1540  174.4870  137.5360 C   0  0  2  0  0  3  0  0  0  0  0  0
  181.4140  175.7670  135.7230 C   0  0  0  0  0  2  0  0  0  0  0  0
  184.2570  176.4900  137.1630 C   0  0  0  0  0  2  0  0  0  0  0  0
  181.8400  173.7570  137.2690 C   0  0  0  0  0  2  0  0  0  0  0  0
  182.9770  175.9800  137.7260 C   0  0  1  0  0  3  0  0  0  0  0  0
  184.0750  174.2680  136.4940 O   0  0  0  0  0  0  0  0  0  0  0  0
  184.7830  175.4290  136.3160 N   0  0  0  0  0  0  0  0  0  0  0  0
  180.5670  176.7350  137.8880 C   0  0  0  0  0  2  0  0  0  0  0  0
  179.9260  179.2340  136.1490 Cl  0  0  0  0  0  0  0  0  0  0  0  0
  180.5170  180.5020  139.9430 C   0  0  0  0  0  3  0  0  0  0  0  0
  180.2440  179.2520  137.8840 C   0  0  0  0  0  0  0  0  0  0  0  0
  180.2010  180.4730  138.5780 C   0  0  0  0  0  0  0  0  0  0  0  0
  180.8870  178.1180  139.9310 C   0  0  0  0  0  3  0  0  0  0  0  0
  180.5760  178.0670  138.5700 C   0  0  0  0  0  0  0  0  0  0  0  0
  180.8680  179.3330  140.6240 C   0  0  0  0  0  0  0  0  0  0  0  0
  181.1700  179.3730  142.0670 C   0  0  0  0  0  0  0  0  0  0  0  0
  182.4250  178.8910  142.5480 N   0  0  0  0  0  2  0  0  0  0  0  0
  182.7830  178.9460  143.9570 C   0  0  0  0  0  1  0  0  0  0  0  0
  180.3280  179.8460  142.8760 O   0  0  0  0  0  0  0  0  0  0  0  0
  180.4920  182.8850  138.1010 C   0  0  0  0  0  1  0  0  0  0  0  0
  179.8370  181.6400  137.8980 O   0  0  0  0  0  0  0  0  0  0  0  0
  187.7910  175.6540  134.6140 C   0  0  0  0  0  1  0  0  0  0  0  0
  187.0530  174.6030  135.4310 C   0  0  1  0  0  3  0  0  0  0  0  0
  187.9810  173.4760  135.8860 C   0  0  0  0  0  2  0  0  0  0  0  0
  187.2640  172.2940  136.0850 O   0  0  0  0  0  0  0  0  0  0  0  0
  188.0230  171.5820  137.0120 C   0  0  0  0  0  1  0  0  0  0  0  0
  188.2930  176.2390  137.5950 C   0  0  0  0  0  2  0  0  0  0  0  0
  190.0280  177.7690  142.6660 C   0  0  0  0  0  0  0  0  0  0  0  0
  192.2930  176.8600  143.0720 F   0  0  0  0  0  0  0  0  0  0  0  0
  188.9880  177.7670  141.8140 C   0  0  0  0  0  3  0  0  0  0  0  0
  189.2120  177.1280  140.4700 C   0  0  1  0  0  3  0  0  0  0  0  0
  191.3470  177.2680  142.1920 C   0  0  0  0  0  0  0  0  0  0  0  0
  189.1240  177.5150  137.8350 C   0  0  1  0  0  0  0  0  0  0  0  0
  189.8730  178.2390  143.9620 O   0  0  0  0  0  1  0  0  0  0  0  0
  189.2400  178.0000  139.2630 C   0  0  1  0  0  0  0  0  0  0  0  0
  191.5700  177.1900  140.8660 C   0  0  0  0  0  3  0  0  0  0  0  0
  190.5280  177.7890  139.9360 C   0  0  1  0  0  0  0  0  0  0  0  0
  190.5250  177.4600  138.4520 C   0  0  2  0  0  0  0  0  0  0  0  0
  189.2360  178.4480  135.5090 O   0  0  0  0  0  0  0  0  0  0  0  0
  188.4480  179.7430  137.2200 O   0  0  0  0  0  1  0  0  0  0  0  0
  188.9200  178.6350  136.8500 C   0  0  0  0  0  0  0  0  0  0  0  0
  190.9930  176.0060  138.3170 C   0  0  0  0  0  0  0  0  0  0  0  0
  190.3630  175.0690  138.7950 O   0  0  0  0  0  0  0  0  0  0  0  0
  196.9410  175.0920  135.0510 C   0  0  0  0  0  3  0  0  0  0  0  0
  192.2860  176.4560  136.2320 C   0  0  0  0  0  2  0  0  0  0  0  0
  192.5740  174.2160  137.5400 C   0  0  2  0  0  3  0  0  0  0  0  0
  194.8600  175.0290  137.0370 N   0  0  2  0  0  0  0  0  0  0  0  0
  194.7440  175.8540  135.7960 C   0  0  1  0  0  3  0  0  0  0  0  0
  196.2140  174.5050  137.3230 C   0  0  0  0  0  2  0  0  0  0  0  0
  192.2720  175.7280  137.5870 C   0  0  2  0  0  3  0  0  0  0  0  0
  193.9660  173.8720  136.9900 C   0  0  0  0  0  2  0  0  0  0  0  0
  191.5980  173.5260  136.8160 O   0  0  0  0  0  1  0  0  0  0  0  0
  197.3240  175.1580  136.4940 C   0  0  0  0  0  2  0  0  0  0  0  0
  195.6940  175.4180  134.7140 C   0  0  0  0  0  3  0  0  0  0  0  0
  193.3200  175.9340  135.2320 C   0  0  0  0  0  2  0  0  0  0  0  0
  1 31  1  0  0  0  0
  2  1  1  6  0  0  0
  3  9  1  0  0  0  0
  3 12  1  1  0  0  0
  4  8  1  0  0  0  0
  5  8  1  6  0  0  0
  5  9  1  0  0  0  0
  6  4  1  0  0  0  0
  6  3  1  0  0  0  0
  9  7  1  6  0  0  0
 10  5  1  0  0  0  0
 11 10  1  0  0  0  0
 11  2  1  0  0  0  0
 11  7  1  0  0  0  0
 12 18  1  0  0  0  0
 13 15  1  0  0  0  0
 14 19  1  0  0  0  0
 15 18  2  0  0  0  0
 15 16  1  0  0  0  0
 16 14  2  0  0  0  0
 17 19  2  0  0  0  0
 18 17  1  0  0  0  0
 19 20  1  0  0  0  0
 20 21  1  0  0  0  0
 20 23  2  0  0  0  0
 21 22  1  0  0  0  0
 25 24  1  0  0  0  0
 25 16  1  0  0  0  0
 27 26  1  1  0  0  0
 27 28  1  0  0  0  0
 27  2  1  0  0  0  0
 28 29  1  0  0  0  0
 29 30  1  0  0  0  0
 32 38  1  0  0  0  0
 34 32  2  0  0  0  0
 35 34  1  1  0  0  0
 36 32  1  0  0  0  0
 36 33  1  0  0  0  0
 37 31  1  6  0  0  0
 37 42  1  0  0  0  0
 37 39  1  0  0  0  0
 39 41  1  0  0  0  0
 39 35  1  0  0  0  0
 40 36  2  0  0  0  0
 41 35  1  0  0  0  0
 41 40  1  0  0  0  0
 42 39  1  0  0  0  0
 42 41  1  0  0  0  0
 43 45  2  0  0  0  0
 45 44  1  0  0  0  0
 45 37  1  0  0  0  0
 46 42  1  0  0  0  0
 46 47  2  0  0  0  0
 48 57  1  0  0  0  0
 49 54  1  0  0  0  0
 50 54  1  0  0  0  0
 51 53  1  0  0  0  0
 52 51  1  0  0  0  0
 54 46  1  0  0  0  0
 55 51  1  0  0  0  0
 55 50  1  0  0  0  0
 56 50  1  0  0  0  0
 57 53  1  0  0  0  0
 58 48  2  0  0  0  0
 58 52  1  0  0  0  0
 59 52  1  0  0  0  0
 59 49  1  0  0  0  0
M  END
>  <MODEL>
6

>  <REMARK>
 VINA RESULT:      -7.6      4.654     10.896
  Name = 
  14 active torsions:
  status: ('A' for Active; 'I' for Inactive)
    1  A    between atoms: C_3  and  C_55
    2  A    between atoms: C_4  and  C_56
    3  A    between atoms: C_6  and  O_8
    4  A    between atoms: C_6  and  C_38
    5  A    between atoms: C_19  and  C_39
    6  A    between atoms: C_23  and  C_32
    7  A    between atoms: C_23  and  C_44
    8  A    between atoms: C_32  and  C_38
    9  A    between atoms: C_32  and  N_58
   10  A    between atoms: C_33  and  C_44
   11  A    between atoms: C_33  and  C_45
   12  A    between atoms: C_36  and  O_51
   13  A    between atoms: C_39  and  C_54
   14  A    between atoms: C_53  and  C_56
                            x       y       z     vdW  Elec       q    Type
                         _______ _______ _______ _____ _____    ______ ____

>  <TORSDO>
F 14

$$$$
=
 OpenBabel11062418153D

 59 67  0  0  1  0  0  0  0  0999 V2000
  182.2620  178.9320  140.9800 C   0  0  0  0  0  2  0  0  0  0  0  0
  182.0050  178.8070  142.4810 C   0  0  1  0  0  3  0  0  0  0  0  0
  186.1750  178.1410  144.4610 C   0  0  2  0  0  3  0  0  0  0  0  0
  185.3080  179.3840  146.5150 C   0  0  0  0  0  2  0  0  0  0  0  0
  183.7120  177.9220  145.1650 C   0  0  2  0  0  3  0  0  0  0  0  0
  186.0550  179.4910  145.1800 C   0  0  0  0  0  2  0  0  0  0  0  0
  184.2350  178.0050  142.9090 C   0  0  0  0  0  2  0  0  0  0  0  0
  184.2500  178.2750  146.5500 C   0  0  0  0  0  2  0  0  0  0  0  0
  184.7970  177.5040  144.1940 C   0  0  1  0  0  3  0  0  0  0  0  0
  182.9960  179.0000  144.6110 O   0  0  0  0  0  0  0  0  0  0  0  0
  183.2440  179.0120  143.2610 N   0  0  0  0  0  0  0  0  0  0  0  0
  187.0780  177.1900  145.2450 C   0  0  0  0  0  2  0  0  0  0  0  0
  189.3480  177.0970  147.3700 Cl  0  0  0  0  0  0  0  0  0  0  0  0
  191.0900  177.2910  143.7260 C   0  0  0  0  0  3  0  0  0  0  0  0
  189.5870  177.1670  145.6230 C   0  0  0  0  0  0  0  0  0  0  0  0
  190.8940  177.1700  145.1080 C   0  0  0  0  0  0  0  0  0  0  0  0
  188.7050  177.3790  143.3730 C   0  0  0  0  0  3  0  0  0  0  0  0
  188.4880  177.2590  144.7470 C   0  0  0  0  0  0  0  0  0  0  0  0
  190.0040  177.4040  142.8540 C   0  0  0  0  0  0  0  0  0  0  0  0
  190.2240  177.5030  141.3990 C   0  0  0  0  0  0  0  0  0  0  0  0
  189.1090  177.6110  140.5140 N   0  0  0  0  0  2  0  0  0  0  0  0
  189.2780  177.7500  139.0750 C   0  0  0  0  0  1  0  0  0  0  0  0
  191.3950  177.5050  140.9360 O   0  0  0  0  0  0  0  0  0  0  0  0
  192.0760  176.0030  146.9440 C   0  0  0  0  0  1  0  0  0  0  0  0
  191.9800  177.0440  145.9820 O   0  0  0  0  0  0  0  0  0  0  0  0
  180.4020  180.6860  141.8590 C   0  0  0  0  0  1  0  0  0  0  0  0
  180.7760  179.6460  142.9050 C   0  0  1  0  0  3  0  0  0  0  0  0
  179.5730  178.8060  143.3330 C   0  0  0  0  0  2  0  0  0  0  0  0
  179.6760  178.4420  144.6780 O   0  0  0  0  0  0  0  0  0  0  0  0
  180.0540  177.1000  144.6430 C   0  0  0  0  0  1  0  0  0  0  0  0
  182.1610  177.5760  140.2920 C   0  0  0  0  0  2  0  0  0  0  0  0
  180.2530  181.5380  136.8680 C   0  0  0  0  0  0  0  0  0  0  0  0
  181.1520  181.1650  134.5940 F   0  0  0  0  0  0  0  0  0  0  0  0
  180.3110  181.1240  138.1450 C   0  0  0  0  0  3  0  0  0  0  0  0
  181.0570  179.8440  138.4120 C   0  0  1  0  0  3  0  0  0  0  0  0
  180.8040  180.6580  135.8010 C   0  0  0  0  0  0  0  0  0  0  0  0
  180.8790  177.3990  139.4540 C   0  0  1  0  0  0  0  0  0  0  0  0
  179.6800  182.7620  136.5510 O   0  0  0  0  0  1  0  0  0  0  0  0
  180.2840  178.6440  138.8380 C   0  0  1  0  0  0  0  0  0  0  0  0
  180.9900  179.3530  136.0720 C   0  0  0  0  0  3  0  0  0  0  0  0
  180.4550  178.8200  137.3900 C   0  0  1  0  0  0  0  0  0  0  0  0
  180.9000  177.4680  137.9240 C   0  0  2  0  0  0  0  0  0  0  0  0
  179.5960  175.2430  139.4170 O   0  0  0  0  0  0  0  0  0  0  0  0
  179.1890  176.7830  141.0560 O   0  0  0  0  0  1  0  0  0  0  0  0
  179.8390  176.4710  140.0220 C   0  0  0  0  0  0  0  0  0  0  0  0
  182.3660  177.2860  137.5100 C   0  0  0  0  0  0  0  0  0  0  0  0
  183.1750  178.2060  137.5510 O   0  0  0  0  0  0  0  0  0  0  0  0
  184.5650  171.0770  135.6400 C   0  0  0  0  0  3  0  0  0  0  0  0
  184.3400  175.9190  136.8350 C   0  0  0  0  0  2  0  0  0  0  0  0
  181.9790  175.4720  135.8170 C   0  0  2  0  0  3  0  0  0  0  0  0
  182.8860  173.2610  136.4720 N   0  0  2  0  0  0  0  0  0  0  0  0
  184.3740  173.3880  136.4080 C   0  0  1  0  0  3  0  0  0  0  0  0
  182.3650  171.8790  136.3850 C   0  0  0  0  0  2  0  0  0  0  0  0
  182.8140  175.9400  137.0270 C   0  0  2  0  0  3  0  0  0  0  0  0
  182.2440  174.0190  135.3980 C   0  0  0  0  0  2  0  0  0  0  0  0
  182.1570  176.3190  134.7200 O   0  0  0  0  0  1  0  0  0  0  0  0
  183.4320  170.7970  136.5740 C   0  0  0  0  0  2  0  0  0  0  0  0
  185.0140  172.3290  135.5520 C   0  0  0  0  0  3  0  0  0  0  0  0
  184.8640  174.7730  135.9680 C   0  0  0  0  0  2  0  0  0  0  0  0
  2  1  1  6  0  0  0
  2 27  1  0  0  0  0
  2 11  1  0  0  0  0
  3  6  1  0  0  0  0
  3 12  1  1  0  0  0
  4  8  1  0  0  0  0
  5  8  1  1  0  0  0
  6  4  1  0  0  0  0
  7 11  1  0  0  0  0
  9  7  1  6  0  0  0
  9  3  1  0  0  0  0
  9  5  1  0  0  0  0
 10  5  1  0  0  0  0
 11 10  1  0  0  0  0
 14 16  1  0  0  0  0
 15 13  1  0  0  0  0
 16 15  2  0  0  0  0
 16 25  1  0  0  0  0
 17 18  2  0  0  0  0
 18 12  1  0  0  0  0
 18 15  1  0  0  0  0
 19 17  1  0  0  0  0
 19 14  2  0  0  0  0
 20 19  1  0  0  0  0
 21 20  1  0  0  0  0
 22 21  1  0  0  0  0
 23 20  2  0  0  0  0
 25 24  1  0  0  0  0
 27 26  1  6  0  0  0
 27 28  1  0  0  0  0
 28 29  1  0  0  0  0
 30 29  1  0  0  0  0
 31  1  1  0  0  0  0
 32 34  2  0  0  0  0
 33 36  1  0  0  0  0
 35 34  1  6  0  0  0
 35 39  1  0  0  0  0
 36 40  2  0  0  0  0
 36 32  1  0  0  0  0
 37 45  1  0  0  0  0
 37 31  1  1  0  0  0
 38 32  1  0  0  0  0
 39 37  1  0  0  0  0
 40 41  1  0  0  0  0
 41 42  1  0  0  0  0
 41 35  1  0  0  0  0
 41 39  1  0  0  0  0
 42 39  1  0  0  0  0
 42 37  1  0  0  0  0
 43 45  2  0  0  0  0
 45 44  1  0  0  0  0
 46 47  2  0  0  0  0
 46 42  1  0  0  0  0
 48 57  1  0  0  0  0
 49 54  1  0  0  0  0
 50 54  1  0  0  0  0
 52 51  1  0  0  0  0
 53 51  1  0  0  0  0
 53 57  1  0  0  0  0
 54 46  1  0  0  0  0
 55 50  1  0  0  0  0
 55 51  1  0  0  0  0
 56 50  1  0  0  0  0
 58 48  2  0  0  0  0
 58 52  1  0  0  0  0
 59 52  1  0  0  0  0
 59 49  1  0  0  0  0
M  END
>  <MODEL>
7

>  <REMARK>
 VINA RESULT:      -7.5      2.170      3.531
  Name = 
  14 active torsions:
  status: ('A' for Active; 'I' for Inactive)
    1  A    between atoms: C_3  and  C_55
    2  A    between atoms: C_4  and  C_56
    3  A    between atoms: C_6  and  O_8
    4  A    between atoms: C_6  and  C_38
    5  A    between atoms: C_19  and  C_39
    6  A    between atoms: C_23  and  C_32
    7  A    between atoms: C_23  and  C_44
    8  A    between atoms: C_32  and  C_38
    9  A    between atoms: C_32  and  N_58
   10  A    between atoms: C_33  and  C_44
   11  A    between atoms: C_33  and  C_45
   12  A    between atoms: C_36  and  O_51
   13  A    between atoms: C_39  and  C_54
   14  A    between atoms: C_53  and  C_56
                            x       y       z     vdW  Elec       q    Type
                         _______ _______ _______ _____ _____    ______ ____

>  <TORSDO>
F 14

$$$$
=
 OpenBabel11062418153D

 59 67  0  0  1  0  0  0  0  0999 V2000
  183.2520  178.8800  141.3300 C   0  0  0  0  0  2  0  0  0  0  0  0
  183.9340  178.0160  142.3880 C   0  0  1  0  0  3  0  0  0  0  0  0
  188.4670  176.9190  142.4580 C   0  0  2  0  0  3  0  0  0  0  0  0
  188.7150  178.1440  140.2320 C   0  0  0  0  0  2  0  0  0  0  0  0
  187.0540  179.0090  141.9650 C   0  0  2  0  0  3  0  0  0  0  0  0
  188.4670  176.8010  140.9280 C   0  0  0  0  0  2  0  0  0  0  0  0
  186.0940  177.2520  143.1290 C   0  0  0  0  0  2  0  0  0  0  0  0
  188.2010  179.3560  141.0180 C   0  0  0  0  0  2  0  0  0  0  0  0
  187.4120  177.9240  142.9590 C   0  0  1  0  0  3  0  0  0  0  0  0
  185.9100  178.6120  141.2490 O   0  0  0  0  0  0  0  0  0  0  0  0
  185.2950  177.6190  141.9690 N   0  0  0  0  0  0  0  0  0  0  0  0
  189.8590  177.2810  142.9710 C   0  0  0  0  0  2  0  0  0  0  0  0
  192.3680  175.7590  144.0060 Cl  0  0  0  0  0  0  0  0  0  0  0  0
  190.1250  176.7500  147.2220 C   0  0  0  0  0  3  0  0  0  0  0  0
  191.0850  176.4220  145.0200 C   0  0  0  0  0  0  0  0  0  0  0  0
  191.1720  176.2830  146.4150 C   0  0  0  0  0  0  0  0  0  0  0  0
  188.9300  177.5080  145.2670 C   0  0  0  0  0  3  0  0  0  0  0  0
  189.9630  177.0500  144.4460 C   0  0  0  0  0  0  0  0  0  0  0  0
  188.9980  177.3550  146.6560 C   0  0  0  0  0  0  0  0  0  0  0  0
  187.9170  177.8670  147.5170 C   0  0  0  0  0  0  0  0  0  0  0  0
  186.7940  178.5300  146.9360 N   0  0  0  0  0  2  0  0  0  0  0  0
  185.6850  179.0170  147.7420 C   0  0  0  0  0  1  0  0  0  0  0  0
  187.9740  177.7070  148.7660 O   0  0  0  0  0  0  0  0  0  0  0  0
  192.7670  176.0000  148.2880 C   0  0  0  0  0  1  0  0  0  0  0  0
  192.3060  175.6890  146.9800 O   0  0  0  0  0  0  0  0  0  0  0  0
  184.3180  180.0860  143.8220 C   0  0  0  0  0  1  0  0  0  0  0  0
  183.8050  178.6540  143.7930 C   0  0  1  0  0  3  0  0  0  0  0  0
  182.4070  178.5330  144.3990 C   0  0  0  0  0  2  0  0  0  0  0  0
  181.5260  179.4330  143.7940 O   0  0  0  0  0  0  0  0  0  0  0  0
  180.2600  178.9260  144.0870 C   0  0  0  0  0  1  0  0  0  0  0  0
  183.0470  178.1010  140.0360 C   0  0  0  0  0  2  0  0  0  0  0  0
  180.6400  182.1230  137.0190 C   0  0  0  0  0  0  0  0  0  0  0  0
  180.8530  181.5880  134.6130 F   0  0  0  0  0  0  0  0  0  0  0  0
  181.0050  181.7460  138.2570 C   0  0  0  0  0  3  0  0  0  0  0  0
  181.6790  180.4070  138.3890 C   0  0  1  0  0  3  0  0  0  0  0  0
  180.8020  181.1580  135.8970 C   0  0  0  0  0  0  0  0  0  0  0  0
  181.5760  178.0270  139.5820 C   0  0  1  0  0  0  0  0  0  0  0  0
  180.1130  183.3870  136.7960 O   0  0  0  0  0  1  0  0  0  0  0  0
  180.9480  179.3060  139.0750 C   0  0  1  0  0  0  0  0  0  0  0  0
  180.9370  179.8500  136.1840 C   0  0  0  0  0  3  0  0  0  0  0  0
  180.7350  179.4170  137.6260 C   0  0  1  0  0  0  0  0  0  0  0  0
  181.1870  178.0440  138.1000 C   0  0  2  0  0  0  0  0  0  0  0  0
  180.7400  175.8400  140.4840 O   0  0  0  0  0  0  0  0  0  0  0  0
  179.7980  177.7990  141.1910 O   0  0  0  0  0  1  0  0  0  0  0  0
  180.6500  177.2270  140.4600 C   0  0  0  0  0  0  0  0  0  0  0  0
  182.4640  177.7020  137.3220 C   0  0  0  0  0  0  0  0  0  0  0  0
  183.3140  178.5460  137.0580 O   0  0  0  0  0  0  0  0  0  0  0  0
  183.6740  171.2310  135.4420 C   0  0  0  0  0  3  0  0  0  0  0  0
  183.9500  176.1820  136.0170 C   0  0  0  0  0  2  0  0  0  0  0  0
  181.3870  175.7280  136.2050 C   0  0  2  0  0  3  0  0  0  0  0  0
  182.5140  173.5670  136.6560 N   0  0  2  0  0  0  0  0  0  0  0  0
  183.8190  173.6200  135.9290 C   0  0  1  0  0  3  0  0  0  0  0  0
  182.0220  172.2090  136.9750 C   0  0  0  0  0  2  0  0  0  0  0  0
  182.6660  176.2920  136.8570 C   0  0  2  0  0  3  0  0  0  0  0  0
  181.4550  174.2260  135.8920 C   0  0  0  0  0  2  0  0  0  0  0  0
  181.0530  176.4360  135.0480 O   0  0  0  0  0  1  0  0  0  0  0  0
  183.0740  171.1080  136.8050 C   0  0  0  0  0  2  0  0  0  0  0  0
  184.0240  172.4430  135.0150 C   0  0  0  0  0  3  0  0  0  0  0  0
  184.0480  174.9230  135.1540 C   0  0  0  0  0  2  0  0  0  0  0  0
  2  1  1  6  0  0  0
  2 27  1  0  0  0  0
  3  9  1  0  0  0  0
  3 12  1  6  0  0  0
  4  6  1  0  0  0  0
  4  8  1  0  0  0  0
  5  8  1  6  0  0  0
  5  9  1  0  0  0  0
  6  3  1  0  0  0  0
  9  7  1  6  0  0  0
 10  5  1  0  0  0  0
 10 11  1  0  0  0  0
 11  2  1  0  0  0  0
 11  7  1  0  0  0  0
 12 18  1  0  0  0  0
 13 15  1  0  0  0  0
 15 16  1  0  0  0  0
 16 25  1  0  0  0  0
 16 14  2  0  0  0  0
 17 19  2  0  0  0  0
 18 15  2  0  0  0  0
 18 17  1  0  0  0  0
 19 14  1  0  0  0  0
 19 20  1  0  0  0  0
 20 23  2  0  0  0  0
 21 20  1  0  0  0  0
 21 22  1  0  0  0  0
 25 24  1  0  0  0  0
 27 26  1  6  0  0  0
 27 28  1  0  0  0  0
 29 30  1  0  0  0  0
 29 28  1  0  0  0  0
 31  1  1  0  0  0  0
 32 34  2  0  0  0  0
 33 36  1  0  0  0  0
 35 34  1  1  0  0  0
 35 39  1  0  0  0  0
 36 40  2  0  0  0  0
 36 32  1  0  0  0  0
 37 31  1  1  0  0  0
 37 45  1  0  0  0  0
 38 32  1  0  0  0  0
 39 37  1  0  0  0  0
 40 41  1  0  0  0  0
 41 42  1  0  0  0  0
 41 35  1  0  0  0  0
 41 39  1  0  0  0  0
 42 39  1  0  0  0  0
 42 37  1  0  0  0  0
 45 43  2  0  0  0  0
 45 44  1  0  0  0  0
 46 42  1  0  0  0  0
 47 46  2  0  0  0  0
 48 57  1  0  0  0  0
 49 54  1  0  0  0  0
 50 54  1  0  0  0  0
 51 53  1  0  0  0  0
 52 51  1  0  0  0  0
 54 46  1  0  0  0  0
 55 50  1  0  0  0  0
 55 51  1  0  0  0  0
 56 50  1  0  0  0  0
 57 53  1  0  0  0  0
 58 48  2  0  0  0  0
 58 52  1  0  0  0  0
 59 52  1  0  0  0  0
 59 49  1  0  0  0  0
M  END
>  <MODEL>
8

>  <REMARK>
 VINA RESULT:      -7.5      2.152      3.992
  Name = 
  14 active torsions:
  status: ('A' for Active; 'I' for Inactive)
    1  A    between atoms: C_3  and  C_55
    2  A    between atoms: C_4  and  C_56
    3  A    between atoms: C_6  and  O_8
    4  A    between atoms: C_6  and  C_38
    5  A    between atoms: C_19  and  C_39
    6  A    between atoms: C_23  and  C_32
    7  A    between atoms: C_23  and  C_44
    8  A    between atoms: C_32  and  C_38
    9  A    between atoms: C_32  and  N_58
   10  A    between atoms: C_33  and  C_44
   11  A    between atoms: C_33  and  C_45
   12  A    between atoms: C_36  and  O_51
   13  A    between atoms: C_39  and  C_54
   14  A    between atoms: C_53  and  C_56
                            x       y       z     vdW  Elec       q    Type
                         _______ _______ _______ _____ _____    ______ ____

>  <TORSDO>
F 14

$$$$
=
 OpenBabel11062418153D

 59 67  0  0  1  0  0  0  0  0999 V2000
  184.9930  177.8220  138.6320 C   0  0  0  0  0  2  0  0  0  0  0  0
  186.4620  178.0710  138.3000 C   0  0  1  0  0  3  0  0  0  0  0  0
  188.9820  177.6430  142.2010 C   0  0  2  0  0  3  0  0  0  0  0  0
  190.7630  176.4410  140.8230 C   0  0  0  0  0  2  0  0  0  0  0  0
  189.4120  178.3260  139.7600 C   0  0  2  0  0  3  0  0  0  0  0  0
  189.5220  176.2930  141.7110 C   0  0  0  0  0  2  0  0  0  0  0  0
  187.2390  178.3310  140.5640 C   0  0  0  0  0  2  0  0  0  0  0  0
  190.8010  177.7450  140.0180 C   0  0  0  0  0  2  0  0  0  0  0  0
  188.6300  178.5830  141.0320 C   0  0  1  0  0  3  0  0  0  0  0  0
  188.6570  177.4820  138.9250 O   0  0  0  0  0  0  0  0  0  0  0  0
  187.3540  177.5350  139.3500 N   0  0  0  0  0  0  0  0  0  0  0  0
  189.9710  178.3030  143.1600 C   0  0  0  0  0  2  0  0  0  0  0  0
  187.0840  178.6050  144.2780 Cl  0  0  0  0  0  0  0  0  0  0  0  0
  189.3440  176.9070  147.1700 C   0  0  0  0  0  3  0  0  0  0  0  0
  188.4460  177.8990  145.1480 C   0  0  0  0  0  0  0  0  0  0  0  0
  188.2510  177.4100  146.4500 C   0  0  0  0  0  0  0  0  0  0  0  0
  190.8060  177.3520  145.3020 C   0  0  0  0  0  3  0  0  0  0  0  0
  189.7300  177.8570  144.5680 C   0  0  0  0  0  0  0  0  0  0  0  0
  190.6240  176.8830  146.6070 C   0  0  0  0  0  0  0  0  0  0  0  0
  191.7590  176.3260  147.3650 C   0  0  0  0  0  0  0  0  0  0  0  0
  192.2680  177.0200  148.5040 N   0  0  0  0  0  2  0  0  0  0  0  0
  193.3600  176.4900  149.3050 C   0  0  0  0  0  1  0  0  0  0  0  0
  192.2740  175.2290  147.0180 O   0  0  0  0  0  0  0  0  0  0  0  0
  186.3560  178.6080  147.5000 C   0  0  0  0  0  1  0  0  0  0  0  0
  186.9670  177.4240  147.0070 O   0  0  0  0  0  0  0  0  0  0  0  0
  187.4320  178.7760  136.0520 C   0  0  0  0  0  1  0  0  0  0  0  0
  186.7810  177.6510  136.8450 C   0  0  1  0  0  3  0  0  0  0  0  0
  187.5680  176.3460  136.7370 C   0  0  0  0  0  2  0  0  0  0  0  0
  186.7480  175.2490  137.0140 O   0  0  0  0  0  0  0  0  0  0  0  0
  186.1620  174.9380  135.7880 C   0  0  0  0  0  1  0  0  0  0  0  0
  184.2060  179.1270  138.6490 C   0  0  0  0  0  2  0  0  0  0  0  0
  180.1160  182.6200  137.1860 C   0  0  0  0  0  0  0  0  0  0  0  0
  178.9310  181.7200  135.2100 F   0  0  0  0  0  0  0  0  0  0  0  0
  181.1700  182.4410  138.0000 C   0  0  0  0  0  3  0  0  0  0  0  0
  181.9190  181.1430  137.8690 C   0  0  1  0  0  3  0  0  0  0  0  0
  179.6820  181.4940  136.3140 C   0  0  0  0  0  0  0  0  0  0  0  0
  182.7620  178.9760  139.1690 C   0  0  1  0  0  0  0  0  0  0  0  0
  179.4390  183.8320  137.1680 O   0  0  0  0  0  1  0  0  0  0  0  0
  181.8380  180.1570  138.9820 C   0  0  1  0  0  0  0  0  0  0  0  0
  180.0850  180.2470  136.6210 C   0  0  0  0  0  3  0  0  0  0  0  0
  180.8080  180.0410  137.9420 C   0  0  1  0  0  0  0  0  0  0  0  0
  181.5810  178.7610  138.2180 C   0  0  2  0  0  0  0  0  0  0  0  0
  182.5620  176.9300  140.6070 O   0  0  0  0  0  0  0  0  0  0  0  0
  182.5350  179.0050  141.5660 O   0  0  0  0  0  1  0  0  0  0  0  0
  182.6080  178.3160  140.5130 C   0  0  0  0  0  0  0  0  0  0  0  0
  182.1860  178.3100  136.8820 C   0  0  0  0  0  0  0  0  0  0  0  0
  182.6830  179.1020  136.0890 O   0  0  0  0  0  0  0  0  0  0  0  0
  182.3170  171.7130  135.0540 C   0  0  0  0  0  3  0  0  0  0  0  0
  181.5950  176.6520  135.1150 C   0  0  0  0  0  2  0  0  0  0  0  0
  181.4730  176.0270  137.6460 C   0  0  2  0  0  3  0  0  0  0  0  0
  182.6600  174.1630  136.5230 N   0  0  2  0  0  0  0  0  0  0  0  0
  182.1700  174.1500  135.1110 C   0  0  1  0  0  3  0  0  0  0  0  0
  183.2440  172.8910  137.0010 C   0  0  0  0  0  2  0  0  0  0  0  0
  182.1530  176.8530  136.5350 C   0  0  2  0  0  3  0  0  0  0  0  0
  181.5850  174.5070  137.4530 C   0  0  0  0  0  2  0  0  0  0  0  0
  180.1310  176.3850  137.7960 O   0  0  0  0  0  1  0  0  0  0  0  0
  183.5470  171.8850  135.8870 C   0  0  0  0  0  2  0  0  0  0  0  0
  181.6470  172.8040  134.6880 C   0  0  0  0  0  3  0  0  0  0  0  0
  181.1250  175.2300  134.8030 C   0  0  0  0  0  2  0  0  0  0  0  0
  1 31  1  0  0  0  0
  2  1  1  1  0  0  0
  2 11  1  0  0  0  0
  3 12  1  1  0  0  0
  4  6  1  0  0  0  0
  5  8  1  1  0  0  0
  5  9  1  0  0  0  0
  6  3  1  0  0  0  0
  8  4  1  0  0  0  0
  9  7  1  6  0  0  0
  9  3  1  0  0  0  0
 10 11  1  0  0  0  0
 10  5  1  0  0  0  0
 11  7  1  0  0  0  0
 12 18  1  0  0  0  0
 13 15  1  0  0  0  0
 15 16  1  0  0  0  0
 16 25  1  0  0  0  0
 16 14  2  0  0  0  0
 17 19  2  0  0  0  0
 18 15  2  0  0  0  0
 18 17  1  0  0  0  0
 19 14  1  0  0  0  0
 19 20  1  0  0  0  0
 20 21  1  0  0  0  0
 21 22  1  0  0  0  0
 23 20  2  0  0  0  0
 25 24  1  0  0  0  0
 27 26  1  1  0  0  0
 27  2  1  0  0  0  0
 28 27  1  0  0  0  0
 28 29  1  0  0  0  0
 30 29  1  0  0  0  0
 32 34  2  0  0  0  0
 33 36  1  0  0  0  0
 35 41  1  0  0  0  0
 35 34  1  1  0  0  0
 35 39  1  0  0  0  0
 36 40  2  0  0  0  0
 36 32  1  0  0  0  0
 37 31  1  6  0  0  0
 37 45  1  0  0  0  0
 38 32  1  0  0  0  0
 39 37  1  0  0  0  0
 40 41  1  0  0  0  0
 41 42  1  0  0  0  0
 41 39  1  0  0  0  0
 42 39  1  0  0  0  0
 42 37  1  0  0  0  0
 45 43  2  0  0  0  0
 45 44  1  0  0  0  0
 46 42  1  0  0  0  0
 47 46  2  0  0  0  0
 48 57  1  0  0  0  0
 49 54  1  0  0  0  0
 50 56  1  0  0  0  0
 51 53  1  0  0  0  0
 51 55  1  0  0  0  0
 52 51  1  0  0  0  0
 54 46  1  0  0  0  0
 54 50  1  0  0  0  0
 55 50  1  0  0  0  0
 57 53  1  0  0  0  0
 58 48  2  0  0  0  0
 58 52  1  0  0  0  0
 59 52  1  0  0  0  0
 59 49  1  0  0  0  0
M  END
>  <MODEL>
9

>  <REMARK>
 VINA RESULT:      -7.4      2.044      3.643
  Name = 
  14 active torsions:
  status: ('A' for Active; 'I' for Inactive)
    1  A    between atoms: C_3  and  C_55
    2  A    between atoms: C_4  and  C_56
    3  A    between atoms: C_6  and  O_8
    4  A    between atoms: C_6  and  C_38
    5  A    between atoms: C_19  and  C_39
    6  A    between atoms: C_23  and  C_32
    7  A    between atoms: C_23  and  C_44
    8  A    between atoms: C_32  and  C_38
    9  A    between atoms: C_32  and  N_58
   10  A    between atoms: C_33  and  C_44
   11  A    between atoms: C_33  and  C_45
   12  A    between atoms: C_36  and  O_51
   13  A    between atoms: C_39  and  C_54
   14  A    between atoms: C_53  and  C_56
                            x       y       z     vdW  Elec       q    Type
                         _______ _______ _______ _____ _____    ______ ____

>  <TORSDO>
F 14

$$$$
