=
 OpenBabel11062416063D

 43 47  0  0  1  0  0  0  0  0999 V2000
  186.9020  173.9940  136.3400 C   0  0  1  0  0  3  0  0  0  0  0  0
  180.2630  180.2260  137.9480 C   0  0  0  0  0  2  0  0  0  0  0  0
  186.7280  175.5090  136.1660 C   0  0  1  0  0  3  0  0  0  0  0  0
  183.8330  178.2480  140.4750 O   0  0  0  0  0  0  0  0  0  0  0  0
  180.8470  174.6840  136.0630 C   0  0  0  0  0  3  0  0  0  0  0  0
  182.8960  172.9690  136.8030 C   0  0  0  0  0  0  0  0  0  0  0  0
  182.7180  171.8890  134.6040 N   0  0  0  0  0  1  0  0  0  0  0  0
  184.6620  177.9250  137.7740 C   0  0  0  0  0  2  0  0  0  0  0  0
  188.4050  176.4740  134.7170 O   0  0  0  0  0  1  0  0  0  0  0  0
  181.3550  175.7500  139.6640 C   0  0  0  0  0  2  0  0  0  0  0  0
  189.2300  175.8490  136.9270 C   0  0  2  0  0  0  0  0  0  0  0  0
  190.0070  174.7150  136.2440 C   0  0  0  0  0  2  0  0  0  0  0  0
  180.2080  177.0050  137.8440 C   0  0  0  0  0  0  0  0  0  0  0  0
  180.5610  178.1400  140.1530 C   0  0  2  0  0  0  0  0  0  0  0  0
  182.2910  172.8720  135.5410 C   0  0  0  0  0  0  0  0  0  0  0  0
  179.9690  177.2240  136.6250 O   0  0  0  0  0  0  0  0  0  0  0  0
  185.6950  173.3410  136.0900 O   0  0  0  0  0  0  0  0  0  0  0  0
  185.1750  177.0300  136.6640 C   0  0  0  0  0  2  0  0  0  0  0  0
  184.0080  172.0490  137.2000 C   0  0  0  0  0  2  0  0  0  0  0  0
  183.0730  177.6000  139.7070 C   0  0  0  0  0  0  0  0  0  0  0  0
  187.9890  173.4130  135.4520 C   0  0  0  0  0  2  0  0  0  0  0  0
  185.9510  176.0070  137.2180 O   0  0  0  0  0  0  0  0  0  0  0  0
  181.0630  179.5980  140.2790 C   0  0  0  0  0  2  0  0  0  0  0  0
  179.1290  179.2650  138.3170 C   0  0  0  0  0  2  0  0  0  0  0  0
  181.2850  173.7220  135.2080 N   0  0  0  0  0  0  0  0  0  0  0  0
  185.3260  172.7980  137.3250 C   0  0  0  0  0  2  0  0  0  0  0  0
  181.7390  177.1220  140.2280 C   0  0  2  0  0  3  0  0  0  0  0  0
  181.4250  174.8330  137.3320 C   0  0  0  0  0  0  0  0  0  0  0  0
  189.2920  173.3650  136.2340 C   0  0  0  0  0  2  0  0  0  0  0  0
  179.6570  177.9430  138.8930 C   0  0  1  0  0  3  0  0  0  0  0  0
  183.4690  177.3390  138.3590 N   0  0  0  0  0  2  0  0  0  0  0  0
  188.7910  175.4290  138.1870 O   0  0  0  0  0  1  0  0  0  0  0  0
  180.9840  175.8590  138.2520 N   0  0  0  0  0  0  0  0  0  0  0  0
  181.4470  180.1840  138.9200 C   0  0  0  0  0  2  0  0  0  0  0  0
  182.4540  173.9510  137.6920 C   0  0  0  0  0  3  0  0  0  0  0  0
  188.0390  176.3150  136.0570 C   0  0  2  0  0  3  0  0  0  0  0  0
  179.6110  178.6850  142.2660 O   0  0  0  0  0  0  0  0  0  0  0  0
  179.7100  177.8700  141.3610 C   0  0  0  0  0  3  0  0  0  0  0  0
  190.2100  177.0130  137.1030 C   0  0  0  0  0  2  0  0  0  0  0  0
  190.0520  177.7600  138.4270 C   0  0  0  0  0  2  0  0  0  0  0  0
  187.8280  178.6310  139.1560 O   0  0  0  0  0  1  0  0  0  0  0  0
  189.0550  179.7480  137.5720 O   0  0  0  0  0  0  0  0  0  0  0  0
  188.9560  178.7680  138.3550 C   0  0  0  0  0  0  0  0  0  0  0  0
  1 21  1  6  0  0  0
  2 24  1  0  0  0  0
  2 34  1  0  0  0  0
  3  1  1  0  0  0  0
  3 22  1  1  0  0  0
  5 28  1  0  0  0  0
  6 19  1  0  0  0  0
  6 35  1  0  0  0  0
  7 15  1  0  0  0  0
  8 31  1  0  0  0  0
 11 39  1  0  0  0  0
 11 32  1  1  0  0  0
 12 11  1  0  0  0  0
 13 33  1  0  0  0  0
 13 30  1  0  0  0  0
 14 27  1  0  0  0  0
 14 23  1  0  0  0  0
 14 38  1  1  0  0  0
 15  6  2  0  0  0  0
 16 13  2  0  0  0  0
 17  1  1  0  0  0  0
 17 26  1  0  0  0  0
 18 22  1  0  0  0  0
 18  8  1  0  0  0  0
 19 26  1  0  0  0  0
 20 27  1  0  0  0  0
 20  4  2  0  0  0  0
 21 29  1  0  0  0  0
 25 15  1  0  0  0  0
 25  5  2  0  0  0  0
 27 10  1  6  0  0  0
 28 35  2  0  0  0  0
 28 33  1  0  0  0  0
 29 12  1  0  0  0  0
 30 24  1  6  0  0  0
 30 14  1  0  0  0  0
 31 20  1  0  0  0  0
 33 10  1  0  0  0  0
 34 23  1  0  0  0  0
 36  9  1  6  0  0  0
 36  3  1  0  0  0  0
 36 11  1  0  0  0  0
 38 37  2  0  0  0  0
 39 40  1  0  0  0  0
 42 43  2  0  0  0  0
 43 40  1  0  0  0  0
 43 41  1  0  0  0  0
M  END
>  <MODEL>
1

>  <REMARK>
 VINA RESULT:      -6.5      0.000      0.000
  Name = 
  4 active torsions:
  status: ('A' for Active; 'I' for Inactive)
    1  A    between atoms: C_7  and  C_11
    2  A    between atoms: C_7  and  C_37
    3  A    between atoms: C_11  and  C_16
    4  A    between atoms: C_19  and  C_28
                            x       y       z     vdW  Elec       q    Type
                         _______ _______ _______ _____ _____    ______ ____

>  <TORSDO>
F 4

$$$$
=
 OpenBabel11062416063D

 43 47  0  0  1  0  0  0  0  0999 V2000
  189.0680  177.1280  139.9250 C   0  0  1  0  0  3  0  0  0  0  0  0
  180.5130  179.1250  137.0380 C   0  0  0  0  0  2  0  0  0  0  0  0
  187.9460  178.0920  140.3390 C   0  0  1  0  0  3  0  0  0  0  0  0
  182.4970  175.9350  140.0260 O   0  0  0  0  0  0  0  0  0  0  0  0
  185.7790  177.7270  134.8210 C   0  0  0  0  0  3  0  0  0  0  0  0
  187.6820  176.1820  136.1170 C   0  0  0  0  0  0  0  0  0  0  0  0
  189.4330  177.4520  134.9520 N   0  0  0  0  0  1  0  0  0  0  0  0
  184.4090  178.0360  139.9210 C   0  0  0  0  0  2  0  0  0  0  0  0
  188.7230  179.8340  141.8230 O   0  0  0  0  0  1  0  0  0  0  0  0
  183.5350  175.2680  136.6330 C   0  0  0  0  0  2  0  0  0  0  0  0
  188.5390  177.6370  142.8680 C   0  0  2  0  0  0  0  0  0  0  0  0
  190.0720  177.6010  142.9140 C   0  0  0  0  0  2  0  0  0  0  0  0
  182.9150  177.4760  135.6610 C   0  0  0  0  0  0  0  0  0  0  0  0
  181.1570  176.1430  137.0300 C   0  0  2  0  0  0  0  0  0  0  0  0
  188.0590  177.1910  135.2190 C   0  0  0  0  0  0  0  0  0  0  0  0
  183.2150  178.6210  135.2230 O   0  0  0  0  0  0  0  0  0  0  0  0
  189.0880  176.9860  138.5370 O   0  0  0  0  0  0  0  0  0  0  0  0
  185.8420  178.4900  139.7210 C   0  0  0  0  0  2  0  0  0  0  0  0
  188.7080  175.3520  136.8230 C   0  0  0  0  0  2  0  0  0  0  0  0
  182.9730  176.2310  138.8980 C   0  0  0  0  0  0  0  0  0  0  0  0
  190.4390  177.5650  140.4120 C   0  0  0  0  0  2  0  0  0  0  0  0
  186.7090  177.4720  140.1310 O   0  0  0  0  0  0  0  0  0  0  0  0
  180.2610  176.8240  138.0910 C   0  0  0  0  0  2  0  0  0  0  0  0
  180.5050  178.2950  135.7510 C   0  0  0  0  0  2  0  0  0  0  0  0
  187.1040  177.9290  134.5940 N   0  0  0  0  0  0  0  0  0  0  0  0
  188.7290  175.6520  138.3140 C   0  0  0  0  0  2  0  0  0  0  0  0
  182.4400  175.5330  137.6710 C   0  0  2  0  0  3  0  0  0  0  0  0
  185.3480  176.7390  135.7180 C   0  0  0  0  0  0  0  0  0  0  0  0
  190.7310  176.8810  141.7390 C   0  0  0  0  0  2  0  0  0  0  0  0
  181.4630  177.0980  135.8300 C   0  0  1  0  0  3  0  0  0  0  0  0
  183.9930  177.2260  138.7900 N   0  0  0  0  0  2  0  0  0  0  0  0
  188.0430  176.3480  142.6410 O   0  0  0  0  0  1  0  0  0  0  0  0
  183.9440  176.5160  135.9840 N   0  0  0  0  0  0  0  0  0  0  0  0
  180.6530  178.2850  138.3120 C   0  0  0  0  0  2  0  0  0  0  0  0
  186.3240  175.9620  136.3570 C   0  0  0  0  0  3  0  0  0  0  0  0
  188.0330  178.6190  141.7860 C   0  0  2  0  0  3  0  0  0  0  0  0
  180.2740  173.9350  137.1120 O   0  0  0  0  0  0  0  0  0  0  0  0
  180.3770  174.9800  136.4870 C   0  0  0  0  0  3  0  0  0  0  0  0
  188.0660  178.1170  144.2440 C   0  0  0  0  0  2  0  0  0  0  0  0
  186.8380  177.3740  144.7700 C   0  0  0  0  0  2  0  0  0  0  0  0
  184.8600  178.1730  143.4720 O   0  0  0  0  0  0  0  0  0  0  0  0
  185.2360  178.9280  145.6040 O   0  0  0  0  0  1  0  0  0  0  0  0
  185.6050  178.2030  144.6450 C   0  0  0  0  0  0  0  0  0  0  0  0
  1  3  1  0  0  0  0
  1 21  1  6  0  0  0
  2 34  1  0  0  0  0
  3 22  1  1  0  0  0
  3 36  1  0  0  0  0
  5 28  1  0  0  0  0
  6 35  1  0  0  0  0
  6 19  1  0  0  0  0
  7 15  1  0  0  0  0
 11 32  1  6  0  0  0
 11 12  1  0  0  0  0
 11 39  1  0  0  0  0
 13 30  1  0  0  0  0
 13 33  1  0  0  0  0
 14 38  1  6  0  0  0
 14 27  1  0  0  0  0
 14 23  1  0  0  0  0
 15  6  2  0  0  0  0
 16 13  2  0  0  0  0
 17  1  1  0  0  0  0
 18  8  1  0  0  0  0
 18 22  1  0  0  0  0
 19 26  1  0  0  0  0
 20  4  2  0  0  0  0
 21 29  1  0  0  0  0
 23 34  1  0  0  0  0
 24  2  1  0  0  0  0
 25  5  2  0  0  0  0
 25 15  1  0  0  0  0
 26 17  1  0  0  0  0
 27 10  1  6  0  0  0
 27 20  1  0  0  0  0
 28 33  1  0  0  0  0
 28 35  2  0  0  0  0
 29 12  1  0  0  0  0
 30 24  1  1  0  0  0
 30 14  1  0  0  0  0
 31 20  1  0  0  0  0
 31  8  1  0  0  0  0
 33 10  1  0  0  0  0
 36  9  1  6  0  0  0
 36 11  1  0  0  0  0
 38 37  2  0  0  0  0
 39 40  1  0  0  0  0
 41 43  2  0  0  0  0
 43 40  1  0  0  0  0
 43 42  1  0  0  0  0
M  END
>  <MODEL>
2

>  <REMARK>
 VINA RESULT:      -4.3      3.138      5.375
  Name = 
  4 active torsions:
  status: ('A' for Active; 'I' for Inactive)
    1  A    between atoms: C_7  and  C_11
    2  A    between atoms: C_7  and  C_37
    3  A    between atoms: C_11  and  C_16
    4  A    between atoms: C_19  and  C_28
                            x       y       z     vdW  Elec       q    Type
                         _______ _______ _______ _____ _____    ______ ____

>  <TORSDO>
F 4

$$$$
=
 OpenBabel11062416063D

 43 47  0  0  1  0  0  0  0  0999 V2000
  188.9840  177.1720  139.8300 C   0  0  1  0  0  3  0  0  0  0  0  0
  180.3070  179.1340  137.3090 C   0  0  0  0  0  2  0  0  0  0  0  0
  187.8700  178.1150  140.3050 C   0  0  1  0  0  3  0  0  0  0  0  0
  182.4350  175.9070  140.1560 O   0  0  0  0  0  0  0  0  0  0  0  0
  185.4990  177.8360  134.8670 C   0  0  0  0  0  3  0  0  0  0  0  0
  187.4650  176.2860  136.0590 C   0  0  0  0  0  0  0  0  0  0  0  0
  189.1570  177.5970  134.8550 N   0  0  0  0  0  1  0  0  0  0  0  0
  184.3200  178.0300  140.0200 C   0  0  0  0  0  2  0  0  0  0  0  0
  188.6850  179.8360  141.7940 O   0  0  0  0  0  1  0  0  0  0  0  0
  183.3490  175.3180  136.7120 C   0  0  0  0  0  2  0  0  0  0  0  0
  188.5630  177.6170  142.8010 C   0  0  2  0  0  0  0  0  0  0  0  0
  190.0970  177.5970  142.7870 C   0  0  0  0  0  2  0  0  0  0  0  0
  182.6710  177.5380  135.8100 C   0  0  0  0  0  0  0  0  0  0  0  0
  180.9790  176.1600  137.2170 C   0  0  2  0  0  0  0  0  0  0  0  0
  187.7970  177.3160  135.1680 C   0  0  0  0  0  0  0  0  0  0  0  0
  182.9430  178.6950  135.3840 O   0  0  0  0  0  0  0  0  0  0  0  0
  188.9530  177.0570  138.4400 O   0  0  0  0  0  0  0  0  0  0  0  0
  185.7390  178.5020  139.7750 C   0  0  0  0  0  2  0  0  0  0  0  0
  188.5250  175.4530  136.7090 C   0  0  0  0  0  2  0  0  0  0  0  0
  182.8650  176.2300  139.0160 C   0  0  0  0  0  0  0  0  0  0  0  0
  190.3690  177.6140  140.2740 C   0  0  0  0  0  2  0  0  0  0  0  0
  186.6320  177.4870  140.1320 O   0  0  0  0  0  0  0  0  0  0  0  0
  180.1170  176.8100  138.3250 C   0  0  0  0  0  2  0  0  0  0  0  0
  180.2580  178.3290  136.0070 C   0  0  0  0  0  2  0  0  0  0  0  0
  186.8120  178.0570  134.5940 N   0  0  0  0  0  0  0  0  0  0  0  0
  188.6000  175.7240  138.2040 C   0  0  0  0  0  2  0  0  0  0  0  0
  182.2910  175.5510  137.7960 C   0  0  2  0  0  3  0  0  0  0  0  0
  185.1120  176.8260  135.7600 C   0  0  0  0  0  0  0  0  0  0  0  0
  190.7170  176.9070  141.5740 C   0  0  0  0  0  2  0  0  0  0  0  0
  181.2300  177.1410  136.0250 C   0  0  1  0  0  3  0  0  0  0  0  0
  183.8690  177.2380  138.8900 N   0  0  0  0  0  2  0  0  0  0  0  0
  188.0710  176.3280  142.5670 O   0  0  0  0  0  1  0  0  0  0  0  0
  183.7200  176.5830  136.0740 N   0  0  0  0  0  0  0  0  0  0  0  0
  180.5040  178.2700  138.5600 C   0  0  0  0  0  2  0  0  0  0  0  0
  186.1190  176.0470  136.3450 C   0  0  0  0  0  3  0  0  0  0  0  0
  188.0060  178.6140  141.7580 C   0  0  2  0  0  3  0  0  0  0  0  0
  180.1660  173.9240  137.2600 O   0  0  0  0  0  0  0  0  0  0  0  0
  180.1910  174.9990  136.6810 C   0  0  0  0  0  3  0  0  0  0  0  0
  188.1370  178.0650  144.2030 C   0  0  0  0  0  2  0  0  0  0  0  0
  189.1620  177.7460  145.2920 C   0  0  0  0  0  2  0  0  0  0  0  0
  187.1750  177.7020  146.8020 O   0  0  0  0  0  0  0  0  0  0  0  0
  189.1320  176.6820  147.4230 O   0  0  0  0  0  1  0  0  0  0  0  0
  188.4970  177.3470  146.5640 C   0  0  0  0  0  0  0  0  0  0  0  0
  1 21  1  6  0  0  0
  1  3  1  0  0  0  0
  2 34  1  0  0  0  0
  3 22  1  1  0  0  0
  3 36  1  0  0  0  0
  5 28  1  0  0  0  0
  6 35  1  0  0  0  0
  6 19  1  0  0  0  0
  7 15  1  0  0  0  0
 11 32  1  6  0  0  0
 11 39  1  0  0  0  0
 12 11  1  0  0  0  0
 13 30  1  0  0  0  0
 13 33  1  0  0  0  0
 14 38  1  6  0  0  0
 14 27  1  0  0  0  0
 14 23  1  0  0  0  0
 15  6  2  0  0  0  0
 16 13  2  0  0  0  0
 17  1  1  0  0  0  0
 18  8  1  0  0  0  0
 18 22  1  0  0  0  0
 19 26  1  0  0  0  0
 20  4  2  0  0  0  0
 21 29  1  0  0  0  0
 23 34  1  0  0  0  0
 24  2  1  0  0  0  0
 25  5  2  0  0  0  0
 25 15  1  0  0  0  0
 26 17  1  0  0  0  0
 27 10  1  6  0  0  0
 27 20  1  0  0  0  0
 28 33  1  0  0  0  0
 28 35  2  0  0  0  0
 29 12  1  0  0  0  0
 30 24  1  1  0  0  0
 30 14  1  0  0  0  0
 31 20  1  0  0  0  0
 31  8  1  0  0  0  0
 33 10  1  0  0  0  0
 36  9  1  6  0  0  0
 36 11  1  0  0  0  0
 38 37  2  0  0  0  0
 39 40  1  0  0  0  0
 40 43  1  0  0  0  0
 43 41  2  0  0  0  0
 43 42  1  0  0  0  0
M  END
>  <MODEL>
3

>  <REMARK>
 VINA RESULT:      -4.3      3.551      5.448
  Name = 
  4 active torsions:
  status: ('A' for Active; 'I' for Inactive)
    1  A    between atoms: C_7  and  C_11
    2  A    between atoms: C_7  and  C_37
    3  A    between atoms: C_11  and  C_16
    4  A    between atoms: C_19  and  C_28
                            x       y       z     vdW  Elec       q    Type
                         _______ _______ _______ _____ _____    ______ ____

>  <TORSDO>
F 4

$$$$
