=
 OpenBabel11062413113D

 42 46  0  0  1  0  0  0  0  0999 V2000
  186.4830  178.1810  142.8590 C   0  0  0  0  0  2  0  0  0  0  0  0
  185.2500  177.9560  143.7460 C   0  0  2  0  0  3  0  0  0  0  0  0
  183.6910  178.9610  142.0300 C   0  0  0  0  0  2  0  0  0  0  0  0
  186.1390  178.7060  141.4570 C   0  0  0  0  0  2  0  0  0  0  0  0
  184.1920  179.0210  143.4790 C   0  0  0  0  0  2  0  0  0  0  0  0
  184.7060  178.3380  141.0550 C   0  0  2  0  0  3  0  0  0  0  0  0
  185.0750  177.7260  138.6250 C   0  0  0  0  0  2  0  0  0  0  0  0
  178.9310  182.4430  137.7030 O   0  0  0  0  0  1  0  0  0  0  0  0
  179.0120  181.1270  135.2210 C   0  0  0  0  0  2  0  0  0  0  0  0
  181.0790  179.8010  135.8910 C   0  0  0  0  0  2  0  0  0  0  0  0
  181.4930  176.4190  137.3680 O   0  0  0  0  0  1  0  0  0  0  0  0
  181.9060  177.6570  136.8760 C   0  0  2  0  0  3  0  0  0  0  0  0
  180.2080  182.0680  135.1200 C   0  0  0  0  0  2  0  0  0  0  0  0
  182.3160  177.2990  139.9050 C   0  0  0  0  0  1  0  0  0  0  0  0
  182.0730  179.8210  139.4910 C   0  0  1  0  0  3  0  0  0  0  0  0
  182.2870  180.9270  138.4330 C   0  0  0  0  0  2  0  0  0  0  0  0
  180.6030  179.5430  139.8120 C   0  0  0  0  0  1  0  0  0  0  0  0
  180.1710  180.9910  136.1820 C   0  0  0  0  0  0  0  0  0  0  0  0
  181.1950  181.9930  138.3250 C   0  0  0  0  0  2  0  0  0  0  0  0
  184.3870  178.6900  139.5830 C   0  0  1  0  0  0  0  0  0  0  0  0
  179.9310  181.4710  137.6320 C   0  0  1  0  0  3  0  0  0  0  0  0
  183.0810  178.2400  137.6910 C   0  0  1  0  0  3  0  0  0  0  0  0
  180.7240  178.6080  136.7700 C   0  0  0  0  0  2  0  0  0  0  0  0
  182.9090  178.5310  139.1930 C   0  0  1  0  0  0  0  0  0  0  0  0
  184.8560  179.9800  139.3030 O   0  0  0  0  0  1  0  0  0  0  0  0
  184.2560  177.4920  137.5000 O   0  0  0  0  0  0  0  0  0  0  0  0
  185.6310  177.9590  145.2160 C   0  0  0  0  0  2  0  0  0  0  0  0
  185.3130  179.3020  145.8540 C   0  0  0  0  0  2  0  0  0  0  0  0
  186.0000  179.4380  147.0650 O   0  0  0  0  0  0  0  0  0  0  0  0
  186.5420  178.1760  147.3150 C   0  0  0  0  0  2  0  0  0  0  0  0
  187.8860  178.3250  148.0070 C   0  0  0  0  0  2  0  0  0  0  0  0
  192.0460  175.9660  146.8500 C   0  0  0  0  0  1  0  0  0  0  0  0
  190.7910  176.6810  146.7060 N   0  0  0  0  0  0  0  0  0  0  0  0
  190.2050  177.0450  145.5540 C   0  0  0  0  0  0  0  0  0  0  0  0
  190.0480  177.0810  147.7210 N   0  0  0  0  0  0  0  0  0  0  0  0
  189.0200  177.7150  145.8070 C   0  0  0  0  0  3  0  0  0  0  0  0
  188.9660  177.6950  147.1940 C   0  0  0  0  0  0  0  0  0  0  0  0
  190.7580  176.7790  144.2630 N   0  0  0  0  0  2  0  0  0  0  0  0
  189.9380  176.3240  143.1500 C   0  0  0  0  0  2  0  0  0  0  0  0
  189.4300  177.3900  141.0840 O   0  0  0  0  0  0  0  0  0  0  0  0
  190.3170  177.0600  141.9140 C   0  0  0  0  0  0  0  0  0  0  0  0
  191.6450  177.3840  141.6740 O   0  0  0  0  0  1  0  0  0  0  0  0
  1  2  1  0  0  0  0
  2 27  1  1  0  0  0
  3  5  1  0  0  0  0
  4  1  1  0  0  0  0
  5  2  1  0  0  0  0
  6  4  1  1  0  0  0
  6  3  1  0  0  0  0
  7 20  1  0  0  0  0
  9 18  1  0  0  0  0
 10 18  1  0  0  0  0
 10 23  1  0  0  0  0
 12 11  1  1  0  0  0
 12 22  1  0  0  0  0
 13  9  1  0  0  0  0
 13 18  1  0  0  0  0
 15 17  1  6  0  0  0
 16 15  1  0  0  0  0
 18 21  1  0  0  0  0
 19 16  1  0  0  0  0
 20 25  1  6  0  0  0
 20  6  1  0  0  0  0
 21  8  1  6  0  0  0
 21 19  1  0  0  0  0
 22 26  1  1  0  0  0
 22 24  1  0  0  0  0
 23 12  1  0  0  0  0
 24 15  1  0  0  0  0
 24 20  1  0  0  0  0
 24 14  1  1  0  0  0
 26  7  1  0  0  0  0
 27 28  1  0  0  0  0
 28 29  1  0  0  0  0
 29 30  1  0  0  0  0
 30 31  1  0  0  0  0
 33 32  1  0  0  0  0
 33 35  1  0  0  0  0
 34 36  2  0  0  0  0
 34 33  1  0  0  0  0
 36 37  1  0  0  0  0
 37 35  2  0  0  0  0
 37 31  1  0  0  0  0
 38 34  1  0  0  0  0
 39 38  1  0  0  0  0
 40 41  2  0  0  0  0
 41 39  1  0  0  0  0
 42 41  1  0  0  0  0
M  END
>  <MODEL>
1

>  <REMARK>
 VINA RESULT:      -8.8      0.000      0.000
  Name = 
  10 active torsions:
  status: ('A' for Active; 'I' for Inactive)
    1  A    between atoms: C_1  and  N_11
    2  A    between atoms: C_1  and  C_15
    3  A    between atoms: C_4  and  C_18
    4  A    between atoms: C_4  and  C_30
    5  A    between atoms: N_11  and  C_27
    6  A    between atoms: C_16  and  C_17
    7  A    between atoms: C_16  and  C_35
    8  A    between atoms: C_17  and  O_21
    9  A    between atoms: O_21  and  C_30
   10  A    between atoms: C_32  and  C_37
                            x       y       z     vdW  Elec       q    Type
                         _______ _______ _______ _____ _____    ______ ____

>  <TORSDO>
F 10

$$$$
=
 OpenBabel11062413113D

 42 46  0  0  1  0  0  0  0  0999 V2000
  190.0930  176.7110  139.2320 C   0  0  0  0  0  2  0  0  0  0  0  0
  189.5410  176.8170  140.6610 C   0  0  2  0  0  3  0  0  0  0  0  0
  187.5950  178.2510  139.9260 C   0  0  0  0  0  2  0  0  0  0  0  0
  189.1730  177.3410  138.1750 C   0  0  0  0  0  2  0  0  0  0  0  0
  188.8070  178.1390  140.8590 C   0  0  0  0  0  2  0  0  0  0  0  0
  187.7180  177.3920  138.6540 C   0  0  2  0  0  3  0  0  0  0  0  0
  187.4590  178.0570  136.2240 C   0  0  0  0  0  2  0  0  0  0  0  0
  179.9360  176.8420  137.8890 O   0  0  0  0  0  1  0  0  0  0  0  0
  179.8940  176.8830  135.0790 C   0  0  0  0  0  2  0  0  0  0  0  0
  182.3960  177.3380  134.9610 C   0  0  0  0  0  2  0  0  0  0  0  0
  185.3200  175.0770  134.5940 O   0  0  0  0  0  1  0  0  0  0  0  0
  184.6590  176.2950  134.7540 C   0  0  2  0  0  3  0  0  0  0  0  0
  180.1050  178.3550  135.4160 C   0  0  0  0  0  2  0  0  0  0  0  0
  186.2790  175.4000  137.2130 C   0  0  0  0  0  1  0  0  0  0  0  0
  184.3970  176.9130  138.0860 C   0  0  1  0  0  3  0  0  0  0  0  0
  183.4720  178.0870  137.6940 C   0  0  0  0  0  2  0  0  0  0  0  0
  183.6670  175.5810  138.2730 C   0  0  0  0  0  1  0  0  0  0  0  0
  181.1360  177.3250  135.8190 C   0  0  0  0  0  0  0  0  0  0  0  0
  182.0150  177.9940  138.1490 C   0  0  0  0  0  2  0  0  0  0  0  0
  186.7370  177.8500  137.5500 C   0  0  1  0  0  0  0  0  0  0  0  0
  181.2060  176.9840  137.3260 C   0  0  1  0  0  3  0  0  0  0  0  0
  185.4140  177.2380  135.7160 C   0  0  1  0  0  3  0  0  0  0  0  0
  183.2110  176.0650  135.1580 C   0  0  0  0  0  2  0  0  0  0  0  0
  185.6660  176.8140  137.1730 C   0  0  1  0  0  0  0  0  0  0  0  0
  186.1610  179.0720  137.9190 O   0  0  0  0  0  1  0  0  0  0  0  0
  186.6220  177.6840  135.1510 O   0  0  0  0  0  0  0  0  0  0  0  0
  190.6560  176.6820  141.6830 C   0  0  0  0  0  2  0  0  0  0  0  0
  191.1030  178.0490  142.1790 C   0  0  0  0  0  2  0  0  0  0  0  0
  191.6360  177.9470  143.4680 O   0  0  0  0  0  0  0  0  0  0  0  0
  191.3170  176.6550  143.8890 C   0  0  0  0  0  2  0  0  0  0  0  0
  191.3970  176.5760  145.4030 C   0  0  0  0  0  2  0  0  0  0  0  0
  188.1160  177.9170  148.8160 C   0  0  0  0  0  1  0  0  0  0  0  0
  188.7120  177.6470  147.5200 N   0  0  0  0  0  0  0  0  0  0  0  0
  188.1240  177.7910  146.3220 C   0  0  0  0  0  0  0  0  0  0  0  0
  189.9440  177.2030  147.3520 N   0  0  0  0  0  0  0  0  0  0  0  0
  188.9980  177.4320  145.3100 C   0  0  0  0  0  3  0  0  0  0  0  0
  190.1380  177.0820  146.0210 C   0  0  0  0  0  0  0  0  0  0  0  0
  186.7780  178.2400  146.1480 N   0  0  0  0  0  2  0  0  0  0  0  0
  186.1000  178.1660  144.8630 C   0  0  0  0  0  2  0  0  0  0  0  0
  184.1550  178.9500  145.9890 O   0  0  0  0  0  1  0  0  0  0  0  0
  184.8260  178.9320  144.9230 C   0  0  0  0  0  0  0  0  0  0  0  0
  184.3750  179.6260  143.8100 O   0  0  0  0  0  0  0  0  0  0  0  0
  1  2  1  0  0  0  0
  2  5  1  0  0  0  0
  2 27  1  1  0  0  0
  3  5  1  0  0  0  0
  4  1  1  0  0  0  0
  6  4  1  6  0  0  0
  6  3  1  0  0  0  0
  7 20  1  0  0  0  0
  9 13  1  0  0  0  0
  9 18  1  0  0  0  0
 10 23  1  0  0  0  0
 10 18  1  0  0  0  0
 12 11  1  1  0  0  0
 12 23  1  0  0  0  0
 12 22  1  0  0  0  0
 13 18  1  0  0  0  0
 15 17  1  6  0  0  0
 16 15  1  0  0  0  0
 16 19  1  0  0  0  0
 18 21  1  0  0  0  0
 20 25  1  1  0  0  0
 20  6  1  0  0  0  0
 21  8  1  1  0  0  0
 21 19  1  0  0  0  0
 22 26  1  6  0  0  0
 22 24  1  0  0  0  0
 24 14  1  1  0  0  0
 24 20  1  0  0  0  0
 24 15  1  0  0  0  0
 26  7  1  0  0  0  0
 27 28  1  0  0  0  0
 28 29  1  0  0  0  0
 29 30  1  0  0  0  0
 30 31  1  0  0  0  0
 31 37  1  0  0  0  0
 33 32  1  0  0  0  0
 34 33  1  0  0  0  0
 35 33  1  0  0  0  0
 36 37  1  0  0  0  0
 36 34  2  0  0  0  0
 37 35  2  0  0  0  0
 38 34  1  0  0  0  0
 39 41  1  0  0  0  0
 39 38  1  0  0  0  0
 41 40  1  0  0  0  0
 42 41  2  0  0  0  0
M  END
>  <MODEL>
2

>  <REMARK>
 VINA RESULT:      -8.0      2.316      4.631
  Name = 
  10 active torsions:
  status: ('A' for Active; 'I' for Inactive)
    1  A    between atoms: C_1  and  N_11
    2  A    between atoms: C_1  and  C_15
    3  A    between atoms: C_4  and  C_18
    4  A    between atoms: C_4  and  C_30
    5  A    between atoms: N_11  and  C_27
    6  A    between atoms: C_16  and  C_17
    7  A    between atoms: C_16  and  C_35
    8  A    between atoms: C_17  and  O_21
    9  A    between atoms: O_21  and  C_30
   10  A    between atoms: C_32  and  C_37
                            x       y       z     vdW  Elec       q    Type
                         _______ _______ _______ _____ _____    ______ ____

>  <TORSDO>
F 10

$$$$
=
 OpenBabel11062413113D

 42 46  0  0  1  0  0  0  0  0999 V2000
  183.1830  179.1680  144.5390 C   0  0  0  0  0  2  0  0  0  0  0  0
  184.5780  179.1990  143.8990 C   0  0  2  0  0  3  0  0  0  0  0  0
  183.7340  178.2050  141.7360 C   0  0  0  0  0  2  0  0  0  0  0  0
  182.0750  178.7360  143.5660 C   0  0  0  0  0  2  0  0  0  0  0  0
  184.7350  178.0670  142.8900 C   0  0  0  0  0  2  0  0  0  0  0  0
  182.4710  179.0020  142.1100 C   0  0  2  0  0  3  0  0  0  0  0  0
  180.3490  179.9300  141.0860 C   0  0  0  0  0  2  0  0  0  0  0  0
  181.6770  174.1920  135.9720 O   0  0  0  0  0  1  0  0  0  0  0  0
  179.7890  175.7520  134.5940 C   0  0  0  0  0  2  0  0  0  0  0  0
  179.5960  177.3900  136.5330 C   0  0  0  0  0  2  0  0  0  0  0  0
  181.3030  180.6100  137.2470 O   0  0  0  0  0  1  0  0  0  0  0  0
  180.4410  179.5410  137.4890 C   0  0  2  0  0  3  0  0  0  0  0  0
  178.9310  175.0890  135.6660 C   0  0  0  0  0  2  0  0  0  0  0  0
  182.8770  179.6520  139.3660 C   0  0  0  0  0  1  0  0  0  0  0  0
  182.1550  177.1910  139.2470 C   0  0  1  0  0  3  0  0  0  0  0  0
  180.9370  176.2700  139.0100 C   0  0  0  0  0  2  0  0  0  0  0  0
  183.2060  177.1300  138.1360 C   0  0  0  0  0  1  0  0  0  0  0  0
  180.0580  176.0170  136.0580 C   0  0  0  0  0  0  0  0  0  0  0  0
  181.1760  175.0220  138.1570 C   0  0  0  0  0  2  0  0  0  0  0  0
  181.3120  178.7510  141.1170 C   0  0  1  0  0  0  0  0  0  0  0  0
  181.3130  175.3490  136.6650 C   0  0  1  0  0  3  0  0  0  0  0  0
  180.4400  179.1250  138.9750 C   0  0  1  0  0  3  0  0  0  0  0  0
  180.7490  178.3870  136.5470 C   0  0  0  0  0  2  0  0  0  0  0  0
  181.7410  178.6480  139.6440 C   0  0  1  0  0  0  0  0  0  0  0  0
  180.5930  177.6200  141.5220 O   0  0  0  0  0  1  0  0  0  0  0  0
  179.8440  180.1110  139.7810 O   0  0  0  0  0  0  0  0  0  0  0  0
  185.6630  179.1050  144.9580 C   0  0  0  0  0  2  0  0  0  0  0  0
  185.1870  178.2850  146.1470 C   0  0  0  0  0  2  0  0  0  0  0  0
  185.5220  178.9280  147.3450 O   0  0  0  0  0  0  0  0  0  0  0  0
  186.9160  179.0000  147.3370 C   0  0  0  0  0  2  0  0  0  0  0  0
  187.4970  177.7120  147.8930 C   0  0  0  0  0  2  0  0  0  0  0  0
  192.0380  176.0610  146.9670 C   0  0  0  0  0  1  0  0  0  0  0  0
  190.7150  176.6200  146.7590 N   0  0  0  0  0  0  0  0  0  0  0  0
  190.1980  177.0410  145.5930 C   0  0  0  0  0  0  0  0  0  0  0  0
  189.8290  176.7980  147.7210 N   0  0  0  0  0  0  0  0  0  0  0  0
  188.9120  177.5180  145.7810 C   0  0  0  0  0  3  0  0  0  0  0  0
  188.7280  177.3270  147.1440 C   0  0  0  0  0  0  0  0  0  0  0  0
  190.9050  177.0030  144.3510 N   0  0  0  0  0  2  0  0  0  0  0  0
  190.4400  176.2120  143.2220 C   0  0  0  0  0  2  0  0  0  0  0  0
  189.8440  176.7020  140.9700 O   0  0  0  0  0  0  0  0  0  0  0  0
  189.9240  177.1140  142.1570 C   0  0  0  0  0  0  0  0  0  0  0  0
  189.5300  178.4070  142.4680 O   0  0  0  0  0  1  0  0  0  0  0  0
  2  1  1  0  0  0  0
  2 27  1  1  0  0  0
  3  5  1  0  0  0  0
  4  1  1  0  0  0  0
  5  2  1  0  0  0  0
  6  3  1  6  0  0  0
  6  4  1  0  0  0  0
  7 20  1  0  0  0  0
  9 13  1  0  0  0  0
  9 18  1  0  0  0  0
 10 23  1  0  0  0  0
 12 11  1  1  0  0  0
 12 22  1  0  0  0  0
 13 18  1  0  0  0  0
 15 17  1  6  0  0  0
 15 24  1  0  0  0  0
 16 15  1  0  0  0  0
 18 10  1  0  0  0  0
 18 21  1  0  0  0  0
 19 16  1  0  0  0  0
 20 25  1  1  0  0  0
 20  6  1  0  0  0  0
 21  8  1  6  0  0  0
 21 19  1  0  0  0  0
 22 24  1  0  0  0  0
 22 26  1  1  0  0  0
 23 12  1  0  0  0  0
 24 14  1  6  0  0  0
 24 20  1  0  0  0  0
 26  7  1  0  0  0  0
 27 28  1  0  0  0  0
 28 29  1  0  0  0  0
 30 29  1  0  0  0  0
 30 31  1  0  0  0  0
 33 32  1  0  0  0  0
 33 35  1  0  0  0  0
 34 36  2  0  0  0  0
 34 33  1  0  0  0  0
 36 37  1  0  0  0  0
 37 35  2  0  0  0  0
 37 31  1  0  0  0  0
 38 34  1  0  0  0  0
 39 38  1  0  0  0  0
 40 41  2  0  0  0  0
 41 42  1  0  0  0  0
 41 39  1  0  0  0  0
M  END
>  <MODEL>
3

>  <REMARK>
 VINA RESULT:      -7.7      1.791      3.560
  Name = 
  10 active torsions:
  status: ('A' for Active; 'I' for Inactive)
    1  A    between atoms: C_1  and  N_11
    2  A    between atoms: C_1  and  C_15
    3  A    between atoms: C_4  and  C_18
    4  A    between atoms: C_4  and  C_30
    5  A    between atoms: N_11  and  C_27
    6  A    between atoms: C_16  and  C_17
    7  A    between atoms: C_16  and  C_35
    8  A    between atoms: C_17  and  O_21
    9  A    between atoms: O_21  and  C_30
   10  A    between atoms: C_32  and  C_37
                            x       y       z     vdW  Elec       q    Type
                         _______ _______ _______ _____ _____    ______ ____

>  <TORSDO>
F 10

$$$$
=
 OpenBabel11062413113D

 42 46  0  0  1  0  0  0  0  0999 V2000
  186.0360  178.2080  143.1980 C   0  0  0  0  0  2  0  0  0  0  0  0
  184.7620  178.2610  144.0530 C   0  0  2  0  0  3  0  0  0  0  0  0
  183.4310  179.3570  142.2060 C   0  0  0  0  0  2  0  0  0  0  0  0
  185.8170  178.6620  141.7470 C   0  0  0  0  0  2  0  0  0  0  0  0
  183.9000  179.4570  143.6640 C   0  0  0  0  0  2  0  0  0  0  0  0
  184.3530  178.4980  141.3220 C   0  0  2  0  0  3  0  0  0  0  0  0
  184.8380  177.7310  138.9580 C   0  0  0  0  0  2  0  0  0  0  0  0
  178.9310  182.5840  137.4030 O   0  0  0  0  0  1  0  0  0  0  0  0
  179.1070  181.1210  135.0100 C   0  0  0  0  0  2  0  0  0  0  0  0
  181.0830  179.7700  135.8770 C   0  0  0  0  0  2  0  0  0  0  0  0
  181.2890  176.4700  137.5680 O   0  0  0  0  0  1  0  0  0  0  0  0
  181.7740  177.6630  137.0310 C   0  0  2  0  0  3  0  0  0  0  0  0
  180.3400  182.0140  134.9270 C   0  0  0  0  0  2  0  0  0  0  0  0
  181.9960  177.4720  140.0940 C   0  0  0  0  0  1  0  0  0  0  0  0
  181.8690  179.9710  139.5230 C   0  0  1  0  0  3  0  0  0  0  0  0
  182.1830  181.0050  138.4170 C   0  0  0  0  0  2  0  0  0  0  0  0
  180.3740  179.7610  139.7710 C   0  0  0  0  0  1  0  0  0  0  0  0
  180.2030  181.0050  136.0440 C   0  0  0  0  0  0  0  0  0  0  0  0
  181.1380  182.0970  138.1840 C   0  0  0  0  0  2  0  0  0  0  0  0
  184.1310  178.7720  139.8160 C   0  0  1  0  0  0  0  0  0  0  0  0
  179.8990  181.5770  137.4480 C   0  0  1  0  0  3  0  0  0  0  0  0
  182.9200  178.2530  137.8790 C   0  0  1  0  0  3  0  0  0  0  0  0
  180.6350  178.6440  136.8000 C   0  0  0  0  0  2  0  0  0  0  0  0
  182.6730  178.6390  139.3480 C   0  0  1  0  0  0  0  0  0  0  0  0
  184.6620  180.0270  139.4910 O   0  0  0  0  0  1  0  0  0  0  0  0
  184.0770  177.4580  137.8010 O   0  0  0  0  0  0  0  0  0  0  0  0
  185.1020  178.3250  145.5320 C   0  0  0  0  0  2  0  0  0  0  0  0
  186.4030  177.5930  145.8190 C   0  0  0  0  0  2  0  0  0  0  0  0
  187.3690  178.4870  146.2930 O   0  0  0  0  0  0  0  0  0  0  0  0
  188.5930  177.9140  145.9410 C   0  0  0  0  0  2  0  0  0  0  0  0
  188.3550  176.7160  145.0390 C   0  0  0  0  0  2  0  0  0  0  0  0
  192.2530  177.6440  142.1830 C   0  0  0  0  0  1  0  0  0  0  0  0
  190.9310  177.2120  142.5980 N   0  0  0  0  0  0  0  0  0  0  0  0
  189.9740  176.6920  141.8120 C   0  0  0  0  0  0  0  0  0  0  0  0
  190.4870  177.2840  143.8390 N   0  0  0  0  0  0  0  0  0  0  0  0
  188.8440  176.4030  142.5570 C   0  0  0  0  0  3  0  0  0  0  0  0
  189.2310  176.7860  143.8340 C   0  0  0  0  0  0  0  0  0  0  0  0
  190.1260  176.4930  140.4050 N   0  0  0  0  0  2  0  0  0  0  0  0
  190.0510  177.5940  139.4570 C   0  0  0  0  0  2  0  0  0  0  0  0
  189.0580  176.1080  137.8860 O   0  0  0  0  0  0  0  0  0  0  0  0
  189.0770  177.2650  138.3810 C   0  0  0  0  0  0  0  0  0  0  0  0
  188.1920  178.2290  137.9230 O   0  0  0  0  0  1  0  0  0  0  0  0
  1  2  1  0  0  0  0
  2 27  1  1  0  0  0
  3  5  1  0  0  0  0
  4  1  1  0  0  0  0
  5  2  1  0  0  0  0
  6  4  1  1  0  0  0
  6  3  1  0  0  0  0
  7 20  1  0  0  0  0
  9 18  1  0  0  0  0
 10 18  1  0  0  0  0
 10 23  1  0  0  0  0
 12 11  1  1  0  0  0
 12 22  1  0  0  0  0
 13  9  1  0  0  0  0
 13 18  1  0  0  0  0
 15 17  1  6  0  0  0
 16 15  1  0  0  0  0
 18 21  1  0  0  0  0
 19 16  1  0  0  0  0
 20 25  1  6  0  0  0
 20  6  1  0  0  0  0
 21  8  1  6  0  0  0
 21 19  1  0  0  0  0
 22 26  1  1  0  0  0
 22 24  1  0  0  0  0
 23 12  1  0  0  0  0
 24 15  1  0  0  0  0
 24 20  1  0  0  0  0
 24 14  1  1  0  0  0
 26  7  1  0  0  0  0
 27 28  1  0  0  0  0
 28 29  1  0  0  0  0
 30 29  1  0  0  0  0
 31 30  1  0  0  0  0
 32 33  1  0  0  0  0
 33 35  1  0  0  0  0
 34 36  2  0  0  0  0
 34 33  1  0  0  0  0
 36 37  1  0  0  0  0
 37 35  2  0  0  0  0
 37 31  1  0  0  0  0
 38 34  1  0  0  0  0
 39 38  1  0  0  0  0
 40 41  2  0  0  0  0
 41 39  1  0  0  0  0
 42 41  1  0  0  0  0
M  END
>  <MODEL>
4

>  <REMARK>
 VINA RESULT:      -7.4      1.530      2.226
  Name = 
  10 active torsions:
  status: ('A' for Active; 'I' for Inactive)
    1  A    between atoms: C_1  and  N_11
    2  A    between atoms: C_1  and  C_15
    3  A    between atoms: C_4  and  C_18
    4  A    between atoms: C_4  and  C_30
    5  A    between atoms: N_11  and  C_27
    6  A    between atoms: C_16  and  C_17
    7  A    between atoms: C_16  and  C_35
    8  A    between atoms: C_17  and  O_21
    9  A    between atoms: O_21  and  C_30
   10  A    between atoms: C_32  and  C_37
                            x       y       z     vdW  Elec       q    Type
                         _______ _______ _______ _____ _____    ______ ____

>  <TORSDO>
F 10

$$$$
=
 OpenBabel11062413113D

 42 46  0  0  1  0  0  0  0  0999 V2000
  182.5580  178.4890  138.8410 C   0  0  0  0  0  2  0  0  0  0  0  0
  182.3750  177.4170  139.9250 C   0  0  2  0  0  3  0  0  0  0  0  0
  183.2980  175.5940  138.4390 C   0  0  0  0  0  2  0  0  0  0  0  0
  183.2870  177.9750  137.5900 C   0  0  0  0  0  2  0  0  0  0  0  0
  182.1110  176.0530  139.2950 C   0  0  0  0  0  2  0  0  0  0  0  0
  184.1590  176.7550  137.9100 C   0  0  2  0  0  3  0  0  0  0  0  0
  184.5920  176.9880  135.4250 C   0  0  0  0  0  2  0  0  0  0  0  0
  191.3820  173.7420  137.4740 O   0  0  0  0  0  1  0  0  0  0  0  0
  191.9730  174.7150  134.9050 C   0  0  0  0  0  2  0  0  0  0  0  0
  189.6040  175.5960  134.5970 C   0  0  0  0  0  2  0  0  0  0  0  0
  188.0950  178.9350  135.1980 O   0  0  0  0  0  1  0  0  0  0  0  0
  188.1130  177.5880  134.8370 C   0  0  2  0  0  3  0  0  0  0  0  0
  191.0800  173.5190  134.5940 C   0  0  0  0  0  2  0  0  0  0  0  0
  186.5800  178.1810  137.4390 C   0  0  0  0  0  1  0  0  0  0  0  0
  187.3970  175.7530  137.6060 C   0  0  1  0  0  3  0  0  0  0  0  0
  187.7780  174.5160  136.7630 C   0  0  0  0  0  2  0  0  0  0  0  0
  188.5780  176.3970  138.3350 C   0  0  0  0  0  1  0  0  0  0  0  0
  190.5410  174.6870  135.3870 C   0  0  0  0  0  0  0  0  0  0  0  0
  189.0050  173.7250  137.2210 C   0  0  0  0  0  2  0  0  0  0  0  0
  185.0450  176.3230  136.7180 C   0  0  1  0  0  0  0  0  0  0  0  0
  190.3210  174.4430  136.8980 C   0  0  1  0  0  3  0  0  0  0  0  0
  186.8460  176.8460  135.3130 C   0  0  1  0  0  3  0  0  0  0  0  0
  189.4010  176.9300  135.3050 C   0  0  0  0  0  2  0  0  0  0  0  0
  186.5120  176.7740  136.8140 C   0  0  1  0  0  0  0  0  0  0  0  0
  184.9450  174.9370  136.5450 O   0  0  0  0  0  1  0  0  0  0  0  0
  185.7070  177.2760  134.6090 O   0  0  0  0  0  0  0  0  0  0  0  0
  181.2400  177.7840  140.8640 C   0  0  0  0  0  2  0  0  0  0  0  0
  181.4960  179.1310  141.5220 C   0  0  0  0  0  2  0  0  0  0  0  0
  181.5790  178.9850  142.9110 O   0  0  0  0  0  0  0  0  0  0  0  0
  182.9460  178.9290  143.1860 C   0  0  0  0  0  2  0  0  0  0  0  0
  183.1720  179.0670  144.6810 C   0  0  0  0  0  2  0  0  0  0  0  0
  187.1690  178.0800  147.3770 C   0  0  0  0  0  1  0  0  0  0  0  0
  186.2820  178.1950  146.2330 N   0  0  0  0  0  0  0  0  0  0  0  0
  186.5670  177.8700  144.9620 C   0  0  0  0  0  0  0  0  0  0  0  0
  185.0470  178.6560  146.3010 N   0  0  0  0  0  0  0  0  0  0  0  0
  185.4780  178.1210  144.1450 C   0  0  0  0  0  3  0  0  0  0  0  0
  184.5410  178.6040  145.0490 C   0  0  0  0  0  0  0  0  0  0  0  0
  187.8320  177.3550  144.5400 N   0  0  0  0  0  2  0  0  0  0  0  0
  187.9800  176.5820  143.3160 C   0  0  0  0  0  2  0  0  0  0  0  0
  187.9390  178.3420  141.7150 O   0  0  0  0  0  0  0  0  0  0  0  0
  188.6060  177.4250  142.2630 C   0  0  0  0  0  0  0  0  0  0  0  0
  189.9220  177.2050  141.8830 O   0  0  0  0  0  1  0  0  0  0  0  0
  1  2  1  0  0  0  0
  2 27  1  1  0  0  0
  3  5  1  0  0  0  0
  4  1  1  0  0  0  0
  5  2  1  0  0  0  0
  6  4  1  6  0  0  0
  6  3  1  0  0  0  0
  7 20  1  0  0  0  0
  9 18  1  0  0  0  0
 10 23  1  0  0  0  0
 10 18  1  0  0  0  0
 12 11  1  1  0  0  0
 12 23  1  0  0  0  0
 12 22  1  0  0  0  0
 13  9  1  0  0  0  0
 13 18  1  0  0  0  0
 15 17  1  6  0  0  0
 16 19  1  0  0  0  0
 16 15  1  0  0  0  0
 18 21  1  0  0  0  0
 20 25  1  6  0  0  0
 20 24  1  0  0  0  0
 20  6  1  0  0  0  0
 21 19  1  0  0  0  0
 21  8  1  6  0  0  0
 22 26  1  6  0  0  0
 22 24  1  0  0  0  0
 24 14  1  1  0  0  0
 24 15  1  0  0  0  0
 26  7  1  0  0  0  0
 27 28  1  0  0  0  0
 28 29  1  0  0  0  0
 29 30  1  0  0  0  0
 30 31  1  0  0  0  0
 31 37  1  0  0  0  0
 33 35  1  0  0  0  0
 33 32  1  0  0  0  0
 34 33  1  0  0  0  0
 36 34  2  0  0  0  0
 36 37  1  0  0  0  0
 37 35  2  0  0  0  0
 38 34  1  0  0  0  0
 39 38  1  0  0  0  0
 40 41  2  0  0  0  0
 41 39  1  0  0  0  0
 42 41  1  0  0  0  0
M  END
>  <MODEL>
5

>  <REMARK>
 VINA RESULT:      -7.0      3.797      7.156
  Name = 
  10 active torsions:
  status: ('A' for Active; 'I' for Inactive)
    1  A    between atoms: C_1  and  N_11
    2  A    between atoms: C_1  and  C_15
    3  A    between atoms: C_4  and  C_18
    4  A    between atoms: C_4  and  C_30
    5  A    between atoms: N_11  and  C_27
    6  A    between atoms: C_16  and  C_17
    7  A    between atoms: C_16  and  C_35
    8  A    between atoms: C_17  and  O_21
    9  A    between atoms: O_21  and  C_30
   10  A    between atoms: C_32  and  C_37
                            x       y       z     vdW  Elec       q    Type
                         _______ _______ _______ _____ _____    ______ ____

>  <TORSDO>
F 10

$$$$
=
 OpenBabel11062413113D

 42 46  0  0  1  0  0  0  0  0999 V2000
  185.1630  178.7140  143.2980 C   0  0  0  0  0  2  0  0  0  0  0  0
  184.6760  178.3050  144.6960 C   0  0  2  0  0  3  0  0  0  0  0  0
  182.2610  178.7670  144.1140 C   0  0  0  0  0  2  0  0  0  0  0  0
  184.0200  179.0110  142.3160 C   0  0  0  0  0  2  0  0  0  0  0  0
  183.4160  179.0770  145.0750 C   0  0  0  0  0  2  0  0  0  0  0  0
  182.7270  178.2960  142.7250 C   0  0  2  0  0  3  0  0  0  0  0  0
  180.8930  179.7630  141.7790 C   0  0  0  0  0  2  0  0  0  0  0  0
  181.4300  174.6650  135.9000 O   0  0  0  0  0  1  0  0  0  0  0  0
  179.9690  176.7500  134.7090 C   0  0  0  0  0  2  0  0  0  0  0  0
  179.9670  178.1000  136.8680 C   0  0  0  0  0  2  0  0  0  0  0  0
  182.2090  180.7800  138.1260 O   0  0  0  0  0  1  0  0  0  0  0  0
  181.1440  179.8800  138.1700 C   0  0  2  0  0  3  0  0  0  0  0  0
  178.9320  176.1240  135.6360 C   0  0  0  0  0  2  0  0  0  0  0  0
  183.4290  179.2360  140.1280 C   0  0  0  0  0  1  0  0  0  0  0  0
  182.2580  177.0110  139.6090 C   0  0  1  0  0  3  0  0  0  0  0  0
  180.9040  176.3930  139.1910 C   0  0  0  0  0  2  0  0  0  0  0  0
  183.3490  176.9010  138.5410 C   0  0  0  0  0  1  0  0  0  0  0  0
  180.1880  176.7440  136.2050 C   0  0  0  0  0  0  0  0  0  0  0  0
  180.9550  175.2580  138.1670 C   0  0  0  0  0  2  0  0  0  0  0  0
  181.6090  178.4240  141.6640 C   0  0  1  0  0  0  0  0  0  0  0  0
  181.2490  175.7600  136.7490 C   0  0  1  0  0  3  0  0  0  0  0  0
  180.9660  179.2660  139.5750 C   0  0  1  0  0  3  0  0  0  0  0  0
  181.2860  178.8350  137.0750 C   0  0  0  0  0  2  0  0  0  0  0  0
  182.1050  178.4490  140.2100 C   0  0  1  0  0  0  0  0  0  0  0  0
  180.6610  177.4120  141.8660 O   0  0  0  0  0  1  0  0  0  0  0  0
  180.5180  180.2260  140.4990 O   0  0  0  0  0  0  0  0  0  0  0  0
  185.7580  178.5350  145.7360 C   0  0  0  0  0  2  0  0  0  0  0  0
  186.8150  177.4440  145.6660 C   0  0  0  0  0  2  0  0  0  0  0  0
  188.0310  177.9120  146.1760 O   0  0  0  0  0  0  0  0  0  0  0  0
  188.9530  177.7130  145.1470 C   0  0  0  0  0  2  0  0  0  0  0  0
  188.3190  176.8790  144.0480 C   0  0  0  0  0  2  0  0  0  0  0  0
  191.8440  177.4970  140.6710 C   0  0  0  0  0  1  0  0  0  0  0  0
  190.5290  177.4310  141.2820 N   0  0  0  0  0  0  0  0  0  0  0  0
  189.3540  177.6860  140.6840 C   0  0  0  0  0  0  0  0  0  0  0  0
  190.3170  177.1100  142.5450 N   0  0  0  0  0  0  0  0  0  0  0  0
  188.3130  177.5260  141.5820 C   0  0  0  0  0  3  0  0  0  0  0  0
  188.9810  177.1480  142.7390 C   0  0  0  0  0  0  0  0  0  0  0  0
  189.2290  178.0790  139.3150 N   0  0  0  0  0  2  0  0  0  0  0  0
  188.5540  177.2460  138.3320 C   0  0  0  0  0  2  0  0  0  0  0  0
  187.4740  178.1550  136.4160 O   0  0  0  0  0  0  0  0  0  0  0  0
  187.4760  178.0270  137.6690 C   0  0  0  0  0  0  0  0  0  0  0  0
  186.4740  178.6160  138.4260 O   0  0  0  0  0  1  0  0  0  0  0  0
  1  2  1  0  0  0  0
  2  5  1  0  0  0  0
  2 27  1  1  0  0  0
  3  5  1  0  0  0  0
  4  1  1  0  0  0  0
  6  4  1  6  0  0  0
  6  3  1  0  0  0  0
  9 13  1  0  0  0  0
  9 18  1  0  0  0  0
 10 23  1  0  0  0  0
 12 11  1  1  0  0  0
 12 22  1  0  0  0  0
 13 18  1  0  0  0  0
 15 17  1  6  0  0  0
 15 24  1  0  0  0  0
 16 15  1  0  0  0  0
 18 21  1  0  0  0  0
 18 10  1  0  0  0  0
 19 16  1  0  0  0  0
 20  7  1  0  0  0  0
 20 25  1  1  0  0  0
 20  6  1  0  0  0  0
 21  8  1  6  0  0  0
 21 19  1  0  0  0  0
 22 24  1  0  0  0  0
 22 26  1  1  0  0  0
 23 12  1  0  0  0  0
 24 14  1  6  0  0  0
 24 20  1  0  0  0  0
 26  7  1  0  0  0  0
 28 27  1  0  0  0  0
 28 29  1  0  0  0  0
 30 29  1  0  0  0  0
 31 30  1  0  0  0  0
 32 33  1  0  0  0  0
 33 35  1  0  0  0  0
 34 33  1  0  0  0  0
 34 36  2  0  0  0  0
 35 37  2  0  0  0  0
 36 37  1  0  0  0  0
 37 31  1  0  0  0  0
 38 34  1  0  0  0  0
 39 38  1  0  0  0  0
 40 41  2  0  0  0  0
 41 39  1  0  0  0  0
 41 42  1  0  0  0  0
M  END
>  <MODEL>
6

>  <REMARK>
 VINA RESULT:      -6.9      2.431      4.369
  Name = 
  10 active torsions:
  status: ('A' for Active; 'I' for Inactive)
    1  A    between atoms: C_1  and  N_11
    2  A    between atoms: C_1  and  C_15
    3  A    between atoms: C_4  and  C_18
    4  A    between atoms: C_4  and  C_30
    5  A    between atoms: N_11  and  C_27
    6  A    between atoms: C_16  and  C_17
    7  A    between atoms: C_16  and  C_35
    8  A    between atoms: C_17  and  O_21
    9  A    between atoms: O_21  and  C_30
   10  A    between atoms: C_32  and  C_37
                            x       y       z     vdW  Elec       q    Type
                         _______ _______ _______ _____ _____    ______ ____

>  <TORSDO>
F 10

$$$$
=
 OpenBabel11062413113D

 42 46  0  0  1  0  0  0  0  0999 V2000
  189.0500  177.8640  140.8480 C   0  0  0  0  0  2  0  0  0  0  0  0
  190.4960  177.5430  140.4420 C   0  0  2  0  0  3  0  0  0  0  0  0
  189.8250  176.9610  138.0770 C   0  0  0  0  0  2  0  0  0  0  0  0
  188.0630  177.8210  139.6710 C   0  0  0  0  0  2  0  0  0  0  0  0
  190.5270  176.4770  139.3520 C   0  0  0  0  0  2  0  0  0  0  0  0
  188.7730  178.0560  138.3330 C   0  0  2  0  0  3  0  0  0  0  0  0
  188.5320  178.2830  135.8220 C   0  0  0  0  0  2  0  0  0  0  0  0
  181.1550  176.3980  137.5170 O   0  0  0  0  0  1  0  0  0  0  0  0
  181.2210  175.9810  134.7390 C   0  0  0  0  0  2  0  0  0  0  0  0
  183.6510  176.7280  134.5960 C   0  0  0  0  0  2  0  0  0  0  0  0
  186.8430  174.8310  134.6620 O   0  0  0  0  0  1  0  0  0  0  0  0
  186.0320  175.9640  134.6080 C   0  0  2  0  0  3  0  0  0  0  0  0
  181.2360  177.5030  134.8320 C   0  0  0  0  0  2  0  0  0  0  0  0
  187.6490  175.6900  137.2110 C   0  0  0  0  0  1  0  0  0  0  0  0
  185.5620  177.0700  137.7860 C   0  0  1  0  0  3  0  0  0  0  0  0
  184.5160  178.0380  137.1890 C   0  0  0  0  0  2  0  0  0  0  0  0
  184.9940  175.7030  138.1760 C   0  0  0  0  0  1  0  0  0  0  0  0
  182.3680  176.6920  135.4200 C   0  0  0  0  0  0  0  0  0  0  0  0
  183.0640  177.8330  137.6250 C   0  0  0  0  0  2  0  0  0  0  0  0
  187.7880  178.2010  137.1490 C   0  0  1  0  0  0  0  0  0  0  0  0
  182.4190  176.6100  136.9630 C   0  0  1  0  0  3  0  0  0  0  0  0
  186.6250  177.1380  135.4150 C   0  0  1  0  0  3  0  0  0  0  0  0
  184.6080  175.6190  135.0150 C   0  0  0  0  0  2  0  0  0  0  0  0
  186.8690  176.9890  136.9270 C   0  0  1  0  0  0  0  0  0  0  0  0
  187.0520  179.3830  137.3020 O   0  0  0  0  0  1  0  0  0  0  0  0
  187.7910  177.6380  134.8090 O   0  0  0  0  0  0  0  0  0  0  0  0
  191.3060  177.0830  141.6410 C   0  0  0  0  0  2  0  0  0  0  0  0
  190.9390  177.8830  142.8810 C   0  0  0  0  0  2  0  0  0  0  0  0
  190.6680  177.0240  143.9510 O   0  0  0  0  0  0  0  0  0  0  0  0
  190.2140  177.8570  144.9750 C   0  0  0  0  0  2  0  0  0  0  0  0
  189.1350  177.1440  145.7720 C   0  0  0  0  0  2  0  0  0  0  0  0
  184.4540  178.6540  145.9090 C   0  0  0  0  0  1  0  0  0  0  0  0
  185.7360  178.2100  145.3920 N   0  0  0  0  0  0  0  0  0  0  0  0
  186.0520  178.0050  144.1030 C   0  0  0  0  0  0  0  0  0  0  0  0
  186.7830  177.9370  146.1480 N   0  0  0  0  0  0  0  0  0  0  0  0
  187.3640  177.5790  143.9910 C   0  0  0  0  0  3  0  0  0  0  0  0
  187.7800  177.5690  145.3150 C   0  0  0  0  0  0  0  0  0  0  0  0
  185.1360  178.1930  143.0210 N   0  0  0  0  0  2  0  0  0  0  0  0
  185.4300  179.0790  141.9050 C   0  0  0  0  0  2  0  0  0  0  0  0
  184.2980  179.8080  139.9440 O   0  0  0  0  0  0  0  0  0  0  0  0
  184.3540  178.9730  140.8840 C   0  0  0  0  0  0  0  0  0  0  0  0
  183.4130  177.9570  140.9640 O   0  0  0  0  0  1  0  0  0  0  0  0
  2  1  1  0  0  0  0
  2 27  1  1  0  0  0
  3  5  1  0  0  0  0
  4  1  1  0  0  0  0
  5  2  1  0  0  0  0
  6  3  1  6  0  0  0
  6  4  1  0  0  0  0
  7 20  1  0  0  0  0
  9 13  1  0  0  0  0
  9 18  1  0  0  0  0
 10 23  1  0  0  0  0
 10 18  1  0  0  0  0
 12 11  1  1  0  0  0
 12 23  1  0  0  0  0
 12 22  1  0  0  0  0
 13 18  1  0  0  0  0
 15 17  1  6  0  0  0
 16 19  1  0  0  0  0
 16 15  1  0  0  0  0
 18 21  1  0  0  0  0
 20 25  1  1  0  0  0
 20  6  1  0  0  0  0
 21  8  1  1  0  0  0
 21 19  1  0  0  0  0
 22 26  1  6  0  0  0
 22 24  1  0  0  0  0
 24 20  1  0  0  0  0
 24 14  1  1  0  0  0
 24 15  1  0  0  0  0
 26  7  1  0  0  0  0
 27 28  1  0  0  0  0
 28 29  1  0  0  0  0
 29 30  1  0  0  0  0
 30 31  1  0  0  0  0
 33 32  1  0  0  0  0
 33 35  1  0  0  0  0
 34 33  1  0  0  0  0
 36 34  2  0  0  0  0
 36 37  1  0  0  0  0
 37 31  1  0  0  0  0
 37 35  2  0  0  0  0
 38 34  1  0  0  0  0
 39 38  1  0  0  0  0
 40 41  2  0  0  0  0
 41 42  1  0  0  0  0
 41 39  1  0  0  0  0
M  END
>  <MODEL>
7

>  <REMARK>
 VINA RESULT:      -6.3      2.930      5.351
  Name = 
  10 active torsions:
  status: ('A' for Active; 'I' for Inactive)
    1  A    between atoms: C_1  and  N_11
    2  A    between atoms: C_1  and  C_15
    3  A    between atoms: C_4  and  C_18
    4  A    between atoms: C_4  and  C_30
    5  A    between atoms: N_11  and  C_27
    6  A    between atoms: C_16  and  C_17
    7  A    between atoms: C_16  and  C_35
    8  A    between atoms: C_17  and  O_21
    9  A    between atoms: O_21  and  C_30
   10  A    between atoms: C_32  and  C_37
                            x       y       z     vdW  Elec       q    Type
                         _______ _______ _______ _____ _____    ______ ____

>  <TORSDO>
F 10

$$$$
=
 OpenBabel11062413113D

 42 46  0  0  1  0  0  0  0  0999 V2000
  182.1050  178.6460  143.8090 C   0  0  0  0  0  2  0  0  0  0  0  0
  183.5810  179.0710  143.8090 C   0  0  2  0  0  3  0  0  0  0  0  0
  183.8300  178.6160  141.3360 C   0  0  0  0  0  2  0  0  0  0  0  0
  181.5570  178.3460  142.4060 C   0  0  0  0  0  2  0  0  0  0  0  0
  184.3610  178.3100  142.7430 C   0  0  0  0  0  2  0  0  0  0  0  0
  182.3600  179.0730  141.3210 C   0  0  2  0  0  3  0  0  0  0  0  0
  182.0440  180.1550  139.0530 C   0  0  0  0  0  2  0  0  0  0  0  0
  179.8300  172.9120  137.1870 O   0  0  0  0  0  1  0  0  0  0  0  0
  180.2250  174.0550  134.6490 C   0  0  0  0  0  2  0  0  0  0  0  0
  180.8460  176.3060  135.6630 C   0  0  0  0  0  2  0  0  0  0  0  0
  184.1220  177.8220  136.5330 O   0  0  0  0  0  1  0  0  0  0  0  0
  182.7330  177.7540  136.4340 C   0  0  2  0  0  3  0  0  0  0  0  0
  178.9310  174.7230  135.1010 C   0  0  0  0  0  2  0  0  0  0  0  0
  183.8020  177.6500  139.3180 C   0  0  0  0  0  1  0  0  0  0  0  0
  181.5390  176.4380  139.3300 C   0  0  1  0  0  3  0  0  0  0  0  0
  180.1700  176.3670  138.6170 C   0  0  0  0  0  2  0  0  0  0  0  0
  182.4140  175.1980  139.1250 C   0  0  0  0  0  1  0  0  0  0  0  0
  180.2110  174.9360  135.8770 C   0  0  0  0  0  0  0  0  0  0  0  0
  179.5920  174.9700  138.3800 C   0  0  0  0  0  2  0  0  0  0  0  0
  181.7270  178.9400  139.9160 C   0  0  1  0  0  0  0  0  0  0  0  0
  180.3050  174.2240  137.2460 C   0  0  1  0  0  3  0  0  0  0  0  0
  182.0360  178.3710  137.6650 C   0  0  1  0  0  3  0  0  0  0  0  0
  182.2900  176.3270  136.1490 C   0  0  0  0  0  2  0  0  0  0  0  0
  182.2870  177.7880  139.0670 C   0  0  1  0  0  0  0  0  0  0  0  0
  180.3340  178.8560  140.0420 O   0  0  0  0  0  1  0  0  0  0  0  0
  182.2130  179.7650  137.7080 O   0  0  0  0  0  0  0  0  0  0  0  0
  184.2100  178.8450  145.1730 C   0  0  0  0  0  2  0  0  0  0  0  0
  185.4200  179.7450  145.3650 C   0  0  0  0  0  2  0  0  0  0  0  0
  186.4180  179.0710  146.0780 O   0  0  0  0  0  0  0  0  0  0  0  0
  186.0920  177.7190  145.9610 C   0  0  0  0  0  2  0  0  0  0  0  0
  187.3410  176.8750  146.1450 C   0  0  0  0  0  2  0  0  0  0  0  0
  191.6280  178.5450  144.3990 C   0  0  0  0  0  1  0  0  0  0  0  0
  190.2680  178.0370  144.4360 N   0  0  0  0  0  0  0  0  0  0  0  0
  189.4690  177.8090  143.3820 C   0  0  0  0  0  0  0  0  0  0  0  0
  189.6240  177.7350  145.5480 N   0  0  0  0  0  0  0  0  0  0  0  0
  188.2400  177.3310  143.8030 C   0  0  0  0  0  3  0  0  0  0  0  0
  188.4010  177.2920  145.1820 C   0  0  0  0  0  0  0  0  0  0  0  0
  189.8550  178.0490  142.0260 N   0  0  0  0  0  2  0  0  0  0  0  0
  189.1880  177.4020  140.9070 C   0  0  0  0  0  2  0  0  0  0  0  0
  187.1960  178.6690  140.6110 O   0  0  0  0  0  1  0  0  0  0  0  0
  188.3470  178.3940  140.1840 C   0  0  0  0  0  0  0  0  0  0  0  0
  188.8280  179.0140  139.0400 O   0  0  0  0  0  0  0  0  0  0  0  0
  1  2  1  0  0  0  0
  2 27  1  1  0  0  0
  3  5  1  0  0  0  0
  4  1  1  0  0  0  0
  5  2  1  0  0  0  0
  6  3  1  6  0  0  0
  6  4  1  0  0  0  0
  7 20  1  0  0  0  0
  9 13  1  0  0  0  0
  9 18  1  0  0  0  0
 10 18  1  0  0  0  0
 10 23  1  0  0  0  0
 12 11  1  1  0  0  0
 12 22  1  0  0  0  0
 13 18  1  0  0  0  0
 15 17  1  6  0  0  0
 16 15  1  0  0  0  0
 18 21  1  0  0  0  0
 19 16  1  0  0  0  0
 20 25  1  1  0  0  0
 20  6  1  0  0  0  0
 21  8  1  6  0  0  0
 21 19  1  0  0  0  0
 22 26  1  1  0  0  0
 22 24  1  0  0  0  0
 23 12  1  0  0  0  0
 24 14  1  1  0  0  0
 24 15  1  0  0  0  0
 24 20  1  0  0  0  0
 26  7  1  0  0  0  0
 27 28  1  0  0  0  0
 28 29  1  0  0  0  0
 30 29  1  0  0  0  0
 30 31  1  0  0  0  0
 32 33  1  0  0  0  0
 33 35  1  0  0  0  0
 34 36  2  0  0  0  0
 34 33  1  0  0  0  0
 36 37  1  0  0  0  0
 37 35  2  0  0  0  0
 37 31  1  0  0  0  0
 38 34  1  0  0  0  0
 39 38  1  0  0  0  0
 41 40  1  0  0  0  0
 41 39  1  0  0  0  0
 42 41  2  0  0  0  0
M  END
>  <MODEL>
8

>  <REMARK>
 VINA RESULT:      -6.2      2.290      3.918
  Name = 
  10 active torsions:
  status: ('A' for Active; 'I' for Inactive)
    1  A    between atoms: C_1  and  N_11
    2  A    between atoms: C_1  and  C_15
    3  A    between atoms: C_4  and  C_18
    4  A    between atoms: C_4  and  C_30
    5  A    between atoms: N_11  and  C_27
    6  A    between atoms: C_16  and  C_17
    7  A    between atoms: C_16  and  C_35
    8  A    between atoms: C_17  and  O_21
    9  A    between atoms: O_21  and  C_30
   10  A    between atoms: C_32  and  C_37
                            x       y       z     vdW  Elec       q    Type
                         _______ _______ _______ _____ _____    ______ ____

>  <TORSDO>
F 10

$$$$
=
 OpenBabel11062413113D

 42 46  0  0  1  0  0  0  0  0999 V2000
  181.1130  178.6690  142.6820 C   0  0  0  0  0  2  0  0  0  0  0  0
  181.3540  177.9050  141.3720 C   0  0  2  0  0  3  0  0  0  0  0  0
  183.7350  178.7310  141.1930 C   0  0  0  0  0  2  0  0  0  0  0  0
  182.3770  179.3470  143.2330 C   0  0  0  0  0  2  0  0  0  0  0  0
  182.3700  178.6350  140.5000 C   0  0  0  0  0  2  0  0  0  0  0  0
  183.6500  178.6590  142.7290 C   0  0  2  0  0  3  0  0  0  0  0  0
  184.5940  180.1630  144.5340 C   0  0  0  0  0  2  0  0  0  0  0  0
  191.0230  176.0130  143.0190 O   0  0  0  0  0  1  0  0  0  0  0  0
  191.6910  177.2180  145.4680 C   0  0  0  0  0  2  0  0  0  0  0  0
  189.4700  178.4580  145.5660 C   0  0  0  0  0  2  0  0  0  0  0  0
  186.2320  177.6360  147.1880 O   0  0  0  0  0  1  0  0  0  0  0  0
  187.1220  178.3890  146.4220 C   0  0  2  0  0  3  0  0  0  0  0  0
  191.7840  178.3930  144.5000 C   0  0  0  0  0  2  0  0  0  0  0  0
  184.8300  177.1140  144.8110 C   0  0  0  0  0  1  0  0  0  0  0  0
  186.7880  177.4240  143.1800 C   0  0  1  0  0  3  0  0  0  0  0  0
  188.0390  178.2880  142.8990 C   0  0  0  0  0  2  0  0  0  0  0  0
  187.1060  175.9810  143.5790 C   0  0  0  0  0  1  0  0  0  0  0  0
  190.4670  177.6810  144.7120 C   0  0  0  0  0  0  0  0  0  0  0  0
  189.2900  177.5480  142.4220 C   0  0  0  0  0  2  0  0  0  0  0  0
  184.9320  179.1970  143.4050 C   0  0  1  0  0  0  0  0  0  0  0  0
  189.9840  176.7800  143.5530 C   0  0  1  0  0  3  0  0  0  0  0  0
  186.4320  179.0260  145.1960 C   0  0  1  0  0  3  0  0  0  0  0  0
  188.3420  177.5580  146.0550 C   0  0  0  0  0  2  0  0  0  0  0  0
  185.7680  178.1330  144.1340 C   0  0  1  0  0  0  0  0  0  0  0  0
  185.6970  179.8930  142.4600 O   0  0  0  0  0  1  0  0  0  0  0  0
  185.5280  180.0300  145.5840 O   0  0  0  0  0  0  0  0  0  0  0  0
  180.0550  177.7150  140.6080 C   0  0  0  0  0  2  0  0  0  0  0  0
  180.2950  176.9580  139.3120 C   0  0  0  0  0  2  0  0  0  0  0  0
  180.7810  175.6740  139.5820 O   0  0  0  0  0  0  0  0  0  0  0  0
  181.4110  175.2720  138.4030 C   0  0  0  0  0  2  0  0  0  0  0  0
  182.0920  176.4650  137.7560 C   0  0  0  0  0  2  0  0  0  0  0  0
  186.2250  173.9250  136.9330 C   0  0  0  0  0  1  0  0  0  0  0  0
  185.3220  175.0430  137.1400 N   0  0  0  0  0  0  0  0  0  0  0  0
  185.6520  176.3440  137.1710 C   0  0  0  0  0  0  0  0  0  0  0  0
  184.0230  174.9150  137.3390 N   0  0  0  0  0  0  0  0  0  0  0  0
  184.5290  177.1200  137.3960 C   0  0  0  0  0  3  0  0  0  0  0  0
  183.5260  176.1640  137.4810 C   0  0  0  0  0  0  0  0  0  0  0  0
  186.9870  176.8280  137.0060 N   0  0  0  0  0  2  0  0  0  0  0  0
  187.9410  176.8500  138.1040 C   0  0  0  0  0  2  0  0  0  0  0  0
  188.8860  179.0000  138.4890 O   0  0  0  0  0  0  0  0  0  0  0  0
  187.9480  178.1970  138.7350 C   0  0  0  0  0  0  0  0  0  0  0  0
  186.9250  178.5700  139.5940 O   0  0  0  0  0  1  0  0  0  0  0  0
  1  4  1  0  0  0  0
  2 27  1  6  0  0  0
  2  1  1  0  0  0  0
  5  3  1  0  0  0  0
  5  2  1  0  0  0  0
  6  3  1  6  0  0  0
  6  4  1  0  0  0  0
  6 20  1  0  0  0  0
  7 26  1  0  0  0  0
 10 23  1  0  0  0  0
 12 11  1  6  0  0  0
 13 18  1  0  0  0  0
 13  9  1  0  0  0  0
 15 17  1  1  0  0  0
 15 24  1  0  0  0  0
 16 15  1  0  0  0  0
 18  9  1  0  0  0  0
 18 10  1  0  0  0  0
 19 16  1  0  0  0  0
 19 21  1  0  0  0  0
 20 25  1  6  0  0  0
 20 24  1  0  0  0  0
 20  7  1  0  0  0  0
 21  8  1  6  0  0  0
 21 18  1  0  0  0  0
 22 26  1  1  0  0  0
 22 12  1  0  0  0  0
 23 12  1  0  0  0  0
 24 14  1  1  0  0  0
 24 22  1  0  0  0  0
 28 29  1  0  0  0  0
 28 27  1  0  0  0  0
 30 29  1  0  0  0  0
 31 30  1  0  0  0  0
 32 33  1  0  0  0  0
 33 34  1  0  0  0  0
 33 35  1  0  0  0  0
 34 36  2  0  0  0  0
 35 37  2  0  0  0  0
 36 37  1  0  0  0  0
 37 31  1  0  0  0  0
 38 34  1  0  0  0  0
 38 39  1  0  0  0  0
 39 41  1  0  0  0  0
 40 41  2  0  0  0  0
 41 42  1  0  0  0  0
M  END
>  <MODEL>
9

>  <REMARK>
 VINA RESULT:      -6.1      3.827      9.270
  Name = 
  10 active torsions:
  status: ('A' for Active; 'I' for Inactive)
    1  A    between atoms: C_1  and  N_11
    2  A    between atoms: C_1  and  C_15
    3  A    between atoms: C_4  and  C_18
    4  A    between atoms: C_4  and  C_30
    5  A    between atoms: N_11  and  C_27
    6  A    between atoms: C_16  and  C_17
    7  A    between atoms: C_16  and  C_35
    8  A    between atoms: C_17  and  O_21
    9  A    between atoms: O_21  and  C_30
   10  A    between atoms: C_32  and  C_37
                            x       y       z     vdW  Elec       q    Type
                         _______ _______ _______ _____ _____    ______ ____

>  <TORSDO>
F 10

$$$$
