=
 OpenBabel11062412463D

 54 58  0  0  1  0  0  0  0  0999 V2000
  183.7520  176.7540  140.1700 O   0  0  0  0  0  0  0  0  0  0  0  0
  184.6930  178.7820  139.5290 O   0  0  0  0  0  1  0  0  0  0  0  0
  181.7210  178.7640  139.8550 C   0  0  1  0  0  3  0  0  0  0  0  0
  184.0110  178.0940  140.5460 C   0  0  1  0  0  3  0  0  0  0  0  0
  182.7600  178.7850  140.8870 N   0  0  0  0  0  0  0  0  0  0  0  0
  180.7460  177.3650  138.2060 F   0  0  0  0  0  0  0  0  0  0  0  0
  181.5120  177.3340  139.3600 C   0  0  1  0  0  3  0  0  0  0  0  0
  182.8940  176.7410  139.0390 C   0  0  2  0  0  3  0  0  0  0  0  0
  183.2200  178.8980  143.2460 C   0  0  0  0  0  0  0  0  0  0  0  0
  182.4190  179.0490  142.2320 N   0  0  0  0  0  0  0  0  0  0  0  0
  184.6620  178.4860  143.1980 C   0  0  2  0  0  3  0  0  0  0  0  0
  184.9490  178.4700  144.6670 C   0  0  0  0  0  0  0  0  0  0  0  0
  185.4820  179.5780  142.5310 C   0  0  0  0  0  1  0  0  0  0  0  0
  182.8110  179.1360  144.5490 O   0  0  0  0  0  0  0  0  0  0  0  0
  183.8260  178.8880  145.4360 N   0  0  0  0  0  2  0  0  0  0  0  0
  186.1050  178.0850  145.2010 C   0  0  0  0  0  3  0  0  0  0  0  0
  186.3280  178.0830  146.6770 C   0  0  0  0  0  2  0  0  0  0  0  0
  189.0330  177.6110  146.5480 C   0  0  0  0  0  0  0  0  0  0  0  0
  188.7270  177.4240  147.8740 O   0  0  0  0  0  0  0  0  0  0  0  0
  187.7530  177.7680  146.9700 C   0  0  0  0  0  0  0  0  0  0  0  0
  189.4430  177.0430  144.1970 C   0  0  0  0  0  1  0  0  0  0  0  0
  190.0410  177.6450  145.4530 C   0  0  0  0  0  3  0  0  0  0  0  0
  191.2670  176.8500  145.8590 C   0  0  0  0  0  1  0  0  0  0  0  0
  181.0310  181.4900  138.9470 C   0  0  0  0  0  1  0  0  0  0  0  0
  180.1410  180.7690  139.8480 N   0  0  0  0  0  0  0  0  0  0  0  0
  180.4450  179.4370  140.2880 C   0  0  0  0  0  0  0  0  0  0  0  0
  179.6620  178.8410  141.0750 O   0  0  0  0  0  0  0  0  0  0  0  0
  178.9320  181.4400  140.3020 C   0  0  0  0  0  1  0  0  0  0  0  0
  181.4620  174.8630  138.6120 O   0  0  0  0  0  1  0  0  0  0  0  0
  182.7690  175.3340  138.4580 C   0  0  1  0  0  3  0  0  0  0  0  0
  183.2330  175.2370  137.0010 C   0  0  2  0  0  3  0  0  0  0  0  0
  182.4810  174.2920  136.2920 O   0  0  0  0  0  1  0  0  0  0  0  0
  184.6900  174.9030  136.9170 C   0  0  0  0  0  0  0  0  0  0  0  0
  185.1630  174.0240  137.6260 O   0  0  0  0  0  0  0  0  0  0  0  0
  185.5500  175.6630  135.9450 C   0  0  1  0  0  3  0  0  0  0  0  0
  186.6760  178.4310  135.1670 O   0  0  0  0  0  1  0  0  0  0  0  0
  185.8980  177.7850  136.1370 C   0  0  1  0  0  3  0  0  0  0  0  0
  184.8490  176.9260  135.4470 C   0  0  0  0  0  2  0  0  0  0  0  0
  186.5830  176.5150  136.6680 C   0  0  2  0  0  3  0  0  0  0  0  0
  187.8480  176.3040  136.0960 O   0  0  0  0  0  0  0  0  0  0  0  0
  190.1700  176.1400  136.7800 C   0  0  2  0  0  0  0  0  0  0  0  0
  189.5360  177.2990  137.5300 C   0  0  1  0  0  0  0  0  0  0  0  0
  189.2390  178.4370  136.7650 O   0  0  0  0  0  1  0  0  0  0  0  0
  190.3810  176.3110  135.4170 F   0  0  0  0  0  0  0  0  0  0  0  0
  188.6940  176.0620  137.1920 C   0  0  1  0  0  3  0  0  0  0  0  0
  192.1690  174.7290  137.0050 C   0  0  0  0  0  3  0  0  0  0  0  0
  191.0280  175.1660  137.5230 C   0  0  0  0  0  3  0  0  0  0  0  0
  192.9450  173.8130  137.7110 O   0  0  0  0  0  0  0  0  0  0  0  0
  195.0720  173.1300  138.3030 O   0  0  0  0  0  1  0  0  0  0  0  0
  194.7210  175.3840  138.1070 O   0  0  0  0  0  0  0  0  0  0  0  0
  194.2730  174.0710  138.0500 C   0  0  0  0  0  0  0  0  0  0  0  0
  189.7900  177.4850  139.0220 C   0  0  0  0  0  2  0  0  0  0  0  0
  188.7590  178.4230  139.6260 C   0  0  0  0  0  2  0  0  0  0  0  0
  188.1170  177.7790  140.6790 O   0  0  0  0  0  1  0  0  0  0  0  0
  1  4  1  0  0  0  0
  3 26  1  1  0  0  0
  3  5  1  0  0  0  0
  4  2  1  6  0  0  0
  4  5  1  0  0  0  0
  5 10  1  0  0  0  0
  7  6  1  6  0  0  0
  7  3  1  0  0  0  0
  8 30  1  1  0  0  0
  8  7  1  0  0  0  0
  8  1  1  0  0  0  0
  9 14  1  0  0  0  0
 10  9  2  0  0  0  0
 11 13  1  6  0  0  0
 11  9  1  0  0  0  0
 11 12  1  0  0  0  0
 12 16  2  0  0  0  0
 12 15  1  0  0  0  0
 14 15  1  0  0  0  0
 16 17  1  0  0  0  0
 17 20  1  0  0  0  0
 18 20  2  0  0  0  0
 18 19  1  0  0  0  0
 20 19  1  0  0  0  0
 21 22  1  0  0  0  0
 22 23  1  0  0  0  0
 22 18  1  0  0  0  0
 24 25  1  0  0  0  0
 25 26  1  0  0  0  0
 25 28  1  0  0  0  0
 26 27  2  0  0  0  0
 30 29  1  6  0  0  0
 31 32  1  6  0  0  0
 31 30  1  0  0  0  0
 33 31  1  0  0  0  0
 33 34  2  0  0  0  0
 35 39  1  0  0  0  0
 35 33  1  1  0  0  0
 37 36  1  6  0  0  0
 37 39  1  0  0  0  0
 38 35  1  0  0  0  0
 38 37  1  0  0  0  0
 39 40  1  6  0  0  0
 41 44  1  6  0  0  0
 41 45  1  0  0  0  0
 41 47  1  0  0  0  0
 41 42  1  0  0  0  0
 42 43  1  6  0  0  0
 42 52  1  0  0  0  0
 45 40  1  6  0  0  0
 45 42  1  0  0  0  0
 46 47  2  0  0  0  0
 46 48  1  0  0  0  0
 48 51  1  0  0  0  0
 51 50  2  0  0  0  0
 51 49  1  0  0  0  0
 52 53  1  0  0  0  0
 53 54  1  0  0  0  0
M  END
>  <MODEL>
1

>  <REMARK>
 VINA RESULT:      -7.9      0.000      0.000
  Name = 
  16 active torsions:
  status: ('A' for Active; 'I' for Inactive)
    1  A    between atoms: O_1  and  C_31
    2  A    between atoms: O_1  and  C_48
    3  A    between atoms: C_2  and  C_15
    4  A    between atoms: C_2  and  C_45
    5  A    between atoms: C_6  and  C_37
    6  A    between atoms: C_7  and  C_36
    7  A    between atoms: N_11  and  N_41
    8  A    between atoms: C_13  and  C_21
    9  A    between atoms: C_13  and  C_54
   10  A    between atoms: C_14  and  C_43
   11  A    between atoms: C_15  and  C_20
   12  A    between atoms: C_17  and  C_43
   13  A    between atoms: C_23  and  C_26
   14  A    between atoms: O_29  and  C_47
   15  A    between atoms: O_29  and  C_53
   16  A    between atoms: C_45  and  C_52
                            x       y       z     vdW  Elec       q    Type
                         _______ _______ _______ _____ _____    ______ ____

>  <TORSDO>
F 16

$$$$
=
 OpenBabel11062412463D

 54 58  0  0  1  0  0  0  0  0999 V2000
  181.1710  177.9430  141.1660 O   0  0  0  0  0  0  0  0  0  0  0  0
  179.6980  179.7210  141.4520 O   0  0  0  0  0  1  0  0  0  0  0  0
  181.1150  179.6040  138.8220 C   0  0  1  0  0  3  0  0  0  0  0  0
  179.9580  178.5370  140.7420 C   0  0  1  0  0  3  0  0  0  0  0  0
  179.9900  178.7970  139.2970 N   0  0  0  0  0  0  0  0  0  0  0  0
  183.4380  179.9590  139.1500 F   0  0  0  0  0  0  0  0  0  0  0  0
  182.4250  179.0380  139.3680 C   0  0  1  0  0  3  0  0  0  0  0  0
  182.2490  178.8210  140.8790 C   0  0  2  0  0  3  0  0  0  0  0  0
  179.6650  176.8200  137.9650 C   0  0  0  0  0  0  0  0  0  0  0  0
  179.2700  177.9830  138.3950 N   0  0  0  0  0  0  0  0  0  0  0  0
  180.9050  176.0850  138.3770 C   0  0  2  0  0  3  0  0  0  0  0  0
  180.7670  174.8820  137.4970 C   0  0  0  0  0  0  0  0  0  0  0  0
  180.7890  175.6640  139.8330 C   0  0  0  0  0  1  0  0  0  0  0  0
  178.9310  176.0870  137.0460 O   0  0  0  0  0  0  0  0  0  0  0  0
  179.5630  174.9110  136.7370 N   0  0  0  0  0  2  0  0  0  0  0  0
  181.6710  173.9100  137.4060 C   0  0  0  0  0  3  0  0  0  0  0  0
  181.4790  172.7380  136.5010 C   0  0  0  0  0  2  0  0  0  0  0  0
  184.0320  171.7190  136.4680 C   0  0  0  0  0  0  0  0  0  0  0  0
  183.2390  170.6190  136.6910 O   0  0  0  0  0  0  0  0  0  0  0  0
  182.6850  171.8670  136.5440 C   0  0  0  0  0  0  0  0  0  0  0  0
  185.8380  172.9280  137.6040 C   0  0  0  0  0  1  0  0  0  0  0  0
  185.3850  172.3150  136.2950 C   0  0  0  0  0  3  0  0  0  0  0  0
  185.3400  173.3880  135.2250 C   0  0  0  0  0  1  0  0  0  0  0  0
  179.6730  181.8390  137.5340 C   0  0  0  0  0  1  0  0  0  0  0  0
  180.3990  180.8690  136.7240 N   0  0  0  0  0  0  0  0  0  0  0  0
  181.1220  179.7870  137.3270 C   0  0  0  0  0  0  0  0  0  0  0  0
  181.7330  178.9580  136.6000 O   0  0  0  0  0  0  0  0  0  0  0  0
  180.3650  181.0200  135.2760 C   0  0  0  0  0  1  0  0  0  0  0  0
  184.4370  177.8950  140.5350 O   0  0  0  0  0  1  0  0  0  0  0  0
  183.5460  178.3300  141.5200 C   0  0  1  0  0  3  0  0  0  0  0  0
  184.1940  179.3650  142.4460 C   0  0  2  0  0  3  0  0  0  0  0  0
  185.5120  179.6340  142.0600 O   0  0  0  0  0  1  0  0  0  0  0  0
  184.1560  178.9150  143.8730 C   0  0  0  0  0  0  0  0  0  0  0  0
  183.1320  178.4330  144.3410 O   0  0  0  0  0  0  0  0  0  0  0  0
  185.3980  179.0620  144.7090 C   0  0  1  0  0  3  0  0  0  0  0  0
  187.1820  177.7610  146.8670 O   0  0  0  0  0  1  0  0  0  0  0  0
  186.0380  177.5330  146.0910 C   0  0  1  0  0  3  0  0  0  0  0  0
  185.1240  178.7460  146.1780 C   0  0  0  0  0  2  0  0  0  0  0  0
  186.2850  177.8310  144.6030 C   0  0  2  0  0  3  0  0  0  0  0  0
  187.6070  178.2250  144.3440 O   0  0  0  0  0  0  0  0  0  0  0  0
  188.7540  178.0400  142.2140 C   0  0  2  0  0  0  0  0  0  0  0  0
  189.5930  177.3370  143.2670 C   0  0  1  0  0  0  0  0  0  0  0  0
  190.2350  178.1690  144.1970 O   0  0  0  0  0  1  0  0  0  0  0  0
  188.6910  179.4270  142.2800 F   0  0  0  0  0  0  0  0  0  0  0  0
  188.0640  177.3150  143.3760 C   0  0  1  0  0  3  0  0  0  0  0  0
  188.4160  178.0840  139.7810 C   0  0  0  0  0  3  0  0  0  0  0  0
  188.5190  177.3730  140.8960 C   0  0  0  0  0  3  0  0  0  0  0  0
  188.1850  177.4400  138.5670 O   0  0  0  0  0  0  0  0  0  0  0  0
  186.1910  176.9990  137.4850 O   0  0  0  0  0  1  0  0  0  0  0  0
  187.1250  179.0620  137.1430 O   0  0  0  0  0  0  0  0  0  0  0  0
  187.1340  177.8010  137.7250 C   0  0  0  0  0  0  0  0  0  0  0  0
  190.2130  175.9740  142.9770 C   0  0  0  0  0  2  0  0  0  0  0  0
  191.7000  175.9870  143.2890 C   0  0  0  0  0  2  0  0  0  0  0  0
  191.9200  175.3240  144.4920 O   0  0  0  0  0  1  0  0  0  0  0  0
  3 26  1  6  0  0  0
  3  5  1  0  0  0  0
  3  7  1  0  0  0  0
  4  1  1  0  0  0  0
  4  2  1  1  0  0  0
  5  4  1  0  0  0  0
  7  6  1  1  0  0  0
  7  8  1  0  0  0  0
  8  1  1  0  0  0  0
  8 30  1  6  0  0  0
  9 11  1  0  0  0  0
  9 10  2  0  0  0  0
 10  5  1  0  0  0  0
 11 13  1  1  0  0  0
 12 11  1  0  0  0  0
 14  9  1  0  0  0  0
 15 14  1  0  0  0  0
 15 12  1  0  0  0  0
 16 12  2  0  0  0  0
 17 20  1  0  0  0  0
 17 16  1  0  0  0  0
 18 20  2  0  0  0  0
 18 19  1  0  0  0  0
 20 19  1  0  0  0  0
 22 18  1  0  0  0  0
 22 21  1  0  0  0  0
 23 22  1  0  0  0  0
 25 26  1  0  0  0  0
 25 24  1  0  0  0  0
 27 26  2  0  0  0  0
 28 25  1  0  0  0  0
 30 29  1  6  0  0  0
 30 31  1  0  0  0  0
 31 32  1  6  0  0  0
 31 33  1  0  0  0  0
 33 34  2  0  0  0  0
 35 33  1  6  0  0  0
 35 38  1  0  0  0  0
 37 38  1  0  0  0  0
 37 36  1  1  0  0  0
 39 40  1  1  0  0  0
 39 35  1  0  0  0  0
 39 37  1  0  0  0  0
 41 44  1  1  0  0  0
 41 42  1  0  0  0  0
 41 45  1  0  0  0  0
 42 45  1  0  0  0  0
 42 43  1  1  0  0  0
 45 40  1  1  0  0  0
 46 47  2  0  0  0  0
 47 41  1  0  0  0  0
 48 46  1  0  0  0  0
 49 51  1  0  0  0  0
 50 51  2  0  0  0  0
 51 48  1  0  0  0  0
 52 42  1  0  0  0  0
 52 53  1  0  0  0  0
 53 54  1  0  0  0  0
M  END
>  <MODEL>
2

>  <REMARK>
 VINA RESULT:      -7.7      3.242      7.764
  Name = 
  16 active torsions:
  status: ('A' for Active; 'I' for Inactive)
    1  A    between atoms: O_1  and  C_31
    2  A    between atoms: O_1  and  C_48
    3  A    between atoms: C_2  and  C_15
    4  A    between atoms: C_2  and  C_45
    5  A    between atoms: C_6  and  C_37
    6  A    between atoms: C_7  and  C_36
    7  A    between atoms: N_11  and  N_41
    8  A    between atoms: C_13  and  C_21
    9  A    between atoms: C_13  and  C_54
   10  A    between atoms: C_14  and  C_43
   11  A    between atoms: C_15  and  C_20
   12  A    between atoms: C_17  and  C_43
   13  A    between atoms: C_23  and  C_26
   14  A    between atoms: O_29  and  C_47
   15  A    between atoms: O_29  and  C_53
   16  A    between atoms: C_45  and  C_52
                            x       y       z     vdW  Elec       q    Type
                         _______ _______ _______ _____ _____    ______ ____

>  <TORSDO>
F 16

$$$$
=
 OpenBabel11062412463D

 54 58  0  0  1  0  0  0  0  0999 V2000
  183.0370  176.2610  139.5600 O   0  0  0  0  0  0  0  0  0  0  0  0
  184.4090  178.0520  138.9950 O   0  0  0  0  0  1  0  0  0  0  0  0
  181.5070  178.6830  139.3370 C   0  0  1  0  0  3  0  0  0  0  0  0
  183.5870  177.4930  139.9870 C   0  0  1  0  0  3  0  0  0  0  0  0
  182.5200  178.4300  140.3630 N   0  0  0  0  0  0  0  0  0  0  0  0
  180.2500  177.6050  137.6380 F   0  0  0  0  0  0  0  0  0  0  0  0
  180.9860  177.3570  138.7860 C   0  0  1  0  0  3  0  0  0  0  0  0
  182.2020  176.4850  138.4340 C   0  0  2  0  0  3  0  0  0  0  0  0
  183.1070  178.6300  142.6880 C   0  0  0  0  0  0  0  0  0  0  0  0
  182.2420  178.7100  141.7190 N   0  0  0  0  0  0  0  0  0  0  0  0
  184.5650  178.2990  142.5640 C   0  0  2  0  0  3  0  0  0  0  0  0
  184.9370  178.3370  144.0140 C   0  0  0  0  0  0  0  0  0  0  0  0
  185.2810  179.4190  141.8270 C   0  0  0  0  0  1  0  0  0  0  0  0
  182.7600  178.8770  144.0070 O   0  0  0  0  0  0  0  0  0  0  0  0
  183.8370  178.7100  144.8380 N   0  0  0  0  0  2  0  0  0  0  0  0
  186.1410  178.0320  144.4890 C   0  0  0  0  0  3  0  0  0  0  0  0
  186.4480  178.0800  145.9480 C   0  0  0  0  0  2  0  0  0  0  0  0
  189.0640  177.2560  145.7620 C   0  0  0  0  0  0  0  0  0  0  0  0
  188.6960  176.9050  147.0380 O   0  0  0  0  0  0  0  0  0  0  0  0
  187.8060  177.5240  146.1950 C   0  0  0  0  0  0  0  0  0  0  0  0
  190.1940  178.7380  144.1670 C   0  0  0  0  0  1  0  0  0  0  0  0
  190.0980  177.3200  144.6930 C   0  0  0  0  0  3  0  0  0  0  0  0
  189.7240  176.3860  143.5590 C   0  0  0  0  0  1  0  0  0  0  0  0
  181.3640  181.4910  138.4280 C   0  0  0  0  0  1  0  0  0  0  0  0
  180.3740  180.9710  139.3620 N   0  0  0  0  0  0  0  0  0  0  0  0
  180.4110  179.6060  139.8030 C   0  0  0  0  0  0  0  0  0  0  0  0
  179.5470  179.1860  140.6190 O   0  0  0  0  0  0  0  0  0  0  0  0
  179.3440  181.8770  139.8490 C   0  0  0  0  0  1  0  0  0  0  0  0
  180.6840  175.3760  136.9410 O   0  0  0  0  0  1  0  0  0  0  0  0
  181.7680  175.1660  137.7980 C   0  0  1  0  0  3  0  0  0  0  0  0
  182.9100  174.4310  137.0880 C   0  0  2  0  0  3  0  0  0  0  0  0
  183.3080  175.1110  135.9310 O   0  0  0  0  0  1  0  0  0  0  0  0
  182.5230  173.0240  136.7510 C   0  0  0  0  0  0  0  0  0  0  0  0
  181.3640  172.7560  136.4640 O   0  0  0  0  0  0  0  0  0  0  0  0
  183.5860  171.9600  136.7660 C   0  0  1  0  0  3  0  0  0  0  0  0
  184.9110  169.6630  135.1850 O   0  0  0  0  0  1  0  0  0  0  0  0
  183.9310  170.6590  135.0790 C   0  0  1  0  0  3  0  0  0  0  0  0
  183.0350  170.6120  136.3070 C   0  0  0  0  0  2  0  0  0  0  0  0
  184.4610  172.0330  135.5230 C   0  0  2  0  0  3  0  0  0  0  0  0
  185.8130  171.9960  135.8970 O   0  0  0  0  0  0  0  0  0  0  0  0
  187.0130  173.9130  136.7740 C   0  0  2  0  0  0  0  0  0  0  0  0
  187.8340  173.3170  135.6440 C   0  0  1  0  0  0  0  0  0  0  0  0
  188.4440  172.0820  135.9150 O   0  0  0  0  0  1  0  0  0  0  0  0
  186.9320  173.1790  137.9510 F   0  0  0  0  0  0  0  0  0  0  0  0
  186.3030  173.2730  135.5740 C   0  0  1  0  0  3  0  0  0  0  0  0
  187.6360  176.1610  137.5460 C   0  0  0  0  0  3  0  0  0  0  0  0
  186.8170  175.3950  136.8370 C   0  0  0  0  0  3  0  0  0  0  0  0
  187.4260  177.5370  137.5980 O   0  0  0  0  0  0  0  0  0  0  0  0
  188.6780  179.4540  137.2760 O   0  0  0  0  0  0  0  0  0  0  0  0
  189.1790  178.1820  139.1130 O   0  0  0  0  0  1  0  0  0  0  0  0
  188.4340  178.4280  137.9670 C   0  0  0  0  0  0  0  0  0  0  0  0
  188.4770  174.2190  134.5970 C   0  0  0  0  0  2  0  0  0  0  0  0
  189.9880  174.2290  134.7540 C   0  0  0  0  0  2  0  0  0  0  0  0
  190.3840  175.4560  135.2750 O   0  0  0  0  0  1  0  0  0  0  0  0
  1  4  1  0  0  0  0
  3 26  1  1  0  0  0
  3  5  1  0  0  0  0
  4  2  1  6  0  0  0
  4  5  1  0  0  0  0
  5 10  1  0  0  0  0
  7  6  1  6  0  0  0
  7  3  1  0  0  0  0
  8 30  1  1  0  0  0
  8  7  1  0  0  0  0
  8  1  1  0  0  0  0
  9 14  1  0  0  0  0
 10  9  2  0  0  0  0
 11 13  1  6  0  0  0
 11  9  1  0  0  0  0
 11 12  1  0  0  0  0
 12 16  2  0  0  0  0
 12 15  1  0  0  0  0
 14 15  1  0  0  0  0
 16 17  1  0  0  0  0
 17 20  1  0  0  0  0
 18 20  2  0  0  0  0
 18 19  1  0  0  0  0
 20 19  1  0  0  0  0
 21 22  1  0  0  0  0
 22 18  1  0  0  0  0
 23 22  1  0  0  0  0
 24 25  1  0  0  0  0
 25 26  1  0  0  0  0
 25 28  1  0  0  0  0
 26 27  2  0  0  0  0
 30 29  1  6  0  0  0
 31 32  1  6  0  0  0
 31 30  1  0  0  0  0
 33 31  1  0  0  0  0
 34 33  2  0  0  0  0
 35 33  1  6  0  0  0
 37 36  1  1  0  0  0
 37 39  1  0  0  0  0
 37 38  1  0  0  0  0
 38 35  1  0  0  0  0
 39 40  1  1  0  0  0
 39 35  1  0  0  0  0
 41 47  1  0  0  0  0
 41 44  1  1  0  0  0
 42 43  1  1  0  0  0
 42 41  1  0  0  0  0
 45 42  1  0  0  0  0
 45 40  1  1  0  0  0
 45 41  1  0  0  0  0
 46 48  1  0  0  0  0
 47 46  2  0  0  0  0
 48 51  1  0  0  0  0
 49 51  2  0  0  0  0
 51 50  1  0  0  0  0
 52 53  1  0  0  0  0
 52 42  1  0  0  0  0
 53 54  1  0  0  0  0
M  END
>  <MODEL>
3

>  <REMARK>
 VINA RESULT:      -7.4      2.133      3.857
  Name = 
  16 active torsions:
  status: ('A' for Active; 'I' for Inactive)
    1  A    between atoms: O_1  and  C_31
    2  A    between atoms: O_1  and  C_48
    3  A    between atoms: C_2  and  C_15
    4  A    between atoms: C_2  and  C_45
    5  A    between atoms: C_6  and  C_37
    6  A    between atoms: C_7  and  C_36
    7  A    between atoms: N_11  and  N_41
    8  A    between atoms: C_13  and  C_21
    9  A    between atoms: C_13  and  C_54
   10  A    between atoms: C_14  and  C_43
   11  A    between atoms: C_15  and  C_20
   12  A    between atoms: C_17  and  C_43
   13  A    between atoms: C_23  and  C_26
   14  A    between atoms: O_29  and  C_47
   15  A    between atoms: O_29  and  C_53
   16  A    between atoms: C_45  and  C_52
                            x       y       z     vdW  Elec       q    Type
                         _______ _______ _______ _____ _____    ______ ____

>  <TORSDO>
F 16

$$$$
=
 OpenBabel11062412463D

 54 58  0  0  1  0  0  0  0  0999 V2000
  187.1990  178.8400  142.7300 O   0  0  0  0  0  0  0  0  0  0  0  0
  187.5310  176.6430  142.0410 O   0  0  0  0  0  1  0  0  0  0  0  0
  185.4240  178.1720  140.5710 C   0  0  1  0  0  3  0  0  0  0  0  0
  187.6380  177.9970  141.6810 C   0  0  1  0  0  3  0  0  0  0  0  0
  186.8800  178.2670  140.4520 N   0  0  0  0  0  0  0  0  0  0  0  0
  183.6270  178.6680  142.0380 F   0  0  0  0  0  0  0  0  0  0  0  0
  184.9480  178.9890  141.7710 C   0  0  1  0  0  3  0  0  0  0  0  0
  185.8210  178.6040  142.9760 C   0  0  2  0  0  3  0  0  0  0  0  0
  188.1890  178.4580  138.4410 C   0  0  0  0  0  0  0  0  0  0  0  0
  187.4600  178.9840  139.3820 N   0  0  0  0  0  0  0  0  0  0  0  0
  188.5030  177.0030  138.2570 C   0  0  2  0  0  3  0  0  0  0  0  0
  189.3870  177.1050  137.0540 C   0  0  0  0  0  0  0  0  0  0  0  0
  187.2340  176.2490  137.8930 C   0  0  0  0  0  1  0  0  0  0  0  0
  188.7650  179.2250  137.4410 O   0  0  0  0  0  0  0  0  0  0  0  0
  189.4980  178.4440  136.5850 N   0  0  0  0  0  2  0  0  0  0  0  0
  190.0220  176.0760  136.4990 C   0  0  0  0  0  3  0  0  0  0  0  0
  190.8990  176.2440  135.3040 C   0  0  0  0  0  2  0  0  0  0  0  0
  192.9850  174.4610  135.1430 C   0  0  0  0  0  0  0  0  0  0  0  0
  191.8770  173.7000  134.8600 O   0  0  0  0  0  0  0  0  0  0  0  0
  191.7580  175.0400  135.1370 C   0  0  0  0  0  0  0  0  0  0  0  0
  194.8380  173.9240  136.6590 C   0  0  0  0  0  1  0  0  0  0  0  0
  194.4570  174.5660  135.3410 C   0  0  0  0  0  3  0  0  0  0  0  0
  194.8710  176.0250  135.3520 C   0  0  0  0  0  1  0  0  0  0  0  0
  183.1790  176.5280  139.5760 C   0  0  0  0  0  1  0  0  0  0  0  0
  183.6280  177.6910  138.8210 N   0  0  0  0  0  0  0  0  0  0  0  0
  184.7040  178.5160  139.2930 C   0  0  0  0  0  0  0  0  0  0  0  0
  185.0770  179.5100  138.6140 O   0  0  0  0  0  0  0  0  0  0  0  0
  182.9620  177.9940  137.5620 C   0  0  0  0  0  1  0  0  0  0  0  0
  184.3400  180.2290  143.9390 O   0  0  0  0  0  1  0  0  0  0  0  0
  185.3570  179.3190  144.2430 C   0  0  1  0  0  3  0  0  0  0  0  0
  184.9360  178.3600  145.3610 C   0  0  2  0  0  3  0  0  0  0  0  0
  184.3680  179.0530  146.4370 O   0  0  0  0  0  1  0  0  0  0  0  0
  186.0930  177.5350  145.8320 C   0  0  0  0  0  0  0  0  0  0  0  0
  186.0330  176.3130  145.8000 O   0  0  0  0  0  0  0  0  0  0  0  0
  187.3230  178.2390  146.3360 C   0  0  1  0  0  3  0  0  0  0  0  0
  189.7550  178.0720  148.2310 O   0  0  0  0  0  1  0  0  0  0  0  0
  188.6520  177.3370  147.7770 C   0  0  1  0  0  3  0  0  0  0  0  0
  187.4040  178.2020  147.8610 C   0  0  0  0  0  2  0  0  0  0  0  0
  188.5500  177.3440  146.2420 C   0  0  2  0  0  3  0  0  0  0  0  0
  189.6010  178.0500  145.6350 O   0  0  0  0  0  0  0  0  0  0  0  0
  191.1370  177.8860  143.7640 C   0  0  2  0  0  0  0  0  0  0  0  0
  191.4260  176.7380  144.7170 C   0  0  1  0  0  0  0  0  0  0  0  0
  192.0330  177.0880  145.9330 O   0  0  0  0  0  1  0  0  0  0  0  0
  191.4850  179.1620  144.1900 F   0  0  0  0  0  0  0  0  0  0  0  0
  189.9870  177.2430  144.5510 C   0  0  1  0  0  3  0  0  0  0  0  0
  192.1320  177.6780  141.5280 C   0  0  0  0  0  3  0  0  0  0  0  0
  191.0510  177.6160  142.2960 C   0  0  0  0  0  3  0  0  0  0  0  0
  192.0250  177.4350  140.1600 O   0  0  0  0  0  0  0  0  0  0  0  0
  192.9640  176.7020  138.1790 O   0  0  0  0  0  0  0  0  0  0  0  0
  194.3470  176.8320  139.9990 O   0  0  0  0  0  1  0  0  0  0  0  0
  193.1030  176.9800  139.4010 C   0  0  0  0  0  0  0  0  0  0  0  0
  191.6520  175.3290  144.1820 C   0  0  0  0  0  2  0  0  0  0  0  0
  192.4290  174.4950  145.1870 C   0  0  0  0  0  2  0  0  0  0  0  0
  192.4540  173.1710  144.7600 O   0  0  0  0  0  1  0  0  0  0  0  0
  1  8  1  0  0  0  0
  3 26  1  6  0  0  0
  3  7  1  0  0  0  0
  4  2  1  1  0  0  0
  4  1  1  0  0  0  0
  5  3  1  0  0  0  0
  5  4  1  0  0  0  0
  7  6  1  1  0  0  0
  7  8  1  0  0  0  0
  8 30  1  1  0  0  0
  9 10  2  0  0  0  0
 10  5  1  0  0  0  0
 11 13  1  6  0  0  0
 11  9  1  0  0  0  0
 12 11  1  0  0  0  0
 14  9  1  0  0  0  0
 15 12  1  0  0  0  0
 15 14  1  0  0  0  0
 16 12  2  0  0  0  0
 17 16  1  0  0  0  0
 18 22  1  0  0  0  0
 19 20  1  0  0  0  0
 19 18  1  0  0  0  0
 20 18  2  0  0  0  0
 20 17  1  0  0  0  0
 22 23  1  0  0  0  0
 22 21  1  0  0  0  0
 25 26  1  0  0  0  0
 25 24  1  0  0  0  0
 27 26  2  0  0  0  0
 28 25  1  0  0  0  0
 30 29  1  6  0  0  0
 30 31  1  0  0  0  0
 31 33  1  0  0  0  0
 31 32  1  1  0  0  0
 34 33  2  0  0  0  0
 35 33  1  1  0  0  0
 35 38  1  0  0  0  0
 37 38  1  0  0  0  0
 37 36  1  6  0  0  0
 39 40  1  6  0  0  0
 39 35  1  0  0  0  0
 39 37  1  0  0  0  0
 41 44  1  1  0  0  0
 41 45  1  0  0  0  0
 41 42  1  0  0  0  0
 42 43  1  1  0  0  0
 45 42  1  0  0  0  0
 45 40  1  1  0  0  0
 46 47  2  0  0  0  0
 47 41  1  0  0  0  0
 48 46  1  0  0  0  0
 49 51  2  0  0  0  0
 51 50  1  0  0  0  0
 51 48  1  0  0  0  0
 52 42  1  0  0  0  0
 52 53  1  0  0  0  0
 54 53  1  0  0  0  0
M  END
>  <MODEL>
4

>  <REMARK>
 VINA RESULT:      -7.3      3.217      8.335
  Name = 
  16 active torsions:
  status: ('A' for Active; 'I' for Inactive)
    1  A    between atoms: O_1  and  C_31
    2  A    between atoms: O_1  and  C_48
    3  A    between atoms: C_2  and  C_15
    4  A    between atoms: C_2  and  C_45
    5  A    between atoms: C_6  and  C_37
    6  A    between atoms: C_7  and  C_36
    7  A    between atoms: N_11  and  N_41
    8  A    between atoms: C_13  and  C_21
    9  A    between atoms: C_13  and  C_54
   10  A    between atoms: C_14  and  C_43
   11  A    between atoms: C_15  and  C_20
   12  A    between atoms: C_17  and  C_43
   13  A    between atoms: C_23  and  C_26
   14  A    between atoms: O_29  and  C_47
   15  A    between atoms: O_29  and  C_53
   16  A    between atoms: C_45  and  C_52
                            x       y       z     vdW  Elec       q    Type
                         _______ _______ _______ _____ _____    ______ ____

>  <TORSDO>
F 16

$$$$
=
 OpenBabel11062412463D

 54 58  0  0  1  0  0  0  0  0999 V2000
  187.4570  178.0310  139.2990 O   0  0  0  0  0  0  0  0  0  0  0  0
  189.3540  179.3630  139.1140 O   0  0  0  0  0  1  0  0  0  0  0  0
  189.3280  177.4320  141.3970 C   0  0  1  0  0  3  0  0  0  0  0  0
  188.8480  178.0550  139.0410 C   0  0  1  0  0  3  0  0  0  0  0  0
  189.5600  177.1720  139.9740 N   0  0  0  0  0  0  0  0  0  0  0  0
  187.6300  178.0400  142.9370 F   0  0  0  0  0  0  0  0  0  0  0  0
  187.8270  177.5210  141.6680 C   0  0  1  0  0  3  0  0  0  0  0  0
  187.2180  178.4730  140.6270 C   0  0  2  0  0  3  0  0  0  0  0  0
  191.0400  175.7510  138.7160 C   0  0  0  0  0  0  0  0  0  0  0  0
  190.0580  175.9190  139.5540 N   0  0  0  0  0  0  0  0  0  0  0  0
  191.8760  176.8250  138.0870 C   0  0  2  0  0  3  0  0  0  0  0  0
  192.7550  175.9670  137.2310 C   0  0  0  0  0  0  0  0  0  0  0  0
  192.7160  177.5090  139.1530 C   0  0  0  0  0  1  0  0  0  0  0  0
  191.4540  174.4920  138.3100 O   0  0  0  0  0  0  0  0  0  0  0  0
  192.4870  174.5800  137.4130 N   0  0  0  0  0  2  0  0  0  0  0  0
  193.6610  176.4350  136.3780 C   0  0  0  0  0  3  0  0  0  0  0  0
  194.5020  175.5260  135.5450 C   0  0  0  0  0  2  0  0  0  0  0  0
  196.4420  174.7060  137.3120 C   0  0  0  0  0  0  0  0  0  0  0  0
  197.1490  175.3050  136.2980 O   0  0  0  0  0  0  0  0  0  0  0  0
  195.7790  175.2330  136.2520 C   0  0  0  0  0  0  0  0  0  0  0  0
  195.5610  172.7400  138.4860 C   0  0  0  0  0  1  0  0  0  0  0  0
  196.4210  173.9820  138.6120 C   0  0  0  0  0  3  0  0  0  0  0  0
  195.8520  174.8810  139.6920 C   0  0  0  0  0  1  0  0  0  0  0  0
  191.6830  178.2410  142.9870 C   0  0  0  0  0  1  0  0  0  0  0  0
  191.1930  176.8700  143.0470 N   0  0  0  0  0  0  0  0  0  0  0  0
  190.0400  176.4580  142.2990 C   0  0  0  0  0  0  0  0  0  0  0  0
  189.6440  175.2630  142.3630 O   0  0  0  0  0  0  0  0  0  0  0  0
  191.9110  175.9190  143.8830 C   0  0  0  0  0  1  0  0  0  0  0  0
  185.5290  179.7580  141.7500 O   0  0  0  0  0  1  0  0  0  0  0  0
  185.7260  178.6830  140.8780 C   0  0  1  0  0  3  0  0  0  0  0  0
  184.9110  178.8490  139.5910 C   0  0  2  0  0  3  0  0  0  0  0  0
  184.4710  180.1690  139.4360 O   0  0  0  0  0  1  0  0  0  0  0  0
  183.7450  177.9100  139.5620 C   0  0  0  0  0  0  0  0  0  0  0  0
  183.3290  177.4130  140.6010 O   0  0  0  0  0  0  0  0  0  0  0  0
  183.1000  177.6020  138.2400 C   0  0  1  0  0  3  0  0  0  0  0  0
  181.4420  175.5510  136.6330 O   0  0  0  0  0  1  0  0  0  0  0  0
  181.9780  175.7880  137.9060 C   0  0  1  0  0  3  0  0  0  0  0  0
  183.4390  176.1890  137.7670 C   0  0  0  0  0  2  0  0  0  0  0  0
  181.6420  177.2000  138.4150 C   0  0  2  0  0  3  0  0  0  0  0  0
  180.8440  177.9230  137.5150 O   0  0  0  0  0  0  0  0  0  0  0  0
  180.1660  180.2080  137.0580 C   0  0  2  0  0  0  0  0  0  0  0  0
  179.9870  179.9480  138.5450 C   0  0  1  0  0  0  0  0  0  0  0  0
  178.9320  179.0930  138.8960 O   0  0  0  0  0  1  0  0  0  0  0  0
  179.2840  179.5670  136.1960 F   0  0  0  0  0  0  0  0  0  0  0  0
  181.1370  179.2700  137.7890 C   0  0  1  0  0  3  0  0  0  0  0  0
  180.1190  182.4200  135.9910 C   0  0  0  0  0  3  0  0  0  0  0  0
  180.8180  181.4760  136.6080 C   0  0  0  0  0  3  0  0  0  0  0  0
  180.7510  183.5870  135.5700 O   0  0  0  0  0  0  0  0  0  0  0  0
  180.6630  185.7330  136.4240 O   0  0  0  0  0  0  0  0  0  0  0  0
  182.1230  184.2780  137.4200 O   0  0  0  0  0  1  0  0  0  0  0  0
  181.1590  184.5750  136.4660 C   0  0  0  0  0  0  0  0  0  0  0  0
  180.4450  180.9810  139.5690 C   0  0  0  0  0  2  0  0  0  0  0  0
  179.4580  181.0630  140.7210 C   0  0  0  0  0  2  0  0  0  0  0  0
  180.0610  180.5730  141.8750 O   0  0  0  0  0  1  0  0  0  0  0  0
  1  8  1  0  0  0  0
  3  7  1  0  0  0  0
  3 26  1  1  0  0  0
  4  2  1  1  0  0  0
  4  1  1  0  0  0  0
  4  5  1  0  0  0  0
  5  3  1  0  0  0  0
  7  6  1  1  0  0  0
  8 30  1  1  0  0  0
  8  7  1  0  0  0  0
  9 10  2  0  0  0  0
 10  5  1  0  0  0  0
 11  9  1  0  0  0  0
 11 13  1  1  0  0  0
 12 15  1  0  0  0  0
 12 11  1  0  0  0  0
 14  9  1  0  0  0  0
 15 14  1  0  0  0  0
 16 12  2  0  0  0  0
 17 20  1  0  0  0  0
 17 16  1  0  0  0  0
 18 22  1  0  0  0  0
 19 18  1  0  0  0  0
 20 19  1  0  0  0  0
 20 18  2  0  0  0  0
 21 22  1  0  0  0  0
 22 23  1  0  0  0  0
 24 25  1  0  0  0  0
 25 28  1  0  0  0  0
 26 27  2  0  0  0  0
 26 25  1  0  0  0  0
 30 29  1  1  0  0  0
 31 32  1  1  0  0  0
 31 30  1  0  0  0  0
 33 31  1  0  0  0  0
 33 34  2  0  0  0  0
 35 39  1  0  0  0  0
 35 33  1  1  0  0  0
 37 36  1  6  0  0  0
 37 39  1  0  0  0  0
 38 37  1  0  0  0  0
 38 35  1  0  0  0  0
 39 40  1  6  0  0  0
 41 44  1  6  0  0  0
 41 45  1  0  0  0  0
 41 42  1  0  0  0  0
 42 43  1  1  0  0  0
 42 52  1  0  0  0  0
 45 40  1  6  0  0  0
 45 42  1  0  0  0  0
 46 47  2  0  0  0  0
 47 41  1  0  0  0  0
 48 46  1  0  0  0  0
 48 51  1  0  0  0  0
 49 51  2  0  0  0  0
 51 50  1  0  0  0  0
 52 53  1  0  0  0  0
 53 54  1  0  0  0  0
M  END
>  <MODEL>
5

>  <REMARK>
 VINA RESULT:      -7.1      3.745     10.128
  Name = 
  16 active torsions:
  status: ('A' for Active; 'I' for Inactive)
    1  A    between atoms: O_1  and  C_31
    2  A    between atoms: O_1  and  C_48
    3  A    between atoms: C_2  and  C_15
    4  A    between atoms: C_2  and  C_45
    5  A    between atoms: C_6  and  C_37
    6  A    between atoms: C_7  and  C_36
    7  A    between atoms: N_11  and  N_41
    8  A    between atoms: C_13  and  C_21
    9  A    between atoms: C_13  and  C_54
   10  A    between atoms: C_14  and  C_43
   11  A    between atoms: C_15  and  C_20
   12  A    between atoms: C_17  and  C_43
   13  A    between atoms: C_23  and  C_26
   14  A    between atoms: O_29  and  C_47
   15  A    between atoms: O_29  and  C_53
   16  A    between atoms: C_45  and  C_52
                            x       y       z     vdW  Elec       q    Type
                         _______ _______ _______ _____ _____    ______ ____

>  <TORSDO>
F 16

$$$$
=
 OpenBabel11062412463D

 54 58  0  0  1  0  0  0  0  0999 V2000
  187.1330  178.5820  139.6830 O   0  0  0  0  0  0  0  0  0  0  0  0
  189.1510  179.7050  139.4030 O   0  0  0  0  0  1  0  0  0  0  0  0
  189.0790  177.6680  141.5900 C   0  0  1  0  0  3  0  0  0  0  0  0
  188.4940  178.4660  139.3130 C   0  0  1  0  0  3  0  0  0  0  0  0
  189.1710  177.4610  140.1440 N   0  0  0  0  0  0  0  0  0  0  0  0
  187.5850  178.3750  143.2920 F   0  0  0  0  0  0  0  0  0  0  0  0
  187.6240  177.9070  141.9880 C   0  0  1  0  0  3  0  0  0  0  0  0
  187.0490  178.9760  141.0440 C   0  0  2  0  0  3  0  0  0  0  0  0
  190.5000  175.9280  138.8490 C   0  0  0  0  0  0  0  0  0  0  0  0
  189.4890  176.1860  139.6270 N   0  0  0  0  0  0  0  0  0  0  0  0
  191.5560  176.8940  138.4020 C   0  0  2  0  0  3  0  0  0  0  0  0
  192.3530  175.9790  137.5250 C   0  0  0  0  0  0  0  0  0  0  0  0
  192.3990  177.3170  139.5940 C   0  0  0  0  0  1  0  0  0  0  0  0
  190.7330  174.6600  138.3410 O   0  0  0  0  0  0  0  0  0  0  0  0
  191.8430  174.6500  137.5370 N   0  0  0  0  0  2  0  0  0  0  0  0
  193.3980  176.3600  136.7960 C   0  0  0  0  0  3  0  0  0  0  0  0
  194.1480  175.4010  135.9330 C   0  0  0  0  0  2  0  0  0  0  0  0
  196.8760  175.6910  135.7720 C   0  0  0  0  0  0  0  0  0  0  0  0
  196.3880  176.8940  135.3230 O   0  0  0  0  0  0  0  0  0  0  0  0
  195.5350  175.8940  135.7190 C   0  0  0  0  0  0  0  0  0  0  0  0
  197.9320  173.5430  135.2360 C   0  0  0  0  0  1  0  0  0  0  0  0
  198.0330  174.8030  136.0710 C   0  0  0  0  0  3  0  0  0  0  0  0
  198.0310  174.4340  137.5420 C   0  0  0  0  0  1  0  0  0  0  0  0
  191.6590  178.1070  142.9630 C   0  0  0  0  0  1  0  0  0  0  0  0
  191.0040  176.8060  143.0290 N   0  0  0  0  0  0  0  0  0  0  0  0
  189.7430  176.5740  142.3860 C   0  0  0  0  0  0  0  0  0  0  0  0
  189.2040  175.4360  142.4520 O   0  0  0  0  0  0  0  0  0  0  0  0
  191.6700  175.7370  143.7590 C   0  0  0  0  0  1  0  0  0  0  0  0
  184.9050  179.7560  140.2990 O   0  0  0  0  0  1  0  0  0  0  0  0
  185.6140  179.3340  141.4270 C   0  0  1  0  0  3  0  0  0  0  0  0
  184.8830  178.2060  142.1610 C   0  0  2  0  0  3  0  0  0  0  0  0
  184.3080  177.3040  141.2580 O   0  0  0  0  0  1  0  0  0  0  0  0
  183.8360  178.7490  143.0840 C   0  0  0  0  0  0  0  0  0  0  0  0
  184.1440  179.5290  143.9750 O   0  0  0  0  0  0  0  0  0  0  0  0
  182.4070  178.3210  142.8850 C   0  0  1  0  0  3  0  0  0  0  0  0
  179.4670  179.2530  142.7440 O   0  0  0  0  0  1  0  0  0  0  0  0
  180.7750  179.7330  142.8920 C   0  0  1  0  0  3  0  0  0  0  0  0
  181.4920  178.9140  143.9550 C   0  0  0  0  0  2  0  0  0  0  0  0
  181.7200  179.1630  141.8210 C   0  0  2  0  0  3  0  0  0  0  0  0
  181.0600  178.3230  140.9100 O   0  0  0  0  0  0  0  0  0  0  0  0
  181.6530  177.2740  138.8050 C   0  0  2  0  0  0  0  0  0  0  0  0
  180.7660  178.4710  138.5050 C   0  0  1  0  0  0  0  0  0  0  0  0
  179.4140  178.3360  138.8560 O   0  0  0  0  0  1  0  0  0  0  0  0
  181.0480  176.1760  139.4050 F   0  0  0  0  0  0  0  0  0  0  0  0
  181.7340  178.5210  139.6940 C   0  0  1  0  0  3  0  0  0  0  0  0
  183.3510  175.8350  137.7640 C   0  0  0  0  0  3  0  0  0  0  0  0
  182.8940  177.0590  137.9980 C   0  0  0  0  0  3  0  0  0  0  0  0
  184.5160  175.6610  137.0200 O   0  0  0  0  0  0  0  0  0  0  0  0
  186.1420  177.2940  136.8510 O   0  0  0  0  0  1  0  0  0  0  0  0
  184.6390  177.1430  135.1310 O   0  0  0  0  0  0  0  0  0  0  0  0
  185.1360  176.7190  136.3560 C   0  0  0  0  0  0  0  0  0  0  0  0
  181.1220  179.4320  137.3760 C   0  0  0  0  0  2  0  0  0  0  0  0
  180.8150  180.8640  137.7780 C   0  0  0  0  0  2  0  0  0  0  0  0
  181.8410  181.3430  138.5860 O   0  0  0  0  0  1  0  0  0  0  0  0
  1  8  1  0  0  0  0
  3  7  1  0  0  0  0
  3 26  1  1  0  0  0
  4  2  1  1  0  0  0
  4  1  1  0  0  0  0
  4  5  1  0  0  0  0
  5  3  1  0  0  0  0
  7  6  1  1  0  0  0
  8 30  1  1  0  0  0
  8  7  1  0  0  0  0
  9 10  2  0  0  0  0
 10  5  1  0  0  0  0
 11  9  1  0  0  0  0
 11 13  1  1  0  0  0
 12 15  1  0  0  0  0
 12 11  1  0  0  0  0
 14  9  1  0  0  0  0
 15 14  1  0  0  0  0
 16 12  2  0  0  0  0
 17 16  1  0  0  0  0
 18 22  1  0  0  0  0
 19 20  1  0  0  0  0
 19 18  1  0  0  0  0
 20 18  2  0  0  0  0
 20 17  1  0  0  0  0
 21 22  1  0  0  0  0
 22 23  1  0  0  0  0
 24 25  1  0  0  0  0
 25 28  1  0  0  0  0
 26 27  2  0  0  0  0
 26 25  1  0  0  0  0
 30 29  1  6  0  0  0
 30 31  1  0  0  0  0
 31 32  1  6  0  0  0
 31 33  1  0  0  0  0
 33 34  2  0  0  0  0
 35 33  1  1  0  0  0
 35 38  1  0  0  0  0
 37 36  1  6  0  0  0
 37 38  1  0  0  0  0
 39 40  1  6  0  0  0
 39 35  1  0  0  0  0
 39 37  1  0  0  0  0
 41 44  1  1  0  0  0
 41 45  1  0  0  0  0
 42 41  1  0  0  0  0
 42 43  1  1  0  0  0
 42 45  1  0  0  0  0
 45 40  1  1  0  0  0
 46 47  2  0  0  0  0
 47 41  1  0  0  0  0
 48 46  1  0  0  0  0
 50 51  2  0  0  0  0
 51 49  1  0  0  0  0
 51 48  1  0  0  0  0
 52 53  1  0  0  0  0
 52 42  1  0  0  0  0
 53 54  1  0  0  0  0
M  END
>  <MODEL>
6

>  <REMARK>
 VINA RESULT:      -7.1      3.349      9.531
  Name = 
  16 active torsions:
  status: ('A' for Active; 'I' for Inactive)
    1  A    between atoms: O_1  and  C_31
    2  A    between atoms: O_1  and  C_48
    3  A    between atoms: C_2  and  C_15
    4  A    between atoms: C_2  and  C_45
    5  A    between atoms: C_6  and  C_37
    6  A    between atoms: C_7  and  C_36
    7  A    between atoms: N_11  and  N_41
    8  A    between atoms: C_13  and  C_21
    9  A    between atoms: C_13  and  C_54
   10  A    between atoms: C_14  and  C_43
   11  A    between atoms: C_15  and  C_20
   12  A    between atoms: C_17  and  C_43
   13  A    between atoms: C_23  and  C_26
   14  A    between atoms: O_29  and  C_47
   15  A    between atoms: O_29  and  C_53
   16  A    between atoms: C_45  and  C_52
                            x       y       z     vdW  Elec       q    Type
                         _______ _______ _______ _____ _____    ______ ____

>  <TORSDO>
F 16

$$$$
=
 OpenBabel11062412463D

 54 58  0  0  1  0  0  0  0  0999 V2000
  180.9850  178.2840  140.3300 O   0  0  0  0  0  0  0  0  0  0  0  0
  179.1080  179.6320  140.5960 O   0  0  0  0  0  1  0  0  0  0  0  0
  180.6470  180.0140  138.0610 C   0  0  1  0  0  3  0  0  0  0  0  0
  179.6880  178.5890  139.8550 C   0  0  1  0  0  3  0  0  0  0  0  0
  179.7300  178.9320  138.4270 N   0  0  0  0  0  0  0  0  0  0  0  0
  182.7900  180.9020  138.5540 F   0  0  0  0  0  0  0  0  0  0  0  0
  182.0250  179.7520  138.6660 C   0  0  1  0  0  3  0  0  0  0  0  0
  181.8280  179.4120  140.1520 C   0  0  2  0  0  3  0  0  0  0  0  0
  179.8670  176.8970  137.1500 C   0  0  0  0  0  0  0  0  0  0  0  0
  179.2810  178.0210  137.4460 N   0  0  0  0  0  0  0  0  0  0  0  0
  181.0760  176.3130  137.8180 C   0  0  2  0  0  3  0  0  0  0  0  0
  181.2310  175.0790  136.9840 C   0  0  0  0  0  0  0  0  0  0  0  0
  180.7310  175.9200  139.2460 C   0  0  0  0  0  1  0  0  0  0  0  0
  179.3980  176.0650  136.1460 O   0  0  0  0  0  0  0  0  0  0  0  0
  180.1950  174.9570  136.0140 N   0  0  0  0  0  2  0  0  0  0  0  0
  182.2290  174.2100  137.1070 C   0  0  0  0  0  3  0  0  0  0  0  0
  182.3330  173.0020  136.2370 C   0  0  0  0  0  2  0  0  0  0  0  0
  184.9580  172.4360  136.8260 C   0  0  0  0  0  0  0  0  0  0  0  0
  184.4790  171.2650  136.2910 O   0  0  0  0  0  0  0  0  0  0  0  0
  183.6660  172.3640  136.4190 C   0  0  0  0  0  0  0  0  0  0  0  0
  185.9360  174.6730  137.0650 C   0  0  0  0  0  1  0  0  0  0  0  0
  186.0740  173.2110  137.4350 C   0  0  0  0  0  3  0  0  0  0  0  0
  187.4020  172.6850  136.9250 C   0  0  0  0  0  1  0  0  0  0  0  0
  179.3900  182.4180  136.8880 C   0  0  0  0  0  1  0  0  0  0  0  0
  180.0530  181.4440  136.0310 N   0  0  0  0  0  0  0  0  0  0  0  0
  180.6870  180.2790  136.5780 C   0  0  0  0  0  0  0  0  0  0  0  0
  181.2450  179.4480  135.8120 O   0  0  0  0  0  0  0  0  0  0  0  0
  180.0490  181.6770  134.5940 C   0  0  0  0  0  1  0  0  0  0  0  0
  183.0130  178.3940  141.9750 O   0  0  0  0  0  1  0  0  0  0  0  0
  183.1710  179.2150  140.8540 C   0  0  1  0  0  3  0  0  0  0  0  0
  184.2690  178.6900  139.9240 C   0  0  2  0  0  3  0  0  0  0  0  0
  184.0640  177.3430  139.6060 O   0  0  0  0  0  1  0  0  0  0  0  0
  185.6260  178.8750  140.5300 C   0  0  0  0  0  0  0  0  0  0  0  0
  185.8310  179.7920  141.3150 O   0  0  0  0  0  0  0  0  0  0  0  0
  186.7190  177.9100  140.1600 C   0  0  1  0  0  3  0  0  0  0  0  0
  189.5960  177.6150  139.0790 O   0  0  0  0  0  1  0  0  0  0  0  0
  188.6430  178.5750  139.4440 C   0  0  1  0  0  3  0  0  0  0  0  0
  187.3120  178.2350  138.7910 C   0  0  0  0  0  2  0  0  0  0  0  0
  188.0350  178.2830  140.8270 C   0  0  2  0  0  3  0  0  0  0  0  0
  188.5940  177.1460  141.4320 O   0  0  0  0  0  0  0  0  0  0  0  0
  188.6700  176.6230  143.8000 C   0  0  2  0  0  0  0  0  0  0  0  0
  190.0950  176.6470  143.2730 C   0  0  1  0  0  0  0  0  0  0  0  0
  190.4590  175.5820  142.4350 O   0  0  0  0  0  1  0  0  0  0  0  0
  187.8660  175.5650  143.3930 F   0  0  0  0  0  0  0  0  0  0  0  0
  189.0500  177.6010  142.6810 C   0  0  1  0  0  3  0  0  0  0  0  0
  187.0930  177.4870  145.4740 C   0  0  0  0  0  3  0  0  0  0  0  0
  188.3510  177.3140  145.0870 C   0  0  0  0  0  3  0  0  0  0  0  0
  186.8210  178.1450  146.6710 O   0  0  0  0  0  0  0  0  0  0  0  0
  185.7490  179.9130  147.7050 O   0  0  0  0  0  1  0  0  0  0  0  0
  184.6790  178.9450  145.9280 O   0  0  0  0  0  0  0  0  0  0  0  0
  185.7530  179.0320  146.8030 C   0  0  0  0  0  0  0  0  0  0  0  0
  191.1970  177.3480  144.0610 C   0  0  0  0  0  2  0  0  0  0  0  0
  191.0850  178.8560  143.9090 C   0  0  0  0  0  2  0  0  0  0  0  0
  192.2730  179.4460  144.3280 O   0  0  0  0  0  1  0  0  0  0  0  0
  3 26  1  6  0  0  0
  3  5  1  0  0  0  0
  3  7  1  0  0  0  0
  4  1  1  0  0  0  0
  4  2  1  1  0  0  0
  5  4  1  0  0  0  0
  7  6  1  1  0  0  0
  7  8  1  0  0  0  0
  8  1  1  0  0  0  0
  8 30  1  6  0  0  0
  9 10  2  0  0  0  0
  9 11  1  0  0  0  0
 10  5  1  0  0  0  0
 11 13  1  1  0  0  0
 12 16  2  0  0  0  0
 12 11  1  0  0  0  0
 14  9  1  0  0  0  0
 15 14  1  0  0  0  0
 15 12  1  0  0  0  0
 17 20  1  0  0  0  0
 17 16  1  0  0  0  0
 18 22  1  0  0  0  0
 19 20  1  0  0  0  0
 19 18  1  0  0  0  0
 20 18  2  0  0  0  0
 21 22  1  0  0  0  0
 23 22  1  0  0  0  0
 25 26  1  0  0  0  0
 25 24  1  0  0  0  0
 27 26  2  0  0  0  0
 28 25  1  0  0  0  0
 30 29  1  1  0  0  0
 31 32  1  1  0  0  0
 31 33  1  0  0  0  0
 31 30  1  0  0  0  0
 33 34  2  0  0  0  0
 35 33  1  1  0  0  0
 35 39  1  0  0  0  0
 37 36  1  6  0  0  0
 37 39  1  0  0  0  0
 38 37  1  0  0  0  0
 38 35  1  0  0  0  0
 39 40  1  6  0  0  0
 41 44  1  6  0  0  0
 41 47  1  0  0  0  0
 42 43  1  6  0  0  0
 42 41  1  0  0  0  0
 42 52  1  0  0  0  0
 45 40  1  6  0  0  0
 45 42  1  0  0  0  0
 45 41  1  0  0  0  0
 46 48  1  0  0  0  0
 47 46  2  0  0  0  0
 48 51  1  0  0  0  0
 50 51  2  0  0  0  0
 51 49  1  0  0  0  0
 53 52  1  0  0  0  0
 53 54  1  0  0  0  0
M  END
>  <MODEL>
7

>  <REMARK>
 VINA RESULT:      -7.0      3.386      7.706
  Name = 
  16 active torsions:
  status: ('A' for Active; 'I' for Inactive)
    1  A    between atoms: O_1  and  C_31
    2  A    between atoms: O_1  and  C_48
    3  A    between atoms: C_2  and  C_15
    4  A    between atoms: C_2  and  C_45
    5  A    between atoms: C_6  and  C_37
    6  A    between atoms: C_7  and  C_36
    7  A    between atoms: N_11  and  N_41
    8  A    between atoms: C_13  and  C_21
    9  A    between atoms: C_13  and  C_54
   10  A    between atoms: C_14  and  C_43
   11  A    between atoms: C_15  and  C_20
   12  A    between atoms: C_17  and  C_43
   13  A    between atoms: C_23  and  C_26
   14  A    between atoms: O_29  and  C_47
   15  A    between atoms: O_29  and  C_53
   16  A    between atoms: C_45  and  C_52
                            x       y       z     vdW  Elec       q    Type
                         _______ _______ _______ _____ _____    ______ ____

>  <TORSDO>
F 16

$$$$
=
 OpenBabel11062412463D

 54 58  0  0  1  0  0  0  0  0999 V2000
  183.2940  176.8750  139.9160 O   0  0  0  0  0  0  0  0  0  0  0  0
  181.3730  175.5640  139.9010 O   0  0  0  0  0  1  0  0  0  0  0  0
  181.2750  178.0480  138.2400 C   0  0  1  0  0  3  0  0  0  0  0  0
  182.4470  176.0510  139.1380 C   0  0  1  0  0  3  0  0  0  0  0  0
  181.9550  176.7810  137.9620 N   0  0  0  0  0  0  0  0  0  0  0  0
  181.3670  179.9540  139.6490 F   0  0  0  0  0  0  0  0  0  0  0  0
  182.1320  178.9020  139.1730 C   0  0  1  0  0  3  0  0  0  0  0  0
  182.5690  178.0150  140.3510 C   0  0  2  0  0  3  0  0  0  0  0  0
  182.6800  175.3390  136.1770 C   0  0  0  0  0  0  0  0  0  0  0  0
  182.4780  176.5240  136.6750 N   0  0  0  0  0  0  0  0  0  0  0  0
  182.3460  174.0260  136.8220 C   0  0  2  0  0  3  0  0  0  0  0  0
  182.8660  173.1060  135.7610 C   0  0  0  0  0  0  0  0  0  0  0  0
  180.8370  173.8790  136.9280 C   0  0  0  0  0  1  0  0  0  0  0  0
  183.2360  175.1530  134.9220 O   0  0  0  0  0  0  0  0  0  0  0  0
  183.3650  173.8190  134.6340 N   0  0  0  0  0  2  0  0  0  0  0  0
  182.8880  171.7800  135.8620 C   0  0  0  0  0  3  0  0  0  0  0  0
  183.4280  170.9160  134.7710 C   0  0  0  0  0  2  0  0  0  0  0  0
  186.1070  171.1260  135.3510 C   0  0  0  0  0  0  0  0  0  0  0  0
  185.9490  169.8110  134.9880 O   0  0  0  0  0  0  0  0  0  0  0  0
  184.8790  170.6710  134.9950 C   0  0  0  0  0  0  0  0  0  0  0  0
  188.3170  171.6710  136.2640 C   0  0  0  0  0  1  0  0  0  0  0  0
  186.9830  172.2340  135.8190 C   0  0  0  0  0  3  0  0  0  0  0  0
  186.3250  172.9520  136.9820 C   0  0  0  0  0  1  0  0  0  0  0  0
  178.9350  177.1650  136.6660 C   0  0  0  0  0  1  0  0  0  0  0  0
  179.7180  178.3160  136.2350 N   0  0  0  0  0  0  0  0  0  0  0  0
  180.8470  178.7750  136.9920 C   0  0  0  0  0  0  0  0  0  0  0  0
  181.5120  179.7680  136.5900 O   0  0  0  0  0  0  0  0  0  0  0  0
  179.3310  178.9890  135.0030 C   0  0  0  0  0  1  0  0  0  0  0  0
  182.6500  178.9160  142.5750 O   0  0  0  0  0  1  0  0  0  0  0  0
  183.3660  178.8180  141.3780 C   0  0  1  0  0  3  0  0  0  0  0  0
  184.7780  178.2700  141.6110 C   0  0  2  0  0  3  0  0  0  0  0  0
  185.2830  178.6830  142.8500 O   0  0  0  0  0  1  0  0  0  0  0  0
  185.7070  178.6800  140.5120 C   0  0  0  0  0  0  0  0  0  0  0  0
  185.4710  179.6800  139.8460 O   0  0  0  0  0  0  0  0  0  0  0  0
  186.9320  177.8460  140.2540 C   0  0  1  0  0  3  0  0  0  0  0  0
  189.7690  177.7980  139.0350 O   0  0  0  0  0  1  0  0  0  0  0  0
  188.6820  178.6490  139.2800 C   0  0  1  0  0  3  0  0  0  0  0  0
  187.4030  177.9770  138.8060 C   0  0  0  0  0  2  0  0  0  0  0  0
  188.1930  178.5500  140.7340 C   0  0  2  0  0  3  0  0  0  0  0  0
  188.9620  177.6630  141.5040 O   0  0  0  0  0  0  0  0  0  0  0  0
  188.2820  177.1430  143.7740 C   0  0  2  0  0  0  0  0  0  0  0  0
  189.7830  177.3820  143.7710 C   0  0  1  0  0  0  0  0  0  0  0  0
  190.5620  176.3880  143.1600 O   0  0  0  0  0  1  0  0  0  0  0  0
  187.8290  175.9790  143.1640 F   0  0  0  0  0  0  0  0  0  0  0  0
  188.8860  178.1730  142.8110 C   0  0  1  0  0  3  0  0  0  0  0  0
  187.2250  177.1520  145.9910 C   0  0  0  0  0  3  0  0  0  0  0  0
  187.4400  177.7710  144.8380 C   0  0  0  0  0  3  0  0  0  0  0  0
  186.4270  177.7520  146.9620 O   0  0  0  0  0  0  0  0  0  0  0  0
  184.2080  178.2090  146.5040 O   0  0  0  0  0  1  0  0  0  0  0  0
  185.6650  179.9740  146.4490 O   0  0  0  0  0  0  0  0  0  0  0  0
  185.3910  178.6260  146.6340 C   0  0  0  0  0  0  0  0  0  0  0  0
  190.4300  178.2350  144.8570 C   0  0  0  0  0  2  0  0  0  0  0  0
  191.2620  179.3460  144.2380 C   0  0  0  0  0  2  0  0  0  0  0  0
  192.6060  179.1160  144.5110 O   0  0  0  0  0  1  0  0  0  0  0  0
  1  8  1  0  0  0  0
  3 26  1  6  0  0  0
  3  7  1  0  0  0  0
  4  2  1  1  0  0  0
  4  1  1  0  0  0  0
  5  3  1  0  0  0  0
  5  4  1  0  0  0  0
  7  6  1  1  0  0  0
  7  8  1  0  0  0  0
  8 30  1  1  0  0  0
  9 10  2  0  0  0  0
  9 11  1  0  0  0  0
 10  5  1  0  0  0  0
 11 13  1  6  0  0  0
 12 16  2  0  0  0  0
 12 11  1  0  0  0  0
 14  9  1  0  0  0  0
 15 14  1  0  0  0  0
 15 12  1  0  0  0  0
 17 20  1  0  0  0  0
 17 16  1  0  0  0  0
 18 22  1  0  0  0  0
 19 20  1  0  0  0  0
 19 18  1  0  0  0  0
 20 18  2  0  0  0  0
 22 21  1  0  0  0  0
 22 23  1  0  0  0  0
 25 24  1  0  0  0  0
 25 26  1  0  0  0  0
 27 26  2  0  0  0  0
 28 25  1  0  0  0  0
 30 31  1  0  0  0  0
 30 29  1  1  0  0  0
 31 32  1  1  0  0  0
 33 31  1  0  0  0  0
 34 33  2  0  0  0  0
 35 33  1  6  0  0  0
 35 39  1  0  0  0  0
 37 36  1  1  0  0  0
 37 39  1  0  0  0  0
 38 37  1  0  0  0  0
 38 35  1  0  0  0  0
 39 40  1  1  0  0  0
 41 44  1  6  0  0  0
 41 47  1  0  0  0  0
 42 43  1  6  0  0  0
 42 41  1  0  0  0  0
 42 52  1  0  0  0  0
 45 40  1  6  0  0  0
 45 42  1  0  0  0  0
 45 41  1  0  0  0  0
 46 48  1  0  0  0  0
 47 46  2  0  0  0  0
 49 51  1  0  0  0  0
 50 51  2  0  0  0  0
 51 48  1  0  0  0  0
 53 54  1  0  0  0  0
 53 52  1  0  0  0  0
M  END
>  <MODEL>
8

>  <REMARK>
 VINA RESULT:      -6.8      3.369      8.255
  Name = 
  16 active torsions:
  status: ('A' for Active; 'I' for Inactive)
    1  A    between atoms: O_1  and  C_31
    2  A    between atoms: O_1  and  C_48
    3  A    between atoms: C_2  and  C_15
    4  A    between atoms: C_2  and  C_45
    5  A    between atoms: C_6  and  C_37
    6  A    between atoms: C_7  and  C_36
    7  A    between atoms: N_11  and  N_41
    8  A    between atoms: C_13  and  C_21
    9  A    between atoms: C_13  and  C_54
   10  A    between atoms: C_14  and  C_43
   11  A    between atoms: C_15  and  C_20
   12  A    between atoms: C_17  and  C_43
   13  A    between atoms: C_23  and  C_26
   14  A    between atoms: O_29  and  C_47
   15  A    between atoms: O_29  and  C_53
   16  A    between atoms: C_45  and  C_52
                            x       y       z     vdW  Elec       q    Type
                         _______ _______ _______ _____ _____    ______ ____

>  <TORSDO>
F 16

$$$$
=
 OpenBabel11062412463D

 54 58  0  0  1  0  0  0  0  0999 V2000
  184.3020  176.0160  138.3590 O   0  0  0  0  0  0  0  0  0  0  0  0
  184.9730  177.9710  137.2920 O   0  0  0  0  0  1  0  0  0  0  0  0
  182.1790  177.0660  136.7320 C   0  0  1  0  0  3  0  0  0  0  0  0
  184.1120  177.4140  138.2520 C   0  0  1  0  0  3  0  0  0  0  0  0
  182.7120  177.7200  137.9290 N   0  0  0  0  0  0  0  0  0  0  0  0
  182.2270  175.0180  135.5370 F   0  0  0  0  0  0  0  0  0  0  0  0
  182.4790  175.5690  136.7830 C   0  0  1  0  0  3  0  0  0  0  0  0
  183.9680  175.4010  137.1240 C   0  0  2  0  0  3  0  0  0  0  0  0
  182.1520  178.4420  140.1550 C   0  0  0  0  0  0  0  0  0  0  0  0
  181.8330  178.2270  138.9120 N   0  0  0  0  0  0  0  0  0  0  0  0
  183.5050  178.2670  140.7780 C   0  0  2  0  0  3  0  0  0  0  0  0
  183.1620  178.6340  142.1890 C   0  0  0  0  0  0  0  0  0  0  0  0
  184.4670  179.2950  140.2060 C   0  0  0  0  0  1  0  0  0  0  0  0
  181.2290  178.9030  141.0820 O   0  0  0  0  0  0  0  0  0  0  0  0
  181.8010  179.0300  142.3210 N   0  0  0  0  0  2  0  0  0  0  0  0
  184.0130  178.5720  143.2090 C   0  0  0  0  0  3  0  0  0  0  0  0
  183.6080  178.9430  144.5960 C   0  0  0  0  0  2  0  0  0  0  0  0
  185.9870  178.3500  145.8380 C   0  0  0  0  0  0  0  0  0  0  0  0
  185.4660  179.3720  146.5930 O   0  0  0  0  0  0  0  0  0  0  0  0
  184.7920  178.8940  145.4960 C   0  0  0  0  0  0  0  0  0  0  0  0
  188.3920  177.9340  146.0890 C   0  0  0  0  0  1  0  0  0  0  0  0
  187.0810  177.3760  145.5720 C   0  0  0  0  0  3  0  0  0  0  0  0
  187.1940  177.1240  144.0810 C   0  0  0  0  0  1  0  0  0  0  0  0
  181.3440  179.4170  135.1470 C   0  0  0  0  0  1  0  0  0  0  0  0
  180.3440  178.5330  135.7310 N   0  0  0  0  0  0  0  0  0  0  0  0
  180.7240  177.3750  136.4890 C   0  0  0  0  0  0  0  0  0  0  0  0
  179.8370  176.6330  136.9910 O   0  0  0  0  0  0  0  0  0  0  0  0
  178.9390  178.8590  135.5350 C   0  0  0  0  0  1  0  0  0  0  0  0
  183.2400  173.1160  137.2330 O   0  0  0  0  0  1  0  0  0  0  0  0
  184.3720  173.9280  137.1140 C   0  0  1  0  0  3  0  0  0  0  0  0
  185.2170  173.5390  135.8960 C   0  0  2  0  0  3  0  0  0  0  0  0
  184.8880  172.2570  135.4400 O   0  0  0  0  0  1  0  0  0  0  0  0
  186.6800  173.6170  136.2040 C   0  0  0  0  0  0  0  0  0  0  0  0
  187.1570  172.9400  137.1060 O   0  0  0  0  0  0  0  0  0  0  0  0
  187.5430  174.5330  135.3800 C   0  0  1  0  0  3  0  0  0  0  0  0
  188.2020  177.4680  134.6870 O   0  0  0  0  0  1  0  0  0  0  0  0
  187.3940  176.6810  135.5190 C   0  0  1  0  0  3  0  0  0  0  0  0
  186.7110  175.6080  134.6840 C   0  0  0  0  0  2  0  0  0  0  0  0
  188.2050  175.5950  136.2450 C   0  0  2  0  0  3  0  0  0  0  0  0
  189.5760  175.6560  135.9480 O   0  0  0  0  0  0  0  0  0  0  0  0
  191.6470  175.9410  137.1780 C   0  0  2  0  0  0  0  0  0  0  0  0
  190.5510  176.6940  137.9130 C   0  0  1  0  0  0  0  0  0  0  0  0
  190.0850  177.8620  137.2910 O   0  0  0  0  0  1  0  0  0  0  0  0
  192.0680  176.4690  135.9630 F   0  0  0  0  0  0  0  0  0  0  0  0
  190.2140  175.3940  137.1720 C   0  0  1  0  0  3  0  0  0  0  0  0
  193.7440  174.6840  137.4250 C   0  0  0  0  0  3  0  0  0  0  0  0
  192.5910  175.0770  137.9520 C   0  0  0  0  0  3  0  0  0  0  0  0
  194.6010  173.8700  138.1610 O   0  0  0  0  0  0  0  0  0  0  0  0
  195.4550  175.2310  139.8220 O   0  0  0  0  0  1  0  0  0  0  0  0
  196.9550  173.9710  138.6370 O   0  0  0  0  0  0  0  0  0  0  0  0
  195.6590  174.3890  138.9060 C   0  0  0  0  0  0  0  0  0  0  0  0
  190.4280  176.5920  139.4290 C   0  0  0  0  0  2  0  0  0  0  0  0
  189.6830  177.7930  139.9870 C   0  0  0  0  0  2  0  0  0  0  0  0
  188.3200  177.6280  139.7630 O   0  0  0  0  0  1  0  0  0  0  0  0
  3 26  1  1  0  0  0
  3  7  1  0  0  0  0
  3  5  1  0  0  0  0
  4  2  1  6  0  0  0
  4  1  1  0  0  0  0
  5  4  1  0  0  0  0
  5 10  1  0  0  0  0
  7  6  1  6  0  0  0
  7  8  1  0  0  0  0
  8 30  1  1  0  0  0
  8  1  1  0  0  0  0
  9 11  1  0  0  0  0
  9 14  1  0  0  0  0
 10  9  2  0  0  0  0
 11 13  1  6  0  0  0
 11 12  1  0  0  0  0
 12 15  1  0  0  0  0
 12 16  2  0  0  0  0
 14 15  1  0  0  0  0
 16 17  1  0  0  0  0
 17 20  1  0  0  0  0
 18 19  1  0  0  0  0
 20 18  2  0  0  0  0
 20 19  1  0  0  0  0
 22 18  1  0  0  0  0
 22 21  1  0  0  0  0
 23 22  1  0  0  0  0
 24 25  1  0  0  0  0
 25 26  1  0  0  0  0
 26 27  2  0  0  0  0
 28 25  1  0  0  0  0
 30 29  1  6  0  0  0
 31 32  1  1  0  0  0
 31 33  1  0  0  0  0
 31 30  1  0  0  0  0
 33 34  2  0  0  0  0
 35 33  1  1  0  0  0
 35 39  1  0  0  0  0
 37 36  1  6  0  0  0
 37 39  1  0  0  0  0
 38 35  1  0  0  0  0
 38 37  1  0  0  0  0
 39 40  1  6  0  0  0
 41 44  1  6  0  0  0
 41 42  1  0  0  0  0
 41 47  1  0  0  0  0
 42 43  1  6  0  0  0
 42 52  1  0  0  0  0
 45 40  1  6  0  0  0
 45 41  1  0  0  0  0
 45 42  1  0  0  0  0
 46 47  2  0  0  0  0
 46 48  1  0  0  0  0
 48 51  1  0  0  0  0
 50 51  2  0  0  0  0
 51 49  1  0  0  0  0
 52 53  1  0  0  0  0
 54 53  1  0  0  0  0
M  END
>  <MODEL>
9

>  <REMARK>
 VINA RESULT:      -6.8      2.045      2.918
  Name = 
  16 active torsions:
  status: ('A' for Active; 'I' for Inactive)
    1  A    between atoms: O_1  and  C_31
    2  A    between atoms: O_1  and  C_48
    3  A    between atoms: C_2  and  C_15
    4  A    between atoms: C_2  and  C_45
    5  A    between atoms: C_6  and  C_37
    6  A    between atoms: C_7  and  C_36
    7  A    between atoms: N_11  and  N_41
    8  A    between atoms: C_13  and  C_21
    9  A    between atoms: C_13  and  C_54
   10  A    between atoms: C_14  and  C_43
   11  A    between atoms: C_15  and  C_20
   12  A    between atoms: C_17  and  C_43
   13  A    between atoms: C_23  and  C_26
   14  A    between atoms: O_29  and  C_47
   15  A    between atoms: O_29  and  C_53
   16  A    between atoms: C_45  and  C_52
                            x       y       z     vdW  Elec       q    Type
                         _______ _______ _______ _____ _____    ______ ____

>  <TORSDO>
F 16

$$$$
