=
 OpenBabel11062413393D

 42 47  0  0  1  0  0  0  0  0999 V2000
  180.4960  178.7400  136.9910 C   0  0  2  0  0  3  0  0  0  0  0  0
  181.6890  176.5410  134.9980 C   0  0  0  0  0  2  0  0  0  0  0  0
  182.2080  177.9290  135.2300 C   0  0  0  0  0  3  0  0  0  0  0  0
  182.4690  178.4480  141.2940 C   0  0  0  0  0  1  0  0  0  0  0  0
  183.7160  175.5100  136.1050 C   0  0  0  0  0  2  0  0  0  0  0  0
  179.8490  178.6650  139.3840 O   0  0  0  0  0  0  0  0  0  0  0  0
  184.0350  177.1010  138.0110 C   0  0  2  0  0  3  0  0  0  0  0  0
  180.0380  177.3430  137.3570 C   0  0  0  0  0  2  0  0  0  0  0  0
  182.6570  180.5900  138.7210 C   0  0  0  0  0  2  0  0  0  0  0  0
  181.7150  178.8330  136.0920 C   0  0  0  0  0  3  0  0  0  0  0  0
  183.4030  177.1110  139.4010 C   0  0  0  0  0  2  0  0  0  0  0  0
  180.8620  178.9570  138.4550 C   0  0  2  0  0  0  0  0  0  0  0  0
  184.2180  175.6630  137.5330 C   0  0  0  0  0  2  0  0  0  0  0  0
  182.1920  175.5800  136.0750 C   0  0  2  0  0  3  0  0  0  0  0  0
  182.2340  179.3530  138.9760 C   0  0  0  0  0  0  0  0  0  0  0  0
  180.4860  177.5570  138.7910 C   0  0  1  0  0  3  0  0  0  0  0  0
  183.0830  178.5180  139.9100 C   0  0  1  0  0  3  0  0  0  0  0  0
  178.9310  174.3440  135.7480 O   0  0  0  0  0  0  0  0  0  0  0  0
  181.1060  173.4630  137.0260 C   0  0  1  0  0  0  0  0  0  0  0  0
  182.0450  173.4220  134.8080 O   0  0  0  0  0  1  0  0  0  0  0  0
  180.0780  174.0970  136.0850 C   0  0  0  0  0  0  0  0  0  0  0  0
  181.5980  174.1860  135.8900 C   0  0  2  0  0  0  0  0  0  0  0  0
  181.1440  174.1040  138.2680 O   0  0  0  0  0  1  0  0  0  0  0  0
  181.0730  171.9440  137.0240 C   0  0  0  0  0  2  0  0  0  0  0  0
  179.8540  171.4990  137.5370 O   0  0  0  0  0  1  0  0  0  0  0  0
  185.3320  177.9190  137.9290 C   0  0  1  0  0  3  0  0  0  0  0  0
  186.3630  177.4920  138.9710 C   0  0  2  0  0  3  0  0  0  0  0  0
  186.5600  178.6240  139.9610 C   0  0  2  0  0  3  0  0  0  0  0  0
  187.5880  178.3800  138.8770 C   0  0  0  0  0  2  0  0  0  0  0  0
  187.0680  178.0710  141.2820 C   0  0  2  0  0  3  0  0  0  0  0  0
  185.5830  179.5310  142.3870 O   0  0  0  0  0  0  0  0  0  0  0  0
  186.1110  178.4320  142.3720 C   0  0  0  0  0  3  0  0  0  0  0  0
  188.3250  178.6160  141.5650 O   0  0  0  0  0  0  0  0  0  0  0  0
  188.8850  177.7730  142.5290 C   0  0  2  0  0  3  0  0  0  0  0  0
  190.8850  176.3710  143.9360 N   0  0  0  0  0  0  0  0  0  0  0  0
  190.3950  177.6280  144.4750 C   0  0  0  0  0  2  0  0  0  0  0  0
  189.8680  178.5550  143.3850 C   0  0  0  0  0  2  0  0  0  0  0  0
  189.6230  176.6290  141.8410 C   0  0  0  0  0  2  0  0  0  0  0  0
  190.5170  175.8810  142.7980 C   0  0  0  0  0  3  0  0  0  0  0  0
  185.8760  177.8310  136.6450 O   0  0  0  0  0  0  0  0  0  0  0  0
  186.8870  176.8720  136.7480 C   0  0  0  0  0  2  0  0  0  0  0  0
  187.6950  176.9270  135.6140 O   0  0  0  0  0  1  0  0  0  0  0  0
  1 10  1  6  0  0  0
  1  8  1  0  0  0  0
  1 12  1  0  0  0  0
  2  3  1  0  0  0  0
  3 10  2  0  0  0  0
  5 13  1  0  0  0  0
  7 26  1  1  0  0  0
  7 11  1  0  0  0  0
  9 15  2  0  0  0  0
 11 17  1  0  0  0  0
 12 16  1  0  0  0  0
 12 15  1  1  0  0  0
 12  6  1  0  0  0  0
 13  7  1  0  0  0  0
 14  2  1  6  0  0  0
 14  5  1  0  0  0  0
 15 17  1  0  0  0  0
 16  8  1  6  0  0  0
 16  6  1  0  0  0  0
 17  4  1  1  0  0  0
 18 21  2  0  0  0  0
 19 23  1  1  0  0  0
 21 19  1  0  0  0  0
 22 20  1  6  0  0  0
 22 14  1  0  0  0  0
 22 21  1  0  0  0  0
 22 19  1  0  0  0  0
 24 19  1  0  0  0  0
 24 25  1  0  0  0  0
 26 40  1  6  0  0  0
 27 26  1  6  0  0  0
 27 28  1  0  0  0  0
 28 30  1  1  0  0  0
 29 27  1  0  0  0  0
 29 28  1  0  0  0  0
 30 33  1  0  0  0  0
 30 32  1  1  0  0  0
 32 31  2  0  0  0  0
 34 33  1  6  0  0  0
 34 37  1  0  0  0  0
 35 36  1  0  0  0  0
 37 36  1  0  0  0  0
 38 34  1  0  0  0  0
 38 39  1  0  0  0  0
 39 35  2  0  0  0  0
 40 41  1  0  0  0  0
 42 41  1  0  0  0  0
M  END
>  <MODEL>
1

>  <REMARK>
 VINA RESULT:      -4.7      0.000      0.000
  Name = 
  10 active torsions:
  status: ('A' for Active; 'I' for Inactive)
    1  A    between atoms: C_3  and  C_23
    2  A    between atoms: C_4  and  C_30
    3  A    between atoms: C_6  and  O_9
    4  A    between atoms: C_6  and  C_18
    5  A    between atoms: C_6  and  C_31
    6  A    between atoms: O_9  and  C_13
    7  A    between atoms: C_10  and  O_21
    8  A    between atoms: C_16  and  C_30
    9  A    between atoms: O_21  and  C_30
   10  A    between atoms: C_35  and  C_36
                            x       y       z     vdW  Elec       q    Type
                         _______ _______ _______ _____ _____    ______ ____

>  <TORSDO>
F 10

$$$$
=
 OpenBabel11062413393D

 42 47  0  0  1  0  0  0  0  0999 V2000
  180.5140  176.8500  136.3790 C   0  0  2  0  0  3  0  0  0  0  0  0
  179.3570  179.6110  137.5070 C   0  0  0  0  0  2  0  0  0  0  0  0
  179.4910  178.3140  138.2500 C   0  0  0  0  0  3  0  0  0  0  0  0
  185.1890  176.4950  137.0970 C   0  0  0  0  0  1  0  0  0  0  0  0
  181.1630  180.6930  138.9080 C   0  0  0  0  0  2  0  0  0  0  0  0
  182.5930  176.2750  135.1550 O   0  0  0  0  0  0  0  0  0  0  0  0
  182.7810  178.7920  139.0900 C   0  0  2  0  0  3  0  0  0  0  0  0
  180.9630  178.0310  135.5430 C   0  0  0  0  0  2  0  0  0  0  0  0
  182.4570  175.0510  138.3970 C   0  0  0  0  0  2  0  0  0  0  0  0
  180.0050  177.1690  137.7730 C   0  0  0  0  0  3  0  0  0  0  0  0
  183.9040  178.3630  138.1500 C   0  0  0  0  0  2  0  0  0  0  0  0
  181.9620  176.3750  136.4070 C   0  0  2  0  0  0  0  0  0  0  0  0
  182.6280  180.3100  139.0590 C   0  0  0  0  0  2  0  0  0  0  0  0
  180.6810  180.3760  137.4960 C   0  0  2  0  0  3  0  0  0  0  0  0
  182.7840  176.1090  137.6570 C   0  0  0  0  0  0  0  0  0  0  0  0
  182.4070  177.5790  135.6540 C   0  0  1  0  0  3  0  0  0  0  0  0
  184.0520  176.8440  138.0370 C   0  0  1  0  0  3  0  0  0  0  0  0
  182.0810  183.5760  137.7600 O   0  0  0  0  0  0  0  0  0  0  0  0
  179.6570  182.6860  137.0700 C   0  0  1  0  0  0  0  0  0  0  0  0
  180.8770  181.5830  135.3080 O   0  0  0  0  0  1  0  0  0  0  0  0
  181.1480  182.9100  137.3380 C   0  0  0  0  0  0  0  0  0  0  0  0
  180.5710  181.6550  136.6700 C   0  0  2  0  0  0  0  0  0  0  0  0
  178.9370  182.4900  138.2520 O   0  0  0  0  0  1  0  0  0  0  0  0
  179.0760  183.6450  136.0460 C   0  0  0  0  0  2  0  0  0  0  0  0
  179.5100  184.9430  136.3170 O   0  0  0  0  0  1  0  0  0  0  0  0
  182.9420  178.2440  140.5160 C   0  0  1  0  0  3  0  0  0  0  0  0
  184.4020  178.0260  140.9000 C   0  0  2  0  0  3  0  0  0  0  0  0
  184.6640  178.6930  142.2370 C   0  0  2  0  0  3  0  0  0  0  0  0
  185.1240  179.3570  140.9570 C   0  0  0  0  0  2  0  0  0  0  0  0
  185.8460  178.0280  142.9220 C   0  0  2  0  0  3  0  0  0  0  0  0
  186.1780  177.3120  145.1440 O   0  0  0  0  0  0  0  0  0  0  0  0
  185.6950  178.1530  144.4040 C   0  0  0  0  0  3  0  0  0  0  0  0
  187.0320  178.6540  142.5200 O   0  0  0  0  0  0  0  0  0  0  0  0
  187.8920  177.6150  142.1550 C   0  0  2  0  0  3  0  0  0  0  0  0
  190.2970  176.3470  141.4110 N   0  0  0  0  0  0  0  0  0  0  0  0
  189.8720  176.2900  142.7990 C   0  0  0  0  0  2  0  0  0  0  0  0
  189.0030  177.4830  143.1840 C   0  0  0  0  0  2  0  0  0  0  0  0
  188.5070  177.9150  140.7920 C   0  0  0  0  0  2  0  0  0  0  0  0
  189.6790  177.0140  140.4930 C   0  0  0  0  0  3  0  0  0  0  0  0
  182.3220  179.1000  141.4310 O   0  0  0  0  0  0  0  0  0  0  0  0
  181.1010  178.4880  141.7250 C   0  0  0  0  0  2  0  0  0  0  0  0
  180.9210  178.4530  143.1060 O   0  0  0  0  0  1  0  0  0  0  0  0
  1  8  1  6  0  0  0
  1 12  1  0  0  0  0
  1 10  1  0  0  0  0
  2  3  1  0  0  0  0
  5 13  1  0  0  0  0
  6 16  1  0  0  0  0
  7 26  1  1  0  0  0
 10  3  2  0  0  0  0
 11  7  1  0  0  0  0
 12  6  1  6  0  0  0
 12 15  1  0  0  0  0
 13  7  1  0  0  0  0
 14  2  1  1  0  0  0
 14  5  1  0  0  0  0
 15 17  1  0  0  0  0
 15  9  2  0  0  0  0
 16  8  1  6  0  0  0
 16 12  1  0  0  0  0
 17  4  1  6  0  0  0
 17 11  1  0  0  0  0
 19 21  1  0  0  0  0
 19 23  1  1  0  0  0
 21 18  2  0  0  0  0
 22 20  1  6  0  0  0
 22 19  1  0  0  0  0
 22 21  1  0  0  0  0
 22 14  1  0  0  0  0
 24 25  1  0  0  0  0
 24 19  1  0  0  0  0
 26 40  1  1  0  0  0
 27 26  1  6  0  0  0
 27 29  1  0  0  0  0
 27 28  1  0  0  0  0
 28 30  1  1  0  0  0
 29 28  1  0  0  0  0
 30 32  1  1  0  0  0
 32 31  2  0  0  0  0
 33 30  1  0  0  0  0
 34 33  1  1  0  0  0
 34 37  1  0  0  0  0
 35 36  1  0  0  0  0
 36 37  1  0  0  0  0
 38 34  1  0  0  0  0
 39 38  1  0  0  0  0
 39 35  2  0  0  0  0
 40 41  1  0  0  0  0
 41 42  1  0  0  0  0
M  END
>  <MODEL>
2

>  <REMARK>
 VINA RESULT:      -4.6      2.621      5.732
  Name = 
  10 active torsions:
  status: ('A' for Active; 'I' for Inactive)
    1  A    between atoms: C_3  and  C_23
    2  A    between atoms: C_4  and  C_30
    3  A    between atoms: C_6  and  O_9
    4  A    between atoms: C_6  and  C_18
    5  A    between atoms: C_6  and  C_31
    6  A    between atoms: O_9  and  C_13
    7  A    between atoms: C_10  and  O_21
    8  A    between atoms: C_16  and  C_30
    9  A    between atoms: O_21  and  C_30
   10  A    between atoms: C_35  and  C_36
                            x       y       z     vdW  Elec       q    Type
                         _______ _______ _______ _____ _____    ______ ____

>  <TORSDO>
F 10

$$$$
=
 OpenBabel11062413393D

 42 47  0  0  1  0  0  0  0  0999 V2000
  182.9880  175.4120  137.0360 C   0  0  2  0  0  3  0  0  0  0  0  0
  181.2720  176.9680  139.2420 C   0  0  0  0  0  2  0  0  0  0  0  0
  182.4090  176.0190  139.4830 C   0  0  0  0  0  3  0  0  0  0  0  0
  186.7870  177.9170  135.6960 C   0  0  0  0  0  1  0  0  0  0  0  0
  182.6410  178.9380  140.0420 C   0  0  0  0  0  2  0  0  0  0  0  0
  184.1500  176.1600  134.9760 O   0  0  0  0  0  0  0  0  0  0  0  0
  184.8610  178.3730  139.0320 C   0  0  2  0  0  3  0  0  0  0  0  0
  182.2750  176.6130  136.4490 C   0  0  0  0  0  2  0  0  0  0  0  0
  186.2710  175.1590  137.5310 C   0  0  0  0  0  2  0  0  0  0  0  0
  183.1410  175.3940  138.5460 C   0  0  0  0  0  3  0  0  0  0  0  0
  185.4160  178.6770  137.6430 C   0  0  0  0  0  2  0  0  0  0  0  0
  184.2640  175.8900  136.3510 C   0  0  2  0  0  0  0  0  0  0  0  0
  183.9390  179.5020  139.4830 C   0  0  0  0  0  2  0  0  0  0  0  0
  181.7880  178.3690  138.9130 C   0  0  2  0  0  3  0  0  0  0  0  0
  185.5830  176.1890  137.0430 C   0  0  0  0  0  0  0  0  0  0  0  0
  183.5750  177.1080  135.8440 C   0  0  1  0  0  3  0  0  0  0  0  0
  186.2650  177.5400  137.0690 C   0  0  1  0  0  3  0  0  0  0  0  0
  178.9550  178.1450  136.8640 O   0  0  0  0  0  0  0  0  0  0  0  0
  180.6850  180.1130  137.3930 C   0  0  1  0  0  0  0  0  0  0  0  0
  179.8840  179.8250  139.6480 O   0  0  0  0  0  1  0  0  0  0  0  0
  179.7630  178.8890  137.3970 C   0  0  0  0  0  0  0  0  0  0  0  0
  180.6360  179.3160  138.5850 C   0  0  2  0  0  0  0  0  0  0  0  0
  181.7810  179.9400  136.5430 O   0  0  0  0  0  1  0  0  0  0  0  0
  179.9380  181.4320  137.3120 C   0  0  0  0  0  2  0  0  0  0  0  0
  180.7430  182.4610  137.8020 O   0  0  0  0  0  1  0  0  0  0  0  0
  185.9530  178.0550  140.0650 C   0  0  1  0  0  3  0  0  0  0  0  0
  187.3610  178.2570  139.5110 C   0  0  2  0  0  3  0  0  0  0  0  0
  188.3460  177.5040  140.3870 C   0  0  2  0  0  3  0  0  0  0  0  0
  188.2090  179.0050  140.5210 C   0  0  0  0  0  2  0  0  0  0  0  0
  189.5950  177.1730  139.5890 C   0  0  2  0  0  3  0  0  0  0  0  0
  189.7520  176.7170  137.2800 O   0  0  0  0  0  0  0  0  0  0  0  0
  189.2090  176.4500  138.3390 C   0  0  0  0  0  3  0  0  0  0  0  0
  190.4390  176.3620  140.3550 O   0  0  0  0  0  0  0  0  0  0  0  0
  190.4320  176.9260  141.6340 C   0  0  2  0  0  3  0  0  0  0  0  0
  191.2330  177.3830  144.2980 N   0  0  0  0  0  0  0  0  0  0  0  0
  191.6860  178.2940  143.2610 C   0  0  0  0  0  2  0  0  0  0  0  0
  191.7600  177.6200  141.8950 C   0  0  0  0  0  2  0  0  0  0  0  0
  190.2290  175.8310  142.6750 C   0  0  0  0  0  2  0  0  0  0  0  0
  190.5400  176.3160  144.0690 C   0  0  0  0  0  3  0  0  0  0  0  0
  185.7680  178.8310  141.2130 O   0  0  0  0  0  0  0  0  0  0  0  0
  185.2870  177.9390  142.1750 C   0  0  0  0  0  2  0  0  0  0  0  0
  186.1770  177.8910  143.2470 O   0  0  0  0  0  1  0  0  0  0  0  0
  1  8  1  1  0  0  0
  1 10  1  0  0  0  0
  2  3  1  0  0  0  0
  6 16  1  0  0  0  0
  7 13  1  0  0  0  0
  7 26  1  1  0  0  0
 10  3  2  0  0  0  0
 11  7  1  0  0  0  0
 12  6  1  6  0  0  0
 12  1  1  0  0  0  0
 12 15  1  0  0  0  0
 13  5  1  0  0  0  0
 14  2  1  1  0  0  0
 14  5  1  0  0  0  0
 15 17  1  0  0  0  0
 15  9  2  0  0  0  0
 16 12  1  0  0  0  0
 16  8  1  6  0  0  0
 17  4  1  6  0  0  0
 17 11  1  0  0  0  0
 18 21  2  0  0  0  0
 19 23  1  6  0  0  0
 19 21  1  0  0  0  0
 19 22  1  0  0  0  0
 21 22  1  0  0  0  0
 22 14  1  0  0  0  0
 22 20  1  1  0  0  0
 24 19  1  0  0  0  0
 24 25  1  0  0  0  0
 26 40  1  1  0  0  0
 27 26  1  1  0  0  0
 27 28  1  0  0  0  0
 27 29  1  0  0  0  0
 28 30  1  6  0  0  0
 28 29  1  0  0  0  0
 30 32  1  6  0  0  0
 30 33  1  0  0  0  0
 31 32  2  0  0  0  0
 34 33  1  6  0  0  0
 34 37  1  0  0  0  0
 34 38  1  0  0  0  0
 36 35  1  0  0  0  0
 37 36  1  0  0  0  0
 38 39  1  0  0  0  0
 39 35  2  0  0  0  0
 40 41  1  0  0  0  0
 41 42  1  0  0  0  0
M  END
>  <MODEL>
3

>  <REMARK>
 VINA RESULT:      -4.4      2.236      5.064
  Name = 
  10 active torsions:
  status: ('A' for Active; 'I' for Inactive)
    1  A    between atoms: C_3  and  C_23
    2  A    between atoms: C_4  and  C_30
    3  A    between atoms: C_6  and  O_9
    4  A    between atoms: C_6  and  C_18
    5  A    between atoms: C_6  and  C_31
    6  A    between atoms: O_9  and  C_13
    7  A    between atoms: C_10  and  O_21
    8  A    between atoms: C_16  and  C_30
    9  A    between atoms: O_21  and  C_30
   10  A    between atoms: C_35  and  C_36
                            x       y       z     vdW  Elec       q    Type
                         _______ _______ _______ _____ _____    ______ ____

>  <TORSDO>
F 10

$$$$
=
 OpenBabel11062413393D

 42 47  0  0  1  0  0  0  0  0999 V2000
  181.9840  175.3260  138.2360 C   0  0  2  0  0  3  0  0  0  0  0  0
  181.8560  178.1020  139.8190 C   0  0  0  0  0  2  0  0  0  0  0  0
  182.7800  176.9510  140.0840 C   0  0  0  0  0  3  0  0  0  0  0  0
  185.0280  175.5290  134.6030 C   0  0  0  0  0  1  0  0  0  0  0  0
  183.7610  179.5500  139.0010 C   0  0  0  0  0  2  0  0  0  0  0  0
  182.1110  174.7730  135.8210 O   0  0  0  0  0  0  0  0  0  0  0  0
  185.0750  177.8600  137.7030 C   0  0  2  0  0  3  0  0  0  0  0  0
  181.2980  176.4050  137.4230 C   0  0  0  0  0  2  0  0  0  0  0  0
  184.9920  174.0440  137.6090 C   0  0  0  0  0  2  0  0  0  0  0  0
  182.8430  175.8020  139.3920 C   0  0  0  0  0  3  0  0  0  0  0  0
  184.9290  177.4030  136.2540 C   0  0  0  0  0  2  0  0  0  0  0  0
  182.8280  175.0000  137.0080 C   0  0  2  0  0  0  0  0  0  0  0  0
  184.7010  179.3350  137.8240 C   0  0  0  0  0  2  0  0  0  0  0  0
  182.3830  178.9790  138.6830 C   0  0  2  0  0  3  0  0  0  0  0  0
  184.3470  175.0050  136.9500 C   0  0  0  0  0  0  0  0  0  0  0  0
  182.2050  176.1140  136.2430 C   0  0  1  0  0  3  0  0  0  0  0  0
  185.1800  175.9060  136.0640 C   0  0  1  0  0  3  0  0  0  0  0  0
  178.9390  179.1030  138.0500 O   0  0  0  0  0  0  0  0  0  0  0  0
  181.0460  180.3630  136.9900 C   0  0  1  0  0  0  0  0  0  0  0  0
  181.3260  181.1840  139.2380 O   0  0  0  0  0  1  0  0  0  0  0  0
  180.0220  179.6390  137.8700 C   0  0  0  0  0  0  0  0  0  0  0  0
  181.4030  180.1030  138.3550 C   0  0  2  0  0  0  0  0  0  0  0  0
  181.5800  179.5210  136.0090 O   0  0  0  0  0  1  0  0  0  0  0  0
  180.5980  181.7480  136.5560 C   0  0  0  0  0  2  0  0  0  0  0  0
  179.3170  181.6790  136.0080 O   0  0  0  0  0  1  0  0  0  0  0  0
  186.4550  177.5510  138.3000 C   0  0  1  0  0  3  0  0  0  0  0  0
  187.4690  177.1180  137.2450 C   0  0  2  0  0  3  0  0  0  0  0  0
  188.6490  176.4610  137.9360 C   0  0  2  0  0  3  0  0  0  0  0  0
  188.7640  177.8830  137.4290 C   0  0  0  0  0  2  0  0  0  0  0  0
  189.3500  175.5170  136.9730 C   0  0  2  0  0  3  0  0  0  0  0  0
  188.1470  173.9780  135.6520 O   0  0  0  0  0  0  0  0  0  0  0  0
  188.5070  174.2990  136.7720 C   0  0  0  0  0  3  0  0  0  0  0  0
  190.5890  175.1440  137.5040 O   0  0  0  0  0  0  0  0  0  0  0  0
  191.5390  175.6360  136.6040 C   0  0  2  0  0  3  0  0  0  0  0  0
  193.9960  175.8250  135.2340 N   0  0  0  0  0  0  0  0  0  0  0  0
  192.8830  175.1450  134.5940 C   0  0  0  0  0  2  0  0  0  0  0  0
  191.9110  174.5500  135.6070 C   0  0  0  0  0  2  0  0  0  0  0  0
  192.7900  176.0650  137.3640 C   0  0  0  0  0  2  0  0  0  0  0  0
  193.9600  176.2900  136.4400 C   0  0  0  0  0  3  0  0  0  0  0  0
  186.9330  178.6600  139.0040 O   0  0  0  0  0  0  0  0  0  0  0  0
  186.7930  178.3190  140.3520 C   0  0  0  0  0  2  0  0  0  0  0  0
  188.0530  178.1420  140.9190 O   0  0  0  0  0  1  0  0  0  0  0  0
  1  8  1  6  0  0  0
  1 10  1  0  0  0  0
  2  3  1  0  0  0  0
  6 16  1  0  0  0  0
  7 13  1  0  0  0  0
  7 26  1  6  0  0  0
 10  3  2  0  0  0  0
 11  7  1  0  0  0  0
 12  6  1  6  0  0  0
 12  1  1  0  0  0  0
 13  5  1  0  0  0  0
 14  5  1  1  0  0  0
 14  2  1  0  0  0  0
 15 12  1  0  0  0  0
 15  9  2  0  0  0  0
 16 12  1  0  0  0  0
 16  8  1  1  0  0  0
 17  4  1  6  0  0  0
 17 11  1  0  0  0  0
 17 15  1  0  0  0  0
 19 23  1  6  0  0  0
 19 21  1  0  0  0  0
 19 22  1  0  0  0  0
 21 18  2  0  0  0  0
 21 22  1  0  0  0  0
 22 14  1  0  0  0  0
 22 20  1  1  0  0  0
 24 19  1  0  0  0  0
 25 24  1  0  0  0  0
 26 40  1  6  0  0  0
 27 29  1  0  0  0  0
 27 28  1  0  0  0  0
 27 26  1  1  0  0  0
 28 30  1  6  0  0  0
 29 28  1  0  0  0  0
 30 32  1  1  0  0  0
 30 33  1  0  0  0  0
 31 32  2  0  0  0  0
 34 38  1  0  0  0  0
 34 33  1  1  0  0  0
 35 39  2  0  0  0  0
 36 35  1  0  0  0  0
 36 37  1  0  0  0  0
 37 34  1  0  0  0  0
 39 38  1  0  0  0  0
 40 41  1  0  0  0  0
 41 42  1  0  0  0  0
M  END
>  <MODEL>
4

>  <REMARK>
 VINA RESULT:      -4.3      3.162      6.055
  Name = 
  10 active torsions:
  status: ('A' for Active; 'I' for Inactive)
    1  A    between atoms: C_3  and  C_23
    2  A    between atoms: C_4  and  C_30
    3  A    between atoms: C_6  and  O_9
    4  A    between atoms: C_6  and  C_18
    5  A    between atoms: C_6  and  C_31
    6  A    between atoms: O_9  and  C_13
    7  A    between atoms: C_10  and  O_21
    8  A    between atoms: C_16  and  C_30
    9  A    between atoms: O_21  and  C_30
   10  A    between atoms: C_35  and  C_36
                            x       y       z     vdW  Elec       q    Type
                         _______ _______ _______ _____ _____    ______ ____

>  <TORSDO>
F 10

$$$$
=
 OpenBabel11062413393D

 42 47  0  0  1  0  0  0  0  0999 V2000
  182.9870  175.0660  137.0320 C   0  0  2  0  0  3  0  0  0  0  0  0
  181.5420  176.9710  139.1560 C   0  0  0  0  0  2  0  0  0  0  0  0
  182.6730  176.0200  139.4150 C   0  0  0  0  0  3  0  0  0  0  0  0
  186.6930  177.2170  134.9970 C   0  0  0  0  0  1  0  0  0  0  0  0
  183.0340  178.9770  139.5390 C   0  0  0  0  0  2  0  0  0  0  0  0
  183.9530  175.4820  134.7850 O   0  0  0  0  0  0  0  0  0  0  0  0
  185.1250  178.1950  138.4070 C   0  0  2  0  0  3  0  0  0  0  0  0
  182.2480  176.2020  136.3550 C   0  0  0  0  0  2  0  0  0  0  0  0
  186.2960  174.7550  137.2370 C   0  0  0  0  0  2  0  0  0  0  0  0
  183.2910  175.2470  138.5080 C   0  0  0  0  0  3  0  0  0  0  0  0
  185.5440  178.2860  136.9430 C   0  0  0  0  0  2  0  0  0  0  0  0
  184.1980  175.3970  136.1670 C   0  0  2  0  0  0  0  0  0  0  0  0
  184.2820  179.4100  138.7840 C   0  0  0  0  0  2  0  0  0  0  0  0
  182.0570  178.2930  138.5870 C   0  0  2  0  0  3  0  0  0  0  0  0
  185.5880  175.7360  136.6800 C   0  0  0  0  0  0  0  0  0  0  0  0
  183.4920  176.5610  135.5650 C   0  0  1  0  0  3  0  0  0  0  0  0
  186.3020  177.0510  136.4520 C   0  0  1  0  0  3  0  0  0  0  0  0
  178.9380  177.8600  137.0520 O   0  0  0  0  0  0  0  0  0  0  0  0
  180.7950  179.7780  136.9230 C   0  0  1  0  0  0  0  0  0  0  0  0
  180.3390  179.9840  139.2800 O   0  0  0  0  0  1  0  0  0  0  0  0
  179.8430  178.6400  137.3030 C   0  0  0  0  0  0  0  0  0  0  0  0
  180.9020  179.2320  138.2440 C   0  0  2  0  0  0  0  0  0  0  0  0
  181.7420  179.3740  135.9760 O   0  0  0  0  0  1  0  0  0  0  0  0
  180.0900  181.1020  136.6860 C   0  0  0  0  0  2  0  0  0  0  0  0
  180.7100  181.7860  135.6410 O   0  0  0  0  0  1  0  0  0  0  0  0
  186.3080  177.9780  139.3640 C   0  0  1  0  0  3  0  0  0  0  0  0
  187.6130  177.6870  138.6270 C   0  0  2  0  0  3  0  0  0  0  0  0
  188.7430  177.6200  139.6380 C   0  0  2  0  0  3  0  0  0  0  0  0
  188.5640  178.8570  138.7840 C   0  0  0  0  0  2  0  0  0  0  0  0
  189.8780  176.7760  139.0840 C   0  0  2  0  0  3  0  0  0  0  0  0
  191.8660  177.5020  140.1260 O   0  0  0  0  0  0  0  0  0  0  0  0
  190.9670  176.6790  140.1050 C   0  0  0  0  0  3  0  0  0  0  0  0
  190.3810  177.3730  137.9230 O   0  0  0  0  0  0  0  0  0  0  0  0
  190.5990  176.3190  137.0310 C   0  0  2  0  0  3  0  0  0  0  0  0
  189.9770  174.2750  135.1920 N   0  0  0  0  0  0  0  0  0  0  0  0
  190.4160  175.5650  134.6880 C   0  0  0  0  0  2  0  0  0  0  0  0
  190.0870  176.7010  135.6510 C   0  0  0  0  0  2  0  0  0  0  0  0
  189.8540  175.0790  137.5130 C   0  0  0  0  0  2  0  0  0  0  0  0
  189.7740  174.0190  136.4420 C   0  0  0  0  0  3  0  0  0  0  0  0
  186.4600  179.0900  140.1980 O   0  0  0  0  0  0  0  0  0  0  0  0
  186.0600  178.6470  141.4620 C   0  0  0  0  0  2  0  0  0  0  0  0
  185.3800  179.6710  142.1170 O   0  0  0  0  0  1  0  0  0  0  0  0
  1  8  1  6  0  0  0
  1 10  1  0  0  0  0
  2  3  1  0  0  0  0
  6 16  1  0  0  0  0
  7 13  1  0  0  0  0
  7 26  1  1  0  0  0
 10  3  2  0  0  0  0
 11  7  1  0  0  0  0
 12  6  1  6  0  0  0
 12 15  1  0  0  0  0
 12  1  1  0  0  0  0
 13  5  1  0  0  0  0
 14  2  1  1  0  0  0
 14  5  1  0  0  0  0
 15  9  2  0  0  0  0
 16 12  1  0  0  0  0
 16  8  1  1  0  0  0
 17  4  1  6  0  0  0
 17 15  1  0  0  0  0
 17 11  1  0  0  0  0
 18 21  2  0  0  0  0
 19 23  1  6  0  0  0
 19 21  1  0  0  0  0
 19 22  1  0  0  0  0
 21 22  1  0  0  0  0
 22 14  1  0  0  0  0
 22 20  1  1  0  0  0
 24 19  1  0  0  0  0
 25 24  1  0  0  0  0
 26 40  1  6  0  0  0
 27 29  1  0  0  0  0
 27 26  1  1  0  0  0
 27 28  1  0  0  0  0
 28 30  1  6  0  0  0
 29 28  1  0  0  0  0
 30 32  1  1  0  0  0
 32 31  2  0  0  0  0
 33 30  1  0  0  0  0
 34 38  1  0  0  0  0
 34 33  1  1  0  0  0
 35 39  2  0  0  0  0
 36 35  1  0  0  0  0
 36 37  1  0  0  0  0
 37 34  1  0  0  0  0
 39 38  1  0  0  0  0
 40 41  1  0  0  0  0
 41 42  1  0  0  0  0
M  END
>  <MODEL>
5

>  <REMARK>
 VINA RESULT:      -4.3      2.760      5.742
  Name = 
  10 active torsions:
  status: ('A' for Active; 'I' for Inactive)
    1  A    between atoms: C_3  and  C_23
    2  A    between atoms: C_4  and  C_30
    3  A    between atoms: C_6  and  O_9
    4  A    between atoms: C_6  and  C_18
    5  A    between atoms: C_6  and  C_31
    6  A    between atoms: O_9  and  C_13
    7  A    between atoms: C_10  and  O_21
    8  A    between atoms: C_16  and  C_30
    9  A    between atoms: O_21  and  C_30
   10  A    between atoms: C_35  and  C_36
                            x       y       z     vdW  Elec       q    Type
                         _______ _______ _______ _____ _____    ______ ____

>  <TORSDO>
F 10

$$$$
=
 OpenBabel11062413393D

 42 47  0  0  1  0  0  0  0  0999 V2000
  186.0810  178.4270  136.6140 C   0  0  2  0  0  3  0  0  0  0  0  0
  185.3980  175.9020  134.7730 C   0  0  0  0  0  2  0  0  0  0  0  0
  186.5370  176.8640  134.6040 C   0  0  0  0  0  3  0  0  0  0  0  0
  189.0130  177.2610  140.1560 C   0  0  0  0  0  1  0  0  0  0  0  0
  186.9700  174.0270  135.4140 C   0  0  0  0  0  2  0  0  0  0  0  0
  186.3120  178.7040  139.0680 O   0  0  0  0  0  0  0  0  0  0  0  0
  188.5950  175.2830  136.8460 C   0  0  2  0  0  3  0  0  0  0  0  0
  185.1890  177.4350  137.3310 C   0  0  0  0  0  2  0  0  0  0  0  0
  189.2850  179.0090  137.3080 C   0  0  0  0  0  2  0  0  0  0  0  0
  186.8290  177.9040  135.4020 C   0  0  0  0  0  3  0  0  0  0  0  0
  188.5420  175.6160  138.3340 C   0  0  0  0  0  2  0  0  0  0  0  0
  186.9710  178.4550  137.8520 C   0  0  2  0  0  0  0  0  0  0  0  0
  187.9310  173.9330  136.5900 C   0  0  0  0  0  2  0  0  0  0  0  0
  185.7340  174.8300  135.8100 C   0  0  2  0  0  3  0  0  0  0  0  0
  188.4570  178.1390  137.8820 C   0  0  0  0  0  0  0  0  0  0  0  0
  186.1340  177.4200  138.5170 C   0  0  1  0  0  3  0  0  0  0  0  0
  189.0890  177.0060  138.6630 C   0  0  1  0  0  3  0  0  0  0  0  0
  182.9530  174.9190  137.9380 O   0  0  0  0  0  0  0  0  0  0  0  0
  184.5800  172.9600  137.1280 C   0  0  1  0  0  0  0  0  0  0  0  0
  183.7530  173.5610  134.9460 O   0  0  0  0  0  1  0  0  0  0  0  0
  183.7160  174.2130  137.2980 C   0  0  0  0  0  0  0  0  0  0  0  0
  184.5470  173.9000  136.0460 C   0  0  2  0  0  0  0  0  0  0  0  0
  185.6990  172.9780  137.9670 O   0  0  0  0  0  1  0  0  0  0  0  0
  183.7750  171.6740  137.0630 C   0  0  0  0  0  2  0  0  0  0  0  0
  184.4520  170.7330  136.2870 O   0  0  0  0  0  1  0  0  0  0  0  0
  190.0110  175.3650  136.2560 C   0  0  1  0  0  3  0  0  0  0  0  0
  190.8860  174.1830  136.6640 C   0  0  2  0  0  3  0  0  0  0  0  0
  192.3340  174.5110  136.3500 C   0  0  2  0  0  3  0  0  0  0  0  0
  191.5520  173.5890  135.4390 C   0  0  0  0  0  2  0  0  0  0  0  0
  193.2520  173.6930  137.2410 C   0  0  2  0  0  3  0  0  0  0  0  0
  194.0210  175.7770  138.0340 O   0  0  0  0  0  0  0  0  0  0  0  0
  194.2670  174.5940  137.8680 C   0  0  0  0  0  3  0  0  0  0  0  0
  193.9030  172.7200  136.4740 O   0  0  0  0  0  0  0  0  0  0  0  0
  195.2600  173.0430  136.5420 C   0  0  2  0  0  3  0  0  0  0  0  0
  198.0350  172.7980  136.1050 N   0  0  0  0  0  0  0  0  0  0  0  0
  197.2640  173.6920  135.2570 C   0  0  0  0  0  2  0  0  0  0  0  0
  195.8060  173.2610  135.1400 C   0  0  0  0  0  2  0  0  0  0  0  0
  196.0260  171.9010  137.2030 C   0  0  0  0  0  2  0  0  0  0  0  0
  197.5150  172.0360  137.0110 C   0  0  0  0  0  3  0  0  0  0  0  0
  189.9460  175.4620  134.8630 O   0  0  0  0  0  0  0  0  0  0  0  0
  190.0390  176.8300  134.5940 C   0  0  0  0  0  2  0  0  0  0  0  0
  191.3340  177.2680  134.8620 O   0  0  0  0  0  1  0  0  0  0  0  0
  1 10  1  6  0  0  0
  1  8  1  0  0  0  0
  1 12  1  0  0  0  0
  3  2  1  0  0  0  0
  3 10  2  0  0  0  0
  5 14  1  0  0  0  0
  5 13  1  0  0  0  0
  7 26  1  1  0  0  0
  7 11  1  0  0  0  0
  9 15  2  0  0  0  0
 11 17  1  0  0  0  0
 12 15  1  6  0  0  0
 12 16  1  0  0  0  0
 12  6  1  0  0  0  0
 13  7  1  0  0  0  0
 14  2  1  6  0  0  0
 14 22  1  0  0  0  0
 15 17  1  0  0  0  0
 16  8  1  6  0  0  0
 16  6  1  0  0  0  0
 17  4  1  1  0  0  0
 19 21  1  0  0  0  0
 19 23  1  1  0  0  0
 21 18  2  0  0  0  0
 22 20  1  6  0  0  0
 22 19  1  0  0  0  0
 22 21  1  0  0  0  0
 24 19  1  0  0  0  0
 25 24  1  0  0  0  0
 26 40  1  6  0  0  0
 27 26  1  6  0  0  0
 28 27  1  0  0  0  0
 28 30  1  1  0  0  0
 29 28  1  0  0  0  0
 29 27  1  0  0  0  0
 30 32  1  6  0  0  0
 32 31  2  0  0  0  0
 33 30  1  0  0  0  0
 34 33  1  6  0  0  0
 34 38  1  0  0  0  0
 35 39  2  0  0  0  0
 36 35  1  0  0  0  0
 37 36  1  0  0  0  0
 37 34  1  0  0  0  0
 39 38  1  0  0  0  0
 41 42  1  0  0  0  0
 41 40  1  0  0  0  0
M  END
>  <MODEL>
6

>  <REMARK>
 VINA RESULT:      -4.0      4.976      6.746
  Name = 
  10 active torsions:
  status: ('A' for Active; 'I' for Inactive)
    1  A    between atoms: C_3  and  C_23
    2  A    between atoms: C_4  and  C_30
    3  A    between atoms: C_6  and  O_9
    4  A    between atoms: C_6  and  C_18
    5  A    between atoms: C_6  and  C_31
    6  A    between atoms: O_9  and  C_13
    7  A    between atoms: C_10  and  O_21
    8  A    between atoms: C_16  and  C_30
    9  A    between atoms: O_21  and  C_30
   10  A    between atoms: C_35  and  C_36
                            x       y       z     vdW  Elec       q    Type
                         _______ _______ _______ _____ _____    ______ ____

>  <TORSDO>
F 10

$$$$
=
 OpenBabel11062413393D

 42 47  0  0  1  0  0  0  0  0999 V2000
  179.7050  178.1280  139.0660 C   0  0  2  0  0  3  0  0  0  0  0  0
  179.7530  175.8620  136.8100 C   0  0  0  0  0  2  0  0  0  0  0  0
  180.2110  177.2850  136.6740 C   0  0  0  0  0  3  0  0  0  0  0  0
  183.7440  178.2010  141.5520 C   0  0  0  0  0  1  0  0  0  0  0  0
  182.1230  174.9970  136.6310 C   0  0  0  0  0  2  0  0  0  0  0  0
  180.4980  178.1770  141.4160 O   0  0  0  0  0  0  0  0  0  0  0  0
  183.3260  176.7190  137.9920 C   0  0  2  0  0  3  0  0  0  0  0  0
  179.6300  176.7380  139.6650 C   0  0  0  0  0  2  0  0  0  0  0  0
  182.3200  180.1800  139.2500 C   0  0  0  0  0  2  0  0  0  0  0  0
  180.2120  178.2190  137.6390 C   0  0  0  0  0  3  0  0  0  0  0  0
  183.5700  176.7890  139.4970 C   0  0  0  0  0  2  0  0  0  0  0  0
  180.8030  178.4550  140.0730 C   0  0  2  0  0  0  0  0  0  0  0  0
  183.3180  175.2640  137.5330 C   0  0  0  0  0  2  0  0  0  0  0  0
  180.8370  174.9960  137.4520 C   0  0  2  0  0  3  0  0  0  0  0  0
  182.2000  178.9440  139.7320 C   0  0  0  0  0  0  0  0  0  0  0  0
  180.7790  177.0630  140.6010 C   0  0  1  0  0  3  0  0  0  0  0  0
  183.4830  178.2100  140.0580 C   0  0  1  0  0  3  0  0  0  0  0  0
  182.3450  171.8400  137.2540 O   0  0  0  0  0  0  0  0  0  0  0  0
  179.9440  172.7730  136.5420 C   0  0  1  0  0  0  0  0  0  0  0  0
  179.7490  173.2570  138.8940 O   0  0  0  0  0  1  0  0  0  0  0  0
  181.3010  172.4700  137.1830 C   0  0  0  0  0  0  0  0  0  0  0  0
  180.3430  173.5670  137.6670 C   0  0  2  0  0  0  0  0  0  0  0  0
  180.0800  173.3370  135.2700 O   0  0  0  0  0  1  0  0  0  0  0  0
  178.9340  171.6510  136.7050 C   0  0  0  0  0  2  0  0  0  0  0  0
  179.5500  170.4230  136.4590 O   0  0  0  0  0  1  0  0  0  0  0  0
  184.2980  177.5880  137.1800 C   0  0  1  0  0  3  0  0  0  0  0  0
  185.7600  177.2500  137.4550 C   0  0  2  0  0  3  0  0  0  0  0  0
  186.3540  178.3250  138.3460 C   0  0  2  0  0  3  0  0  0  0  0  0
  186.6570  178.3190  136.8630 C   0  0  0  0  0  2  0  0  0  0  0  0
  187.5390  177.7620  139.1120 C   0  0  2  0  0  3  0  0  0  0  0  0
  188.0930  177.7250  141.4040 O   0  0  0  0  0  0  0  0  0  0  0  0
  187.5520  178.3310  140.4950 C   0  0  0  0  0  3  0  0  0  0  0  0
  188.7260  178.1060  138.4560 O   0  0  0  0  0  0  0  0  0  0  0  0
  189.5490  176.9820  138.5660 C   0  0  2  0  0  3  0  0  0  0  0  0
  191.3550  174.9710  137.7650 N   0  0  0  0  0  0  0  0  0  0  0  0
  191.8650  176.1370  138.4660 C   0  0  0  0  0  2  0  0  0  0  0  0
  190.9870  177.3660  138.2550 C   0  0  0  0  0  2  0  0  0  0  0  0
  189.0920  175.9150  137.5760 C   0  0  0  0  0  2  0  0  0  0  0  0
  190.1210  174.8250  137.4090 C   0  0  0  0  0  3  0  0  0  0  0  0
  184.0220  177.4690  135.8140 O   0  0  0  0  0  0  0  0  0  0  0  0
  183.0850  178.4710  135.5480 C   0  0  0  0  0  2  0  0  0  0  0  0
  182.1140  177.9790  134.6790 O   0  0  0  0  0  1  0  0  0  0  0  0
  1 10  1  6  0  0  0
  1  8  1  0  0  0  0
  1 12  1  0  0  0  0
  2 14  1  0  0  0  0
  3  2  1  0  0  0  0
  3 10  2  0  0  0  0
  5 13  1  0  0  0  0
  7 26  1  6  0  0  0
  7 11  1  0  0  0  0
  9 15  2  0  0  0  0
 11 17  1  0  0  0  0
 12 15  1  6  0  0  0
 12 16  1  0  0  0  0
 12  6  1  0  0  0  0
 13  7  1  0  0  0  0
 14  5  1  6  0  0  0
 14 22  1  0  0  0  0
 15 17  1  0  0  0  0
 16  8  1  6  0  0  0
 16  6  1  0  0  0  0
 17  4  1  1  0  0  0
 19 23  1  6  0  0  0
 19 24  1  0  0  0  0
 19 21  1  0  0  0  0
 19 22  1  0  0  0  0
 21 18  2  0  0  0  0
 21 22  1  0  0  0  0
 22 20  1  1  0  0  0
 25 24  1  0  0  0  0
 26 40  1  6  0  0  0
 27 26  1  6  0  0  0
 27 28  1  0  0  0  0
 28 30  1  1  0  0  0
 29 27  1  0  0  0  0
 29 28  1  0  0  0  0
 30 32  1  1  0  0  0
 32 31  2  0  0  0  0
 33 30  1  0  0  0  0
 34 33  1  6  0  0  0
 35 36  1  0  0  0  0
 37 36  1  0  0  0  0
 37 34  1  0  0  0  0
 38 34  1  0  0  0  0
 39 38  1  0  0  0  0
 39 35  2  0  0  0  0
 41 40  1  0  0  0  0
 42 41  1  0  0  0  0
M  END
>  <MODEL>
7

>  <REMARK>
 VINA RESULT:      -3.5      2.152      3.091
  Name = 
  10 active torsions:
  status: ('A' for Active; 'I' for Inactive)
    1  A    between atoms: C_3  and  C_23
    2  A    between atoms: C_4  and  C_30
    3  A    between atoms: C_6  and  O_9
    4  A    between atoms: C_6  and  C_18
    5  A    between atoms: C_6  and  C_31
    6  A    between atoms: O_9  and  C_13
    7  A    between atoms: C_10  and  O_21
    8  A    between atoms: C_16  and  C_30
    9  A    between atoms: O_21  and  C_30
   10  A    between atoms: C_35  and  C_36
                            x       y       z     vdW  Elec       q    Type
                         _______ _______ _______ _____ _____    ______ ____

>  <TORSDO>
F 10

$$$$
=
 OpenBabel11062413393D

 42 47  0  0  1  0  0  0  0  0999 V2000
  184.7920  175.5980  136.2440 C   0  0  2  0  0  3  0  0  0  0  0  0
  182.2000  176.7440  137.7280 C   0  0  0  0  0  2  0  0  0  0  0  0
  183.2910  175.9080  138.3280 C   0  0  0  0  0  3  0  0  0  0  0  0
  188.4380  178.6200  136.5200 C   0  0  0  0  0  1  0  0  0  0  0  0
  182.9050  178.7710  139.0660 C   0  0  0  0  0  2  0  0  0  0  0  0
  186.5050  176.6570  134.7960 O   0  0  0  0  0  0  0  0  0  0  0  0
  185.3950  178.5500  138.9240 C   0  0  2  0  0  3  0  0  0  0  0  0
  184.1810  176.7620  135.4900 C   0  0  0  0  0  2  0  0  0  0  0  0
  187.6760  175.6640  137.9050 C   0  0  0  0  0  2  0  0  0  0  0  0
  184.3900  175.4580  137.7010 C   0  0  0  0  0  3  0  0  0  0  0  0
  186.3660  179.0410  137.8540 C   0  0  0  0  0  2  0  0  0  0  0  0
  186.1500  176.2750  136.1010 C   0  0  2  0  0  0  0  0  0  0  0  0
  184.2270  179.5240  139.0520 C   0  0  0  0  0  2  0  0  0  0  0  0
  182.6030  178.2180  137.6760 C   0  0  2  0  0  3  0  0  0  0  0  0
  187.0770  176.6530  137.2450 C   0  0  0  0  0  0  0  0  0  0  0  0
  185.5310  177.4520  135.4320 C   0  0  1  0  0  3  0  0  0  0  0  0
  187.5120  178.0630  137.5830 C   0  0  1  0  0  3  0  0  0  0  0  0
  181.5810  181.5580  137.9440 O   0  0  0  0  0  0  0  0  0  0  0  0
  180.2610  179.2560  137.6280 C   0  0  1  0  0  0  0  0  0  0  0  0
  181.5450  179.1270  135.5930 O   0  0  0  0  0  1  0  0  0  0  0  0
  181.2550  180.4200  137.6430 C   0  0  0  0  0  0  0  0  0  0  0  0
  181.5300  179.0590  136.9900 C   0  0  2  0  0  0  0  0  0  0  0  0
  180.0830  178.7030  138.9000 O   0  0  0  0  0  1  0  0  0  0  0  0
  179.0150  179.5350  136.8060 C   0  0  0  0  0  2  0  0  0  0  0  0
  178.9450  180.8950  136.5030 O   0  0  0  0  0  1  0  0  0  0  0  0
  186.0730  178.2610  140.2710 C   0  0  1  0  0  3  0  0  0  0  0  0
  187.5820  178.0780  140.1420 C   0  0  2  0  0  3  0  0  0  0  0  0
  188.1280  177.5500  141.4550 C   0  0  2  0  0  3  0  0  0  0  0  0
  188.2980  179.0110  141.0980 C   0  0  0  0  0  2  0  0  0  0  0  0
  189.4310  176.8090  141.2100 C   0  0  2  0  0  3  0  0  0  0  0  0
  190.4110  176.6900  143.3520 O   0  0  0  0  0  0  0  0  0  0  0  0
  189.8360  176.0920  142.4580 C   0  0  0  0  0  3  0  0  0  0  0  0
  190.4290  177.7230  140.8530 O   0  0  0  0  0  0  0  0  0  0  0  0
  191.3860  176.9740  140.1620 C   0  0  2  0  0  3  0  0  0  0  0  0
  193.3460  176.3790  138.2260 N   0  0  0  0  0  0  0  0  0  0  0  0
  193.7700  176.7830  139.5560 C   0  0  0  0  0  2  0  0  0  0  0  0
  192.7370  177.6660  140.2460 C   0  0  0  0  0  2  0  0  0  0  0  0
  190.9790  176.8500  138.6980 C   0  0  0  0  0  2  0  0  0  0  0  0
  192.1130  176.3480  137.8390 C   0  0  0  0  0  3  0  0  0  0  0  0
  185.7850  179.2810  141.1820 O   0  0  0  0  0  0  0  0  0  0  0  0
  184.9440  178.6900  142.1290 C   0  0  0  0  0  2  0  0  0  0  0  0
  184.9350  179.4650  143.2880 O   0  0  0  0  0  1  0  0  0  0  0  0
  1  8  1  6  0  0  0
  1 10  1  0  0  0  0
  2  3  1  0  0  0  0
  6 16  1  0  0  0  0
  7 13  1  0  0  0  0
  7 26  1  1  0  0  0
 10  3  2  0  0  0  0
 11  7  1  0  0  0  0
 12  6  1  6  0  0  0
 12  1  1  0  0  0  0
 12 15  1  0  0  0  0
 13  5  1  0  0  0  0
 14  2  1  1  0  0  0
 14  5  1  0  0  0  0
 15 17  1  0  0  0  0
 15  9  2  0  0  0  0
 16  8  1  6  0  0  0
 16 12  1  0  0  0  0
 17  4  1  6  0  0  0
 17 11  1  0  0  0  0
 19 21  1  0  0  0  0
 19 23  1  1  0  0  0
 21 18  2  0  0  0  0
 22 20  1  6  0  0  0
 22 19  1  0  0  0  0
 22 21  1  0  0  0  0
 22 14  1  0  0  0  0
 24 19  1  0  0  0  0
 25 24  1  0  0  0  0
 26 40  1  1  0  0  0
 27 26  1  1  0  0  0
 27 29  1  0  0  0  0
 27 28  1  0  0  0  0
 28 30  1  6  0  0  0
 29 28  1  0  0  0  0
 30 32  1  1  0  0  0
 32 31  2  0  0  0  0
 33 30  1  0  0  0  0
 34 37  1  0  0  0  0
 34 33  1  1  0  0  0
 35 36  1  0  0  0  0
 36 37  1  0  0  0  0
 38 34  1  0  0  0  0
 39 35  2  0  0  0  0
 39 38  1  0  0  0  0
 40 41  1  0  0  0  0
 41 42  1  0  0  0  0
M  END
>  <MODEL>
8

>  <REMARK>
 VINA RESULT:      -3.4      2.746      5.374
  Name = 
  10 active torsions:
  status: ('A' for Active; 'I' for Inactive)
    1  A    between atoms: C_3  and  C_23
    2  A    between atoms: C_4  and  C_30
    3  A    between atoms: C_6  and  O_9
    4  A    between atoms: C_6  and  C_18
    5  A    between atoms: C_6  and  C_31
    6  A    between atoms: O_9  and  C_13
    7  A    between atoms: C_10  and  O_21
    8  A    between atoms: C_16  and  C_30
    9  A    between atoms: O_21  and  C_30
   10  A    between atoms: C_35  and  C_36
                            x       y       z     vdW  Elec       q    Type
                         _______ _______ _______ _____ _____    ______ ____

>  <TORSDO>
F 10

$$$$
=
 OpenBabel11062413393D

 42 47  0  0  1  0  0  0  0  0999 V2000
  191.0490  176.6680  137.0110 C   0  0  2  0  0  3  0  0  0  0  0  0
  189.4180  178.8880  138.6350 C   0  0  0  0  0  2  0  0  0  0  0  0
  189.3620  178.6220  137.1600 C   0  0  0  0  0  3  0  0  0  0  0  0
  188.6460  172.5870  136.7410 C   0  0  0  0  0  1  0  0  0  0  0  0
  187.0600  178.0340  138.9620 C   0  0  0  0  0  2  0  0  0  0  0  0
  191.3780  174.2340  137.3590 O   0  0  0  0  0  0  0  0  0  0  0  0
  187.0810  176.0730  137.4060 C   0  0  2  0  0  3  0  0  0  0  0  0
  190.9810  176.3450  138.4900 C   0  0  0  0  0  2  0  0  0  0  0  0
  189.4450  175.0340  134.5940 C   0  0  0  0  0  2  0  0  0  0  0  0
  190.0310  177.6670  136.4940 C   0  0  0  0  0  3  0  0  0  0  0  0
  187.5300  174.6340  137.6420 C   0  0  0  0  0  2  0  0  0  0  0  0
  190.6220  175.2330  136.7230 C   0  0  2  0  0  0  0  0  0  0  0  0
  186.4880  176.6510  138.6870 C   0  0  0  0  0  2  0  0  0  0  0  0
  188.5160  177.9200  139.4020 C   0  0  2  0  0  3  0  0  0  0  0  0
  189.4090  174.8160  135.9070 C   0  0  0  0  0  0  0  0  0  0  0  0
  190.4800  174.9480  138.1760 C   0  0  1  0  0  3  0  0  0  0  0  0
  188.2390  174.0150  136.4360 C   0  0  1  0  0  3  0  0  0  0  0  0
  191.2120  178.3580  141.5960 O   0  0  0  0  0  0  0  0  0  0  0  0
  188.9060  177.0180  141.7690 C   0  0  1  0  0  0  0  0  0  0  0  0
  187.9400  179.2060  141.4760 O   0  0  0  0  0  1  0  0  0  0  0  0
  190.0550  177.9870  141.4750 C   0  0  0  0  0  0  0  0  0  0  0  0
  188.6360  178.1340  140.9090 C   0  0  2  0  0  0  0  0  0  0  0  0
  189.1070  175.7710  141.1670 O   0  0  0  0  0  1  0  0  0  0  0  0
  188.4600  177.0310  143.2200 C   0  0  0  0  0  2  0  0  0  0  0  0
  187.5320  176.0120  143.4370 O   0  0  0  0  0  1  0  0  0  0  0  0
  186.1410  176.2240  136.2000 C   0  0  1  0  0  3  0  0  0  0  0  0
  184.7750  175.5850  136.4370 C   0  0  2  0  0  3  0  0  0  0  0  0
  184.6240  174.3910  135.5130 C   0  0  2  0  0  3  0  0  0  0  0  0
  183.9310  175.6950  135.1830 C   0  0  0  0  0  2  0  0  0  0  0  0
  183.6200  173.4120  136.0970 C   0  0  2  0  0  3  0  0  0  0  0  0
  185.1750  171.7650  135.4380 O   0  0  0  0  0  0  0  0  0  0  0  0
  184.0190  172.0170  135.7350 C   0  0  0  0  0  3  0  0  0  0  0  0
  182.3480  173.6820  135.5810 O   0  0  0  0  0  0  0  0  0  0  0  0
  181.4580  173.3840  136.6160 C   0  0  2  0  0  3  0  0  0  0  0  0
  179.0930  173.4860  138.1460 N   0  0  0  0  0  0  0  0  0  0  0  0
  179.2710  172.3990  137.1990 C   0  0  0  0  0  2  0  0  0  0  0  0
  180.1830  172.7900  136.0400 C   0  0  0  0  0  2  0  0  0  0  0  0
  181.1140  174.6580  137.3790 C   0  0  0  0  0  2  0  0  0  0  0  0
  179.9220  174.4680  138.2830 C   0  0  0  0  0  3  0  0  0  0  0  0
  185.9930  177.5750  135.8720 O   0  0  0  0  0  0  0  0  0  0  0  0
  186.9990  177.8290  134.9360 C   0  0  0  0  0  2  0  0  0  0  0  0
  187.0720  179.2000  134.6960 O   0  0  0  0  0  1  0  0  0  0  0  0
  1 10  1  1  0  0  0
  1  8  1  0  0  0  0
  3  2  1  0  0  0  0
  5 14  1  0  0  0  0
  6 16  1  0  0  0  0
  7 26  1  6  0  0  0
  7 11  1  0  0  0  0
  7 13  1  0  0  0  0
  9 15  2  0  0  0  0
 10  3  2  0  0  0  0
 12 15  1  6  0  0  0
 12  1  1  0  0  0  0
 12  6  1  0  0  0  0
 12 16  1  0  0  0  0
 13  5  1  0  0  0  0
 14  2  1  6  0  0  0
 14 22  1  0  0  0  0
 15 17  1  0  0  0  0
 16  8  1  1  0  0  0
 17  4  1  1  0  0  0
 17 11  1  0  0  0  0
 19 23  1  6  0  0  0
 19 24  1  0  0  0  0
 21 18  2  0  0  0  0
 21 19  1  0  0  0  0
 22 21  1  0  0  0  0
 22 20  1  1  0  0  0
 22 19  1  0  0  0  0
 24 25  1  0  0  0  0
 26 40  1  1  0  0  0
 27 26  1  6  0  0  0
 28 30  1  1  0  0  0
 28 27  1  0  0  0  0
 29 28  1  0  0  0  0
 29 27  1  0  0  0  0
 30 32  1  6  0  0  0
 31 32  2  0  0  0  0
 33 30  1  0  0  0  0
 34 33  1  6  0  0  0
 34 38  1  0  0  0  0
 35 39  2  0  0  0  0
 36 35  1  0  0  0  0
 37 34  1  0  0  0  0
 37 36  1  0  0  0  0
 38 39  1  0  0  0  0
 41 40  1  0  0  0  0
 42 41  1  0  0  0  0
M  END
>  <MODEL>
9

>  <REMARK>
 VINA RESULT:      -2.8      3.500      9.246
  Name = 
  10 active torsions:
  status: ('A' for Active; 'I' for Inactive)
    1  A    between atoms: C_3  and  C_23
    2  A    between atoms: C_4  and  C_30
    3  A    between atoms: C_6  and  O_9
    4  A    between atoms: C_6  and  C_18
    5  A    between atoms: C_6  and  C_31
    6  A    between atoms: O_9  and  C_13
    7  A    between atoms: C_10  and  O_21
    8  A    between atoms: C_16  and  C_30
    9  A    between atoms: O_21  and  C_30
   10  A    between atoms: C_35  and  C_36
                            x       y       z     vdW  Elec       q    Type
                         _______ _______ _______ _____ _____    ______ ____

>  <TORSDO>
F 10

$$$$
