=
 OpenBabel11062416463D

 28 32  0  0  1  0  0  0  0  0999 V2000
  190.9220  177.3410  145.6780 C   0  0  2  0  0  3  0  0  0  0  0  0
  192.4840  175.1070  146.7830 C   0  0  0  0  0  2  0  0  0  0  0  0
  185.6060  178.8270  143.2810 C   0  0  0  0  0  0  0  0  0  0  0  0
  188.9550  177.3700  144.6690 C   0  0  2  0  0  3  0  0  0  0  0  0
  187.1870  178.6040  145.9120 C   0  0  0  0  0  3  0  0  0  0  0  0
  192.1500  177.3800  142.0460 O   0  0  0  0  0  0  0  0  0  0  0  0
  190.7220  176.0820  143.4620 C   0  0  1  0  0  3  0  0  0  0  0  0
  189.6010  178.8900  141.9450 O   0  0  0  0  0  1  0  0  0  0  0  0
  187.4660  177.6680  144.7740 C   0  0  1  0  0  3  0  0  0  0  0  0
  189.2110  176.2340  143.6690 C   0  0  2  0  0  3  0  0  0  0  0  0
  185.9380  178.8180  146.3120 C   0  0  0  0  0  0  0  0  0  0  0  0
  184.8080  178.1510  145.5860 C   0  0  1  0  0  3  0  0  0  0  0  0
  191.7610  176.0910  147.6920 C   0  0  0  0  0  2  0  0  0  0  0  0
  189.5590  177.0700  145.8960 O   0  0  0  0  0  0  0  0  0  0  0  0
  187.0170  178.2480  143.4130 C   0  0  1  0  0  3  0  0  0  0  0  0
  192.4390  173.9920  144.6320 N   0  0  0  0  0  1  0  0  0  0  0  0
  191.0180  177.0560  142.3710 C   0  0  0  0  0  0  0  0  0  0  0  0
  187.2690  177.2280  142.2930 C   0  0  0  0  0  2  0  0  0  0  0  0
  183.6160  178.2930  146.2980 O   0  0  0  0  0  1  0  0  0  0  0  0
  191.5580  176.2770  144.7490 C   0  0  2  0  0  3  0  0  0  0  0  0
  189.7980  177.5360  141.6610 C   0  0  1  0  0  3  0  0  0  0  0  0
  185.6930  179.6880  147.3660 O   0  0  0  0  0  1  0  0  0  0  0  0
  191.6670  177.4510  147.0080 C   0  0  0  0  0  2  0  0  0  0  0  0
  191.7200  174.9320  145.4750 C   0  0  2  0  0  3  0  0  0  0  0  0
  184.6560  178.7570  144.2270 C   0  0  0  0  0  3  0  0  0  0  0  0
  188.7030  176.6670  142.2910 C   0  0  1  0  0  3  0  0  0  0  0  0
  184.3770  178.9700  141.1290 C   0  0  0  0  0  1  0  0  0  0  0  0
  185.2470  179.5110  142.1140 O   0  0  0  0  0  0  0  0  0  0  0  0
  1 14  1  0  0  0  0
  1 23  1  1  0  0  0
  2 13  1  0  0  0  0
  3 15  1  0  0  0  0
  3 25  2  0  0  0  0
  4  9  1  0  0  0  0
  4 14  1  1  0  0  0
  5 11  2  0  0  0  0
  6 17  2  0  0  0  0
  7 17  1  6  0  0  0
  7 10  1  0  0  0  0
  7 20  1  0  0  0  0
  9  5  1  1  0  0  0
 10  4  1  0  0  0  0
 11 22  1  0  0  0  0
 12 19  1  0  0  0  0
 12 11  1  0  0  0  0
 15  9  1  0  0  0  0
 16 24  1  0  0  0  0
 18 15  1  0  0  0  0
 20 24  1  0  0  0  0
 20  1  1  0  0  0  0
 21  8  1  0  0  0  0
 21 26  1  0  0  0  0
 21 17  1  0  0  0  0
 23 13  1  0  0  0  0
 24  2  1  0  0  0  0
 25 12  1  0  0  0  0
 26 18  1  0  0  0  0
 26 10  1  0  0  0  0
 27 28  1  0  0  0  0
 28  3  1  0  0  0  0
M  END
>  <MODEL>
1

>  <REMARK>
 VINA RESULT:      -7.3      0.000      0.000
  Name = 
  1 active torsions:
  status: ('A' for Active; 'I' for Inactive)
    1  A    between atoms: C_3  and  O_18
                            x       y       z     vdW  Elec       q    Type
                         _______ _______ _______ _____ _____    ______ ____

>  <TORSDO>
F 1

$$$$
=
 OpenBabel11062416463D

 28 32  0  0  1  0  0  0  0  0999 V2000
  192.1830  176.3630  137.2230 C   0  0  2  0  0  3  0  0  0  0  0  0
  193.2120  173.9810  135.8370 C   0  0  0  0  0  2  0  0  0  0  0  0
  188.0690  178.2800  141.1740 C   0  0  0  0  0  0  0  0  0  0  0  0
  190.4120  176.6290  138.5170 C   0  0  2  0  0  3  0  0  0  0  0  0
  190.9470  177.2320  140.8720 C   0  0  0  0  0  3  0  0  0  0  0  0
  189.7690  177.7650  134.5950 O   0  0  0  0  0  0  0  0  0  0  0  0
  189.8900  175.9640  136.1680 C   0  0  1  0  0  3  0  0  0  0  0  0
  188.8940  179.0550  137.1160 O   0  0  0  0  0  1  0  0  0  0  0  0
  189.8690  176.7800  139.9320 C   0  0  1  0  0  3  0  0  0  0  0  0
  189.3800  175.9410  137.6130 C   0  0  2  0  0  3  0  0  0  0  0  0
  190.7410  177.2140  142.1840 C   0  0  0  0  0  0  0  0  0  0  0  0
  189.4060  176.7820  142.7150 C   0  0  1  0  0  3  0  0  0  0  0  0
  193.9000  174.5320  137.0780 C   0  0  0  0  0  2  0  0  0  0  0  0
  191.6340  175.9500  138.4500 O   0  0  0  0  0  0  0  0  0  0  0  0
  188.6900  177.7790  139.8680 C   0  0  1  0  0  3  0  0  0  0  0  0
  191.0870  173.7030  134.7060 N   0  0  0  0  0  1  0  0  0  0  0  0
  189.4040  177.2790  135.6540 C   0  0  0  0  0  0  0  0  0  0  0  0
  187.5900  177.2400  138.9400 C   0  0  0  0  0  2  0  0  0  0  0  0
  189.4660  176.5890  144.0960 O   0  0  0  0  0  1  0  0  0  0  0  0
  191.4140  175.7390  136.0320 C   0  0  2  0  0  3  0  0  0  0  0  0
  188.3660  177.9050  136.5230 C   0  0  1  0  0  3  0  0  0  0  0  0
  191.7470  177.6360  143.0440 O   0  0  0  0  0  1  0  0  0  0  0  0
  193.6750  176.0370  137.1670 C   0  0  0  0  0  2  0  0  0  0  0  0
  191.7100  174.2360  135.9060 C   0  0  2  0  0  3  0  0  0  0  0  0
  188.3790  177.8210  142.3970 C   0  0  0  0  0  3  0  0  0  0  0  0
  188.1160  176.8040  137.5610 C   0  0  1  0  0  3  0  0  0  0  0  0
  185.8200  179.1940  141.6910 C   0  0  0  0  0  1  0  0  0  0  0  0
  187.1230  179.3110  141.1370 O   0  0  0  0  0  0  0  0  0  0  0  0
  1 23  1  1  0  0  0
  1 14  1  0  0  0  0
  2 24  1  0  0  0  0
  2 13  1  0  0  0  0
  3 25  2  0  0  0  0
  4 14  1  1  0  0  0
  4  9  1  0  0  0  0
  5 11  2  0  0  0  0
  6 17  2  0  0  0  0
  7 17  1  1  0  0  0
  7 10  1  0  0  0  0
  9  5  1  1  0  0  0
 10  4  1  0  0  0  0
 11 12  1  0  0  0  0
 11 22  1  0  0  0  0
 12 19  1  0  0  0  0
 13 23  1  0  0  0  0
 15  9  1  0  0  0  0
 15  3  1  0  0  0  0
 16 24  1  0  0  0  0
 17 21  1  0  0  0  0
 18 15  1  0  0  0  0
 20  7  1  0  0  0  0
 20  1  1  0  0  0  0
 21  8  1  0  0  0  0
 21 26  1  0  0  0  0
 24 20  1  0  0  0  0
 25 12  1  0  0  0  0
 26 10  1  0  0  0  0
 26 18  1  0  0  0  0
 28  3  1  0  0  0  0
 28 27  1  0  0  0  0
M  END
>  <MODEL>
2

>  <REMARK>
 VINA RESULT:      -7.2      4.736      7.003
  Name = 
  1 active torsions:
  status: ('A' for Active; 'I' for Inactive)
    1  A    between atoms: C_3  and  O_18
                            x       y       z     vdW  Elec       q    Type
                         _______ _______ _______ _____ _____    ______ ____

>  <TORSDO>
F 1

$$$$
=
 OpenBabel11062416463D

 28 32  0  0  1  0  0  0  0  0999 V2000
  185.3540  179.0880  140.9950 C   0  0  2  0  0  3  0  0  0  0  0  0
  183.4190  177.9630  139.0850 C   0  0  0  0  0  2  0  0  0  0  0  0
  189.0740  177.7020  145.5170 C   0  0  0  0  0  0  0  0  0  0  0  0
  186.3900  178.1650  142.7150 C   0  0  2  0  0  3  0  0  0  0  0  0
  188.8620  178.0260  142.4630 C   0  0  0  0  0  3  0  0  0  0  0  0
  183.0210  180.3080  143.7820 O   0  0  0  0  0  0  0  0  0  0  0  0
  183.9040  178.2540  142.9270 C   0  0  1  0  0  3  0  0  0  0  0  0
  185.6720  180.1510  145.0990 O   0  0  0  0  0  1  0  0  0  0  0  0
  187.6790  177.5700  143.2650 C   0  0  1  0  0  3  0  0  0  0  0  0
  185.1680  177.5140  143.3770 C   0  0  2  0  0  3  0  0  0  0  0  0
  190.0490  177.4540  142.6390 C   0  0  0  0  0  0  0  0  0  0  0  0
  190.2050  176.3830  143.6770 C   0  0  1  0  0  3  0  0  0  0  0  0
  184.8590  178.2440  138.6780 C   0  0  0  0  0  2  0  0  0  0  0  0
  186.2790  178.0800  141.3210 O   0  0  0  0  0  0  0  0  0  0  0  0
  187.7800  177.9890  144.7510 C   0  0  1  0  0  3  0  0  0  0  0  0
  181.9630  177.3240  140.9140 N   0  0  0  0  0  1  0  0  0  0  0  0
  183.7920  179.3710  143.9110 C   0  0  0  0  0  0  0  0  0  0  0  0
  186.5770  177.4480  145.5360 C   0  0  0  0  0  2  0  0  0  0  0  0
  191.4360  175.7400  143.5370 O   0  0  0  0  0  1  0  0  0  0  0  0
  183.9240  178.6960  141.4450 C   0  0  2  0  0  3  0  0  0  0  0  0
  184.6590  179.1880  145.1110 C   0  0  1  0  0  3  0  0  0  0  0  0
  191.1370  177.8860  141.8910 O   0  0  0  0  0  1  0  0  0  0  0  0
  185.4100  179.4040  139.5010 C   0  0  0  0  0  2  0  0  0  0  0  0
  183.3490  177.5790  140.5590 C   0  0  2  0  0  3  0  0  0  0  0  0
  190.1060  176.9870  145.0410 C   0  0  0  0  0  3  0  0  0  0  0  0
  185.2230  177.7800  144.8830 C   0  0  1  0  0  3  0  0  0  0  0  0
  189.1800  177.4410  147.9830 C   0  0  0  0  0  1  0  0  0  0  0  0
  189.2450  178.2290  146.8030 O   0  0  0  0  0  0  0  0  0  0  0  0
  1 23  1  6  0  0  0
  1 14  1  0  0  0  0
  1 20  1  0  0  0  0
  2 24  1  0  0  0  0
  3 28  1  0  0  0  0
  4 14  1  6  0  0  0
  4  9  1  0  0  0  0
  4 10  1  0  0  0  0
  5 11  2  0  0  0  0
  6 17  2  0  0  0  0
  7 10  1  0  0  0  0
  7 17  1  1  0  0  0
  8 21  1  0  0  0  0
  9  5  1  6  0  0  0
  9 15  1  0  0  0  0
 10 26  1  0  0  0  0
 11 12  1  0  0  0  0
 12 25  1  0  0  0  0
 13  2  1  0  0  0  0
 13 23  1  0  0  0  0
 15  3  1  0  0  0  0
 15 18  1  0  0  0  0
 17 21  1  0  0  0  0
 19 12  1  0  0  0  0
 20  7  1  0  0  0  0
 22 11  1  0  0  0  0
 24 16  1  0  0  0  0
 24 20  1  0  0  0  0
 25  3  2  0  0  0  0
 26 21  1  0  0  0  0
 26 18  1  0  0  0  0
 28 27  1  0  0  0  0
M  END
>  <MODEL>
3

>  <REMARK>
 VINA RESULT:      -6.9      2.771      7.335
  Name = 
  1 active torsions:
  status: ('A' for Active; 'I' for Inactive)
    1  A    between atoms: C_3  and  O_18
                            x       y       z     vdW  Elec       q    Type
                         _______ _______ _______ _____ _____    ______ ____

>  <TORSDO>
F 1

$$$$
=
 OpenBabel11062416463D

 28 32  0  0  1  0  0  0  0  0999 V2000
  186.5600  179.1310  143.7400 C   0  0  2  0  0  3  0  0  0  0  0  0
  184.1800  178.4310  145.3210 C   0  0  0  0  0  2  0  0  0  0  0  0
  190.6000  176.9720  139.8370 C   0  0  0  0  0  0  0  0  0  0  0  0
  187.9100  177.8710  142.5250 C   0  0  2  0  0  3  0  0  0  0  0  0
  187.8820  178.3940  140.0920 C   0  0  0  0  0  3  0  0  0  0  0  0
  189.3440  178.6280  146.3280 O   0  0  0  0  0  0  0  0  0  0  0  0
  187.8830  177.3150  144.9590 C   0  0  1  0  0  3  0  0  0  0  0  0
  190.7740  178.5690  143.7320 O   0  0  0  0  0  1  0  0  0  0  0  0
  188.3300  177.4130  141.1350 C   0  0  1  0  0  3  0  0  0  0  0  0
  188.1520  176.7600  143.5570 C   0  0  2  0  0  3  0  0  0  0  0  0
  187.9540  178.0790  138.8030 C   0  0  0  0  0  0  0  0  0  0  0  0
  188.5290  176.7530  138.4000 C   0  0  1  0  0  3  0  0  0  0  0  0
  184.0580  179.1600  143.9900 C   0  0  0  0  0  2  0  0  0  0  0  0
  186.5820  178.3090  142.5990 O   0  0  0  0  0  0  0  0  0  0  0  0
  189.8670  177.2370  141.1540 C   0  0  1  0  0  3  0  0  0  0  0  0
  185.4780  176.8290  146.5930 N   0  0  0  0  0  1  0  0  0  0  0  0
  189.1940  177.9100  145.3510 C   0  0  0  0  0  0  0  0  0  0  0  0
  190.2650  176.1810  142.1960 C   0  0  0  0  0  2  0  0  0  0  0  0
  188.2890  176.5060  137.0470 O   0  0  0  0  0  1  0  0  0  0  0  0
  186.6820  178.2880  145.0340 C   0  0  2  0  0  3  0  0  0  0  0  0
  190.3230  177.4770  144.4780 C   0  0  1  0  0  3  0  0  0  0  0  0
  187.5370  178.9960  137.8470 O   0  0  0  0  0  1  0  0  0  0  0  0
  185.3060  180.0030  143.7480 C   0  0  0  0  0  2  0  0  0  0  0  0
  185.3900  177.5030  145.3090 C   0  0  2  0  0  3  0  0  0  0  0  0
  190.0020  176.7450  138.6570 C   0  0  0  0  0  3  0  0  0  0  0  0
  189.6470  176.4300  143.5830 C   0  0  1  0  0  3  0  0  0  0  0  0
  192.7620  176.7520  138.6360 C   0  0  0  0  0  1  0  0  0  0  0  0
  192.0000  176.9850  139.8130 O   0  0  0  0  0  0  0  0  0  0  0  0
  1 23  1  1  0  0  0
  1 20  1  0  0  0  0
  3 15  1  0  0  0  0
  4 14  1  6  0  0  0
  4 10  1  0  0  0  0
  7 20  1  0  0  0  0
  7 17  1  6  0  0  0
  8 21  1  0  0  0  0
  9  5  1  6  0  0  0
  9 15  1  0  0  0  0
  9  4  1  0  0  0  0
 10 26  1  0  0  0  0
 10  7  1  0  0  0  0
 11  5  2  0  0  0  0
 12 25  1  0  0  0  0
 12 11  1  0  0  0  0
 13  2  1  0  0  0  0
 14  1  1  0  0  0  0
 15 18  1  0  0  0  0
 17  6  2  0  0  0  0
 18 26  1  0  0  0  0
 19 12  1  0  0  0  0
 20 24  1  0  0  0  0
 21 17  1  0  0  0  0
 22 11  1  0  0  0  0
 23 13  1  0  0  0  0
 24  2  1  0  0  0  0
 24 16  1  0  0  0  0
 25  3  2  0  0  0  0
 26 21  1  0  0  0  0
 27 28  1  0  0  0  0
 28  3  1  0  0  0  0
M  END
>  <MODEL>
4

>  <REMARK>
 VINA RESULT:      -6.6      2.713      6.349
  Name = 
  1 active torsions:
  status: ('A' for Active; 'I' for Inactive)
    1  A    between atoms: C_3  and  O_18
                            x       y       z     vdW  Elec       q    Type
                         _______ _______ _______ _____ _____    ______ ____

>  <TORSDO>
F 1

$$$$
=
 OpenBabel11062416463D

 28 32  0  0  1  0  0  0  0  0999 V2000
  187.7440  176.6760  143.6570 C   0  0  2  0  0  3  0  0  0  0  0  0
  190.5870  177.3380  143.2850 C   0  0  0  0  0  2  0  0  0  0  0  0
  182.1690  178.9280  143.4370 C   0  0  0  0  0  0  0  0  0  0  0  0
  185.9490  177.9650  143.6610 C   0  0  2  0  0  3  0  0  0  0  0  0
  184.3550  177.5030  141.8060 C   0  0  0  0  0  3  0  0  0  0  0  0
  187.3710  177.1120  147.4480 O   0  0  0  0  0  0  0  0  0  0  0  0
  187.5860  178.4600  145.4800 C   0  0  1  0  0  3  0  0  0  0  0  0
  184.5840  177.2350  146.4450 O   0  0  0  0  0  1  0  0  0  0  0  0
  184.7230  178.4560  142.9030 C   0  0  1  0  0  3  0  0  0  0  0  0
  186.4660  179.0490  144.6170 C   0  0  2  0  0  3  0  0  0  0  0  0
  183.4550  177.8500  140.8920 C   0  0  0  0  0  0  0  0  0  0  0  0
  182.7780  179.1840  140.9940 C   0  0  1  0  0  3  0  0  0  0  0  0
  189.7880  176.6430  142.1910 C   0  0  0  0  0  2  0  0  0  0  0  0
  186.9880  177.5260  142.8300 O   0  0  0  0  0  0  0  0  0  0  0  0
  183.5850  178.6310  143.9360 C   0  0  1  0  0  3  0  0  0  0  0  0
  190.4780  178.9070  145.1280 N   0  0  0  0  0  1  0  0  0  0  0  0
  186.8500  177.8540  146.6290 C   0  0  0  0  0  0  0  0  0  0  0  0
  183.9910  179.6610  145.0020 C   0  0  0  0  0  2  0  0  0  0  0  0
  182.0690  179.4650  139.8250 O   0  0  0  0  0  1  0  0  0  0  0  0
  188.5210  177.4860  144.7250 C   0  0  2  0  0  3  0  0  0  0  0  0
  185.4330  178.3090  146.7270 C   0  0  1  0  0  3  0  0  0  0  0  0
  183.1220  176.9570  139.8810 O   0  0  0  0  0  1  0  0  0  0  0  0
  188.6780  175.8050  142.8170 C   0  0  0  0  0  2  0  0  0  0  0  0
  189.6850  178.2660  144.0920 C   0  0  2  0  0  3  0  0  0  0  0  0
  181.8420  179.1850  142.1610 C   0  0  0  0  0  3  0  0  0  0  0  0
  185.3670  179.3780  145.6300 C   0  0  1  0  0  3  0  0  0  0  0  0
  179.7620  178.6280  143.9660 C   0  0  0  0  0  1  0  0  0  0  0  0
  181.1020  178.9150  144.3430 O   0  0  0  0  0  0  0  0  0  0  0  0
  1 23  1  6  0  0  0
  1 20  1  0  0  0  0
  2 24  1  0  0  0  0
  3 15  1  0  0  0  0
  3 28  1  0  0  0  0
  4 14  1  6  0  0  0
  4 10  1  0  0  0  0
  7 17  1  1  0  0  0
  8 21  1  0  0  0  0
  9  5  1  6  0  0  0
  9  4  1  0  0  0  0
  9 15  1  0  0  0  0
 10  7  1  0  0  0  0
 10 26  1  0  0  0  0
 11 12  1  0  0  0  0
 11  5  2  0  0  0  0
 12 25  1  0  0  0  0
 13 23  1  0  0  0  0
 13  2  1  0  0  0  0
 14  1  1  0  0  0  0
 15 18  1  0  0  0  0
 17 21  1  0  0  0  0
 17  6  2  0  0  0  0
 18 26  1  0  0  0  0
 19 12  1  0  0  0  0
 20  7  1  0  0  0  0
 22 11  1  0  0  0  0
 24 20  1  0  0  0  0
 24 16  1  0  0  0  0
 25  3  2  0  0  0  0
 26 21  1  0  0  0  0
 27 28  1  0  0  0  0
M  END
>  <MODEL>
5

>  <REMARK>
 VINA RESULT:      -6.1      2.565      5.202
  Name = 
  1 active torsions:
  status: ('A' for Active; 'I' for Inactive)
    1  A    between atoms: C_3  and  O_18
                            x       y       z     vdW  Elec       q    Type
                         _______ _______ _______ _____ _____    ______ ____

>  <TORSDO>
F 1

$$$$
=
 OpenBabel11062416463D

 28 32  0  0  1  0  0  0  0  0999 V2000
  183.8160  179.4950  140.2580 C   0  0  2  0  0  3  0  0  0  0  0  0
  181.3380  178.3990  139.1120 C   0  0  0  0  0  2  0  0  0  0  0  0
  189.0150  178.0040  142.8980 C   0  0  0  0  0  0  0  0  0  0  0  0
  185.4560  178.5080  141.3650 C   0  0  2  0  0  3  0  0  0  0  0  0
  187.6510  178.5530  140.1940 C   0  0  0  0  0  3  0  0  0  0  0  0
  182.6770  180.3330  143.8220 O   0  0  0  0  0  0  0  0  0  0  0  0
  183.2340  178.4150  142.5010 C   0  0  1  0  0  3  0  0  0  0  0  0
  185.6330  180.2470  144.0280 O   0  0  0  0  0  1  0  0  0  0  0  0
  186.8750  177.9590  141.3310 C   0  0  1  0  0  3  0  0  0  0  0  0
  184.5970  177.7270  142.3690 C   0  0  2  0  0  3  0  0  0  0  0  0
  188.8330  178.0500  139.8550 C   0  0  0  0  0  0  0  0  0  0  0  0
  189.4040  176.9120  140.6480 C   0  0  1  0  0  3  0  0  0  0  0  0
  182.5070  178.8060  138.2240 C   0  0  0  0  0  2  0  0  0  0  0  0
  184.8280  178.5280  140.1140 O   0  0  0  0  0  0  0  0  0  0  0  0
  187.5190  178.2640  142.7040 C   0  0  1  0  0  3  0  0  0  0  0  0
  180.7050  177.5210  141.2790 N   0  0  0  0  0  1  0  0  0  0  0  0
  183.4690  179.4410  143.5600 C   0  0  0  0  0  0  0  0  0  0  0  0
  186.7200  177.5830  143.8260 C   0  0  0  0  0  2  0  0  0  0  0  0
  190.5100  176.3660  139.9950 O   0  0  0  0  0  1  0  0  0  0  0  0
  182.6770  178.9750  141.1700 C   0  0  2  0  0  3  0  0  0  0  0  0
  184.7310  179.2220  144.3230 C   0  0  1  0  0  3  0  0  0  0  0  0
  189.5430  178.6100  138.8000 O   0  0  0  0  0  1  0  0  0  0  0  0
  183.2920  179.9310  138.8900 C   0  0  0  0  0  2  0  0  0  0  0  0
  181.8450  177.8960  140.4590 C   0  0  2  0  0  3  0  0  0  0  0  0
  189.8110  177.3980  142.0030 C   0  0  0  0  0  3  0  0  0  0  0  0
  185.2100  177.8770  143.7630 C   0  0  1  0  0  3  0  0  0  0  0  0
  190.8910  179.1180  144.0810 C   0  0  0  0  0  1  0  0  0  0  0  0
  189.6440  178.4370  144.0710 O   0  0  0  0  0  0  0  0  0  0  0  0
  1 23  1  6  0  0  0
  1 20  1  0  0  0  0
  2 24  1  0  0  0  0
  3 28  1  0  0  0  0
  4 14  1  6  0  0  0
  4 10  1  0  0  0  0
  7 17  1  1  0  0  0
  8 21  1  0  0  0  0
  9  5  1  6  0  0  0
  9  4  1  0  0  0  0
  9 15  1  0  0  0  0
 10  7  1  0  0  0  0
 10 26  1  0  0  0  0
 11  5  2  0  0  0  0
 11 12  1  0  0  0  0
 12 25  1  0  0  0  0
 13 23  1  0  0  0  0
 13  2  1  0  0  0  0
 14  1  1  0  0  0  0
 15  3  1  0  0  0  0
 15 18  1  0  0  0  0
 17  6  2  0  0  0  0
 17 21  1  0  0  0  0
 19 12  1  0  0  0  0
 20  7  1  0  0  0  0
 22 11  1  0  0  0  0
 24 20  1  0  0  0  0
 24 16  1  0  0  0  0
 25  3  2  0  0  0  0
 26 18  1  0  0  0  0
 26 21  1  0  0  0  0
 28 27  1  0  0  0  0
M  END
>  <MODEL>
6

>  <REMARK>
 VINA RESULT:      -6.0      3.474      8.133
  Name = 
  1 active torsions:
  status: ('A' for Active; 'I' for Inactive)
    1  A    between atoms: C_3  and  O_18
                            x       y       z     vdW  Elec       q    Type
                         _______ _______ _______ _____ _____    ______ ____

>  <TORSDO>
F 1

$$$$
=
 OpenBabel11062416463D

 28 32  0  0  1  0  0  0  0  0999 V2000
  184.9700  178.2410  138.2090 C   0  0  2  0  0  3  0  0  0  0  0  0
  186.5140  176.1780  136.7890 C   0  0  0  0  0  2  0  0  0  0  0  0
  181.3580  179.2120  142.9230 C   0  0  0  0  0  0  0  0  0  0  0  0
  183.5420  178.0770  139.8880 C   0  0  2  0  0  3  0  0  0  0  0  0
  184.2870  179.2060  141.9770 C   0  0  0  0  0  3  0  0  0  0  0  0
  181.7140  178.2550  136.1840 O   0  0  0  0  0  0  0  0  0  0  0  0
  182.8350  176.8950  137.8050 C   0  0  1  0  0  3  0  0  0  0  0  0
  180.9610  179.5510  138.7420 O   0  0  0  0  0  1  0  0  0  0  0  0
  183.2920  178.2570  141.3790 C   0  0  1  0  0  3  0  0  0  0  0  0
  182.6860  176.9320  139.3290 C   0  0  2  0  0  3  0  0  0  0  0  0
  184.3820  179.3330  143.2960 C   0  0  0  0  0  0  0  0  0  0  0  0
  183.4530  178.5530  144.1800 C   0  0  1  0  0  3  0  0  0  0  0  0
  187.1840  177.1310  137.7690 C   0  0  0  0  0  2  0  0  0  0  0  0
  184.8880  177.8680  139.5630 O   0  0  0  0  0  0  0  0  0  0  0  0
  181.8360  178.7540  141.5420 C   0  0  1  0  0  3  0  0  0  0  0  0
  184.4690  174.9900  136.2600 N   0  0  0  0  0  1  0  0  0  0  0  0
  181.7910  177.8530  137.3350 C   0  0  0  0  0  0  0  0  0  0  0  0
  180.8560  177.7190  140.9680 C   0  0  0  0  0  2  0  0  0  0  0  0
  183.8690  178.6230  145.5100 O   0  0  0  0  0  1  0  0  0  0  0  0
  184.2660  177.2000  137.3020 C   0  0  2  0  0  3  0  0  0  0  0  0
  180.7990  178.2080  138.3900 C   0  0  1  0  0  3  0  0  0  0  0  0
  185.3070  180.2160  143.8380 O   0  0  0  0  0  1  0  0  0  0  0  0
  186.4270  178.4550  137.8000 C   0  0  0  0  0  2  0  0  0  0  0  0
  185.0780  175.8980  137.2180 C   0  0  2  0  0  3  0  0  0  0  0  0
  182.0670  179.0980  144.0570 C   0  0  0  0  0  3  0  0  0  0  0  0
  181.2080  177.2750  139.5370 C   0  0  1  0  0  3  0  0  0  0  0  0
  179.1110  179.3830  143.9640 C   0  0  0  0  0  1  0  0  0  0  0  0
  180.1060  179.8250  143.0510 O   0  0  0  0  0  0  0  0  0  0  0  0
  1 23  1  6  0  0  0
  1 14  1  0  0  0  0
  2 24  1  0  0  0  0
  2 13  1  0  0  0  0
  3 28  1  0  0  0  0
  3 25  2  0  0  0  0
  4 14  1  1  0  0  0
  4  9  1  0  0  0  0
  5 11  2  0  0  0  0
  6 17  2  0  0  0  0
  7 17  1  6  0  0  0
  7 10  1  0  0  0  0
  9 15  1  0  0  0  0
  9  5  1  6  0  0  0
 10 26  1  0  0  0  0
 10  4  1  0  0  0  0
 11 22  1  0  0  0  0
 11 12  1  0  0  0  0
 12 19  1  0  0  0  0
 13 23  1  0  0  0  0
 15  3  1  0  0  0  0
 16 24  1  0  0  0  0
 17 21  1  0  0  0  0
 18 15  1  0  0  0  0
 20  7  1  0  0  0  0
 20  1  1  0  0  0  0
 21  8  1  0  0  0  0
 21 26  1  0  0  0  0
 24 20  1  0  0  0  0
 25 12  1  0  0  0  0
 26 18  1  0  0  0  0
 28 27  1  0  0  0  0
M  END
>  <MODEL>
7

>  <REMARK>
 VINA RESULT:      -6.0      5.857      8.093
  Name = 
  1 active torsions:
  status: ('A' for Active; 'I' for Inactive)
    1  A    between atoms: C_3  and  O_18
                            x       y       z     vdW  Elec       q    Type
                         _______ _______ _______ _____ _____    ______ ____

>  <TORSDO>
F 1

$$$$
=
 OpenBabel11062416463D

 28 32  0  0  1  0  0  0  0  0999 V2000
  187.0360  177.3120  139.0310 C   0  0  2  0  0  3  0  0  0  0  0  0
  187.2730  178.8060  136.5080 C   0  0  0  0  0  2  0  0  0  0  0  0
  187.3120  177.8300  145.0200 C   0  0  0  0  0  0  0  0  0  0  0  0
  187.4430  177.9240  141.1160 C   0  0  2  0  0  3  0  0  0  0  0  0
  185.4340  177.9480  142.5850 C   0  0  0  0  0  3  0  0  0  0  0  0
  190.5680  175.8590  139.3670 O   0  0  0  0  0  0  0  0  0  0  0  0
  189.4390  177.9550  139.6170 C   0  0  1  0  0  3  0  0  0  0  0  0
  189.4640  175.6720  142.1110 O   0  0  0  0  0  1  0  0  0  0  0  0
  186.8710  178.3580  142.4590 C   0  0  1  0  0  3  0  0  0  0  0  0
  188.8270  178.5490  140.8890 C   0  0  2  0  0  3  0  0  0  0  0  0
  184.6900  178.4170  143.5800 C   0  0  0  0  0  0  0  0  0  0  0  0
  185.3120  179.3230  144.6020 C   0  0  1  0  0  3  0  0  0  0  0  0
  185.9130  178.4990  137.1190 C   0  0  0  0  0  2  0  0  0  0  0  0
  186.6080  178.2080  140.0290 O   0  0  0  0  0  0  0  0  0  0  0  0
  187.7590  177.7310  143.5600 C   0  0  1  0  0  3  0  0  0  0  0  0
  189.6020  179.2710  136.9840 N   0  0  0  0  0  1  0  0  0  0  0  0
  190.1210  176.7210  140.1070 C   0  0  0  0  0  0  0  0  0  0  0  0
  189.2060  178.2290  143.4200 C   0  0  0  0  0  2  0  0  0  0  0  0
  184.3290  179.9030  145.4060 O   0  0  0  0  0  1  0  0  0  0  0  0
  188.4220  177.7230  138.4740 C   0  0  2  0  0  3  0  0  0  0  0  0
  190.2750  176.6830  141.5900 C   0  0  1  0  0  3  0  0  0  0  0  0
  183.3600  178.0290  143.6870 O   0  0  0  0  0  1  0  0  0  0  0  0
  185.9890  177.2050  137.9230 C   0  0  0  0  0  2  0  0  0  0  0  0
  188.3190  178.9850  137.6030 C   0  0  2  0  0  3  0  0  0  0  0  0
  186.2600  178.5420  145.4550 C   0  0  0  0  0  3  0  0  0  0  0  0
  189.7700  178.0720  141.9970 C   0  0  1  0  0  3  0  0  0  0  0  0
  188.0600  177.5210  147.3670 C   0  0  0  0  0  1  0  0  0  0  0  0
  188.0100  177.1210  146.0050 O   0  0  0  0  0  0  0  0  0  0  0  0
  1 23  1  6  0  0  0
  1 14  1  0  0  0  0
  2 13  1  0  0  0  0
  2 24  1  0  0  0  0
  3 25  2  0  0  0  0
  3 28  1  0  0  0  0
  4 14  1  6  0  0  0
  4  9  1  0  0  0  0
  5 11  2  0  0  0  0
  6 17  2  0  0  0  0
  7 17  1  1  0  0  0
  7 10  1  0  0  0  0
  9  5  1  1  0  0  0
  9 15  1  0  0  0  0
 10  4  1  0  0  0  0
 10 26  1  0  0  0  0
 11 22  1  0  0  0  0
 11 12  1  0  0  0  0
 12 19  1  0  0  0  0
 12 25  1  0  0  0  0
 13 23  1  0  0  0  0
 15  3  1  0  0  0  0
 16 24  1  0  0  0  0
 17 21  1  0  0  0  0
 18 15  1  0  0  0  0
 20  1  1  0  0  0  0
 20  7  1  0  0  0  0
 21 26  1  0  0  0  0
 21  8  1  0  0  0  0
 24 20  1  0  0  0  0
 26 18  1  0  0  0  0
 28 27  1  0  0  0  0
M  END
>  <MODEL>
8

>  <REMARK>
 VINA RESULT:      -5.9      3.112      5.954
  Name = 
  1 active torsions:
  status: ('A' for Active; 'I' for Inactive)
    1  A    between atoms: C_3  and  O_18
                            x       y       z     vdW  Elec       q    Type
                         _______ _______ _______ _____ _____    ______ ____

>  <TORSDO>
F 1

$$$$
=
 OpenBabel11062416463D

 28 32  0  0  1  0  0  0  0  0999 V2000
  183.6260  177.1150  137.1420 C   0  0  2  0  0  3  0  0  0  0  0  0
  184.5710  174.7430  135.6810 C   0  0  0  0  0  2  0  0  0  0  0  0
  181.5830  179.0410  142.4650 C   0  0  0  0  0  0  0  0  0  0  0  0
  182.7320  177.3120  139.1540 C   0  0  2  0  0  3  0  0  0  0  0  0
  184.1110  178.6200  140.7610 C   0  0  0  0  0  3  0  0  0  0  0  0
  179.9320  177.1950  136.1150 O   0  0  0  0  0  0  0  0  0  0  0  0
  181.3880  175.9500  137.5510 C   0  0  1  0  0  3  0  0  0  0  0  0
  180.0230  178.8770  138.5540 O   0  0  0  0  0  1  0  0  0  0  0  0
  182.9310  177.7070  140.6110 C   0  0  1  0  0  3  0  0  0  0  0  0
  181.6840  176.1960  139.0330 C   0  0  2  0  0  3  0  0  0  0  0  0
  184.5870  178.9040  141.9680 C   0  0  0  0  0  0  0  0  0  0  0  0
  183.9070  178.3410  143.1810 C   0  0  1  0  0  3  0  0  0  0  0  0
  185.5490  175.7420  136.2830 C   0  0  0  0  0  2  0  0  0  0  0  0
  183.9130  176.9290  138.5060 O   0  0  0  0  0  0  0  0  0  0  0  0
  181.6150  178.3630  141.0920 C   0  0  1  0  0  3  0  0  0  0  0  0
  182.3930  173.7080  135.9220 N   0  0  0  0  0  1  0  0  0  0  0  0
  180.3110  176.9380  137.2470 C   0  0  0  0  0  0  0  0  0  0  0  0
  180.4530  177.3660  140.9730 C   0  0  0  0  0  2  0  0  0  0  0  0
  184.6900  178.5400  144.3190 O   0  0  0  0  0  1  0  0  0  0  0  0
  182.6300  176.0420  136.6330 C   0  0  2  0  0  3  0  0  0  0  0  0
  179.6870  177.5240  138.4680 C   0  0  1  0  0  3  0  0  0  0  0  0
  185.6800  179.7530  142.0930 O   0  0  0  0  0  1  0  0  0  0  0  0
  184.9140  177.1280  136.3200 C   0  0  0  0  0  2  0  0  0  0  0  0
  183.3040  174.6650  136.5270 C   0  0  2  0  0  3  0  0  0  0  0  0
  182.5780  179.0030  143.3640 C   0  0  0  0  0  3  0  0  0  0  0  0
  180.3520  176.7100  139.5850 C   0  0  1  0  0  3  0  0  0  0  0  0
  179.5400  179.3660  143.8380 C   0  0  0  0  0  1  0  0  0  0  0  0
  180.4590  179.7870  142.8380 O   0  0  0  0  0  0  0  0  0  0  0  0
  1 23  1  6  0  0  0
  1 14  1  0  0  0  0
  2 13  1  0  0  0  0
  2 24  1  0  0  0  0
  3 28  1  0  0  0  0
  3 25  2  0  0  0  0
  4 14  1  1  0  0  0
  4  9  1  0  0  0  0
  5 11  2  0  0  0  0
  6 17  2  0  0  0  0
  7 17  1  6  0  0  0
  7 10  1  0  0  0  0
  9  5  1  6  0  0  0
  9 15  1  0  0  0  0
 10  4  1  0  0  0  0
 10 26  1  0  0  0  0
 11 22  1  0  0  0  0
 11 12  1  0  0  0  0
 12 25  1  0  0  0  0
 12 19  1  0  0  0  0
 13 23  1  0  0  0  0
 15  3  1  0  0  0  0
 16 24  1  0  0  0  0
 17 21  1  0  0  0  0
 18 15  1  0  0  0  0
 20  1  1  0  0  0  0
 20  7  1  0  0  0  0
 21  8  1  0  0  0  0
 21 26  1  0  0  0  0
 24 20  1  0  0  0  0
 26 18  1  0  0  0  0
 28 27  1  0  0  0  0
M  END
>  <MODEL>
9

>  <REMARK>
 VINA RESULT:      -5.8      6.051      9.223
  Name = 
  1 active torsions:
  status: ('A' for Active; 'I' for Inactive)
    1  A    between atoms: C_3  and  O_18
                            x       y       z     vdW  Elec       q    Type
                         _______ _______ _______ _____ _____    ______ ____

>  <TORSDO>
F 1

$$$$
