=
 OpenBabel11062415013D

 31 35  0  0  1  0  0  0  0  0999 V2000
  188.8690  177.7870  142.8750 C   0  0  2  0  0  3  0  0  0  0  0  0
  189.4670  177.1210  144.0380 N   0  0  2  0  0  0  0  0  0  0  0  0
  189.2950  177.4530  146.2880 C   0  0  1  0  0  3  0  0  0  0  0  0
  187.4890  178.1160  144.7150 C   0  0  0  0  0  0  0  0  0  0  0  0
  186.3570  178.2470  146.9120 C   0  0  0  0  0  3  0  0  0  0  0  0
  187.6300  178.3330  143.3490 O   0  0  0  0  0  0  0  0  0  0  0  0
  188.8240  178.3560  147.3940 C   0  0  1  0  0  3  0  0  0  0  0  0
  188.6470  177.3710  145.1420 C   0  0  1  0  0  3  0  0  0  0  0  0
  188.5900  176.7660  141.7900 C   0  0  0  0  0  1  0  0  0  0  0  0
  186.4580  178.5280  145.4630 C   0  0  0  0  0  0  0  0  0  0  0  0
  190.8530  177.1600  144.4880 C   0  0  2  0  0  3  0  0  0  0  0  0
  187.3860  178.1270  147.7590 C   0  0  0  0  0  3  0  0  0  0  0  0
  190.7520  177.1530  146.0320 C   0  0  2  0  0  3  0  0  0  0  0  0
  189.6180  178.1970  148.5290 O   0  0  0  0  0  1  0  0  0  0  0  0
  192.3370  178.3510  143.0500 O   0  0  0  0  0  0  0  0  0  0  0  0
  191.3280  179.6170  144.6720 O   0  0  0  0  0  1  0  0  0  0  0  0
  191.5500  178.4040  144.0300 C   0  0  0  0  0  0  0  0  0  0  0  0
  191.7390  175.8620  147.8080 O   0  0  0  0  0  1  0  0  0  0  0  0
  191.1210  175.7640  146.5600 C   0  0  2  0  0  3  0  0  0  0  0  0
  192.0680  175.0670  145.6010 C   0  0  0  0  0  1  0  0  0  0  0  0
  185.3120  179.2280  144.8080 C   0  0  0  0  0  2  0  0  0  0  0  0
  183.0240  178.7400  144.6170 C   0  0  0  0  0  2  0  0  0  0  0  0
  183.1730  178.7830  142.2510 C   0  0  2  0  0  3  0  0  0  0  0  0
  184.4770  178.2750  142.8380 C   0  0  0  0  0  2  0  0  0  0  0  0
  184.3610  178.2540  144.2940 N   0  0  0  0  0  0  0  0  0  0  0  0
  182.1810  178.6280  143.3730 C   0  0  0  0  0  2  0  0  0  0  0  0
  182.8520  179.6920  138.9080 S   0  0  0  0  0  0  0  0  0  0  0  0
  181.3250  178.2600  140.6210 C   0  0  0  0  0  2  0  0  0  0  0  0
  183.6170  178.3130  139.8190 C   0  0  0  0  0  2  0  0  0  0  0  0
  182.7570  177.9650  141.0230 C   0  0  1  0  0  3  0  0  0  0  0  0
  181.3160  179.5760  139.8730 C   0  0  0  0  0  2  0  0  0  0  0  0
  1  9  1  6  0  0  0
  1  6  1  0  0  0  0
  1  2  1  0  0  0  0
  2 11  1  0  0  0  0
  2  8  1  0  0  0  0
  3  7  1  0  0  0  0
  4  8  1  0  0  0  0
  4 10  2  0  0  0  0
  5 12  2  0  0  0  0
  6  4  1  0  0  0  0
  7 12  1  0  0  0  0
  7 14  1  0  0  0  0
  8  3  1  0  0  0  0
 10  5  1  0  0  0  0
 11 13  1  0  0  0  0
 13  3  1  0  0  0  0
 13 19  1  0  0  0  0
 15 17  2  0  0  0  0
 17 11  1  0  0  0  0
 17 16  1  0  0  0  0
 19 18  1  0  0  0  0
 20 19  1  0  0  0  0
 21 10  1  0  0  0  0
 23 24  1  0  0  0  0
 23 26  1  0  0  0  0
 24 25  1  0  0  0  0
 25 22  1  0  0  0  0
 25 21  1  0  0  0  0
 26 22  1  0  0  0  0
 27 29  1  0  0  0  0
 27 31  1  0  0  0  0
 28 30  1  0  0  0  0
 29 30  1  0  0  0  0
 30 23  1  0  0  0  0
 31 28  1  0  0  0  0
M  END
>  <MODEL>
1

>  <REMARK>
 VINA RESULT:      -7.5      0.000      0.000
  Name = 
  5 active torsions:
  status: ('A' for Active; 'I' for Inactive)
    1  A    between atoms: C_6  and  C_19
    2  A    between atoms: C_16  and  C_30
    3  A    between atoms: N_21  and  C_24
    4  A    between atoms: C_22  and  C_24
    5  A    between atoms: C_25  and  C_26
                            x       y       z     vdW  Elec       q    Type
                         _______ _______ _______ _____ _____    ______ ____

>  <TORSDO>
F 5

$$$$
=
 OpenBabel11062415013D

 31 35  0  0  1  0  0  0  0  0999 V2000
  183.6810  177.8740  139.6900 C   0  0  2  0  0  3  0  0  0  0  0  0
  182.6210  178.7490  140.2040 N   0  0  2  0  0  0  0  0  0  0  0  0
  181.7250  179.0690  142.2770 C   0  0  1  0  0  3  0  0  0  0  0  0
  184.0450  178.2390  141.9560 C   0  0  0  0  0  0  0  0  0  0  0  0
  184.0270  178.8570  144.3520 C   0  0  0  0  0  3  0  0  0  0  0  0
  184.5510  177.6410  140.8070 O   0  0  0  0  0  0  0  0  0  0  0  0
  181.6170  178.5700  143.6910 C   0  0  1  0  0  3  0  0  0  0  0  0
  182.8320  178.9170  141.5750 C   0  0  1  0  0  3  0  0  0  0  0  0
  184.4460  178.5870  138.5930 C   0  0  0  0  0  1  0  0  0  0  0  0
  184.6060  178.1810  143.1710 C   0  0  0  0  0  0  0  0  0  0  0  0
  181.1840  178.6580  139.9760 C   0  0  2  0  0  3  0  0  0  0  0  0
  182.7240  179.0720  144.5720 C   0  0  0  0  0  3  0  0  0  0  0  0
  180.5580  179.0990  141.3200 C   0  0  2  0  0  3  0  0  0  0  0  0
  180.3890  178.9290  144.2460 O   0  0  0  0  0  1  0  0  0  0  0  0
  180.2790  176.5290  140.5590 O   0  0  0  0  0  1  0  0  0  0  0  0
  180.8940  176.7570  138.3630 O   0  0  0  0  0  0  0  0  0  0  0  0
  180.7620  177.2570  139.6540 C   0  0  0  0  0  0  0  0  0  0  0  0
  178.9310  180.7140  142.0530 O   0  0  0  0  0  1  0  0  0  0  0  0
  180.0050  180.5200  141.1830 C   0  0  2  0  0  3  0  0  0  0  0  0
  179.5330  180.7700  139.7620 C   0  0  0  0  0  1  0  0  0  0  0  0
  185.9150  177.4820  143.3400 C   0  0  0  0  0  2  0  0  0  0  0  0
  186.6130  177.5990  145.5790 C   0  0  0  0  0  2  0  0  0  0  0  0
  188.8660  177.2310  144.9360 C   0  0  2  0  0  3  0  0  0  0  0  0
  188.1410  178.0040  143.8490 C   0  0  0  0  0  2  0  0  0  0  0  0
  186.7590  178.2210  144.2670 N   0  0  0  0  0  0  0  0  0  0  0  0
  187.9930  177.4030  146.1510 C   0  0  0  0  0  2  0  0  0  0  0  0
  191.6430  177.3900  142.8480 S   0  0  0  0  0  0  0  0  0  0  0  0
  191.2730  176.6800  145.4320 C   0  0  0  0  0  2  0  0  0  0  0  0
  190.7750  178.5450  143.9570 C   0  0  0  0  0  2  0  0  0  0  0  0
  190.2720  177.7910  145.1770 C   0  0  1  0  0  3  0  0  0  0  0  0
  191.6350  176.0680  144.0950 C   0  0  0  0  0  2  0  0  0  0  0  0
  1  9  1  6  0  0  0
  1  2  1  0  0  0  0
  1  6  1  0  0  0  0
  2  8  1  0  0  0  0
  3  7  1  0  0  0  0
  4 10  2  0  0  0  0
  5 12  2  0  0  0  0
  6  4  1  0  0  0  0
  7 14  1  0  0  0  0
  7 12  1  0  0  0  0
  8  4  1  0  0  0  0
  8  3  1  0  0  0  0
 10 21  1  0  0  0  0
 10  5  1  0  0  0  0
 11  2  1  0  0  0  0
 11 13  1  0  0  0  0
 13  3  1  0  0  0  0
 16 17  2  0  0  0  0
 17 11  1  0  0  0  0
 17 15  1  0  0  0  0
 19 13  1  0  0  0  0
 19 18  1  0  0  0  0
 20 19  1  0  0  0  0
 21 25  1  0  0  0  0
 22 26  1  0  0  0  0
 23 30  1  0  0  0  0
 23 26  1  0  0  0  0
 24 25  1  0  0  0  0
 24 23  1  0  0  0  0
 25 22  1  0  0  0  0
 27 29  1  0  0  0  0
 27 31  1  0  0  0  0
 29 30  1  0  0  0  0
 30 28  1  0  0  0  0
 31 28  1  0  0  0  0
M  END
>  <MODEL>
2

>  <REMARK>
 VINA RESULT:      -7.3      3.951      8.905
  Name = 
  5 active torsions:
  status: ('A' for Active; 'I' for Inactive)
    1  A    between atoms: C_6  and  C_19
    2  A    between atoms: C_16  and  C_30
    3  A    between atoms: N_21  and  C_24
    4  A    between atoms: C_22  and  C_24
    5  A    between atoms: C_25  and  C_26
                            x       y       z     vdW  Elec       q    Type
                         _______ _______ _______ _____ _____    ______ ____

>  <TORSDO>
F 5

$$$$
=
 OpenBabel11062415013D

 31 35  0  0  1  0  0  0  0  0999 V2000
  184.3900  179.1110  141.4710 C   0  0  2  0  0  3  0  0  0  0  0  0
  184.2560  178.3320  140.2350 N   0  0  2  0  0  0  0  0  0  0  0  0
  185.6480  177.9540  138.4670 C   0  0  1  0  0  3  0  0  0  0  0  0
  186.5100  178.5180  140.7280 C   0  0  0  0  0  0  0  0  0  0  0  0
  188.5420  177.7110  139.5680 C   0  0  0  0  0  3  0  0  0  0  0  0
  185.7980  179.1420  141.7450 O   0  0  0  0  0  0  0  0  0  0  0  0
  186.9150  178.3440  137.7570 C   0  0  1  0  0  3  0  0  0  0  0  0
  185.5430  178.0270  139.7800 C   0  0  1  0  0  3  0  0  0  0  0  0
  183.6700  178.4020  142.6010 C   0  0  0  0  0  1  0  0  0  0  0  0
  187.8440  178.4060  140.6710 C   0  0  0  0  0  0  0  0  0  0  0  0
  183.4230  178.6160  139.0720 C   0  0  2  0  0  3  0  0  0  0  0  0
  188.1250  177.6390  138.2990 C   0  0  0  0  0  3  0  0  0  0  0  0
  184.2750  178.1460  137.8700 C   0  0  2  0  0  3  0  0  0  0  0  0
  186.8090  178.0920  136.3900 O   0  0  0  0  0  1  0  0  0  0  0  0
  184.0750  180.8900  138.7640 O   0  0  0  0  0  0  0  0  0  0  0  0
  181.8240  180.5500  139.0210 O   0  0  0  0  0  1  0  0  0  0  0  0
  183.1300  180.0800  138.9460 C   0  0  0  0  0  0  0  0  0  0  0  0
  184.6690  175.8030  137.4810 O   0  0  0  0  0  1  0  0  0  0  0  0
  183.7220  176.8190  137.3420 C   0  0  2  0  0  3  0  0  0  0  0  0
  183.3550  176.9440  135.8740 C   0  0  0  0  0  1  0  0  0  0  0  0
  188.6710  178.9240  141.8020 C   0  0  0  0  0  2  0  0  0  0  0  0
  190.4830  178.2350  143.1260 C   0  0  0  0  0  2  0  0  0  0  0  0
  189.0570  177.9540  145.0000 C   0  0  2  0  0  3  0  0  0  0  0  0
  188.2970  177.6380  143.7250 C   0  0  0  0  0  2  0  0  0  0  0  0
  189.1940  177.8150  142.5860 N   0  0  0  0  0  0  0  0  0  0  0  0
  190.5040  177.8820  144.5910 C   0  0  0  0  0  2  0  0  0  0  0  0
  187.5880  178.3740  148.1260 S   0  0  0  0  0  0  0  0  0  0  0  0
  189.7500  177.0170  147.2330 C   0  0  0  0  0  2  0  0  0  0  0  0
  187.3830  177.2220  146.7300 C   0  0  0  0  0  2  0  0  0  0  0  0
  188.7390  176.9410  146.1050 C   0  0  1  0  0  3  0  0  0  0  0  0
  189.3980  178.2140  148.0900 C   0  0  0  0  0  2  0  0  0  0  0  0
  1  6  1  0  0  0  0
  1  9  1  1  0  0  0
  2  1  1  0  0  0  0
  3  8  1  0  0  0  0
  4  6  1  0  0  0  0
  5 10  1  0  0  0  0
  7 12  1  0  0  0  0
  7  3  1  0  0  0  0
  8  2  1  0  0  0  0
  8  4  1  0  0  0  0
 10  4  2  0  0  0  0
 10 21  1  0  0  0  0
 11  2  1  0  0  0  0
 12  5  2  0  0  0  0
 13  3  1  0  0  0  0
 13 11  1  0  0  0  0
 14  7  1  0  0  0  0
 15 17  2  0  0  0  0
 17 16  1  0  0  0  0
 17 11  1  0  0  0  0
 19 18  1  0  0  0  0
 19 13  1  0  0  0  0
 20 19  1  0  0  0  0
 21 25  1  0  0  0  0
 22 26  1  0  0  0  0
 23 30  1  0  0  0  0
 24 23  1  0  0  0  0
 25 22  1  0  0  0  0
 25 24  1  0  0  0  0
 26 23  1  0  0  0  0
 28 31  1  0  0  0  0
 29 27  1  0  0  0  0
 30 29  1  0  0  0  0
 30 28  1  0  0  0  0
 31 27  1  0  0  0  0
M  END
>  <MODEL>
3

>  <REMARK>
 VINA RESULT:      -7.0      3.755      8.729
  Name = 
  5 active torsions:
  status: ('A' for Active; 'I' for Inactive)
    1  A    between atoms: C_6  and  C_19
    2  A    between atoms: C_16  and  C_30
    3  A    between atoms: N_21  and  C_24
    4  A    between atoms: C_22  and  C_24
    5  A    between atoms: C_25  and  C_26
                            x       y       z     vdW  Elec       q    Type
                         _______ _______ _______ _____ _____    ______ ____

>  <TORSDO>
F 5

$$$$
=
 OpenBabel11062415013D

 31 35  0  0  1  0  0  0  0  0999 V2000
  186.3090  178.1190  137.9270 C   0  0  2  0  0  3  0  0  0  0  0  0
  187.4860  177.2600  138.1020 N   0  0  2  0  0  0  0  0  0  0  0  0
  189.1620  177.2010  139.6490 C   0  0  1  0  0  3  0  0  0  0  0  0
  186.9180  178.1330  140.1690 C   0  0  0  0  0  0  0  0  0  0  0  0
  187.9280  177.8920  142.4150 C   0  0  0  0  0  3  0  0  0  0  0  0
  185.9820  178.5810  139.2440 O   0  0  0  0  0  0  0  0  0  0  0  0
  189.8470  177.9030  140.7890 C   0  0  1  0  0  3  0  0  0  0  0  0
  187.8630  177.3210  139.4470 C   0  0  1  0  0  3  0  0  0  0  0  0
  185.1590  177.3000  137.3760 C   0  0  0  0  0  1  0  0  0  0  0  0
  186.9110  178.4170  141.4780 C   0  0  0  0  0  0  0  0  0  0  0  0
  188.7010  177.2140  137.2950 C   0  0  2  0  0  3  0  0  0  0  0  0
  189.2050  177.6220  142.1160 C   0  0  0  0  0  3  0  0  0  0  0  0
  189.8280  176.9420  138.3190 C   0  0  2  0  0  3  0  0  0  0  0  0
  191.1940  177.5480  140.8450 O   0  0  0  0  0  1  0  0  0  0  0  0
  189.0550  178.5380  135.3430 O   0  0  0  0  0  0  0  0  0  0  0  0
  189.0610  179.6970  137.3190 O   0  0  0  0  0  1  0  0  0  0  0  0
  188.9510  178.5150  136.5960 C   0  0  0  0  0  0  0  0  0  0  0  0
  191.6520  175.3740  138.3970 O   0  0  0  0  0  1  0  0  0  0  0  0
  190.2730  175.4810  138.2110 C   0  0  2  0  0  3  0  0  0  0  0  0
  189.9210  174.9200  136.8450 C   0  0  0  0  0  1  0  0  0  0  0  0
  185.7910  179.2240  142.0470 C   0  0  0  0  0  2  0  0  0  0  0  0
  184.6540  178.8430  144.0650 C   0  0  0  0  0  2  0  0  0  0  0  0
  182.5630  179.1540  142.9900 C   0  0  2  0  0  3  0  0  0  0  0  0
  183.5520  178.5350  142.0190 C   0  0  0  0  0  2  0  0  0  0  0  0
  184.8300  178.3510  142.7020 N   0  0  0  0  0  0  0  0  0  0  0  0
  183.1740  178.9060  144.3430 C   0  0  0  0  0  2  0  0  0  0  0  0
  179.8890  179.8320  140.8700 S   0  0  0  0  0  0  0  0  0  0  0  0
  180.1090  179.3520  143.5230 C   0  0  0  0  0  2  0  0  0  0  0  0
  180.7750  178.3390  141.4180 C   0  0  0  0  0  2  0  0  0  0  0  0
  181.1820  178.4990  142.8740 C   0  0  1  0  0  3  0  0  0  0  0  0
  179.7690  180.4740  142.5660 C   0  0  0  0  0  2  0  0  0  0  0  0
  1  9  1  1  0  0  0
  1  2  1  0  0  0  0
  1  6  1  0  0  0  0
  2  8  1  0  0  0  0
  3  7  1  0  0  0  0
  4 10  2  0  0  0  0
  6  4  1  0  0  0  0
  7 14  1  0  0  0  0
  7 12  1  0  0  0  0
  8  3  1  0  0  0  0
  8  4  1  0  0  0  0
 10 21  1  0  0  0  0
 10  5  1  0  0  0  0
 11  2  1  0  0  0  0
 11 13  1  0  0  0  0
 12  5  2  0  0  0  0
 13  3  1  0  0  0  0
 15 17  2  0  0  0  0
 17 11  1  0  0  0  0
 17 16  1  0  0  0  0
 19 13  1  0  0  0  0
 19 18  1  0  0  0  0
 20 19  1  0  0  0  0
 21 25  1  0  0  0  0
 22 26  1  0  0  0  0
 23 26  1  0  0  0  0
 24 25  1  0  0  0  0
 24 23  1  0  0  0  0
 25 22  1  0  0  0  0
 27 29  1  0  0  0  0
 27 31  1  0  0  0  0
 29 30  1  0  0  0  0
 30 23  1  0  0  0  0
 30 28  1  0  0  0  0
 31 28  1  0  0  0  0
M  END
>  <MODEL>
4

>  <REMARK>
 VINA RESULT:      -7.0      3.602      5.733
  Name = 
  5 active torsions:
  status: ('A' for Active; 'I' for Inactive)
    1  A    between atoms: C_6  and  C_19
    2  A    between atoms: C_16  and  C_30
    3  A    between atoms: N_21  and  C_24
    4  A    between atoms: C_22  and  C_24
    5  A    between atoms: C_25  and  C_26
                            x       y       z     vdW  Elec       q    Type
                         _______ _______ _______ _____ _____    ______ ____

>  <TORSDO>
F 5

$$$$
=
 OpenBabel11062415013D

 31 35  0  0  1  0  0  0  0  0999 V2000
  186.8610  177.8960  137.6540 C   0  0  2  0  0  3  0  0  0  0  0  0
  185.4130  177.9560  137.4260 N   0  0  2  0  0  0  0  0  0  0  0  0
  183.6030  177.6980  138.7910 C   0  0  1  0  0  3  0  0  0  0  0  0
  185.8110  178.4410  139.6540 C   0  0  0  0  0  0  0  0  0  0  0  0
  184.2990  178.9580  141.5440 C   0  0  0  0  0  3  0  0  0  0  0  0
  187.0400  178.2550  139.0310 O   0  0  0  0  0  0  0  0  0  0  0  0
  183.0940  177.2570  140.1350 C   0  0  1  0  0  3  0  0  0  0  0  0
  184.7980  178.2390  138.6500 C   0  0  1  0  0  3  0  0  0  0  0  0
  187.5600  178.9100  136.7710 C   0  0  0  0  0  1  0  0  0  0  0  0
  185.6360  178.7540  140.9450 C   0  0  0  0  0  0  0  0  0  0  0  0
  184.5700  177.0080  136.7070 C   0  0  2  0  0  3  0  0  0  0  0  0
  183.1710  178.3420  141.1710 C   0  0  0  0  0  3  0  0  0  0  0  0
  183.2440  176.9980  137.5020 C   0  0  2  0  0  3  0  0  0  0  0  0
  181.7780  176.8060  140.0380 O   0  0  0  0  0  1  0  0  0  0  0  0
  186.0860  175.3610  135.8830 O   0  0  0  0  0  0  0  0  0  0  0  0
  184.7200  174.6610  137.5840 O   0  0  0  0  0  1  0  0  0  0  0  0
  185.1670  175.6340  136.6970 C   0  0  0  0  0  0  0  0  0  0  0  0
  181.9020  178.9940  137.3820 O   0  0  0  0  0  1  0  0  0  0  0  0
  182.1830  177.7900  136.7330 C   0  0  2  0  0  3  0  0  0  0  0  0
  180.9000  176.9870  136.6210 C   0  0  0  0  0  1  0  0  0  0  0  0
  186.8300  178.9950  141.8090 C   0  0  0  0  0  2  0  0  0  0  0  0
  188.7070  177.7410  142.4530 C   0  0  0  0  0  2  0  0  0  0  0  0
  188.0400  177.8400  144.7270 C   0  0  2  0  0  3  0  0  0  0  0  0
  186.8130  177.8160  143.8330 C   0  0  0  0  0  2  0  0  0  0  0  0
  187.2480  177.7530  142.4400 N   0  0  0  0  0  0  0  0  0  0  0  0
  189.1510  177.3460  143.8390 C   0  0  0  0  0  2  0  0  0  0  0  0
  187.7650  178.5990  148.1110 S   0  0  0  0  0  0  0  0  0  0  0  0
  189.1600  176.7570  146.7060 C   0  0  0  0  0  2  0  0  0  0  0  0
  186.8710  177.5350  146.9340 C   0  0  0  0  0  2  0  0  0  0  0  0
  187.8580  176.9320  145.9480 C   0  0  1  0  0  3  0  0  0  0  0  0
  189.3820  178.0020  147.5380 C   0  0  0  0  0  2  0  0  0  0  0  0
  1  9  1  6  0  0  0
  1  6  1  0  0  0  0
  2  1  1  0  0  0  0
  2  8  1  0  0  0  0
  3  7  1  0  0  0  0
  4 10  2  0  0  0  0
  6  4  1  0  0  0  0
  7 12  1  0  0  0  0
  8  3  1  0  0  0  0
  8  4  1  0  0  0  0
 10  5  1  0  0  0  0
 10 21  1  0  0  0  0
 11  2  1  0  0  0  0
 11 13  1  0  0  0  0
 12  5  2  0  0  0  0
 13  3  1  0  0  0  0
 14  7  1  0  0  0  0
 15 17  2  0  0  0  0
 17 11  1  0  0  0  0
 17 16  1  0  0  0  0
 19 18  1  0  0  0  0
 19 13  1  0  0  0  0
 20 19  1  0  0  0  0
 21 25  1  0  0  0  0
 22 26  1  0  0  0  0
 23 30  1  0  0  0  0
 24 23  1  0  0  0  0
 25 22  1  0  0  0  0
 25 24  1  0  0  0  0
 26 23  1  0  0  0  0
 28 31  1  0  0  0  0
 29 27  1  0  0  0  0
 30 28  1  0  0  0  0
 30 29  1  0  0  0  0
 31 27  1  0  0  0  0
M  END
>  <MODEL>
5

>  <REMARK>
 VINA RESULT:      -6.6      4.264      8.814
  Name = 
  5 active torsions:
  status: ('A' for Active; 'I' for Inactive)
    1  A    between atoms: C_6  and  C_19
    2  A    between atoms: C_16  and  C_30
    3  A    between atoms: N_21  and  C_24
    4  A    between atoms: C_22  and  C_24
    5  A    between atoms: C_25  and  C_26
                            x       y       z     vdW  Elec       q    Type
                         _______ _______ _______ _____ _____    ______ ____

>  <TORSDO>
F 5

$$$$
=
 OpenBabel11062415013D

 31 35  0  0  1  0  0  0  0  0999 V2000
  186.3870  178.4270  138.7670 C   0  0  2  0  0  3  0  0  0  0  0  0
  186.9450  177.3720  137.9140 N   0  0  2  0  0  0  0  0  0  0  0  0
  189.0670  176.6260  137.5340 C   0  0  1  0  0  3  0  0  0  0  0  0
  188.4200  177.7400  139.6590 C   0  0  0  0  0  0  0  0  0  0  0  0
  190.6120  176.7410  140.2270 C   0  0  0  0  0  3  0  0  0  0  0  0
  187.3190  178.5670  139.8490 O   0  0  0  0  0  0  0  0  0  0  0  0
  190.5390  176.8730  137.7150 C   0  0  1  0  0  3  0  0  0  0  0  0
  188.1870  177.0070  138.4410 C   0  0  1  0  0  3  0  0  0  0  0  0
  185.0420  177.9880  139.3100 C   0  0  0  0  0  1  0  0  0  0  0  0
  189.4780  177.6580  140.4760 C   0  0  0  0  0  0  0  0  0  0  0  0
  187.0470  177.3450  136.4590 C   0  0  2  0  0  3  0  0  0  0  0  0
  191.0590  176.3560  139.0250 C   0  0  0  0  0  3  0  0  0  0  0  0
  188.3890  176.6280  136.1850 C   0  0  2  0  0  3  0  0  0  0  0  0
  191.2650  176.3000  136.6730 O   0  0  0  0  0  1  0  0  0  0  0  0
  187.5430  179.6760  136.5650 O   0  0  0  0  0  1  0  0  0  0  0  0
  186.6150  178.9680  134.5940 O   0  0  0  0  0  0  0  0  0  0  0  0
  187.0820  178.7270  135.8810 C   0  0  0  0  0  0  0  0  0  0  0  0
  189.0550  174.8070  134.7570 O   0  0  0  0  0  1  0  0  0  0  0  0
  188.1150  175.1970  135.7140 C   0  0  2  0  0  3  0  0  0  0  0  0
  186.7290  175.0960  135.1040 C   0  0  0  0  0  1  0  0  0  0  0  0
  189.4920  178.4560  141.7380 C   0  0  0  0  0  2  0  0  0  0  0  0
  190.4320  178.2680  143.8810 C   0  0  0  0  0  2  0  0  0  0  0  0
  188.2800  178.0310  144.8470 C   0  0  2  0  0  3  0  0  0  0  0  0
  188.2900  177.4160  143.4590 C   0  0  0  0  0  2  0  0  0  0  0  0
  189.6240  177.5710  142.8860 N   0  0  0  0  0  0  0  0  0  0  0  0
  189.7370  178.1380  145.2110 C   0  0  0  0  0  2  0  0  0  0  0  0
  185.6390  178.7650  146.9890 S   0  0  0  0  0  0  0  0  0  0  0  0
  187.9650  177.4130  147.2690 C   0  0  0  0  0  2  0  0  0  0  0  0
  186.0280  177.4400  145.8030 C   0  0  0  0  0  2  0  0  0  0  0  0
  187.5190  177.1490  145.8430 C   0  0  1  0  0  3  0  0  0  0  0  0
  187.2950  178.6890  147.7330 C   0  0  0  0  0  2  0  0  0  0  0  0
  1  9  1  1  0  0  0
  1  6  1  0  0  0  0
  2  8  1  0  0  0  0
  2  1  1  0  0  0  0
  3  7  1  0  0  0  0
  3  8  1  0  0  0  0
  4  6  1  0  0  0  0
  4 10  2  0  0  0  0
  5 10  1  0  0  0  0
  7 12  1  0  0  0  0
  8  4  1  0  0  0  0
 10 21  1  0  0  0  0
 11  2  1  0  0  0  0
 12  5  2  0  0  0  0
 13 11  1  0  0  0  0
 13  3  1  0  0  0  0
 14  7  1  0  0  0  0
 16 17  2  0  0  0  0
 17 11  1  0  0  0  0
 17 15  1  0  0  0  0
 18 19  1  0  0  0  0
 19 13  1  0  0  0  0
 20 19  1  0  0  0  0
 21 25  1  0  0  0  0
 22 26  1  0  0  0  0
 23 26  1  0  0  0  0
 23 30  1  0  0  0  0
 24 23  1  0  0  0  0
 25 24  1  0  0  0  0
 25 22  1  0  0  0  0
 27 31  1  0  0  0  0
 28 31  1  0  0  0  0
 29 30  1  0  0  0  0
 29 27  1  0  0  0  0
 30 28  1  0  0  0  0
M  END
>  <MODEL>
6

>  <REMARK>
 VINA RESULT:      -6.4      4.611      8.356
  Name = 
  5 active torsions:
  status: ('A' for Active; 'I' for Inactive)
    1  A    between atoms: C_6  and  C_19
    2  A    between atoms: C_16  and  C_30
    3  A    between atoms: N_21  and  C_24
    4  A    between atoms: C_22  and  C_24
    5  A    between atoms: C_25  and  C_26
                            x       y       z     vdW  Elec       q    Type
                         _______ _______ _______ _____ _____    ______ ____

>  <TORSDO>
F 5

$$$$
=
 OpenBabel11062415013D

 31 35  0  0  1  0  0  0  0  0999 V2000
  185.0550  179.0170  140.6900 C   0  0  2  0  0  3  0  0  0  0  0  0
  184.3420  178.2150  139.6890 N   0  0  2  0  0  0  0  0  0  0  0  0
  184.8290  177.5930  137.5490 C   0  0  1  0  0  3  0  0  0  0  0  0
  186.6040  178.1270  139.2040 C   0  0  0  0  0  0  0  0  0  0  0  0
  187.8780  177.0200  137.3940 C   0  0  0  0  0  3  0  0  0  0  0  0
  186.4450  178.8770  140.3640 O   0  0  0  0  0  0  0  0  0  0  0  0
  185.7210  177.7880  136.3540 C   0  0  1  0  0  3  0  0  0  0  0  0
  185.2860  177.7290  138.7790 C   0  0  1  0  0  3  0  0  0  0  0  0
  184.8000  178.4520  142.0730 C   0  0  0  0  0  1  0  0  0  0  0  0
  187.7750  177.8410  138.6200 C   0  0  0  0  0  0  0  0  0  0  0  0
  183.1360  178.5600  138.9460 C   0  0  2  0  0  3  0  0  0  0  0  0
  186.9680  176.9540  136.4160 C   0  0  0  0  0  3  0  0  0  0  0  0
  183.3600  177.9380  137.5480 C   0  0  2  0  0  3  0  0  0  0  0  0
  185.0330  177.5000  135.1760 O   0  0  0  0  0  1  0  0  0  0  0  0
  181.8130  180.5410  138.8170 O   0  0  0  0  0  1  0  0  0  0  0  0
  184.0770  180.8760  138.7180 O   0  0  0  0  0  0  0  0  0  0  0  0
  182.9680  180.0440  138.8210 C   0  0  0  0  0  0  0  0  0  0  0  0
  181.9080  176.6210  136.1490 O   0  0  0  0  0  1  0  0  0  0  0  0
  182.5060  176.6750  137.4100 C   0  0  2  0  0  3  0  0  0  0  0  0
  181.4160  176.6540  138.4670 C   0  0  0  0  0  1  0  0  0  0  0  0
  189.0440  178.2910  139.2660 C   0  0  0  0  0  2  0  0  0  0  0  0
  191.0710  177.5010  140.1480 C   0  0  0  0  0  2  0  0  0  0  0  0
  190.1580  177.4850  142.3370 C   0  0  2  0  0  3  0  0  0  0  0  0
  189.0710  177.1720  141.3240 C   0  0  0  0  0  2  0  0  0  0  0  0
  189.6560  177.1840  139.9860 N   0  0  0  0  0  0  0  0  0  0  0  0
  191.4390  177.2390  141.5860 C   0  0  0  0  0  2  0  0  0  0  0  0
  188.1010  177.6790  145.1360 S   0  0  0  0  0  0  0  0  0  0  0  0
  190.7380  177.1990  144.7710 C   0  0  0  0  0  2  0  0  0  0  0  0
  188.5990  176.3720  143.9690 C   0  0  0  0  0  2  0  0  0  0  0  0
  190.0510  176.5800  143.5690 C   0  0  1  0  0  3  0  0  0  0  0  0
  189.8130  178.2530  145.3400 C   0  0  0  0  0  2  0  0  0  0  0  0
  1  9  1  1  0  0  0
  2  1  1  0  0  0  0
  3  8  1  0  0  0  0
  4  6  1  0  0  0  0
  5 10  1  0  0  0  0
  6  1  1  0  0  0  0
  7 12  1  0  0  0  0
  7  3  1  0  0  0  0
  8  4  1  0  0  0  0
  8  2  1  0  0  0  0
 10  4  2  0  0  0  0
 10 21  1  0  0  0  0
 11  2  1  0  0  0  0
 12  5  2  0  0  0  0
 13  3  1  0  0  0  0
 13 11  1  0  0  0  0
 14  7  1  0  0  0  0
 15 17  1  0  0  0  0
 16 17  2  0  0  0  0
 17 11  1  0  0  0  0
 18 19  1  0  0  0  0
 19 13  1  0  0  0  0
 19 20  1  0  0  0  0
 21 25  1  0  0  0  0
 22 26  1  0  0  0  0
 23 30  1  0  0  0  0
 24 23  1  0  0  0  0
 25 22  1  0  0  0  0
 25 24  1  0  0  0  0
 26 23  1  0  0  0  0
 27 31  1  0  0  0  0
 28 31  1  0  0  0  0
 29 27  1  0  0  0  0
 30 29  1  0  0  0  0
 30 28  1  0  0  0  0
M  END
>  <MODEL>
7

>  <REMARK>
 VINA RESULT:      -6.4      4.173      9.365
  Name = 
  5 active torsions:
  status: ('A' for Active; 'I' for Inactive)
    1  A    between atoms: C_6  and  C_19
    2  A    between atoms: C_16  and  C_30
    3  A    between atoms: N_21  and  C_24
    4  A    between atoms: C_22  and  C_24
    5  A    between atoms: C_25  and  C_26
                            x       y       z     vdW  Elec       q    Type
                         _______ _______ _______ _____ _____    ______ ____

>  <TORSDO>
F 5

$$$$
=
 OpenBabel11062415013D

 31 35  0  0  1  0  0  0  0  0999 V2000
  191.0750  175.6810  138.3550 C   0  0  2  0  0  3  0  0  0  0  0  0
  190.0990  176.5640  137.7070 N   0  0  2  0  0  0  0  0  0  0  0  0
  188.2620  177.6860  138.4640 C   0  0  1  0  0  3  0  0  0  0  0  0
  190.1470  177.0770  139.9640 C   0  0  0  0  0  0  0  0  0  0  0  0
  188.8860  178.7110  141.3290 C   0  0  0  0  0  3  0  0  0  0  0  0
  191.0930  176.0850  139.7310 O   0  0  0  0  0  0  0  0  0  0  0  0
  187.2780  177.8770  139.5840 C   0  0  1  0  0  3  0  0  0  0  0  0
  189.5190  177.3620  138.6990 C   0  0  1  0  0  3  0  0  0  0  0  0
  192.4450  175.9000  137.7450 C   0  0  0  0  0  1  0  0  0  0  0  0
  189.8950  177.6440  141.1510 C   0  0  0  0  0  0  0  0  0  0  0  0
  189.0590  176.2140  136.7460 C   0  0  2  0  0  3  0  0  0  0  0  0
  187.7580  178.8490  140.6220 C   0  0  0  0  0  3  0  0  0  0  0  0
  187.8770  177.1410  137.1100 C   0  0  2  0  0  3  0  0  0  0  0  0
  186.0460  178.3040  139.0880 O   0  0  0  0  0  1  0  0  0  0  0  0
  187.4580  174.5060  137.2030 O   0  0  0  0  0  1  0  0  0  0  0  0
  189.5490  173.7540  136.6470 O   0  0  0  0  0  0  0  0  0  0  0  0
  188.6420  174.7810  136.8810 C   0  0  0  0  0  0  0  0  0  0  0  0
  187.6360  179.5040  136.7150 O   0  0  0  0  0  1  0  0  0  0  0  0
  187.7790  178.2700  136.0790 C   0  0  2  0  0  3  0  0  0  0  0  0
  186.5860  178.0510  135.1660 C   0  0  0  0  0  1  0  0  0  0  0  0
  190.7150  177.2560  142.3370 C   0  0  0  0  0  2  0  0  0  0  0  0
  190.3480  176.7940  144.6090 C   0  0  0  0  0  2  0  0  0  0  0  0
  188.1060  177.5470  144.4400 C   0  0  2  0  0  3  0  0  0  0  0  0
  188.5360  176.9170  143.1280 C   0  0  0  0  0  2  0  0  0  0  0  0
  189.9170  176.4590  143.2560 N   0  0  0  0  0  0  0  0  0  0  0  0
  189.1130  177.0400  145.4370 C   0  0  0  0  0  2  0  0  0  0  0  0
  185.1680  179.3940  144.6850 S   0  0  0  0  0  0  0  0  0  0  0  0
  186.3490  177.5280  146.2460 C   0  0  0  0  0  2  0  0  0  0  0  0
  185.6540  177.8080  143.9350 C   0  0  0  0  0  2  0  0  0  0  0  0
  186.6830  177.1250  144.8220 C   0  0  1  0  0  3  0  0  0  0  0  0
  186.0190  179.0050  146.2430 C   0  0  0  0  0  2  0  0  0  0  0  0
  1  9  1  6  0  0  0
  1  6  1  0  0  0  0
  2  1  1  0  0  0  0
  2  8  1  0  0  0  0
  3  8  1  0  0  0  0
  3  7  1  0  0  0  0
  4 10  2  0  0  0  0
  6  4  1  0  0  0  0
  7 12  1  0  0  0  0
  8  4  1  0  0  0  0
 10  5  1  0  0  0  0
 10 21  1  0  0  0  0
 11 17  1  0  0  0  0
 11 13  1  0  0  0  0
 11  2  1  0  0  0  0
 12  5  2  0  0  0  0
 13  3  1  0  0  0  0
 14  7  1  0  0  0  0
 16 17  2  0  0  0  0
 17 15  1  0  0  0  0
 19 18  1  0  0  0  0
 19 13  1  0  0  0  0
 20 19  1  0  0  0  0
 21 25  1  0  0  0  0
 22 26  1  0  0  0  0
 23 30  1  0  0  0  0
 23 26  1  0  0  0  0
 24 25  1  0  0  0  0
 24 23  1  0  0  0  0
 25 22  1  0  0  0  0
 27 31  1  0  0  0  0
 29 27  1  0  0  0  0
 29 30  1  0  0  0  0
 30 28  1  0  0  0  0
 31 28  1  0  0  0  0
M  END
>  <MODEL>
8

>  <REMARK>
 VINA RESULT:      -6.2      4.166      7.680
  Name = 
  5 active torsions:
  status: ('A' for Active; 'I' for Inactive)
    1  A    between atoms: C_6  and  C_19
    2  A    between atoms: C_16  and  C_30
    3  A    between atoms: N_21  and  C_24
    4  A    between atoms: C_22  and  C_24
    5  A    between atoms: C_25  and  C_26
                            x       y       z     vdW  Elec       q    Type
                         _______ _______ _______ _____ _____    ______ ____

>  <TORSDO>
F 5

$$$$
=
 OpenBabel11062415013D

 31 35  0  0  1  0  0  0  0  0999 V2000
  183.7410  178.0340  139.6840 C   0  0  2  0  0  3  0  0  0  0  0  0
  182.3300  178.3240  139.9630 N   0  0  2  0  0  0  0  0  0  0  0  0
  181.0900  178.3600  141.8780 C   0  0  1  0  0  3  0  0  0  0  0  0
  183.5450  178.7440  141.8880 C   0  0  0  0  0  0  0  0  0  0  0  0
  182.8780  179.4990  144.1480 C   0  0  0  0  0  3  0  0  0  0  0  0
  184.4390  178.3630  140.8940 O   0  0  0  0  0  0  0  0  0  0  0  0
  181.0200  178.0090  143.3380 C   0  0  1  0  0  3  0  0  0  0  0  0
  182.2280  178.7030  141.3050 C   0  0  1  0  0  3  0  0  0  0  0  0
  184.2310  178.9220  138.5580 C   0  0  0  0  0  1  0  0  0  0  0  0
  183.8780  179.0840  143.1400 C   0  0  0  0  0  0  0  0  0  0  0  0
  181.1590  177.5200  139.6320 C   0  0  2  0  0  3  0  0  0  0  0  0
  181.6130  179.0690  144.2210 C   0  0  0  0  0  3  0  0  0  0  0  0
  180.2050  177.7240  140.8330 C   0  0  2  0  0  3  0  0  0  0  0  0
  179.7010  177.7730  143.7240 O   0  0  0  0  0  1  0  0  0  0  0  0
  180.8680  175.2140  140.1650 O   0  0  0  0  0  1  0  0  0  0  0  0
  182.5150  175.6580  138.6350 O   0  0  0  0  0  0  0  0  0  0  0  0
  181.5040  176.0690  139.4970 C   0  0  0  0  0  0  0  0  0  0  0  0
  179.0320  178.8270  139.0430 O   0  0  0  0  0  1  0  0  0  0  0  0
  179.0740  178.6730  140.4300 C   0  0  2  0  0  3  0  0  0  0  0  0
  179.2750  180.0370  141.0650 C   0  0  0  0  0  1  0  0  0  0  0  0
  185.3190  179.1330  143.5270 C   0  0  0  0  0  2  0  0  0  0  0  0
  187.0040  177.5000  143.4740 C   0  0  0  0  0  2  0  0  0  0  0  0
  187.4680  177.8480  145.7730 C   0  0  2  0  0  3  0  0  0  0  0  0
  185.9920  178.0770  145.5070 C   0  0  0  0  0  2  0  0  0  0  0  0
  185.7290  177.8550  144.0880 N   0  0  0  0  0  0  0  0  0  0  0  0
  187.9400  177.0700  144.5740 C   0  0  0  0  0  2  0  0  0  0  0  0
  189.3350  178.6010  148.6110 S   0  0  0  0  0  0  0  0  0  0  0  0
  189.0450  176.3860  147.0860 C   0  0  0  0  0  2  0  0  0  0  0  0
  187.6550  177.9810  148.2790 C   0  0  0  0  0  2  0  0  0  0  0  0
  187.6870  177.0610  147.0700 C   0  0  1  0  0  3  0  0  0  0  0  0
  190.0790  177.4360  147.4300 C   0  0  0  0  0  2  0  0  0  0  0  0
  1  9  1  6  0  0  0
  1  2  1  0  0  0  0
  1  6  1  0  0  0  0
  2  8  1  0  0  0  0
  3  7  1  0  0  0  0
  4 10  2  0  0  0  0
  5 12  2  0  0  0  0
  6  4  1  0  0  0  0
  7 14  1  0  0  0  0
  7 12  1  0  0  0  0
  8  3  1  0  0  0  0
  8  4  1  0  0  0  0
 10 21  1  0  0  0  0
 10  5  1  0  0  0  0
 11  2  1  0  0  0  0
 11 13  1  0  0  0  0
 13  3  1  0  0  0  0
 16 17  2  0  0  0  0
 17 11  1  0  0  0  0
 17 15  1  0  0  0  0
 18 19  1  0  0  0  0
 19 13  1  0  0  0  0
 19 20  1  0  0  0  0
 21 25  1  0  0  0  0
 22 25  1  0  0  0  0
 22 26  1  0  0  0  0
 23 30  1  0  0  0  0
 24 23  1  0  0  0  0
 25 24  1  0  0  0  0
 26 23  1  0  0  0  0
 28 31  1  0  0  0  0
 29 27  1  0  0  0  0
 30 28  1  0  0  0  0
 30 29  1  0  0  0  0
 31 27  1  0  0  0  0
M  END
>  <MODEL>
9

>  <REMARK>
 VINA RESULT:      -6.2      4.275      9.062
  Name = 
  5 active torsions:
  status: ('A' for Active; 'I' for Inactive)
    1  A    between atoms: C_6  and  C_19
    2  A    between atoms: C_16  and  C_30
    3  A    between atoms: N_21  and  C_24
    4  A    between atoms: C_22  and  C_24
    5  A    between atoms: C_25  and  C_26
                            x       y       z     vdW  Elec       q    Type
                         _______ _______ _______ _____ _____    ______ ____

>  <TORSDO>
F 5

$$$$
