=
 OpenBabel11062415323D

 37 41  0  0  1  0  0  0  0  0999 V2000
  187.8080  178.1670  141.3040 C   0  0  0  0  0  0  0  0  0  0  0  0
  186.7740  178.7110  137.6590 C   0  0  0  0  0  2  0  0  0  0  0  0
  189.8420  174.4520  136.3820 C   0  0  0  0  0  2  0  0  0  0  0  0
  189.2050  176.6310  138.5240 C   0  0  2  0  0  3  0  0  0  0  0  0
  190.5280  176.2280  140.9450 O   0  0  0  0  0  1  0  0  0  0  0  0
  191.5610  176.6630  138.1940 O   0  0  0  0  0  0  0  0  0  0  0  0
  188.3250  174.4230  136.6040 C   0  0  1  0  0  3  0  0  0  0  0  0
  187.6850  175.8310  136.5810 C   0  0  2  0  0  3  0  0  0  0  0  0
  187.9920  178.5240  139.8850 C   0  0  1  0  0  3  0  0  0  0  0  0
  186.5950  178.2260  141.9950 C   0  0  0  0  0  0  0  0  0  0  0  0
  187.7940  177.5240  143.9950 C   0  0  0  0  0  3  0  0  0  0  0  0
  189.3340  177.8400  139.5030 C   0  0  1  0  0  3  0  0  0  0  0  0
  190.5340  176.0000  138.1930 C   0  0  0  0  0  0  0  0  0  0  0  0
  185.3110  178.4100  141.2270 C   0  0  0  0  0  2  0  0  0  0  0  0
  188.5700  176.9500  137.1580 C   0  0  1  0  0  3  0  0  0  0  0  0
  185.5280  178.8900  139.7820 C   0  0  0  0  0  2  0  0  0  0  0  0
  188.0700  178.3770  136.9270 C   0  0  0  0  0  2  0  0  0  0  0  0
  190.0310  177.5320  140.8720 C   0  0  1  0  0  3  0  0  0  0  0  0
  188.9840  177.3960  143.2550 C   0  0  0  0  0  0  0  0  0  0  0  0
  185.3920  177.9610  144.1250 N   0  0  0  0  0  1  0  0  0  0  0  0
  186.7150  178.2000  139.0960 C   0  0  1  0  0  3  0  0  0  0  0  0
  190.5750  174.5860  137.7120 C   0  0  0  0  0  2  0  0  0  0  0  0
  188.9550  177.7080  141.8860 C   0  0  0  0  0  0  0  0  0  0  0  0
  186.5970  177.9150  143.3670 C   0  0  0  0  0  0  0  0  0  0  0  0
  186.4630  175.7890  137.2550 O   0  0  0  0  0  1  0  0  0  0  0  0
  186.8180  174.2220  134.7210 O   0  0  0  0  0  1  0  0  0  0  0  0
  187.6660  173.5020  135.5650 C   0  0  2  0  0  3  0  0  0  0  0  0
  186.8830  172.4000  136.2230 C   0  0  0  0  0  0  0  0  0  0  0  0
  186.7440  171.2970  135.6320 O   0  0  0  0  0  0  0  0  0  0  0  0
  186.2950  172.5770  137.4770 O   0  0  0  0  0  0  0  0  0  0  0  0
  184.9020  172.7970  137.6380 C   0  0  0  0  0  1  0  0  0  0  0  0
  190.2480  176.9580  143.9290 C   0  0  0  0  0  2  0  0  0  0  0  0
  190.5240  177.7690  145.1910 C   0  0  0  0  0  2  0  0  0  0  0  0
  190.6190  176.8720  146.4130 C   0  0  1  0  0  3  0  0  0  0  0  0
  191.9430  176.8150  146.8510 O   0  0  0  0  0  1  0  0  0  0  0  0
  189.7420  177.4340  147.5150 C   0  0  0  0  0  2  0  0  0  0  0  0
  188.5400  176.7300  147.5690 O   0  0  0  0  0  1  0  0  0  0  0  0
  1 23  2  0  0  0  0
  1 10  1  0  0  0  0
  2 21  1  0  0  0  0
  3  7  1  0  0  0  0
  3 22  1  0  0  0  0
  4 13  1  6  0  0  0
  4 12  1  0  0  0  0
  7 27  1  6  0  0  0
  8  7  1  0  0  0  0
  8 15  1  0  0  0  0
  8 25  1  1  0  0  0
  9  1  1  1  0  0  0
 10 24  2  0  0  0  0
 12  9  1  0  0  0  0
 12 18  1  0  0  0  0
 13  6  2  0  0  0  0
 14 10  1  0  0  0  0
 15  4  1  0  0  0  0
 16 14  1  0  0  0  0
 17 15  1  0  0  0  0
 17  2  1  0  0  0  0
 18  5  1  0  0  0  0
 18 23  1  0  0  0  0
 19 32  1  0  0  0  0
 19 11  2  0  0  0  0
 21 16  1  0  0  0  0
 21  9  1  0  0  0  0
 22 13  1  0  0  0  0
 23 19  1  0  0  0  0
 24 11  1  0  0  0  0
 24 20  1  0  0  0  0
 26 27  1  0  0  0  0
 27 28  1  0  0  0  0
 28 30  1  0  0  0  0
 29 28  2  0  0  0  0
 30 31  1  0  0  0  0
 32 33  1  0  0  0  0
 33 34  1  0  0  0  0
 34 35  1  0  0  0  0
 34 36  1  0  0  0  0
 36 37  1  0  0  0  0
M  END
>  <MODEL>
1

>  <REMARK>
 VINA RESULT:      -7.9      0.000      0.000
  Name = 
  7 active torsions:
  status: ('A' for Active; 'I' for Inactive)
    1  A    between atoms: O_4  and  C_15
    2  A    between atoms: C_5  and  C_8
    3  A    between atoms: C_8  and  C_23
    4  A    between atoms: C_10  and  C_37
    5  A    between atoms: C_15  and  C_37
    6  A    between atoms: C_23  and  C_27
    7  A    between atoms: C_27  and  C_28
                            x       y       z     vdW  Elec       q    Type
                         _______ _______ _______ _____ _____    ______ ____

>  <TORSDO>
F 7

$$$$
=
 OpenBabel11062415323D

 37 41  0  0  1  0  0  0  0  0999 V2000
  186.3020  178.5300  142.4120 C   0  0  0  0  0  0  0  0  0  0  0  0
  183.2430  179.3730  140.2720 C   0  0  0  0  0  2  0  0  0  0  0  0
  185.3720  176.2710  136.3950 C   0  0  0  0  0  2  0  0  0  0  0  0
  185.9150  177.8530  139.0310 C   0  0  2  0  0  3  0  0  0  0  0  0
  188.4560  177.4120  140.0880 O   0  0  0  0  0  1  0  0  0  0  0  0
  187.5850  178.5230  137.4750 O   0  0  0  0  0  0  0  0  0  0  0  0
  184.3030  175.8310  137.4020 C   0  0  1  0  0  3  0  0  0  0  0  0
  183.6310  177.0200  138.1270 C   0  0  2  0  0  3  0  0  0  0  0  0
  185.5610  179.1420  141.2940 C   0  0  1  0  0  3  0  0  0  0  0  0
  185.7460  178.1740  143.6430 C   0  0  0  0  0  0  0  0  0  0  0  0
  187.9690  177.4830  144.3560 C   0  0  0  0  0  3  0  0  0  0  0  0
  186.4730  178.8840  140.0620 C   0  0  1  0  0  3  0  0  0  0  0  0
  186.8390  177.6340  137.8610 C   0  0  0  0  0  0  0  0  0  0  0  0
  184.2470  178.1520  143.8020 C   0  0  0  0  0  2  0  0  0  0  0  0
  184.5590  178.2170  138.3980 C   0  0  1  0  0  3  0  0  0  0  0  0
  183.5030  178.8960  142.6790 C   0  0  0  0  0  2  0  0  0  0  0  0
  183.8700  179.4940  138.8860 C   0  0  0  0  0  2  0  0  0  0  0  0
  187.8780  178.5440  140.6660 C   0  0  1  0  0  3  0  0  0  0  0  0
  188.4850  177.7740  143.0800 C   0  0  0  0  0  0  0  0  0  0  0  0
  186.0930  177.2820  145.9090 N   0  0  0  0  0  1  0  0  0  0  0  0
  184.1100  178.6410  141.2920 C   0  0  1  0  0  3  0  0  0  0  0  0
  186.7360  176.3700  137.0700 C   0  0  0  0  0  2  0  0  0  0  0  0
  187.6110  178.2840  142.1060 C   0  0  0  0  0  0  0  0  0  0  0  0
  186.6010  177.6580  144.6340 C   0  0  0  0  0  0  0  0  0  0  0  0
  183.0670  176.5690  139.3220 O   0  0  0  0  0  1  0  0  0  0  0  0
  181.9600  175.3500  137.0310 O   0  0  0  0  0  1  0  0  0  0  0  0
  183.2570  174.9530  136.6980 C   0  0  2  0  0  3  0  0  0  0  0  0
  183.4290  173.5010  137.0480 C   0  0  0  0  0  0  0  0  0  0  0  0
  182.5480  172.6700  136.7050 O   0  0  0  0  0  0  0  0  0  0  0  0
  184.5470  173.0540  137.7570 O   0  0  0  0  0  0  0  0  0  0  0  0
  185.7050  172.5500  137.1090 C   0  0  0  0  0  1  0  0  0  0  0  0
  189.9400  177.5630  142.7880 C   0  0  0  0  0  2  0  0  0  0  0  0
  190.5280  176.4430  143.6400 C   0  0  0  0  0  2  0  0  0  0  0  0
  191.5530  176.9800  144.6250 C   0  0  1  0  0  3  0  0  0  0  0  0
  191.7740  178.3360  144.3790 O   0  0  0  0  0  1  0  0  0  0  0  0
  191.0330  176.7970  146.0370 C   0  0  0  0  0  2  0  0  0  0  0  0
  192.0970  176.8030  146.9380 O   0  0  0  0  0  1  0  0  0  0  0  0
  1 10  1  0  0  0  0
  2 21  1  0  0  0  0
  3 22  1  0  0  0  0
  3  7  1  0  0  0  0
  4 13  1  6  0  0  0
  4 12  1  0  0  0  0
  5 18  1  0  0  0  0
  6 13  2  0  0  0  0
  7 27  1  6  0  0  0
  7  8  1  0  0  0  0
  8 15  1  0  0  0  0
  8 25  1  1  0  0  0
  9  1  1  1  0  0  0
 10 14  1  0  0  0  0
 10 24  2  0  0  0  0
 11 24  1  0  0  0  0
 12 18  1  0  0  0  0
 12  9  1  0  0  0  0
 15 17  1  0  0  0  0
 15  4  1  0  0  0  0
 16 14  1  0  0  0  0
 17  2  1  0  0  0  0
 18 23  1  0  0  0  0
 19 11  2  0  0  0  0
 21  9  1  0  0  0  0
 21 16  1  0  0  0  0
 22 13  1  0  0  0  0
 23  1  2  0  0  0  0
 23 19  1  0  0  0  0
 24 20  1  0  0  0  0
 27 26  1  0  0  0  0
 27 28  1  0  0  0  0
 28 30  1  0  0  0  0
 29 28  2  0  0  0  0
 31 30  1  0  0  0  0
 32 19  1  0  0  0  0
 32 33  1  0  0  0  0
 33 34  1  0  0  0  0
 34 36  1  0  0  0  0
 35 34  1  0  0  0  0
 36 37  1  0  0  0  0
M  END
>  <MODEL>
2

>  <REMARK>
 VINA RESULT:      -7.7      2.208      3.341
  Name = 
  7 active torsions:
  status: ('A' for Active; 'I' for Inactive)
    1  A    between atoms: O_4  and  C_15
    2  A    between atoms: C_5  and  C_8
    3  A    between atoms: C_8  and  C_23
    4  A    between atoms: C_10  and  C_37
    5  A    between atoms: C_15  and  C_37
    6  A    between atoms: C_23  and  C_27
    7  A    between atoms: C_27  and  C_28
                            x       y       z     vdW  Elec       q    Type
                         _______ _______ _______ _____ _____    ______ ____

>  <TORSDO>
F 7

$$$$
=
 OpenBabel11062415323D

 37 41  0  0  1  0  0  0  0  0999 V2000
  186.1740  178.5690  142.3880 C   0  0  0  0  0  0  0  0  0  0  0  0
  182.9820  179.2180  140.3770 C   0  0  0  0  0  2  0  0  0  0  0  0
  185.0600  176.0980  136.4870 C   0  0  0  0  0  2  0  0  0  0  0  0
  185.6570  177.7780  139.0490 C   0  0  2  0  0  3  0  0  0  0  0  0
  188.2620  177.4770  139.9920 O   0  0  0  0  0  1  0  0  0  0  0  0
  187.2200  178.4720  137.3960 O   0  0  0  0  0  0  0  0  0  0  0  0
  184.0600  175.6420  137.5560 C   0  0  1  0  0  3  0  0  0  0  0  0
  183.3710  176.8220  138.2800 C   0  0  2  0  0  3  0  0  0  0  0  0
  185.3550  179.1170  141.2910 C   0  0  1  0  0  3  0  0  0  0  0  0
  185.6930  178.2260  143.6530 C   0  0  0  0  0  0  0  0  0  0  0  0
  187.9760  177.6520  144.2760 C   0  0  0  0  0  3  0  0  0  0  0  0
  186.2170  178.8620  140.0230 C   0  0  1  0  0  3  0  0  0  0  0  0
  186.5330  177.5650  137.8410 C   0  0  0  0  0  0  0  0  0  0  0  0
  184.2060  178.1450  143.8850 C   0  0  0  0  0  2  0  0  0  0  0  0
  184.2580  178.0650  138.4730 C   0  0  1  0  0  3  0  0  0  0  0  0
  183.3780  178.8230  142.7810 C   0  0  0  0  0  2  0  0  0  0  0  0
  183.5370  179.3250  138.9590 C   0  0  0  0  0  2  0  0  0  0  0  0
  187.6630  178.6000  140.5670 C   0  0  1  0  0  3  0  0  0  0  0  0
  188.4180  177.9270  142.9680 C   0  0  0  0  0  0  0  0  0  0  0  0
  186.1860  177.4160  145.9240 N   0  0  0  0  0  1  0  0  0  0  0  0
  183.9290  178.5540  141.3730 C   0  0  1  0  0  3  0  0  0  0  0  0
  186.4480  176.2750  137.0920 C   0  0  0  0  0  2  0  0  0  0  0  0
  187.4760  178.3700  142.0250 C   0  0  0  0  0  0  0  0  0  0  0  0
  186.6160  177.7760  144.6150 C   0  0  0  0  0  0  0  0  0  0  0  0
  182.8850  176.3820  139.5130 O   0  0  0  0  0  1  0  0  0  0  0  0
  183.6120  173.8600  135.9810 O   0  0  0  0  0  1  0  0  0  0  0  0
  183.0220  174.7000  136.9280 C   0  0  2  0  0  3  0  0  0  0  0  0
  181.9060  175.4660  136.2740 C   0  0  0  0  0  0  0  0  0  0  0  0
  182.0760  175.9550  135.1270 O   0  0  0  0  0  0  0  0  0  0  0  0
  180.6810  175.6550  136.9190 O   0  0  0  0  0  0  0  0  0  0  0  0
  179.8870  174.5700  137.3740 C   0  0  0  0  0  1  0  0  0  0  0  0
  189.8650  177.7700  142.6120 C   0  0  0  0  0  2  0  0  0  0  0  0
  190.7760  178.3720  143.6770 C   0  0  0  0  0  2  0  0  0  0  0  0
  191.7190  177.3280  144.2500 C   0  0  1  0  0  3  0  0  0  0  0  0
  191.4890  177.1900  145.6190 O   0  0  0  0  0  1  0  0  0  0  0  0
  191.4760  176.0010  143.5570 C   0  0  0  0  0  2  0  0  0  0  0  0
  192.1460  174.9840  144.2360 O   0  0  0  0  0  1  0  0  0  0  0  0
  1 10  1  0  0  0  0
  2 21  1  0  0  0  0
  3 22  1  0  0  0  0
  3  7  1  0  0  0  0
  4 13  1  6  0  0  0
  4 12  1  0  0  0  0
  5 18  1  0  0  0  0
  6 13  2  0  0  0  0
  7 27  1  6  0  0  0
  7  8  1  0  0  0  0
  8 15  1  0  0  0  0
  8 25  1  1  0  0  0
  9 21  1  0  0  0  0
  9  1  1  1  0  0  0
 10 14  1  0  0  0  0
 10 24  2  0  0  0  0
 11 24  1  0  0  0  0
 12 18  1  0  0  0  0
 12  9  1  0  0  0  0
 15 17  1  0  0  0  0
 15  4  1  0  0  0  0
 16 14  1  0  0  0  0
 17  2  1  0  0  0  0
 18 23  1  0  0  0  0
 19 11  2  0  0  0  0
 21 16  1  0  0  0  0
 22 13  1  0  0  0  0
 23  1  2  0  0  0  0
 23 19  1  0  0  0  0
 24 20  1  0  0  0  0
 26 27  1  0  0  0  0
 28 30  1  0  0  0  0
 28 27  1  0  0  0  0
 29 28  2  0  0  0  0
 30 31  1  0  0  0  0
 32 19  1  0  0  0  0
 32 33  1  0  0  0  0
 33 34  1  0  0  0  0
 34 35  1  0  0  0  0
 36 37  1  0  0  0  0
 36 34  1  0  0  0  0
M  END
>  <MODEL>
3

>  <REMARK>
 VINA RESULT:      -7.4      2.593      3.904
  Name = 
  7 active torsions:
  status: ('A' for Active; 'I' for Inactive)
    1  A    between atoms: O_4  and  C_15
    2  A    between atoms: C_5  and  C_8
    3  A    between atoms: C_8  and  C_23
    4  A    between atoms: C_10  and  C_37
    5  A    between atoms: C_15  and  C_37
    6  A    between atoms: C_23  and  C_27
    7  A    between atoms: C_27  and  C_28
                            x       y       z     vdW  Elec       q    Type
                         _______ _______ _______ _____ _____    ______ ____

>  <TORSDO>
F 7

$$$$
=
 OpenBabel11062415323D

 37 41  0  0  1  0  0  0  0  0999 V2000
  184.2730  178.1800  140.9020 C   0  0  0  0  0  0  0  0  0  0  0  0
  182.3970  177.9120  137.5770 C   0  0  0  0  0  2  0  0  0  0  0  0
  178.9330  181.5930  139.4840 C   0  0  0  0  0  2  0  0  0  0  0  0
  181.1460  179.5110  140.1970 C   0  0  2  0  0  3  0  0  0  0  0  0
  181.9540  179.6180  142.8630 O   0  0  0  0  0  1  0  0  0  0  0  0
  179.3050  179.0720  141.6370 O   0  0  0  0  0  0  0  0  0  0  0  0
  180.1250  181.8830  138.5640 C   0  0  1  0  0  3  0  0  0  0  0  0
  180.6930  180.6100  137.8920 C   0  0  2  0  0  3  0  0  0  0  0  0
  183.1580  177.8300  140.0030 C   0  0  1  0  0  3  0  0  0  0  0  0
  185.6050  178.3200  140.5090 C   0  0  0  0  0  0  0  0  0  0  0  0
  186.1620  178.7530  142.8400 C   0  0  0  0  0  3  0  0  0  0  0  0
  181.8940  178.2750  140.7910 C   0  0  1  0  0  3  0  0  0  0  0  0
  179.9340  179.9050  141.0020 C   0  0  0  0  0  0  0  0  0  0  0  0
  185.9450  178.3820  139.0420 C   0  0  0  0  0  2  0  0  0  0  0  0
  180.6240  179.3400  138.7590 C   0  0  1  0  0  3  0  0  0  0  0  0
  184.8020  177.9050  138.1300 C   0  0  0  0  0  2  0  0  0  0  0  0
  180.9470  178.0290  138.0400 C   0  0  0  0  0  2  0  0  0  0  0  0
  182.3770  178.4250  142.2730 C   0  0  1  0  0  3  0  0  0  0  0  0
  184.8010  178.6870  143.1930 C   0  0  0  0  0  0  0  0  0  0  0  0
  187.9400  178.7420  141.1630 N   0  0  0  0  0  1  0  0  0  0  0  0
  183.4230  178.3910  138.5990 C   0  0  1  0  0  3  0  0  0  0  0  0
  179.4100  181.3010  140.9020 C   0  0  0  0  0  2  0  0  0  0  0  0
  183.8630  178.4170  142.1840 C   0  0  0  0  0  0  0  0  0  0  0  0
  186.5650  178.5940  141.5020 C   0  0  0  0  0  0  0  0  0  0  0  0
  182.0100  180.8510  137.4950 O   0  0  0  0  0  1  0  0  0  0  0  0
  179.6500  182.3590  136.2390 O   0  0  0  0  0  1  0  0  0  0  0  0
  179.7270  182.9290  137.5110 C   0  0  2  0  0  3  0  0  0  0  0  0
  180.6990  184.0750  137.4770 C   0  0  0  0  0  0  0  0  0  0  0  0
  181.8920  183.8890  137.8330 O   0  0  0  0  0  0  0  0  0  0  0  0
  180.3040  185.3490  137.0650 O   0  0  0  0  0  0  0  0  0  0  0  0
  179.2770  186.0750  137.7230 C   0  0  0  0  0  1  0  0  0  0  0  0
  184.3810  178.8800  144.6180 C   0  0  0  0  0  2  0  0  0  0  0  0
  185.4770  179.5480  145.4430 C   0  0  0  0  0  2  0  0  0  0  0  0
  185.8190  178.7260  146.6730 C   0  0  1  0  0  3  0  0  0  0  0  0
  184.6450  178.2720  147.2760 O   0  0  0  0  0  1  0  0  0  0  0  0
  186.6700  177.5410  146.2620 C   0  0  0  0  0  2  0  0  0  0  0  0
  187.9670  177.9660  145.9740 O   0  0  0  0  0  1  0  0  0  0  0  0
  1 23  1  0  0  0  0
  2 17  1  0  0  0  0
  2 21  1  0  0  0  0
  3 22  1  0  0  0  0
  4 12  1  0  0  0  0
  4 13  1  1  0  0  0
  7 27  1  6  0  0  0
  7  3  1  0  0  0  0
  8 25  1  1  0  0  0
  8  7  1  0  0  0  0
  8 15  1  0  0  0  0
  9 12  1  0  0  0  0
  9  1  1  1  0  0  0
 10  1  2  0  0  0  0
 10 24  1  0  0  0  0
 11 19  1  0  0  0  0
 12 18  1  0  0  0  0
 13  6  2  0  0  0  0
 14 10  1  0  0  0  0
 15  4  1  0  0  0  0
 16 21  1  0  0  0  0
 16 14  1  0  0  0  0
 17 15  1  0  0  0  0
 18  5  1  0  0  0  0
 19 32  1  0  0  0  0
 20 24  1  0  0  0  0
 21  9  1  0  0  0  0
 22 13  1  0  0  0  0
 23 18  1  0  0  0  0
 23 19  2  0  0  0  0
 24 11  2  0  0  0  0
 26 27  1  0  0  0  0
 28 27  1  0  0  0  0
 28 29  2  0  0  0  0
 30 28  1  0  0  0  0
 30 31  1  0  0  0  0
 32 33  1  0  0  0  0
 33 34  1  0  0  0  0
 34 35  1  0  0  0  0
 36 34  1  0  0  0  0
 37 36  1  0  0  0  0
M  END
>  <MODEL>
4

>  <REMARK>
 VINA RESULT:      -6.9      5.470      8.506
  Name = 
  7 active torsions:
  status: ('A' for Active; 'I' for Inactive)
    1  A    between atoms: O_4  and  C_15
    2  A    between atoms: C_5  and  C_8
    3  A    between atoms: C_8  and  C_23
    4  A    between atoms: C_10  and  C_37
    5  A    between atoms: C_15  and  C_37
    6  A    between atoms: C_23  and  C_27
    7  A    between atoms: C_27  and  C_28
                            x       y       z     vdW  Elec       q    Type
                         _______ _______ _______ _____ _____    ______ ____

>  <TORSDO>
F 7

$$$$
=
 OpenBabel11062415323D

 37 41  0  0  1  0  0  0  0  0999 V2000
  187.3620  178.2140  141.2560 C   0  0  0  0  0  0  0  0  0  0  0  0
  183.7520  179.3120  140.6150 C   0  0  0  0  0  2  0  0  0  0  0  0
  183.8200  176.1980  136.2010 C   0  0  0  0  0  2  0  0  0  0  0  0
  185.5350  177.6630  138.3580 C   0  0  2  0  0  3  0  0  0  0  0  0
  188.2470  177.0310  138.2380 O   0  0  0  0  0  1  0  0  0  0  0  0
  186.4330  178.2720  136.2410 O   0  0  0  0  0  0  0  0  0  0  0  0
  183.2490  175.7970  137.5660 C   0  0  1  0  0  3  0  0  0  0  0  0
  183.0310  177.0040  138.5080 C   0  0  2  0  0  3  0  0  0  0  0  0
  186.2630  178.9050  140.5570 C   0  0  1  0  0  3  0  0  0  0  0  0
  187.3550  177.8580  142.6070 C   0  0  0  0  0  0  0  0  0  0  0  0
  189.6170  177.0070  142.3110 C   0  0  0  0  0  3  0  0  0  0  0  0
  186.5470  178.6270  139.0550 C   0  0  1  0  0  3  0  0  0  0  0  0
  185.8600  177.4210  136.9060 C   0  0  0  0  0  0  0  0  0  0  0  0
  186.0670  177.9270  143.3860 C   0  0  0  0  0  2  0  0  0  0  0  0
  184.0680  178.1320  138.3590 C   0  0  1  0  0  3  0  0  0  0  0  0
  184.9720  178.7490  142.6840 C   0  0  0  0  0  2  0  0  0  0  0  0
  183.7420  179.4340  139.0940 C   0  0  0  0  0  2  0  0  0  0  0  0
  188.0480  178.1810  139.0070 C   0  0  1  0  0  3  0  0  0  0  0  0
  189.5640  177.3030  140.9360 C   0  0  0  0  0  0  0  0  0  0  0  0
  188.5650  176.8790  144.5130 N   0  0  0  0  0  1  0  0  0  0  0  0
  184.9160  178.4970  141.1710 C   0  0  1  0  0  3  0  0  0  0  0  0
  185.3440  176.1900  136.2350 C   0  0  0  0  0  2  0  0  0  0  0  0
  188.3980  177.8950  140.4250 C   0  0  0  0  0  0  0  0  0  0  0  0
  188.5110  177.2600  143.1420 C   0  0  0  0  0  0  0  0  0  0  0  0
  182.9960  176.5540  139.8290 O   0  0  0  0  0  1  0  0  0  0  0  0
  181.1400  175.0780  138.5110 O   0  0  0  0  0  1  0  0  0  0  0  0
  181.9450  175.0080  137.3720 C   0  0  2  0  0  3  0  0  0  0  0  0
  182.2160  173.5640  137.0520 C   0  0  0  0  0  0  0  0  0  0  0  0
  183.3730  173.0970  137.2200 O   0  0  0  0  0  0  0  0  0  0  0  0
  181.2100  172.7290  136.5620 O   0  0  0  0  0  0  0  0  0  0  0  0
  180.4510  171.8780  137.4080 C   0  0  0  0  0  1  0  0  0  0  0  0
  190.7410  177.0080  140.0550 C   0  0  0  0  0  2  0  0  0  0  0  0
  192.0440  177.5030  140.6720 C   0  0  0  0  0  2  0  0  0  0  0  0
  193.1730  177.4940  139.6560 C   0  0  1  0  0  3  0  0  0  0  0  0
  194.3060  176.9030  140.2190 O   0  0  0  0  0  1  0  0  0  0  0  0
  192.7420  176.7070  138.4350 C   0  0  0  0  0  2  0  0  0  0  0  0
  193.7410  176.7530  137.4640 O   0  0  0  0  0  1  0  0  0  0  0  0
  1 10  1  0  0  0  0
  2 21  1  0  0  0  0
  3 22  1  0  0  0  0
  3  7  1  0  0  0  0
  4 13  1  6  0  0  0
  4 15  1  0  0  0  0
  4 12  1  0  0  0  0
  5 18  1  0  0  0  0
  6 13  2  0  0  0  0
  7 27  1  6  0  0  0
  7  8  1  0  0  0  0
  8 25  1  1  0  0  0
  9 21  1  0  0  0  0
  9  1  1  1  0  0  0
 10 24  2  0  0  0  0
 10 14  1  0  0  0  0
 11 24  1  0  0  0  0
 12  9  1  0  0  0  0
 15  8  1  0  0  0  0
 15 17  1  0  0  0  0
 16 14  1  0  0  0  0
 17  2  1  0  0  0  0
 18 12  1  0  0  0  0
 18 23  1  0  0  0  0
 19 11  2  0  0  0  0
 21 16  1  0  0  0  0
 22 13  1  0  0  0  0
 23 19  1  0  0  0  0
 23  1  2  0  0  0  0
 24 20  1  0  0  0  0
 27 26  1  0  0  0  0
 28 29  2  0  0  0  0
 28 27  1  0  0  0  0
 30 28  1  0  0  0  0
 30 31  1  0  0  0  0
 32 33  1  0  0  0  0
 32 19  1  0  0  0  0
 34 35  1  0  0  0  0
 34 33  1  0  0  0  0
 36 34  1  0  0  0  0
 37 36  1  0  0  0  0
M  END
>  <MODEL>
5

>  <REMARK>
 VINA RESULT:      -6.7      3.191      4.950
  Name = 
  7 active torsions:
  status: ('A' for Active; 'I' for Inactive)
    1  A    between atoms: O_4  and  C_15
    2  A    between atoms: C_5  and  C_8
    3  A    between atoms: C_8  and  C_23
    4  A    between atoms: C_10  and  C_37
    5  A    between atoms: C_15  and  C_37
    6  A    between atoms: C_23  and  C_27
    7  A    between atoms: C_27  and  C_28
                            x       y       z     vdW  Elec       q    Type
                         _______ _______ _______ _____ _____    ______ ____

>  <TORSDO>
F 7

$$$$
=
 OpenBabel11062415323D

 37 41  0  0  1  0  0  0  0  0999 V2000
  184.2470  177.3040  138.0540 C   0  0  0  0  0  0  0  0  0  0  0  0
  186.1060  176.3270  134.8540 C   0  0  0  0  0  2  0  0  0  0  0  0
  190.6900  176.5790  137.7000 C   0  0  0  0  0  2  0  0  0  0  0  0
  187.6820  177.3980  137.5670 C   0  0  2  0  0  3  0  0  0  0  0  0
  186.7430  178.5640  139.9170 O   0  0  0  0  0  1  0  0  0  0  0  0
  188.9080  179.3760  138.0550 O   0  0  0  0  0  0  0  0  0  0  0  0
  189.8990  175.3010  137.3970 C   0  0  1  0  0  3  0  0  0  0  0  0
  188.8610  175.4890  136.2660 C   0  0  2  0  0  3  0  0  0  0  0  0
  185.1420  177.4960  136.8970 C   0  0  1  0  0  3  0  0  0  0  0  0
  183.2020  176.3800  138.1140 C   0  0  0  0  0  0  0  0  0  0  0  0
  182.6760  177.2410  140.3300 C   0  0  0  0  0  3  0  0  0  0  0  0
  186.3680  178.2390  137.4980 C   0  0  1  0  0  3  0  0  0  0  0  0
  188.8360  178.1610  138.1630 C   0  0  0  0  0  0  0  0  0  0  0  0
  183.0990  175.3060  137.0610 C   0  0  0  0  0  2  0  0  0  0  0  0
  188.2080  176.8820  136.2150 C   0  0  1  0  0  3  0  0  0  0  0  0
  183.9570  175.5870  135.8160 C   0  0  0  0  0  2  0  0  0  0  0  0
  187.3690  177.1760  134.9690 C   0  0  0  0  0  2  0  0  0  0  0  0
  185.8600  178.8130  138.8640 C   0  0  1  0  0  3  0  0  0  0  0  0
  183.7850  178.1050  140.2730 C   0  0  0  0  0  0  0  0  0  0  0  0
  181.3130  175.4460  139.3840 N   0  0  0  0  0  1  0  0  0  0  0  0
  185.3380  176.1630  136.1620 C   0  0  1  0  0  3  0  0  0  0  0  0
  189.9800  177.4100  138.7630 C   0  0  0  0  0  2  0  0  0  0  0  0
  184.5780  178.0990  139.1140 C   0  0  0  0  0  0  0  0  0  0  0  0
  182.3960  176.3640  139.2670 C   0  0  0  0  0  0  0  0  0  0  0  0
  187.8790  174.5020  136.3760 O   0  0  0  0  0  1  0  0  0  0  0  0
  191.9630  174.1600  137.9370 O   0  0  0  0  0  1  0  0  0  0  0  0
  190.8680  174.1540  137.0710 C   0  0  2  0  0  3  0  0  0  0  0  0
  191.3630  174.2360  135.6540 C   0  0  0  0  0  0  0  0  0  0  0  0
  191.1690  173.2690  134.8710 O   0  0  0  0  0  0  0  0  0  0  0  0
  192.0440  175.3630  135.1880 O   0  0  0  0  0  0  0  0  0  0  0  0
  193.4410  175.5360  135.3730 C   0  0  0  0  0  1  0  0  0  0  0  0
  184.0880  179.0200  141.4210 C   0  0  0  0  0  2  0  0  0  0  0  0
  184.2250  178.2530  142.7320 C   0  0  0  0  0  2  0  0  0  0  0  0
  183.7310  179.0780  143.9080 C   0  0  1  0  0  3  0  0  0  0  0  0
  182.5080  178.5750  144.3520 O   0  0  0  0  0  1  0  0  0  0  0  0
  184.7480  179.0080  145.0300 C   0  0  0  0  0  2  0  0  0  0  0  0
  184.1170  178.6450  146.2190 O   0  0  0  0  0  1  0  0  0  0  0  0
  1 10  2  0  0  0  0
  1 23  1  0  0  0  0
  2 17  1  0  0  0  0
  2 21  1  0  0  0  0
  3 22  1  0  0  0  0
  4 13  1  6  0  0  0
  6 13  2  0  0  0  0
  7 27  1  6  0  0  0
  7  3  1  0  0  0  0
  8 25  1  1  0  0  0
  8  7  1  0  0  0  0
  9 12  1  0  0  0  0
  9  1  1  1  0  0  0
 10 24  1  0  0  0  0
 12  4  1  0  0  0  0
 12 18  1  0  0  0  0
 13 22  1  0  0  0  0
 14 10  1  0  0  0  0
 15  8  1  0  0  0  0
 15  4  1  0  0  0  0
 16 21  1  0  0  0  0
 16 14  1  0  0  0  0
 17 15  1  0  0  0  0
 18 23  1  0  0  0  0
 18  5  1  0  0  0  0
 19 11  1  0  0  0  0
 19 32  1  0  0  0  0
 21  9  1  0  0  0  0
 23 19  2  0  0  0  0
 24 20  1  0  0  0  0
 24 11  2  0  0  0  0
 27 26  1  0  0  0  0
 28 27  1  0  0  0  0
 29 28  2  0  0  0  0
 30 31  1  0  0  0  0
 30 28  1  0  0  0  0
 32 33  1  0  0  0  0
 33 34  1  0  0  0  0
 34 35  1  0  0  0  0
 34 36  1  0  0  0  0
 36 37  1  0  0  0  0
M  END
>  <MODEL>
6

>  <REMARK>
 VINA RESULT:      -6.7      3.455      5.204
  Name = 
  7 active torsions:
  status: ('A' for Active; 'I' for Inactive)
    1  A    between atoms: O_4  and  C_15
    2  A    between atoms: C_5  and  C_8
    3  A    between atoms: C_8  and  C_23
    4  A    between atoms: C_10  and  C_37
    5  A    between atoms: C_15  and  C_37
    6  A    between atoms: C_23  and  C_27
    7  A    between atoms: C_27  and  C_28
                            x       y       z     vdW  Elec       q    Type
                         _______ _______ _______ _____ _____    ______ ____

>  <TORSDO>
F 7

$$$$
=
 OpenBabel11062415323D

 37 41  0  0  1  0  0  0  0  0999 V2000
  185.4280  176.9940  137.1240 C   0  0  0  0  0  0  0  0  0  0  0  0
  189.0830  178.1180  137.2870 C   0  0  0  0  0  2  0  0  0  0  0  0
  188.6710  177.9370  142.6700 C   0  0  0  0  0  2  0  0  0  0  0  0
  187.1250  178.0480  139.9610 C   0  0  2  0  0  3  0  0  0  0  0  0
  184.3740  177.6940  140.2370 O   0  0  0  0  0  1  0  0  0  0  0  0
  186.2070  179.7520  141.3440 O   0  0  0  0  0  0  0  0  0  0  0  0
  189.2550  176.8310  141.7840 C   0  0  1  0  0  3  0  0  0  0  0  0
  189.5820  177.3150  140.3520 C   0  0  2  0  0  3  0  0  0  0  0  0
  186.5500  177.9100  137.4000 C   0  0  1  0  0  3  0  0  0  0  0  0
  185.4520  175.9560  136.1900 C   0  0  0  0  0  0  0  0  0  0  0  0
  183.1300  175.4980  136.7610 C   0  0  0  0  0  3  0  0  0  0  0  0
  186.2020  178.5120  138.7900 C   0  0  1  0  0  3  0  0  0  0  0  0
  186.7410  178.6550  141.2870 C   0  0  0  0  0  0  0  0  0  0  0  0
  186.7650  175.5350  135.5810 C   0  0  0  0  0  2  0  0  0  0  0  0
  188.6200  178.3800  139.7970 C   0  0  1  0  0  3  0  0  0  0  0  0
  187.8910  176.5620  135.7880 C   0  0  0  0  0  2  0  0  0  0  0  0
  189.0560  179.0530  138.4930 C   0  0  0  0  0  2  0  0  0  0  0  0
  184.6740  178.2260  138.9810 C   0  0  1  0  0  3  0  0  0  0  0  0
  183.1610  176.4960  137.7520 C   0  0  0  0  0  0  0  0  0  0  0  0
  184.2370  174.1420  135.0550 N   0  0  0  0  0  1  0  0  0  0  0  0
  187.8840  177.1790  137.1940 C   0  0  1  0  0  3  0  0  0  0  0  0
  187.1520  177.9730  142.5520 C   0  0  0  0  0  2  0  0  0  0  0  0
  184.3480  177.2240  137.9290 C   0  0  0  0  0  0  0  0  0  0  0  0
  184.2750  175.2090  135.9970 C   0  0  0  0  0  0  0  0  0  0  0  0
  189.6270  176.2140  139.4950 O   0  0  0  0  0  1  0  0  0  0  0  0
  190.2320  174.9410  142.9370 O   0  0  0  0  0  1  0  0  0  0  0  0
  190.4960  176.2260  142.4580 C   0  0  2  0  0  3  0  0  0  0  0  0
  190.9800  177.0820  143.5940 C   0  0  0  0  0  0  0  0  0  0  0  0
  191.6820  178.0990  143.3500 O   0  0  0  0  0  0  0  0  0  0  0  0
  190.6760  176.7690  144.9200 O   0  0  0  0  0  0  0  0  0  0  0  0
  191.6800  176.5140  145.8900 C   0  0  0  0  0  1  0  0  0  0  0  0
  181.9410  176.7800  138.5760 C   0  0  0  0  0  2  0  0  0  0  0  0
  181.1600  177.9710  138.0330 C   0  0  0  0  0  2  0  0  0  0  0  0
  180.8090  178.9510  139.1390 C   0  0  1  0  0  3  0  0  0  0  0  0
  181.1510  178.4030  140.3770 O   0  0  0  0  0  1  0  0  0  0  0  0
  181.5760  180.2410  138.9260 C   0  0  0  0  0  2  0  0  0  0  0  0
  181.4710  180.6390  137.5940 O   0  0  0  0  0  1  0  0  0  0  0  0
  1 23  1  0  0  0  0
  2 17  1  0  0  0  0
  4 13  1  1  0  0  0
  7 27  1  1  0  0  0
  7  3  1  0  0  0  0
  8 25  1  6  0  0  0
  8  7  1  0  0  0  0
  9  1  1  1  0  0  0
  9 12  1  0  0  0  0
 10  1  2  0  0  0  0
 11 19  1  0  0  0  0
 12 18  1  0  0  0  0
 12  4  1  0  0  0  0
 13  6  2  0  0  0  0
 13 22  1  0  0  0  0
 14 16  1  0  0  0  0
 14 10  1  0  0  0  0
 15  4  1  0  0  0  0
 15  8  1  0  0  0  0
 16 21  1  0  0  0  0
 17 15  1  0  0  0  0
 18  5  1  0  0  0  0
 19 23  2  0  0  0  0
 19 32  1  0  0  0  0
 20 24  1  0  0  0  0
 21  2  1  0  0  0  0
 21  9  1  0  0  0  0
 22  3  1  0  0  0  0
 23 18  1  0  0  0  0
 24 10  1  0  0  0  0
 24 11  2  0  0  0  0
 27 26  1  0  0  0  0
 27 28  1  0  0  0  0
 28 30  1  0  0  0  0
 29 28  2  0  0  0  0
 30 31  1  0  0  0  0
 33 32  1  0  0  0  0
 33 34  1  0  0  0  0
 34 35  1  0  0  0  0
 36 34  1  0  0  0  0
 37 36  1  0  0  0  0
M  END
>  <MODEL>
7

>  <REMARK>
 VINA RESULT:      -6.6      3.371      7.889
  Name = 
  7 active torsions:
  status: ('A' for Active; 'I' for Inactive)
    1  A    between atoms: O_4  and  C_15
    2  A    between atoms: C_5  and  C_8
    3  A    between atoms: C_8  and  C_23
    4  A    between atoms: C_10  and  C_37
    5  A    between atoms: C_15  and  C_37
    6  A    between atoms: C_23  and  C_27
    7  A    between atoms: C_27  and  C_28
                            x       y       z     vdW  Elec       q    Type
                         _______ _______ _______ _____ _____    ______ ____

>  <TORSDO>
F 7

$$$$
=
 OpenBabel11062415323D

 37 41  0  0  1  0  0  0  0  0999 V2000
  186.3420  178.4690  140.5400 C   0  0  0  0  0  0  0  0  0  0  0  0
  182.5450  178.7220  140.1190 C   0  0  0  0  0  2  0  0  0  0  0  0
  182.9720  175.1410  136.0970 C   0  0  0  0  0  2  0  0  0  0  0  0
  184.4800  177.1890  137.9060 C   0  0  2  0  0  3  0  0  0  0  0  0
  187.2500  177.1080  137.6050 O   0  0  0  0  0  1  0  0  0  0  0  0
  185.0830  177.6870  135.6590 O   0  0  0  0  0  0  0  0  0  0  0  0
  182.5920  174.8130  137.5460 C   0  0  1  0  0  3  0  0  0  0  0  0
  182.1880  176.0630  138.3620 C   0  0  2  0  0  3  0  0  0  0  0  0
  185.0760  178.8270  139.8730 C   0  0  1  0  0  3  0  0  0  0  0  0
  186.5020  178.2960  141.9160 C   0  0  0  0  0  0  0  0  0  0  0  0
  188.8670  177.8880  141.5080 C   0  0  0  0  0  3  0  0  0  0  0  0
  185.3100  178.4190  138.3920 C   0  0  1  0  0  3  0  0  0  0  0  0
  184.7500  176.8320  136.4660 C   0  0  0  0  0  0  0  0  0  0  0  0
  185.2840  178.2040  142.8000 C   0  0  0  0  0  2  0  0  0  0  0  0
  182.9510  177.3480  137.9910 C   0  0  1  0  0  3  0  0  0  0  0  0
  183.9950  178.6900  142.1160 C   0  0  0  0  0  2  0  0  0  0  0  0
  182.4060  178.6410  138.6010 C   0  0  0  0  0  2  0  0  0  0  0  0
  186.8650  178.2830  138.2540 C   0  0  1  0  0  3  0  0  0  0  0  0
  188.6600  177.9870  140.1200 C   0  0  0  0  0  0  0  0  0  0  0  0
  188.0180  177.8370  143.7990 N   0  0  0  0  0  1  0  0  0  0  0  0
  183.8910  178.2380  140.6520 C   0  0  1  0  0  3  0  0  0  0  0  0
  184.4620  175.4460  135.9890 C   0  0  0  0  0  2  0  0  0  0  0  0
  187.3620  178.2600  139.6570 C   0  0  0  0  0  0  0  0  0  0  0  0
  187.7920  178.0180  142.4050 C   0  0  0  0  0  0  0  0  0  0  0  0
  182.3390  175.7910  139.7230 O   0  0  0  0  0  1  0  0  0  0  0  0
  181.6400  172.8330  136.5320 O   0  0  0  0  0  1  0  0  0  0  0  0
  181.4750  173.7580  137.5650 C   0  0  2  0  0  3  0  0  0  0  0  0
  180.1170  174.3910  137.4430 C   0  0  0  0  0  0  0  0  0  0  0  0
  179.3830  174.4870  138.4620 O   0  0  0  0  0  0  0  0  0  0  0  0
  179.6460  174.8690  136.2180 O   0  0  0  0  0  0  0  0  0  0  0  0
  179.3480  176.2400  136.0020 C   0  0  0  0  0  1  0  0  0  0  0  0
  189.8090  177.8240  139.1720 C   0  0  0  0  0  2  0  0  0  0  0  0
  190.7450  176.7030  139.6090 C   0  0  0  0  0  2  0  0  0  0  0  0
  191.5680  176.1850  138.4420 C   0  0  1  0  0  3  0  0  0  0  0  0
  191.1140  176.7620  137.2550 O   0  0  0  0  0  1  0  0  0  0  0  0
  193.0240  176.5460  138.6580 C   0  0  0  0  0  2  0  0  0  0  0  0
  193.6300  176.8230  137.4330 O   0  0  0  0  0  1  0  0  0  0  0  0
  1 10  1  0  0  0  0
  2 21  1  0  0  0  0
  3  7  1  0  0  0  0
  4 13  1  6  0  0  0
  4 15  1  0  0  0  0
  4 12  1  0  0  0  0
  5 18  1  0  0  0  0
  6 13  2  0  0  0  0
  7 27  1  6  0  0  0
  7  8  1  0  0  0  0
  8 25  1  1  0  0  0
  9  1  1  1  0  0  0
  9 21  1  0  0  0  0
 10 24  2  0  0  0  0
 10 14  1  0  0  0  0
 11 24  1  0  0  0  0
 12  9  1  0  0  0  0
 15  8  1  0  0  0  0
 15 17  1  0  0  0  0
 16 14  1  0  0  0  0
 17  2  1  0  0  0  0
 18 12  1  0  0  0  0
 18 23  1  0  0  0  0
 19 11  2  0  0  0  0
 21 16  1  0  0  0  0
 22  3  1  0  0  0  0
 22 13  1  0  0  0  0
 23 19  1  0  0  0  0
 23  1  2  0  0  0  0
 24 20  1  0  0  0  0
 26 27  1  0  0  0  0
 28 27  1  0  0  0  0
 28 29  2  0  0  0  0
 30 28  1  0  0  0  0
 31 30  1  0  0  0  0
 32 33  1  0  0  0  0
 32 19  1  0  0  0  0
 34 36  1  0  0  0  0
 34 33  1  0  0  0  0
 35 34  1  0  0  0  0
 37 36  1  0  0  0  0
M  END
>  <MODEL>
8

>  <REMARK>
 VINA RESULT:      -6.5      3.562      5.770
  Name = 
  7 active torsions:
  status: ('A' for Active; 'I' for Inactive)
    1  A    between atoms: O_4  and  C_15
    2  A    between atoms: C_5  and  C_8
    3  A    between atoms: C_8  and  C_23
    4  A    between atoms: C_10  and  C_37
    5  A    between atoms: C_15  and  C_37
    6  A    between atoms: C_23  and  C_27
    7  A    between atoms: C_27  and  C_28
                            x       y       z     vdW  Elec       q    Type
                         _______ _______ _______ _____ _____    ______ ____

>  <TORSDO>
F 7

$$$$
=
 OpenBabel11062415323D

 37 41  0  0  1  0  0  0  0  0999 V2000
  185.8530  176.5450  136.5760 C   0  0  0  0  0  0  0  0  0  0  0  0
  189.3240  178.0130  137.2460 C   0  0  0  0  0  2  0  0  0  0  0  0
  187.9600  178.2880  142.4660 C   0  0  0  0  0  2  0  0  0  0  0  0
  186.9250  178.0070  139.5350 C   0  0  2  0  0  3  0  0  0  0  0  0
  184.2040  177.4260  139.3680 O   0  0  0  0  0  1  0  0  0  0  0  0
  185.6470  179.7380  140.5480 O   0  0  0  0  0  0  0  0  0  0  0  0
  188.7760  177.1640  141.8160 C   0  0  1  0  0  3  0  0  0  0  0  0
  189.3190  177.5430  140.4190 C   0  0  2  0  0  3  0  0  0  0  0  0
  186.8350  177.5820  136.9420 C   0  0  1  0  0  3  0  0  0  0  0  0
  186.1240  175.4330  135.7760 C   0  0  0  0  0  0  0  0  0  0  0  0
  183.7770  174.8150  135.9820 C   0  0  0  0  0  3  0  0  0  0  0  0
  186.1970  178.2740  138.1790 C   0  0  1  0  0  3  0  0  0  0  0  0
  186.2630  178.6940  140.7010 C   0  0  0  0  0  0  0  0  0  0  0  0
  187.5530  175.0810  135.4510 C   0  0  0  0  0  2  0  0  0  0  0  0
  188.3960  178.4590  139.5960 C   0  0  1  0  0  3  0  0  0  0  0  0
  188.5430  176.2230  135.7380 C   0  0  0  0  0  2  0  0  0  0  0  0
  189.0090  179.0480  138.3230 C   0  0  0  0  0  2  0  0  0  0  0  0
  184.6850  177.8660  138.1320 C   0  0  1  0  0  3  0  0  0  0  0  0
  183.5540  175.8980  136.8520 C   0  0  0  0  0  0  0  0  0  0  0  0
  185.2740  173.4180  134.6470 N   0  0  0  0  0  1  0  0  0  0  0  0
  188.2350  176.9620  137.0480 C   0  0  1  0  0  3  0  0  0  0  0  0
  186.4880  178.1720  142.0840 C   0  0  0  0  0  2  0  0  0  0  0  0
  184.6320  176.7470  137.1530 C   0  0  0  0  0  0  0  0  0  0  0  0
  185.0600  174.5660  135.4630 C   0  0  0  0  0  0  0  0  0  0  0  0
  189.6010  176.3770  139.7040 O   0  0  0  0  0  1  0  0  0  0  0  0
  190.0120  175.3500  142.8340 O   0  0  0  0  0  1  0  0  0  0  0  0
  189.9160  176.7410  142.7540 C   0  0  2  0  0  3  0  0  0  0  0  0
  189.7290  177.2980  144.1370 C   0  0  0  0  0  0  0  0  0  0  0  0
  190.4340  178.2700  144.5170 O   0  0  0  0  0  0  0  0  0  0  0  0
  188.7920  176.7530  145.0190 O   0  0  0  0  0  0  0  0  0  0  0  0
  188.2260  177.5030  146.0830 C   0  0  0  0  0  1  0  0  0  0  0  0
  182.1870  176.1420  137.4180 C   0  0  0  0  0  2  0  0  0  0  0  0
  181.7590  175.0210  138.3590 C   0  0  0  0  0  2  0  0  0  0  0  0
  181.1080  175.5730  139.6150 C   0  0  1  0  0  3  0  0  0  0  0  0
  180.8650  176.9380  139.4550 O   0  0  0  0  0  1  0  0  0  0  0  0
  179.7990  174.8490  139.8600 C   0  0  0  0  0  2  0  0  0  0  0  0
  179.1390  174.6410  138.6490 O   0  0  0  0  0  1  0  0  0  0  0  0
  1 23  1  0  0  0  0
  2 17  1  0  0  0  0
  4 15  1  0  0  0  0
  4 13  1  1  0  0  0
  6 13  2  0  0  0  0
  7  3  1  0  0  0  0
  7 27  1  1  0  0  0
  8 25  1  6  0  0  0
  8  7  1  0  0  0  0
  9  1  1  1  0  0  0
  9 21  1  0  0  0  0
  9 12  1  0  0  0  0
 10  1  2  0  0  0  0
 11 19  1  0  0  0  0
 12  4  1  0  0  0  0
 13 22  1  0  0  0  0
 14 16  1  0  0  0  0
 14 10  1  0  0  0  0
 15  8  1  0  0  0  0
 16 21  1  0  0  0  0
 17 15  1  0  0  0  0
 18 12  1  0  0  0  0
 18  5  1  0  0  0  0
 19 23  2  0  0  0  0
 19 32  1  0  0  0  0
 20 24  1  0  0  0  0
 21  2  1  0  0  0  0
 22  3  1  0  0  0  0
 23 18  1  0  0  0  0
 24 10  1  0  0  0  0
 24 11  2  0  0  0  0
 27 26  1  0  0  0  0
 27 28  1  0  0  0  0
 28 29  2  0  0  0  0
 28 30  1  0  0  0  0
 30 31  1  0  0  0  0
 32 33  1  0  0  0  0
 33 34  1  0  0  0  0
 34 36  1  0  0  0  0
 35 34  1  0  0  0  0
 37 36  1  0  0  0  0
M  END
>  <MODEL>
9

>  <REMARK>
 VINA RESULT:      -6.3      3.419      8.050
  Name = 
  7 active torsions:
  status: ('A' for Active; 'I' for Inactive)
    1  A    between atoms: O_4  and  C_15
    2  A    between atoms: C_5  and  C_8
    3  A    between atoms: C_8  and  C_23
    4  A    between atoms: C_10  and  C_37
    5  A    between atoms: C_15  and  C_37
    6  A    between atoms: C_23  and  C_27
    7  A    between atoms: C_27  and  C_28
                            x       y       z     vdW  Elec       q    Type
                         _______ _______ _______ _____ _____    ______ ____

>  <TORSDO>
F 7

$$$$
