=
 OpenBabel11062416063D

 43 51  0  0  1  0  0  0  0  0999 V2000
  182.0480  176.5760  138.0460 C   0  0  0  0  0  2  0  0  0  0  0  0
  186.7890  179.3100  137.9360 C   0  0  0  0  0  1  0  0  0  0  0  0
  184.4830  176.8590  138.7810 N   0  0  1  0  0  0  0  0  0  0  0  0
  184.0790  178.1450  139.3960 C   0  0  1  0  0  3  0  0  0  0  0  0
  185.2060  178.7360  140.2560 C   0  0  2  0  0  3  0  0  0  0  0  0
  181.6360  177.9280  137.5550 C   0  0  0  0  0  0  0  0  0  0  0  0
  183.5940  179.1970  138.3990 C   0  0  0  0  0  2  0  0  0  0  0  0
  186.7660  177.9580  138.6700 C   0  0  1  0  0  0  0  0  0  0  0  0
  179.8720  179.3620  134.6070 N   0  0  0  0  0  1  0  0  0  0  0  0
  180.8440  180.4190  136.4690 N   0  0  0  0  0  0  0  0  0  0  0  0
  184.0330  176.5970  136.3920 C   0  0  0  0  0  2  0  0  0  0  0  0
  181.7090  181.8440  138.5270 S   0  0  0  0  0  0  0  0  0  0  0  0
  185.4340  177.1410  136.5600 C   0  0  0  0  0  2  0  0  0  0  0  0
  182.0750  179.1550  138.3170 C   0  0  1  0  0  3  0  0  0  0  0  0
  181.5470  180.4330  137.7170 C   0  0  0  0  0  0  0  0  0  0  0  0
  186.4780  178.1380  140.0470 O   0  0  0  0  0  0  0  0  0  0  0  0
  183.5400  176.2910  137.8020 C   0  0  2  0  0  3  0  0  0  0  0  0
  180.9610  178.0140  136.4060 C   0  0  0  0  0  3  0  0  0  0  0  0
  185.7400  176.9780  138.0400 C   0  0  2  0  0  3  0  0  0  0  0  0
  180.5710  179.3150  135.8440 C   0  0  0  0  0  0  0  0  0  0  0  0
  184.8460  178.6300  141.7040 C   0  0  0  0  0  0  0  0  0  0  0  0
  186.8700  177.8170  145.1830 N   0  0  0  0  0  0  0  0  0  0  0  0
  184.9840  178.4040  143.9200 C   0  0  0  0  0  0  0  0  0  0  0  0
  187.7160  177.6730  143.9800 C   0  0  2  0  0  0  0  0  0  0  0  0
  185.6670  178.2700  142.6760 C   0  0  2  0  0  3  0  0  0  0  0  0
  187.1110  177.8990  142.5850 C   0  0  2  0  0  3  0  0  0  0  0  0
  185.6360  178.1510  145.1570 N   0  0  0  0  0  0  0  0  0  0  0  0
  183.5160  179.0120  142.2790 C   0  0  0  0  0  3  0  0  0  0  0  0
  183.7450  178.8310  143.7560 C   0  0  0  0  0  3  0  0  0  0  0  0
  187.3380  176.4850  143.1170 C   0  0  0  0  0  2  0  0  0  0  0  0
  191.9510  178.2530  144.4140 C   0  0  0  0  0  3  0  0  0  0  0  0
  191.2160  179.0830  143.5610 C   0  0  0  0  0  3  0  0  0  0  0  0
  189.9280  177.0510  144.9850 C   0  0  0  0  0  3  0  0  0  0  0  0
  189.1850  177.8890  144.1430 C   0  0  0  0  0  0  0  0  0  0  0  0
  189.8370  178.9000  143.4240 C   0  0  0  0  0  3  0  0  0  0  0  0
  191.3060  177.2350  145.1240 C   0  0  0  0  0  3  0  0  0  0  0  0
  190.9480  176.7970  138.1710 C   0  0  0  0  0  3  0  0  0  0  0  0
  189.1070  177.7970  139.6710 C   0  0  0  0  0  2  0  0  0  0  0  0
  190.4740  177.2020  139.5040 C   0  0  0  0  0  0  0  0  0  0  0  0
  188.8180  177.5950  137.1880 C   0  0  0  0  0  2  0  0  0  0  0  0
  188.1640  177.3190  138.5530 C   0  0  2  0  0  3  0  0  0  0  0  0
  190.1720  176.9480  137.0950 C   0  0  0  0  0  3  0  0  0  0  0  0
  191.2760  177.1450  140.5120 N   0  0  0  0  0  2  0  0  0  0  0  0
  2  8  1  0  0  0  0
  3  4  1  0  0  0  0
  4  5  1  0  0  0  0
  5 21  1  0  0  0  0
  6  1  1  0  0  0  0
  6 14  1  0  0  0  0
  7  4  1  0  0  0  0
  8 16  1  0  0  0  0
  9 20  1  0  0  0  0
 10 15  1  0  0  0  0
 11 13  1  0  0  0  0
 11 17  1  0  0  0  0
 13 19  1  0  0  0  0
 14  7  1  0  0  0  0
 15 14  1  0  0  0  0
 15 12  2  0  0  0  0
 16  5  1  0  0  0  0
 17  1  1  0  0  0  0
 17  3  1  0  0  0  0
 18  6  2  0  0  0  0
 19  8  1  0  0  0  0
 19  3  1  0  0  0  0
 20 18  1  0  0  0  0
 20 10  2  0  0  0  0
 21 28  2  0  0  0  0
 21 25  1  0  0  0  0
 23 27  1  0  0  0  0
 24 34  1  0  0  0  0
 24 22  1  0  0  0  0
 25 23  1  0  0  0  0
 26 25  1  0  0  0  0
 26 30  1  0  0  0  0
 26 24  1  0  0  0  0
 27 22  2  0  0  0  0
 28 29  1  0  0  0  0
 29 23  2  0  0  0  0
 30 24  1  0  0  0  0
 31 36  1  0  0  0  0
 32 31  2  0  0  0  0
 33 36  2  0  0  0  0
 34 33  1  0  0  0  0
 35 32  1  0  0  0  0
 35 34  2  0  0  0  0
 37 39  1  0  0  0  0
 39 38  1  0  0  0  0
 39 43  2  0  0  0  0
 40 41  1  0  0  0  0
 41  8  1  0  0  0  0
 41 38  1  0  0  0  0
 42 40  1  0  0  0  0
 42 37  2  0  0  0  0
M  END
>  <MODEL>
1

>  <REMARK>
 VINA RESULT:      -8.4      0.000      0.000
  Name = 
  3 active torsions:
  status: ('A' for Active; 'I' for Inactive)
    1  A    between atoms: C_2  and  C_11
    2  A    between atoms: C_7  and  C_24
    3  A    between atoms: C_15  and  C_36
                            x       y       z     vdW  Elec       q    Type
                         _______ _______ _______ _____ _____    ______ ____

>  <TORSDO>
F 3

$$$$
=
 OpenBabel11062416063D

 43 51  0  0  1  0  0  0  0  0999 V2000
  187.7020  177.0660  134.8530 C   0  0  0  0  0  2  0  0  0  0  0  0
  185.2360  173.0960  137.7050 C   0  0  0  0  0  1  0  0  0  0  0  0
  185.7070  175.5150  135.2620 N   0  0  1  0  0  0  0  0  0  0  0  0
  185.5500  176.1730  136.5800 C   0  0  1  0  0  3  0  0  0  0  0  0
  184.2430  175.7500  137.2680 C   0  0  2  0  0  3  0  0  0  0  0  0
  188.4470  177.0810  136.1510 C   0  0  0  0  0  0  0  0  0  0  0  0
  186.7230  175.9600  137.5370 C   0  0  0  0  0  2  0  0  0  0  0  0
  184.5490  173.5750  136.4140 C   0  0  1  0  0  0  0  0  0  0  0  0
  191.9730  176.7530  137.2990 N   0  0  0  0  0  1  0  0  0  0  0  0
  189.9860  177.0310  138.5250 N   0  0  0  0  0  0  0  0  0  0  0  0
  187.8770  174.4880  134.8020 C   0  0  0  0  0  2  0  0  0  0  0  0
  187.9330  177.5030  140.1310 S   0  0  0  0  0  0  0  0  0  0  0  0
  186.9660  173.4380  135.3980 C   0  0  0  0  0  2  0  0  0  0  0  0
  187.6740  177.1440  137.4460 C   0  0  1  0  0  3  0  0  0  0  0  0
  188.5690  177.1920  138.6570 C   0  0  0  0  0  0  0  0  0  0  0  0
  183.6200  174.6100  136.6930 O   0  0  0  0  0  0  0  0  0  0  0  0
  187.0030  175.7200  134.5940 C   0  0  2  0  0  3  0  0  0  0  0  0
  189.7760  176.9540  136.1270 C   0  0  0  0  0  3  0  0  0  0  0  0
  185.5790  174.0600  135.3590 C   0  0  2  0  0  3  0  0  0  0  0  0
  190.5620  176.9120  137.3690 C   0  0  0  0  0  0  0  0  0  0  0  0
  183.2770  176.8920  137.2650 C   0  0  0  0  0  0  0  0  0  0  0  0
  181.6690  179.3890  140.1000 N   0  0  0  0  0  0  0  0  0  0  0  0
  182.0210  178.6190  137.9140 C   0  0  0  0  0  0  0  0  0  0  0  0
  182.5110  178.3240  140.6850 C   0  0  2  0  0  0  0  0  0  0  0  0
  182.8270  177.5220  138.3370 C   0  0  2  0  0  3  0  0  0  0  0  0
  183.1620  177.2730  139.7720 C   0  0  2  0  0  3  0  0  0  0  0  0
  181.4500  179.5250  138.8480 N   0  0  0  0  0  0  0  0  0  0  0  0
  182.7480  177.5530  136.0280 C   0  0  0  0  0  3  0  0  0  0  0  0
  181.9410  178.6910  136.5980 C   0  0  0  0  0  3  0  0  0  0  0  0
  181.9000  176.9420  140.5680 C   0  0  0  0  0  2  0  0  0  0  0  0
  184.4060  179.0960  144.4620 C   0  0  0  0  0  3  0  0  0  0  0  0
  185.1840  178.9360  143.3110 C   0  0  0  0  0  3  0  0  0  0  0  0
  182.3980  178.7570  143.1530 C   0  0  0  0  0  3  0  0  0  0  0  0
  183.1720  178.6110  141.9930 C   0  0  0  0  0  0  0  0  0  0  0  0
  184.5680  178.6920  142.0800 C   0  0  0  0  0  3  0  0  0  0  0  0
  183.0130  179.0030  144.3830 C   0  0  0  0  0  3  0  0  0  0  0  0
  182.3440  169.9550  135.3560 C   0  0  0  0  0  3  0  0  0  0  0  0
  182.3090  172.3620  136.2780 C   0  0  0  0  0  2  0  0  0  0  0  0
  181.5930  171.1690  135.7160 C   0  0  0  0  0  0  0  0  0  0  0  0
  184.4330  171.0370  136.1340 C   0  0  0  0  0  2  0  0  0  0  0  0
  183.7740  172.3880  135.8080 C   0  0  2  0  0  3  0  0  0  0  0  0
  183.6680  169.8990  135.5170 C   0  0  0  0  0  3  0  0  0  0  0  0
  180.3050  171.1670  135.6510 N   0  0  0  0  0  2  0  0  0  0  0  0
  1  6  1  0  0  0  0
  3 19  1  0  0  0  0
  3  4  1  0  0  0  0
  4  5  1  0  0  0  0
  4  7  1  0  0  0  0
  6 14  1  0  0  0  0
  8 16  1  0  0  0  0
  8  2  1  0  0  0  0
  9 20  1  0  0  0  0
 10 15  1  0  0  0  0
 11 13  1  0  0  0  0
 14  7  1  0  0  0  0
 14 15  1  0  0  0  0
 15 12  2  0  0  0  0
 16  5  1  0  0  0  0
 17 11  1  0  0  0  0
 17  1  1  0  0  0  0
 17  3  1  0  0  0  0
 18  6  2  0  0  0  0
 18 20  1  0  0  0  0
 19 13  1  0  0  0  0
 19  8  1  0  0  0  0
 20 10  2  0  0  0  0
 21  5  1  0  0  0  0
 21 25  1  0  0  0  0
 22 24  1  0  0  0  0
 23 25  1  0  0  0  0
 23 27  1  0  0  0  0
 24 34  1  0  0  0  0
 25 26  1  0  0  0  0
 26 30  1  0  0  0  0
 26 24  1  0  0  0  0
 27 22  2  0  0  0  0
 28 29  1  0  0  0  0
 28 21  2  0  0  0  0
 29 23  2  0  0  0  0
 30 24  1  0  0  0  0
 32 31  2  0  0  0  0
 33 36  2  0  0  0  0
 34 35  2  0  0  0  0
 34 33  1  0  0  0  0
 35 32  1  0  0  0  0
 36 31  1  0  0  0  0
 37 42  2  0  0  0  0
 37 39  1  0  0  0  0
 39 38  1  0  0  0  0
 41 40  1  0  0  0  0
 41 38  1  0  0  0  0
 41  8  1  0  0  0  0
 42 40  1  0  0  0  0
 43 39  2  0  0  0  0
M  END
>  <MODEL>
2

>  <REMARK>
 VINA RESULT:      -8.2      3.466      7.449
  Name = 
  3 active torsions:
  status: ('A' for Active; 'I' for Inactive)
    1  A    between atoms: C_2  and  C_11
    2  A    between atoms: C_7  and  C_24
    3  A    between atoms: C_15  and  C_36
                            x       y       z     vdW  Elec       q    Type
                         _______ _______ _______ _____ _____    ______ ____

>  <TORSDO>
F 3

$$$$
=
 OpenBabel11062416063D

 43 51  0  0  1  0  0  0  0  0999 V2000
  180.8600  175.7500  134.9750 C   0  0  0  0  0  2  0  0  0  0  0  0
  180.7250  175.8390  140.4470 C   0  0  0  0  0  1  0  0  0  0  0  0
  181.0350  177.0100  137.1950 N   0  0  1  0  0  0  0  0  0  0  0  0
  182.1950  176.1480  137.5180 C   0  0  1  0  0  3  0  0  0  0  0  0
  182.9210  176.6300  138.7830 C   0  0  2  0  0  3  0  0  0  0  0  0
  181.0730  174.3130  135.3320 C   0  0  0  0  0  0  0  0  0  0  0  0
  181.8580  174.6630  137.6590 C   0  0  0  0  0  2  0  0  0  0  0  0
  180.8310  177.1890  139.7170 C   0  0  1  0  0  0  0  0  0  0  0  0
  179.4780  171.0310  134.5940 N   0  0  0  0  0  1  0  0  0  0  0  0
  181.3130  171.5640  135.9630 N   0  0  0  0  0  0  0  0  0  0  0  0
  178.9310  175.8740  136.6890 C   0  0  0  0  0  2  0  0  0  0  0  0
  183.4970  171.8640  137.4320 S   0  0  0  0  0  0  0  0  0  0  0  0
  178.9610  176.1930  138.1680 C   0  0  0  0  0  2  0  0  0  0  0  0
  182.1360  173.9530  136.3420 C   0  0  1  0  0  3  0  0  0  0  0  0
  182.2500  172.4660  136.5620 C   0  0  0  0  0  0  0  0  0  0  0  0
  182.1890  177.5690  139.5570 O   0  0  0  0  0  0  0  0  0  0  0  0
  180.1700  176.5400  136.1010 C   0  0  2  0  0  3  0  0  0  0  0  0
  180.2570  173.3950  134.8080 C   0  0  0  0  0  3  0  0  0  0  0  0
  180.1270  177.1540  138.3350 C   0  0  2  0  0  3  0  0  0  0  0  0
  180.3820  171.9720  135.1580 C   0  0  0  0  0  0  0  0  0  0  0  0
  184.2430  177.2260  138.4120 C   0  0  0  0  0  0  0  0  0  0  0  0
  187.4310  178.8090  140.4570 N   0  0  0  0  0  0  0  0  0  0  0  0
  186.2900  178.1070  138.5330 C   0  0  0  0  0  0  0  0  0  0  0  0
  186.2970  178.4630  141.3400 C   0  0  2  0  0  0  0  0  0  0  0  0
  185.1090  177.7600  139.2540 C   0  0  2  0  0  3  0  0  0  0  0  0
  185.0030  177.8950  140.7380 C   0  0  2  0  0  3  0  0  0  0  0  0
  187.4300  178.6450  139.1890 N   0  0  0  0  0  0  0  0  0  0  0  0
  184.8210  177.2140  137.0280 C   0  0  0  0  0  3  0  0  0  0  0  0
  186.1840  177.8140  137.2500 C   0  0  0  0  0  3  0  0  0  0  0  0
  185.0930  179.3630  141.1530 C   0  0  0  0  0  2  0  0  0  0  0  0
  187.1670  177.4350  145.4200 C   0  0  0  0  0  3  0  0  0  0  0  0
  188.0550  177.0690  144.4040 C   0  0  0  0  0  3  0  0  0  0  0  0
  185.7190  178.4720  143.7810 C   0  0  0  0  0  3  0  0  0  0  0  0
  186.6120  178.1200  142.7600 C   0  0  0  0  0  0  0  0  0  0  0  0
  187.7770  177.4090  143.0760 C   0  0  0  0  0  3  0  0  0  0  0  0
  185.9970  178.1350  145.1080 C   0  0  0  0  0  3  0  0  0  0  0  0
  179.5040  180.4640  142.2860 C   0  0  0  0  0  3  0  0  0  0  0  0
  180.2590  179.6640  139.9560 C   0  0  0  0  0  2  0  0  0  0  0  0
  179.6180  180.6940  140.8370 C   0  0  0  0  0  0  0  0  0  0  0  0
  180.6720  178.2960  142.0170 C   0  0  0  0  0  2  0  0  0  0  0  0
  180.1320  178.2610  140.5770 C   0  0  2  0  0  3  0  0  0  0  0  0
  179.9630  179.3370  142.8360 C   0  0  0  0  0  3  0  0  0  0  0  0
  179.2640  181.8310  140.3410 N   0  0  0  0  0  2  0  0  0  0  0  0
  1  6  1  0  0  0  0
  1 17  1  0  0  0  0
  3  4  1  0  0  0  0
  3 19  1  0  0  0  0
  4  7  1  0  0  0  0
  4  5  1  0  0  0  0
  5 16  1  0  0  0  0
  6 14  1  0  0  0  0
  8  2  1  0  0  0  0
  8 41  1  0  0  0  0
  9 20  1  0  0  0  0
 10 15  1  0  0  0  0
 11 13  1  0  0  0  0
 13 19  1  0  0  0  0
 14 15  1  0  0  0  0
 14  7  1  0  0  0  0
 15 12  2  0  0  0  0
 16  8  1  0  0  0  0
 17 11  1  0  0  0  0
 17  3  1  0  0  0  0
 18 20  1  0  0  0  0
 18  6  2  0  0  0  0
 19  8  1  0  0  0  0
 20 10  2  0  0  0  0
 21  5  1  0  0  0  0
 21 25  1  0  0  0  0
 22 24  1  0  0  0  0
 23 27  1  0  0  0  0
 23 25  1  0  0  0  0
 24 34  1  0  0  0  0
 25 26  1  0  0  0  0
 26 30  1  0  0  0  0
 26 24  1  0  0  0  0
 27 22  2  0  0  0  0
 28 29  1  0  0  0  0
 28 21  2  0  0  0  0
 29 23  2  0  0  0  0
 30 24  1  0  0  0  0
 32 31  2  0  0  0  0
 33 36  2  0  0  0  0
 34 35  2  0  0  0  0
 34 33  1  0  0  0  0
 35 32  1  0  0  0  0
 36 31  1  0  0  0  0
 37 42  2  0  0  0  0
 38 41  1  0  0  0  0
 38 39  1  0  0  0  0
 39 37  1  0  0  0  0
 40 42  1  0  0  0  0
 41 40  1  0  0  0  0
 43 39  2  0  0  0  0
M  END
>  <MODEL>
3

>  <REMARK>
 VINA RESULT:      -7.6      3.514      6.703
  Name = 
  3 active torsions:
  status: ('A' for Active; 'I' for Inactive)
    1  A    between atoms: C_2  and  C_11
    2  A    between atoms: C_7  and  C_24
    3  A    between atoms: C_15  and  C_36
                            x       y       z     vdW  Elec       q    Type
                         _______ _______ _______ _____ _____    ______ ____

>  <TORSDO>
F 3

$$$$
=
 OpenBabel11062416063D

 43 51  0  0  1  0  0  0  0  0999 V2000
  182.2460  176.0440  134.5950 C   0  0  0  0  0  2  0  0  0  0  0  0
  182.2140  176.5910  140.0420 C   0  0  0  0  0  1  0  0  0  0  0  0
  182.4380  177.4900  136.6970 N   0  0  1  0  0  0  0  0  0  0  0  0
  183.6210  176.6790  137.0670 C   0  0  1  0  0  3  0  0  0  0  0  0
  184.3620  177.2800  138.2720 C   0  0  2  0  0  3  0  0  0  0  0  0
  182.4950  174.6460  135.0670 C   0  0  0  0  0  0  0  0  0  0  0  0
  183.3170  175.2060  137.3400 C   0  0  0  0  0  2  0  0  0  0  0  0
  182.2790  177.8770  139.2000 C   0  0  1  0  0  0  0  0  0  0  0  0
  180.9530  171.2840  134.6400 N   0  0  0  0  0  1  0  0  0  0  0  0
  182.8030  171.9650  135.9220 N   0  0  0  0  0  0  0  0  0  0  0  0
  180.3480  176.2760  136.3320 C   0  0  0  0  0  2  0  0  0  0  0  0
  185.0080  172.4280  137.3140 S   0  0  0  0  0  0  0  0  0  0  0  0
  180.4000  176.7180  137.7780 C   0  0  0  0  0  2  0  0  0  0  0  0
  183.5840  174.3920  136.0820 C   0  0  1  0  0  3  0  0  0  0  0  0
  183.7330  172.9320  136.4230 C   0  0  0  0  0  0  0  0  0  0  0  0
  183.6250  178.2670  138.9800 O   0  0  0  0  0  0  0  0  0  0  0  0
  181.5620  176.9120  135.6650 C   0  0  2  0  0  3  0  0  0  0  0  0
  181.6880  173.6720  134.6400 C   0  0  0  0  0  3  0  0  0  0  0  0
  181.5490  177.7120  137.8400 C   0  0  2  0  0  3  0  0  0  0  0  0
  181.8480  172.2860  135.1040 C   0  0  0  0  0  0  0  0  0  0  0  0
  185.6630  177.8660  137.8250 C   0  0  0  0  0  0  0  0  0  0  0  0
  189.2740  178.6970  139.5930 N   0  0  0  0  0  0  0  0  0  0  0  0
  187.7830  178.5630  137.7890 C   0  0  0  0  0  0  0  0  0  0  0  0
  188.2610  178.2140  140.5560 C   0  0  2  0  0  0  0  0  0  0  0  0
  186.7000  178.1220  138.6040 C   0  0  2  0  0  3  0  0  0  0  0  0
  186.8380  177.8930  140.0740 C   0  0  2  0  0  3  0  0  0  0  0  0
  189.0600  178.8520  138.3430 N   0  0  0  0  0  0  0  0  0  0  0  0
  186.0160  178.1610  136.3980 C   0  0  0  0  0  3  0  0  0  0  0  0
  187.4520  178.6030  136.5110 C   0  0  0  0  0  3  0  0  0  0  0  0
  187.1400  179.2050  140.7960 C   0  0  0  0  0  2  0  0  0  0  0  0
  189.7230  176.2350  144.0770 C   0  0  0  0  0  3  0  0  0  0  0  0
  188.6660  177.1450  144.1760 C   0  0  0  0  0  3  0  0  0  0  0  0
  189.8230  176.6110  141.6880 C   0  0  0  0  0  3  0  0  0  0  0  0
  188.7550  177.5140  141.7790 C   0  0  0  0  0  0  0  0  0  0  0  0
  188.1850  177.7850  143.0300 C   0  0  0  0  0  3  0  0  0  0  0  0
  190.3030  175.9700  142.8330 C   0  0  0  0  0  3  0  0  0  0  0  0
  179.6920  180.8370  141.1050 C   0  0  0  0  0  3  0  0  0  0  0  0
  180.6610  178.4490  141.0870 C   0  0  0  0  0  2  0  0  0  0  0  0
  179.9480  179.5630  141.7950 C   0  0  0  0  0  0  0  0  0  0  0  0
  180.7540  179.9240  139.0610 C   0  0  0  0  0  2  0  0  0  0  0  0
  181.5750  179.0040  139.9800 C   0  0  2  0  0  3  0  0  0  0  0  0
  180.0920  181.0230  139.8450 C   0  0  0  0  0  3  0  0  0  0  0  0
  179.4630  179.3650  142.9740 N   0  0  0  0  0  2  0  0  0  0  0  0
  1  6  1  0  0  0  0
  1 17  1  0  0  0  0
  3  4  1  0  0  0  0
  3 19  1  0  0  0  0
  4  7  1  0  0  0  0
  4  5  1  0  0  0  0
  5 16  1  0  0  0  0
  6 14  1  0  0  0  0
  8 41  1  0  0  0  0
  8  2  1  0  0  0  0
  9 20  1  0  0  0  0
 10 15  1  0  0  0  0
 11 13  1  0  0  0  0
 13 19  1  0  0  0  0
 14 15  1  0  0  0  0
 14  7  1  0  0  0  0
 15 12  2  0  0  0  0
 16  8  1  0  0  0  0
 17 11  1  0  0  0  0
 17  3  1  0  0  0  0
 18  6  2  0  0  0  0
 18 20  1  0  0  0  0
 19  8  1  0  0  0  0
 20 10  2  0  0  0  0
 21  5  1  0  0  0  0
 21 25  1  0  0  0  0
 22 24  1  0  0  0  0
 23 27  1  0  0  0  0
 23 25  1  0  0  0  0
 24 30  1  0  0  0  0
 24 34  1  0  0  0  0
 25 26  1  0  0  0  0
 26 24  1  0  0  0  0
 26 30  1  0  0  0  0
 27 22  2  0  0  0  0
 28 29  1  0  0  0  0
 28 21  2  0  0  0  0
 29 23  2  0  0  0  0
 31 32  1  0  0  0  0
 33 34  2  0  0  0  0
 33 36  1  0  0  0  0
 34 35  1  0  0  0  0
 35 32  2  0  0  0  0
 36 31  2  0  0  0  0
 37 39  1  0  0  0  0
 38 39  1  0  0  0  0
 39 43  2  0  0  0  0
 40 42  1  0  0  0  0
 40 41  1  0  0  0  0
 41 38  1  0  0  0  0
 42 37  2  0  0  0  0
M  END
>  <MODEL>
4

>  <REMARK>
 VINA RESULT:      -6.9      3.261      6.325
  Name = 
  3 active torsions:
  status: ('A' for Active; 'I' for Inactive)
    1  A    between atoms: C_2  and  C_11
    2  A    between atoms: C_7  and  C_24
    3  A    between atoms: C_15  and  C_36
                            x       y       z     vdW  Elec       q    Type
                         _______ _______ _______ _____ _____    ______ ____

>  <TORSDO>
F 3

$$$$
=
 OpenBabel11062416063D

 43 51  0  0  1  0  0  0  0  0999 V2000
  186.8110  177.8860  135.4970 C   0  0  0  0  0  2  0  0  0  0  0  0
  183.9430  173.9100  137.9340 C   0  0  0  0  0  1  0  0  0  0  0  0
  184.9140  176.1680  135.4840 N   0  0  1  0  0  0  0  0  0  0  0  0
  184.3270  176.9060  136.6260 C   0  0  1  0  0  3  0  0  0  0  0  0
  182.9140  176.4010  136.9560 C   0  0  2  0  0  3  0  0  0  0  0  0
  187.1410  178.0820  136.9440 C   0  0  0  0  0  0  0  0  0  0  0  0
  185.1810  176.8940  137.8930 C   0  0  0  0  0  2  0  0  0  0  0  0
  183.6280  174.2110  136.4580 C   0  0  1  0  0  0  0  0  0  0  0  0
  190.1910  178.2220  139.0730 N   0  0  0  0  0  1  0  0  0  0  0  0
  187.9170  178.3810  139.6490 N   0  0  0  0  0  0  0  0  0  0  0  0
  187.1990  175.3450  135.7690 C   0  0  0  0  0  2  0  0  0  0  0  0
  185.4530  178.7540  140.5460 S   0  0  0  0  0  0  0  0  0  0  0  0
  186.2390  174.2540  136.1890 C   0  0  0  0  0  2  0  0  0  0  0  0
  186.0200  178.1620  137.9520 C   0  0  1  0  0  3  0  0  0  0  0  0
  186.5160  178.3990  139.3550 C   0  0  0  0  0  0  0  0  0  0  0  0
  182.5790  175.1600  136.3510 O   0  0  0  0  0  0  0  0  0  0  0  0
  186.3280  176.4570  135.1930 C   0  0  2  0  0  3  0  0  0  0  0  0
  188.4250  178.0950  137.3120 C   0  0  0  0  0  3  0  0  0  0  0  0
  184.8790  174.7190  135.6930 C   0  0  2  0  0  3  0  0  0  0  0  0
  188.8140  178.2340  138.7230 C   0  0  0  0  0  0  0  0  0  0  0  0
  181.9030  177.4290  136.5590 C   0  0  0  0  0  0  0  0  0  0  0  0
  178.9990  179.5950  138.4900 N   0  0  0  0  0  0  0  0  0  0  0  0
  180.2950  178.9760  136.6380 C   0  0  0  0  0  0  0  0  0  0  0  0
  179.6520  178.6010  139.3670 C   0  0  2  0  0  0  0  0  0  0  0  0
  180.9860  177.9530  137.3530 C   0  0  2  0  0  3  0  0  0  0  0  0
  180.7370  177.6730  138.7990 C   0  0  2  0  0  3  0  0  0  0  0  0
  179.2910  179.7680  137.2580 N   0  0  0  0  0  0  0  0  0  0  0  0
  181.8460  178.0890  135.2130 C   0  0  0  0  0  3  0  0  0  0  0  0
  180.7480  179.1020  135.4040 C   0  0  0  0  0  3  0  0  0  0  0  0
  179.3100  177.1680  139.0110 C   0  0  0  0  0  2  0  0  0  0  0  0
  179.6950  179.4520  143.5780 C   0  0  0  0  0  3  0  0  0  0  0  0
  179.6960  178.1260  143.1340 C   0  0  0  0  0  3  0  0  0  0  0  0
  179.6710  180.2210  141.2830 C   0  0  0  0  0  3  0  0  0  0  0  0
  179.6860  178.8940  140.8320 C   0  0  0  0  0  0  0  0  0  0  0  0
  179.6890  177.8480  141.7640 C   0  0  0  0  0  3  0  0  0  0  0  0
  179.6800  180.4990  142.6520 C   0  0  0  0  0  3  0  0  0  0  0  0
  182.0700  170.3300  135.1950 C   0  0  0  0  0  3  0  0  0  0  0  0
  181.6270  172.8150  135.7130 C   0  0  0  0  0  2  0  0  0  0  0  0
  181.1990  171.5130  135.1030 C   0  0  0  0  0  0  0  0  0  0  0  0
  183.7070  171.6560  136.4990 C   0  0  0  0  0  2  0  0  0  0  0  0
  183.1620  172.9040  135.7850 C   0  0  2  0  0  3  0  0  0  0  0  0
  183.2510  170.3980  135.8140 C   0  0  0  0  0  3  0  0  0  0  0  0
  180.0200  171.4000  134.5940 N   0  0  0  0  0  2  0  0  0  0  0  0
  1  6  1  0  0  0  0
  3 19  1  0  0  0  0
  3  4  1  0  0  0  0
  4  5  1  0  0  0  0
  4  7  1  0  0  0  0
  6 18  2  0  0  0  0
  6 14  1  0  0  0  0
  7 14  1  0  0  0  0
  8  2  1  0  0  0  0
 11 13  1  0  0  0  0
 14 15  1  0  0  0  0
 15 10  1  0  0  0  0
 15 12  2  0  0  0  0
 16  8  1  0  0  0  0
 16  5  1  0  0  0  0
 17  3  1  0  0  0  0
 17  1  1  0  0  0  0
 17 11  1  0  0  0  0
 18 20  1  0  0  0  0
 19 13  1  0  0  0  0
 19  8  1  0  0  0  0
 20  9  1  0  0  0  0
 20 10  2  0  0  0  0
 21  5  1  0  0  0  0
 21 25  1  0  0  0  0
 22 24  1  0  0  0  0
 23 27  1  0  0  0  0
 23 25  1  0  0  0  0
 24 34  1  0  0  0  0
 25 26  1  0  0  0  0
 26 30  1  0  0  0  0
 26 24  1  0  0  0  0
 27 22  2  0  0  0  0
 28 29  1  0  0  0  0
 28 21  2  0  0  0  0
 29 23  2  0  0  0  0
 30 24  1  0  0  0  0
 32 31  1  0  0  0  0
 33 36  1  0  0  0  0
 34 33  2  0  0  0  0
 34 35  1  0  0  0  0
 35 32  2  0  0  0  0
 36 31  2  0  0  0  0
 37 42  2  0  0  0  0
 38 41  1  0  0  0  0
 39 37  1  0  0  0  0
 39 38  1  0  0  0  0
 41  8  1  0  0  0  0
 41 40  1  0  0  0  0
 42 40  1  0  0  0  0
 43 39  2  0  0  0  0
M  END
>  <MODEL>
5

>  <REMARK>
 VINA RESULT:      -6.9      3.595      8.268
  Name = 
  3 active torsions:
  status: ('A' for Active; 'I' for Inactive)
    1  A    between atoms: C_2  and  C_11
    2  A    between atoms: C_7  and  C_24
    3  A    between atoms: C_15  and  C_36
                            x       y       z     vdW  Elec       q    Type
                         _______ _______ _______ _____ _____    ______ ____

>  <TORSDO>
F 3

$$$$
=
 OpenBabel11062416063D

 43 51  0  0  1  0  0  0  0  0999 V2000
  181.0980  177.3540  135.4410 C   0  0  0  0  0  2  0  0  0  0  0  0
  182.6350  176.1260  140.5490 C   0  0  0  0  0  1  0  0  0  0  0  0
  182.1330  178.0190  137.6850 N   0  0  1  0  0  0  0  0  0  0  0  0
  183.1830  177.0070  137.4260 C   0  0  1  0  0  3  0  0  0  0  0  0
  184.3240  177.1050  138.4500 C   0  0  2  0  0  3  0  0  0  0  0  0
  181.1760  175.8600  135.4100 C   0  0  0  0  0  0  0  0  0  0  0  0
  182.6720  175.5680  137.3670 C   0  0  0  0  0  2  0  0  0  0  0  0
  182.7300  177.5990  140.1140 C   0  0  1  0  0  0  0  0  0  0  0  0
  178.9310  173.0050  134.5940 N   0  0  0  0  0  1  0  0  0  0  0  0
  181.1540  173.0300  135.3590 N   0  0  0  0  0  0  0  0  0  0  0  0
  179.8200  177.2250  137.6840 C   0  0  0  0  0  2  0  0  0  0  0  0
  183.6970  172.7760  136.0520 S   0  0  0  0  0  0  0  0  0  0  0  0
  180.3450  177.1720  139.1010 C   0  0  0  0  0  2  0  0  0  0  0  0
  182.4220  175.1760  135.9190 C   0  0  1  0  0  3  0  0  0  0  0  0
  182.3590  173.6760  135.7840 C   0  0  0  0  0  0  0  0  0  0  0  0
  184.0180  177.8880  139.5950 O   0  0  0  0  0  0  0  0  0  0  0  0
  180.9140  177.9040  136.8660 C   0  0  2  0  0  3  0  0  0  0  0  0
  180.1050  175.1700  135.0120 C   0  0  0  0  0  3  0  0  0  0  0  0
  181.6450  177.9600  139.0640 C   0  0  2  0  0  3  0  0  0  0  0  0
  180.1010  173.7000  135.0050 C   0  0  0  0  0  0  0  0  0  0  0  0
  185.5490  177.6560  137.7910 C   0  0  0  0  0  0  0  0  0  0  0  0
  189.3430  178.6490  139.0050 N   0  0  0  0  0  0  0  0  0  0  0  0
  187.6360  178.3560  137.4250 C   0  0  0  0  0  0  0  0  0  0  0  0
  188.4680  178.2460  140.1270 C   0  0  2  0  0  0  0  0  0  0  0  0
  186.6720  177.9810  138.4070 C   0  0  2  0  0  3  0  0  0  0  0  0
  187.0010  177.8790  139.8610 C   0  0  2  0  0  3  0  0  0  0  0  0
  188.9690  178.6960  137.7840 N   0  0  0  0  0  0  0  0  0  0  0  0
  185.7120  177.8290  136.3110 C   0  0  0  0  0  3  0  0  0  0  0  0
  187.1440  178.2850  136.2020 C   0  0  0  0  0  3  0  0  0  0  0  0
  187.3720  179.2490  140.4250 C   0  0  0  0  0  2  0  0  0  0  0  0
  190.3150  176.5080  143.5950 C   0  0  0  0  0  3  0  0  0  0  0  0
  190.7870  176.1880  142.3180 C   0  0  0  0  0  3  0  0  0  0  0  0
  188.6470  177.9610  142.6130 C   0  0  0  0  0  3  0  0  0  0  0  0
  189.1250  177.6550  141.3310 C   0  0  0  0  0  0  0  0  0  0  0  0
  190.1920  176.7580  141.1890 C   0  0  0  0  0  3  0  0  0  0  0  0
  189.2430  177.3930  143.7410 C   0  0  0  0  0  3  0  0  0  0  0  0
  182.0400  179.5060  143.9830 C   0  0  0  0  0  3  0  0  0  0  0  0
  183.6920  178.4200  142.3300 C   0  0  0  0  0  2  0  0  0  0  0  0
  183.4230  179.2500  143.5500 C   0  0  0  0  0  0  0  0  0  0  0  0
  181.2120  178.1190  142.1040 C   0  0  0  0  0  2  0  0  0  0  0  0
  182.5030  178.4870  141.3530 C   0  0  2  0  0  3  0  0  0  0  0  0
  181.0070  179.0100  143.2980 C   0  0  0  0  0  3  0  0  0  0  0  0
  184.4060  179.6500  144.2830 N   0  0  0  0  0  2  0  0  0  0  0  0
  1 17  1  0  0  0  0
  3 19  1  0  0  0  0
  4  3  1  0  0  0  0
  4  5  1  0  0  0  0
  5 16  1  0  0  0  0
  6  1  1  0  0  0  0
  6 14  1  0  0  0  0
  7  4  1  0  0  0  0
  8  2  1  0  0  0  0
  8 41  1  0  0  0  0
  9 20  1  0  0  0  0
 10 15  1  0  0  0  0
 11 13  1  0  0  0  0
 14  7  1  0  0  0  0
 15 14  1  0  0  0  0
 15 12  2  0  0  0  0
 16  8  1  0  0  0  0
 17 11  1  0  0  0  0
 17  3  1  0  0  0  0
 18  6  2  0  0  0  0
 19 13  1  0  0  0  0
 19  8  1  0  0  0  0
 20 18  1  0  0  0  0
 20 10  2  0  0  0  0
 21 25  1  0  0  0  0
 21  5  1  0  0  0  0
 22 24  1  0  0  0  0
 23 27  1  0  0  0  0
 23 25  1  0  0  0  0
 24 30  1  0  0  0  0
 24 34  1  0  0  0  0
 25 26  1  0  0  0  0
 26 24  1  0  0  0  0
 26 30  1  0  0  0  0
 27 22  2  0  0  0  0
 28 21  2  0  0  0  0
 29 28  1  0  0  0  0
 29 23  2  0  0  0  0
 31 36  1  0  0  0  0
 32 31  2  0  0  0  0
 33 36  2  0  0  0  0
 34 33  1  0  0  0  0
 35 34  2  0  0  0  0
 35 32  1  0  0  0  0
 38 39  1  0  0  0  0
 39 37  1  0  0  0  0
 39 43  2  0  0  0  0
 40 42  1  0  0  0  0
 41 40  1  0  0  0  0
 41 38  1  0  0  0  0
 42 37  2  0  0  0  0
M  END
>  <MODEL>
6

>  <REMARK>
 VINA RESULT:      -5.9      2.840      5.781
  Name = 
  3 active torsions:
  status: ('A' for Active; 'I' for Inactive)
    1  A    between atoms: C_2  and  C_11
    2  A    between atoms: C_7  and  C_24
    3  A    between atoms: C_15  and  C_36
                            x       y       z     vdW  Elec       q    Type
                         _______ _______ _______ _____ _____    ______ ____

>  <TORSDO>
F 3

$$$$
=
 OpenBabel11062416063D

 43 51  0  0  1  0  0  0  0  0999 V2000
  182.2310  179.3320  136.2370 C   0  0  0  0  0  2  0  0  0  0  0  0
  183.1870  176.7140  140.9490 C   0  0  0  0  0  1  0  0  0  0  0  0
  183.3420  179.2060  138.5390 N   0  0  1  0  0  0  0  0  0  0  0  0
  184.0640  178.0070  138.0520 C   0  0  1  0  0  3  0  0  0  0  0  0
  185.1520  177.5640  139.0420 C   0  0  2  0  0  3  0  0  0  0  0  0
  181.8770  177.9160  135.9050 C   0  0  0  0  0  0  0  0  0  0  0  0
  183.1620  176.8190  137.7200 C   0  0  0  0  0  2  0  0  0  0  0  0
  183.7160  178.1530  140.8160 C   0  0  1  0  0  0  0  0  0  0  0  0
  178.9310  176.0540  134.5950 N   0  0  0  0  0  1  0  0  0  0  0  0
  181.0420  175.2830  135.2860 N   0  0  0  0  0  0  0  0  0  0  0  0
  180.9000  179.1290  138.4430 C   0  0  0  0  0  2  0  0  0  0  0  0
  183.3810  174.1720  135.8430 S   0  0  0  0  0  0  0  0  0  0  0  0
  181.3430  178.6440  139.8060 C   0  0  0  0  0  2  0  0  0  0  0  0
  182.8560  176.8140  136.2300 C   0  0  1  0  0  3  0  0  0  0  0  0
  182.3680  175.4550  135.7980 C   0  0  0  0  0  0  0  0  0  0  0  0
  185.0480  178.1560  140.3300 O   0  0  0  0  0  0  0  0  0  0  0  0
  182.1680  179.6130  137.7490 C   0  0  2  0  0  3  0  0  0  0  0  0
  180.6650  177.6590  135.4060 C   0  0  0  0  0  3  0  0  0  0  0  0
  182.8150  179.0150  139.8920 C   0  0  2  0  0  3  0  0  0  0  0  0
  180.2370  176.2850  135.1050 C   0  0  0  0  0  0  0  0  0  0  0  0
  186.5030  177.8590  138.4740 C   0  0  0  0  0  0  0  0  0  0  0  0
  190.3030  178.2450  139.9790 N   0  0  0  0  0  0  0  0  0  0  0  0
  188.7040  178.1670  138.2670 C   0  0  0  0  0  0  0  0  0  0  0  0
  189.2850  178.0600  141.0340 C   0  0  2  0  0  0  0  0  0  0  0  0
  187.6140  178.0180  139.1730 C   0  0  2  0  0  3  0  0  0  0  0  0
  187.8010  177.9390  140.6530 C   0  0  2  0  0  3  0  0  0  0  0  0
  190.0430  178.2900  138.7290 N   0  0  0  0  0  0  0  0  0  0  0  0
  186.8130  177.9210  137.0080 C   0  0  0  0  0  3  0  0  0  0  0  0
  188.3070  178.1160  137.0090 C   0  0  0  0  0  3  0  0  0  0  0  0
  188.3630  179.2530  141.1950 C   0  0  0  0  0  2  0  0  0  0  0  0
  190.6030  176.2770  144.7130 C   0  0  0  0  0  3  0  0  0  0  0  0
  189.6980  177.3420  144.7390 C   0  0  0  0  0  3  0  0  0  0  0  0
  190.6450  176.3710  142.2940 C   0  0  0  0  0  3  0  0  0  0  0  0
  189.7270  177.4300  142.3140 C   0  0  0  0  0  0  0  0  0  0  0  0
  189.2630  177.9190  143.5420 C   0  0  0  0  0  3  0  0  0  0  0  0
  191.0790  175.7930  143.4900 C   0  0  0  0  0  3  0  0  0  0  0  0
  183.5280  179.3490  145.0130 C   0  0  0  0  0  3  0  0  0  0  0  0
  184.8630  178.2690  143.0920 C   0  0  0  0  0  2  0  0  0  0  0  0
  184.8080  178.8760  144.4630 C   0  0  0  0  0  0  0  0  0  0  0  0
  182.3800  178.5960  142.9500 C   0  0  0  0  0  2  0  0  0  0  0  0
  183.7150  178.8010  142.2150 C   0  0  2  0  0  3  0  0  0  0  0  0
  182.4010  179.2520  144.3030 C   0  0  0  0  0  3  0  0  0  0  0  0
  185.8640  178.8830  145.2030 N   0  0  0  0  0  2  0  0  0  0  0  0
  1 17  1  0  0  0  0
  3 19  1  0  0  0  0
  4  3  1  0  0  0  0
  4  5  1  0  0  0  0
  5 16  1  0  0  0  0
  6 14  1  0  0  0  0
  6  1  1  0  0  0  0
  7  4  1  0  0  0  0
  8  2  1  0  0  0  0
  8 41  1  0  0  0  0
  9 20  1  0  0  0  0
 10 15  1  0  0  0  0
 11 13  1  0  0  0  0
 13 19  1  0  0  0  0
 14  7  1  0  0  0  0
 15 12  2  0  0  0  0
 15 14  1  0  0  0  0
 16  8  1  0  0  0  0
 17 11  1  0  0  0  0
 17  3  1  0  0  0  0
 18  6  2  0  0  0  0
 19  8  1  0  0  0  0
 20 10  2  0  0  0  0
 20 18  1  0  0  0  0
 21  5  1  0  0  0  0
 21 25  1  0  0  0  0
 22 24  1  0  0  0  0
 23 27  1  0  0  0  0
 23 25  1  0  0  0  0
 24 30  1  0  0  0  0
 24 34  1  0  0  0  0
 25 26  1  0  0  0  0
 26 24  1  0  0  0  0
 26 30  1  0  0  0  0
 27 22  2  0  0  0  0
 28 29  1  0  0  0  0
 28 21  2  0  0  0  0
 29 23  2  0  0  0  0
 31 32  1  0  0  0  0
 33 34  2  0  0  0  0
 33 36  1  0  0  0  0
 34 35  1  0  0  0  0
 35 32  2  0  0  0  0
 36 31  2  0  0  0  0
 38 39  1  0  0  0  0
 39 37  1  0  0  0  0
 39 43  2  0  0  0  0
 40 42  1  0  0  0  0
 41 40  1  0  0  0  0
 41 38  1  0  0  0  0
 42 37  2  0  0  0  0
M  END
>  <MODEL>
7

>  <REMARK>
 VINA RESULT:      -5.7      2.116      5.140
  Name = 
  3 active torsions:
  status: ('A' for Active; 'I' for Inactive)
    1  A    between atoms: C_2  and  C_11
    2  A    between atoms: C_7  and  C_24
    3  A    between atoms: C_15  and  C_36
                            x       y       z     vdW  Elec       q    Type
                         _______ _______ _______ _____ _____    ______ ____

>  <TORSDO>
F 3

$$$$
=
 OpenBabel11062416063D

 43 51  0  0  1  0  0  0  0  0999 V2000
  180.9330  177.5510  141.4720 C   0  0  0  0  0  2  0  0  0  0  0  0
  182.8530  181.5880  138.3120 C   0  0  0  0  0  1  0  0  0  0  0  0
  181.1010  178.7290  139.2070 N   0  0  1  0  0  0  0  0  0  0  0  0
  182.5540  178.4440  139.2400 C   0  0  1  0  0  3  0  0  0  0  0  0
  183.2240  178.7760  137.8980 C   0  0  2  0  0  3  0  0  0  0  0  0
  182.1150  178.0430  142.2480 C   0  0  0  0  0  0  0  0  0  0  0  0
  183.3090  179.1410  140.3720 C   0  0  0  0  0  2  0  0  0  0  0  0
  181.8030  180.6450  137.6990 C   0  0  1  0  0  0  0  0  0  0  0  0
  182.8060  179.3640  145.6590 N   0  0  0  0  0  1  0  0  0  0  0  0
  184.2400  179.0510  143.8220 N   0  0  0  0  0  0  0  0  0  0  0  0
  180.1880  179.9960  141.0880 C   0  0  0  0  0  2  0  0  0  0  0  0
  186.0950  178.6470  141.9750 S   0  0  0  0  0  0  0  0  0  0  0  0
  180.5680  180.9680  139.9930 C   0  0  0  0  0  2  0  0  0  0  0  0
  183.4460  178.1900  141.5510 C   0  0  1  0  0  3  0  0  0  0  0  0
  184.5390  178.6570  142.4780 C   0  0  0  0  0  0  0  0  0  0  0  0
  182.4290  179.5650  137.0250 O   0  0  0  0  0  0  0  0  0  0  0  0
  180.3930  178.6070  140.4920 C   0  0  2  0  0  3  0  0  0  0  0  0
  181.9360  178.4180  143.5170 C   0  0  0  0  0  3  0  0  0  0  0  0
  180.8230  180.1000  138.7720 C   0  0  2  0  0  3  0  0  0  0  0  0
  183.0450  178.9560  144.3180 C   0  0  0  0  0  0  0  0  0  0  0  0
  183.6110  177.5110  137.1990 C   0  0  0  0  0  0  0  0  0  0  0  0
  187.1180  175.4920  136.5040 N   0  0  0  0  0  0  0  0  0  0  0  0
  184.7930  175.7850  136.4210 C   0  0  0  0  0  0  0  0  0  0  0  0
  187.3280  176.7960  137.1670 C   0  0  2  0  0  0  0  0  0  0  0  0
  184.8470  177.0760  137.0240 C   0  0  2  0  0  3  0  0  0  0  0  0
  186.1270  177.7060  137.4680 C   0  0  2  0  0  3  0  0  0  0  0  0
  185.9730  175.0330  136.1690 N   0  0  0  0  0  0  0  0  0  0  0  0
  182.6370  176.4970  136.6770 C   0  0  0  0  0  3  0  0  0  0  0  0
  183.5500  175.3970  136.2010 C   0  0  0  0  0  3  0  0  0  0  0  0
  187.0340  177.9820  136.2700 C   0  0  0  0  0  2  0  0  0  0  0  0
  190.7990  177.1810  139.6700 C   0  0  0  0  0  3  0  0  0  0  0  0
  190.8480  176.3760  138.5270 C   0  0  0  0  0  3  0  0  0  0  0  0
  188.4940  177.7370  139.1790 C   0  0  0  0  0  3  0  0  0  0  0  0
  188.5420  176.9430  138.0250 C   0  0  0  0  0  0  0  0  0  0  0  0
  189.7210  176.2550  137.7080 C   0  0  0  0  0  3  0  0  0  0  0  0
  189.6200  177.8590  139.9970 C   0  0  0  0  0  3  0  0  0  0  0  0
  178.9310  182.8170  135.2260 C   0  0  0  0  0  3  0  0  0  0  0  0
  180.5920  182.8330  137.1970 C   0  0  0  0  0  2  0  0  0  0  0  0
  179.7470  183.5650  136.1960 C   0  0  0  0  0  0  0  0  0  0  0  0
  179.7070  180.6920  136.2370 C   0  0  0  0  0  2  0  0  0  0  0  0
  180.9790  181.4410  136.6670 C   0  0  2  0  0  3  0  0  0  0  0  0
  178.9310  181.4820  135.2190 C   0  0  0  0  0  3  0  0  0  0  0  0
  179.6530  184.8500  136.2550 N   0  0  0  0  0  2  0  0  0  0  0  0
  1  6  1  0  0  0  0
  3  4  1  0  0  0  0
  3 17  1  0  0  0  0
  4  7  1  0  0  0  0
  5  4  1  0  0  0  0
  6 18  2  0  0  0  0
  7 14  1  0  0  0  0
  8  2  1  0  0  0  0
  8 19  1  0  0  0  0
 10 20  2  0  0  0  0
 12 15  2  0  0  0  0
 13 11  1  0  0  0  0
 14  6  1  0  0  0  0
 14 15  1  0  0  0  0
 15 10  1  0  0  0  0
 16  8  1  0  0  0  0
 16  5  1  0  0  0  0
 17 11  1  0  0  0  0
 17  1  1  0  0  0  0
 18 20  1  0  0  0  0
 19  3  1  0  0  0  0
 19 13  1  0  0  0  0
 20  9  1  0  0  0  0
 21  5  1  0  0  0  0
 22 24  1  0  0  0  0
 23 25  1  0  0  0  0
 24 26  1  0  0  0  0
 24 34  1  0  0  0  0
 25 21  1  0  0  0  0
 25 26  1  0  0  0  0
 27 23  1  0  0  0  0
 27 22  2  0  0  0  0
 28 21  2  0  0  0  0
 29 23  2  0  0  0  0
 29 28  1  0  0  0  0
 30 24  1  0  0  0  0
 30 26  1  0  0  0  0
 31 36  1  0  0  0  0
 32 31  2  0  0  0  0
 33 36  2  0  0  0  0
 34 33  1  0  0  0  0
 35 34  2  0  0  0  0
 35 32  1  0  0  0  0
 37 39  1  0  0  0  0
 39 43  2  0  0  0  0
 39 38  1  0  0  0  0
 40 41  1  0  0  0  0
 41 38  1  0  0  0  0
 41  8  1  0  0  0  0
 42 37  2  0  0  0  0
 42 40  1  0  0  0  0
M  END
>  <MODEL>
8

>  <REMARK>
 VINA RESULT:      -5.6      2.927      7.524
  Name = 
  3 active torsions:
  status: ('A' for Active; 'I' for Inactive)
    1  A    between atoms: C_2  and  C_11
    2  A    between atoms: C_7  and  C_24
    3  A    between atoms: C_15  and  C_36
                            x       y       z     vdW  Elec       q    Type
                         _______ _______ _______ _____ _____    ______ ____

>  <TORSDO>
F 3

$$$$
