=
 OpenBabel11062416193D

 29 33  0  0  1  0  0  0  0  0999 V2000
  183.9090  178.8380  144.0740 C   0  0  0  0  0  3  0  0  0  0  0  0
  185.8800  178.3840  146.9550 N   0  0  0  0  0  0  0  0  0  0  0  0
  184.8840  179.4470  143.1080 C   0  0  0  0  0  2  0  0  0  0  0  0
  188.0100  178.1090  148.2490 C   0  0  0  0  0  3  0  0  0  0  0  0
  189.3520  177.6960  148.1790 C   0  0  0  0  0  3  0  0  0  0  0  0
  189.0920  177.1480  145.8150 C   0  0  0  0  0  3  0  0  0  0  0  0
  186.6960  177.5850  144.8820 C   0  0  2  0  0  3  0  0  0  0  0  0
  185.9710  178.4700  142.6700 C   0  0  2  0  0  3  0  0  0  0  0  0
  187.0680  178.4930  143.7240 C   0  0  0  0  0  2  0  0  0  0  0  0
  185.5760  178.1780  145.7090 C   0  0  0  0  0  0  0  0  0  0  0  0
  189.8990  177.2160  146.9670 C   0  0  0  0  0  0  0  0  0  0  0  0
  187.2440  178.0320  147.0890 C   0  0  0  0  0  0  0  0  0  0  0  0
  187.7670  177.5740  145.9100 C   0  0  0  0  0  0  0  0  0  0  0  0
  184.2380  178.3390  145.2300 N   0  0  0  0  0  0  0  0  0  0  0  0
  192.1050  176.8330  148.0390 O   0  0  0  0  0  1  0  0  0  0  0  0
  191.3040  176.7830  146.9040 C   0  0  0  0  0  0  0  0  0  0  0  0
  191.7940  176.3630  145.8210 O   0  0  0  0  0  0  0  0  0  0  0  0
  185.3010  178.9120  140.3150 C   0  0  0  0  0  1  0  0  0  0  0  0
  186.5000  178.8450  141.2700 C   0  0  2  0  0  3  0  0  0  0  0  0
  188.6720  176.9600  139.0240 C   0  0  1  0  0  3  0  0  0  0  0  0
  188.6430  177.9690  141.8040 C   0  0  0  0  0  2  0  0  0  0  0  0
  190.6690  177.5650  140.3840 N   0  0  0  0  0  2  0  0  0  0  0  0
  188.1590  178.2900  139.5630 C   0  0  1  0  0  3  0  0  0  0  0  0
  187.6390  177.7480  138.2520 C   0  0  0  0  0  2  0  0  0  0  0  0
  189.8360  177.0300  141.4820 C   0  0  0  0  0  2  0  0  0  0  0  0
  187.5380  177.8900  140.8230 N   0  0  0  0  0  0  0  0  0  0  0  0
  190.1740  177.2220  139.0270 C   0  0  1  0  0  3  0  0  0  0  0  0
  190.9210  176.0050  138.5080 C   0  0  0  0  0  2  0  0  0  0  0  0
  192.2870  176.4040  137.9820 C   0  0  0  0  0  1  0  0  0  0  0  0
  1 14  2  0  0  0  0
  2 12  1  0  0  0  0
  3  1  1  0  0  0  0
  5  4  1  0  0  0  0
  6 13  2  0  0  0  0
  6 11  1  0  0  0  0
  7  9  1  6  0  0  0
  7 10  1  0  0  0  0
  7 13  1  0  0  0  0
  8 19  1  6  0  0  0
  8  3  1  0  0  0  0
  8  9  1  0  0  0  0
 10  2  2  0  0  0  0
 11  5  2  0  0  0  0
 12  4  2  0  0  0  0
 13 12  1  0  0  0  0
 14 10  1  0  0  0  0
 16 11  1  0  0  0  0
 16 15  1  0  0  0  0
 17 16  2  0  0  0  0
 19 18  1  6  0  0  0
 20 24  1  6  0  0  0
 20 27  1  0  0  0  0
 20 23  1  0  0  0  0
 22 25  1  0  0  0  0
 23 24  1  6  0  0  0
 23 26  1  0  0  0  0
 25 21  1  0  0  0  0
 26 19  1  0  0  0  0
 26 21  1  0  0  0  0
 27 28  1  1  0  0  0
 27 22  1  0  0  0  0
 29 28  1  0  0  0  0
M  END
>  <MODEL>
1

>  <REMARK>
 VINA RESULT:     -10.1      0.000      0.000
  Name = 
  4 active torsions:
  status: ('A' for Active; 'I' for Inactive)
    1  A    between atoms: C_13  and  C_27
    2  A    between atoms: C_16  and  C_17
    3  A    between atoms: C_24  and  C_28
    4  A    between atoms: N_25  and  C_27
                            x       y       z     vdW  Elec       q    Type
                         _______ _______ _______ _____ _____    ______ ____

>  <TORSDO>
F 4

$$$$
=
 OpenBabel11062416193D

 29 33  0  0  1  0  0  0  0  0999 V2000
  183.6000  178.9800  145.1010 C   0  0  0  0  0  3  0  0  0  0  0  0
  186.1710  178.7830  147.4960 N   0  0  0  0  0  0  0  0  0  0  0  0
  184.3560  179.2930  143.8410 C   0  0  0  0  0  2  0  0  0  0  0  0
  188.5250  178.4740  148.3070 C   0  0  0  0  0  3  0  0  0  0  0  0
  189.7720  177.8940  148.0180 C   0  0  0  0  0  3  0  0  0  0  0  0
  188.9020  176.9900  145.9250 C   0  0  0  0  0  3  0  0  0  0  0  0
  186.3930  177.5520  145.4880 C   0  0  2  0  0  3  0  0  0  0  0  0
  185.2230  178.1310  143.3670 C   0  0  2  0  0  3  0  0  0  0  0  0
  186.5430  178.1980  144.1230 C   0  0  0  0  0  2  0  0  0  0  0  0
  185.5580  178.4080  146.4150 C   0  0  0  0  0  0  0  0  0  0  0  0
  189.9680  177.1530  146.8300 C   0  0  0  0  0  0  0  0  0  0  0  0
  187.4960  178.2960  147.3860 C   0  0  0  0  0  0  0  0  0  0  0  0
  187.6780  177.5840  146.2310 C   0  0  0  0  0  0  0  0  0  0  0  0
  184.1610  178.6480  146.2270 N   0  0  0  0  0  0  0  0  0  0  0  0
  192.1820  176.3030  147.5640 O   0  0  0  0  0  1  0  0  0  0  0  0
  191.2770  176.5470  146.5380 C   0  0  0  0  0  0  0  0  0  0  0  0
  191.5890  176.2430  145.3550 O   0  0  0  0  0  0  0  0  0  0  0  0
  186.7100  178.9850  141.5640 C   0  0  0  0  0  1  0  0  0  0  0  0
  185.4230  178.1960  141.8390 C   0  0  2  0  0  3  0  0  0  0  0  0
  183.3470  179.6630  139.2210 C   0  0  1  0  0  3  0  0  0  0  0  0
  183.0570  178.0470  141.6810 C   0  0  0  0  0  2  0  0  0  0  0  0
  181.5260  178.0310  139.6950 N   0  0  0  0  0  2  0  0  0  0  0  0
  184.2200  178.5260  139.7360 C   0  0  1  0  0  3  0  0  0  0  0  0
  184.7860  179.5450  138.7750 C   0  0  0  0  0  2  0  0  0  0  0  0
  181.7110  178.5280  141.0750 C   0  0  0  0  0  2  0  0  0  0  0  0
  184.2370  178.7820  141.1740 N   0  0  0  0  0  0  0  0  0  0  0  0
  182.1700  178.8750  138.6570 C   0  0  1  0  0  3  0  0  0  0  0  0
  181.1400  179.8210  138.0620 C   0  0  0  0  0  2  0  0  0  0  0  0
  181.4530  181.2560  138.4440 C   0  0  0  0  0  1  0  0  0  0  0  0
  1 14  2  0  0  0  0
  3  1  1  0  0  0  0
  5  4  1  0  0  0  0
  6 13  2  0  0  0  0
  6 11  1  0  0  0  0
  7  9  1  6  0  0  0
  7 13  1  0  0  0  0
  7 10  1  0  0  0  0
  8 19  1  6  0  0  0
  8  3  1  0  0  0  0
  8  9  1  0  0  0  0
 10  2  2  0  0  0  0
 11  5  2  0  0  0  0
 12  2  1  0  0  0  0
 12  4  2  0  0  0  0
 13 12  1  0  0  0  0
 14 10  1  0  0  0  0
 16 11  1  0  0  0  0
 16 15  1  0  0  0  0
 17 16  2  0  0  0  0
 19 18  1  1  0  0  0
 20 24  1  6  0  0  0
 20 23  1  0  0  0  0
 22 25  1  0  0  0  0
 23 24  1  6  0  0  0
 23 26  1  0  0  0  0
 25 21  1  0  0  0  0
 26 21  1  0  0  0  0
 26 19  1  0  0  0  0
 27 28  1  1  0  0  0
 27 20  1  0  0  0  0
 27 22  1  0  0  0  0
 28 29  1  0  0  0  0
M  END
>  <MODEL>
2

>  <REMARK>
 VINA RESULT:     -10.1      2.778      4.515
  Name = 
  4 active torsions:
  status: ('A' for Active; 'I' for Inactive)
    1  A    between atoms: C_13  and  C_27
    2  A    between atoms: C_16  and  C_17
    3  A    between atoms: C_24  and  C_28
    4  A    between atoms: N_25  and  C_27
                            x       y       z     vdW  Elec       q    Type
                         _______ _______ _______ _____ _____    ______ ____

>  <TORSDO>
F 4

$$$$
=
 OpenBabel11062416193D

 29 33  0  0  1  0  0  0  0  0999 V2000
  186.3940  178.7010  147.4100 C   0  0  0  0  0  3  0  0  0  0  0  0
  183.4200  179.0880  145.5680 N   0  0  0  0  0  0  0  0  0  0  0  0
  187.0410  177.5250  146.7360 C   0  0  0  0  0  2  0  0  0  0  0  0
  181.9080  178.8340  143.5830 C   0  0  0  0  0  3  0  0  0  0  0  0
  181.8620  178.6510  142.1900 C   0  0  0  0  0  3  0  0  0  0  0  0
  184.3010  178.6090  142.0840 C   0  0  0  0  0  3  0  0  0  0  0  0
  185.4680  178.9210  144.3960 C   0  0  2  0  0  3  0  0  0  0  0  0
  187.5140  177.8410  145.3200 C   0  0  2  0  0  3  0  0  0  0  0  0
  186.3250  177.6680  144.3850 C   0  0  0  0  0  2  0  0  0  0  0  0
  184.7110  179.0590  145.6990 C   0  0  0  0  0  0  0  0  0  0  0  0
  183.0530  178.5370  141.4360 C   0  0  0  0  0  0  0  0  0  0  0  0
  183.1600  178.8960  144.1900 C   0  0  0  0  0  0  0  0  0  0  0  0
  184.3170  178.7810  143.4690 C   0  0  0  0  0  0  0  0  0  0  0  0
  185.3410  179.3170  146.9570 N   0  0  0  0  0  0  0  0  0  0  0  0
  183.0470  179.4450  139.1260 O   0  0  0  0  0  0  0  0  0  0  0  0
  182.9950  178.3480  139.9780 C   0  0  0  0  0  0  0  0  0  0  0  0
  182.8990  177.1910  139.4870 O   0  0  0  0  0  1  0  0  0  0  0  0
  189.6760  176.9010  146.1140 C   0  0  0  0  0  1  0  0  0  0  0  0
  188.6980  176.9320  144.9320 C   0  0  2  0  0  3  0  0  0  0  0  0
  191.1270  177.1910  142.2210 C   0  0  1  0  0  3  0  0  0  0  0  0
  188.2370  177.6010  142.6990 C   0  0  0  0  0  2  0  0  0  0  0  0
  189.3160  176.9740  140.5250 N   0  0  0  0  0  2  0  0  0  0  0  0
  190.1600  176.3620  143.0580 C   0  0  1  0  0  3  0  0  0  0  0  0
  191.6440  176.3120  143.3370 C   0  0  0  0  0  2  0  0  0  0  0  0
  188.7250  178.0820  141.3050 C   0  0  0  0  0  2  0  0  0  0  0  0
  189.3290  177.3930  143.6750 N   0  0  0  0  0  0  0  0  0  0  0  0
  190.7500  176.7250  140.8190 C   0  0  1  0  0  3  0  0  0  0  0  0
  191.6100  177.4270  139.7820 C   0  0  0  0  0  2  0  0  0  0  0  0
  191.8280  176.5310  138.5770 C   0  0  0  0  0  1  0  0  0  0  0  0
  2 10  2  0  0  0  0
  3  1  1  0  0  0  0
  4 12  1  0  0  0  0
  5  4  2  0  0  0  0
  6 13  1  0  0  0  0
  7  9  1  1  0  0  0
  7 10  1  0  0  0  0
  8 19  1  6  0  0  0
  8  3  1  0  0  0  0
  9  8  1  0  0  0  0
 10 14  1  0  0  0  0
 11  6  2  0  0  0  0
 11  5  1  0  0  0  0
 12  2  1  0  0  0  0
 13 12  2  0  0  0  0
 13  7  1  0  0  0  0
 14  1  2  0  0  0  0
 15 16  2  0  0  0  0
 16 11  1  0  0  0  0
 17 16  1  0  0  0  0
 19 18  1  1  0  0  0
 20 23  1  0  0  0  0
 20 24  1  1  0  0  0
 21 26  1  0  0  0  0
 22 27  1  0  0  0  0
 22 25  1  0  0  0  0
 23 24  1  1  0  0  0
 23 26  1  0  0  0  0
 25 21  1  0  0  0  0
 26 19  1  0  0  0  0
 27 28  1  6  0  0  0
 27 20  1  0  0  0  0
 29 28  1  0  0  0  0
M  END
>  <MODEL>
3

>  <REMARK>
 VINA RESULT:     -10.0      3.450      5.805
  Name = 
  4 active torsions:
  status: ('A' for Active; 'I' for Inactive)
    1  A    between atoms: C_13  and  C_27
    2  A    between atoms: C_16  and  C_17
    3  A    between atoms: C_24  and  C_28
    4  A    between atoms: N_25  and  C_27
                            x       y       z     vdW  Elec       q    Type
                         _______ _______ _______ _____ _____    ______ ____

>  <TORSDO>
F 4

$$$$
=
 OpenBabel11062416193D

 29 33  0  0  1  0  0  0  0  0999 V2000
  187.8920  178.1270  148.8440 C   0  0  0  0  0  3  0  0  0  0  0  0
  184.9520  178.7260  147.0050 N   0  0  0  0  0  0  0  0  0  0  0  0
  188.5350  177.0100  148.0730 C   0  0  0  0  0  2  0  0  0  0  0  0
  183.4690  178.6800  144.9820 C   0  0  0  0  0  3  0  0  0  0  0  0
  183.4420  178.6280  143.5780 C   0  0  0  0  0  3  0  0  0  0  0  0
  185.8820  178.5630  143.5040 C   0  0  0  0  0  3  0  0  0  0  0  0
  187.0160  178.6400  145.8510 C   0  0  2  0  0  3  0  0  0  0  0  0
  189.0330  177.4510  146.7000 C   0  0  2  0  0  3  0  0  0  0  0  0
  187.8580  177.3820  145.7350 C   0  0  0  0  0  2  0  0  0  0  0  0
  186.2410  178.6670  147.1500 C   0  0  0  0  0  0  0  0  0  0  0  0
  184.6430  178.5690  142.8340 C   0  0  0  0  0  0  0  0  0  0  0  0
  184.7110  178.6670  145.6110 C   0  0  0  0  0  0  0  0  0  0  0  0
  185.8780  178.6040  144.8990 C   0  0  0  0  0  0  0  0  0  0  0  0
  186.8540  178.7970  148.4360 N   0  0  0  0  0  0  0  0  0  0  0  0
  183.8100  177.5810  140.7140 O   0  0  0  0  0  1  0  0  0  0  0  0
  184.6060  178.5180  141.3640 C   0  0  0  0  0  0  0  0  0  0  0  0
  185.2940  179.3230  140.6800 O   0  0  0  0  0  0  0  0  0  0  0  0
  191.3030  176.6440  147.3210 C   0  0  0  0  0  1  0  0  0  0  0  0
  190.2120  176.5650  146.2450 C   0  0  2  0  0  3  0  0  0  0  0  0
  190.9310  176.3910  142.6720 C   0  0  1  0  0  3  0  0  0  0  0  0
  190.3920  178.4130  144.7620 C   0  0  0  0  0  2  0  0  0  0  0  0
  189.8950  178.6280  142.3140 N   0  0  0  0  0  2  0  0  0  0  0  0
  189.9370  176.3440  143.8260 C   0  0  1  0  0  3  0  0  0  0  0  0
  190.4310  175.0630  143.1940 C   0  0  0  0  0  2  0  0  0  0  0  0
  190.8260  179.0110  143.3970 C   0  0  0  0  0  2  0  0  0  0  0  0
  190.6940  176.9720  144.9060 N   0  0  0  0  0  0  0  0  0  0  0  0
  190.1880  177.3060  141.7040 C   0  0  1  0  0  3  0  0  0  0  0  0
  191.0020  177.5010  140.4360 C   0  0  0  0  0  2  0  0  0  0  0  0
  190.1340  177.2870  139.2100 C   0  0  0  0  0  1  0  0  0  0  0  0
  2 10  2  0  0  0  0
  3  1  1  0  0  0  0
  4 12  1  0  0  0  0
  5  4  2  0  0  0  0
  6 13  1  0  0  0  0
  7  9  1  1  0  0  0
  7 10  1  0  0  0  0
  8 19  1  6  0  0  0
  8  3  1  0  0  0  0
  9  8  1  0  0  0  0
 10 14  1  0  0  0  0
 11  6  2  0  0  0  0
 11  5  1  0  0  0  0
 12  2  1  0  0  0  0
 13 12  2  0  0  0  0
 13  7  1  0  0  0  0
 14  1  2  0  0  0  0
 15 16  1  0  0  0  0
 16 11  1  0  0  0  0
 17 16  2  0  0  0  0
 19 18  1  1  0  0  0
 20 24  1  6  0  0  0
 20 23  1  0  0  0  0
 21 26  1  0  0  0  0
 22 25  1  0  0  0  0
 23 24  1  1  0  0  0
 23 26  1  0  0  0  0
 25 21  1  0  0  0  0
 26 19  1  0  0  0  0
 27 28  1  6  0  0  0
 27 22  1  0  0  0  0
 27 20  1  0  0  0  0
 29 28  1  0  0  0  0
M  END
>  <MODEL>
4

>  <REMARK>
 VINA RESULT:      -9.7      2.917      5.496
  Name = 
  4 active torsions:
  status: ('A' for Active; 'I' for Inactive)
    1  A    between atoms: C_13  and  C_27
    2  A    between atoms: C_16  and  C_17
    3  A    between atoms: C_24  and  C_28
    4  A    between atoms: N_25  and  C_27
                            x       y       z     vdW  Elec       q    Type
                         _______ _______ _______ _____ _____    ______ ____

>  <TORSDO>
F 4

$$$$
=
 OpenBabel11062416193D

 29 33  0  0  1  0  0  0  0  0999 V2000
  185.8400  178.1730  146.9670 C   0  0  0  0  0  3  0  0  0  0  0  0
  189.2120  177.6400  146.1080 N   0  0  0  0  0  0  0  0  0  0  0  0
  185.3670  179.0810  145.8680 C   0  0  0  0  0  2  0  0  0  0  0  0
  191.1960  177.5480  144.5760 C   0  0  0  0  0  3  0  0  0  0  0  0
  191.6120  177.3910  143.2430 C   0  0  0  0  0  3  0  0  0  0  0  0
  189.2920  177.1690  142.5140 C   0  0  0  0  0  3  0  0  0  0  0  0
  187.5530  177.3180  144.4520 C   0  0  2  0  0  3  0  0  0  0  0  0
  185.3040  178.3860  144.5120 C   0  0  2  0  0  3  0  0  0  0  0  0
  186.6950  178.4410  143.8970 C   0  0  0  0  0  2  0  0  0  0  0  0
  187.9330  177.5750  145.8930 C   0  0  0  0  0  0  0  0  0  0  0  0
  190.6660  177.2020  142.2080 C   0  0  0  0  0  0  0  0  0  0  0  0
  189.8290  177.5150  144.8400 C   0  0  0  0  0  0  0  0  0  0  0  0
  188.9070  177.3390  143.8440 C   0  0  0  0  0  0  0  0  0  0  0  0
  186.9940  177.5710  146.9730 N   0  0  0  0  0  0  0  0  0  0  0  0
  190.3930  176.2260  139.9420 O   0  0  0  0  0  0  0  0  0  0  0  0
  191.1110  177.0350  140.8150 C   0  0  0  0  0  0  0  0  0  0  0  0
  192.1460  177.6230  140.4010 O   0  0  0  0  0  1  0  0  0  0  0  0
  182.8680  178.8180  144.2500 C   0  0  0  0  0  1  0  0  0  0  0  0
  184.2430  179.0540  143.6130 C   0  0  2  0  0  3  0  0  0  0  0  0
  183.1700  177.8940  140.3230 C   0  0  1  0  0  3  0  0  0  0  0  0
  185.4900  179.2140  141.5970 C   0  0  0  0  0  2  0  0  0  0  0  0
  184.7600  179.4550  139.2100 N   0  0  0  0  0  2  0  0  0  0  0  0
  183.1960  178.9660  141.4060 C   0  0  1  0  0  3  0  0  0  0  0  0
  181.9910  178.0680  141.2540 C   0  0  0  0  0  2  0  0  0  0  0  0
  185.7260  178.8020  140.1180 C   0  0  0  0  0  2  0  0  0  0  0  0
  184.3290  178.5460  142.2250 N   0  0  0  0  0  0  0  0  0  0  0  0
  183.4640  178.7390  139.0890 C   0  0  1  0  0  3  0  0  0  0  0  0
  183.4820  177.8650  137.8460 C   0  0  0  0  0  2  0  0  0  0  0  0
  183.4490  176.3970  138.2280 C   0  0  0  0  0  1  0  0  0  0  0  0
  1 14  2  0  0  0  0
  3  1  1  0  0  0  0
  4 12  1  0  0  0  0
  5  4  2  0  0  0  0
  6 13  1  0  0  0  0
  7  9  1  6  0  0  0
  7 10  1  0  0  0  0
  8 19  1  6  0  0  0
  8  3  1  0  0  0  0
  9  8  1  0  0  0  0
 10  2  2  0  0  0  0
 10 14  1  0  0  0  0
 11  6  2  0  0  0  0
 11  5  1  0  0  0  0
 12  2  1  0  0  0  0
 13  7  1  0  0  0  0
 13 12  2  0  0  0  0
 15 16  2  0  0  0  0
 16 11  1  0  0  0  0
 17 16  1  0  0  0  0
 19 18  1  1  0  0  0
 20 24  1  6  0  0  0
 20 23  1  0  0  0  0
 21 26  1  0  0  0  0
 22 25  1  0  0  0  0
 23 24  1  1  0  0  0
 23 26  1  0  0  0  0
 25 21  1  0  0  0  0
 26 19  1  0  0  0  0
 27 28  1  6  0  0  0
 27 22  1  0  0  0  0
 27 20  1  0  0  0  0
 28 29  1  0  0  0  0
M  END
>  <MODEL>
5

>  <REMARK>
 VINA RESULT:      -9.7      2.814      4.922
  Name = 
  4 active torsions:
  status: ('A' for Active; 'I' for Inactive)
    1  A    between atoms: C_13  and  C_27
    2  A    between atoms: C_16  and  C_17
    3  A    between atoms: C_24  and  C_28
    4  A    between atoms: N_25  and  C_27
                            x       y       z     vdW  Elec       q    Type
                         _______ _______ _______ _____ _____    ______ ____

>  <TORSDO>
F 4

$$$$
=
 OpenBabel11062416193D

 29 33  0  0  1  0  0  0  0  0999 V2000
  185.9260  178.2450  141.5240 C   0  0  0  0  0  3  0  0  0  0  0  0
  186.5920  178.1610  144.9790 N   0  0  0  0  0  0  0  0  0  0  0  0
  187.2410  178.6940  140.9520 C   0  0  0  0  0  2  0  0  0  0  0  0
  188.0310  178.0290  147.0290 C   0  0  0  0  0  3  0  0  0  0  0  0
  189.2610  177.5850  147.5430 C   0  0  0  0  0  3  0  0  0  0  0  0
  189.8960  176.7170  145.3510 C   0  0  0  0  0  3  0  0  0  0  0  0
  188.0860  177.0650  143.5070 C   0  0  2  0  0  3  0  0  0  0  0  0
  188.3380  177.6440  141.0980 C   0  0  2  0  0  3  0  0  0  0  0  0
  188.9420  177.7940  142.4880 C   0  0  0  0  0  2  0  0  0  0  0  0
  186.7790  177.7890  143.7490 C   0  0  0  0  0  0  0  0  0  0  0  0
  190.1980  176.9300  146.7100 C   0  0  0  0  0  0  0  0  0  0  0  0
  187.7690  177.8060  145.6800 C   0  0  0  0  0  0  0  0  0  0  0  0
  188.6720  177.1770  144.8660 C   0  0  0  0  0  0  0  0  0  0  0  0
  185.7460  177.9070  142.7670 N   0  0  0  0  0  0  0  0  0  0  0  0
  192.0680  177.1270  148.3300 O   0  0  0  0  0  1  0  0  0  0  0  0
  191.4830  176.4650  147.2570 C   0  0  0  0  0  0  0  0  0  0  0  0
  192.0630  175.4640  146.7590 O   0  0  0  0  0  0  0  0  0  0  0  0
  189.0530  179.0830  139.1980 C   0  0  0  0  0  1  0  0  0  0  0  0
  189.3930  177.8100  139.9840 C   0  0  2  0  0  3  0  0  0  0  0  0
  188.4610  175.3900  137.4160 C   0  0  1  0  0  3  0  0  0  0  0  0
  190.8780  176.3800  138.8040 C   0  0  0  0  0  2  0  0  0  0  0  0
  190.7710  175.4270  136.4870 N   0  0  0  0  0  2  0  0  0  0  0  0
  188.8240  176.8120  137.8260 C   0  0  1  0  0  3  0  0  0  0  0  0
  187.3790  176.4280  137.6080 C   0  0  0  0  0  2  0  0  0  0  0  0
  191.1280  175.1460  137.8940 C   0  0  0  0  0  2  0  0  0  0  0  0
  189.4520  176.6040  139.1280 N   0  0  0  0  0  0  0  0  0  0  0  0
  189.3330  175.2270  136.1770 C   0  0  1  0  0  3  0  0  0  0  0  0
  189.1320  173.8500  135.5690 C   0  0  0  0  0  2  0  0  0  0  0  0
  188.6580  172.8670  136.6240 C   0  0  0  0  0  1  0  0  0  0  0  0
  1 14  2  0  0  0  0
  2 12  1  0  0  0  0
  3  8  1  0  0  0  0
  3  1  1  0  0  0  0
  4  5  1  0  0  0  0
  6 11  1  0  0  0  0
  7  9  1  6  0  0  0
  7 10  1  0  0  0  0
  7 13  1  0  0  0  0
  8 19  1  6  0  0  0
  8  9  1  0  0  0  0
 10  2  2  0  0  0  0
 11 16  1  0  0  0  0
 11  5  2  0  0  0  0
 12  4  2  0  0  0  0
 13  6  2  0  0  0  0
 13 12  1  0  0  0  0
 14 10  1  0  0  0  0
 16 15  1  0  0  0  0
 17 16  2  0  0  0  0
 19 18  1  6  0  0  0
 20 24  1  6  0  0  0
 20 23  1  0  0  0  0
 21 26  1  0  0  0  0
 22 25  1  0  0  0  0
 23 24  1  1  0  0  0
 23 26  1  0  0  0  0
 25 21  1  0  0  0  0
 26 19  1  0  0  0  0
 27 28  1  1  0  0  0
 27 22  1  0  0  0  0
 27 20  1  0  0  0  0
 28 29  1  0  0  0  0
M  END
>  <MODEL>
6

>  <REMARK>
 VINA RESULT:      -9.4      1.898      2.798
  Name = 
  4 active torsions:
  status: ('A' for Active; 'I' for Inactive)
    1  A    between atoms: C_13  and  C_27
    2  A    between atoms: C_16  and  C_17
    3  A    between atoms: C_24  and  C_28
    4  A    between atoms: N_25  and  C_27
                            x       y       z     vdW  Elec       q    Type
                         _______ _______ _______ _____ _____    ______ ____

>  <TORSDO>
F 4

$$$$
=
 OpenBabel11062416193D

 29 33  0  0  1  0  0  0  0  0999 V2000
  191.5430  177.2020  140.4960 C   0  0  0  0  0  3  0  0  0  0  0  0
  189.7070  177.1390  143.4980 N   0  0  0  0  0  0  0  0  0  0  0  0
  190.5290  176.7430  139.4880 C   0  0  0  0  0  2  0  0  0  0  0  0
  187.6380  177.1580  144.9160 C   0  0  0  0  0  3  0  0  0  0  0  0
  186.2900  177.5520  144.9770 C   0  0  0  0  0  3  0  0  0  0  0  0
  186.4310  178.4870  142.7260 C   0  0  0  0  0  3  0  0  0  0  0  0
  188.7840  178.2530  141.6260 C   0  0  2  0  0  3  0  0  0  0  0  0
  189.4120  177.7590  139.2670 C   0  0  2  0  0  3  0  0  0  0  0  0
  188.3660  177.5420  140.3520 C   0  0  0  0  0  2  0  0  0  0  0  0
  189.9490  177.5530  142.2920 C   0  0  0  0  0  0  0  0  0  0  0  0
  185.6810  178.2160  143.8860 C   0  0  0  0  0  0  0  0  0  0  0  0
  188.3470  177.4390  143.7510 C   0  0  0  0  0  0  0  0  0  0  0  0
  187.7640  178.0750  142.6890 C   0  0  0  0  0  0  0  0  0  0  0  0
  191.2640  177.4970  141.7330 N   0  0  0  0  0  0  0  0  0  0  0  0
  183.7150  179.0160  145.1730 O   0  0  0  0  0  1  0  0  0  0  0  0
  184.2700  178.6280  143.9590 C   0  0  0  0  0  0  0  0  0  0  0  0
  183.5530  178.6330  142.9230 O   0  0  0  0  0  0  0  0  0  0  0  0
  188.7510  179.0070  137.2190 C   0  0  0  0  0  1  0  0  0  0  0  0
  188.8210  177.6100  137.8500 C   0  0  2  0  0  3  0  0  0  0  0  0
  185.1990  177.1780  137.9780 C   0  0  1  0  0  3  0  0  0  0  0  0
  187.6020  175.7550  137.0030 C   0  0  0  0  0  2  0  0  0  0  0  0
  185.2830  175.5830  136.0660 N   0  0  0  0  0  2  0  0  0  0  0  0
  186.4430  177.7370  137.2970 C   0  0  1  0  0  3  0  0  0  0  0  0
  185.5840  178.6280  138.1650 C   0  0  0  0  0  2  0  0  0  0  0  0
  186.2940  174.9230  136.9200 C   0  0  0  0  0  2  0  0  0  0  0  0
  187.5050  176.9320  137.8930 N   0  0  0  0  0  0  0  0  0  0  0  0
  184.4630  176.5990  136.7750 C   0  0  1  0  0  3  0  0  0  0  0  0
  183.1500  175.9740  137.2140 C   0  0  0  0  0  2  0  0  0  0  0  0
  183.0550  175.9420  138.7280 C   0  0  0  0  0  1  0  0  0  0  0  0
  1 14  2  0  0  0  0
  2 12  1  0  0  0  0
  3  1  1  0  0  0  0
  4  5  1  0  0  0  0
  6 11  1  0  0  0  0
  7  9  1  6  0  0  0
  7 10  1  0  0  0  0
  7 13  1  0  0  0  0
  8 19  1  6  0  0  0
  8  3  1  0  0  0  0
  8  9  1  0  0  0  0
 10  2  2  0  0  0  0
 11 16  1  0  0  0  0
 11  5  2  0  0  0  0
 12  4  2  0  0  0  0
 13  6  2  0  0  0  0
 13 12  1  0  0  0  0
 14 10  1  0  0  0  0
 16 15  1  0  0  0  0
 17 16  2  0  0  0  0
 19 18  1  1  0  0  0
 19 26  1  0  0  0  0
 20 24  1  6  0  0  0
 21 26  1  0  0  0  0
 22 27  1  0  0  0  0
 22 25  1  0  0  0  0
 23 26  1  0  0  0  0
 23 20  1  0  0  0  0
 23 24  1  1  0  0  0
 25 21  1  0  0  0  0
 27 28  1  1  0  0  0
 27 20  1  0  0  0  0
 28 29  1  0  0  0  0
M  END
>  <MODEL>
7

>  <REMARK>
 VINA RESULT:      -9.2      3.311      5.901
  Name = 
  4 active torsions:
  status: ('A' for Active; 'I' for Inactive)
    1  A    between atoms: C_13  and  C_27
    2  A    between atoms: C_16  and  C_17
    3  A    between atoms: C_24  and  C_28
    4  A    between atoms: N_25  and  C_27
                            x       y       z     vdW  Elec       q    Type
                         _______ _______ _______ _____ _____    ______ ____

>  <TORSDO>
F 4

$$$$
=
 OpenBabel11062416193D

 29 33  0  0  1  0  0  0  0  0999 V2000
  187.1610  178.2600  138.1490 C   0  0  0  0  0  3  0  0  0  0  0  0
  188.0430  177.7110  141.5120 N   0  0  0  0  0  0  0  0  0  0  0  0
  185.7210  177.8320  138.1180 C   0  0  0  0  0  2  0  0  0  0  0  0
  187.6250  177.3990  143.9650 C   0  0  0  0  0  3  0  0  0  0  0  0
  186.7410  177.6710  145.0240 C   0  0  0  0  0  3  0  0  0  0  0  0
  185.2420  178.8580  143.5070 C   0  0  0  0  0  3  0  0  0  0  0  0
  186.0800  178.9450  141.0390 C   0  0  2  0  0  3  0  0  0  0  0  0
  184.8090  178.7700  138.9040 C   0  0  2  0  0  3  0  0  0  0  0  0
  184.8580  178.3470  140.3660 C   0  0  0  0  0  2  0  0  0  0  0  0
  187.3520  178.2750  140.5680 C   0  0  0  0  0  0  0  0  0  0  0  0
  185.5490  178.3980  144.8020 C   0  0  0  0  0  0  0  0  0  0  0  0
  187.2860  177.8660  142.6980 C   0  0  0  0  0  0  0  0  0  0  0  0
  186.1310  178.5660  142.4730 C   0  0  0  0  0  0  0  0  0  0  0  0
  187.8630  178.3910  139.2360 N   0  0  0  0  0  0  0  0  0  0  0  0
  185.0760  178.5960  147.2300 O   0  0  0  0  0  1  0  0  0  0  0  0
  184.6310  178.6800  145.9160 C   0  0  0  0  0  0  0  0  0  0  0  0
  183.4330  179.0000  145.6900 O   0  0  0  0  0  0  0  0  0  0  0  0
  182.5940  179.9030  138.9410 C   0  0  0  0  0  1  0  0  0  0  0  0
  183.3770  178.7300  138.3340 C   0  0  2  0  0  3  0  0  0  0  0  0
  181.2180  176.2210  139.8710 C   0  0  1  0  0  3  0  0  0  0  0  0
  182.5170  176.7850  137.2740 C   0  0  0  0  0  2  0  0  0  0  0  0
  180.3930  175.5030  137.6330 N   0  0  0  0  0  2  0  0  0  0  0  0
  181.3970  177.5510  139.1500 C   0  0  1  0  0  3  0  0  0  0  0  0
  181.1860  177.5180  140.6460 C   0  0  0  0  0  2  0  0  0  0  0  0
  181.8400  175.3900  137.3560 C   0  0  0  0  0  2  0  0  0  0  0  0
  182.7400  177.4190  138.5920 N   0  0  0  0  0  0  0  0  0  0  0  0
  180.0610  175.6280  139.0750 C   0  0  1  0  0  3  0  0  0  0  0  0
  179.6870  174.2630  139.6290 C   0  0  0  0  0  2  0  0  0  0  0  0
  179.1850  174.3880  141.0560 C   0  0  0  0  0  1  0  0  0  0  0  0
  1 14  2  0  0  0  0
  2 12  1  0  0  0  0
  3  1  1  0  0  0  0
  3  8  1  0  0  0  0
  4  5  1  0  0  0  0
  6 11  1  0  0  0  0
  7  9  1  6  0  0  0
  7 13  1  0  0  0  0
  8 19  1  6  0  0  0
  8  9  1  0  0  0  0
 10  7  1  0  0  0  0
 10  2  2  0  0  0  0
 11  5  2  0  0  0  0
 11 16  1  0  0  0  0
 12  4  2  0  0  0  0
 13 12  1  0  0  0  0
 13  6  2  0  0  0  0
 14 10  1  0  0  0  0
 16 15  1  0  0  0  0
 17 16  2  0  0  0  0
 19 26  1  0  0  0  0
 19 18  1  1  0  0  0
 20 24  1  1  0  0  0
 21 25  1  0  0  0  0
 21 26  1  0  0  0  0
 22 27  1  0  0  0  0
 23 20  1  0  0  0  0
 23 24  1  1  0  0  0
 25 22  1  0  0  0  0
 26 23  1  0  0  0  0
 27 28  1  1  0  0  0
 27 20  1  0  0  0  0
 28 29  1  0  0  0  0
M  END
>  <MODEL>
8

>  <REMARK>
 VINA RESULT:      -9.0      4.239      7.004
  Name = 
  4 active torsions:
  status: ('A' for Active; 'I' for Inactive)
    1  A    between atoms: C_13  and  C_27
    2  A    between atoms: C_16  and  C_17
    3  A    between atoms: C_24  and  C_28
    4  A    between atoms: N_25  and  C_27
                            x       y       z     vdW  Elec       q    Type
                         _______ _______ _______ _____ _____    ______ ____

>  <TORSDO>
F 4

$$$$
=
 OpenBabel11062416193D

 29 33  0  0  1  0  0  0  0  0999 V2000
  184.0190  179.3070  142.5770 C   0  0  0  0  0  3  0  0  0  0  0  0
  185.8940  178.6720  139.6660 N   0  0  0  0  0  0  0  0  0  0  0  0
  184.5060  178.2380  143.5140 C   0  0  0  0  0  2  0  0  0  0  0  0
  187.8150  177.7610  138.3350 C   0  0  0  0  0  3  0  0  0  0  0  0
  189.1630  177.3660  138.3860 C   0  0  0  0  0  3  0  0  0  0  0  0
  189.2640  177.9090  140.7630 C   0  0  0  0  0  3  0  0  0  0  0  0
  187.0300  178.8390  141.7350 C   0  0  2  0  0  3  0  0  0  0  0  0
  185.9540  178.4460  143.9470 C   0  0  2  0  0  3  0  0  0  0  0  0
  186.8500  177.8480  142.8710 C   0  0  0  0  0  2  0  0  0  0  0  0
  185.7630  178.9800  140.9210 C   0  0  0  0  0  0  0  0  0  0  0  0
  189.8920  177.4360  139.5950 C   0  0  0  0  0  0  0  0  0  0  0  0
  187.2260  178.2180  139.5110 C   0  0  0  0  0  0  0  0  0  0  0  0
  187.9230  178.2840  140.6880 C   0  0  0  0  0  0  0  0  0  0  0  0
  184.5600  179.5700  141.4230 N   0  0  0  0  0  0  0  0  0  0  0  0
  192.1440  177.5020  140.6370 O   0  0  0  0  0  1  0  0  0  0  0  0
  191.3040  177.0240  139.6380 C   0  0  0  0  0  0  0  0  0  0  0  0
  191.7640  176.2330  138.7710 O   0  0  0  0  0  0  0  0  0  0  0  0
  185.2750  178.5000  146.3400 C   0  0  0  0  0  1  0  0  0  0  0  0
  186.1990  177.8070  145.3300 C   0  0  2  0  0  3  0  0  0  0  0  0
  189.1850  177.8680  147.4270 C   0  0  1  0  0  3  0  0  0  0  0  0
  188.3880  177.1630  144.6680 C   0  0  0  0  0  2  0  0  0  0  0  0
  190.2910  176.1790  145.9700 N   0  0  0  0  0  2  0  0  0  0  0  0
  187.9260  177.1640  146.9360 C   0  0  1  0  0  3  0  0  0  0  0  0
  187.9270  177.8830  148.2660 C   0  0  0  0  0  2  0  0  0  0  0  0
  189.9220  177.1420  144.9110 C   0  0  0  0  0  2  0  0  0  0  0  0
  187.6280  177.8930  145.7060 N   0  0  0  0  0  0  0  0  0  0  0  0
  190.1900  176.7250  147.3470 C   0  0  1  0  0  3  0  0  0  0  0  0
  191.5600  177.1960  147.8070 C   0  0  0  0  0  2  0  0  0  0  0  0
  192.4630  176.0090  148.0890 C   0  0  0  0  0  1  0  0  0  0  0  0
  1  3  1  0  0  0  0
  2 10  2  0  0  0  0
  3  8  1  0  0  0  0
  4  5  2  0  0  0  0
  4 12  1  0  0  0  0
  5 11  1  0  0  0  0
  7  9  1  1  0  0  0
  8 19  1  1  0  0  0
  9  8  1  0  0  0  0
 10 14  1  0  0  0  0
 10  7  1  0  0  0  0
 11 16  1  0  0  0  0
 11  6  2  0  0  0  0
 12  2  1  0  0  0  0
 12 13  2  0  0  0  0
 13  6  1  0  0  0  0
 13  7  1  0  0  0  0
 14  1  2  0  0  0  0
 16 15  1  0  0  0  0
 17 16  2  0  0  0  0
 19 26  1  0  0  0  0
 19 18  1  1  0  0  0
 20 24  1  1  0  0  0
 21 25  1  0  0  0  0
 21 26  1  0  0  0  0
 22 27  1  0  0  0  0
 23 20  1  0  0  0  0
 23 24  1  1  0  0  0
 25 22  1  0  0  0  0
 26 23  1  0  0  0  0
 27 20  1  0  0  0  0
 27 28  1  6  0  0  0
 28 29  1  0  0  0  0
M  END
>  <MODEL>
9

>  <REMARK>
 VINA RESULT:      -9.0      2.306      6.564
  Name = 
  4 active torsions:
  status: ('A' for Active; 'I' for Inactive)
    1  A    between atoms: C_13  and  C_27
    2  A    between atoms: C_16  and  C_17
    3  A    between atoms: C_24  and  C_28
    4  A    between atoms: N_25  and  C_27
                            x       y       z     vdW  Elec       q    Type
                         _______ _______ _______ _____ _____    ______ ____

>  <TORSDO>
F 4

$$$$
