=
 OpenBabel11062412203D

 43 47  0  0  1  0  0  0  0  0999 V2000
  183.3350  177.1470  138.4720 N   0  0  0  0  0  1  0  0  0  0  0  0
  183.5390  178.5870  138.5790 C   0  0  2  0  0  3  0  0  0  0  0  0
  184.8470  178.5680  140.6630 N   0  0  0  0  0  0  0  0  0  0  0  0
  184.8710  178.9220  139.2460 C   0  0  1  0  0  3  0  0  0  0  0  0
  183.7600  178.5210  141.3720 C   0  0  0  0  0  0  0  0  0  0  0  0
  182.4000  178.7490  140.7380 C   0  0  1  0  0  3  0  0  0  0  0  0
  182.4540  179.2110  139.3390 N   0  0  0  0  0  2  0  0  0  0  0  0
  181.6270  177.6030  140.8280 F   0  0  0  0  0  0  0  0  0  0  0  0
  183.8640  178.2000  142.7260 O   0  0  0  0  0  0  0  0  0  0  0  0
  183.4550  179.0910  143.7540 C   0  0  0  0  0  2  0  0  0  0  0  0
  184.6500  179.4600  144.6080 C   0  0  0  0  0  2  0  0  0  0  0  0
  184.6030  178.6530  145.8950 C   0  0  0  0  0  2  0  0  0  0  0  0
  185.9450  177.9830  146.1610 C   0  0  0  0  0  2  0  0  0  0  0  0
  186.6120  178.5140  147.4300 C   0  0  0  0  0  2  0  0  0  0  0  0
  188.0310  177.9750  147.5960 C   0  0  0  0  0  2  0  0  0  0  0  0
  188.4860  177.1880  146.3750 C   0  0  0  0  0  2  0  0  0  0  0  0
  189.4160  177.9760  145.5750 N   0  0  0  0  0  2  0  0  0  0  0  0
  191.2260  178.3570  143.0340 C   0  0  0  0  0  2  0  0  0  0  0  0
  190.7810  176.4400  144.3110 C   0  0  0  0  0  2  0  0  0  0  0  0
  191.7210  176.9570  143.2710 C   0  0  0  0  0  2  0  0  0  0  0  0
  189.8460  178.3850  143.2880 O   0  0  0  0  0  0  0  0  0  0  0  0
  189.5900  177.3780  144.2470 C   0  0  2  0  0  0  0  0  0  0  0  0
  187.3790  177.3890  142.9930 C   0  0  0  0  0  1  0  0  0  0  0  0
  188.3330  176.5830  143.8650 C   0  0  0  0  0  2  0  0  0  0  0  0
  186.0550  178.2760  138.5390 C   0  0  0  0  0  2  0  0  0  0  0  0
  187.2730  178.2810  139.4480 C   0  0  0  0  0  2  0  0  0  0  0  0
  194.3610  175.2600  137.1900 P   0  0  1  0  0  0  0  0  0  0  0  0
  194.8180  176.4320  136.0570 O   0  0  0  0  0  0  0  0  0  0  0  0
  190.0350  174.7450  136.4630 C   0  0  0  0  0  3  0  0  0  0  0  0
  189.8640  177.1760  137.0300 C   0  0  1  0  0  3  0  0  0  0  0  0
  191.0230  176.9680  138.0190 C   0  0  1  0  0  3  0  0  0  0  0  0
  189.3310  175.8890  136.4500 C   0  0  0  0  0  3  0  0  0  0  0  0
  188.7540  178.0130  137.6670 C   0  0  0  0  0  2  0  0  0  0  0  0
  189.4010  177.4300  139.8660 C   0  0  0  0  0  2  0  0  0  0  0  0
  193.1680  175.8790  138.2190 O   0  0  0  0  0  0  0  0  0  0  0  0
  190.5140  176.5030  139.3900 C   0  0  0  0  0  2  0  0  0  0  0  0
  192.0280  175.9850  137.4120 C   0  0  1  0  0  3  0  0  0  0  0  0
  191.8430  172.5930  135.8840 N   0  0  0  0  0  2  0  0  0  0  0  0
  193.6830  173.9040  136.3890 O   0  0  0  0  0  0  0  0  0  0  0  0
  195.5640  174.8290  137.9970 O   0  0  0  0  0  1  0  0  0  0  0  0
  191.3730  174.6110  137.1580 C   0  0  2  0  0  3  0  0  0  0  0  0
  188.2930  177.4000  138.9110 N   0  0  0  0  0  0  0  0  0  0  0  0
  192.3040  173.6770  136.4160 C   0  0  0  0  0  0  0  0  0  0  0  0
  2  1  1  1  0  0  0
  2  4  1  0  0  0  0
  2  7  1  0  0  0  0
  3  5  2  0  0  0  0
  4 25  1  6  0  0  0
  4  3  1  0  0  0  0
  5  9  1  0  0  0  0
  6  8  1  6  0  0  0
  6  5  1  0  0  0  0
  7  6  1  0  0  0  0
  9 10  1  0  0  0  0
 10 11  1  0  0  0  0
 11 12  1  0  0  0  0
 12 13  1  0  0  0  0
 13 14  1  0  0  0  0
 14 15  1  0  0  0  0
 16 15  1  0  0  0  0
 17 16  1  0  0  0  0
 18 20  1  0  0  0  0
 18 21  1  0  0  0  0
 20 19  1  0  0  0  0
 21 22  1  0  0  0  0
 22 24  1  6  0  0  0
 22 19  1  0  0  0  0
 22 17  1  0  0  0  0
 23 24  1  0  0  0  0
 25 26  1  0  0  0  0
 27 28  2  6  0  0  0
 27 40  1  0  0  0  0
 27 35  1  0  0  0  0
 30 32  1  1  0  0  0
 30 33  1  0  0  0  0
 30 31  1  0  0  0  0
 31 36  1  1  0  0  0
 32 29  2  0  0  0  0
 33 42  1  0  0  0  0
 36 34  1  0  0  0  0
 37 31  1  0  0  0  0
 37 35  1  1  0  0  0
 38 43  2  0  0  0  0
 39 43  1  0  0  0  0
 39 27  1  0  0  0  0
 41 29  1  6  0  0  0
 41 37  1  0  0  0  0
 42 26  1  0  0  0  0
 42 34  1  0  0  0  0
 43 41  1  0  0  0  0
M  END
>  <MODEL>
1

>  <REMARK>
 VINA RESULT:      -8.1      0.000      0.000
  Name = 
  14 active torsions:
  status: ('A' for Active; 'I' for Inactive)
    1  A    between atoms: N_4  and  C_21
    2  A    between atoms: N_4  and  C_22
    3  A    between atoms: C_14  and  C_30
    4  A    between atoms: C_14  and  C_40
    5  A    between atoms: O_15  and  C_23
    6  A    between atoms: O_15  and  C_40
    7  A    between atoms: C_16  and  C_29
    8  A    between atoms: C_21  and  C_39
    9  A    between atoms: C_22  and  C_28
   10  A    between atoms: C_26  and  C_29
   11  A    between atoms: C_26  and  N_42
   12  A    between atoms: C_28  and  C_38
   13  A    between atoms: C_30  and  C_34
   14  A    between atoms: C_34  and  C_38
                            x       y       z     vdW  Elec       q    Type
                         _______ _______ _______ _____ _____    ______ ____

>  <TORSDO>
F 14

$$$$
=
 OpenBabel11062412203D

 43 47  0  0  1  0  0  0  0  0999 V2000
  189.0580  179.4190  138.0830 N   0  0  0  0  0  1  0  0  0  0  0  0
  188.6920  178.6330  139.2560 C   0  0  2  0  0  3  0  0  0  0  0  0
  189.0790  176.4080  138.2810 N   0  0  0  0  0  0  0  0  0  0  0  0
  189.4860  177.3320  139.3360 C   0  0  1  0  0  3  0  0  0  0  0  0
  187.9000  176.4170  137.7360 C   0  0  0  0  0  0  0  0  0  0  0  0
  186.8730  177.4700  138.1060 C   0  0  1  0  0  3  0  0  0  0  0  0
  187.2610  178.3200  139.2460 N   0  0  0  0  0  2  0  0  0  0  0  0
  186.5740  178.2600  137.0070 F   0  0  0  0  0  0  0  0  0  0  0  0
  187.6160  175.4640  136.7560 O   0  0  0  0  0  0  0  0  0  0  0  0
  186.8100  174.3230  137.0150 C   0  0  0  0  0  2  0  0  0  0  0  0
  185.4260  174.5410  136.4400 C   0  0  0  0  0  2  0  0  0  0  0  0
  184.4010  174.3980  137.5530 C   0  0  0  0  0  2  0  0  0  0  0  0
  183.5820  175.6740  137.7000 C   0  0  0  0  0  2  0  0  0  0  0  0
  182.1080  175.4550  137.3610 C   0  0  0  0  0  2  0  0  0  0  0  0
  181.2320  175.4430  138.6120 C   0  0  0  0  0  2  0  0  0  0  0  0
  181.9220  176.1070  139.7950 C   0  0  0  0  0  2  0  0  0  0  0  0
  181.2410  177.3440  140.1560 N   0  0  0  0  0  2  0  0  0  0  0  0
  182.5250  178.8050  142.6260 C   0  0  0  0  0  2  0  0  0  0  0  0
  183.5330  177.7540  140.7860 C   0  0  0  0  0  2  0  0  0  0  0  0
  183.8510  178.2840  142.1470 C   0  0  0  0  0  2  0  0  0  0  0  0
  181.7810  179.2070  141.5060 O   0  0  0  0  0  0  0  0  0  0  0  0
  182.2140  178.4090  140.4210 C   0  0  2  0  0  0  0  0  0  0  0  0
  183.8430  179.7300  138.9840 C   0  0  0  0  0  1  0  0  0  0  0  0
  182.4010  179.2700  139.1640 C   0  0  0  0  0  2  0  0  0  0  0  0
  190.9900  177.5650  139.3120 C   0  0  0  0  0  2  0  0  0  0  0  0
  191.6020  177.1730  140.6470 C   0  0  0  0  0  2  0  0  0  0  0  0
  188.1900  177.6320  147.9010 P   0  0  1  0  0  0  0  0  0  0  0  0
  188.2850  176.0050  148.3600 O   0  0  0  0  0  0  0  0  0  0  0  0
  187.1140  177.4410  143.6210 C   0  0  0  0  0  3  0  0  0  0  0  0
  189.2620  176.1830  143.3540 C   0  0  1  0  0  3  0  0  0  0  0  0
  189.8420  177.0490  144.4840 C   0  0  1  0  0  3  0  0  0  0  0  0
  187.9040  176.6440  142.8820 C   0  0  0  0  0  3  0  0  0  0  0  0
  190.2540  176.0680  142.1970 C   0  0  0  0  0  2  0  0  0  0  0  0
  191.3690  178.0690  142.7860 C   0  0  0  0  0  2  0  0  0  0  0  0
  189.2890  177.9500  146.6540 O   0  0  0  0  0  0  0  0  0  0  0  0
  190.4210  178.3630  143.9430 C   0  0  0  0  0  2  0  0  0  0  0  0
  188.7590  177.2870  145.5400 C   0  0  1  0  0  3  0  0  0  0  0  0
  185.2390  178.5040  145.5150 N   0  0  0  0  0  2  0  0  0  0  0  0
  186.6230  177.9790  147.2940 O   0  0  0  0  0  0  0  0  0  0  0  0
  188.4850  178.5200  149.0880 O   0  0  0  0  0  1  0  0  0  0  0  0
  187.5560  178.0440  144.9380 C   0  0  2  0  0  3  0  0  0  0  0  0
  190.6410  177.3910  141.7130 N   0  0  0  0  0  0  0  0  0  0  0  0
  186.4120  178.1480  145.9230 C   0  0  0  0  0  0  0  0  0  0  0  0
  2  1  1  6  0  0  0
  2  4  1  0  0  0  0
  3  4  1  0  0  0  0
  4 25  1  6  0  0  0
  5  6  1  0  0  0  0
  5  3  2  0  0  0  0
  6  8  1  6  0  0  0
  6  7  1  0  0  0  0
  7  2  1  0  0  0  0
  9 10  1  0  0  0  0
  9  5  1  0  0  0  0
 11 10  1  0  0  0  0
 11 12  1  0  0  0  0
 12 13  1  0  0  0  0
 14 13  1  0  0  0  0
 14 15  1  0  0  0  0
 15 16  1  0  0  0  0
 16 17  1  0  0  0  0
 17 22  1  0  0  0  0
 19 20  1  0  0  0  0
 20 18  1  0  0  0  0
 21 18  1  0  0  0  0
 22 24  1  6  0  0  0
 22 19  1  0  0  0  0
 22 21  1  0  0  0  0
 23 24  1  0  0  0  0
 25 26  1  0  0  0  0
 26 42  1  0  0  0  0
 27 28  2  1  0  0  0
 27 40  1  0  0  0  0
 30 33  1  6  0  0  0
 30 31  1  0  0  0  0
 31 36  1  6  0  0  0
 31 37  1  0  0  0  0
 32 30  1  0  0  0  0
 32 29  2  0  0  0  0
 34 36  1  0  0  0  0
 35 27  1  0  0  0  0
 37 35  1  1  0  0  0
 38 43  2  0  0  0  0
 39 27  1  0  0  0  0
 41 29  1  6  0  0  0
 41 37  1  0  0  0  0
 41 43  1  0  0  0  0
 42 33  1  0  0  0  0
 42 34  1  0  0  0  0
 43 39  1  0  0  0  0
M  END
>  <MODEL>
2

>  <REMARK>
 VINA RESULT:      -7.9      3.671      8.562
  Name = 
  14 active torsions:
  status: ('A' for Active; 'I' for Inactive)
    1  A    between atoms: N_4  and  C_21
    2  A    between atoms: N_4  and  C_22
    3  A    between atoms: C_14  and  C_30
    4  A    between atoms: C_14  and  C_40
    5  A    between atoms: O_15  and  C_23
    6  A    between atoms: O_15  and  C_40
    7  A    between atoms: C_16  and  C_29
    8  A    between atoms: C_21  and  C_39
    9  A    between atoms: C_22  and  C_28
   10  A    between atoms: C_26  and  C_29
   11  A    between atoms: C_26  and  N_42
   12  A    between atoms: C_28  and  C_38
   13  A    between atoms: C_30  and  C_34
   14  A    between atoms: C_34  and  C_38
                            x       y       z     vdW  Elec       q    Type
                         _______ _______ _______ _____ _____    ______ ____

>  <TORSDO>
F 14

$$$$
=
 OpenBabel11062412203D

 43 47  0  0  1  0  0  0  0  0999 V2000
  184.9430  175.8510  137.6780 N   0  0  0  0  0  1  0  0  0  0  0  0
  184.8370  177.0490  136.8540 C   0  0  2  0  0  3  0  0  0  0  0  0
  186.0970  178.5610  138.3310 N   0  0  0  0  0  0  0  0  0  0  0  0
  186.0620  177.9490  137.0050 C   0  0  1  0  0  3  0  0  0  0  0  0
  185.0360  178.7820  139.0470 C   0  0  0  0  0  0  0  0  0  0  0  0
  183.6660  178.3260  138.5800 C   0  0  1  0  0  3  0  0  0  0  0  0
  183.6360  177.8140  137.1990 N   0  0  0  0  0  2  0  0  0  0  0  0
  183.1510  177.3770  139.4480 F   0  0  0  0  0  0  0  0  0  0  0  0
  185.1910  179.4020  140.2880 O   0  0  0  0  0  0  0  0  0  0  0  0
  185.5320  178.6800  141.4630 C   0  0  0  0  0  2  0  0  0  0  0  0
  184.9450  179.3770  142.6720 C   0  0  0  0  0  2  0  0  0  0  0  0
  184.4640  178.3270  143.6610 C   0  0  0  0  0  2  0  0  0  0  0  0
  184.5870  178.8360  145.0910 C   0  0  0  0  0  2  0  0  0  0  0  0
  185.9800  178.5960  145.6710 C   0  0  0  0  0  2  0  0  0  0  0  0
  186.6430  177.3600  145.0660 C   0  0  0  0  0  2  0  0  0  0  0  0
  187.9950  177.6860  144.4480 C   0  0  0  0  0  2  0  0  0  0  0  0
  188.9380  176.5980  144.6780 N   0  0  0  0  0  2  0  0  0  0  0  0
  191.5000  177.4850  143.0860 C   0  0  0  0  0  2  0  0  0  0  0  0
  190.2460  178.6260  144.7090 C   0  0  0  0  0  2  0  0  0  0  0  0
  191.2920  178.8570  143.6670 C   0  0  0  0  0  2  0  0  0  0  0  0
  191.2250  176.5390  144.0850 O   0  0  0  0  0  0  0  0  0  0  0  0
  190.2780  177.1290  144.9540 C   0  0  2  0  0  0  0  0  0  0  0  0
  189.6090  177.3880  147.3930 C   0  0  0  0  0  1  0  0  0  0  0  0
  190.6540  176.8590  146.4180 C   0  0  0  0  0  2  0  0  0  0  0  0
  187.3620  177.2190  136.7030 C   0  0  0  0  0  2  0  0  0  0  0  0
  188.2890  177.2810  137.9060 C   0  0  0  0  0  2  0  0  0  0  0  0
  195.8140  174.8790  136.4690 P   0  0  1  0  0  0  0  0  0  0  0  0
  196.0460  175.5760  134.9440 O   0  0  0  0  0  0  0  0  0  0  0  0
  191.6580  173.3890  136.3100 C   0  0  0  0  0  3  0  0  0  0  0  0
  191.0400  175.7820  135.9140 C   0  0  1  0  0  3  0  0  0  0  0  0
  192.2170  176.1770  136.8200 C   0  0  1  0  0  3  0  0  0  0  0  0
  190.7550  174.3000  135.9110 C   0  0  0  0  0  3  0  0  0  0  0  0
  189.7930  176.5970  136.2610 C   0  0  0  0  0  2  0  0  0  0  0  0
  190.5380  177.0370  138.4630 C   0  0  0  0  0  2  0  0  0  0  0  0
  194.5270  175.6360  137.2660 O   0  0  0  0  0  0  0  0  0  0  0  0
  191.8040  176.2030  138.2980 C   0  0  0  0  0  2  0  0  0  0  0  0
  193.3880  175.2220  136.5660 C   0  0  1  0  0  3  0  0  0  0  0  0
  193.8350  171.5250  136.4690 N   0  0  0  0  0  2  0  0  0  0  0  0
  195.3990  173.2230  136.3000 O   0  0  0  0  0  0  0  0  0  0  0  0
  197.0760  175.0080  137.2910 O   0  0  0  0  0  1  0  0  0  0  0  0
  192.9990  173.7680  136.9050 C   0  0  2  0  0  3  0  0  0  0  0  0
  189.4550  176.4490  137.6740 N   0  0  0  0  0  0  0  0  0  0  0  0
  194.0870  172.7920  136.5110 C   0  0  0  0  0  0  0  0  0  0  0  0
  2  4  1  0  0  0  0
  2  7  1  0  0  0  0
  2  1  1  1  0  0  0
  3  5  2  0  0  0  0
  4 25  1  1  0  0  0
  4  3  1  0  0  0  0
  5  9  1  0  0  0  0
  6  5  1  0  0  0  0
  6  8  1  1  0  0  0
  7  6  1  0  0  0  0
  9 10  1  0  0  0  0
 10 11  1  0  0  0  0
 11 12  1  0  0  0  0
 12 13  1  0  0  0  0
 13 14  1  0  0  0  0
 15 14  1  0  0  0  0
 16 17  1  0  0  0  0
 16 15  1  0  0  0  0
 17 22  1  0  0  0  0
 18 20  1  0  0  0  0
 18 21  1  0  0  0  0
 19 22  1  0  0  0  0
 20 19  1  0  0  0  0
 21 22  1  0  0  0  0
 22 24  1  1  0  0  0
 24 23  1  0  0  0  0
 25 26  1  0  0  0  0
 27 28  2  6  0  0  0
 27 35  1  0  0  0  0
 27 40  1  0  0  0  0
 30 32  1  1  0  0  0
 30 33  1  0  0  0  0
 30 31  1  0  0  0  0
 31 36  1  1  0  0  0
 32 29  2  0  0  0  0
 33 42  1  0  0  0  0
 36 34  1  0  0  0  0
 37 31  1  0  0  0  0
 37 41  1  0  0  0  0
 37 35  1  1  0  0  0
 38 43  2  0  0  0  0
 39 27  1  0  0  0  0
 39 43  1  0  0  0  0
 41 29  1  6  0  0  0
 42 26  1  0  0  0  0
 42 34  1  0  0  0  0
 43 41  1  0  0  0  0
M  END
>  <MODEL>
3

>  <REMARK>
 VINA RESULT:      -7.5      1.609      2.317
  Name = 
  14 active torsions:
  status: ('A' for Active; 'I' for Inactive)
    1  A    between atoms: N_4  and  C_21
    2  A    between atoms: N_4  and  C_22
    3  A    between atoms: C_14  and  C_30
    4  A    between atoms: C_14  and  C_40
    5  A    between atoms: O_15  and  C_23
    6  A    between atoms: O_15  and  C_40
    7  A    between atoms: C_16  and  C_29
    8  A    between atoms: C_21  and  C_39
    9  A    between atoms: C_22  and  C_28
   10  A    between atoms: C_26  and  C_29
   11  A    between atoms: C_26  and  N_42
   12  A    between atoms: C_28  and  C_38
   13  A    between atoms: C_30  and  C_34
   14  A    between atoms: C_34  and  C_38
                            x       y       z     vdW  Elec       q    Type
                         _______ _______ _______ _____ _____    ______ ____

>  <TORSDO>
F 14

$$$$
=
 OpenBabel11062412203D

 43 47  0  0  1  0  0  0  0  0999 V2000
  191.0090  175.2760  138.3720 N   0  0  0  0  0  1  0  0  0  0  0  0
  190.8250  176.4230  137.4900 C   0  0  2  0  0  3  0  0  0  0  0  0
  188.4050  176.7030  137.8320 N   0  0  0  0  0  0  0  0  0  0  0  0
  189.7100  177.3420  137.9810 C   0  0  1  0  0  3  0  0  0  0  0  0
  188.1510  175.7910  136.9420 C   0  0  0  0  0  0  0  0  0  0  0  0
  189.2430  175.2540  136.0360 C   0  0  1  0  0  3  0  0  0  0  0  0
  190.5190  175.9860  136.1260 N   0  0  0  0  0  2  0  0  0  0  0  0
  189.4530  173.9060  136.2800 F   0  0  0  0  0  0  0  0  0  0  0  0
  186.8560  175.2740  136.8740 O   0  0  0  0  0  0  0  0  0  0  0  0
  186.5540  173.9300  137.2220 C   0  0  0  0  0  2  0  0  0  0  0  0
  185.0780  173.6710  137.0010 C   0  0  0  0  0  2  0  0  0  0  0  0
  184.7030  174.1230  135.5990 C   0  0  0  0  0  2  0  0  0  0  0  0
  183.5280  175.0910  135.6410 C   0  0  0  0  0  2  0  0  0  0  0  0
  183.9790  176.5490  135.5550 C   0  0  0  0  0  2  0  0  0  0  0  0
  183.3610  177.4030  136.6600 C   0  0  0  0  0  2  0  0  0  0  0  0
  183.9360  177.0640  138.0280 C   0  0  0  0  0  2  0  0  0  0  0  0
  184.8730  178.0950  138.4580 N   0  0  0  0  0  2  0  0  0  0  0  0
  182.7760  180.4120  138.8020 C   0  0  0  0  0  2  0  0  0  0  0  0
  182.9270  178.3260  139.8660 C   0  0  0  0  0  2  0  0  0  0  0  0
  181.9780  179.4600  139.6500 C   0  0  0  0  0  2  0  0  0  0  0  0
  184.1350  180.2420  139.1120 O   0  0  0  0  0  0  0  0  0  0  0  0
  184.2910  178.9020  139.5360 C   0  0  2  0  0  0  0  0  0  0  0  0
  184.3910  178.6160  142.0600 C   0  0  0  0  0  1  0  0  0  0  0  0
  185.1880  178.8360  140.7800 C   0  0  0  0  0  2  0  0  0  0  0  0
  189.9300  177.8130  139.4110 C   0  0  0  0  0  2  0  0  0  0  0  0
  188.6100  178.2390  140.0310 C   0  0  0  0  0  2  0  0  0  0  0  0
  191.1510  176.6120  147.4720 P   0  0  1  0  0  0  0  0  0  0  0  0
  191.1330  174.9200  147.4110 O   0  0  0  0  0  0  0  0  0  0  0  0
  187.4920  177.7670  145.2830 C   0  0  0  0  0  3  0  0  0  0  0  0
  188.5270  176.5670  143.3450 C   0  0  1  0  0  3  0  0  0  0  0  0
  189.8980  177.0280  143.8660 C   0  0  1  0  0  3  0  0  0  0  0  0
  187.3650  177.2010  144.0710 C   0  0  0  0  0  3  0  0  0  0  0  0
  188.4270  176.7690  141.8330 C   0  0  0  0  0  2  0  0  0  0  0  0
  190.0870  178.4540  141.8200 C   0  0  0  0  0  2  0  0  0  0  0  0
  191.1720  177.2500  145.9040 O   0  0  0  0  0  0  0  0  0  0  0  0
  190.2610  178.4200  143.3340 C   0  0  0  0  0  2  0  0  0  0  0  0
  189.8960  176.9760  145.3960 C   0  0  1  0  0  3  0  0  0  0  0  0
  187.6890  178.2790  148.1000 N   0  0  0  0  0  2  0  0  0  0  0  0
  189.7250  177.1860  148.2320 O   0  0  0  0  0  0  0  0  0  0  0  0
  192.3650  177.0860  148.2370 O   0  0  0  0  0  1  0  0  0  0  0  0
  188.8280  177.9250  145.9800 C   0  0  2  0  0  3  0  0  0  0  0  0
  188.6950  178.1610  141.4780 N   0  0  0  0  0  0  0  0  0  0  0  0
  188.7030  177.7710  147.4800 C   0  0  0  0  0  0  0  0  0  0  0  0
  2  4  1  0  0  0  0
  2  1  1  1  0  0  0
  3  4  1  0  0  0  0
  4 25  1  1  0  0  0
  5  3  2  0  0  0  0
  6  7  1  0  0  0  0
  6  8  1  1  0  0  0
  6  5  1  0  0  0  0
  7  2  1  0  0  0  0
  9  5  1  0  0  0  0
  9 10  1  0  0  0  0
 11 10  1  0  0  0  0
 12 13  1  0  0  0  0
 12 11  1  0  0  0  0
 14 13  1  0  0  0  0
 14 15  1  0  0  0  0
 15 16  1  0  0  0  0
 16 17  1  0  0  0  0
 17 22  1  0  0  0  0
 18 21  1  0  0  0  0
 18 20  1  0  0  0  0
 20 19  1  0  0  0  0
 21 22  1  0  0  0  0
 22 19  1  0  0  0  0
 22 24  1  1  0  0  0
 24 23  1  0  0  0  0
 25 26  1  0  0  0  0
 26 42  1  0  0  0  0
 27 28  2  6  0  0  0
 27 39  1  0  0  0  0
 27 40  1  0  0  0  0
 30 33  1  6  0  0  0
 30 31  1  0  0  0  0
 30 32  1  0  0  0  0
 31 36  1  1  0  0  0
 31 37  1  0  0  0  0
 32 29  2  0  0  0  0
 34 36  1  0  0  0  0
 35 27  1  0  0  0  0
 37 35  1  1  0  0  0
 37 41  1  0  0  0  0
 41 29  1  6  0  0  0
 41 43  1  0  0  0  0
 42 34  1  0  0  0  0
 42 33  1  0  0  0  0
 43 38  2  0  0  0  0
 43 39  1  0  0  0  0
M  END
>  <MODEL>
4

>  <REMARK>
 VINA RESULT:      -7.1      3.695      8.733
  Name = 
  14 active torsions:
  status: ('A' for Active; 'I' for Inactive)
    1  A    between atoms: N_4  and  C_21
    2  A    between atoms: N_4  and  C_22
    3  A    between atoms: C_14  and  C_30
    4  A    between atoms: C_14  and  C_40
    5  A    between atoms: O_15  and  C_23
    6  A    between atoms: O_15  and  C_40
    7  A    between atoms: C_16  and  C_29
    8  A    between atoms: C_21  and  C_39
    9  A    between atoms: C_22  and  C_28
   10  A    between atoms: C_26  and  C_29
   11  A    between atoms: C_26  and  N_42
   12  A    between atoms: C_28  and  C_38
   13  A    between atoms: C_30  and  C_34
   14  A    between atoms: C_34  and  C_38
                            x       y       z     vdW  Elec       q    Type
                         _______ _______ _______ _____ _____    ______ ____

>  <TORSDO>
F 14

$$$$
=
 OpenBabel11062412203D

 43 47  0  0  1  0  0  0  0  0999 V2000
  186.5370  176.2390  137.2580 N   0  0  0  0  0  1  0  0  0  0  0  0
  187.3440  177.4440  137.1030 C   0  0  2  0  0  3  0  0  0  0  0  0
  188.2000  177.5510  139.4070 N   0  0  0  0  0  0  0  0  0  0  0  0
  188.5780  177.4190  138.0030 C   0  0  1  0  0  3  0  0  0  0  0  0
  187.1180  178.1490  139.8060 C   0  0  0  0  0  0  0  0  0  0  0  0
  186.1060  178.6840  138.8100 C   0  0  1  0  0  3  0  0  0  0  0  0
  186.5550  178.6410  137.4070 N   0  0  0  0  0  2  0  0  0  0  0  0
  184.9000  178.0160  138.9420 F   0  0  0  0  0  0  0  0  0  0  0  0
  186.8780  178.2410  141.1780 O   0  0  0  0  0  0  0  0  0  0  0  0
  185.8690  179.0800  141.7200 C   0  0  0  0  0  2  0  0  0  0  0  0
  184.6850  178.2380  142.1460 C   0  0  0  0  0  2  0  0  0  0  0  0
  183.9710  178.9360  143.2920 C   0  0  0  0  0  2  0  0  0  0  0  0
  184.9710  179.4360  144.3270 C   0  0  0  0  0  2  0  0  0  0  0  0
  184.8810  178.6570  145.6380 C   0  0  0  0  0  2  0  0  0  0  0  0
  186.2620  178.2760  146.1700 C   0  0  0  0  0  2  0  0  0  0  0  0
  187.1950  177.8250  145.0560 C   0  0  0  0  0  2  0  0  0  0  0  0
  188.5790  177.8360  145.5120 N   0  0  0  0  0  2  0  0  0  0  0  0
  190.9120  179.2410  143.9410 C   0  0  0  0  0  2  0  0  0  0  0  0
  190.8300  177.1430  144.9890 C   0  0  0  0  0  2  0  0  0  0  0  0
  191.8000  178.1240  144.4150 C   0  0  0  0  0  2  0  0  0  0  0  0
  189.6650  178.6940  143.5970 O   0  0  0  0  0  0  0  0  0  0  0  0
  189.4900  177.5430  144.4000 C   0  0  2  0  0  0  0  0  0  0  0  0
  190.0360  175.5530  142.9150 C   0  0  0  0  0  1  0  0  0  0  0  0
  188.9340  176.3850  143.5610 C   0  0  0  0  0  2  0  0  0  0  0  0
  189.4360  176.1820  137.7790 C   0  0  0  0  0  2  0  0  0  0  0  0
  190.3870  176.4100  136.6160 C   0  0  0  0  0  2  0  0  0  0  0  0
  198.1230  174.4520  137.5090 P   0  0  1  0  0  0  0  0  0  0  0  0
  198.7110  174.9330  135.9960 O   0  0  0  0  0  0  0  0  0  0  0  0
  194.2170  172.6170  136.5680 C   0  0  0  0  0  3  0  0  0  0  0  0
  193.6210  174.8650  135.6440 C   0  0  1  0  0  3  0  0  0  0  0  0
  194.5060  175.4860  136.7370 C   0  0  1  0  0  3  0  0  0  0  0  0
  193.4090  173.3800  135.8140 C   0  0  0  0  0  3  0  0  0  0  0  0
  192.2940  175.6170  135.5310 C   0  0  0  0  0  2  0  0  0  0  0  0
  192.4250  176.4380  137.7460 C   0  0  0  0  0  2  0  0  0  0  0  0
  196.6430  175.2100  137.8250 O   0  0  0  0  0  0  0  0  0  0  0  0
  193.7240  175.6960  138.0400 C   0  0  0  0  0  2  0  0  0  0  0  0
  195.7420  174.6040  136.9410 C   0  0  1  0  0  3  0  0  0  0  0  0
  196.3550  170.9840  137.5680 N   0  0  0  0  0  2  0  0  0  0  0  0
  197.8370  172.7610  137.5160 O   0  0  0  0  0  0  0  0  0  0  0  0
  199.1230  174.8060  138.5860 O   0  0  0  0  0  1  0  0  0  0  0  0
  195.3400  173.1890  137.4070 C   0  0  2  0  0  3  0  0  0  0  0  0
  191.6080  175.6520  136.8210 N   0  0  0  0  0  0  0  0  0  0  0  0
  196.5330  172.2590  137.4620 C   0  0  0  0  0  0  0  0  0  0  0  0
  2  1  1  1  0  0  0
  2  7  1  0  0  0  0
  2  4  1  0  0  0  0
  3  5  2  0  0  0  0
  4 25  1  1  0  0  0
  4  3  1  0  0  0  0
  5  9  1  0  0  0  0
  6  8  1  6  0  0  0
  6  5  1  0  0  0  0
  7  6  1  0  0  0  0
  9 10  1  0  0  0  0
 10 11  1  0  0  0  0
 11 12  1  0  0  0  0
 12 13  1  0  0  0  0
 13 14  1  0  0  0  0
 14 15  1  0  0  0  0
 16 17  1  0  0  0  0
 16 15  1  0  0  0  0
 18 20  1  0  0  0  0
 20 19  1  0  0  0  0
 21 18  1  0  0  0  0
 21 22  1  0  0  0  0
 22 24  1  6  0  0  0
 22 19  1  0  0  0  0
 22 17  1  0  0  0  0
 23 24  1  0  0  0  0
 26 42  1  0  0  0  0
 26 25  1  0  0  0  0
 27 28  2  6  0  0  0
 27 39  1  0  0  0  0
 27 35  1  0  0  0  0
 27 40  1  0  0  0  0
 30 33  1  1  0  0  0
 30 32  1  0  0  0  0
 30 31  1  0  0  0  0
 31 37  1  0  0  0  0
 31 36  1  1  0  0  0
 32 29  2  0  0  0  0
 33 42  1  0  0  0  0
 34 36  1  0  0  0  0
 37 41  1  0  0  0  0
 37 35  1  1  0  0  0
 41 29  1  6  0  0  0
 41 43  1  0  0  0  0
 42 34  1  0  0  0  0
 43 39  1  0  0  0  0
 43 38  2  0  0  0  0
M  END
>  <MODEL>
5

>  <REMARK>
 VINA RESULT:      -7.1      2.284      3.580
  Name = 
  14 active torsions:
  status: ('A' for Active; 'I' for Inactive)
    1  A    between atoms: N_4  and  C_21
    2  A    between atoms: N_4  and  C_22
    3  A    between atoms: C_14  and  C_30
    4  A    between atoms: C_14  and  C_40
    5  A    between atoms: O_15  and  C_23
    6  A    between atoms: O_15  and  C_40
    7  A    between atoms: C_16  and  C_29
    8  A    between atoms: C_21  and  C_39
    9  A    between atoms: C_22  and  C_28
   10  A    between atoms: C_26  and  C_29
   11  A    between atoms: C_26  and  N_42
   12  A    between atoms: C_28  and  C_38
   13  A    between atoms: C_30  and  C_34
   14  A    between atoms: C_34  and  C_38
                            x       y       z     vdW  Elec       q    Type
                         _______ _______ _______ _____ _____    ______ ____

>  <TORSDO>
F 14

$$$$
=
 OpenBabel11062412203D

 43 47  0  0  1  0  0  0  0  0999 V2000
  189.7060  175.8370  147.7160 N   0  0  0  0  0  1  0  0  0  0  0  0
  189.9160  177.2510  147.4300 C   0  0  2  0  0  3  0  0  0  0  0  0
  189.3730  177.1740  145.0320 N   0  0  0  0  0  0  0  0  0  0  0  0
  188.9930  177.7480  146.3200 C   0  0  1  0  0  3  0  0  0  0  0  0
  190.5800  176.7860  144.7480 C   0  0  0  0  0  0  0  0  0  0  0  0
  191.6800  176.8200  145.7910 C   0  0  1  0  0  3  0  0  0  0  0  0
  191.3070  177.5020  147.0430 N   0  0  0  0  0  2  0  0  0  0  0  0
  192.1260  175.5380  146.0660 F   0  0  0  0  0  0  0  0  0  0  0  0
  190.8300  176.2800  143.4710 O   0  0  0  0  0  0  0  0  0  0  0  0
  190.9600  177.1190  142.3320 C   0  0  0  0  0  2  0  0  0  0  0  0
  189.8670  176.7930  141.3370 C   0  0  0  0  0  2  0  0  0  0  0  0
  190.2050  177.4390  140.0030 C   0  0  0  0  0  2  0  0  0  0  0  0
  189.1550  178.4750  139.6240 C   0  0  0  0  0  2  0  0  0  0  0  0
  188.6860  178.3170  138.1770 C   0  0  0  0  0  2  0  0  0  0  0  0
  187.5130  177.3460  138.0620 C   0  0  0  0  0  2  0  0  0  0  0  0
  187.8600  176.1350  137.2070 C   0  0  0  0  0  2  0  0  0  0  0  0
  188.7210  176.5240  136.0960 N   0  0  0  0  0  2  0  0  0  0  0  0
  191.7450  176.1010  136.8450 C   0  0  0  0  0  2  0  0  0  0  0  0
  189.8890  174.6990  137.1580 C   0  0  0  0  0  2  0  0  0  0  0  0
  191.3080  174.8730  137.5950 C   0  0  0  0  0  2  0  0  0  0  0  0
  191.0140  176.1690  135.6490 O   0  0  0  0  0  0  0  0  0  0  0  0
  189.7770  175.5270  135.8910 C   0  0  2  0  0  0  0  0  0  0  0  0
  189.1760  173.1710  135.1490 C   0  0  0  0  0  1  0  0  0  0  0  0
  189.4100  174.6120  134.7140 C   0  0  0  0  0  2  0  0  0  0  0  0
  187.5240  177.4890  146.6240 C   0  0  0  0  0  2  0  0  0  0  0  0
  186.7360  178.7860  146.5400 C   0  0  0  0  0  2  0  0  0  0  0  0
  181.6340  178.4670  140.3480 P   0  0  1  0  0  0  0  0  0  0  0  0
  181.4540  176.7890  140.2180 O   0  0  0  0  0  1  0  0  0  0  0  0
  185.9340  178.9870  141.2140 C   0  0  0  0  0  3  0  0  0  0  0  0
  185.4750  177.6090  143.2520 C   0  0  1  0  0  3  0  0  0  0  0  0
  184.0790  178.2520  143.3020 C   0  0  1  0  0  3  0  0  0  0  0  0
  186.3920  178.2430  142.2350 C   0  0  0  0  0  3  0  0  0  0  0  0
  186.1070  177.5820  144.6440 C   0  0  0  0  0  2  0  0  0  0  0  0
  184.7800  179.3790  145.4220 C   0  0  0  0  0  2  0  0  0  0  0  0
  182.2290  178.8720  141.8800 O   0  0  0  0  0  0  0  0  0  0  0  0
  184.0990  179.5790  144.0720 C   0  0  0  0  0  2  0  0  0  0  0  0
  183.5550  178.4230  141.8730 C   0  0  1  0  0  3  0  0  0  0  0  0
  184.8610  179.9150  138.7190 N   0  0  0  0  0  2  0  0  0  0  0  0
  182.7780  179.0260  139.1990 O   0  0  0  0  0  0  0  0  0  0  0  0
  180.3040  179.1470  140.1160 O   0  0  0  0  0  0  0  0  0  0  0  0
  184.4740  179.3540  141.0540 C   0  0  2  0  0  3  0  0  0  0  0  0
  186.1560  178.9250  145.2170 N   0  0  0  0  0  0  0  0  0  0  0  0
  184.0610  179.4090  139.6000 C   0  0  0  0  0  0  0  0  0  0  0  0
  2  1  1  6  0  0  0
  3  4  1  0  0  0  0
  4 25  1  1  0  0  0
  4  2  1  0  0  0  0
  5  3  2  0  0  0  0
  5  6  1  0  0  0  0
  6  8  1  1  0  0  0
  6  7  1  0  0  0  0
  7  2  1  0  0  0  0
  9  5  1  0  0  0  0
 10  9  1  0  0  0  0
 11 10  1  0  0  0  0
 12 11  1  0  0  0  0
 13 12  1  0  0  0  0
 14 13  1  0  0  0  0
 15 14  1  0  0  0  0
 16 15  1  0  0  0  0
 17 16  1  0  0  0  0
 18 20  1  0  0  0  0
 19 20  1  0  0  0  0
 21 22  1  0  0  0  0
 21 18  1  0  0  0  0
 22 24  1  6  0  0  0
 22 17  1  0  0  0  0
 22 19  1  0  0  0  0
 24 23  1  0  0  0  0
 26 25  1  0  0  0  0
 27 40  2  6  0  0  0
 27 35  1  0  0  0  0
 28 27  1  0  0  0  0
 29 32  2  0  0  0  0
 30 32  1  6  0  0  0
 30 31  1  0  0  0  0
 30 33  1  0  0  0  0
 31 36  1  6  0  0  0
 33 42  1  0  0  0  0
 36 34  1  0  0  0  0
 37 35  1  1  0  0  0
 37 31  1  0  0  0  0
 38 43  2  0  0  0  0
 39 43  1  0  0  0  0
 39 27  1  0  0  0  0
 41 29  1  6  0  0  0
 41 37  1  0  0  0  0
 42 34  1  0  0  0  0
 42 26  1  0  0  0  0
 43 41  1  0  0  0  0
M  END
>  <MODEL>
6

>  <REMARK>
 VINA RESULT:      -7.0      3.426      9.434
  Name = 
  14 active torsions:
  status: ('A' for Active; 'I' for Inactive)
    1  A    between atoms: N_4  and  C_21
    2  A    between atoms: N_4  and  C_22
    3  A    between atoms: C_14  and  C_30
    4  A    between atoms: C_14  and  C_40
    5  A    between atoms: O_15  and  C_23
    6  A    between atoms: O_15  and  C_40
    7  A    between atoms: C_16  and  C_29
    8  A    between atoms: C_21  and  C_39
    9  A    between atoms: C_22  and  C_28
   10  A    between atoms: C_26  and  C_29
   11  A    between atoms: C_26  and  N_42
   12  A    between atoms: C_28  and  C_38
   13  A    between atoms: C_30  and  C_34
   14  A    between atoms: C_34  and  C_38
                            x       y       z     vdW  Elec       q    Type
                         _______ _______ _______ _____ _____    ______ ____

>  <TORSDO>
F 14

$$$$
=
 OpenBabel11062412203D

 43 47  0  0  1  0  0  0  0  0999 V2000
  186.7010  175.8330  136.2860 N   0  0  0  0  0  1  0  0  0  0  0  0
  187.5680  176.7010  135.4970 C   0  0  2  0  0  3  0  0  0  0  0  0
  189.2390  177.1530  137.2450 N   0  0  0  0  0  0  0  0  0  0  0  0
  189.0300  176.5760  135.9200 C   0  0  1  0  0  3  0  0  0  0  0  0
  188.4980  178.0970  137.7410 C   0  0  0  0  0  0  0  0  0  0  0  0
  187.2820  178.6140  136.9950 C   0  0  1  0  0  3  0  0  0  0  0  0
  187.1530  178.1000  135.6200 N   0  0  0  0  0  2  0  0  0  0  0  0
  186.1270  178.3450  137.7110 F   0  0  0  0  0  0  0  0  0  0  0  0
  188.8140  178.5920  139.0080 O   0  0  0  0  0  0  0  0  0  0  0  0
  188.5180  177.8780  140.2000 C   0  0  0  0  0  2  0  0  0  0  0  0
  188.1720  178.8570  141.3020 C   0  0  0  0  0  2  0  0  0  0  0  0
  186.7880  178.5280  141.8360 C   0  0  0  0  0  2  0  0  0  0  0  0
  186.8740  177.5010  142.9590 C   0  0  0  0  0  2  0  0  0  0  0  0
  186.0120  177.8880  144.1600 C   0  0  0  0  0  2  0  0  0  0  0  0
  186.6770  177.5090  145.4830 C   0  0  0  0  0  2  0  0  0  0  0  0
  188.1110  178.0130  145.5620 C   0  0  0  0  0  2  0  0  0  0  0  0
  189.0450  176.8950  145.5900 N   0  0  0  0  0  2  0  0  0  0  0  0
  191.9990  175.8540  145.3180 C   0  0  0  0  0  2  0  0  0  0  0  0
  190.3700  176.2560  143.6770 C   0  0  0  0  0  2  0  0  0  0  0  0
  191.6870  175.5770  143.8730 C   0  0  0  0  0  2  0  0  0  0  0  0
  191.4000  177.0730  145.6700 O   0  0  0  0  0  0  0  0  0  0  0  0
  190.2640  177.2230  144.8420 C   0  0  2  0  0  0  0  0  0  0  0  0
  191.5470  179.2450  143.9880 C   0  0  0  0  0  1  0  0  0  0  0  0
  190.1760  178.6590  144.3070 C   0  0  0  0  0  2  0  0  0  0  0  0
  189.5330  175.1410  135.8600 C   0  0  0  0  0  2  0  0  0  0  0  0
  189.9100  174.6600  137.2520 C   0  0  0  0  0  2  0  0  0  0  0  0
  197.9100  174.3880  136.6290 P   0  0  1  0  0  0  0  0  0  0  0  0
  198.0780  174.7690  134.9890 O   0  0  0  0  0  0  0  0  0  0  0  0
  194.3930  171.7170  136.7200 C   0  0  0  0  0  3  0  0  0  0  0  0
  193.1540  173.6620  135.7490 C   0  0  1  0  0  3  0  0  0  0  0  0
  194.0760  174.5830  136.5650 C   0  0  1  0  0  3  0  0  0  0  0  0
  193.3090  172.2000  136.0930 C   0  0  0  0  0  3  0  0  0  0  0  0
  191.6990  174.1190  135.8580 C   0  0  0  0  0  2  0  0  0  0  0  0
  192.0700  175.2350  137.9100 C   0  0  0  0  0  2  0  0  0  0  0  0
  196.3900  174.8770  137.1880 O   0  0  0  0  0  0  0  0  0  0  0  0
  193.5320  174.8070  137.9820 C   0  0  0  0  0  2  0  0  0  0  0  0
  195.4900  173.9950  136.5770 C   0  0  1  0  0  3  0  0  0  0  0  0
  196.9870  170.6790  137.3780 N   0  0  0  0  0  2  0  0  0  0  0  0
  198.0070  172.6890  136.8500 O   0  0  0  0  0  0  0  0  0  0  0  0
  198.9970  175.0690  137.4300 O   0  0  0  0  0  1  0  0  0  0  0  0
  195.5040  172.6030  137.2430 C   0  0  2  0  0  3  0  0  0  0  0  0
  191.2830  174.1900  137.2560 N   0  0  0  0  0  0  0  0  0  0  0  0
  196.8590  171.9400  137.1220 C   0  0  0  0  0  0  0  0  0  0  0  0
  2  7  1  0  0  0  0
  2  4  1  0  0  0  0
  2  1  1  1  0  0  0
  3  5  2  0  0  0  0
  4 25  1  1  0  0  0
  4  3  1  0  0  0  0
  5  9  1  0  0  0  0
  6  8  1  1  0  0  0
  6  5  1  0  0  0  0
  7  6  1  0  0  0  0
  9 10  1  0  0  0  0
 10 11  1  0  0  0  0
 11 12  1  0  0  0  0
 12 13  1  0  0  0  0
 13 14  1  0  0  0  0
 14 15  1  0  0  0  0
 15 16  1  0  0  0  0
 16 17  1  0  0  0  0
 18 21  1  0  0  0  0
 19 20  1  0  0  0  0
 19 22  1  0  0  0  0
 20 18  1  0  0  0  0
 22 24  1  6  0  0  0
 22 17  1  0  0  0  0
 22 21  1  0  0  0  0
 23 24  1  0  0  0  0
 25 26  1  0  0  0  0
 26 42  1  0  0  0  0
 27 28  2  6  0  0  0
 27 39  1  0  0  0  0
 27 35  1  0  0  0  0
 27 40  1  0  0  0  0
 30 33  1  1  0  0  0
 30 32  1  0  0  0  0
 30 31  1  0  0  0  0
 31 37  1  0  0  0  0
 31 36  1  1  0  0  0
 32 29  2  0  0  0  0
 33 42  1  0  0  0  0
 34 36  1  0  0  0  0
 37 35  1  1  0  0  0
 37 41  1  0  0  0  0
 39 43  1  0  0  0  0
 41 29  1  6  0  0  0
 42 34  1  0  0  0  0
 43 41  1  0  0  0  0
 43 38  2  0  0  0  0
M  END
>  <MODEL>
7

>  <REMARK>
 VINA RESULT:      -7.0      2.801      4.488
  Name = 
  14 active torsions:
  status: ('A' for Active; 'I' for Inactive)
    1  A    between atoms: N_4  and  C_21
    2  A    between atoms: N_4  and  C_22
    3  A    between atoms: C_14  and  C_30
    4  A    between atoms: C_14  and  C_40
    5  A    between atoms: O_15  and  C_23
    6  A    between atoms: O_15  and  C_40
    7  A    between atoms: C_16  and  C_29
    8  A    between atoms: C_21  and  C_39
    9  A    between atoms: C_22  and  C_28
   10  A    between atoms: C_26  and  C_29
   11  A    between atoms: C_26  and  N_42
   12  A    between atoms: C_28  and  C_38
   13  A    between atoms: C_30  and  C_34
   14  A    between atoms: C_34  and  C_38
                            x       y       z     vdW  Elec       q    Type
                         _______ _______ _______ _____ _____    ______ ____

>  <TORSDO>
F 14

$$$$
=
 OpenBabel11062412203D

 43 47  0  0  1  0  0  0  0  0999 V2000
  189.4050  175.7020  147.6900 N   0  0  0  0  0  1  0  0  0  0  0  0
  189.6710  177.1360  147.7050 C   0  0  2  0  0  3  0  0  0  0  0  0
  189.3020  177.5530  145.3090 N   0  0  0  0  0  0  0  0  0  0  0  0
  188.8430  177.8770  146.6570 C   0  0  1  0  0  3  0  0  0  0  0  0
  190.5170  177.1820  145.0350 C   0  0  0  0  0  0  0  0  0  0  0  0
  191.5390  176.9690  146.1350 C   0  0  1  0  0  3  0  0  0  0  0  0
  191.0910  177.4050  147.4700 N   0  0  0  0  0  2  0  0  0  0  0  0
  191.9320  175.6420  146.1790 F   0  0  0  0  0  0  0  0  0  0  0  0
  190.8480  176.9290  143.7020 O   0  0  0  0  0  0  0  0  0  0  0  0
  190.0860  176.0570  142.8800 C   0  0  0  0  0  2  0  0  0  0  0  0
  189.6910  176.7780  141.6090 C   0  0  0  0  0  2  0  0  0  0  0  0
  190.8740  176.7800  140.6560 C   0  0  0  0  0  2  0  0  0  0  0  0
  190.4450  177.2230  139.2630 C   0  0  0  0  0  2  0  0  0  0  0  0
  189.1480  178.0300  139.2900 C   0  0  0  0  0  2  0  0  0  0  0  0
  189.0560  179.0010  138.1140 C   0  0  0  0  0  2  0  0  0  0  0  0
  187.9440  178.6190  137.1480 C   0  0  0  0  0  2  0  0  0  0  0  0
  187.2500  177.4250  137.6130 N   0  0  0  0  0  2  0  0  0  0  0  0
  189.1810  175.3600  136.2410 C   0  0  0  0  0  2  0  0  0  0  0  0
  187.0700  175.0520  137.2170 C   0  0  0  0  0  2  0  0  0  0  0  0
  188.2570  174.2820  136.7380 C   0  0  0  0  0  2  0  0  0  0  0  0
  188.4000  176.4390  135.8000 O   0  0  0  0  0  0  0  0  0  0  0  0
  187.2040  176.4100  136.5550 C   0  0  2  0  0  0  0  0  0  0  0  0
  184.7220  176.9490  136.4370 C   0  0  0  0  0  1  0  0  0  0  0  0
  185.9920  176.6580  135.6460 C   0  0  0  0  0  2  0  0  0  0  0  0
  187.3500  177.6190  146.8050 C   0  0  0  0  0  2  0  0  0  0  0  0
  186.5770  178.9170  146.6400 C   0  0  0  0  0  2  0  0  0  0  0  0
  181.7360  178.2040  140.2730 P   0  0  1  0  0  0  0  0  0  0  0  0
  181.6640  176.5170  140.1630 O   0  0  0  0  0  1  0  0  0  0  0  0
  185.9620  178.9970  141.2860 C   0  0  0  0  0  3  0  0  0  0  0  0
  185.5120  177.6220  143.3280 C   0  0  1  0  0  3  0  0  0  0  0  0
  184.0790  178.1790  143.3160 C   0  0  1  0  0  3  0  0  0  0  0  0
  186.4260  178.2960  142.3340 C   0  0  0  0  0  3  0  0  0  0  0  0
  186.0930  177.6520  144.7420 C   0  0  0  0  0  2  0  0  0  0  0  0
  184.6310  179.3750  145.4420 C   0  0  0  0  0  2  0  0  0  0  0  0
  182.2480  178.6650  141.8190 O   0  0  0  0  0  0  0  0  0  0  0  0
  183.9900  179.5140  144.0660 C   0  0  0  0  0  2  0  0  0  0  0  0
  183.5990  178.2980  141.8670 C   0  0  1  0  0  3  0  0  0  0  0  0
  184.9280  179.8240  138.7390 N   0  0  0  0  0  2  0  0  0  0  0  0
  182.8860  178.8160  139.1580 O   0  0  0  0  0  0  0  0  0  0  0  0
  180.3770  178.7980  139.9830 O   0  0  0  0  0  0  0  0  0  0  0  0
  184.4890  179.2720  141.0680 C   0  0  2  0  0  3  0  0  0  0  0  0
  186.0380  179.0030  145.2950 N   0  0  0  0  0  0  0  0  0  0  0  0
  184.1280  179.2820  139.5980 C   0  0  0  0  0  0  0  0  0  0  0  0
  2  1  1  6  0  0  0
  3  4  1  0  0  0  0
  4 25  1  6  0  0  0
  4  2  1  0  0  0  0
  5  3  2  0  0  0  0
  5  6  1  0  0  0  0
  6  8  1  1  0  0  0
  6  7  1  0  0  0  0
  7  2  1  0  0  0  0
  9  5  1  0  0  0  0
 10  9  1  0  0  0  0
 11 10  1  0  0  0  0
 12 11  1  0  0  0  0
 13 14  1  0  0  0  0
 13 12  1  0  0  0  0
 15 14  1  0  0  0  0
 16 17  1  0  0  0  0
 16 15  1  0  0  0  0
 18 20  1  0  0  0  0
 20 19  1  0  0  0  0
 21 18  1  0  0  0  0
 21 22  1  0  0  0  0
 22 24  1  6  0  0  0
 22 19  1  0  0  0  0
 22 17  1  0  0  0  0
 24 23  1  0  0  0  0
 26 25  1  0  0  0  0
 27 40  2  6  0  0  0
 27 35  1  0  0  0  0
 28 27  1  0  0  0  0
 29 32  2  0  0  0  0
 30 32  1  6  0  0  0
 30 33  1  0  0  0  0
 31 30  1  0  0  0  0
 31 36  1  6  0  0  0
 33 42  1  0  0  0  0
 36 34  1  0  0  0  0
 37 35  1  1  0  0  0
 37 31  1  0  0  0  0
 38 43  2  0  0  0  0
 39 43  1  0  0  0  0
 39 27  1  0  0  0  0
 41 29  1  6  0  0  0
 41 37  1  0  0  0  0
 42 34  1  0  0  0  0
 42 26  1  0  0  0  0
 43 41  1  0  0  0  0
M  END
>  <MODEL>
8

>  <REMARK>
 VINA RESULT:      -7.0      3.845      9.366
  Name = 
  14 active torsions:
  status: ('A' for Active; 'I' for Inactive)
    1  A    between atoms: N_4  and  C_21
    2  A    between atoms: N_4  and  C_22
    3  A    between atoms: C_14  and  C_30
    4  A    between atoms: C_14  and  C_40
    5  A    between atoms: O_15  and  C_23
    6  A    between atoms: O_15  and  C_40
    7  A    between atoms: C_16  and  C_29
    8  A    between atoms: C_21  and  C_39
    9  A    between atoms: C_22  and  C_28
   10  A    between atoms: C_26  and  C_29
   11  A    between atoms: C_26  and  N_42
   12  A    between atoms: C_28  and  C_38
   13  A    between atoms: C_30  and  C_34
   14  A    between atoms: C_34  and  C_38
                            x       y       z     vdW  Elec       q    Type
                         _______ _______ _______ _____ _____    ______ ____

>  <TORSDO>
F 14

$$$$
=
 OpenBabel11062412203D

 43 47  0  0  1  0  0  0  0  0999 V2000
  191.4900  178.4730  144.3920 N   0  0  0  0  0  1  0  0  0  0  0  0
  190.9220  177.1800  144.0290 C   0  0  2  0  0  3  0  0  0  0  0  0
  188.5640  177.7400  144.4510 N   0  0  0  0  0  0  0  0  0  0  0  0
  189.5230  177.3240  143.4330 C   0  0  1  0  0  3  0  0  0  0  0  0
  188.7070  177.4880  145.7180 C   0  0  0  0  0  0  0  0  0  0  0  0
  189.9550  176.8040  146.2440 C   0  0  1  0  0  3  0  0  0  0  0  0
  190.8560  176.2950  145.1950 N   0  0  0  0  0  2  0  0  0  0  0  0
  190.6490  177.6530  147.0920 F   0  0  0  0  0  0  0  0  0  0  0  0
  187.7070  177.9100  146.5960 O   0  0  0  0  0  0  0  0  0  0  0  0
  186.3280  177.6800  146.3470 C   0  0  0  0  0  2  0  0  0  0  0  0
  185.6240  179.0040  146.1390 C   0  0  0  0  0  2  0  0  0  0  0  0
  184.4970  178.8110  145.1370 C   0  0  0  0  0  2  0  0  0  0  0  0
  185.0360  178.2830  143.8140 C   0  0  0  0  0  2  0  0  0  0  0  0
  184.1970  178.7470  142.6240 C   0  0  0  0  0  2  0  0  0  0  0  0
  185.0570  179.0080  141.3880 C   0  0  0  0  0  2  0  0  0  0  0  0
  184.3320  178.6340  140.1030 C   0  0  0  0  0  2  0  0  0  0  0  0
  183.4250  177.5170  140.3340 N   0  0  0  0  0  2  0  0  0  0  0  0
  180.8350  179.2060  140.9020 C   0  0  0  0  0  2  0  0  0  0  0  0
  182.2020  179.1100  138.9970 C   0  0  0  0  0  2  0  0  0  0  0  0
  181.1230  179.9360  139.6190 C   0  0  0  0  0  2  0  0  0  0  0  0
  181.1140  177.8450  140.7050 O   0  0  0  0  0  0  0  0  0  0  0  0
  182.1210  177.7750  139.7130 C   0  0  2  0  0  0  0  0  0  0  0  0
  182.9990  175.7790  138.4060 C   0  0  0  0  0  1  0  0  0  0  0  0
  181.7970  176.6690  138.6990 C   0  0  0  0  0  2  0  0  0  0  0  0
  189.4950  178.2620  142.2350 C   0  0  0  0  0  2  0  0  0  0  0  0
  188.6950  177.6400  141.1020 C   0  0  0  0  0  2  0  0  0  0  0  0
  194.5810  176.0690  135.8720 P   0  0  1  0  0  0  0  0  0  0  0  0
  194.0950  177.0670  134.5940 O   0  0  0  0  0  0  0  0  0  0  0  0
  190.7860  174.3700  137.3630 C   0  0  0  0  0  3  0  0  0  0  0  0
  190.1380  176.7470  137.8000 C   0  0  1  0  0  3  0  0  0  0  0  0
  191.6150  177.0320  138.1140 C   0  0  1  0  0  3  0  0  0  0  0  0
  189.8330  175.2790  137.6270 C   0  0  0  0  0  3  0  0  0  0  0  0
  189.2280  177.3940  138.8450 C   0  0  0  0  0  2  0  0  0  0  0  0
  190.9330  177.4400  140.4850 C   0  0  0  0  0  2  0  0  0  0  0  0
  193.8450  176.5680  137.3120 O   0  0  0  0  0  0  0  0  0  0  0  0
  191.9440  176.7400  139.5840 C   0  0  0  0  0  2  0  0  0  0  0  0
  192.4960  176.2260  137.1540 C   0  0  1  0  0  3  0  0  0  0  0  0
  192.7170  172.6580  136.1060 N   0  0  0  0  0  2  0  0  0  0  0  0
  194.0780  174.4550  135.5810 O   0  0  0  0  0  0  0  0  0  0  0  0
  196.0850  176.1170  136.0190 O   0  0  0  0  0  1  0  0  0  0  0  0
  192.2610  174.7110  137.3290 C   0  0  2  0  0  3  0  0  0  0  0  0
  189.5870  176.9490  140.1900 N   0  0  0  0  0  0  0  0  0  0  0  0
  193.0030  173.9060  136.2840 C   0  0  0  0  0  0  0  0  0  0  0  0
  2  1  1  1  0  0  0
  2  7  1  0  0  0  0
  3  5  2  0  0  0  0
  4 25  1  6  0  0  0
  4  2  1  0  0  0  0
  4  3  1  0  0  0  0
  5  6  1  0  0  0  0
  5  9  1  0  0  0  0
  6  8  1  6  0  0  0
  7  6  1  0  0  0  0
 10  9  1  0  0  0  0
 11 10  1  0  0  0  0
 12 11  1  0  0  0  0
 13 12  1  0  0  0  0
 14 13  1  0  0  0  0
 15 14  1  0  0  0  0
 16 17  1  0  0  0  0
 16 15  1  0  0  0  0
 19 20  1  0  0  0  0
 19 22  1  0  0  0  0
 20 18  1  0  0  0  0
 21 18  1  0  0  0  0
 22 24  1  6  0  0  0
 22 17  1  0  0  0  0
 22 21  1  0  0  0  0
 23 24  1  0  0  0  0
 26 25  1  0  0  0  0
 27 28  2  6  0  0  0
 27 40  1  0  0  0  0
 27 35  1  0  0  0  0
 29 32  2  0  0  0  0
 30 32  1  1  0  0  0
 30 31  1  0  0  0  0
 30 33  1  0  0  0  0
 31 36  1  1  0  0  0
 33 42  1  0  0  0  0
 36 34  1  0  0  0  0
 37 35  1  1  0  0  0
 37 41  1  0  0  0  0
 37 31  1  0  0  0  0
 38 43  2  0  0  0  0
 39 27  1  0  0  0  0
 39 43  1  0  0  0  0
 41 29  1  6  0  0  0
 42 34  1  0  0  0  0
 42 26  1  0  0  0  0
 43 41  1  0  0  0  0
M  END
>  <MODEL>
9

>  <REMARK>
 VINA RESULT:      -6.9      2.336      6.058
  Name = 
  14 active torsions:
  status: ('A' for Active; 'I' for Inactive)
    1  A    between atoms: N_4  and  C_21
    2  A    between atoms: N_4  and  C_22
    3  A    between atoms: C_14  and  C_30
    4  A    between atoms: C_14  and  C_40
    5  A    between atoms: O_15  and  C_23
    6  A    between atoms: O_15  and  C_40
    7  A    between atoms: C_16  and  C_29
    8  A    between atoms: C_21  and  C_39
    9  A    between atoms: C_22  and  C_28
   10  A    between atoms: C_26  and  C_29
   11  A    between atoms: C_26  and  N_42
   12  A    between atoms: C_28  and  C_38
   13  A    between atoms: C_30  and  C_34
   14  A    between atoms: C_34  and  C_38
                            x       y       z     vdW  Elec       q    Type
                         _______ _______ _______ _____ _____    ______ ____

>  <TORSDO>
F 14

$$$$
