=
 OpenBabel11062413283D

 30 32  0  0  1  0  0  0  0  0999 V2000
  182.2830  178.9960  141.6150 N   0  0  0  0  0  0  0  0  0  0  0  0
  185.4180  178.7980  143.6330 C   0  0  0  0  0  3  0  0  0  0  0  0
  184.9120  178.7770  144.9410 C   0  0  0  0  0  0  0  0  0  0  0  0
  185.0950  178.9590  141.1460 C   0  0  0  0  0  2  0  0  0  0  0  0
  181.7860  178.8800  139.2990 N   0  0  0  0  0  2  0  0  0  0  0  0
  184.1170  178.3620  140.1290 C   0  0  0  0  0  2  0  0  0  0  0  0
  183.5220  178.8510  145.1310 C   0  0  0  0  0  3  0  0  0  0  0  0
  184.5540  178.8550  142.5380 C   0  0  0  0  0  0  0  0  0  0  0  0
  183.1670  178.9220  142.7400 C   0  0  0  0  0  0  0  0  0  0  0  0
  182.6530  178.9240  144.0380 C   0  0  0  0  0  3  0  0  0  0  0  0
  182.7000  178.8030  140.3940 C   0  0  0  0  0  0  0  0  0  0  0  0
  179.2360  180.4060  137.3760 C   0  0  1  0  0  3  0  0  0  0  0  0
  179.4370  178.7130  138.0190 S   0  0  0  0  0  0  0  0  0  0  0  0
  180.2060  181.3070  138.1130 C   0  0  2  0  0  3  0  0  0  0  0  0
  180.3940  179.2830  139.4590 C   0  0  2  0  0  3  0  0  0  0  0  0
  180.2960  180.7940  139.5320 C   0  0  0  0  0  2  0  0  0  0  0  0
  179.7390  182.7250  138.0880 C   0  0  0  0  0  0  0  0  0  0  0  0
  180.2040  183.6050  137.1180 O   0  0  0  0  0  0  0  0  0  0  0  0
  178.9370  183.1300  138.9660 O   0  0  0  0  0  1  0  0  0  0  0  0
  179.5150  180.4220  136.0080 O   0  0  0  0  0  0  0  0  0  0  0  0
  180.8060  179.9040  135.9010 C   0  0  0  0  0  1  0  0  0  0  0  0
  185.8090  178.7200  146.1200 C   0  0  0  0  0  0  0  0  0  0  0  0
  185.5630  179.4720  147.1040 O   0  0  0  0  0  0  0  0  0  0  0  0
  187.1430  176.8770  145.2450 O   0  0  0  0  0  1  0  0  0  0  0  0
  186.9470  177.8390  146.1800 N   0  0  0  0  0  0  0  0  0  0  0  0
  187.8500  177.8860  147.3230 C   0  0  0  0  0  2  0  0  0  0  0  0
  188.8250  176.7150  147.2900 C   0  0  0  0  0  2  0  0  0  0  0  0
  190.3020  177.8770  145.6060 N   0  0  0  0  0  2  0  0  0  0  0  0
  191.2320  176.7350  147.4350 N   0  0  0  0  0  1  0  0  0  0  0  0
  190.1730  177.1470  146.8210 C   0  0  0  0  0  0  0  0  0  0  0  0
  1  9  1  0  0  0  0
  2  3  1  0  0  0  0
  3  7  2  0  0  0  0
  3 22  1  0  0  0  0
  4  8  1  0  0  0  0
  5 11  1  0  0  0  0
  6 11  1  0  0  0  0
  6  4  1  0  0  0  0
  8  9  1  0  0  0  0
  8  2  2  0  0  0  0
  9 10  2  0  0  0  0
 10  7  1  0  0  0  0
 11  1  2  0  0  0  0
 12 20  1  6  0  0  0
 12 13  1  0  0  0  0
 12 14  1  0  0  0  0
 13 15  1  0  0  0  0
 14 17  1  1  0  0  0
 14 16  1  0  0  0  0
 15  5  1  6  0  0  0
 15 16  1  0  0  0  0
 17 19  1  0  0  0  0
 18 17  2  0  0  0  0
 21 20  1  0  0  0  0
 22 25  1  0  0  0  0
 22 23  2  0  0  0  0
 24 25  1  0  0  0  0
 25 26  1  0  0  0  0
 27 26  1  0  0  0  0
 28 30  2  0  0  0  0
 30 27  1  0  0  0  0
 30 29  1  0  0  0  0
M  END
>  <MODEL>
1

>  <REMARK>
 VINA RESULT:      -7.4      0.000      0.000
  Name = 
  7 active torsions:
  status: ('A' for Active; 'I' for Inactive)
    1  A    between atoms: C_1  and  C_5
    2  A    between atoms: C_3  and  C_19
    3  A    between atoms: C_3  and  C_21
    4  A    between atoms: C_6  and  O_17
    5  A    between atoms: N_8  and  C_27
    6  A    between atoms: C_16  and  C_18
    7  A    between atoms: C_21  and  N_29
                            x       y       z     vdW  Elec       q    Type
                         _______ _______ _______ _____ _____    ______ ____

>  <TORSDO>
F 7

$$$$
=
 OpenBabel11062413283D

 30 32  0  0  1  0  0  0  0  0999 V2000
  188.5170  177.8210  141.3750 N   0  0  0  0  0  0  0  0  0  0  0  0
  185.9150  177.7880  144.0540 C   0  0  0  0  0  3  0  0  0  0  0  0
  184.9200  178.6000  143.4910 C   0  0  0  0  0  0  0  0  0  0  0  0
  188.1890  176.7180  143.9830 C   0  0  0  0  0  2  0  0  0  0  0  0
  190.5610  176.6700  141.0270 N   0  0  0  0  0  2  0  0  0  0  0  0
  189.0270  175.9990  142.9220 C   0  0  0  0  0  2  0  0  0  0  0  0
  185.1430  179.1680  142.2260 C   0  0  0  0  0  3  0  0  0  0  0  0
  187.0930  177.5180  143.3520 C   0  0  0  0  0  0  0  0  0  0  0  0
  187.3020  178.0860  142.0860 C   0  0  0  0  0  0  0  0  0  0  0  0
  186.3270  178.9150  141.5260 C   0  0  0  0  0  3  0  0  0  0  0  0
  189.3620  176.9080  141.7670 C   0  0  0  0  0  0  0  0  0  0  0  0
  191.2140  176.2540  137.5740 C   0  0  1  0  0  3  0  0  0  0  0  0
  189.8810  177.1110  138.4720 S   0  0  0  0  0  0  0  0  0  0  0  0
  192.3460  175.9930  138.5470 C   0  0  2  0  0  3  0  0  0  0  0  0
  190.9610  177.4860  139.8880 C   0  0  2  0  0  3  0  0  0  0  0  0
  192.3920  177.1680  139.4980 C   0  0  0  0  0  2  0  0  0  0  0  0
  193.6440  175.8400  137.8270 C   0  0  0  0  0  0  0  0  0  0  0  0
  194.1100  176.8460  136.9890 O   0  0  0  0  0  0  0  0  0  0  0  0
  194.3080  174.7820  137.9630 O   0  0  0  0  0  1  0  0  0  0  0  0
  190.7340  175.0450  137.0650 O   0  0  0  0  0  0  0  0  0  0  0  0
  189.3750  175.0400  137.3830 C   0  0  0  0  0  1  0  0  0  0  0  0
  183.6630  178.9030  144.2180 C   0  0  0  0  0  0  0  0  0  0  0  0
  183.7260  179.1590  145.4530 O   0  0  0  0  0  0  0  0  0  0  0  0
  182.2760  178.8460  142.2150 O   0  0  0  0  0  1  0  0  0  0  0  0
  182.3800  178.9170  143.5640 N   0  0  0  0  0  0  0  0  0  0  0  0
  181.1650  179.1310  144.3410 C   0  0  0  0  0  2  0  0  0  0  0  0
  180.0730  178.1570  143.9160 C   0  0  0  0  0  2  0  0  0  0  0  0
  178.9310  177.9210  141.6780 N   0  0  0  0  0  2  0  0  0  0  0  0
  178.9340  179.9750  142.8160 N   0  0  0  0  0  1  0  0  0  0  0  0
  179.2430  178.7210  142.8130 C   0  0  0  0  0  0  0  0  0  0  0  0
  1 11  2  0  0  0  0
  1  9  1  0  0  0  0
  3  2  1  0  0  0  0
  3 22  1  0  0  0  0
  5 11  1  0  0  0  0
  6  4  1  0  0  0  0
  7  3  2  0  0  0  0
  8  4  1  0  0  0  0
  8  2  2  0  0  0  0
  9  8  1  0  0  0  0
 10  9  2  0  0  0  0
 10  7  1  0  0  0  0
 11  6  1  0  0  0  0
 12 20  1  1  0  0  0
 12 13  1  0  0  0  0
 12 14  1  0  0  0  0
 13 15  1  0  0  0  0
 14 17  1  6  0  0  0
 14 16  1  0  0  0  0
 15  5  1  1  0  0  0
 16 15  1  0  0  0  0
 17 19  1  0  0  0  0
 18 17  2  0  0  0  0
 20 21  1  0  0  0  0
 22 23  2  0  0  0  0
 24 25  1  0  0  0  0
 25 22  1  0  0  0  0
 25 26  1  0  0  0  0
 27 26  1  0  0  0  0
 28 30  2  0  0  0  0
 30 29  1  0  0  0  0
 30 27  1  0  0  0  0
M  END
>  <MODEL>
2

>  <REMARK>
 VINA RESULT:      -7.2      5.738      9.579
  Name = 
  7 active torsions:
  status: ('A' for Active; 'I' for Inactive)
    1  A    between atoms: C_1  and  C_5
    2  A    between atoms: C_3  and  C_19
    3  A    between atoms: C_3  and  C_21
    4  A    between atoms: C_6  and  O_17
    5  A    between atoms: N_8  and  C_27
    6  A    between atoms: C_16  and  C_18
    7  A    between atoms: C_21  and  N_29
                            x       y       z     vdW  Elec       q    Type
                         _______ _______ _______ _____ _____    ______ ____

>  <TORSDO>
F 7

$$$$
=
 OpenBabel11062413283D

 30 32  0  0  1  0  0  0  0  0999 V2000
  184.3310  178.2570  142.0830 N   0  0  0  0  0  0  0  0  0  0  0  0
  185.6570  178.1770  145.5720 C   0  0  0  0  0  3  0  0  0  0  0  0
  187.0000  177.8310  145.3570 C   0  0  0  0  0  0  0  0  0  0  0  0
  183.3320  178.6210  144.7270 C   0  0  0  0  0  2  0  0  0  0  0  0
  182.2750  178.9120  141.0990 N   0  0  0  0  0  2  0  0  0  0  0  0
  182.7240  179.3780  143.5430 C   0  0  0  0  0  2  0  0  0  0  0  0
  187.4400  177.6090  144.0410 C   0  0  0  0  0  3  0  0  0  0  0  0
  184.7820  178.3320  144.4950 C   0  0  0  0  0  0  0  0  0  0  0  0
  185.2340  178.1130  143.1850 C   0  0  0  0  0  0  0  0  0  0  0  0
  186.5630  177.7470  142.9610 C   0  0  0  0  0  3  0  0  0  0  0  0
  183.1450  178.7810  142.2240 C   0  0  0  0  0  0  0  0  0  0  0  0
  180.5790  177.6210  138.2740 C   0  0  1  0  0  3  0  0  0  0  0  0
  181.5220  179.1560  138.5380 S   0  0  0  0  0  0  0  0  0  0  0  0
  180.9090  176.6650  139.4020 C   0  0  2  0  0  3  0  0  0  0  0  0
  182.6000  178.3790  139.7830 C   0  0  2  0  0  3  0  0  0  0  0  0
  182.3640  176.8820  139.7540 C   0  0  0  0  0  2  0  0  0  0  0  0
  180.6660  175.2510  138.9910 C   0  0  0  0  0  0  0  0  0  0  0  0
  181.5490  174.6010  138.1370 O   0  0  0  0  0  0  0  0  0  0  0  0
  179.6420  174.6520  139.4040 O   0  0  0  0  0  1  0  0  0  0  0  0
  179.2110  177.9060  138.2760 O   0  0  0  0  0  0  0  0  0  0  0  0
  178.9990  178.6230  139.4540 C   0  0  0  0  0  1  0  0  0  0  0  0
  187.9470  177.6580  146.4840 C   0  0  0  0  0  0  0  0  0  0  0  0
  187.5530  177.9350  147.6520 O   0  0  0  0  0  0  0  0  0  0  0  0
  189.7030  176.6890  145.1000 O   0  0  0  0  0  1  0  0  0  0  0  0
  189.2940  177.1850  146.2920 N   0  0  0  0  0  0  0  0  0  0  0  0
  190.2130  177.1180  147.4210 C   0  0  0  0  0  2  0  0  0  0  0  0
  191.6590  177.0930  146.9400 C   0  0  0  0  0  2  0  0  0  0  0  0
  192.9810  175.6460  148.5290 N   0  0  0  0  0  1  0  0  0  0  0  0
  192.4210  174.8740  146.3840 N   0  0  0  0  0  2  0  0  0  0  0  0
  192.3200  175.8000  147.2790 C   0  0  0  0  0  0  0  0  0  0  0  0
  1 11  2  0  0  0  0
  1  9  1  0  0  0  0
  3  2  1  0  0  0  0
  3 22  1  0  0  0  0
  5 11  1  0  0  0  0
  6  4  1  0  0  0  0
  7  3  2  0  0  0  0
  8  4  1  0  0  0  0
  8  2  2  0  0  0  0
  9  8  1  0  0  0  0
 10  9  2  0  0  0  0
 10  7  1  0  0  0  0
 11  6  1  0  0  0  0
 12 20  1  1  0  0  0
 12 13  1  0  0  0  0
 12 14  1  0  0  0  0
 13 15  1  0  0  0  0
 14 17  1  6  0  0  0
 14 16  1  0  0  0  0
 15  5  1  1  0  0  0
 16 15  1  0  0  0  0
 17 19  1  0  0  0  0
 18 17  2  0  0  0  0
 20 21  1  0  0  0  0
 22 23  2  0  0  0  0
 24 25  1  0  0  0  0
 25 22  1  0  0  0  0
 25 26  1  0  0  0  0
 27 30  1  0  0  0  0
 27 26  1  0  0  0  0
 29 30  2  0  0  0  0
 30 28  1  0  0  0  0
M  END
>  <MODEL>
3

>  <REMARK>
 VINA RESULT:      -7.1      2.548      3.990
  Name = 
  7 active torsions:
  status: ('A' for Active; 'I' for Inactive)
    1  A    between atoms: C_1  and  C_5
    2  A    between atoms: C_3  and  C_19
    3  A    between atoms: C_3  and  C_21
    4  A    between atoms: C_6  and  O_17
    5  A    between atoms: N_8  and  C_27
    6  A    between atoms: C_16  and  C_18
    7  A    between atoms: C_21  and  N_29
                            x       y       z     vdW  Elec       q    Type
                         _______ _______ _______ _____ _____    ______ ____

>  <TORSDO>
F 7

$$$$
=
 OpenBabel11062413283D

 30 32  0  0  1  0  0  0  0  0999 V2000
  182.9120  179.2330  140.6940 N   0  0  0  0  0  0  0  0  0  0  0  0
  186.0630  178.3350  142.4830 C   0  0  0  0  0  3  0  0  0  0  0  0
  185.6320  178.3020  143.8180 C   0  0  0  0  0  0  0  0  0  0  0  0
  185.6420  178.7410  140.0390 C   0  0  0  0  0  2  0  0  0  0  0  0
  182.2780  179.3850  138.4130 N   0  0  0  0  0  2  0  0  0  0  0  0
  184.5210  178.4050  139.0520 C   0  0  0  0  0  2  0  0  0  0  0  0
  184.2900  178.6030  144.1030 C   0  0  0  0  0  3  0  0  0  0  0  0
  185.1660  178.6270  141.4530 C   0  0  0  0  0  0  0  0  0  0  0  0
  183.8260  178.9190  141.7510 C   0  0  0  0  0  0  0  0  0  0  0  0
  183.3910  178.9110  143.0780 C   0  0  0  0  0  3  0  0  0  0  0  0
  183.2210  179.0640  139.4380 C   0  0  0  0  0  0  0  0  0  0  0  0
  179.8280  181.2710  136.6920 C   0  0  1  0  0  3  0  0  0  0  0  0
  179.8180  179.5800  137.3680 S   0  0  0  0  0  0  0  0  0  0  0  0
  180.9980  182.0150  137.3030 C   0  0  2  0  0  3  0  0  0  0  0  0
  180.9920  180.0110  138.6910 C   0  0  2  0  0  3  0  0  0  0  0  0
  181.1450  181.5190  138.7240 C   0  0  0  0  0  2  0  0  0  0  0  0
  180.7640  183.4890  137.2760 C   0  0  0  0  0  0  0  0  0  0  0  0
  179.5020  184.0100  137.5340 O   0  0  0  0  0  1  0  0  0  0  0  0
  181.7140  184.2630  136.9950 O   0  0  0  0  0  0  0  0  0  0  0  0
  179.9700  181.2180  135.3030 O   0  0  0  0  0  0  0  0  0  0  0  0
  180.7780  180.1060  135.0690 C   0  0  0  0  0  1  0  0  0  0  0  0
  186.5660  177.9990  144.9280 C   0  0  0  0  0  0  0  0  0  0  0  0
  186.3500  178.5180  146.0590 O   0  0  0  0  0  0  0  0  0  0  0  0
  187.8740  176.4000  143.6340 O   0  0  0  0  0  1  0  0  0  0  0  0
  187.7060  177.1350  144.7600 N   0  0  0  0  0  0  0  0  0  0  0  0
  188.6450  176.9400  145.8580 C   0  0  0  0  0  2  0  0  0  0  0  0
  189.7800  177.9540  145.7840 C   0  0  0  0  0  2  0  0  0  0  0  0
  191.1990  177.8210  143.7020 N   0  0  0  0  0  2  0  0  0  0  0  0
  191.6450  176.4430  145.5500 N   0  0  0  0  0  1  0  0  0  0  0  0
  190.9490  177.4040  145.0390 C   0  0  0  0  0  0  0  0  0  0  0  0
  1  9  1  0  0  0  0
  2  3  1  0  0  0  0
  3  7  2  0  0  0  0
  3 22  1  0  0  0  0
  4  8  1  0  0  0  0
  5 11  1  0  0  0  0
  6 11  1  0  0  0  0
  6  4  1  0  0  0  0
  8  9  1  0  0  0  0
  8  2  2  0  0  0  0
  9 10  2  0  0  0  0
 10  7  1  0  0  0  0
 11  1  2  0  0  0  0
 12 20  1  6  0  0  0
 12 14  1  0  0  0  0
 12 13  1  0  0  0  0
 13 15  1  0  0  0  0
 14 17  1  1  0  0  0
 14 16  1  0  0  0  0
 15  5  1  6  0  0  0
 15 16  1  0  0  0  0
 17 18  1  0  0  0  0
 19 17  2  0  0  0  0
 21 20  1  0  0  0  0
 22 23  2  0  0  0  0
 24 25  1  0  0  0  0
 25 22  1  0  0  0  0
 25 26  1  0  0  0  0
 27 26  1  0  0  0  0
 28 30  2  0  0  0  0
 30 29  1  0  0  0  0
 30 27  1  0  0  0  0
M  END
>  <MODEL>
4

>  <REMARK>
 VINA RESULT:      -7.1      1.350      1.582
  Name = 
  7 active torsions:
  status: ('A' for Active; 'I' for Inactive)
    1  A    between atoms: C_1  and  C_5
    2  A    between atoms: C_3  and  C_19
    3  A    between atoms: C_3  and  C_21
    4  A    between atoms: C_6  and  O_17
    5  A    between atoms: N_8  and  C_27
    6  A    between atoms: C_16  and  C_18
    7  A    between atoms: C_21  and  N_29
                            x       y       z     vdW  Elec       q    Type
                         _______ _______ _______ _____ _____    ______ ____

>  <TORSDO>
F 7

$$$$
=
 OpenBabel11062413283D

 30 32  0  0  1  0  0  0  0  0999 V2000
  183.6080  179.0730  141.5040 N   0  0  0  0  0  0  0  0  0  0  0  0
  186.6980  178.3200  143.4590 C   0  0  0  0  0  3  0  0  0  0  0  0
  186.1900  178.2130  144.7630 C   0  0  0  0  0  0  0  0  0  0  0  0
  186.3990  178.7810  141.0070 C   0  0  0  0  0  2  0  0  0  0  0  0
  183.1050  179.2610  139.1950 N   0  0  0  0  0  2  0  0  0  0  0  0
  185.3640  178.4070  139.9420 C   0  0  0  0  0  2  0  0  0  0  0  0
  184.8160  178.4170  144.9730 C   0  0  0  0  0  3  0  0  0  0  0  0
  185.8470  178.5870  142.3840 C   0  0  0  0  0  0  0  0  0  0  0  0
  184.4760  178.7830  142.6060 C   0  0  0  0  0  0  0  0  0  0  0  0
  183.9620  178.7010  143.9030 C   0  0  0  0  0  3  0  0  0  0  0  0
  184.0030  178.9670  140.2660 C   0  0  0  0  0  0  0  0  0  0  0  0
  180.0210  179.4420  137.4680 C   0  0  1  0  0  3  0  0  0  0  0  0
  180.5380  178.5280  138.9560 S   0  0  0  0  0  0  0  0  0  0  0  0
  181.0520  180.5180  137.1940 C   0  0  2  0  0  3  0  0  0  0  0  0
  181.7650  179.7930  139.4100 C   0  0  2  0  0  3  0  0  0  0  0  0
  181.5430  181.0120  138.5360 C   0  0  0  0  0  2  0  0  0  0  0  0
  180.4610  181.6340  136.3990 C   0  0  0  0  0  0  0  0  0  0  0  0
  180.7820  181.7940  135.0570 O   0  0  0  0  0  0  0  0  0  0  0  0
  179.6820  182.4480  136.9570 O   0  0  0  0  0  1  0  0  0  0  0  0
  179.9460  178.5650  136.3830 O   0  0  0  0  0  0  0  0  0  0  0  0
  181.2710  178.2240  136.1080 C   0  0  0  0  0  1  0  0  0  0  0  0
  187.0740  177.9330  145.9200 C   0  0  0  0  0  0  0  0  0  0  0  0
  186.5460  177.5870  147.0130 O   0  0  0  0  0  0  0  0  0  0  0  0
  189.1330  178.2130  144.6480 O   0  0  0  0  0  1  0  0  0  0  0  0
  188.5080  178.0400  145.8370 N   0  0  0  0  0  0  0  0  0  0  0  0
  189.3260  177.8420  147.0260 C   0  0  0  0  0  2  0  0  0  0  0  0
  189.8600  176.4160  147.0840 C   0  0  0  0  0  2  0  0  0  0  0  0
  192.1810  175.7070  147.7730 N   0  0  0  0  0  1  0  0  0  0  0  0
  191.8510  177.0800  145.8980 N   0  0  0  0  0  2  0  0  0  0  0  0
  191.3320  176.3790  146.8510 C   0  0  0  0  0  0  0  0  0  0  0  0
  1  9  1  0  0  0  0
  2  3  1  0  0  0  0
  3  7  2  0  0  0  0
  3 22  1  0  0  0  0
  4  8  1  0  0  0  0
  5 11  1  0  0  0  0
  6 11  1  0  0  0  0
  6  4  1  0  0  0  0
  8  9  1  0  0  0  0
  8  2  2  0  0  0  0
  9 10  2  0  0  0  0
 10  7  1  0  0  0  0
 11  1  2  0  0  0  0
 12 20  1  6  0  0  0
 12 13  1  0  0  0  0
 13 15  1  0  0  0  0
 14 17  1  1  0  0  0
 14 12  1  0  0  0  0
 14 16  1  0  0  0  0
 15  5  1  6  0  0  0
 16 15  1  0  0  0  0
 17 19  1  0  0  0  0
 18 17  2  0  0  0  0
 21 20  1  0  0  0  0
 22 23  2  0  0  0  0
 24 25  1  0  0  0  0
 25 22  1  0  0  0  0
 25 26  1  0  0  0  0
 26 27  1  0  0  0  0
 29 30  2  0  0  0  0
 30 27  1  0  0  0  0
 30 28  1  0  0  0  0
M  END
>  <MODEL>
5

>  <REMARK>
 VINA RESULT:      -6.7      1.473      1.746
  Name = 
  7 active torsions:
  status: ('A' for Active; 'I' for Inactive)
    1  A    between atoms: C_1  and  C_5
    2  A    between atoms: C_3  and  C_19
    3  A    between atoms: C_3  and  C_21
    4  A    between atoms: C_6  and  O_17
    5  A    between atoms: N_8  and  C_27
    6  A    between atoms: C_16  and  C_18
    7  A    between atoms: C_21  and  N_29
                            x       y       z     vdW  Elec       q    Type
                         _______ _______ _______ _____ _____    ______ ____

>  <TORSDO>
F 7

$$$$
=
 OpenBabel11062413283D

 30 32  0  0  1  0  0  0  0  0999 V2000
  192.0110  176.3270  138.6390 N   0  0  0  0  0  0  0  0  0  0  0  0
  188.5100  177.2700  139.5260 C   0  0  0  0  0  3  0  0  0  0  0  0
  188.6700  177.7580  140.8320 C   0  0  0  0  0  0  0  0  0  0  0  0
  189.4290  176.2190  137.4370 C   0  0  0  0  0  2  0  0  0  0  0  0
  193.0860  175.5940  136.6560 N   0  0  0  0  0  2  0  0  0  0  0  0
  190.6890  176.3990  136.5850 C   0  0  0  0  0  2  0  0  0  0  0  0
  189.9510  177.7450  141.4080 C   0  0  0  0  0  3  0  0  0  0  0  0
  189.6100  176.8130  138.7980 C   0  0  0  0  0  0  0  0  0  0  0  0
  190.8860  176.8110  139.3820 C   0  0  0  0  0  0  0  0  0  0  0  0
  191.0540  177.2730  140.6890 C   0  0  0  0  0  3  0  0  0  0  0  0
  191.9390  176.0700  137.3630 C   0  0  0  0  0  0  0  0  0  0  0  0
  195.9120  173.5400  136.0940 C   0  0  1  0  0  3  0  0  0  0  0  0
  195.6980  175.3490  136.1090 S   0  0  0  0  0  0  0  0  0  0  0  0
  194.7040  172.9170  136.7620 C   0  0  2  0  0  3  0  0  0  0  0  0
  194.3400  175.2630  137.3190 C   0  0  2  0  0  3  0  0  0  0  0  0
  194.2800  173.8530  137.8720 C   0  0  0  0  0  2  0  0  0  0  0  0
  195.0310  171.5650  137.3020 C   0  0  0  0  0  0  0  0  0  0  0  0
  194.8860  170.4330  136.5090 O   0  0  0  0  0  0  0  0  0  0  0  0
  195.4190  171.4480  138.4910 O   0  0  0  0  0  1  0  0  0  0  0  0
  196.0130  173.0920  134.7750 O   0  0  0  0  0  0  0  0  0  0  0  0
  197.3190  172.6140  134.6600 C   0  0  0  0  0  1  0  0  0  0  0  0
  187.5160  178.2450  141.6250 C   0  0  0  0  0  0  0  0  0  0  0  0
  186.8640  179.2380  141.1970 O   0  0  0  0  0  0  0  0  0  0  0  0
  187.6490  176.4470  143.2640 O   0  0  0  0  0  1  0  0  0  0  0  0
  187.1150  177.6250  142.8620 N   0  0  0  0  0  0  0  0  0  0  0  0
  186.0300  178.1970  143.6500 C   0  0  0  0  0  2  0  0  0  0  0  0
  186.2600  177.9610  145.1380 C   0  0  0  0  0  2  0  0  0  0  0  0
  185.7770  179.2620  147.2450 N   0  0  0  0  0  1  0  0  0  0  0  0
  184.1320  179.0000  145.5910 N   0  0  0  0  0  2  0  0  0  0  0  0
  185.3520  178.8060  145.9660 C   0  0  0  0  0  0  0  0  0  0  0  0
  1  9  1  0  0  0  0
  2  3  1  0  0  0  0
  3  7  2  0  0  0  0
  3 22  1  0  0  0  0
  4  8  1  0  0  0  0
  5 11  1  0  0  0  0
  6 11  1  0  0  0  0
  6  4  1  0  0  0  0
  8  9  1  0  0  0  0
  8  2  2  0  0  0  0
  9 10  2  0  0  0  0
 10  7  1  0  0  0  0
 11  1  2  0  0  0  0
 12 20  1  6  0  0  0
 12 13  1  0  0  0  0
 12 14  1  0  0  0  0
 13 15  1  0  0  0  0
 14 17  1  1  0  0  0
 14 16  1  0  0  0  0
 15  5  1  6  0  0  0
 15 16  1  0  0  0  0
 17 19  1  0  0  0  0
 18 17  2  0  0  0  0
 21 20  1  0  0  0  0
 22 25  1  0  0  0  0
 23 22  2  0  0  0  0
 25 24  1  0  0  0  0
 25 26  1  0  0  0  0
 26 27  1  0  0  0  0
 27 30  1  0  0  0  0
 29 30  2  0  0  0  0
 30 28  1  0  0  0  0
M  END
>  <MODEL>
6

>  <REMARK>
 VINA RESULT:      -6.7      8.623     11.770
  Name = 
  7 active torsions:
  status: ('A' for Active; 'I' for Inactive)
    1  A    between atoms: C_1  and  C_5
    2  A    between atoms: C_3  and  C_19
    3  A    between atoms: C_3  and  C_21
    4  A    between atoms: C_6  and  O_17
    5  A    between atoms: N_8  and  C_27
    6  A    between atoms: C_16  and  C_18
    7  A    between atoms: C_21  and  N_29
                            x       y       z     vdW  Elec       q    Type
                         _______ _______ _______ _____ _____    ______ ____

>  <TORSDO>
F 7

$$$$
=
 OpenBabel11062413283D

 30 32  0  0  1  0  0  0  0  0999 V2000
  189.5660  176.9880  142.0650 N   0  0  0  0  0  0  0  0  0  0  0  0
  192.7000  177.1590  140.0430 C   0  0  0  0  0  3  0  0  0  0  0  0
  192.2880  176.5840  138.8310 C   0  0  0  0  0  0  0  0  0  0  0  0
  192.2610  177.8450  142.4210 C   0  0  0  0  0  2  0  0  0  0  0  0
  188.9070  177.8190  144.1850 N   0  0  0  0  0  2  0  0  0  0  0  0
  191.1110  178.5260  143.1680 C   0  0  0  0  0  2  0  0  0  0  0  0
  190.9650  176.1260  138.7150 C   0  0  0  0  0  3  0  0  0  0  0  0
  191.8020  177.3060  141.1020 C   0  0  0  0  0  0  0  0  0  0  0  0
  190.4820  176.8500  140.9720 C   0  0  0  0  0  0  0  0  0  0  0  0
  190.0660  176.2560  139.7780 C   0  0  0  0  0  3  0  0  0  0  0  0
  189.8490  177.7030  143.1180 C   0  0  0  0  0  0  0  0  0  0  0  0
  185.4530  178.4310  143.7200 C   0  0  1  0  0  3  0  0  0  0  0  0
  186.6700  177.4920  142.7450 S   0  0  0  0  0  0  0  0  0  0  0  0
  186.0380  178.6750  145.0960 C   0  0  2  0  0  3  0  0  0  0  0  0
  187.6550  177.0750  144.2180 C   0  0  2  0  0  3  0  0  0  0  0  0
  186.8570  177.4540  145.4510 C   0  0  0  0  0  2  0  0  0  0  0  0
  184.9580  178.9020  146.1010 C   0  0  0  0  0  0  0  0  0  0  0  0
  183.6280  178.9810  145.7060 O   0  0  0  0  0  0  0  0  0  0  0  0
  185.2590  179.0460  147.3130 O   0  0  0  0  0  1  0  0  0  0  0  0
  185.1900  179.6500  143.0900 O   0  0  0  0  0  0  0  0  0  0  0  0
  185.2870  179.3750  141.7260 C   0  0  0  0  0  1  0  0  0  0  0  0
  193.2240  176.4150  137.6940 C   0  0  0  0  0  0  0  0  0  0  0  0
  193.8960  177.4130  137.3110 O   0  0  0  0  0  0  0  0  0  0  0  0
  192.8500  174.0140  137.5070 O   0  0  0  0  0  1  0  0  0  0  0  0
  193.3920  175.1550  137.0170 N   0  0  0  0  0  0  0  0  0  0  0  0
  194.2570  175.0620  135.8470 C   0  0  0  0  0  2  0  0  0  0  0  0
  195.4780  174.2000  136.1440 C   0  0  0  0  0  2  0  0  0  0  0  0
  197.3410  175.9010  136.1630 N   0  0  0  0  0  2  0  0  0  0  0  0
  196.7890  174.7020  138.1050 N   0  0  0  0  0  1  0  0  0  0  0  0
  196.5240  174.9750  136.8710 C   0  0  0  0  0  0  0  0  0  0  0  0
  1 11  2  0  0  0  0
  2  8  1  0  0  0  0
  3  2  2  0  0  0  0
  4  6  1  0  0  0  0
  7  3  1  0  0  0  0
  7 10  2  0  0  0  0
  8  4  1  0  0  0  0
  9  8  2  0  0  0  0
  9  1  1  0  0  0  0
 10  9  1  0  0  0  0
 11  6  1  0  0  0  0
 11  5  1  0  0  0  0
 12 20  1  6  0  0  0
 12 14  1  0  0  0  0
 13 12  1  0  0  0  0
 13 15  1  0  0  0  0
 14 16  1  0  0  0  0
 14 17  1  1  0  0  0
 15  5  1  6  0  0  0
 15 16  1  0  0  0  0
 17 19  1  0  0  0  0
 18 17  2  0  0  0  0
 21 20  1  0  0  0  0
 22  3  1  0  0  0  0
 23 22  2  0  0  0  0
 25 24  1  0  0  0  0
 25 22  1  0  0  0  0
 26 27  1  0  0  0  0
 26 25  1  0  0  0  0
 27 30  1  0  0  0  0
 28 30  2  0  0  0  0
 30 29  1  0  0  0  0
M  END
>  <MODEL>
7

>  <REMARK>
 VINA RESULT:      -6.7      7.092      9.942
  Name = 
  7 active torsions:
  status: ('A' for Active; 'I' for Inactive)
    1  A    between atoms: C_1  and  C_5
    2  A    between atoms: C_3  and  C_19
    3  A    between atoms: C_3  and  C_21
    4  A    between atoms: C_6  and  O_17
    5  A    between atoms: N_8  and  C_27
    6  A    between atoms: C_16  and  C_18
    7  A    between atoms: C_21  and  N_29
                            x       y       z     vdW  Elec       q    Type
                         _______ _______ _______ _____ _____    ______ ____

>  <TORSDO>
F 7

$$$$
=
 OpenBabel11062413283D

 30 32  0  0  1  0  0  0  0  0999 V2000
  187.4550  177.9350  138.5010 N   0  0  0  0  0  0  0  0  0  0  0  0
  190.9090  176.7630  139.2990 C   0  0  0  0  0  3  0  0  0  0  0  0
  191.4430  176.5600  138.0170 C   0  0  0  0  0  0  0  0  0  0  0  0
  189.0060  177.3690  140.8240 C   0  0  0  0  0  2  0  0  0  0  0  0
  185.6530  178.7960  139.7790 N   0  0  0  0  0  2  0  0  0  0  0  0
  187.9210  178.4500  140.8430 C   0  0  0  0  0  2  0  0  0  0  0  0
  190.6280  176.8000  136.8980 C   0  0  0  0  0  3  0  0  0  0  0  0
  189.6030  177.2300  139.4590 C   0  0  0  0  0  0  0  0  0  0  0  0
  188.8000  177.4710  138.3330 C   0  0  0  0  0  0  0  0  0  0  0  0
  189.3140  177.2520  137.0530 C   0  0  0  0  0  3  0  0  0  0  0  0
  187.0000  178.3360  139.6550 C   0  0  0  0  0  0  0  0  0  0  0  0
  182.1720  178.3460  139.3300 C   0  0  1  0  0  3  0  0  0  0  0  0
  183.2610  179.7860  139.0860 S   0  0  0  0  0  0  0  0  0  0  0  0
  183.0410  177.1090  139.4270 C   0  0  2  0  0  3  0  0  0  0  0  0
  184.6950  178.7390  138.6830 C   0  0  2  0  0  3  0  0  0  0  0  0
  184.2100  177.3150  138.4900 C   0  0  0  0  0  2  0  0  0  0  0  0
  182.2710  175.8860  139.0550 C   0  0  0  0  0  0  0  0  0  0  0  0
  181.2130  175.4500  139.8440 O   0  0  0  0  0  1  0  0  0  0  0  0
  182.5970  175.2340  138.0310 O   0  0  0  0  0  0  0  0  0  0  0  0
  181.4400  178.5080  140.5090 O   0  0  0  0  0  0  0  0  0  0  0  0
  182.4030  178.6420  141.5100 C   0  0  0  0  0  1  0  0  0  0  0  0
  192.8260  176.0630  137.8220 C   0  0  0  0  0  0  0  0  0  0  0  0
  193.7810  176.8850  137.9030 O   0  0  0  0  0  0  0  0  0  0  0  0
  192.1560  173.7260  137.6460 O   0  0  0  0  0  1  0  0  0  0  0  0
  193.1140  174.6790  137.5470 N   0  0  0  0  0  0  0  0  0  0  0  0
  194.4830  174.2570  137.2740 C   0  0  0  0  0  2  0  0  0  0  0  0
  195.1220  173.6560  138.5200 C   0  0  0  0  0  2  0  0  0  0  0  0
  196.0100  175.3020  140.2140 N   0  0  0  0  0  1  0  0  0  0  0  0
  197.2940  174.6900  138.3460 N   0  0  0  0  0  2  0  0  0  0  0  0
  196.2160  174.5260  139.0390 C   0  0  0  0  0  0  0  0  0  0  0  0
  1 11  2  0  0  0  0
  2  8  1  0  0  0  0
  3  2  2  0  0  0  0
  4  6  1  0  0  0  0
  7 10  2  0  0  0  0
  7  3  1  0  0  0  0
  8  4  1  0  0  0  0
  9  1  1  0  0  0  0
  9  8  2  0  0  0  0
 10  9  1  0  0  0  0
 11  5  1  0  0  0  0
 11  6  1  0  0  0  0
 12 14  1  0  0  0  0
 12 20  1  1  0  0  0
 13 12  1  0  0  0  0
 14 17  1  6  0  0  0
 15 13  1  0  0  0  0
 15  5  1  1  0  0  0
 16 15  1  0  0  0  0
 16 14  1  0  0  0  0
 17 18  1  0  0  0  0
 19 17  2  0  0  0  0
 20 21  1  0  0  0  0
 22 23  2  0  0  0  0
 22  3  1  0  0  0  0
 25 24  1  0  0  0  0
 25 22  1  0  0  0  0
 26 25  1  0  0  0  0
 26 27  1  0  0  0  0
 27 30  1  0  0  0  0
 29 30  2  0  0  0  0
 30 28  1  0  0  0  0
M  END
>  <MODEL>
8

>  <REMARK>
 VINA RESULT:      -6.6      6.660      8.205
  Name = 
  7 active torsions:
  status: ('A' for Active; 'I' for Inactive)
    1  A    between atoms: C_1  and  C_5
    2  A    between atoms: C_3  and  C_19
    3  A    between atoms: C_3  and  C_21
    4  A    between atoms: C_6  and  O_17
    5  A    between atoms: N_8  and  C_27
    6  A    between atoms: C_16  and  C_18
    7  A    between atoms: C_21  and  N_29
                            x       y       z     vdW  Elec       q    Type
                         _______ _______ _______ _____ _____    ______ ____

>  <TORSDO>
F 7

$$$$
=
 OpenBabel11062413283D

 30 32  0  0  1  0  0  0  0  0999 V2000
  182.0140  178.7230  141.6390 N   0  0  0  0  0  0  0  0  0  0  0  0
  183.4760  178.7790  145.0740 C   0  0  0  0  0  3  0  0  0  0  0  0
  184.8510  178.7670  144.7980 C   0  0  0  0  0  0  0  0  0  0  0  0
  181.0760  178.7120  144.3300 C   0  0  0  0  0  2  0  0  0  0  0  0
  179.8220  178.9300  140.7600 N   0  0  0  0  0  2  0  0  0  0  0  0
  180.2590  179.3660  143.2120 C   0  0  0  0  0  2  0  0  0  0  0  0
  185.2720  178.7180  143.4580 C   0  0  0  0  0  3  0  0  0  0  0  0
  182.5420  178.7800  144.0360 C   0  0  0  0  0  0  0  0  0  0  0  0
  182.9750  178.7380  142.7020 C   0  0  0  0  0  0  0  0  0  0  0  0
  184.3410  178.7030  142.4150 C   0  0  0  0  0  3  0  0  0  0  0  0
  180.7470  178.9490  141.8480 C   0  0  0  0  0  0  0  0  0  0  0  0
  182.3070  179.7660  138.3830 C   0  0  1  0  0  3  0  0  0  0  0  0
  181.9980  178.2530  139.3490 S   0  0  0  0  0  0  0  0  0  0  0  0
  181.0580  180.6210  138.4350 C   0  0  2  0  0  3  0  0  0  0  0  0
  180.2030  178.5540  139.4050 C   0  0  2  0  0  3  0  0  0  0  0  0
  179.8760  179.6780  138.4420 C   0  0  0  0  0  2  0  0  0  0  0  0
  180.9950  181.5440  137.2640 C   0  0  0  0  0  0  0  0  0  0  0  0
  181.1510  182.9150  137.4350 O   0  0  0  0  0  1  0  0  0  0  0  0
  180.7770  181.0790  136.1170 O   0  0  0  0  0  0  0  0  0  0  0  0
  183.3850  180.4620  138.9360 O   0  0  0  0  0  0  0  0  0  0  0  0
  184.4190  179.5270  138.9960 C   0  0  0  0  0  1  0  0  0  0  0  0
  185.8610  178.7620  145.8830 C   0  0  0  0  0  0  0  0  0  0  0  0
  185.6690  179.4990  146.8900 O   0  0  0  0  0  0  0  0  0  0  0  0
  187.2060  176.9990  144.8730 O   0  0  0  0  0  1  0  0  0  0  0  0
  187.0480  177.9480  145.8270 N   0  0  0  0  0  0  0  0  0  0  0  0
  188.0540  178.0470  146.8770 C   0  0  0  0  0  2  0  0  0  0  0  0
  189.0050  176.8580  146.8280 C   0  0  0  0  0  2  0  0  0  0  0  0
  190.4900  177.9300  145.0930 N   0  0  0  0  0  2  0  0  0  0  0  0
  191.4120  176.8840  146.9820 N   0  0  0  0  0  1  0  0  0  0  0  0
  190.3560  177.2640  146.3430 C   0  0  0  0  0  0  0  0  0  0  0  0
  1 11  2  0  0  0  0
  1  9  1  0  0  0  0
  3  2  1  0  0  0  0
  3 22  1  0  0  0  0
  5 11  1  0  0  0  0
  6  4  1  0  0  0  0
  7  3  2  0  0  0  0
  8  4  1  0  0  0  0
  8  2  2  0  0  0  0
  9  8  1  0  0  0  0
 10  9  2  0  0  0  0
 10  7  1  0  0  0  0
 11  6  1  0  0  0  0
 12 14  1  0  0  0  0
 12 20  1  1  0  0  0
 12 13  1  0  0  0  0
 13 15  1  0  0  0  0
 14 17  1  6  0  0  0
 14 16  1  0  0  0  0
 15  5  1  1  0  0  0
 16 15  1  0  0  0  0
 17 18  1  0  0  0  0
 19 17  2  0  0  0  0
 20 21  1  0  0  0  0
 22 23  2  0  0  0  0
 24 25  1  0  0  0  0
 25 22  1  0  0  0  0
 25 26  1  0  0  0  0
 27 26  1  0  0  0  0
 28 30  2  0  0  0  0
 30 27  1  0  0  0  0
 30 29  1  0  0  0  0
M  END
>  <MODEL>
9

>  <REMARK>
 VINA RESULT:      -6.6      1.541      2.452
  Name = 
  7 active torsions:
  status: ('A' for Active; 'I' for Inactive)
    1  A    between atoms: C_1  and  C_5
    2  A    between atoms: C_3  and  C_19
    3  A    between atoms: C_3  and  C_21
    4  A    between atoms: C_6  and  O_17
    5  A    between atoms: N_8  and  C_27
    6  A    between atoms: C_16  and  C_18
    7  A    between atoms: C_21  and  N_29
                            x       y       z     vdW  Elec       q    Type
                         _______ _______ _______ _____ _____    ______ ____

>  <TORSDO>
F 7

$$$$
