=
 OpenBabel11062416233D

 29 32  0  0  1  0  0  0  0  0999 V2000
  191.0770  176.4470  141.7350 O   0  0  0  0  0  1  0  0  0  0  0  0
  188.3470  178.1590  139.7450 S   0  0  0  0  0  0  0  0  0  0  0  0
  189.6490  177.1330  139.8870 C   0  0  0  0  0  0  0  0  0  0  0  0
  189.2750  178.1380  143.4270 N   0  0  0  0  0  2  0  0  0  0  0  0
  189.1510  177.9850  142.0090 C   0  0  0  0  0  0  0  0  0  0  0  0
  188.1780  178.6440  141.3280 N   0  0  0  0  0  0  0  0  0  0  0  0
  189.9940  177.1540  141.2280 C   0  0  0  0  0  0  0  0  0  0  0  0
  190.2490  176.3480  138.8470 C   0  0  0  0  0  0  0  0  0  0  0  0
  190.7570  175.7090  137.9600 C   0  0  0  0  0  0  0  0  0  0  0  0
  191.8650  175.9140  135.7950 C   0  0  0  0  0  2  0  0  0  0  0  0
  196.2790  175.0940  135.6750 S   0  0  0  0  0  0  0  0  0  0  0  0
  193.2980  176.0460  135.9860 N   0  0  1  0  0  0  0  0  0  0  0  0
  195.4360  176.5710  134.9790 C   0  0  0  0  0  2  0  0  0  0  0  0
  192.6310  174.2700  137.3920 C   0  0  0  0  0  2  0  0  0  0  0  0
  193.6960  174.7260  136.4280 C   0  0  2  0  0  3  0  0  0  0  0  0
  191.3770  174.9510  136.8720 C   0  0  1  0  0  3  0  0  0  0  0  0
  193.9560  176.2980  134.7140 C   0  0  0  0  0  2  0  0  0  0  0  0
  195.0850  174.7940  137.0290 C   0  0  0  0  0  2  0  0  0  0  0  0
  189.9410  177.1690  144.2860 C   0  0  1  0  0  3  0  0  0  0  0  0
  191.7610  178.8800  144.2210 O   0  0  0  0  0  0  0  0  0  0  0  0
  191.2000  177.7600  144.8220 C   0  0  0  0  0  0  0  0  0  0  0  0
  191.7610  177.2380  145.8190 O   0  0  0  0  0  1  0  0  0  0  0  0
  189.0960  176.8260  145.3460 O   0  0  0  0  0  0  0  0  0  0  0  0
  188.2800  177.9430  145.5430 C   0  0  0  0  0  2  0  0  0  0  0  0
  185.7080  177.7840  145.6890 C   0  0  2  0  0  3  0  0  0  0  0  0
  186.2390  178.7790  146.7020 C   0  0  0  0  0  2  0  0  0  0  0  0
  187.0610  177.5480  146.3710 C   0  0  2  0  0  3  0  0  0  0  0  0
  185.7810  178.3850  144.2910 C   0  0  0  0  0  2  0  0  0  0  0  0
  184.5890  178.1390  143.6110 O   0  0  0  0  0  1  0  0  0  0  0  0
  2  3  1  0  0  0  0
  2  6  1  0  0  0  0
  3  7  2  0  0  0  0
  5  4  1  0  0  0  0
  6  5  2  0  0  0  0
  7  1  1  0  0  0  0
  7  5  1  0  0  0  0
  8  3  1  0  0  0  0
  9  8  3  0  0  0  0
 10 12  1  0  0  0  0
 10 16  1  0  0  0  0
 11 18  1  0  0  0  0
 12 17  1  6  0  0  0
 12 15  1  0  0  0  0
 13 11  1  0  0  0  0
 15 18  1  1  0  0  0
 15 14  1  0  0  0  0
 16 14  1  0  0  0  0
 16  9  1  1  0  0  0
 17 13  1  0  0  0  0
 19  4  1  6  0  0  0
 19 21  1  0  0  0  0
 19 23  1  0  0  0  0
 20 21  2  0  0  0  0
 21 22  1  0  0  0  0
 23 24  1  0  0  0  0
 25 28  1  6  0  0  0
 25 27  1  0  0  0  0
 25 26  1  0  0  0  0
 27 24  1  6  0  0  0
 27 26  1  0  0  0  0
 29 28  1  0  0  0  0
M  END
>  <MODEL>
1

>  <REMARK>
 VINA RESULT:      -7.0      0.000      0.000
  Name = 
  8 active torsions:
  status: ('A' for Active; 'I' for Inactive)
    1  A    between atoms: C_3  and  C_14
    2  A    between atoms: C_4  and  C_9
    3  A    between atoms: O_6  and  C_20
    4  A    between atoms: O_6  and  C_22
    5  A    between atoms: C_13  and  C_22
    6  A    between atoms: N_15  and  C_22
    7  A    between atoms: C_17  and  C_26
    8  A    between atoms: C_20  and  C_21
                            x       y       z     vdW  Elec       q    Type
                         _______ _______ _______ _____ _____    ______ ____

>  <TORSDO>
F 8

$$$$
=
 OpenBabel11062416233D

 29 32  0  0  1  0  0  0  0  0999 V2000
  185.1330  178.0580  142.2450 O   0  0  0  0  0  1  0  0  0  0  0  0
  184.4920  178.9720  145.8650 S   0  0  0  0  0  0  0  0  0  0  0  0
  183.9990  178.7090  144.2980 C   0  0  0  0  0  0  0  0  0  0  0  0
  187.5780  177.8440  143.9620 N   0  0  0  0  0  2  0  0  0  0  0  0
  186.2910  178.2600  144.4290 C   0  0  0  0  0  0  0  0  0  0  0  0
  186.1110  178.6130  145.7290 N   0  0  0  0  0  0  0  0  0  0  0  0
  185.1360  178.3240  143.6100 C   0  0  0  0  0  0  0  0  0  0  0  0
  182.6620  178.8060  143.7850 C   0  0  0  0  0  0  0  0  0  0  0  0
  181.5420  178.8680  143.3420 C   0  0  0  0  0  0  0  0  0  0  0  0
  179.7570  180.3790  142.6470 C   0  0  0  0  0  2  0  0  0  0  0  0
  178.9850  180.7370  138.2370 S   0  0  0  0  0  0  0  0  0  0  0  0
  179.9120  180.7120  141.2420 N   0  0  1  0  0  0  0  0  0  0  0  0
  179.2210  182.1330  139.4080 C   0  0  0  0  0  2  0  0  0  0  0  0
  180.2010  178.3720  141.3770 C   0  0  0  0  0  2  0  0  0  0  0  0
  179.5680  179.4760  140.5700 C   0  0  2  0  0  3  0  0  0  0  0  0
  180.1870  178.9240  142.7920 C   0  0  1  0  0  3  0  0  0  0  0  0
  178.9310  181.7100  140.8470 C   0  0  0  0  0  2  0  0  0  0  0  0
  180.0380  179.5370  139.1310 C   0  0  0  0  0  2  0  0  0  0  0  0
  187.7780  177.0330  142.7690 C   0  0  1  0  0  3  0  0  0  0  0  0
  189.2050  177.2800  140.7320 O   0  0  0  0  0  0  0  0  0  0  0  0
  188.3950  177.8650  141.6970 C   0  0  0  0  0  0  0  0  0  0  0  0
  188.1840  179.1050  141.6700 O   0  0  0  0  0  1  0  0  0  0  0  0
  188.6200  175.9580  143.0700 O   0  0  0  0  0  0  0  0  0  0  0  0
  189.3450  176.3620  144.1940 C   0  0  0  0  0  2  0  0  0  0  0  0
  191.7640  176.5530  145.0760 C   0  0  2  0  0  3  0  0  0  0  0  0
  191.4290  177.7280  144.1770 C   0  0  0  0  0  2  0  0  0  0  0  0
  190.8350  176.3660  143.8690 C   0  0  2  0  0  3  0  0  0  0  0  0
  191.0600  176.7170  146.4170 C   0  0  0  0  0  2  0  0  0  0  0  0
  192.0080  176.8040  147.4360 O   0  0  0  0  0  1  0  0  0  0  0  0
  1  7  1  0  0  0  0
  3  2  1  0  0  0  0
  4  5  1  0  0  0  0
  5  6  2  0  0  0  0
  6  2  1  0  0  0  0
  7  3  2  0  0  0  0
  7  5  1  0  0  0  0
  8  3  1  0  0  0  0
  9  8  3  0  0  0  0
 10 16  1  0  0  0  0
 11 18  1  0  0  0  0
 11 13  1  0  0  0  0
 12 17  1  6  0  0  0
 12 10  1  0  0  0  0
 13 17  1  0  0  0  0
 14 16  1  0  0  0  0
 15 18  1  6  0  0  0
 15 12  1  0  0  0  0
 15 14  1  0  0  0  0
 16  9  1  6  0  0  0
 19 21  1  6  0  0  0
 19 23  1  0  0  0  0
 19  4  1  0  0  0  0
 20 21  2  0  0  0  0
 22 21  1  0  0  0  0
 23 24  1  0  0  0  0
 25 28  1  1  0  0  0
 26 25  1  0  0  0  0
 27 26  1  0  0  0  0
 27 24  1  1  0  0  0
 27 25  1  0  0  0  0
 28 29  1  0  0  0  0
M  END
>  <MODEL>
2

>  <REMARK>
 VINA RESULT:      -6.9      5.789     10.107
  Name = 
  8 active torsions:
  status: ('A' for Active; 'I' for Inactive)
    1  A    between atoms: C_3  and  C_14
    2  A    between atoms: C_4  and  C_9
    3  A    between atoms: O_6  and  C_20
    4  A    between atoms: O_6  and  C_22
    5  A    between atoms: C_13  and  C_22
    6  A    between atoms: N_15  and  C_22
    7  A    between atoms: C_17  and  C_26
    8  A    between atoms: C_20  and  C_21
                            x       y       z     vdW  Elec       q    Type
                         _______ _______ _______ _____ _____    ______ ____

>  <TORSDO>
F 8

$$$$
=
 OpenBabel11062416233D

 29 32  0  0  1  0  0  0  0  0999 V2000
  190.7040  176.3430  140.8730 O   0  0  0  0  0  1  0  0  0  0  0  0
  188.9160  178.3730  138.2220 S   0  0  0  0  0  0  0  0  0  0  0  0
  190.0340  177.2440  138.7130 C   0  0  0  0  0  0  0  0  0  0  0  0
  188.5220  178.0660  141.9860 N   0  0  0  0  0  2  0  0  0  0  0  0
  188.8840  178.0060  140.6030 C   0  0  0  0  0  0  0  0  0  0  0  0
  188.2400  178.7770  139.6880 N   0  0  0  0  0  0  0  0  0  0  0  0
  189.8990  177.1600  140.0880 C   0  0  0  0  0  0  0  0  0  0  0  0
  190.9130  176.4770  137.8770 C   0  0  0  0  0  0  0  0  0  0  0  0
  191.6350  175.8160  137.1740 C   0  0  0  0  0  0  0  0  0  0  0  0
  193.7970  175.7440  136.0430 C   0  0  0  0  0  2  0  0  0  0  0  0
  196.8980  172.9740  137.7410 S   0  0  0  0  0  0  0  0  0  0  0  0
  194.7950  175.1650  136.9250 N   0  0  1  0  0  0  0  0  0  0  0  0
  197.1450  174.7460  137.3270 C   0  0  0  0  0  2  0  0  0  0  0  0
  192.9110  173.7490  137.0810 C   0  0  0  0  0  2  0  0  0  0  0  0
  194.4150  173.7690  136.9830 C   0  0  2  0  0  3  0  0  0  0  0  0
  192.4970  174.9970  136.3190 C   0  0  1  0  0  3  0  0  0  0  0  0
  196.1120  175.2340  136.3130 C   0  0  0  0  0  2  0  0  0  0  0  0
  195.1180  173.1030  138.1470 C   0  0  0  0  0  2  0  0  0  0  0  0
  188.8010  177.0010  142.9390 C   0  0  1  0  0  3  0  0  0  0  0  0
  190.1080  176.7020  145.0470 O   0  0  0  0  0  1  0  0  0  0  0  0
  189.8170  177.4670  143.9250 C   0  0  0  0  0  0  0  0  0  0  0  0
  190.4080  178.5610  143.7420 O   0  0  0  0  0  0  0  0  0  0  0  0
  187.6230  176.6520  143.6080 O   0  0  0  0  0  0  0  0  0  0  0  0
  186.9990  177.8650  143.9120 C   0  0  0  0  0  2  0  0  0  0  0  0
  184.7300  178.4950  144.9680 C   0  0  2  0  0  3  0  0  0  0  0  0
  185.8750  178.9440  145.8550 C   0  0  0  0  0  2  0  0  0  0  0  0
  186.0140  177.6610  145.0580 C   0  0  2  0  0  3  0  0  0  0  0  0
  184.6330  179.4080  143.7520 C   0  0  0  0  0  2  0  0  0  0  0  0
  183.5370  179.0390  142.9740 O   0  0  0  0  0  1  0  0  0  0  0  0
  2  3  1  0  0  0  0
  2  6  1  0  0  0  0
  3  7  2  0  0  0  0
  5  4  1  0  0  0  0
  6  5  2  0  0  0  0
  7  5  1  0  0  0  0
  7  1  1  0  0  0  0
  8  3  1  0  0  0  0
  9  8  3  0  0  0  0
 10 16  1  0  0  0  0
 11 18  1  0  0  0  0
 12 10  1  6  0  0  0
 12 15  1  0  0  0  0
 13 11  1  0  0  0  0
 15 14  1  1  0  0  0
 15 18  1  0  0  0  0
 16 14  1  0  0  0  0
 16  9  1  1  0  0  0
 17 12  1  0  0  0  0
 17 13  1  0  0  0  0
 19  4  1  6  0  0  0
 19 23  1  0  0  0  0
 19 21  1  0  0  0  0
 21 20  1  0  0  0  0
 22 21  2  0  0  0  0
 23 24  1  0  0  0  0
 25 28  1  6  0  0  0
 25 27  1  0  0  0  0
 25 26  1  0  0  0  0
 27 24  1  6  0  0  0
 27 26  1  0  0  0  0
 29 28  1  0  0  0  0
M  END
>  <MODEL>
3

>  <REMARK>
 VINA RESULT:      -6.6      1.438      1.891
  Name = 
  8 active torsions:
  status: ('A' for Active; 'I' for Inactive)
    1  A    between atoms: C_3  and  C_14
    2  A    between atoms: C_4  and  C_9
    3  A    between atoms: O_6  and  C_20
    4  A    between atoms: O_6  and  C_22
    5  A    between atoms: C_13  and  C_22
    6  A    between atoms: N_15  and  C_22
    7  A    between atoms: C_17  and  C_26
    8  A    between atoms: C_20  and  C_21
                            x       y       z     vdW  Elec       q    Type
                         _______ _______ _______ _____ _____    ______ ____

>  <TORSDO>
F 8

$$$$
=
 OpenBabel11062416233D

 29 32  0  0  1  0  0  0  0  0999 V2000
  186.1520  179.1780  142.0880 O   0  0  0  0  0  1  0  0  0  0  0  0
  182.6890  178.4500  140.7380 S   0  0  0  0  0  0  0  0  0  0  0  0
  184.3310  178.6480  140.5620 C   0  0  0  0  0  0  0  0  0  0  0  0
  184.0520  179.0970  144.2220 N   0  0  0  0  0  2  0  0  0  0  0  0
  183.8010  178.9000  142.8270 C   0  0  0  0  0  0  0  0  0  0  0  0
  182.5380  178.6750  142.3800 N   0  0  0  0  0  0  0  0  0  0  0  0
  184.8120  178.9090  141.8330 C   0  0  0  0  0  0  0  0  0  0  0  0
  185.0930  178.5180  139.3530 C   0  0  0  0  0  0  0  0  0  0  0  0
  185.7500  178.3960  138.3490 C   0  0  0  0  0  0  0  0  0  0  0  0
  188.0370  178.3750  137.4990 C   0  0  0  0  0  2  0  0  0  0  0  0
  189.7250  174.3970  136.2740 S   0  0  0  0  0  0  0  0  0  0  0  0
  188.5720  177.0270  137.5580 N   0  0  1  0  0  0  0  0  0  0  0  0
  190.5320  175.6160  137.3870 C   0  0  0  0  0  2  0  0  0  0  0  0
  186.4120  176.8130  136.6290 C   0  0  0  0  0  2  0  0  0  0  0  0
  187.8370  176.3330  136.5210 C   0  0  2  0  0  3  0  0  0  0  0  0
  186.5610  178.2350  137.1420 C   0  0  1  0  0  3  0  0  0  0  0  0
  189.9750  177.0220  137.1750 C   0  0  0  0  0  2  0  0  0  0  0  0
  188.0000  174.8380  136.7010 C   0  0  0  0  0  2  0  0  0  0  0  0
  185.3520  178.8860  144.8440 C   0  0  1  0  0  3  0  0  0  0  0  0
  185.9700  179.9260  147.0310 O   0  0  0  0  0  1  0  0  0  0  0  0
  185.2190  178.9940  146.3250 C   0  0  0  0  0  0  0  0  0  0  0  0
  184.4280  178.2330  146.9380 O   0  0  0  0  0  0  0  0  0  0  0  0
  185.8310  177.6160  144.5080 O   0  0  0  0  0  0  0  0  0  0  0  0
  187.1780  177.6200  144.8810 C   0  0  0  0  0  2  0  0  0  0  0  0
  189.4780  176.6490  144.2260 C   0  0  2  0  0  3  0  0  0  0  0  0
  188.9850  177.6160  143.1660 C   0  0  0  0  0  2  0  0  0  0  0  0
  187.9800  176.7580  143.9120 C   0  0  2  0  0  3  0  0  0  0  0  0
  189.9420  177.4250  145.4520 C   0  0  0  0  0  2  0  0  0  0  0  0
  191.3250  177.3110  145.5840 O   0  0  0  0  0  1  0  0  0  0  0  0
  2  6  1  0  0  0  0
  3  2  1  0  0  0  0
  3  7  2  0  0  0  0
  5  4  1  0  0  0  0
  6  5  2  0  0  0  0
  7  1  1  0  0  0  0
  7  5  1  0  0  0  0
  8  3  1  0  0  0  0
  9  8  3  0  0  0  0
 10 12  1  0  0  0  0
 11 18  1  0  0  0  0
 11 13  1  0  0  0  0
 12 17  1  6  0  0  0
 14 16  1  0  0  0  0
 15 14  1  1  0  0  0
 15 18  1  0  0  0  0
 15 12  1  0  0  0  0
 16 10  1  0  0  0  0
 16  9  1  1  0  0  0
 17 13  1  0  0  0  0
 19  4  1  6  0  0  0
 19 21  1  0  0  0  0
 21 22  2  0  0  0  0
 21 20  1  0  0  0  0
 23 19  1  0  0  0  0
 23 24  1  0  0  0  0
 25 28  1  1  0  0  0
 26 27  1  0  0  0  0
 26 25  1  0  0  0  0
 27 25  1  0  0  0  0
 27 24  1  1  0  0  0
 28 29  1  0  0  0  0
M  END
>  <MODEL>
4

>  <REMARK>
 VINA RESULT:      -6.3      3.366      5.533
  Name = 
  8 active torsions:
  status: ('A' for Active; 'I' for Inactive)
    1  A    between atoms: C_3  and  C_14
    2  A    between atoms: C_4  and  C_9
    3  A    between atoms: O_6  and  C_20
    4  A    between atoms: O_6  and  C_22
    5  A    between atoms: C_13  and  C_22
    6  A    between atoms: N_15  and  C_22
    7  A    between atoms: C_17  and  C_26
    8  A    between atoms: C_20  and  C_21
                            x       y       z     vdW  Elec       q    Type
                         _______ _______ _______ _____ _____    ______ ____

>  <TORSDO>
F 8

$$$$
=
 OpenBabel11062416233D

 29 32  0  0  1  0  0  0  0  0999 V2000
  188.4380  176.8540  143.2410 O   0  0  0  0  0  1  0  0  0  0  0  0
  189.7510  178.1460  139.9310 S   0  0  0  0  0  0  0  0  0  0  0  0
  188.5400  177.8970  141.0440 C   0  0  0  0  0  0  0  0  0  0  0  0
  191.3930  176.4830  142.9250 N   0  0  0  0  0  2  0  0  0  0  0  0
  190.5380  177.0700  141.9390 C   0  0  0  0  0  0  0  0  0  0  0  0
  191.0440  177.4900  140.7500 N   0  0  0  0  0  0  0  0  0  0  0  0
  189.1450  177.2680  142.1180 C   0  0  0  0  0  0  0  0  0  0  0  0
  187.1680  178.3030  140.9340 C   0  0  0  0  0  0  0  0  0  0  0  0
  186.0130  178.6310  140.8220 C   0  0  0  0  0  0  0  0  0  0  0  0
  184.2890  179.1950  139.1900 C   0  0  0  0  0  2  0  0  0  0  0  0
  181.0500  176.1600  138.5080 S   0  0  0  0  0  0  0  0  0  0  0  0
  183.5930  177.9920  138.7730 N   0  0  1  0  0  0  0  0  0  0  0  0
  182.0470  176.9850  137.2050 C   0  0  0  0  0  2  0  0  0  0  0  0
  183.7270  177.8650  141.1270 C   0  0  0  0  0  2  0  0  0  0  0  0
  182.8220  177.6330  139.9450 C   0  0  2  0  0  3  0  0  0  0  0  0
  184.6090  179.0140  140.6700 C   0  0  1  0  0  3  0  0  0  0  0  0
  182.6510  178.2950  137.7070 C   0  0  0  0  0  2  0  0  0  0  0  0
  182.3350  176.2050  139.8110 C   0  0  0  0  0  2  0  0  0  0  0  0
  191.0700  176.4320  144.3440 C   0  0  1  0  0  3  0  0  0  0  0  0
  192.3180  175.6250  146.3530 O   0  0  0  0  0  1  0  0  0  0  0  0
  191.9600  175.4470  145.0220 C   0  0  0  0  0  0  0  0  0  0  0  0
  192.3940  174.4540  144.3850 O   0  0  0  0  0  0  0  0  0  0  0  0
  191.2510  177.6970  144.9110 O   0  0  0  0  0  0  0  0  0  0  0  0
  190.0030  178.0490  145.4310 C   0  0  0  0  0  2  0  0  0  0  0  0
  188.1770  177.1720  147.0300 C   0  0  2  0  0  3  0  0  0  0  0  0
  189.2500  177.9150  147.8020 C   0  0  0  0  0  2  0  0  0  0  0  0
  189.6410  177.1100  146.5760 C   0  0  2  0  0  3  0  0  0  0  0  0
  187.3050  178.1670  146.2760 C   0  0  0  0  0  2  0  0  0  0  0  0
  186.1340  177.5400  145.8530 O   0  0  0  0  0  1  0  0  0  0  0  0
  2  6  1  0  0  0  0
  2  3  1  0  0  0  0
  3  7  2  0  0  0  0
  5  7  1  0  0  0  0
  5  4  1  0  0  0  0
  6  5  2  0  0  0  0
  7  1  1  0  0  0  0
  8  3  1  0  0  0  0
  9  8  3  0  0  0  0
 10 16  1  0  0  0  0
 11 18  1  0  0  0  0
 12 17  1  6  0  0  0
 12 10  1  0  0  0  0
 12 15  1  0  0  0  0
 13 17  1  0  0  0  0
 13 11  1  0  0  0  0
 15 18  1  6  0  0  0
 15 14  1  0  0  0  0
 16  9  1  6  0  0  0
 16 14  1  0  0  0  0
 19  4  1  6  0  0  0
 19 23  1  0  0  0  0
 19 21  1  0  0  0  0
 21 20  1  0  0  0  0
 22 21  2  0  0  0  0
 23 24  1  0  0  0  0
 25 28  1  6  0  0  0
 25 26  1  0  0  0  0
 27 24  1  6  0  0  0
 27 25  1  0  0  0  0
 27 26  1  0  0  0  0
 29 28  1  0  0  0  0
M  END
>  <MODEL>
5

>  <REMARK>
 VINA RESULT:      -6.1      4.281      7.001
  Name = 
  8 active torsions:
  status: ('A' for Active; 'I' for Inactive)
    1  A    between atoms: C_3  and  C_14
    2  A    between atoms: C_4  and  C_9
    3  A    between atoms: O_6  and  C_20
    4  A    between atoms: O_6  and  C_22
    5  A    between atoms: C_13  and  C_22
    6  A    between atoms: N_15  and  C_22
    7  A    between atoms: C_17  and  C_26
    8  A    between atoms: C_20  and  C_21
                            x       y       z     vdW  Elec       q    Type
                         _______ _______ _______ _____ _____    ______ ____

>  <TORSDO>
F 8

$$$$
=
 OpenBabel11062416233D

 29 32  0  0  1  0  0  0  0  0999 V2000
  183.0480  179.3790  140.1280 O   0  0  0  0  0  1  0  0  0  0  0  0
  182.2830  175.9220  138.7840 S   0  0  0  0  0  0  0  0  0  0  0  0
  183.2190  177.2930  138.8860 C   0  0  0  0  0  0  0  0  0  0  0  0
  180.6040  178.1570  141.3540 N   0  0  0  0  0  2  0  0  0  0  0  0
  181.4110  177.5300  140.3510 C   0  0  0  0  0  0  0  0  0  0  0  0
  181.0820  176.3020  139.8710 N   0  0  0  0  0  0  0  0  0  0  0  0
  182.5840  178.1100  139.8050 C   0  0  0  0  0  0  0  0  0  0  0  0
  184.4570  177.5470  138.2050 C   0  0  0  0  0  0  0  0  0  0  0  0
  185.4970  177.7390  137.6270 C   0  0  0  0  0  0  0  0  0  0  0  0
  187.8640  178.2530  137.9280 C   0  0  0  0  0  2  0  0  0  0  0  0
  190.7850  174.9150  137.2210 S   0  0  0  0  0  0  0  0  0  0  0  0
  188.6180  177.0240  138.0890 N   0  0  1  0  0  0  0  0  0  0  0  0
  190.7300  176.0070  138.6970 C   0  0  0  0  0  2  0  0  0  0  0  0
  187.1800  176.6500  136.2540 C   0  0  0  0  0  2  0  0  0  0  0  0
  188.5820  176.4360  136.7660 C   0  0  2  0  0  3  0  0  0  0  0  0
  186.7610  177.9490  136.9190 C   0  0  1  0  0  3  0  0  0  0  0  0
  190.0090  177.3200  138.3970 C   0  0  0  0  0  2  0  0  0  0  0  0
  188.9940  174.9810  136.8490 C   0  0  0  0  0  2  0  0  0  0  0  0
  181.0910  179.2050  142.2400 C   0  0  1  0  0  3  0  0  0  0  0  0
  179.6800  181.2300  141.8480 O   0  0  0  0  0  0  0  0  0  0  0  0
  179.9640  180.1060  142.6140 C   0  0  0  0  0  0  0  0  0  0  0  0
  179.2700  179.8490  143.6300 O   0  0  0  0  0  1  0  0  0  0  0  0
  181.6330  178.6280  143.3930 O   0  0  0  0  0  0  0  0  0  0  0  0
  182.8690  179.2540  143.5720 C   0  0  0  0  0  2  0  0  0  0  0  0
  185.1390  178.2720  144.3110 C   0  0  2  0  0  3  0  0  0  0  0  0
  185.2790  179.0030  142.9900 C   0  0  0  0  0  2  0  0  0  0  0  0
  183.9920  178.2600  143.2930 C   0  0  2  0  0  3  0  0  0  0  0  0
  184.9910  179.2800  145.4430 C   0  0  0  0  0  2  0  0  0  0  0  0
  184.5580  178.6290  146.5980 O   0  0  0  0  0  1  0  0  0  0  0  0
  2  3  1  0  0  0  0
  2  6  1  0  0  0  0
  3  7  2  0  0  0  0
  5  4  1  0  0  0  0
  6  5  2  0  0  0  0
  7  1  1  0  0  0  0
  7  5  1  0  0  0  0
  8  3  1  0  0  0  0
  9  8  3  0  0  0  0
 11 13  1  0  0  0  0
 12 10  1  6  0  0  0
 12 17  1  0  0  0  0
 14 16  1  0  0  0  0
 15 14  1  1  0  0  0
 15 18  1  0  0  0  0
 15 12  1  0  0  0  0
 16  9  1  1  0  0  0
 16 10  1  0  0  0  0
 17 13  1  0  0  0  0
 18 11  1  0  0  0  0
 19  4  1  6  0  0  0
 19 21  1  0  0  0  0
 19 23  1  0  0  0  0
 20 21  2  0  0  0  0
 21 22  1  0  0  0  0
 23 24  1  0  0  0  0
 25 28  1  1  0  0  0
 26 27  1  0  0  0  0
 26 25  1  0  0  0  0
 27 24  1  1  0  0  0
 27 25  1  0  0  0  0
 28 29  1  0  0  0  0
M  END
>  <MODEL>
6

>  <REMARK>
 VINA RESULT:      -6.0      4.524      7.110
  Name = 
  8 active torsions:
  status: ('A' for Active; 'I' for Inactive)
    1  A    between atoms: C_3  and  C_14
    2  A    between atoms: C_4  and  C_9
    3  A    between atoms: O_6  and  C_20
    4  A    between atoms: O_6  and  C_22
    5  A    between atoms: C_13  and  C_22
    6  A    between atoms: N_15  and  C_22
    7  A    between atoms: C_17  and  C_26
    8  A    between atoms: C_20  and  C_21
                            x       y       z     vdW  Elec       q    Type
                         _______ _______ _______ _____ _____    ______ ____

>  <TORSDO>
F 8

$$$$
=
 OpenBabel11062416233D

 29 32  0  0  1  0  0  0  0  0999 V2000
  188.4970  176.5160  142.8420 O   0  0  0  0  0  1  0  0  0  0  0  0
  192.0310  177.8800  142.8440 S   0  0  0  0  0  0  0  0  0  0  0  0
  190.6750  177.2930  142.0800 C   0  0  0  0  0  0  0  0  0  0  0  0
  189.4550  177.2920  145.5710 N   0  0  0  0  0  2  0  0  0  0  0  0
  190.2340  177.4000  144.3760 C   0  0  0  0  0  0  0  0  0  0  0  0
  191.5110  177.8620  144.4250 N   0  0  0  0  0  0  0  0  0  0  0  0
  189.7540  177.0580  143.0860 C   0  0  0  0  0  0  0  0  0  0  0  0
  190.4840  177.1220  140.6680 C   0  0  0  0  0  0  0  0  0  0  0  0
  190.3200  177.0020  139.4800 C   0  0  0  0  0  0  0  0  0  0  0  0
  189.3460  175.5960  137.7380 C   0  0  0  0  0  2  0  0  0  0  0  0
  185.6440  177.1280  135.7100 S   0  0  0  0  0  0  0  0  0  0  0  0
  187.9720  175.9950  137.4950 N   0  0  1  0  0  0  0  0  0  0  0  0
  185.8620  175.4550  136.4360 C   0  0  0  0  0  2  0  0  0  0  0  0
  189.2130  178.0020  137.5620 C   0  0  0  0  0  2  0  0  0  0  0  0
  188.1110  177.2760  136.8350 C   0  0  2  0  0  3  0  0  0  0  0  0
  190.1170  176.8770  138.0360 C   0  0  1  0  0  3  0  0  0  0  0  0
  187.3400  175.0850  136.5530 C   0  0  0  0  0  2  0  0  0  0  0  0
  186.7800  177.9990  136.8510 C   0  0  0  0  0  2  0  0  0  0  0  0
  187.9990  177.2600  145.5840 C   0  0  1  0  0  3  0  0  0  0  0  0
  186.4120  178.1740  147.2840 O   0  0  0  0  0  0  0  0  0  0  0  0
  187.5090  177.3760  146.9870 C   0  0  0  0  0  0  0  0  0  0  0  0
  188.0970  176.7530  147.9070 O   0  0  0  0  0  1  0  0  0  0  0  0
  187.5010  178.3230  144.8240 O   0  0  0  0  0  0  0  0  0  0  0  0
  186.2730  177.8780  144.3280 C   0  0  0  0  0  2  0  0  0  0  0  0
  184.4270  179.4410  143.4250 C   0  0  2  0  0  3  0  0  0  0  0  0
  184.5770  178.2230  142.5350 C   0  0  0  0  0  2  0  0  0  0  0  0
  185.8060  178.8040  143.2090 C   0  0  2  0  0  3  0  0  0  0  0  0
  183.7260  179.0480  144.7190 C   0  0  0  0  0  2  0  0  0  0  0  0
  182.4260  178.6280  144.4400 O   0  0  0  0  0  1  0  0  0  0  0  0
  1  7  1  0  0  0  0
  2  6  1  0  0  0  0
  3  2  1  0  0  0  0
  3  7  2  0  0  0  0
  4 19  1  0  0  0  0
  5  6  2  0  0  0  0
  5  4  1  0  0  0  0
  7  5  1  0  0  0  0
  8  3  1  0  0  0  0
  9  8  3  0  0  0  0
 10 16  1  0  0  0  0
 11 13  1  0  0  0  0
 11 18  1  0  0  0  0
 12 17  1  6  0  0  0
 12 10  1  0  0  0  0
 13 17  1  0  0  0  0
 14 16  1  0  0  0  0
 15 18  1  1  0  0  0
 15 12  1  0  0  0  0
 15 14  1  0  0  0  0
 16  9  1  1  0  0  0
 19 23  1  6  0  0  0
 19 21  1  0  0  0  0
 21 20  2  0  0  0  0
 21 22  1  0  0  0  0
 24 23  1  0  0  0  0
 25 28  1  1  0  0  0
 26 27  1  0  0  0  0
 26 25  1  0  0  0  0
 27 25  1  0  0  0  0
 27 24  1  1  0  0  0
 29 28  1  0  0  0  0
M  END
>  <MODEL>
7

>  <REMARK>
 VINA RESULT:      -6.0      3.564      4.836
  Name = 
  8 active torsions:
  status: ('A' for Active; 'I' for Inactive)
    1  A    between atoms: C_3  and  C_14
    2  A    between atoms: C_4  and  C_9
    3  A    between atoms: O_6  and  C_20
    4  A    between atoms: O_6  and  C_22
    5  A    between atoms: C_13  and  C_22
    6  A    between atoms: N_15  and  C_22
    7  A    between atoms: C_17  and  C_26
    8  A    between atoms: C_20  and  C_21
                            x       y       z     vdW  Elec       q    Type
                         _______ _______ _______ _____ _____    ______ ____

>  <TORSDO>
F 8

$$$$
=
 OpenBabel11062416233D

 29 32  0  0  1  0  0  0  0  0999 V2000
  187.3150  177.3580  142.9950 O   0  0  0  0  0  1  0  0  0  0  0  0
  190.8340  177.4920  144.3900 S   0  0  0  0  0  0  0  0  0  0  0  0
  189.7450  177.4100  143.1350 C   0  0  0  0  0  0  0  0  0  0  0  0
  187.3870  177.6710  145.9720 N   0  0  0  0  0  2  0  0  0  0  0  0
  188.5450  177.5650  145.1380 C   0  0  0  0  0  0  0  0  0  0  0  0
  189.7900  177.5830  145.6830 N   0  0  0  0  0  0  0  0  0  0  0  0
  188.4940  177.4500  143.7260 C   0  0  0  0  0  0  0  0  0  0  0  0
  190.0440  177.3660  141.7320 C   0  0  0  0  0  0  0  0  0  0  0  0
  190.2980  177.3530  140.5540 C   0  0  0  0  0  0  0  0  0  0  0  0
  191.2720  176.0380  138.7430 C   0  0  0  0  0  2  0  0  0  0  0  0
  188.4430  174.3740  135.6780 S   0  0  0  0  0  0  0  0  0  0  0  0
  190.2420  175.2350  138.1090 N   0  0  1  0  0  0  0  0  0  0  0  0
  189.7370  173.4300  136.5760 C   0  0  0  0  0  2  0  0  0  0  0  0
  189.3160  177.3950  138.3320 C   0  0  0  0  0  2  0  0  0  0  0  0
  189.4460  176.2160  137.4020 C   0  0  2  0  0  3  0  0  0  0  0  0
  190.6110  177.3580  139.1240 C   0  0  1  0  0  3  0  0  0  0  0  0
  190.8300  174.3520  137.1140 C   0  0  0  0  0  2  0  0  0  0  0  0
  188.1230  175.5970  137.0010 C   0  0  0  0  0  2  0  0  0  0  0  0
  186.0860  178.1160  145.4920 C   0  0  1  0  0  3  0  0  0  0  0  0
  185.6890  179.7530  147.3380 O   0  0  0  0  0  1  0  0  0  0  0  0
  185.2790  178.6250  146.6370 C   0  0  0  0  0  0  0  0  0  0  0  0
  184.2260  178.0280  146.9730 O   0  0  0  0  0  0  0  0  0  0  0  0
  186.2590  179.1350  144.5500 O   0  0  0  0  0  0  0  0  0  0  0  0
  184.9700  179.4670  144.1250 C   0  0  0  0  0  2  0  0  0  0  0  0
  184.4070  178.2080  141.9430 C   0  0  2  0  0  3  0  0  0  0  0  0
  183.1400  178.6900  142.6230 C   0  0  0  0  0  2  0  0  0  0  0  0
  184.3170  178.2520  143.4740 C   0  0  2  0  0  3  0  0  0  0  0  0
  185.1260  179.3870  141.3010 C   0  0  0  0  0  2  0  0  0  0  0  0
  184.5750  179.6460  140.0470 O   0  0  0  0  0  1  0  0  0  0  0  0
  1  7  1  0  0  0  0
  2  6  1  0  0  0  0
  3  7  2  0  0  0  0
  3  2  1  0  0  0  0
  5  6  2  0  0  0  0
  5  4  1  0  0  0  0
  7  5  1  0  0  0  0
  8  3  1  0  0  0  0
  9  8  3  0  0  0  0
 10 16  1  0  0  0  0
 11 13  1  0  0  0  0
 11 18  1  0  0  0  0
 12 17  1  6  0  0  0
 12 10  1  0  0  0  0
 13 17  1  0  0  0  0
 14 16  1  0  0  0  0
 15 18  1  1  0  0  0
 15 12  1  0  0  0  0
 15 14  1  0  0  0  0
 16  9  1  1  0  0  0
 19 23  1  6  0  0  0
 19  4  1  0  0  0  0
 19 21  1  0  0  0  0
 21 22  2  0  0  0  0
 21 20  1  0  0  0  0
 24 23  1  0  0  0  0
 25 28  1  6  0  0  0
 25 26  1  0  0  0  0
 25 27  1  0  0  0  0
 26 27  1  0  0  0  0
 27 24  1  6  0  0  0
 29 28  1  0  0  0  0
M  END
>  <MODEL>
8

>  <REMARK>
 VINA RESULT:      -5.9      3.308      4.753
  Name = 
  8 active torsions:
  status: ('A' for Active; 'I' for Inactive)
    1  A    between atoms: C_3  and  C_14
    2  A    between atoms: C_4  and  C_9
    3  A    between atoms: O_6  and  C_20
    4  A    between atoms: O_6  and  C_22
    5  A    between atoms: C_13  and  C_22
    6  A    between atoms: N_15  and  C_22
    7  A    between atoms: C_17  and  C_26
    8  A    between atoms: C_20  and  C_21
                            x       y       z     vdW  Elec       q    Type
                         _______ _______ _______ _____ _____    ______ ____

>  <TORSDO>
F 8

$$$$
=
 OpenBabel11062416233D

 29 32  0  0  1  0  0  0  0  0999 V2000
  186.0520  179.0020  143.0820 O   0  0  0  0  0  1  0  0  0  0  0  0
  182.3010  178.6280  142.7130 S   0  0  0  0  0  0  0  0  0  0  0  0
  183.8430  178.7180  142.0980 C   0  0  0  0  0  0  0  0  0  0  0  0
  184.6160  178.9210  145.7080 N   0  0  0  0  0  2  0  0  0  0  0  0
  183.9770  178.8440  144.4310 C   0  0  0  0  0  0  0  0  0  0  0  0
  182.6240  178.7450  144.3420 N   0  0  0  0  0  0  0  0  0  0  0  0
  184.6750  178.8510  143.1960 C   0  0  0  0  0  0  0  0  0  0  0  0
  184.2320  178.6200  140.7200 C   0  0  0  0  0  0  0  0  0  0  0  0
  184.5440  178.5560  139.5570 C   0  0  0  0  0  0  0  0  0  0  0  0
  186.4100  178.2540  138.0130 C   0  0  0  0  0  2  0  0  0  0  0  0
  186.5900  174.3720  135.7620 S   0  0  0  0  0  0  0  0  0  0  0  0
  186.5710  176.8450  137.7050 N   0  0  1  0  0  0  0  0  0  0  0  0
  187.9660  175.1350  136.7100 C   0  0  0  0  0  2  0  0  0  0  0  0
  184.2570  177.2770  137.5110 C   0  0  0  0  0  2  0  0  0  0  0  0
  185.4180  176.5530  136.8790 C   0  0  2  0  0  3  0  0  0  0  0  0
  184.9090  178.4960  138.1410 C   0  0  1  0  0  3  0  0  0  0  0  0
  187.7570  176.6370  136.8900 C   0  0  0  0  0  2  0  0  0  0  0  0
  185.2330  175.0520  136.7850 C   0  0  0  0  0  2  0  0  0  0  0  0
  186.0120  178.5710  145.9340 C   0  0  1  0  0  3  0  0  0  0  0  0
  187.2200  178.2170  148.0920 O   0  0  0  0  0  1  0  0  0  0  0  0
  186.4280  179.0290  147.2900 C   0  0  0  0  0  0  0  0  0  0  0  0
  186.0550  180.1530  147.7120 O   0  0  0  0  0  0  0  0  0  0  0  0
  186.1680  177.1850  145.8380 O   0  0  0  0  0  0  0  0  0  0  0  0
  187.1240  176.9910  144.8370 C   0  0  0  0  0  2  0  0  0  0  0  0
  189.4620  177.7690  144.0720 C   0  0  2  0  0  3  0  0  0  0  0  0
  189.5540  177.0190  145.3860 C   0  0  0  0  0  2  0  0  0  0  0  0
  188.3350  177.8780  145.1060 C   0  0  2  0  0  3  0  0  0  0  0  0
  189.2090  176.7860  142.9360 C   0  0  0  0  0  2  0  0  0  0  0  0
  190.1830  175.7890  142.9520 O   0  0  0  0  0  1  0  0  0  0  0  0
  1  7  1  0  0  0  0
  2  6  1  0  0  0  0
  3  2  1  0  0  0  0
  3  7  2  0  0  0  0
  5  4  1  0  0  0  0
  6  5  2  0  0  0  0
  7  5  1  0  0  0  0
  8  3  1  0  0  0  0
  9  8  3  0  0  0  0
 10 16  1  0  0  0  0
 11 13  1  0  0  0  0
 11 18  1  0  0  0  0
 12 17  1  6  0  0  0
 12 10  1  0  0  0  0
 13 17  1  0  0  0  0
 14 16  1  0  0  0  0
 15 18  1  1  0  0  0
 15 14  1  0  0  0  0
 15 12  1  0  0  0  0
 16  9  1  1  0  0  0
 19  4  1  1  0  0  0
 19 21  1  0  0  0  0
 21 22  2  0  0  0  0
 21 20  1  0  0  0  0
 23 19  1  0  0  0  0
 24 23  1  0  0  0  0
 25 28  1  6  0  0  0
 25 27  1  0  0  0  0
 25 26  1  0  0  0  0
 27 24  1  6  0  0  0
 27 26  1  0  0  0  0
 28 29  1  0  0  0  0
M  END
>  <MODEL>
9

>  <REMARK>
 VINA RESULT:      -5.8      4.342      6.364
  Name = 
  8 active torsions:
  status: ('A' for Active; 'I' for Inactive)
    1  A    between atoms: C_3  and  C_14
    2  A    between atoms: C_4  and  C_9
    3  A    between atoms: O_6  and  C_20
    4  A    between atoms: O_6  and  C_22
    5  A    between atoms: C_13  and  C_22
    6  A    between atoms: N_15  and  C_22
    7  A    between atoms: C_17  and  C_26
    8  A    between atoms: C_20  and  C_21
                            x       y       z     vdW  Elec       q    Type
                         _______ _______ _______ _____ _____    ______ ____

>  <TORSDO>
F 8

$$$$
