=
 OpenBabel11062413043D

 40 44  0  0  1  0  0  0  0  0999 V2000
  188.9270  178.3670  140.5980 N   0  0  0  0  0  0  0  0  0  0  0  0
  188.4330  177.6530  138.5800 C   0  0  0  0  0  0  0  0  0  0  0  0
  188.3910  176.9740  137.3290 N   0  0  0  0  0  2  0  0  0  0  0  0
  185.9750  177.6070  137.2290 C   0  0  0  0  0  3  0  0  0  0  0  0
  188.0540  172.4660  136.0430 C   0  0  0  0  0  2  0  0  0  0  0  0
  187.6590  178.6990  140.3520 N   0  0  0  0  0  2  0  0  0  0  0  0
  185.9560  173.1840  137.1850 C   0  0  0  0  0  2  0  0  0  0  0  0
  186.9910  174.6940  135.8690 C   0  0  2  0  0  3  0  0  0  0  0  0
  191.2150  175.3990  137.5850 C   0  0  0  0  0  0  0  0  0  0  0  0
  189.1980  174.4070  136.8610 O   0  0  0  0  0  0  0  0  0  0  0  0
  192.5210  175.9200  135.6240 C   0  0  0  0  0  2  0  0  0  0  0  0
  189.4170  177.7030  139.5290 C   0  0  0  0  0  0  0  0  0  0  0  0
  187.3510  178.2600  139.1160 C   0  0  0  0  0  0  0  0  0  0  0  0
  191.6830  177.3070  140.1380 O   0  0  0  0  0  0  0  0  0  0  0  0
  190.6340  175.6410  138.8680 N   0  0  0  0  0  2  0  0  0  0  0  0
  187.1810  172.2640  137.2850 C   0  0  0  0  0  2  0  0  0  0  0  0
  187.2410  177.2370  136.4610 C   0  0  2  0  0  3  0  0  0  0  0  0
  191.3800  174.5940  135.0890 S   0  0  0  0  0  0  0  0  0  0  0  0
  186.3530  174.5360  137.1120 O   0  0  0  0  0  0  0  0  0  0  0  0
  190.6530  176.9140  139.5170 C   0  0  0  0  0  0  0  0  0  0  0  0
  190.5280  174.7760  136.6470 C   0  0  0  0  0  0  0  0  0  0  0  0
  188.3400  173.9500  135.8220 C   0  0  1  0  0  3  0  0  0  0  0  0
  186.0250  178.1490  138.4610 C   0  0  0  0  0  0  0  0  0  0  0  0
  192.5190  175.9690  137.1500 C   0  0  0  0  0  2  0  0  0  0  0  0
  187.0440  176.1550  135.3910 C   0  0  0  0  0  2  0  0  0  0  0  0
  184.8290  178.5160  139.0880 O   0  0  0  0  0  0  0  0  0  0  0  0
  183.9760  177.5860  139.7510 C   0  0  0  0  0  2  0  0  0  0  0  0
  183.3860  178.2060  141.0080 C   0  0  0  0  0  2  0  0  0  0  0  0
  184.4860  178.6930  141.9450 C   0  0  0  0  0  2  0  0  0  0  0  0
  184.0390  178.5630  143.3930 C   0  0  2  0  0  3  0  0  0  0  0  0
  183.5000  179.7730  143.8420 O   0  0  0  0  0  1  0  0  0  0  0  0
  185.1980  178.1070  144.2900 C   0  0  2  0  0  3  0  0  0  0  0  0
  185.3970  179.0420  145.4820 C   0  0  0  0  0  2  0  0  0  0  0  0
  185.0760  178.3780  146.8100 C   0  0  0  0  0  1  0  0  0  0  0  0
  186.5030  177.8810  143.5320 C   0  0  0  0  0  2  0  0  0  0  0  0
  188.7150  176.9180  144.2800 C   0  0  0  0  0  0  0  0  0  0  0  0
  189.6790  176.9400  145.0940 O   0  0  0  0  0  0  0  0  0  0  0  0
  187.6210  177.8160  144.4650 N   0  0  0  0  0  2  0  0  0  0  0  0
  188.7560  175.9760  143.1230 C   0  0  0  0  0  2  0  0  0  0  0  0
  190.0760  175.7750  142.7240 O   0  0  0  0  0  1  0  0  0  0  0  0
  2 13  2  0  0  0  0
  2 12  1  0  0  0  0
  3  2  1  0  0  0  0
  4 23  2  0  0  0  0
  5 16  1  0  0  0  0
  6  1  1  0  0  0  0
  7 16  1  0  0  0  0
  8 25  1  1  0  0  0
  8 19  1  0  0  0  0
  9 15  1  0  0  0  0
 11 24  1  0  0  0  0
 12  1  2  0  0  0  0
 13  6  1  0  0  0  0
 15 20  1  0  0  0  0
 17 25  1  1  0  0  0
 17  4  1  0  0  0  0
 17  3  1  0  0  0  0
 18 11  1  0  0  0  0
 18 21  1  0  0  0  0
 19  7  1  0  0  0  0
 20 12  1  0  0  0  0
 20 14  2  0  0  0  0
 21 10  1  0  0  0  0
 21  9  2  0  0  0  0
 22  8  1  0  0  0  0
 22  5  1  1  0  0  0
 22 10  1  0  0  0  0
 23 26  1  0  0  0  0
 23 13  1  0  0  0  0
 24  9  1  0  0  0  0
 26 27  1  0  0  0  0
 27 28  1  0  0  0  0
 28 29  1  0  0  0  0
 29 30  1  0  0  0  0
 30 31  1  1  0  0  0
 30 32  1  0  0  0  0
 32 35  1  6  0  0  0
 32 33  1  0  0  0  0
 33 34  1  0  0  0  0
 35 38  1  0  0  0  0
 36 38  1  0  0  0  0
 36 37  2  0  0  0  0
 39 36  1  0  0  0  0
 40 39  1  0  0  0  0
M  END
>  <MODEL>
1

>  <REMARK>
 VINA RESULT:      -7.8      0.000      0.000
  Name = 
  10 active torsions:
  status: ('A' for Active; 'I' for Inactive)
    1  A    between atoms: C_1  and  C_4
    2  A    between atoms: C_3  and  C_31
    3  A    between atoms: C_4  and  C_11
    4  A    between atoms: C_4  and  C_16
    5  A    between atoms: C_11  and  N_36
    6  A    between atoms: C_12  and  C_14
    7  A    between atoms: C_12  and  C_23
    8  A    between atoms: C_14  and  O_25
    9  A    between atoms: C_16  and  C_23
   10  A    between atoms: O_25  and  C_37
                            x       y       z     vdW  Elec       q    Type
                         _______ _______ _______ _____ _____    ______ ____

>  <TORSDO>
F 10

$$$$
=
 OpenBabel11062413043D

 40 44  0  0  1  0  0  0  0  0999 V2000
  189.0910  178.2570  140.7240 N   0  0  0  0  0  0  0  0  0  0  0  0
  188.1670  177.7720  138.7920 C   0  0  0  0  0  0  0  0  0  0  0  0
  187.8270  177.2150  137.5260 N   0  0  0  0  0  2  0  0  0  0  0  0
  185.5120  178.0630  137.9330 C   0  0  0  0  0  3  0  0  0  0  0  0
  186.8000  172.8860  136.0100 C   0  0  0  0  0  2  0  0  0  0  0  0
  187.8420  178.7210  140.7480 N   0  0  0  0  0  2  0  0  0  0  0  0
  185.0300  173.6810  137.5780 C   0  0  0  0  0  2  0  0  0  0  0  0
  185.9570  175.2050  136.2000 C   0  0  2  0  0  3  0  0  0  0  0  0
  190.4730  175.3810  137.1270 C   0  0  0  0  0  0  0  0  0  0  0  0
  188.2660  174.6380  136.7310 O   0  0  0  0  0  0  0  0  0  0  0  0
  191.4460  175.9590  134.9950 C   0  0  0  0  0  2  0  0  0  0  0  0
  189.3080  177.6520  139.5370 C   0  0  0  0  0  0  0  0  0  0  0  0
  187.2690  178.4220  139.5660 C   0  0  0  0  0  0  0  0  0  0  0  0
  191.5940  177.0050  139.6730 O   0  0  0  0  0  0  0  0  0  0  0  0
  190.1640  175.5570  138.5110 N   0  0  0  0  0  2  0  0  0  0  0  0
  186.1520  172.6520  137.3770 C   0  0  0  0  0  2  0  0  0  0  0  0
  186.5710  177.6530  136.9140 C   0  0  2  0  0  3  0  0  0  0  0  0
  190.0960  174.7920  134.5940 S   0  0  0  0  0  0  0  0  0  0  0  0
  185.5450  174.9940  137.5280 O   0  0  0  0  0  0  0  0  0  0  0  0
  190.4320  176.7610  139.2330 C   0  0  0  0  0  0  0  0  0  0  0  0
  189.5660  174.9070  136.2940 C   0  0  0  0  0  0  0  0  0  0  0  0
  187.1910  174.3530  135.8450 C   0  0  1  0  0  3  0  0  0  0  0  0
  185.8420  178.4870  139.1690 C   0  0  0  0  0  0  0  0  0  0  0  0
  191.7270  175.8720  136.4930 C   0  0  0  0  0  2  0  0  0  0  0  0
  186.0720  176.6930  135.8270 C   0  0  0  0  0  2  0  0  0  0  0  0
  184.8250  178.9000  140.0360 O   0  0  0  0  0  0  0  0  0  0  0  0
  184.1630  178.0190  140.9430 C   0  0  0  0  0  2  0  0  0  0  0  0
  184.3150  178.5130  142.3730 C   0  0  0  0  0  2  0  0  0  0  0  0
  185.6460  178.0640  142.9670 C   0  0  0  0  0  2  0  0  0  0  0  0
  185.5500  178.0010  144.4840 C   0  0  2  0  0  3  0  0  0  0  0  0
  185.2980  179.2750  145.0040 O   0  0  0  0  0  1  0  0  0  0  0  0
  186.8220  177.3950  145.0930 C   0  0  2  0  0  3  0  0  0  0  0  0
  186.9840  177.7740  146.5640 C   0  0  0  0  0  2  0  0  0  0  0  0
  188.3630  177.4440  147.1070 C   0  0  0  0  0  1  0  0  0  0  0  0
  188.0860  177.7030  144.2950 C   0  0  0  0  0  2  0  0  0  0  0  0
  189.9640  176.2510  143.4320 C   0  0  0  0  0  0  0  0  0  0  0  0
  190.3300  175.1660  142.9040 O   0  0  0  0  0  0  0  0  0  0  0  0
  188.5730  176.4950  143.6410 N   0  0  0  0  0  2  0  0  0  0  0  0
  190.9960  177.2420  143.8570 C   0  0  0  0  0  2  0  0  0  0  0  0
  191.6510  176.7840  144.9980 O   0  0  0  0  0  1  0  0  0  0  0  0
  1  6  1  0  0  0  0
  2 12  1  0  0  0  0
  2 13  2  0  0  0  0
  3  2  1  0  0  0  0
  4 23  2  0  0  0  0
  5 16  1  0  0  0  0
  8 25  1  1  0  0  0
  8 19  1  0  0  0  0
  9 15  1  0  0  0  0
 11 24  1  0  0  0  0
 12  1  2  0  0  0  0
 13  6  1  0  0  0  0
 15 20  1  0  0  0  0
 16  7  1  0  0  0  0
 17 25  1  1  0  0  0
 17  3  1  0  0  0  0
 17  4  1  0  0  0  0
 18 11  1  0  0  0  0
 18 21  1  0  0  0  0
 19  7  1  0  0  0  0
 20 12  1  0  0  0  0
 20 14  2  0  0  0  0
 21 10  1  0  0  0  0
 21  9  2  0  0  0  0
 22  5  1  1  0  0  0
 22  8  1  0  0  0  0
 22 10  1  0  0  0  0
 23 13  1  0  0  0  0
 23 26  1  0  0  0  0
 24  9  1  0  0  0  0
 26 27  1  0  0  0  0
 27 28  1  0  0  0  0
 28 29  1  0  0  0  0
 29 30  1  0  0  0  0
 30 31  1  1  0  0  0
 30 32  1  0  0  0  0
 32 35  1  6  0  0  0
 32 33  1  0  0  0  0
 33 34  1  0  0  0  0
 36 38  1  0  0  0  0
 36 39  1  0  0  0  0
 37 36  2  0  0  0  0
 38 35  1  0  0  0  0
 39 40  1  0  0  0  0
M  END
>  <MODEL>
2

>  <REMARK>
 VINA RESULT:      -7.8      1.196      1.519
  Name = 
  10 active torsions:
  status: ('A' for Active; 'I' for Inactive)
    1  A    between atoms: C_1  and  C_4
    2  A    between atoms: C_3  and  C_31
    3  A    between atoms: C_4  and  C_11
    4  A    between atoms: C_4  and  C_16
    5  A    between atoms: C_11  and  N_36
    6  A    between atoms: C_12  and  C_14
    7  A    between atoms: C_12  and  C_23
    8  A    between atoms: C_14  and  O_25
    9  A    between atoms: C_16  and  C_23
   10  A    between atoms: O_25  and  C_37
                            x       y       z     vdW  Elec       q    Type
                         _______ _______ _______ _____ _____    ______ ____

>  <TORSDO>
F 10

$$$$
=
 OpenBabel11062413043D

 40 44  0  0  1  0  0  0  0  0999 V2000
  188.1340  178.3040  141.3460 N   0  0  0  0  0  0  0  0  0  0  0  0
  186.4240  178.5660  139.9930 C   0  0  0  0  0  0  0  0  0  0  0  0
  185.5130  178.5330  138.8990 N   0  0  0  0  0  2  0  0  0  0  0  0
  183.7140  179.0060  140.5680 C   0  0  0  0  0  3  0  0  0  0  0  0
  183.4170  175.1020  136.4650 C   0  0  0  0  0  2  0  0  0  0  0  0
  187.0800  178.6410  142.0900 N   0  0  0  0  0  2  0  0  0  0  0  0
  182.5940  175.1000  138.8200 C   0  0  0  0  0  2  0  0  0  0  0  0
  183.0260  177.1000  137.8730 C   0  0  2  0  0  3  0  0  0  0  0  0
  187.4910  177.1760  136.7160 C   0  0  0  0  0  0  0  0  0  0  0  0
  185.2530  176.5140  137.0770 O   0  0  0  0  0  0  0  0  0  0  0  0
  187.5280  178.6090  134.7750 C   0  0  0  0  0  2  0  0  0  0  0  0
  187.7490  178.2310  140.0540 C   0  0  0  0  0  0  0  0  0  0  0  0
  186.0270  178.7990  141.2640 C   0  0  0  0  0  0  0  0  0  0  0  0
  189.7780  177.7280  138.9170 O   0  0  0  0  0  0  0  0  0  0  0  0
  187.8240  176.7710  138.0450 N   0  0  0  0  0  2  0  0  0  0  0  0
  183.3880  174.3060  137.7730 C   0  0  0  0  0  2  0  0  0  0  0  0
  184.1800  179.0990  139.1180 C   0  0  2  0  0  3  0  0  0  0  0  0
  186.0040  177.6140  134.5940 S   0  0  0  0  0  0  0  0  0  0  0  0
  183.1950  176.3550  139.0540 O   0  0  0  0  0  0  0  0  0  0  0  0
  188.5200  177.6050  138.9750 C   0  0  0  0  0  0  0  0  0  0  0  0
  186.2660  177.0140  136.2550 C   0  0  0  0  0  0  0  0  0  0  0  0
  183.8770  176.5360  136.7180 C   0  0  1  0  0  3  0  0  0  0  0  0
  184.5870  178.9260  141.5910 C   0  0  0  0  0  0  0  0  0  0  0  0
  188.4070  177.9540  135.8370 C   0  0  0  0  0  2  0  0  0  0  0  0
  183.1530  178.6180  138.0860 C   0  0  0  0  0  2  0  0  0  0  0  0
  184.0940  178.8980  142.9000 O   0  0  0  0  0  0  0  0  0  0  0  0
  184.5490  179.7780  143.9260 C   0  0  0  0  0  2  0  0  0  0  0  0
  184.7650  179.0160  145.2250 C   0  0  0  0  0  2  0  0  0  0  0  0
  186.0080  178.1350  145.1400 C   0  0  0  0  0  2  0  0  0  0  0  0
  186.5430  177.8460  146.5350 C   0  0  2  0  0  3  0  0  0  0  0  0
  186.4410  178.9880  147.3360 O   0  0  0  0  0  1  0  0  0  0  0  0
  187.9900  177.3380  146.4760 C   0  0  2  0  0  3  0  0  0  0  0  0
  188.7430  177.6150  147.7760 C   0  0  0  0  0  2  0  0  0  0  0  0
  190.1980  177.1820  147.7160 C   0  0  0  0  0  1  0  0  0  0  0  0
  188.7650  177.8440  145.2630 C   0  0  0  0  0  2  0  0  0  0  0  0
  190.2700  176.4960  143.7460 C   0  0  0  0  0  0  0  0  0  0  0  0
  190.4150  175.5100  142.9740 O   0  0  0  0  0  0  0  0  0  0  0  0
  188.9880  176.7550  144.3200 N   0  0  0  0  0  2  0  0  0  0  0  0
  191.4500  177.3520  144.0690 C   0  0  0  0  0  2  0  0  0  0  0  0
  191.3880  178.5370  143.3390 O   0  0  0  0  0  1  0  0  0  0  0  0
  1  6  1  0  0  0  0
  2 12  1  0  0  0  0
  2 13  2  0  0  0  0
  3 17  1  0  0  0  0
  3  2  1  0  0  0  0
  4 23  2  0  0  0  0
  5 16  1  0  0  0  0
  7 19  1  0  0  0  0
  8 25  1  1  0  0  0
  8 19  1  0  0  0  0
  9 15  1  0  0  0  0
 11 24  1  0  0  0  0
 12  1  2  0  0  0  0
 13 23  1  0  0  0  0
 13  6  1  0  0  0  0
 14 20  2  0  0  0  0
 15 20  1  0  0  0  0
 16  7  1  0  0  0  0
 17 25  1  6  0  0  0
 17  4  1  0  0  0  0
 18 11  1  0  0  0  0
 18 21  1  0  0  0  0
 20 12  1  0  0  0  0
 21  9  2  0  0  0  0
 21 10  1  0  0  0  0
 22  5  1  1  0  0  0
 22 10  1  0  0  0  0
 22  8  1  0  0  0  0
 23 26  1  0  0  0  0
 24  9  1  0  0  0  0
 26 27  1  0  0  0  0
 27 28  1  0  0  0  0
 29 28  1  0  0  0  0
 29 30  1  0  0  0  0
 30 31  1  1  0  0  0
 32 35  1  6  0  0  0
 32 30  1  0  0  0  0
 32 33  1  0  0  0  0
 34 33  1  0  0  0  0
 36 39  1  0  0  0  0
 36 38  1  0  0  0  0
 37 36  2  0  0  0  0
 38 35  1  0  0  0  0
 40 39  1  0  0  0  0
M  END
>  <MODEL>
3

>  <REMARK>
 VINA RESULT:      -7.6      2.594      3.982
  Name = 
  10 active torsions:
  status: ('A' for Active; 'I' for Inactive)
    1  A    between atoms: C_1  and  C_4
    2  A    between atoms: C_3  and  C_31
    3  A    between atoms: C_4  and  C_11
    4  A    between atoms: C_4  and  C_16
    5  A    between atoms: C_11  and  N_36
    6  A    between atoms: C_12  and  C_14
    7  A    between atoms: C_12  and  C_23
    8  A    between atoms: C_14  and  O_25
    9  A    between atoms: C_16  and  C_23
   10  A    between atoms: O_25  and  C_37
                            x       y       z     vdW  Elec       q    Type
                         _______ _______ _______ _____ _____    ______ ____

>  <TORSDO>
F 10

$$$$
=
 OpenBabel11062413043D

 40 44  0  0  1  0  0  0  0  0999 V2000
  189.0270  178.2530  140.8860 N   0  0  0  0  0  0  0  0  0  0  0  0
  188.1090  177.8410  138.9340 C   0  0  0  0  0  0  0  0  0  0  0  0
  187.7710  177.3280  137.6490 N   0  0  0  0  0  2  0  0  0  0  0  0
  185.4620  178.1850  138.0720 C   0  0  0  0  0  3  0  0  0  0  0  0
  186.7120  173.0620  135.9850 C   0  0  0  0  0  2  0  0  0  0  0  0
  187.7820  178.7270  140.9190 N   0  0  0  0  0  2  0  0  0  0  0  0
  184.9410  173.8210  137.5700 C   0  0  0  0  0  2  0  0  0  0  0  0
  185.8900  175.3810  136.2480 C   0  0  2  0  0  3  0  0  0  0  0  0
  190.4020  175.4840  137.2030 C   0  0  0  0  0  0  0  0  0  0  0  0
  188.1910  174.7760  136.7710 O   0  0  0  0  0  0  0  0  0  0  0  0
  191.3920  176.1220  135.0970 C   0  0  0  0  0  2  0  0  0  0  0  0
  189.2440  177.6850  139.6810 C   0  0  0  0  0  0  0  0  0  0  0  0
  187.2130  178.4740  139.7240 C   0  0  0  0  0  0  0  0  0  0  0  0
  191.5240  177.0130  139.8080 O   0  0  0  0  0  0  0  0  0  0  0  0
  190.0870  175.6180  138.5910 N   0  0  0  0  0  2  0  0  0  0  0  0
  186.0540  172.7890  137.3410 C   0  0  0  0  0  2  0  0  0  0  0  0
  186.5230  177.7990  137.0450 C   0  0  2  0  0  3  0  0  0  0  0  0
  190.0340  174.9820  134.6500 S   0  0  0  0  0  0  0  0  0  0  0  0
  185.4680  175.1300  137.5650 O   0  0  0  0  0  0  0  0  0  0  0  0
  190.3630  176.7940  139.3540 C   0  0  0  0  0  0  0  0  0  0  0  0
  189.4960  175.0460  136.3510 C   0  0  0  0  0  0  0  0  0  0  0  0
  187.1180  174.5300  135.8710 C   0  0  1  0  0  3  0  0  0  0  0  0
  185.7880  178.5640  139.3220 C   0  0  0  0  0  0  0  0  0  0  0  0
  191.6650  175.9830  136.5930 C   0  0  0  0  0  2  0  0  0  0  0  0
  186.0210  176.8800  135.9240 C   0  0  0  0  0  2  0  0  0  0  0  0
  184.7710  178.9580  140.1970 O   0  0  0  0  0  0  0  0  0  0  0  0
  183.9710  178.0350  140.9340 C   0  0  0  0  0  2  0  0  0  0  0  0
  183.7050  178.5610  142.3370 C   0  0  0  0  0  2  0  0  0  0  0  0
  185.0120  178.8300  143.0760 C   0  0  0  0  0  2  0  0  0  0  0  0
  184.9110  178.3470  144.5140 C   0  0  2  0  0  3  0  0  0  0  0  0
  184.1710  179.2570  145.2770 O   0  0  0  0  0  1  0  0  0  0  0  0
  186.3030  178.1200  145.1200 C   0  0  2  0  0  3  0  0  0  0  0  0
  187.1920  177.2810  144.2030 C   0  0  0  0  0  2  0  0  0  0  0  0
  188.6620  177.6460  144.3160 C   0  0  0  0  0  1  0  0  0  0  0  0
  186.2670  177.5520  146.5360 C   0  0  0  0  0  2  0  0  0  0  0  0
  188.3140  177.9510  147.9610 C   0  0  0  0  0  0  0  0  0  0  0  0
  188.9810  178.7330  148.6910 O   0  0  0  0  0  0  0  0  0  0  0  0
  187.0610  178.3840  147.4310 N   0  0  0  0  0  2  0  0  0  0  0  0
  188.8650  176.6010  147.6390 C   0  0  0  0  0  2  0  0  0  0  0  0
  190.2370  176.6930  147.4100 O   0  0  0  0  0  1  0  0  0  0  0  0
  1  6  1  0  0  0  0
  2 12  1  0  0  0  0
  2 13  2  0  0  0  0
  3  2  1  0  0  0  0
  4 23  2  0  0  0  0
  5 16  1  0  0  0  0
  8 25  1  1  0  0  0
  8 19  1  0  0  0  0
  9 15  1  0  0  0  0
 11 24  1  0  0  0  0
 12  1  2  0  0  0  0
 13  6  1  0  0  0  0
 15 20  1  0  0  0  0
 16  7  1  0  0  0  0
 17 25  1  6  0  0  0
 17  3  1  0  0  0  0
 17  4  1  0  0  0  0
 18 11  1  0  0  0  0
 18 21  1  0  0  0  0
 19  7  1  0  0  0  0
 20 12  1  0  0  0  0
 20 14  2  0  0  0  0
 21 10  1  0  0  0  0
 21  9  2  0  0  0  0
 22  5  1  1  0  0  0
 22  8  1  0  0  0  0
 22 10  1  0  0  0  0
 23 13  1  0  0  0  0
 23 26  1  0  0  0  0
 24  9  1  0  0  0  0
 26 27  1  0  0  0  0
 27 28  1  0  0  0  0
 28 29  1  0  0  0  0
 29 30  1  0  0  0  0
 30 32  1  0  0  0  0
 30 31  1  1  0  0  0
 32 33  1  6  0  0  0
 32 35  1  0  0  0  0
 33 34  1  0  0  0  0
 35 38  1  0  0  0  0
 36 37  2  0  0  0  0
 38 36  1  0  0  0  0
 39 36  1  0  0  0  0
 40 39  1  0  0  0  0
M  END
>  <MODEL>
4

>  <REMARK>
 VINA RESULT:      -7.6      1.491      2.004
  Name = 
  10 active torsions:
  status: ('A' for Active; 'I' for Inactive)
    1  A    between atoms: C_1  and  C_4
    2  A    between atoms: C_3  and  C_31
    3  A    between atoms: C_4  and  C_11
    4  A    between atoms: C_4  and  C_16
    5  A    between atoms: C_11  and  N_36
    6  A    between atoms: C_12  and  C_14
    7  A    between atoms: C_12  and  C_23
    8  A    between atoms: C_14  and  O_25
    9  A    between atoms: C_16  and  C_23
   10  A    between atoms: O_25  and  C_37
                            x       y       z     vdW  Elec       q    Type
                         _______ _______ _______ _____ _____    ______ ____

>  <TORSDO>
F 10

$$$$
=
 OpenBabel11062413043D

 40 44  0  0  1  0  0  0  0  0999 V2000
  189.1420  174.2910  137.1710 N   0  0  0  0  0  0  0  0  0  0  0  0
  187.2740  175.2130  136.4740 C   0  0  0  0  0  0  0  0  0  0  0  0
  185.9190  175.5140  136.1570 N   0  0  0  0  0  2  0  0  0  0  0  0
  186.6050  177.9170  136.1440 C   0  0  0  0  0  3  0  0  0  0  0  0
  181.9560  175.8630  138.6590 C   0  0  0  0  0  2  0  0  0  0  0  0
  189.3640  175.5990  137.0380 N   0  0  0  0  0  2  0  0  0  0  0  0
  183.5470  177.6630  139.3300 C   0  0  0  0  0  2  0  0  0  0  0  0
  183.4990  177.0780  137.1540 C   0  0  2  0  0  3  0  0  0  0  0  0
  184.6440  172.6170  136.8690 C   0  0  0  0  0  0  0  0  0  0  0  0
  183.7170  174.6820  137.5430 O   0  0  0  0  0  0  0  0  0  0  0  0
  183.4210  171.8630  134.9300 C   0  0  0  0  0  2  0  0  0  0  0  0
  187.8560  174.0330  136.8490 C   0  0  0  0  0  0  0  0  0  0  0  0
  188.2200  176.1690  136.6130 C   0  0  0  0  0  0  0  0  0  0  0  0
  187.7170  171.6670  137.0550 O   0  0  0  0  0  0  0  0  0  0  0  0
  185.8070  172.8840  137.6560 N   0  0  0  0  0  2  0  0  0  0  0  0
  182.8240  176.3940  139.8030 C   0  0  0  0  0  2  0  0  0  0  0  0
  185.6320  176.8550  135.6430 C   0  0  2  0  0  3  0  0  0  0  0  0
  182.2830  173.0120  135.7840 S   0  0  0  0  0  0  0  0  0  0  0  0
  184.3680  177.3830  138.2170 O   0  0  0  0  0  0  0  0  0  0  0  0
  187.1410  172.7890  137.1520 C   0  0  0  0  0  0  0  0  0  0  0  0
  183.6380  173.4700  136.8530 C   0  0  0  0  0  0  0  0  0  0  0  0
  182.7750  175.7350  137.3770 C   0  0  1  0  0  3  0  0  0  0  0  0
  187.8530  177.6050  136.5470 C   0  0  0  0  0  0  0  0  0  0  0  0
  184.5480  171.4970  135.8930 C   0  0  0  0  0  2  0  0  0  0  0  0
  184.1510  177.2350  135.7690 C   0  0  0  0  0  2  0  0  0  0  0  0
  188.7130  178.6330  136.9440 O   0  0  0  0  0  0  0  0  0  0  0  0
  189.1710  178.7970  138.2850 C   0  0  0  0  0  2  0  0  0  0  0  0
  188.1660  178.2120  139.2660 C   0  0  0  0  0  2  0  0  0  0  0  0
  188.8620  177.3340  140.3010 C   0  0  0  0  0  2  0  0  0  0  0  0
  188.7740  177.9750  141.6780 C   0  0  2  0  0  3  0  0  0  0  0  0
  190.0560  178.2700  142.1550 O   0  0  0  0  0  1  0  0  0  0  0  0
  188.0130  177.0740  142.6590 C   0  0  2  0  0  3  0  0  0  0  0  0
  186.8710  177.8190  143.3480 C   0  0  0  0  0  2  0  0  0  0  0  0
  185.7390  178.1670  142.3970 C   0  0  0  0  0  1  0  0  0  0  0  0
  188.9160  176.3760  143.6730 C   0  0  0  0  0  2  0  0  0  0  0  0
  189.7270  177.4110  145.8290 C   0  0  0  0  0  0  0  0  0  0  0  0
  189.4530  177.9020  146.9570 O   0  0  0  0  0  0  0  0  0  0  0  0
  188.6740  176.9050  145.0090 N   0  0  0  0  0  2  0  0  0  0  0  0
  191.1450  177.4000  145.3620 C   0  0  0  0  0  2  0  0  0  0  0  0
  191.9360  176.6990  146.2690 O   0  0  0  0  0  1  0  0  0  0  0  0
  2 13  2  0  0  0  0
  2 12  1  0  0  0  0
  3  2  1  0  0  0  0
  4 23  2  0  0  0  0
  5 16  1  0  0  0  0
  6  1  1  0  0  0  0
  7 16  1  0  0  0  0
  8 25  1  6  0  0  0
  8 22  1  0  0  0  0
  8 19  1  0  0  0  0
  9 15  1  0  0  0  0
 11 18  1  0  0  0  0
 11 24  1  0  0  0  0
 12 20  1  0  0  0  0
 12  1  2  0  0  0  0
 13  6  1  0  0  0  0
 14 20  2  0  0  0  0
 17 25  1  1  0  0  0
 17  4  1  0  0  0  0
 17  3  1  0  0  0  0
 18 21  1  0  0  0  0
 19  7  1  0  0  0  0
 20 15  1  0  0  0  0
 21  9  2  0  0  0  0
 21 10  1  0  0  0  0
 22 10  1  0  0  0  0
 22  5  1  1  0  0  0
 23 13  1  0  0  0  0
 23 26  1  0  0  0  0
 24  9  1  0  0  0  0
 26 27  1  0  0  0  0
 27 28  1  0  0  0  0
 28 29  1  0  0  0  0
 29 30  1  0  0  0  0
 30 31  1  1  0  0  0
 30 32  1  0  0  0  0
 32 33  1  1  0  0  0
 32 35  1  0  0  0  0
 34 33  1  0  0  0  0
 35 38  1  0  0  0  0
 36 37  2  0  0  0  0
 38 36  1  0  0  0  0
 39 36  1  0  0  0  0
 39 40  1  0  0  0  0
M  END
>  <MODEL>
5

>  <REMARK>
 VINA RESULT:      -6.8      2.883      5.280
  Name = 
  10 active torsions:
  status: ('A' for Active; 'I' for Inactive)
    1  A    between atoms: C_1  and  C_4
    2  A    between atoms: C_3  and  C_31
    3  A    between atoms: C_4  and  C_11
    4  A    between atoms: C_4  and  C_16
    5  A    between atoms: C_11  and  N_36
    6  A    between atoms: C_12  and  C_14
    7  A    between atoms: C_12  and  C_23
    8  A    between atoms: C_14  and  O_25
    9  A    between atoms: C_16  and  C_23
   10  A    between atoms: O_25  and  C_37
                            x       y       z     vdW  Elec       q    Type
                         _______ _______ _______ _____ _____    ______ ____

>  <TORSDO>
F 10

$$$$
=
 OpenBabel11062413043D

 40 44  0  0  1  0  0  0  0  0999 V2000
  188.6480  178.3480  140.5370 N   0  0  0  0  0  0  0  0  0  0  0  0
  188.5530  177.6610  138.4520 C   0  0  0  0  0  0  0  0  0  0  0  0
  188.7650  177.0120  137.2030 N   0  0  0  0  0  2  0  0  0  0  0  0
  186.3770  177.5380  136.6870 C   0  0  0  0  0  3  0  0  0  0  0  0
  188.8800  172.5260  135.8060 C   0  0  0  0  0  2  0  0  0  0  0  0
  187.4300  178.6290  140.0750 N   0  0  0  0  0  2  0  0  0  0  0  0
  186.5810  173.1210  136.5690 C   0  0  0  0  0  2  0  0  0  0  0  0
  187.7570  174.7070  135.4810 C   0  0  2  0  0  3  0  0  0  0  0  0
  191.5730  175.5600  137.9290 C   0  0  0  0  0  0  0  0  0  0  0  0
  189.7660  174.4960  136.8430 O   0  0  0  0  0  0  0  0  0  0  0  0
  193.1770  176.1870  136.2390 C   0  0  0  0  0  2  0  0  0  0  0  0
  189.3510  177.7330  139.5610 C   0  0  0  0  0  0  0  0  0  0  0  0
  187.3650  178.2060  138.7980 C   0  0  0  0  0  0  0  0  0  0  0  0
  191.4910  177.4250  140.5550 O   0  0  0  0  0  0  0  0  0  0  0  0
  190.7640  175.7440  139.0930 N   0  0  0  0  0  2  0  0  0  0  0  0
  187.8130  172.2550  136.8700 C   0  0  0  0  0  2  0  0  0  0  0  0
  187.7740  177.2430  136.1490 C   0  0  2  0  0  3  0  0  0  0  0  0
  192.2150  174.8250  135.4890 S   0  0  0  0  0  0  0  0  0  0  0  0
  186.9190  174.4910  136.5900 O   0  0  0  0  0  0  0  0  0  0  0  0
  190.6070  177.0010  139.7550 C   0  0  0  0  0  0  0  0  0  0  0  0
  191.0940  174.9300  136.8740 C   0  0  0  0  0  0  0  0  0  0  0  0
  189.1280  174.0260  135.6620 C   0  0  1  0  0  3  0  0  0  0  0  0
  186.1820  178.0510  137.9170 C   0  0  0  0  0  0  0  0  0  0  0  0
  192.9040  176.1990  137.7410 C   0  0  0  0  0  2  0  0  0  0  0  0
  187.8220  176.1810  135.0450 C   0  0  0  0  0  2  0  0  0  0  0  0
  184.8790  178.3480  138.3280 O   0  0  0  0  0  0  0  0  0  0  0  0
  184.5770  179.0240  139.5480 C   0  0  0  0  0  2  0  0  0  0  0  0
  183.7910  178.1140  140.4800 C   0  0  0  0  0  2  0  0  0  0  0  0
  184.4750  178.0020  141.8380 C   0  0  0  0  0  2  0  0  0  0  0  0
  184.5060  179.3600  142.5240 C   0  0  2  0  0  3  0  0  0  0  0  0
  185.7920  179.9040  142.4580 O   0  0  0  0  0  1  0  0  0  0  0  0
  184.0230  179.2540  143.9780 C   0  0  2  0  0  3  0  0  0  0  0  0
  184.8510  178.2530  144.7810 C   0  0  0  0  0  2  0  0  0  0  0  0
  184.9650  178.6280  146.2480 C   0  0  0  0  0  1  0  0  0  0  0  0
  182.5280  178.9730  144.1050 C   0  0  0  0  0  2  0  0  0  0  0  0
  180.4780  179.5380  142.7420 C   0  0  0  0  0  0  0  0  0  0  0  0
  179.8500  180.3750  142.0390 O   0  0  0  0  0  0  0  0  0  0  0  0
  181.7730  179.8720  143.2420 N   0  0  0  0  0  2  0  0  0  0  0  0
  179.8390  178.2270  143.0630 C   0  0  0  0  0  2  0  0  0  0  0  0
  179.3030  178.2650  144.3480 O   0  0  0  0  0  1  0  0  0  0  0  0
  2 13  2  0  0  0  0
  2 12  1  0  0  0  0
  3  2  1  0  0  0  0
  4 23  2  0  0  0  0
  5 16  1  0  0  0  0
  6  1  1  0  0  0  0
  7 19  1  0  0  0  0
  7 16  1  0  0  0  0
  8 25  1  1  0  0  0
  8 22  1  0  0  0  0
  8 19  1  0  0  0  0
  9 15  1  0  0  0  0
 10 21  1  0  0  0  0
 11 24  1  0  0  0  0
 12 20  1  0  0  0  0
 12  1  2  0  0  0  0
 13  6  1  0  0  0  0
 15 20  1  0  0  0  0
 17 25  1  6  0  0  0
 17  4  1  0  0  0  0
 17  3  1  0  0  0  0
 18 11  1  0  0  0  0
 18 21  1  0  0  0  0
 20 14  2  0  0  0  0
 21  9  2  0  0  0  0
 22  5  1  1  0  0  0
 22 10  1  0  0  0  0
 23 26  1  0  0  0  0
 23 13  1  0  0  0  0
 24  9  1  0  0  0  0
 26 27  1  0  0  0  0
 27 28  1  0  0  0  0
 28 29  1  0  0  0  0
 29 30  1  0  0  0  0
 30 31  1  1  0  0  0
 30 32  1  0  0  0  0
 32 35  1  6  0  0  0
 32 33  1  0  0  0  0
 33 34  1  0  0  0  0
 36 39  1  0  0  0  0
 36 38  1  0  0  0  0
 37 36  2  0  0  0  0
 38 35  1  0  0  0  0
 39 40  1  0  0  0  0
M  END
>  <MODEL>
6

>  <REMARK>
 VINA RESULT:      -6.7      1.829      3.497
  Name = 
  10 active torsions:
  status: ('A' for Active; 'I' for Inactive)
    1  A    between atoms: C_1  and  C_4
    2  A    between atoms: C_3  and  C_31
    3  A    between atoms: C_4  and  C_11
    4  A    between atoms: C_4  and  C_16
    5  A    between atoms: C_11  and  N_36
    6  A    between atoms: C_12  and  C_14
    7  A    between atoms: C_12  and  C_23
    8  A    between atoms: C_14  and  O_25
    9  A    between atoms: C_16  and  C_23
   10  A    between atoms: O_25  and  C_37
                            x       y       z     vdW  Elec       q    Type
                         _______ _______ _______ _____ _____    ______ ____

>  <TORSDO>
F 10

$$$$
=
 OpenBabel11062413043D

 40 44  0  0  1  0  0  0  0  0999 V2000
  188.3860  178.3880  140.8700 N   0  0  0  0  0  0  0  0  0  0  0  0
  188.2780  177.6980  138.7880 C   0  0  0  0  0  0  0  0  0  0  0  0
  188.4900  177.0560  137.5350 N   0  0  0  0  0  2  0  0  0  0  0  0
  186.0770  177.5010  137.0610 C   0  0  0  0  0  3  0  0  0  0  0  0
  188.7330  172.5760  136.1350 C   0  0  0  0  0  2  0  0  0  0  0  0
  187.1510  178.6280  140.4310 N   0  0  0  0  0  2  0  0  0  0  0  0
  186.4280  173.0930  136.9380 C   0  0  0  0  0  2  0  0  0  0  0  0
  187.5300  174.7180  135.8310 C   0  0  2  0  0  3  0  0  0  0  0  0
  191.3580  175.7000  138.2120 C   0  0  0  0  0  0  0  0  0  0  0  0
  189.5690  174.5750  137.1580 O   0  0  0  0  0  0  0  0  0  0  0  0
  192.9100  176.3800  136.4950 C   0  0  0  0  0  2  0  0  0  0  0  0
  189.0920  177.7980  139.8830 C   0  0  0  0  0  0  0  0  0  0  0  0
  187.0790  178.2030  139.1540 C   0  0  0  0  0  0  0  0  0  0  0  0
  191.2580  177.5620  140.8390 O   0  0  0  0  0  0  0  0  0  0  0  0
  190.5630  175.8570  139.3900 N   0  0  0  0  0  2  0  0  0  0  0  0
  187.6940  172.2690  137.2170 C   0  0  0  0  0  2  0  0  0  0  0  0
  187.4740  177.2530  136.4990 C   0  0  2  0  0  3  0  0  0  0  0  0
  191.9810  174.9860  135.7610 S   0  0  0  0  0  0  0  0  0  0  0  0
  186.7200  174.4740  136.9530 O   0  0  0  0  0  0  0  0  0  0  0  0
  190.3750  177.1080  140.0550 C   0  0  0  0  0  0  0  0  0  0  0  0
  190.8820  175.0530  137.1660 C   0  0  0  0  0  0  0  0  0  0  0  0
  188.9270  174.0830  135.9880 C   0  0  1  0  0  3  0  0  0  0  0  0
  185.8860  178.0080  138.2940 C   0  0  0  0  0  0  0  0  0  0  0  0
  192.6630  176.3840  138.0010 C   0  0  0  0  0  2  0  0  0  0  0  0
  187.5380  176.1920  135.3930 C   0  0  0  0  0  2  0  0  0  0  0  0
  184.5810  178.2610  138.7270 O   0  0  0  0  0  0  0  0  0  0  0  0
  184.1160  179.5590  139.0940 C   0  0  0  0  0  2  0  0  0  0  0  0
  182.7200  179.8010  138.5400 C   0  0  0  0  0  2  0  0  0  0  0  0
  181.6840  179.8210  139.6600 C   0  0  0  0  0  2  0  0  0  0  0  0
  181.7790  178.5470  140.4860 C   0  0  2  0  0  3  0  0  0  0  0  0
  181.3650  177.4480  139.7270 O   0  0  0  0  0  1  0  0  0  0  0  0
  180.9620  178.6670  141.7800 C   0  0  2  0  0  3  0  0  0  0  0  0
  179.7890  179.6340  141.6250 C   0  0  0  0  0  2  0  0  0  0  0  0
  179.5770  180.5010  142.8540 C   0  0  0  0  0  1  0  0  0  0  0  0
  181.8060  179.0040  143.0060 C   0  0  0  0  0  2  0  0  0  0  0  0
  184.1660  178.6250  143.8210 C   0  0  0  0  0  0  0  0  0  0  0  0
  185.3460  178.2580  143.5700 O   0  0  0  0  0  0  0  0  0  0  0  0
  183.1980  178.6420  142.7720 N   0  0  0  0  0  2  0  0  0  0  0  0
  183.8010  179.0040  145.2180 C   0  0  0  0  0  2  0  0  0  0  0  0
  184.8000  178.5920  146.0970 O   0  0  0  0  0  1  0  0  0  0  0  0
  2 13  2  0  0  0  0
  2 12  1  0  0  0  0
  3  2  1  0  0  0  0
  4 23  2  0  0  0  0
  5 16  1  0  0  0  0
  6  1  1  0  0  0  0
  7 19  1  0  0  0  0
  7 16  1  0  0  0  0
  8 25  1  1  0  0  0
  8 22  1  0  0  0  0
  8 19  1  0  0  0  0
  9 15  1  0  0  0  0
 10 21  1  0  0  0  0
 11 24  1  0  0  0  0
 12 20  1  0  0  0  0
 12  1  2  0  0  0  0
 13  6  1  0  0  0  0
 15 20  1  0  0  0  0
 17 25  1  6  0  0  0
 17  4  1  0  0  0  0
 17  3  1  0  0  0  0
 18 11  1  0  0  0  0
 18 21  1  0  0  0  0
 20 14  2  0  0  0  0
 21  9  2  0  0  0  0
 22  5  1  1  0  0  0
 22 10  1  0  0  0  0
 23 26  1  0  0  0  0
 23 13  1  0  0  0  0
 24  9  1  0  0  0  0
 26 27  1  0  0  0  0
 28 27  1  0  0  0  0
 28 29  1  0  0  0  0
 29 30  1  0  0  0  0
 30 31  1  6  0  0  0
 30 32  1  0  0  0  0
 32 33  1  6  0  0  0
 32 35  1  0  0  0  0
 33 34  1  0  0  0  0
 36 39  1  0  0  0  0
 37 36  2  0  0  0  0
 38 35  1  0  0  0  0
 38 36  1  0  0  0  0
 39 40  1  0  0  0  0
M  END
>  <MODEL>
7

>  <REMARK>
 VINA RESULT:      -6.7      1.840      3.073
  Name = 
  10 active torsions:
  status: ('A' for Active; 'I' for Inactive)
    1  A    between atoms: C_1  and  C_4
    2  A    between atoms: C_3  and  C_31
    3  A    between atoms: C_4  and  C_11
    4  A    between atoms: C_4  and  C_16
    5  A    between atoms: C_11  and  N_36
    6  A    between atoms: C_12  and  C_14
    7  A    between atoms: C_12  and  C_23
    8  A    between atoms: C_14  and  O_25
    9  A    between atoms: C_16  and  C_23
   10  A    between atoms: O_25  and  C_37
                            x       y       z     vdW  Elec       q    Type
                         _______ _______ _______ _____ _____    ______ ____

>  <TORSDO>
F 10

$$$$
=
 OpenBabel11062413043D

 40 44  0  0  1  0  0  0  0  0999 V2000
  187.0950  173.7780  137.0020 N   0  0  0  0  0  0  0  0  0  0  0  0
  186.2300  175.7870  137.2060 C   0  0  0  0  0  0  0  0  0  0  0  0
  185.3860  176.9060  137.4540 N   0  0  0  0  0  2  0  0  0  0  0  0
  187.4790  178.2540  137.6760 C   0  0  0  0  0  3  0  0  0  0  0  0
  183.0500  178.4960  141.2100 C   0  0  0  0  0  2  0  0  0  0  0  0
  188.1040  174.6470  137.0600 N   0  0  0  0  0  0  0  0  0  0  0  0
  185.5080  178.6260  141.6180 C   0  0  0  0  0  2  0  0  0  0  0  0
  184.7790  179.0560  139.5280 C   0  0  2  0  0  3  0  0  0  0  0  0
  182.6320  175.2760  137.9810 C   0  0  0  0  0  0  0  0  0  0  0  0
  183.4090  177.0500  139.3330 O   0  0  0  0  0  0  0  0  0  0  0  0
  180.9580  176.1710  136.4900 C   0  0  0  0  0  2  0  0  0  0  0  0
  185.9320  174.4550  137.1100 C   0  0  2  0  0  3  0  0  0  0  0  0
  187.5790  175.8800  137.1890 C   0  0  0  0  0  0  0  0  0  0  0  0
  184.2920  172.7460  136.8790 O   0  0  0  0  0  0  0  0  0  0  0  0
  183.7760  174.5000  138.3430 N   0  0  0  0  0  2  0  0  0  0  0  0
  184.2030  177.9460  142.0550 C   0  0  0  0  0  2  0  0  0  0  0  0
  185.9890  178.2370  137.3500 C   0  0  2  0  0  3  0  0  0  0  0  0
  181.0000  177.3350  137.9000 S   0  0  0  0  0  0  0  0  0  0  0  0
  185.7700  178.3720  140.2550 O   0  0  0  0  0  0  0  0  0  0  0  0
  184.6250  173.8530  137.3930 C   0  0  0  0  0  0  0  0  0  0  0  0
  182.4520  176.4800  138.4900 C   0  0  0  0  0  0  0  0  0  0  0  0
  183.3890  178.4180  139.7220 C   0  0  1  0  0  3  0  0  0  0  0  0
  188.2480  177.1560  137.5420 C   0  0  0  0  0  0  0  0  0  0  0  0
  181.6830  174.8910  136.9010 C   0  0  0  0  0  2  0  0  0  0  0  0
  185.1680  179.3180  138.0640 C   0  0  0  0  0  2  0  0  0  0  0  0
  189.6180  177.2530  137.8050 O   0  0  0  0  0  0  0  0  0  0  0  0
  190.2680  176.5310  138.8500 C   0  0  0  0  0  2  0  0  0  0  0  0
  190.6990  177.4750  139.9620 C   0  0  0  0  0  2  0  0  0  0  0  0
  190.5470  176.8150  141.3280 C   0  0  0  0  0  2  0  0  0  0  0  0
  189.1810  177.1350  141.9170 C   0  0  2  0  0  3  0  0  0  0  0  0
  188.8930  178.4930  141.7540 O   0  0  0  0  0  1  0  0  0  0  0  0
  189.1080  176.7270  143.3950 C   0  0  2  0  0  3  0  0  0  0  0  0
  187.6680  176.4980  143.8510 C   0  0  0  0  0  2  0  0  0  0  0  0
  187.1830  177.5620  144.8200 C   0  0  0  0  0  1  0  0  0  0  0  0
  189.8450  177.6830  144.3290 C   0  0  0  0  0  2  0  0  0  0  0  0
  191.0760  176.8320  146.3630 C   0  0  0  0  0  0  0  0  0  0  0  0
  192.0540  176.1960  146.8410 O   0  0  0  0  0  0  0  0  0  0  0  0
  190.9760  177.0060  144.9490 N   0  0  0  0  0  2  0  0  0  0  0  0
  190.0280  177.3620  147.2850 C   0  0  0  0  0  2  0  0  0  0  0  0
  189.0720  176.3770  147.5290 O   0  0  0  0  0  1  0  0  0  0  0  0
  1  6  2  0  0  0  0
  2  3  1  0  0  0  0
  5 16  1  0  0  0  0
  6 13  1  0  0  0  0
  7 16  1  0  0  0  0
  8 25  1  6  0  0  0
  8 22  1  0  0  0  0
  8 19  1  0  0  0  0
  9 15  1  0  0  0  0
  9 21  2  0  0  0  0
 10 22  1  0  0  0  0
 11 24  1  0  0  0  0
 11 18  1  0  0  0  0
 12  1  1  1  0  0  0
 12  2  1  0  0  0  0
 12 20  1  0  0  0  0
 13  2  2  0  0  0  0
 13 23  1  0  0  0  0
 14 20  2  0  0  0  0
 17  3  1  0  0  0  0
 17  4  1  1  0  0  0
 17 25  1  0  0  0  0
 18 21  1  0  0  0  0
 19  7  1  0  0  0  0
 20 15  1  0  0  0  0
 21 10  1  0  0  0  0
 22  5  1  1  0  0  0
 23  4  2  0  0  0  0
 23 26  1  0  0  0  0
 24  9  1  0  0  0  0
 26 27  1  0  0  0  0
 27 28  1  0  0  0  0
 28 29  1  0  0  0  0
 29 30  1  0  0  0  0
 30 31  1  1  0  0  0
 30 32  1  0  0  0  0
 32 33  1  1  0  0  0
 32 35  1  0  0  0  0
 33 34  1  0  0  0  0
 35 38  1  0  0  0  0
 36 37  2  0  0  0  0
 36 39  1  0  0  0  0
 38 36  1  0  0  0  0
 39 40  1  0  0  0  0
M  END
>  <MODEL>
8

>  <REMARK>
 VINA RESULT:      -6.7      3.004      6.307
  Name = 
  10 active torsions:
  status: ('A' for Active; 'I' for Inactive)
    1  A    between atoms: C_1  and  C_4
    2  A    between atoms: C_3  and  C_31
    3  A    between atoms: C_4  and  C_11
    4  A    between atoms: C_4  and  C_16
    5  A    between atoms: C_11  and  N_36
    6  A    between atoms: C_12  and  C_14
    7  A    between atoms: C_12  and  C_23
    8  A    between atoms: C_14  and  O_25
    9  A    between atoms: C_16  and  C_23
   10  A    between atoms: O_25  and  C_37
                            x       y       z     vdW  Elec       q    Type
                         _______ _______ _______ _____ _____    ______ ____

>  <TORSDO>
F 10

$$$$
=
 OpenBabel11062413043D

 40 44  0  0  1  0  0  0  0  0999 V2000
  185.2220  178.3620  139.9810 N   0  0  0  0  0  0  0  0  0  0  0  0
  183.0370  178.4330  139.7690 C   0  0  0  0  0  0  0  0  0  0  0  0
  181.6880  178.2920  139.3360 N   0  0  0  0  0  2  0  0  0  0  0  0
  181.0360  178.6370  141.7230 C   0  0  0  0  0  3  0  0  0  0  0  0
  178.9310  174.6260  138.3100 C   0  0  0  0  0  2  0  0  0  0  0  0
  184.7090  178.6180  141.1850 N   0  0  0  0  0  2  0  0  0  0  0  0
  179.5090  174.6040  140.7370 C   0  0  0  0  0  2  0  0  0  0  0  0
  179.1810  176.6120  139.7660 C   0  0  2  0  0  3  0  0  0  0  0  0
  182.2940  177.0710  136.3920 C   0  0  0  0  0  0  0  0  0  0  0  0
  180.6720  176.2150  137.8800 O   0  0  0  0  0  0  0  0  0  0  0  0
  181.1510  178.4550  134.7790 C   0  0  0  0  0  2  0  0  0  0  0  0
  184.2110  178.2240  139.0970 C   0  0  0  0  0  0  0  0  0  0  0  0
  183.3680  178.6600  141.0600 C   0  0  0  0  0  0  0  0  0  0  0  0
  185.3450  177.8820  137.0340 O   0  0  0  0  0  0  0  0  0  0  0  0
  183.3250  176.7300  137.3210 N   0  0  0  0  0  2  0  0  0  0  0  0
  179.6830  173.8620  139.4040 C   0  0  0  0  0  2  0  0  0  0  0  0
  180.6380  178.7380  140.2540 C   0  0  2  0  0  3  0  0  0  0  0  0
  179.8660  177.3200  135.4170 S   0  0  0  0  0  0  0  0  0  0  0  0
  180.0250  175.9150  140.6480 O   0  0  0  0  0  0  0  0  0  0  0  0
  184.3320  177.6460  137.7550 C   0  0  0  0  0  0  0  0  0  0  0  0
  181.0330  176.7860  136.6580 C   0  0  0  0  0  0  0  0  0  0  0  0
  179.3240  176.1020  138.3180 C   0  0  1  0  0  3  0  0  0  0  0  0
  182.3250  178.6610  142.1140 C   0  0  0  0  0  0  0  0  0  0  0  0
  182.5180  177.9090  135.1830 C   0  0  0  0  0  2  0  0  0  0  0  0
  179.2650  178.1400  139.9220 C   0  0  0  0  0  2  0  0  0  0  0  0
  182.6190  178.6190  143.4800 O   0  0  0  0  0  0  0  0  0  0  0  0
  183.5740  179.4770  144.1020 C   0  0  0  0  0  2  0  0  0  0  0  0
  184.1990  178.7930  145.3080 C   0  0  0  0  0  2  0  0  0  0  0  0
  185.6800  179.1370  145.4240 C   0  0  0  0  0  2  0  0  0  0  0  0
  186.5060  177.8670  145.5620 C   0  0  2  0  0  3  0  0  0  0  0  0
  186.9570  177.7260  146.8780 O   0  0  0  0  0  1  0  0  0  0  0  0
  187.6790  177.8610  144.5710 C   0  0  2  0  0  3  0  0  0  0  0  0
  187.3060  177.1850  143.2530 C   0  0  0  0  0  2  0  0  0  0  0  0
  188.0490  177.7670  142.0630 C   0  0  0  0  0  1  0  0  0  0  0  0
  188.9660  177.2820  145.1520 C   0  0  0  0  0  2  0  0  0  0  0  0
  191.2150  178.1110  144.3580 C   0  0  0  0  0  0  0  0  0  0  0  0
  192.0750  179.0330  144.3340 O   0  0  0  0  0  0  0  0  0  0  0  0
  190.0240  178.2830  145.1260 N   0  0  0  0  0  2  0  0  0  0  0  0
  191.4470  176.8730  143.5560 C   0  0  0  0  0  2  0  0  0  0  0  0
  191.5080  177.1920  142.2010 O   0  0  0  0  0  1  0  0  0  0  0  0
  1  6  1  0  0  0  0
  2 13  2  0  0  0  0
  3  2  1  0  0  0  0
  3 17  1  0  0  0  0
  4 23  2  0  0  0  0
  5 16  1  0  0  0  0
  8 25  1  6  0  0  0
  8 19  1  0  0  0  0
  9 21  2  0  0  0  0
  9 15  1  0  0  0  0
 10 22  1  0  0  0  0
 11 24  1  0  0  0  0
 11 18  1  0  0  0  0
 12  2  1  0  0  0  0
 12  1  2  0  0  0  0
 13  6  1  0  0  0  0
 13 23  1  0  0  0  0
 14 20  2  0  0  0  0
 15 20  1  0  0  0  0
 16  7  1  0  0  0  0
 17 25  1  1  0  0  0
 17  4  1  0  0  0  0
 18 21  1  0  0  0  0
 19  7  1  0  0  0  0
 20 12  1  0  0  0  0
 21 10  1  0  0  0  0
 22  5  1  1  0  0  0
 22  8  1  0  0  0  0
 23 26  1  0  0  0  0
 24  9  1  0  0  0  0
 26 27  1  0  0  0  0
 27 28  1  0  0  0  0
 28 29  1  0  0  0  0
 29 30  1  0  0  0  0
 30 31  1  1  0  0  0
 32 33  1  6  0  0  0
 32 35  1  0  0  0  0
 32 30  1  0  0  0  0
 34 33  1  0  0  0  0
 36 38  1  0  0  0  0
 37 36  2  0  0  0  0
 38 35  1  0  0  0  0
 39 36  1  0  0  0  0
 40 39  1  0  0  0  0
M  END
>  <MODEL>
9

>  <REMARK>
 VINA RESULT:      -6.6      4.260      6.732
  Name = 
  10 active torsions:
  status: ('A' for Active; 'I' for Inactive)
    1  A    between atoms: C_1  and  C_4
    2  A    between atoms: C_3  and  C_31
    3  A    between atoms: C_4  and  C_11
    4  A    between atoms: C_4  and  C_16
    5  A    between atoms: C_11  and  N_36
    6  A    between atoms: C_12  and  C_14
    7  A    between atoms: C_12  and  C_23
    8  A    between atoms: C_14  and  O_25
    9  A    between atoms: C_16  and  C_23
   10  A    between atoms: O_25  and  C_37
                            x       y       z     vdW  Elec       q    Type
                         _______ _______ _______ _____ _____    ______ ____

>  <TORSDO>
F 10

$$$$
