=
 OpenBabel11062412163D

 69 79  0  0  1  0  0  0  0  0999 V2000
  184.4270  177.8720  144.2770 C   0  0  0  0  0  2  0  0  0  0  0  0
  185.4670  178.3370  141.4760 C   0  0  1  0  0  3  0  0  0  0  0  0
  193.0670  175.8060  137.8510 C   0  0  0  0  0  0  0  0  0  0  0  0
  183.6190  179.9740  141.2090 O   0  0  0  0  0  1  0  0  0  0  0  0
  187.9570  178.7240  141.2850 C   0  0  1  0  0  3  0  0  0  0  0  0
  186.4650  174.3770  136.4890 C   0  0  0  0  0  2  0  0  0  0  0  0
  185.7970  175.7290  136.7720 C   0  0  0  0  0  2  0  0  0  0  0  0
  183.7470  178.9530  143.4790 C   0  0  1  0  0  3  0  0  0  0  0  0
  187.4540  178.3580  139.9200 C   0  0  1  0  0  3  0  0  0  0  0  0
  187.8850  176.6330  137.8410 C   0  0  2  0  0  3  0  0  0  0  0  0
  190.3510  176.1650  137.2220 C   0  0  1  0  0  3  0  0  0  0  0  0
  186.9150  176.7650  136.7070 C   0  0  2  0  0  0  0  0  0  0  0  0
  188.5050  176.7880  134.6050 C   0  0  0  0  0  1  0  0  0  0  0  0
  188.3760  177.5240  138.9380 C   0  0  2  0  0  3  0  0  0  0  0  0
  189.7080  177.3160  139.3410 C   0  0  0  0  0  0  0  0  0  0  0  0
  189.0160  176.2000  136.9680 N   0  0  2  0  0  0  0  0  0  0  0  0
  185.8650  178.4650  139.9590 C   0  0  1  0  0  3  0  0  0  0  0  0
  186.8990  178.1740  143.6610 C   0  0  0  0  0  0  0  0  0  0  0  0
  186.7170  178.8110  142.2670 C   0  0  2  0  0  3  0  0  0  0  0  0
  190.2200  177.8880  140.6310 C   0  0  0  0  0  2  0  0  0  0  0  0
  192.2080  176.6140  138.7960 C   0  0  0  0  0  2  0  0  0  0  0  0
  192.6730  175.5250  136.6370 N   0  0  0  0  0  0  0  0  0  0  0  0
  191.3380  175.8730  136.1590 C   0  0  0  0  0  2  0  0  0  0  0  0
  187.9210  177.6930  144.0130 O   0  0  0  0  0  0  0  0  0  0  0  0
  186.5860  178.2080  136.3000 C   0  0  0  0  0  1  0  0  0  0  0  0
  188.0240  176.1480  135.8690 C   0  0  1  0  0  0  0  0  0  0  0  0
  183.9920  178.8350  141.8980 C   0  0  2  0  0  3  0  0  0  0  0  0
  190.7620  176.5860  138.5080 C   0  0  0  0  0  0  0  0  0  0  0  0
  187.6060  174.6870  135.5690 C   0  0  0  0  0  2  0  0  0  0  0  0
  185.7990  178.3290  144.7120 C   0  0  0  0  0  2  0  0  0  0  0  0
  189.1600  177.8610  141.7100 C   0  0  0  0  0  2  0  0  0  0  0  0
  183.7970  177.1510  139.2170 C   0  0  0  0  0  2  0  0  0  0  0  0
  185.2070  177.4330  139.0230 C   0  0  1  0  0  3  0  0  0  0  0  0
  184.1730  178.0450  138.1370 N   0  0  0  0  0  0  0  0  0  0  0  0
  183.5010  179.3100  138.5120 C   0  0  0  0  0  2  0  0  0  0  0  0
  181.6480  180.7290  137.8540 O   0  0  0  0  0  1  0  0  0  0  0  0
  182.0630  179.3970  137.8870 C   0  0  1  0  0  3  0  0  0  0  0  0
  182.0220  178.7800  136.4770 C   0  0  0  0  0  2  0  0  0  0  0  0
  180.9540  177.7980  136.2170 N   0  0  0  0  0  0  0  0  0  0  0  0
  181.2070  176.4780  135.6310 C   0  0  0  0  0  0  0  0  0  0  0  0
  179.7550  177.9410  136.8460 O   0  0  0  0  0  1  0  0  0  0  0  0
  182.4550  176.2090  135.5180 O   0  0  0  0  0  0  0  0  0  0  0  0
  180.0660  175.4710  135.3880 C   0  0  0  0  0  2  0  0  0  0  0  0
  180.3870  173.9530  135.3220 C   0  0  0  0  0  2  0  0  0  0  0  0
  180.2960  173.3410  136.7900 C   0  0  0  0  0  2  0  0  0  0  0  0
  180.7140  171.8820  136.8300 N   0  0  0  0  0  0  0  0  0  0  0  0
  182.2060  171.6880  136.9400 C   0  0  0  0  0  2  0  0  0  0  0  0
  183.0930  173.0320  137.0450 C   0  0  0  0  0  1  0  0  0  0  0  0
  178.9630  170.6770  136.6730 F   0  0  0  0  0  0  0  0  0  0  0  0
  179.7900  171.2340  135.8230 C   0  0  0  0  0  2  0  0  0  0  0  0
  182.2130  179.0320  143.9720 C   0  0  0  0  0  2  0  0  0  0  0  0
  180.8350  176.9700  141.6440 C   0  0  0  0  0  2  0  0  0  0  0  0
  180.2130  179.1210  140.7430 C   0  0  1  0  0  3  0  0  0  0  0  0
  179.4790  176.8550  141.1130 C   0  0  1  0  0  3  0  0  0  0  0  0
  180.6300  180.3930  142.6680 N   0  0  0  0  0  2  0  0  0  0  0  0
  181.1600  178.4440  141.6320 N   0  0  1  0  0  0  0  0  0  0  0  0
  178.9310  178.2480  140.7890 C   0  0  0  0  0  2  0  0  0  0  0  0
  181.1920  179.2080  142.8250 C   0  0  1  0  0  3  0  0  0  0  0  0
  180.0020  180.3900  141.4150 N   0  0  0  0  0  2  0  0  0  0  0  0
  179.5640  176.2300  139.7260 C   0  0  0  0  0  2  0  0  0  0  0  0
  179.3500  174.8700  139.8060 O   0  0  0  0  0  1  0  0  0  0  0  0
  194.4070  175.4260  138.2550 O   0  0  0  0  0  0  0  0  0  0  0  0
  196.1300  175.1880  136.7740 O   0  0  0  0  0  0  0  0  0  0  0  0
  194.7150  173.2770  136.9820 C   0  0  0  0  0  2  0  0  0  0  0  0
  195.3230  173.2760  135.5970 C   0  0  0  0  0  2  0  0  0  0  0  0
  195.8690  174.6730  135.4760 C   0  0  0  0  0  2  0  0  0  0  0  0
  195.3360  174.4390  137.7100 C   0  0  2  0  0  0  0  0  0  0  0  0
  196.3000  173.9690  138.8260 C   0  0  0  0  0  2  0  0  0  0  0  0
  196.4660  174.9620  139.8080 O   0  0  0  0  0  1  0  0  0  0  0  0
  1 30  1  0  0  0  0
  2 27  1  0  0  0  0
  2 19  1  0  0  0  0
  3 62  1  0  0  0  0
  3 21  1  0  0  0  0
  4 27  1  0  0  0  0
  5 31  1  0  0  0  0
  5 19  1  0  0  0  0
  6  7  1  0  0  0  0
  8 51  1  0  0  0  0
  8  1  1  0  0  0  0
  9 17  1  0  0  0  0
  9  5  1  0  0  0  0
 10 14  1  0  0  0  0
 11 28  1  0  0  0  0
 12  7  1  0  0  0  0
 12 10  1  0  0  0  0
 13 26  1  0  0  0  0
 14 15  1  0  0  0  0
 14  9  1  0  0  0  0
 15 20  1  0  0  0  0
 16 11  1  0  0  0  0
 16 10  1  0  0  0  0
 17  2  1  0  0  0  0
 18 24  2  0  0  0  0
 18 30  1  0  0  0  0
 19 18  1  0  0  0  0
 20 31  1  0  0  0  0
 22  3  2  0  0  0  0
 23 22  1  0  0  0  0
 23 11  1  0  0  0  0
 25 12  1  0  0  0  0
 26 12  1  0  0  0  0
 26 16  1  0  0  0  0
 27  8  1  0  0  0  0
 28 21  1  0  0  0  0
 28 15  2  0  0  0  0
 29 26  1  0  0  0  0
 29  6  1  0  0  0  0
 33 32  1  0  0  0  0
 33 17  1  0  0  0  0
 34 35  1  0  0  0  0
 34 33  1  0  0  0  0
 34 32  1  0  0  0  0
 36 37  1  0  0  0  0
 37 35  1  0  0  0  0
 38 37  1  0  0  0  0
 39 38  1  0  0  0  0
 39 41  1  0  0  0  0
 40 39  1  0  0  0  0
 42 40  2  0  0  0  0
 43 40  1  0  0  0  0
 44 43  1  0  0  0  0
 44 45  1  0  0  0  0
 45 46  1  0  0  0  0
 46 47  1  0  0  0  0
 47 48  1  0  0  0  0
 50 49  1  0  0  0  0
 50 46  1  0  0  0  0
 53 57  1  0  0  0  0
 53 59  1  0  0  0  0
 53 56  1  0  0  0  0
 54 52  1  0  0  0  0
 55 58  1  0  0  0  0
 56 52  1  0  0  0  0
 56 58  1  0  0  0  0
 57 54  1  0  0  0  0
 58 51  1  0  0  0  0
 59 55  1  0  0  0  0
 60 61  1  0  0  0  0
 60 54  1  0  0  0  0
 63 67  1  0  0  0  0
 64 67  1  0  0  0  0
 65 64  1  0  0  0  0
 66 65  1  0  0  0  0
 66 63  1  0  0  0  0
 67 62  1  0  0  0  0
 67 68  1  0  0  0  0
 68 69  1  0  0  0  0
M  END
>  <MODEL>
1

>  <REMARK>
 VINA RESULT:      -5.9      0.000      0.000
  Name = 
  17 active torsions:
  status: ('A' for Active; 'I' for Inactive)
    1  A    between atoms: N_1  and  C_5
    2  A    between atoms: N_1  and  C_53
    3  A    between atoms: N_1  and  C_63
    4  A    between atoms: C_8  and  O_28
    5  A    between atoms: N_13  and  C_61
    6  A    between atoms: C_17  and  C_59
    7  A    between atoms: C_18  and  C_43
    8  A    between atoms: C_19  and  C_56
    9  A    between atoms: C_20  and  C_37
   10  A    between atoms: C_23  and  C_48
   11  A    between atoms: C_23  and  C_61
   12  A    between atoms: O_28  and  C_59
   13  A    between atoms: C_32  and  C_44
   14  A    between atoms: C_37  and  C_45
   15  A    between atoms: C_48  and  N_67
   16  A    between atoms: C_53  and  C_69
   17  A    between atoms: C_56  and  C_69
                            x       y       z     vdW  Elec       q    Type
                         _______ _______ _______ _____ _____    ______ ____

>  <TORSDO>
F 17

$$$$
=
 OpenBabel11062412163D

 69 79  0  0  1  0  0  0  0  0999 V2000
  186.6010  176.8650  144.8460 C   0  0  0  0  0  2  0  0  0  0  0  0
  187.2010  177.8320  142.0440 C   0  0  1  0  0  3  0  0  0  0  0  0
  193.9700  175.8680  136.7890 C   0  0  0  0  0  0  0  0  0  0  0  0
  185.4250  179.5310  142.3990 O   0  0  0  0  0  1  0  0  0  0  0  0
  189.6440  178.1920  141.5120 C   0  0  1  0  0  3  0  0  0  0  0  0
  187.1670  174.8750  136.3170 C   0  0  0  0  0  2  0  0  0  0  0  0
  186.6270  176.1620  136.9540 C   0  0  0  0  0  2  0  0  0  0  0  0
  185.8610  178.0930  144.3870 C   0  0  1  0  0  3  0  0  0  0  0  0
  188.9090  178.1050  140.2070 C   0  0  1  0  0  3  0  0  0  0  0  0
  188.9060  176.7990  137.8040 C   0  0  2  0  0  3  0  0  0  0  0  0
  191.2110  176.4020  136.7030 C   0  0  1  0  0  3  0  0  0  0  0  0
  187.7750  177.1670  136.8940 C   0  0  2  0  0  0  0  0  0  0  0  0
  189.0040  177.5540  134.5940 C   0  0  0  0  0  1  0  0  0  0  0  0
  189.6140  177.4520  138.9480 C   0  0  2  0  0  3  0  0  0  0  0  0
  190.9810  177.1420  139.0760 C   0  0  0  0  0  0  0  0  0  0  0  0
  189.8570  176.5140  136.6870 N   0  0  2  0  0  0  0  0  0  0  0  0
  187.3550  178.2380  140.5320 C   0  0  1  0  0  3  0  0  0  0  0  0
  188.9550  177.2220  143.8900 C   0  0  0  0  0  0  0  0  0  0  0  0
  188.5850  178.1180  142.6880 C   0  0  2  0  0  3  0  0  0  0  0  0
  191.7240  177.4450  140.3440 C   0  0  0  0  0  2  0  0  0  0  0  0
  193.3190  176.5000  137.9970 C   0  0  0  0  0  2  0  0  0  0  0  0
  193.3710  175.8320  135.6270 N   0  0  0  0  0  0  0  0  0  0  0  0
  191.9970  176.2960  135.4530 C   0  0  0  0  0  2  0  0  0  0  0  0
  189.9930  176.6600  143.9690 O   0  0  0  0  0  0  0  0  0  0  0  0
  187.4620  178.6680  136.8210 C   0  0  0  0  0  1  0  0  0  0  0  0
  188.6990  176.6960  135.7810 C   0  0  1  0  0  0  0  0  0  0  0  0
  185.8420  178.2740  142.7940 C   0  0  2  0  0  3  0  0  0  0  0  0
  191.8460  176.5610  137.9560 C   0  0  0  0  0  0  0  0  0  0  0  0
  188.1600  175.3290  135.2910 C   0  0  0  0  0  2  0  0  0  0  0  0
  188.0490  177.1990  145.1210 C   0  0  0  0  0  2  0  0  0  0  0  0
  190.8520  177.2370  141.5620 C   0  0  0  0  0  2  0  0  0  0  0  0
  185.0970  177.2330  139.8660 C   0  0  0  0  0  2  0  0  0  0  0  0
  186.5000  177.4190  139.5460 C   0  0  1  0  0  3  0  0  0  0  0  0
  185.4460  178.2430  138.8840 N   0  0  0  0  0  0  0  0  0  0  0  0
  184.9510  179.4900  139.5100 C   0  0  0  0  0  2  0  0  0  0  0  0
  183.2590  181.0980  138.8480 O   0  0  0  0  0  1  0  0  0  0  0  0
  183.4440  179.7480  139.1490 C   0  0  1  0  0  3  0  0  0  0  0  0
  182.9850  178.8610  137.9760 C   0  0  0  0  0  2  0  0  0  0  0  0
  181.7150  178.1350  138.1560 N   0  0  0  0  0  0  0  0  0  0  0  0
  181.6180  176.6730  138.1150 C   0  0  0  0  0  0  0  0  0  0  0  0
  180.6590  178.7780  138.7250 O   0  0  0  0  0  1  0  0  0  0  0  0
  182.7610  176.0940  138.0680 O   0  0  0  0  0  0  0  0  0  0  0  0
  180.2740  175.9480  138.3220 C   0  0  0  0  0  2  0  0  0  0  0  0
  179.6770  175.0980  137.1660 C   0  0  0  0  0  2  0  0  0  0  0  0
  180.5370  173.7670  137.0050 C   0  0  0  0  0  2  0  0  0  0  0  0
  181.1740  173.6580  135.6320 N   0  0  0  0  0  0  0  0  0  0  0  0
  182.5780  173.1060  135.6640 C   0  0  0  0  0  2  0  0  0  0  0  0
  183.0820  172.5250  137.0820 C   0  0  0  0  0  1  0  0  0  0  0  0
  181.8840  175.5060  134.8410 F   0  0  0  0  0  0  0  0  0  0  0  0
  180.7150  174.9230  134.9410 C   0  0  0  0  0  2  0  0  0  0  0  0
  184.4330  178.1110  145.1370 C   0  0  0  0  0  2  0  0  0  0  0  0
  181.6310  177.4930  143.3110 C   0  0  0  0  0  2  0  0  0  0  0  0
  181.9480  179.8390  142.8410 C   0  0  1  0  0  3  0  0  0  0  0  0
  180.3140  178.1240  143.2890 C   0  0  1  0  0  3  0  0  0  0  0  0
  183.4550  180.2990  144.5770 N   0  0  0  0  0  2  0  0  0  0  0  0
  182.6320  178.6230  143.2870 N   0  0  1  0  0  0  0  0  0  0  0  0
  180.4710  179.6480  143.2780 C   0  0  0  0  0  2  0  0  0  0  0  0
  183.3680  178.9890  144.4420 C   0  0  1  0  0  3  0  0  0  0  0  0
  182.5940  180.8710  143.6310 N   0  0  0  0  0  2  0  0  0  0  0  0
  179.6900  177.8710  141.9220 C   0  0  0  0  0  2  0  0  0  0  0  0
  179.1250  176.6140  141.8850 O   0  0  0  0  0  1  0  0  0  0  0  0
  195.3350  175.3880  136.8840 O   0  0  0  0  0  0  0  0  0  0  0  0
  197.0850  174.0380  136.3090 O   0  0  0  0  0  0  0  0  0  0  0  0
  195.0060  172.9070  136.6160 C   0  0  0  0  0  2  0  0  0  0  0  0
  195.8420  172.1140  135.6370 C   0  0  0  0  0  2  0  0  0  0  0  0
  196.9230  173.0920  135.2610 C   0  0  0  0  0  2  0  0  0  0  0  0
  195.8730  174.0440  137.0840 C   0  0  2  0  0  0  0  0  0  0  0  0
  196.2960  173.8740  138.5630 C   0  0  0  0  0  2  0  0  0  0  0  0
  196.0080  175.0290  139.3120 O   0  0  0  0  0  1  0  0  0  0  0  0
  1 30  1  0  0  0  0
  2 19  1  0  0  0  0
  2 27  1  0  0  0  0
  3 62  1  0  0  0  0
  3 21  1  0  0  0  0
  4 27  1  0  0  0  0
  5 31  1  0  0  0  0
  5 19  1  0  0  0  0
  6  7  1  0  0  0  0
  8  1  1  0  0  0  0
  8 51  1  0  0  0  0
  9 17  1  0  0  0  0
  9  5  1  0  0  0  0
 10 14  1  0  0  0  0
 11 28  1  0  0  0  0
 12  7  1  0  0  0  0
 12 10  1  0  0  0  0
 13 26  1  0  0  0  0
 14 15  1  0  0  0  0
 14  9  1  0  0  0  0
 15 20  1  0  0  0  0
 16 11  1  0  0  0  0
 16 10  1  0  0  0  0
 17  2  1  0  0  0  0
 18 24  2  0  0  0  0
 18 30  1  0  0  0  0
 19 18  1  0  0  0  0
 20 31  1  0  0  0  0
 22  3  2  0  0  0  0
 23 22  1  0  0  0  0
 23 11  1  0  0  0  0
 25 12  1  0  0  0  0
 26 16  1  0  0  0  0
 26 12  1  0  0  0  0
 27  8  1  0  0  0  0
 28 21  1  0  0  0  0
 28 15  2  0  0  0  0
 29 26  1  0  0  0  0
 29  6  1  0  0  0  0
 33 32  1  0  0  0  0
 33 17  1  0  0  0  0
 34 35  1  0  0  0  0
 34 33  1  0  0  0  0
 34 32  1  0  0  0  0
 36 37  1  0  0  0  0
 37 35  1  0  0  0  0
 38 39  1  0  0  0  0
 38 37  1  0  0  0  0
 39 41  1  0  0  0  0
 40 39  1  0  0  0  0
 40 43  1  0  0  0  0
 42 40  2  0  0  0  0
 44 43  1  0  0  0  0
 45 44  1  0  0  0  0
 46 47  1  0  0  0  0
 46 45  1  0  0  0  0
 47 48  1  0  0  0  0
 49 50  1  0  0  0  0
 50 46  1  0  0  0  0
 53 57  1  0  0  0  0
 53 56  1  0  0  0  0
 53 59  1  0  0  0  0
 54 52  1  0  0  0  0
 56 52  1  0  0  0  0
 56 58  1  0  0  0  0
 57 54  1  0  0  0  0
 58 55  1  0  0  0  0
 58 51  1  0  0  0  0
 59 55  1  0  0  0  0
 60 54  1  0  0  0  0
 61 60  1  0  0  0  0
 62 67  1  0  0  0  0
 63 67  1  0  0  0  0
 64 67  1  0  0  0  0
 65 64  1  0  0  0  0
 66 65  1  0  0  0  0
 66 63  1  0  0  0  0
 67 68  1  0  0  0  0
 68 69  1  0  0  0  0
M  END
>  <MODEL>
2

>  <REMARK>
 VINA RESULT:      -3.5      1.623      2.072
  Name = 
  17 active torsions:
  status: ('A' for Active; 'I' for Inactive)
    1  A    between atoms: N_1  and  C_5
    2  A    between atoms: N_1  and  C_53
    3  A    between atoms: N_1  and  C_63
    4  A    between atoms: C_8  and  O_28
    5  A    between atoms: N_13  and  C_61
    6  A    between atoms: C_17  and  C_59
    7  A    between atoms: C_18  and  C_43
    8  A    between atoms: C_19  and  C_56
    9  A    between atoms: C_20  and  C_37
   10  A    between atoms: C_23  and  C_48
   11  A    between atoms: C_23  and  C_61
   12  A    between atoms: O_28  and  C_59
   13  A    between atoms: C_32  and  C_44
   14  A    between atoms: C_37  and  C_45
   15  A    between atoms: C_48  and  N_67
   16  A    between atoms: C_53  and  C_69
   17  A    between atoms: C_56  and  C_69
                            x       y       z     vdW  Elec       q    Type
                         _______ _______ _______ _____ _____    ______ ____

>  <TORSDO>
F 17

$$$$
