=
 OpenBabel11062412143D

 55 59  0  0  1  0  0  0  0  0999 V2000
  189.8010  177.4990  139.1420 C   0  0  1  0  0  3  0  0  0  0  0  0
  192.0170  178.5840  144.0450 N   0  0  0  0  0  1  0  0  0  0  0  0
  188.0950  177.4900  141.0390 C   0  0  0  0  0  3  0  0  0  0  0  0
  189.4520  177.3900  140.6000 C   0  0  0  0  0  0  0  0  0  0  0  0
  186.8940  178.0530  143.2130 C   0  0  0  0  0  0  0  0  0  0  0  0
  187.8400  177.4000  142.4140 C   0  0  0  0  0  0  0  0  0  0  0  0
  187.4390  178.3220  144.4420 N   0  0  0  0  0  0  0  0  0  0  0  0
  190.5090  177.4350  141.5520 C   0  0  0  0  0  3  0  0  0  0  0  0
  188.8730  177.2130  143.2740 C   0  0  0  0  0  0  0  0  0  0  0  0
  185.6290  178.5830  142.7780 N   0  0  0  0  0  0  0  0  0  0  0  0
  188.6380  177.7580  144.4440 N   0  0  0  0  0  0  0  0  0  0  0  0
  189.7510  178.2950  144.9210 N   0  0  0  0  0  0  0  0  0  0  0  0
  190.1690  177.3510  142.9100 C   0  0  0  0  0  0  0  0  0  0  0  0
  190.7280  177.9850  144.0200 C   0  0  0  0  0  0  0  0  0  0  0  0
  185.1260  178.3680  141.4270 C   0  0  0  0  0  2  0  0  0  0  0  0
  185.0060  179.5920  140.7610 O   0  0  0  0  0  0  0  0  0  0  0  0
  184.5530  179.2630  139.4790 C   0  0  0  0  0  2  0  0  0  0  0  0
  183.3780  178.3110  139.6000 C   0  0  0  0  0  2  0  0  0  0  0  0
  182.0970  179.0700  139.6660 C   0  0  0  0  0  3  0  0  0  0  0  0
  181.4480  179.1700  140.7800 N   0  0  0  0  0  0  0  0  0  0  0  0
  180.2040  179.8710  140.8780 C   0  0  0  0  0  0  0  0  0  0  0  0
  180.0780  180.8680  141.6360 O   0  0  0  0  0  0  0  0  0  0  0  0
  179.0450  179.4230  140.0670 C   0  0  0  0  0  1  0  0  0  0  0  0
  184.8010  179.3580  143.6960 C   0  0  0  0  0  2  0  0  0  0  0  0
  184.2490  178.7240  145.9100 C   0  0  0  0  0  0  0  0  0  0  0  0
  184.9950  178.6870  146.9660 N   0  0  0  0  0  2  0  0  0  0  0  0
  183.9970  178.4230  144.5820 C   0  0  1  0  0  3  0  0  0  0  0  0
  182.9630  179.1370  145.1860 N   0  0  0  0  0  2  0  0  0  0  0  0
  190.7080  176.4150  138.6450 C   0  0  0  0  0  0  0  0  0  0  0  0
  191.9950  176.6940  138.4520 C   0  0  0  0  0  3  0  0  0  0  0  0
  190.2180  175.1340  138.4090 O   0  0  0  0  0  1  0  0  0  0  0  0
  194.2380  175.9410  138.4840 O   0  0  0  0  0  1  0  0  0  0  0  0
  192.9730  175.6770  137.9590 C   0  0  0  0  0  2  0  0  0  0  0  0
  188.5830  177.7340  138.2510 C   0  0  0  0  0  2  0  0  0  0  0  0
  188.9350  177.8020  136.7660 C   0  0  0  0  0  2  0  0  0  0  0  0
  187.6050  178.3500  134.7790 C   0  0  0  0  0  1  0  0  0  0  0  0
  186.4880  177.2000  136.6610 C   0  0  0  0  0  2  0  0  0  0  0  0
  188.2030  175.9940  135.1730 C   0  0  0  0  0  2  0  0  0  0  0  0
  187.8020  177.3110  135.8620 C   0  0  2  0  0  0  0  0  0  0  0  0
  186.3660  174.7040  136.3920 C   0  0  1  0  0  3  0  0  0  0  0  0
  187.8570  174.7690  136.0240 C   0  0  0  0  0  2  0  0  0  0  0  0
  185.6210  176.0300  136.1930 C   0  0  0  0  0  2  0  0  0  0  0  0
  185.7080  173.6570  135.6230 N   0  0  0  0  0  2  0  0  0  0  0  0
  184.3900  173.0540  136.5700 S   0  0  0  0  0  0  0  0  0  0  0  0
  184.3860  171.5560  136.5010 O   0  0  0  0  0  0  0  0  0  0  0  0
  184.5620  173.4860  138.0000 O   0  0  0  0  0  0  0  0  0  0  0  0
  182.8970  173.6800  135.9430 N   0  0  0  0  0  2  0  0  0  0  0  0
  181.9030  173.6240  137.0070 C   0  0  2  0  0  3  0  0  0  0  0  0
  179.6760  173.8400  136.0030 N   0  0  0  0  0  1  0  0  0  0  0  0
  180.6470  172.8900  136.5250 C   0  0  1  0  0  3  0  0  0  0  0  0
  180.9990  171.9130  135.4510 C   0  0  0  0  0  3  0  0  0  0  0  0
  181.1580  170.6740  135.7320 N   0  0  0  0  0  2  0  0  0  0  0  0
  181.5540  175.0440  137.4370 C   0  0  0  0  0  2  0  0  0  0  0  0
  180.6930  175.6360  139.3820 C   0  0  0  0  0  1  0  0  0  0  0  0
  181.8850  175.2330  138.7790 O   0  0  0  0  0  0  0  0  0  0  0  0
  1 34  1  6  0  0  0
  1  4  1  0  0  0  0
  3  6  1  0  0  0  0
  4  3  2  0  0  0  0
  4  8  1  0  0  0  0
  5  7  2  0  0  0  0
  6  5  1  0  0  0  0
  6  9  2  0  0  0  0
  7 11  1  0  0  0  0
  8 13  2  0  0  0  0
  9 11  1  0  0  0  0
 10  5  1  0  0  0  0
 10 24  1  0  0  0  0
 11 12  1  0  0  0  0
 13  9  1  0  0  0  0
 13 14  1  0  0  0  0
 14  2  1  0  0  0  0
 14 12  2  0  0  0  0
 15 10  1  0  0  0  0
 16 15  1  0  0  0  0
 17 18  1  0  0  0  0
 17 16  1  0  0  0  0
 18 19  1  0  0  0  0
 19 20  2  0  0  0  0
 20 21  1  0  0  0  0
 21 22  2  0  0  0  0
 23 21  1  0  0  0  0
 25 26  2  0  0  0  0
 27 24  1  6  0  0  0
 27 28  1  0  0  0  0
 27 25  1  0  0  0  0
 28 25  1  0  0  0  0
 29  1  1  0  0  0  0
 30 29  2  0  0  0  0
 31 29  1  0  0  0  0
 33 30  1  0  0  0  0
 33 32  1  0  0  0  0
 35 34  1  0  0  0  0
 38 39  1  0  0  0  0
 38 41  1  0  0  0  0
 39 36  1  6  0  0  0
 39 37  1  0  0  0  0
 39 35  1  0  0  0  0
 40 43  1  6  0  0  0
 41 40  1  0  0  0  0
 42 40  1  0  0  0  0
 42 37  1  0  0  0  0
 43 44  1  0  0  0  0
 44 46  2  0  0  0  0
 45 44  2  0  0  0  0
 47 44  1  0  0  0  0
 47 48  1  0  0  0  0
 48 53  1  6  0  0  0
 50 49  1  6  0  0  0
 50 48  1  0  0  0  0
 51 52  2  0  0  0  0
 51 50  1  0  0  0  0
 53 55  1  0  0  0  0
 55 54  1  0  0  0  0
M  END
>  <MODEL>
1

>  <REMARK>
 VINA RESULT:      -6.3      0.000      0.000
  Name = 
  22 active torsions:
  status: ('A' for Active; 'I' for Inactive)
    1  A    between atoms: C_2  and  O_19
    2  A    between atoms: C_2  and  C_20
    3  A    between atoms: C_5  and  N_55
    4  A    between atoms: S_6  and  N_21
    5  A    between atoms: S_6  and  N_38
    6  A    between atoms: C_7  and  C_39
    7  A    between atoms: C_14  and  C_51
    8  A    between atoms: C_15  and  C_18
    9  A    between atoms: C_15  and  C_46
   10  A    between atoms: C_16  and  C_39
   11  A    between atoms: C_18  and  O_35
   12  A    between atoms: C_20  and  N_21
   13  A    between atoms: C_20  and  C_26
   14  A    between atoms: C_23  and  C_29
   15  A    between atoms: C_23  and  N_41
   16  A    between atoms: C_25  and  O_35
   17  A    between atoms: C_25  and  N_41
   18  A    between atoms: C_26  and  C_32
   19  A    between atoms: C_30  and  C_45
   20  A    between atoms: C_31  and  C_39
   21  A    between atoms: C_31  and  C_45
   22  A    between atoms: C_37  and  N_38
                            x       y       z     vdW  Elec       q    Type
                         _______ _______ _______ _____ _____    ______ ____

>  <TORSDO>
F 22

$$$$
=
 OpenBabel11062412143D

 55 59  0  0  1  0  0  0  0  0999 V2000
  188.6180  178.2700  140.1150 C   0  0  1  0  0  3  0  0  0  0  0  0
  185.0790  176.3320  136.3940 N   0  0  0  0  0  1  0  0  0  0  0  0
  186.1920  178.8660  140.6320 C   0  0  0  0  0  3  0  0  0  0  0  0
  187.1910  178.4680  139.6900 C   0  0  0  0  0  0  0  0  0  0  0  0
  183.6540  178.7370  140.8000 C   0  0  0  0  0  0  0  0  0  0  0  0
  184.8760  179.0120  140.1740 C   0  0  0  0  0  0  0  0  0  0  0  0
  182.7630  178.2590  139.8750 N   0  0  0  0  0  0  0  0  0  0  0  0
  186.8020  178.0140  138.3970 C   0  0  0  0  0  3  0  0  0  0  0  0
  184.5950  178.7850  138.8660 C   0  0  0  0  0  0  0  0  0  0  0  0
  183.4050  178.7220  142.2170 N   0  0  0  0  0  0  0  0  0  0  0  0
  183.3720  178.3400  138.7010 N   0  0  0  0  0  0  0  0  0  0  0  0
  183.3550  177.4180  137.7480 N   0  0  0  0  0  0  0  0  0  0  0  0
  185.4640  178.1860  138.0190 C   0  0  0  0  0  0  0  0  0  0  0  0
  184.6280  177.3660  137.2600 C   0  0  0  0  0  0  0  0  0  0  0  0
  184.4150  179.1390  143.1820 C   0  0  0  0  0  2  0  0  0  0  0  0
  184.1290  178.5950  144.4380 O   0  0  0  0  0  0  0  0  0  0  0  0
  185.2790  178.8200  145.2010 C   0  0  0  0  0  2  0  0  0  0  0  0
  186.2650  177.6940  144.9520 C   0  0  0  0  0  2  0  0  0  0  0  0
  187.0500  177.4070  146.1860 C   0  0  0  0  0  3  0  0  0  0  0  0
  188.2300  177.9100  146.3460 N   0  0  0  0  0  0  0  0  0  0  0  0
  189.0240  177.6390  147.5070 C   0  0  0  0  0  0  0  0  0  0  0  0
  190.0660  176.9380  147.4310 O   0  0  0  0  0  0  0  0  0  0  0  0
  188.6190  178.2020  148.8190 C   0  0  0  0  0  1  0  0  0  0  0  0
  182.1110  178.2880  142.7320 C   0  0  0  0  0  2  0  0  0  0  0  0
  180.3530  179.7720  142.1690 C   0  0  0  0  0  0  0  0  0  0  0  0
  180.0180  180.2520  141.0160 N   0  0  0  0  0  2  0  0  0  0  0  0
  181.2900  179.4940  143.1510 C   0  0  1  0  0  3  0  0  0  0  0  0
  180.0030  179.0790  143.4910 N   0  0  0  0  0  2  0  0  0  0  0  0
  188.7830  177.4410  141.3510 C   0  0  0  0  0  0  0  0  0  0  0  0
  189.9980  177.0040  141.6740 C   0  0  0  0  0  3  0  0  0  0  0  0
  187.6880  177.1510  142.1600 O   0  0  0  0  0  1  0  0  0  0  0  0
  190.4740  176.9960  143.9920 O   0  0  0  0  0  1  0  0  0  0  0  0
  190.2570  176.1710  142.8880 C   0  0  0  0  0  2  0  0  0  0  0  0
  189.5310  177.8430  138.9660 C   0  0  0  0  0  2  0  0  0  0  0  0
  189.5510  176.3310  138.7510 C   0  0  0  0  0  2  0  0  0  0  0  0
  189.3120  176.4520  136.3130 C   0  0  0  0  0  1  0  0  0  0  0  0
  190.2530  174.3890  137.3020 C   0  0  0  0  0  2  0  0  0  0  0  0
  191.5750  176.5940  137.2750 C   0  0  0  0  0  2  0  0  0  0  0  0
  190.1960  175.9260  137.4240 C   0  0  2  0  0  0  0  0  0  0  0  0
  192.7650  174.3350  137.3280 C   0  0  1  0  0  3  0  0  0  0  0  0
  192.6920  175.7590  137.9040 C   0  0  0  0  0  2  0  0  0  0  0  0
  191.5030  173.9120  136.5640 C   0  0  0  0  0  2  0  0  0  0  0  0
  193.9250  174.2080  136.4570 N   0  0  0  0  0  2  0  0  0  0  0  0
  194.8970  172.9080  137.0580 S   0  0  0  0  0  0  0  0  0  0  0  0
  195.0920  173.0870  138.5340 O   0  0  0  0  0  0  0  0  0  0  0  0
  194.2000  171.6010  136.8020 O   0  0  0  0  0  0  0  0  0  0  0  0
  196.4350  172.9200  136.2530 N   0  0  0  0  0  2  0  0  0  0  0  0
  197.4730  173.0560  137.2650 C   0  0  2  0  0  3  0  0  0  0  0  0
  199.1740  174.6460  138.0370 N   0  0  0  0  0  1  0  0  0  0  0  0
  197.8470  174.5310  137.4510 C   0  0  1  0  0  3  0  0  0  0  0  0
  197.8320  175.2380  136.1350 C   0  0  0  0  0  3  0  0  0  0  0  0
  197.2340  176.3630  136.0120 N   0  0  0  0  0  2  0  0  0  0  0  0
  198.6950  172.2520  136.8380 C   0  0  0  0  0  2  0  0  0  0  0  0
  198.5920  170.0840  136.4300 C   0  0  0  0  0  1  0  0  0  0  0  0
  198.6940  171.0080  137.4710 O   0  0  0  0  0  0  0  0  0  0  0  0
  1 34  1  6  0  0  0
  1 29  1  0  0  0  0
  2 14  1  0  0  0  0
  4  1  1  0  0  0  0
  4  3  2  0  0  0  0
  5 10  1  0  0  0  0
  6  3  1  0  0  0  0
  6  5  1  0  0  0  0
  7  5  2  0  0  0  0
  8  4  1  0  0  0  0
  9  6  2  0  0  0  0
 10 24  1  0  0  0  0
 10 15  1  0  0  0  0
 11  9  1  0  0  0  0
 11  7  1  0  0  0  0
 12 11  1  0  0  0  0
 13  8  2  0  0  0  0
 13  9  1  0  0  0  0
 14 12  2  0  0  0  0
 14 13  1  0  0  0  0
 15 16  1  0  0  0  0
 16 17  1  0  0  0  0
 18 17  1  0  0  0  0
 18 19  1  0  0  0  0
 19 20  2  0  0  0  0
 20 21  1  0  0  0  0
 21 23  1  0  0  0  0
 22 21  2  0  0  0  0
 25 27  1  0  0  0  0
 25 28  1  0  0  0  0
 26 25  2  0  0  0  0
 27 24  1  6  0  0  0
 27 28  1  0  0  0  0
 29 30  2  0  0  0  0
 29 31  1  0  0  0  0
 30 33  1  0  0  0  0
 33 32  1  0  0  0  0
 35 34  1  0  0  0  0
 37 39  1  0  0  0  0
 38 39  1  0  0  0  0
 38 41  1  0  0  0  0
 39 36  1  6  0  0  0
 39 35  1  0  0  0  0
 40 43  1  6  0  0  0
 40 41  1  0  0  0  0
 42 37  1  0  0  0  0
 42 40  1  0  0  0  0
 43 44  1  0  0  0  0
 44 45  2  0  0  0  0
 46 44  2  0  0  0  0
 47 44  1  0  0  0  0
 47 48  1  0  0  0  0
 48 53  1  6  0  0  0
 48 50  1  0  0  0  0
 50 49  1  6  0  0  0
 51 50  1  0  0  0  0
 52 51  2  0  0  0  0
 53 55  1  0  0  0  0
 54 55  1  0  0  0  0
M  END
>  <MODEL>
2

>  <REMARK>
 VINA RESULT:      -5.9      4.426      9.271
  Name = 
  22 active torsions:
  status: ('A' for Active; 'I' for Inactive)
    1  A    between atoms: C_2  and  O_19
    2  A    between atoms: C_2  and  C_20
    3  A    between atoms: C_5  and  N_55
    4  A    between atoms: S_6  and  N_21
    5  A    between atoms: S_6  and  N_38
    6  A    between atoms: C_7  and  C_39
    7  A    between atoms: C_14  and  C_51
    8  A    between atoms: C_15  and  C_18
    9  A    between atoms: C_15  and  C_46
   10  A    between atoms: C_16  and  C_39
   11  A    between atoms: C_18  and  O_35
   12  A    between atoms: C_20  and  N_21
   13  A    between atoms: C_20  and  C_26
   14  A    between atoms: C_23  and  C_29
   15  A    between atoms: C_23  and  N_41
   16  A    between atoms: C_25  and  O_35
   17  A    between atoms: C_25  and  N_41
   18  A    between atoms: C_26  and  C_32
   19  A    between atoms: C_30  and  C_45
   20  A    between atoms: C_31  and  C_39
   21  A    between atoms: C_31  and  C_45
   22  A    between atoms: C_37  and  N_38
                            x       y       z     vdW  Elec       q    Type
                         _______ _______ _______ _____ _____    ______ ____

>  <TORSDO>
F 22

$$$$
=
 OpenBabel11062412143D

 55 59  0  0  1  0  0  0  0  0999 V2000
  188.9810  178.0700  140.1250 C   0  0  1  0  0  3  0  0  0  0  0  0
  185.4820  176.3040  136.2830 N   0  0  0  0  0  1  0  0  0  0  0  0
  186.5570  178.7050  140.6070 C   0  0  0  0  0  3  0  0  0  0  0  0
  187.5670  178.3090  139.6760 C   0  0  0  0  0  0  0  0  0  0  0  0
  184.0140  178.6270  140.7180 C   0  0  0  0  0  0  0  0  0  0  0  0
  185.2540  178.8910  140.1250 C   0  0  0  0  0  0  0  0  0  0  0  0
  183.1330  178.1920  139.7630 N   0  0  0  0  0  0  0  0  0  0  0  0
  187.1970  177.8970  138.3640 C   0  0  0  0  0  3  0  0  0  0  0  0
  184.9970  178.7040  138.8060 C   0  0  0  0  0  0  0  0  0  0  0  0
  183.7340  178.5820  142.1290 N   0  0  0  0  0  0  0  0  0  0  0  0
  183.7690  178.2890  138.6040 N   0  0  0  0  0  0  0  0  0  0  0  0
  183.7530  177.3920  137.6280 N   0  0  0  0  0  0  0  0  0  0  0  0
  185.8710  178.1070  137.9620 C   0  0  0  0  0  0  0  0  0  0  0  0
  185.0350  177.3250  137.1650 C   0  0  0  0  0  0  0  0  0  0  0  0
  184.7320  178.9520  143.1260 C   0  0  0  0  0  2  0  0  0  0  0  0
  184.1200  179.6320  144.1830 O   0  0  0  0  0  0  0  0  0  0  0  0
  184.6770  179.0780  145.3400 C   0  0  0  0  0  2  0  0  0  0  0  0
  185.8960  178.2590  144.9580 C   0  0  0  0  0  2  0  0  0  0  0  0
  186.9550  178.3860  145.9990 C   0  0  0  0  0  3  0  0  0  0  0  0
  187.3060  177.3620  146.7080 N   0  0  0  0  0  0  0  0  0  0  0  0
  188.3030  177.4500  147.7320 C   0  0  0  0  0  0  0  0  0  0  0  0
  188.0350  177.9470  148.8570 O   0  0  0  0  0  0  0  0  0  0  0  0
  189.6710  176.9400  147.4690 C   0  0  0  0  0  1  0  0  0  0  0  0
  182.4210  178.1630  142.6050 C   0  0  0  0  0  2  0  0  0  0  0  0
  180.1070  178.5470  142.2750 C   0  0  0  0  0  0  0  0  0  0  0  0
  179.1730  177.7160  141.9440 N   0  0  0  0  0  2  0  0  0  0  0  0
  181.3560  179.1170  142.0930 C   0  0  1  0  0  3  0  0  0  0  0  0
  180.6620  179.6560  143.1760 N   0  0  0  0  0  2  0  0  0  0  0  0
  189.0980  177.2620  141.3820 C   0  0  0  0  0  0  0  0  0  0  0  0
  190.3040  176.8610  141.7760 C   0  0  0  0  0  3  0  0  0  0  0  0
  187.9680  176.9560  142.1350 O   0  0  0  0  0  1  0  0  0  0  0  0
  190.1840  176.8080  144.1390 O   0  0  0  0  0  1  0  0  0  0  0  0
  190.5180  176.0520  143.0150 C   0  0  0  0  0  2  0  0  0  0  0  0
  189.8930  177.5860  139.0000 C   0  0  0  0  0  2  0  0  0  0  0  0
  189.8610  176.0700  138.8160 C   0  0  0  0  0  2  0  0  0  0  0  0
  188.9210  175.5350  136.6140 C   0  0  0  0  0  1  0  0  0  0  0  0
  190.8710  174.2370  137.4080 C   0  0  0  0  0  2  0  0  0  0  0  0
  191.0880  176.7020  136.7100 C   0  0  0  0  0  2  0  0  0  0  0  0
  190.2150  175.6330  137.3930 C   0  0  2  0  0  0  0  0  0  0  0  0
  193.0740  175.1030  136.5620 C   0  0  1  0  0  3  0  0  0  0  0  0
  192.5780  176.4950  136.9880 C   0  0  0  0  0  2  0  0  0  0  0  0
  191.9450  174.0900  136.3300 C   0  0  0  0  0  2  0  0  0  0  0  0
  193.8860  175.2100  135.3590 N   0  0  0  0  0  2  0  0  0  0  0  0
  195.5400  175.3570  135.8490 S   0  0  0  0  0  0  0  0  0  0  0  0
  196.3760  174.4180  135.0310 O   0  0  0  0  0  0  0  0  0  0  0  0
  196.0070  176.7680  135.6190 O   0  0  0  0  0  0  0  0  0  0  0  0
  195.6790  174.9600  137.5330 N   0  0  0  0  0  2  0  0  0  0  0  0
  196.9090  174.2030  137.7180 C   0  0  2  0  0  3  0  0  0  0  0  0
  195.1740  172.6380  138.4620 N   0  0  0  0  0  1  0  0  0  0  0  0
  196.5930  172.7730  138.1680 C   0  0  1  0  0  3  0  0  0  0  0  0
  196.9620  171.8000  137.0960 C   0  0  0  0  0  3  0  0  0  0  0  0
  198.1680  171.7350  136.6700 N   0  0  0  0  0  2  0  0  0  0  0  0
  197.7740  174.9050  138.7570 C   0  0  0  0  0  2  0  0  0  0  0  0
  197.3940  175.6130  140.8140 C   0  0  0  0  0  1  0  0  0  0  0  0
  197.4450  174.4550  140.0360 O   0  0  0  0  0  0  0  0  0  0  0  0
  1 34  1  6  0  0  0
  1 29  1  0  0  0  0
  2 14  1  0  0  0  0
  4  1  1  0  0  0  0
  4  3  2  0  0  0  0
  5 10  1  0  0  0  0
  6  3  1  0  0  0  0
  6  5  1  0  0  0  0
  7  5  2  0  0  0  0
  8  4  1  0  0  0  0
  9  6  2  0  0  0  0
 10 24  1  0  0  0  0
 10 15  1  0  0  0  0
 11  9  1  0  0  0  0
 11  7  1  0  0  0  0
 12 11  1  0  0  0  0
 13  8  2  0  0  0  0
 13  9  1  0  0  0  0
 14 12  2  0  0  0  0
 14 13  1  0  0  0  0
 15 16  1  0  0  0  0
 16 17  1  0  0  0  0
 18 17  1  0  0  0  0
 18 19  1  0  0  0  0
 19 20  2  0  0  0  0
 20 21  1  0  0  0  0
 21 22  2  0  0  0  0
 23 21  1  0  0  0  0
 25 28  1  0  0  0  0
 26 25  2  0  0  0  0
 27 25  1  0  0  0  0
 27 24  1  1  0  0  0
 27 28  1  0  0  0  0
 29 30  2  0  0  0  0
 29 31  1  0  0  0  0
 30 33  1  0  0  0  0
 33 32  1  0  0  0  0
 35 34  1  0  0  0  0
 38 41  1  0  0  0  0
 38 39  1  0  0  0  0
 39 36  1  6  0  0  0
 39 37  1  0  0  0  0
 39 35  1  0  0  0  0
 40 43  1  6  0  0  0
 40 41  1  0  0  0  0
 42 40  1  0  0  0  0
 42 37  1  0  0  0  0
 43 44  1  0  0  0  0
 44 47  1  0  0  0  0
 45 44  2  0  0  0  0
 46 44  2  0  0  0  0
 47 48  1  0  0  0  0
 48 50  1  0  0  0  0
 48 53  1  1  0  0  0
 50 49  1  6  0  0  0
 51 50  1  0  0  0  0
 52 51  2  0  0  0  0
 53 55  1  0  0  0  0
 55 54  1  0  0  0  0
M  END
>  <MODEL>
3

>  <REMARK>
 VINA RESULT:      -5.8      4.196      8.882
  Name = 
  22 active torsions:
  status: ('A' for Active; 'I' for Inactive)
    1  A    between atoms: C_2  and  O_19
    2  A    between atoms: C_2  and  C_20
    3  A    between atoms: C_5  and  N_55
    4  A    between atoms: S_6  and  N_21
    5  A    between atoms: S_6  and  N_38
    6  A    between atoms: C_7  and  C_39
    7  A    between atoms: C_14  and  C_51
    8  A    between atoms: C_15  and  C_18
    9  A    between atoms: C_15  and  C_46
   10  A    between atoms: C_16  and  C_39
   11  A    between atoms: C_18  and  O_35
   12  A    between atoms: C_20  and  N_21
   13  A    between atoms: C_20  and  C_26
   14  A    between atoms: C_23  and  C_29
   15  A    between atoms: C_23  and  N_41
   16  A    between atoms: C_25  and  O_35
   17  A    between atoms: C_25  and  N_41
   18  A    between atoms: C_26  and  C_32
   19  A    between atoms: C_30  and  C_45
   20  A    between atoms: C_31  and  C_39
   21  A    between atoms: C_31  and  C_45
   22  A    between atoms: C_37  and  N_38
                            x       y       z     vdW  Elec       q    Type
                         _______ _______ _______ _____ _____    ______ ____

>  <TORSDO>
F 22

$$$$
=
 OpenBabel11062412143D

 55 59  0  0  1  0  0  0  0  0999 V2000
  185.0690  178.7730  143.5090 C   0  0  1  0  0  3  0  0  0  0  0  0
  179.9710  180.6930  142.8370 N   0  0  0  0  0  1  0  0  0  0  0  0
  183.9760  177.9800  141.3440 C   0  0  0  0  0  3  0  0  0  0  0  0
  183.8530  178.5050  142.6680 C   0  0  0  0  0  0  0  0  0  0  0  0
  182.5430  177.9230  139.2390 C   0  0  0  0  0  0  0  0  0  0  0  0
  182.8010  177.7730  140.6070 C   0  0  0  0  0  0  0  0  0  0  0  0
  181.2680  178.3960  139.0640 N   0  0  0  0  0  0  0  0  0  0  0  0
  182.5990  179.0110  143.1150 C   0  0  0  0  0  3  0  0  0  0  0  0
  181.6010  178.0620  141.1690 C   0  0  0  0  0  0  0  0  0  0  0  0
  183.5040  177.8310  138.1730 N   0  0  0  0  0  0  0  0  0  0  0  0
  180.7190  178.4310  140.2700 N   0  0  0  0  0  0  0  0  0  0  0  0
  179.9660  179.4080  140.7550 N   0  0  0  0  0  0  0  0  0  0  0  0
  181.4740  178.7710  142.3140 C   0  0  0  0  0  0  0  0  0  0  0  0
  180.3670  179.5780  142.0480 C   0  0  0  0  0  0  0  0  0  0  0  0
  184.8840  177.4250  138.4110 C   0  0  0  0  0  2  0  0  0  0  0  0
  185.7480  178.1700  137.6020 O   0  0  0  0  0  0  0  0  0  0  0  0
  186.9580  177.4700  137.6230 C   0  0  0  0  0  2  0  0  0  0  0  0
  187.2530  176.9520  136.2280 C   0  0  0  0  0  2  0  0  0  0  0  0
  186.9350  175.4980  136.1350 C   0  0  0  0  0  3  0  0  0  0  0  0
  186.7800  174.7900  137.2060 N   0  0  0  0  0  0  0  0  0  0  0  0
  186.4970  173.3870  137.1570 C   0  0  0  0  0  0  0  0  0  0  0  0
  185.7720  172.8400  138.0290 O   0  0  0  0  0  0  0  0  0  0  0  0
  187.0600  172.5640  136.0580 C   0  0  0  0  0  1  0  0  0  0  0  0
  183.1140  178.1420  136.8020 C   0  0  0  0  0  2  0  0  0  0  0  0
  182.0530  176.1900  135.9820 C   0  0  0  0  0  0  0  0  0  0  0  0
  181.2240  175.3930  136.5740 N   0  0  0  0  0  2  0  0  0  0  0  0
  183.2400  176.9030  135.9350 C   0  0  1  0  0  3  0  0  0  0  0  0
  182.4610  177.0620  134.7890 N   0  0  0  0  0  2  0  0  0  0  0  0
  184.7970  178.8440  144.9800 C   0  0  0  0  0  0  0  0  0  0  0  0
  185.7820  178.5620  145.8290 C   0  0  0  0  0  3  0  0  0  0  0  0
  183.5420  179.2190  145.4510 O   0  0  0  0  0  1  0  0  0  0  0  0
  185.9050  179.8830  147.7890 O   0  0  0  0  0  1  0  0  0  0  0  0
  185.6030  178.6070  147.3130 C   0  0  0  0  0  2  0  0  0  0  0  0
  186.2540  177.8780  143.1480 C   0  0  0  0  0  2  0  0  0  0  0  0
  187.5940  178.6100  143.2080 C   0  0  0  0  0  2  0  0  0  0  0  0
  188.8470  177.0410  144.6170 C   0  0  0  0  0  1  0  0  0  0  0  0
  190.1020  178.4400  143.0100 C   0  0  0  0  0  2  0  0  0  0  0  0
  188.5890  176.5160  142.2250 C   0  0  0  0  0  2  0  0  0  0  0  0
  188.7920  177.6590  143.2360 C   0  0  2  0  0  0  0  0  0  0  0  0
  190.5820  177.2890  140.8270 C   0  0  1  0  0  3  0  0  0  0  0  0
  189.0990  176.8820  140.8290 C   0  0  0  0  0  2  0  0  0  0  0  0
  191.1310  177.6310  142.2190 C   0  0  0  0  0  2  0  0  0  0  0  0
  191.3880  176.2330  140.2330 N   0  0  0  0  0  2  0  0  0  0  0  0
  191.2400  176.3590  138.5130 S   0  0  0  0  0  0  0  0  0  0  0  0
  190.6210  175.1000  137.9830 O   0  0  0  0  0  0  0  0  0  0  0  0
  190.3590  177.5290  138.1700 O   0  0  0  0  0  0  0  0  0  0  0  0
  192.8130  176.5850  137.8140 N   0  0  0  0  0  2  0  0  0  0  0  0
  193.1650  175.3690  137.0930 C   0  0  2  0  0  3  0  0  0  0  0  0
  194.4250  173.4570  137.9700 N   0  0  0  0  0  1  0  0  0  0  0  0
  194.5290  174.8490  137.5590 C   0  0  1  0  0  3  0  0  0  0  0  0
  195.5280  174.9580  136.4530 C   0  0  0  0  0  3  0  0  0  0  0  0
  196.2520  173.9510  136.1350 N   0  0  0  0  0  2  0  0  0  0  0  0
  193.1950  175.6680  135.5990 C   0  0  0  0  0  2  0  0  0  0  0  0
  192.1440  173.8560  134.9000 C   0  0  0  0  0  1  0  0  0  0  0  0
  192.0090  175.2410  135.0020 O   0  0  0  0  0  0  0  0  0  0  0  0
  1 34  1  1  0  0  0
  1 29  1  0  0  0  0
  3  4  1  0  0  0  0
  4  8  2  0  0  0  0
  4  1  1  0  0  0  0
  5  6  1  0  0  0  0
  6  9  1  0  0  0  0
  6  3  2  0  0  0  0
  7  5  2  0  0  0  0
  7 11  1  0  0  0  0
  9 13  2  0  0  0  0
 10 15  1  0  0  0  0
 10  5  1  0  0  0  0
 11 12  1  0  0  0  0
 11  9  1  0  0  0  0
 12 14  2  0  0  0  0
 13  8  1  0  0  0  0
 14 13  1  0  0  0  0
 14  2  1  0  0  0  0
 16 17  1  0  0  0  0
 16 15  1  0  0  0  0
 18 17  1  0  0  0  0
 19 18  1  0  0  0  0
 19 20  2  0  0  0  0
 21 20  1  0  0  0  0
 21 22  2  0  0  0  0
 23 21  1  0  0  0  0
 24 10  1  0  0  0  0
 25 26  2  0  0  0  0
 27 25  1  0  0  0  0
 27 24  1  1  0  0  0
 28 27  1  0  0  0  0
 28 25  1  0  0  0  0
 29 31  1  0  0  0  0
 29 30  2  0  0  0  0
 30 33  1  0  0  0  0
 33 32  1  0  0  0  0
 34 35  1  0  0  0  0
 35 39  1  0  0  0  0
 37 39  1  0  0  0  0
 38 39  1  0  0  0  0
 39 36  1  1  0  0  0
 40 43  1  1  0  0  0
 40 41  1  0  0  0  0
 40 42  1  0  0  0  0
 41 38  1  0  0  0  0
 42 37  1  0  0  0  0
 44 43  1  0  0  0  0
 45 44  2  0  0  0  0
 46 44  2  0  0  0  0
 47 44  1  0  0  0  0
 48 53  1  6  0  0  0
 48 50  1  0  0  0  0
 48 47  1  0  0  0  0
 50 49  1  6  0  0  0
 51 50  1  0  0  0  0
 52 51  2  0  0  0  0
 54 55  1  0  0  0  0
 55 53  1  0  0  0  0
M  END
>  <MODEL>
4

>  <REMARK>
 VINA RESULT:      -5.7      3.191      9.292
  Name = 
  22 active torsions:
  status: ('A' for Active; 'I' for Inactive)
    1  A    between atoms: C_2  and  O_19
    2  A    between atoms: C_2  and  C_20
    3  A    between atoms: C_5  and  N_55
    4  A    between atoms: S_6  and  N_21
    5  A    between atoms: S_6  and  N_38
    6  A    between atoms: C_7  and  C_39
    7  A    between atoms: C_14  and  C_51
    8  A    between atoms: C_15  and  C_18
    9  A    between atoms: C_15  and  C_46
   10  A    between atoms: C_16  and  C_39
   11  A    between atoms: C_18  and  O_35
   12  A    between atoms: C_20  and  N_21
   13  A    between atoms: C_20  and  C_26
   14  A    between atoms: C_23  and  C_29
   15  A    between atoms: C_23  and  N_41
   16  A    between atoms: C_25  and  O_35
   17  A    between atoms: C_25  and  N_41
   18  A    between atoms: C_26  and  C_32
   19  A    between atoms: C_30  and  C_45
   20  A    between atoms: C_31  and  C_39
   21  A    between atoms: C_31  and  C_45
   22  A    between atoms: C_37  and  N_38
                            x       y       z     vdW  Elec       q    Type
                         _______ _______ _______ _____ _____    ______ ____

>  <TORSDO>
F 22

$$$$
=
 OpenBabel11062412143D

 55 59  0  0  1  0  0  0  0  0999 V2000
  188.4580  177.7320  138.6640 C   0  0  1  0  0  3  0  0  0  0  0  0
  185.2110  174.5730  135.5650 N   0  0  0  0  0  1  0  0  0  0  0  0
  185.9780  178.2550  138.9530 C   0  0  0  0  0  3  0  0  0  0  0  0
  187.0370  177.6930  138.1760 C   0  0  0  0  0  0  0  0  0  0  0  0
  183.4500  177.9790  139.1040 C   0  0  0  0  0  0  0  0  0  0  0  0
  184.6730  178.1660  138.4480 C   0  0  0  0  0  0  0  0  0  0  0  0
  182.6320  177.1960  138.3330 N   0  0  0  0  0  0  0  0  0  0  0  0
  186.7330  176.8710  137.0530 C   0  0  0  0  0  3  0  0  0  0  0  0
  184.4600  177.5660  137.2500 C   0  0  0  0  0  0  0  0  0  0  0  0
  183.1480  178.3350  140.4650 N   0  0  0  0  0  0  0  0  0  0  0  0
  183.2790  176.9980  137.1930 N   0  0  0  0  0  0  0  0  0  0  0  0
  183.3630  175.8510  136.5340 N   0  0  0  0  0  0  0  0  0  0  0  0
  185.4010  176.8270  136.6180 C   0  0  0  0  0  0  0  0  0  0  0  0
  184.6550  175.7670  136.1020 C   0  0  0  0  0  0  0  0  0  0  0  0
  184.0880  179.0800  141.2950 C   0  0  0  0  0  2  0  0  0  0  0  0
  184.3820  178.3530  142.4530 O   0  0  0  0  0  0  0  0  0  0  0  0
  184.4760  179.3120  143.4670 C   0  0  0  0  0  2  0  0  0  0  0  0
  184.5150  178.6070  144.8100 C   0  0  0  0  0  2  0  0  0  0  0  0
  185.9090  178.5710  145.3390 C   0  0  0  0  0  3  0  0  0  0  0  0
  186.2490  177.7050  146.2370 N   0  0  0  0  0  0  0  0  0  0  0  0
  187.5710  177.6550  146.7850 C   0  0  0  0  0  0  0  0  0  0  0  0
  188.5290  177.1740  146.1260 O   0  0  0  0  0  0  0  0  0  0  0  0
  187.8190  178.1870  148.1480 C   0  0  0  0  0  1  0  0  0  0  0  0
  181.8690  177.9600  141.0570 C   0  0  0  0  0  2  0  0  0  0  0  0
  179.7870  178.7000  140.2020 C   0  0  0  0  0  0  0  0  0  0  0  0
  179.2090  178.4120  139.0820 N   0  0  0  0  0  2  0  0  0  0  0  0
  180.8860  179.1110  140.9390 C   0  0  1  0  0  3  0  0  0  0  0  0
  179.7670  178.8440  141.7280 N   0  0  0  0  0  2  0  0  0  0  0  0
  188.5950  177.9700  140.1370 C   0  0  0  0  0  0  0  0  0  0  0  0
  189.0050  176.9700  140.9130 C   0  0  0  0  0  3  0  0  0  0  0  0
  188.3200  179.2220  140.6810 O   0  0  0  0  0  1  0  0  0  0  0  0
  188.7320  175.9580  143.0340 O   0  0  0  0  0  1  0  0  0  0  0  0
  189.1710  177.1150  142.3910 C   0  0  0  0  0  2  0  0  0  0  0  0
  189.2990  176.5650  138.1520 C   0  0  0  0  0  2  0  0  0  0  0  0
  190.2990  176.9780  137.0730 C   0  0  0  0  0  2  0  0  0  0  0  0
  190.1250  175.1670  135.4280 C   0  0  0  0  0  1  0  0  0  0  0  0
  191.3340  174.7260  137.5390 C   0  0  0  0  0  2  0  0  0  0  0  0
  192.3060  176.2690  135.7270 C   0  0  0  0  0  2  0  0  0  0  0  0
  191.0410  175.7880  136.4600 C   0  0  2  0  0  0  0  0  0  0  0  0
  193.8240  175.0210  137.3580 C   0  0  1  0  0  3  0  0  0  0  0  0
  193.5160  176.3560  136.6600 C   0  0  0  0  0  2  0  0  0  0  0  0
  192.6670  174.0140  137.3050 C   0  0  0  0  0  2  0  0  0  0  0  0
  195.0180  174.4200  136.7810 N   0  0  0  0  0  2  0  0  0  0  0  0
  196.1960  174.2710  138.0410 S   0  0  0  0  0  0  0  0  0  0  0  0
  197.4530  174.9720  137.6180 O   0  0  0  0  0  0  0  0  0  0  0  0
  195.6700  174.9070  139.2980 O   0  0  0  0  0  0  0  0  0  0  0  0
  196.5230  172.5900  138.3270 N   0  0  0  0  0  2  0  0  0  0  0  0
  196.4740  171.8970  137.0470 C   0  0  2  0  0  3  0  0  0  0  0  0
  195.1680  170.4290  138.5150 N   0  0  0  0  0  1  0  0  0  0  0  0
  195.5400  170.6860  137.1310 C   0  0  1  0  0  3  0  0  0  0  0  0
  194.3020  170.9320  136.3320 C   0  0  0  0  0  3  0  0  0  0  0  0
  194.3800  171.4360  135.1580 N   0  0  0  0  0  2  0  0  0  0  0  0
  197.8820  171.4530  136.6670 C   0  0  0  0  0  2  0  0  0  0  0  0
  197.7840  172.4860  134.7180 C   0  0  0  0  0  1  0  0  0  0  0  0
  198.5080  172.4440  135.9100 O   0  0  0  0  0  0  0  0  0  0  0  0
  1 34  1  1  0  0  0
  1 29  1  0  0  0  0
  2 14  1  0  0  0  0
  4  1  1  0  0  0  0
  4  3  2  0  0  0  0
  5 10  1  0  0  0  0
  6  3  1  0  0  0  0
  6  5  1  0  0  0  0
  7  5  2  0  0  0  0
  8  4  1  0  0  0  0
  9  6  2  0  0  0  0
 10 24  1  0  0  0  0
 10 15  1  0  0  0  0
 11  9  1  0  0  0  0
 11  7  1  0  0  0  0
 12 11  1  0  0  0  0
 13  8  2  0  0  0  0
 13  9  1  0  0  0  0
 14 12  2  0  0  0  0
 14 13  1  0  0  0  0
 15 16  1  0  0  0  0
 16 17  1  0  0  0  0
 17 18  1  0  0  0  0
 18 19  1  0  0  0  0
 19 20  2  0  0  0  0
 20 21  1  0  0  0  0
 21 23  1  0  0  0  0
 22 21  2  0  0  0  0
 25 27  1  0  0  0  0
 25 28  1  0  0  0  0
 26 25  2  0  0  0  0
 27 24  1  1  0  0  0
 27 28  1  0  0  0  0
 29 31  1  0  0  0  0
 29 30  2  0  0  0  0
 30 33  1  0  0  0  0
 33 32  1  0  0  0  0
 35 34  1  0  0  0  0
 38 39  1  0  0  0  0
 38 41  1  0  0  0  0
 39 36  1  6  0  0  0
 39 35  1  0  0  0  0
 39 37  1  0  0  0  0
 40 43  1  6  0  0  0
 41 40  1  0  0  0  0
 42 40  1  0  0  0  0
 42 37  1  0  0  0  0
 43 44  1  0  0  0  0
 44 47  1  0  0  0  0
 44 46  2  0  0  0  0
 45 44  2  0  0  0  0
 48 53  1  1  0  0  0
 48 50  1  0  0  0  0
 48 47  1  0  0  0  0
 50 49  1  1  0  0  0
 51 50  1  0  0  0  0
 52 51  2  0  0  0  0
 54 55  1  0  0  0  0
 55 53  1  0  0  0  0
M  END
>  <MODEL>
5

>  <REMARK>
 VINA RESULT:      -5.7      4.161      9.047
  Name = 
  22 active torsions:
  status: ('A' for Active; 'I' for Inactive)
    1  A    between atoms: C_2  and  O_19
    2  A    between atoms: C_2  and  C_20
    3  A    between atoms: C_5  and  N_55
    4  A    between atoms: S_6  and  N_21
    5  A    between atoms: S_6  and  N_38
    6  A    between atoms: C_7  and  C_39
    7  A    between atoms: C_14  and  C_51
    8  A    between atoms: C_15  and  C_18
    9  A    between atoms: C_15  and  C_46
   10  A    between atoms: C_16  and  C_39
   11  A    between atoms: C_18  and  O_35
   12  A    between atoms: C_20  and  N_21
   13  A    between atoms: C_20  and  C_26
   14  A    between atoms: C_23  and  C_29
   15  A    between atoms: C_23  and  N_41
   16  A    between atoms: C_25  and  O_35
   17  A    between atoms: C_25  and  N_41
   18  A    between atoms: C_26  and  C_32
   19  A    between atoms: C_30  and  C_45
   20  A    between atoms: C_31  and  C_39
   21  A    between atoms: C_31  and  C_45
   22  A    between atoms: C_37  and  N_38
                            x       y       z     vdW  Elec       q    Type
                         _______ _______ _______ _____ _____    ______ ____

>  <TORSDO>
F 22

$$$$
=
 OpenBabel11062412143D

 55 59  0  0  1  0  0  0  0  0999 V2000
  183.8260  178.8700  140.1080 C   0  0  1  0  0  3  0  0  0  0  0  0
  188.5500  177.3030  137.7940 N   0  0  0  0  0  1  0  0  0  0  0  0
  183.4960  177.3940  138.0540 C   0  0  0  0  0  3  0  0  0  0  0  0
  184.3210  178.2740  138.8210 C   0  0  0  0  0  0  0  0  0  0  0  0
  183.8560  175.5980  136.2840 C   0  0  0  0  0  0  0  0  0  0  0  0
  184.0270  176.8570  136.8730 C   0  0  0  0  0  0  0  0  0  0  0  0
  185.0300  175.2030  135.6990 N   0  0  0  0  0  0  0  0  0  0  0  0
  185.7040  178.4000  138.5060 C   0  0  0  0  0  3  0  0  0  0  0  0
  185.2860  177.1910  136.4940 C   0  0  0  0  0  0  0  0  0  0  0  0
  182.7230  174.7260  136.4460 N   0  0  0  0  0  0  0  0  0  0  0  0
  185.8650  176.2250  135.8210 N   0  0  0  0  0  0  0  0  0  0  0  0
  187.1450  176.1500  136.1560 N   0  0  0  0  0  0  0  0  0  0  0  0
  186.1590  177.8240  137.3120 C   0  0  0  0  0  0  0  0  0  0  0  0
  187.3630  177.1840  137.0200 C   0  0  0  0  0  0  0  0  0  0  0  0
  181.5270  175.1420  137.1680 C   0  0  0  0  0  2  0  0  0  0  0  0
  180.3890  174.8830  136.3980 O   0  0  0  0  0  0  0  0  0  0  0  0
  180.1240  176.0820  135.7290 C   0  0  0  0  0  2  0  0  0  0  0  0
  179.1910  176.9250  136.5780 C   0  0  0  0  0  2  0  0  0  0  0  0
  179.6990  178.3230  136.6790 C   0  0  0  0  0  3  0  0  0  0  0  0
  179.5760  179.1400  135.6840 N   0  0  0  0  0  0  0  0  0  0  0  0
  180.0720  180.4820  135.7340 C   0  0  0  0  0  0  0  0  0  0  0  0
  179.8610  181.2150  136.7360 O   0  0  0  0  0  0  0  0  0  0  0  0
  180.8560  181.0170  134.5940 C   0  0  0  0  0  1  0  0  0  0  0  0
  182.7400  173.3830  135.8760 C   0  0  0  0  0  2  0  0  0  0  0  0
  183.3080  171.1380  136.3750 C   0  0  0  0  0  0  0  0  0  0  0  0
  182.9300  170.0460  135.7940 N   0  0  0  0  0  2  0  0  0  0  0  0
  183.0410  172.3650  136.9610 C   0  0  1  0  0  3  0  0  0  0  0  0
  184.4000  172.0540  136.9370 N   0  0  0  0  0  2  0  0  0  0  0  0
  182.3360  178.8550  140.2600 C   0  0  0  0  0  0  0  0  0  0  0  0
  181.6410  179.9200  139.8690 C   0  0  0  0  0  3  0  0  0  0  0  0
  181.6890  177.7380  140.7810 O   0  0  0  0  0  1  0  0  0  0  0  0
  179.7880  181.1060  140.7410 O   0  0  0  0  0  1  0  0  0  0  0  0
  180.1520  179.9940  139.9820 C   0  0  0  0  0  2  0  0  0  0  0  0
  184.5720  178.3480  141.3350 C   0  0  0  0  0  2  0  0  0  0  0  0
  184.7860  179.4180  142.4040 C   0  0  0  0  0  2  0  0  0  0  0  0
  182.9090  178.7970  143.8560 C   0  0  0  0  0  1  0  0  0  0  0  0
  184.8280  179.9900  144.8600 C   0  0  0  0  0  2  0  0  0  0  0  0
  185.0200  177.5500  144.0760 C   0  0  0  0  0  2  0  0  0  0  0  0
  184.4150  178.9390  143.8090 C   0  0  2  0  0  0  0  0  0  0  0  0
  186.5170  178.4680  145.9300 C   0  0  1  0  0  3  0  0  0  0  0  0
  186.4410  177.6370  144.6390 C   0  0  0  0  0  2  0  0  0  0  0  0
  185.2850  179.3500  146.1710 C   0  0  0  0  0  2  0  0  0  0  0  0
  186.7180  177.5920  147.0760 N   0  0  0  0  0  2  0  0  0  0  0  0
  188.4220  177.3480  147.2620 S   0  0  0  0  0  0  0  0  0  0  0  0
  189.0620  178.6510  147.6390 O   0  0  0  0  0  0  0  0  0  0  0  0
  188.6680  176.3390  148.3500 O   0  0  0  0  0  0  0  0  0  0  0  0
  189.0880  176.7720  145.7660 N   0  0  0  0  0  2  0  0  0  0  0  0
  190.3390  177.4780  145.5290 C   0  0  2  0  0  3  0  0  0  0  0  0
  191.3330  179.2730  144.1840 N   0  0  0  0  0  1  0  0  0  0  0  0
  190.2520  178.3000  144.2380 C   0  0  1  0  0  3  0  0  0  0  0  0
  190.3430  177.4030  143.0470 C   0  0  0  0  0  3  0  0  0  0  0  0
  189.3310  177.2430  142.2800 N   0  0  0  0  0  2  0  0  0  0  0  0
  191.4730  176.4640  145.4330 C   0  0  0  0  0  2  0  0  0  0  0  0
  191.9410  175.7560  147.4720 C   0  0  0  0  0  1  0  0  0  0  0  0
  192.3690  176.6470  146.4870 O   0  0  0  0  0  0  0  0  0  0  0  0
  1 29  1  0  0  0  0
  1 34  1  1  0  0  0
  3  4  1  0  0  0  0
  4  1  1  0  0  0  0
  5 10  1  0  0  0  0
  5  6  1  0  0  0  0
  6  3  2  0  0  0  0
  7 11  1  0  0  0  0
  7  5  2  0  0  0  0
  8  4  2  0  0  0  0
  9  6  1  0  0  0  0
  9 13  2  0  0  0  0
 10 15  1  0  0  0  0
 11 12  1  0  0  0  0
 11  9  1  0  0  0  0
 12 14  2  0  0  0  0
 13  8  1  0  0  0  0
 14 13  1  0  0  0  0
 14  2  1  0  0  0  0
 16 15  1  0  0  0  0
 17 16  1  0  0  0  0
 17 18  1  0  0  0  0
 18 19  1  0  0  0  0
 20 21  1  0  0  0  0
 20 19  2  0  0  0  0
 21 22  2  0  0  0  0
 23 21  1  0  0  0  0
 24 10  1  0  0  0  0
 25 28  1  0  0  0  0
 25 27  1  0  0  0  0
 26 25  2  0  0  0  0
 27 24  1  6  0  0  0
 28 27  1  0  0  0  0
 29 31  1  0  0  0  0
 30 33  1  0  0  0  0
 30 29  2  0  0  0  0
 33 32  1  0  0  0  0
 34 35  1  0  0  0  0
 35 39  1  0  0  0  0
 37 42  1  0  0  0  0
 38 41  1  0  0  0  0
 39 36  1  1  0  0  0
 39 38  1  0  0  0  0
 39 37  1  0  0  0  0
 40 42  1  0  0  0  0
 40 43  1  1  0  0  0
 41 40  1  0  0  0  0
 43 44  1  0  0  0  0
 44 45  2  0  0  0  0
 44 46  2  0  0  0  0
 47 44  1  0  0  0  0
 48 53  1  6  0  0  0
 48 47  1  0  0  0  0
 50 49  1  6  0  0  0
 50 48  1  0  0  0  0
 51 50  1  0  0  0  0
 52 51  2  0  0  0  0
 53 55  1  0  0  0  0
 55 54  1  0  0  0  0
M  END
>  <MODEL>
6

>  <REMARK>
 VINA RESULT:      -5.5      3.466      9.913
  Name = 
  22 active torsions:
  status: ('A' for Active; 'I' for Inactive)
    1  A    between atoms: C_2  and  O_19
    2  A    between atoms: C_2  and  C_20
    3  A    between atoms: C_5  and  N_55
    4  A    between atoms: S_6  and  N_21
    5  A    between atoms: S_6  and  N_38
    6  A    between atoms: C_7  and  C_39
    7  A    between atoms: C_14  and  C_51
    8  A    between atoms: C_15  and  C_18
    9  A    between atoms: C_15  and  C_46
   10  A    between atoms: C_16  and  C_39
   11  A    between atoms: C_18  and  O_35
   12  A    between atoms: C_20  and  N_21
   13  A    between atoms: C_20  and  C_26
   14  A    between atoms: C_23  and  C_29
   15  A    between atoms: C_23  and  N_41
   16  A    between atoms: C_25  and  O_35
   17  A    between atoms: C_25  and  N_41
   18  A    between atoms: C_26  and  C_32
   19  A    between atoms: C_30  and  C_45
   20  A    between atoms: C_31  and  C_39
   21  A    between atoms: C_31  and  C_45
   22  A    between atoms: C_37  and  N_38
                            x       y       z     vdW  Elec       q    Type
                         _______ _______ _______ _____ _____    ______ ____

>  <TORSDO>
F 22

$$$$
=
 OpenBabel11062412143D

 55 59  0  0  1  0  0  0  0  0999 V2000
  184.8720  177.3990  138.8020 C   0  0  1  0  0  3  0  0  0  0  0  0
  183.6810  179.3920  143.7760 N   0  0  0  0  0  1  0  0  0  0  0  0
  182.4550  178.1900  139.0140 C   0  0  0  0  0  3  0  0  0  0  0  0
  183.6680  177.7500  139.6310 C   0  0  0  0  0  0  0  0  0  0  0  0
  180.3980  179.5140  139.7220 C   0  0  0  0  0  0  0  0  0  0  0  0
  181.3770  178.5210  139.8470 C   0  0  0  0  0  0  0  0  0  0  0  0
  180.0910  180.0120  140.9620 N   0  0  0  0  0  0  0  0  0  0  0  0
  183.8310  177.8760  141.0390 C   0  0  0  0  0  3  0  0  0  0  0  0
  181.5110  178.4050  141.1910 C   0  0  0  0  0  0  0  0  0  0  0  0
  179.9350  180.1080  138.4960 N   0  0  0  0  0  0  0  0  0  0  0  0
  180.7700  179.2790  141.8320 N   0  0  0  0  0  0  0  0  0  0  0  0
  181.4260  179.7330  142.8910 N   0  0  0  0  0  0  0  0  0  0  0  0
  182.7060  178.2220  141.8000 C   0  0  0  0  0  0  0  0  0  0  0  0
  182.5960  179.0310  142.9310 C   0  0  0  0  0  0  0  0  0  0  0  0
  180.3650  179.6210  137.1920 C   0  0  0  0  0  2  0  0  0  0  0  0
  179.4940  178.6220  136.7440 O   0  0  0  0  0  0  0  0  0  0  0  0
  180.0200  178.2070  135.5160 C   0  0  0  0  0  2  0  0  0  0  0  0
  180.4770  176.7660  135.6370 C   0  0  0  0  0  2  0  0  0  0  0  0
  179.8640  176.1240  136.8340 C   0  0  0  0  0  3  0  0  0  0  0  0
  180.5440  175.2940  137.5570 N   0  0  0  0  0  0  0  0  0  0  0  0
  179.9820  174.6410  138.7000 C   0  0  0  0  0  0  0  0  0  0  0  0
  179.5280  173.4700  138.6200 O   0  0  0  0  0  0  0  0  0  0  0  0
  179.9420  175.3490  140.0030 C   0  0  0  0  0  1  0  0  0  0  0  0
  179.0020  181.2290  138.5290 C   0  0  0  0  0  2  0  0  0  0  0  0
  180.0760  183.0940  137.5370 C   0  0  0  0  0  0  0  0  0  0  0  0
  180.7870  183.1570  136.4590 N   0  0  0  0  0  2  0  0  0  0  0  0
  179.7580  182.5250  138.7600 C   0  0  1  0  0  3  0  0  0  0  0  0
  178.9380  183.6030  138.4290 N   0  0  0  0  0  2  0  0  0  0  0  0
  184.5470  176.8790  137.4360 C   0  0  0  0  0  0  0  0  0  0  0  0
  184.8630  175.6220  137.1360 C   0  0  0  0  0  3  0  0  0  0  0  0
  183.9070  177.6900  136.5030 O   0  0  0  0  0  1  0  0  0  0  0  0
  183.7340  173.9160  135.9460 O   0  0  0  0  0  1  0  0  0  0  0  0
  184.5770  175.0170  135.7990 C   0  0  0  0  0  2  0  0  0  0  0  0
  185.9380  178.4930  138.8030 C   0  0  0  0  0  2  0  0  0  0  0  0
  186.8130  178.4750  137.5510 C   0  0  0  0  0  2  0  0  0  0  0  0
  189.0340  178.2020  136.5490 C   0  0  0  0  0  1  0  0  0  0  0  0
  188.3160  176.5840  138.2750 C   0  0  0  0  0  2  0  0  0  0  0  0
  188.8900  179.0180  138.8670 C   0  0  0  0  0  2  0  0  0  0  0  0
  188.2580  178.0620  137.8400 C   0  0  2  0  0  0  0  0  0  0  0  0
  189.1270  177.1450  140.5870 C   0  0  1  0  0  3  0  0  0  0  0  0
  188.6290  178.5730  140.3080 C   0  0  0  0  0  2  0  0  0  0  0  0
  189.4050  176.3290  139.3180 C   0  0  0  0  0  2  0  0  0  0  0  0
  190.3280  177.1870  141.4100 N   0  0  0  0  0  2  0  0  0  0  0  0
  189.9450  176.4720  142.9390 S   0  0  0  0  0  0  0  0  0  0  0  0
  188.7430  175.5900  142.7770 O   0  0  0  0  0  0  0  0  0  0  0  0
  191.1100  175.6450  143.4110 O   0  0  0  0  0  0  0  0  0  0  0  0
  189.6090  177.7250  144.0930 N   0  0  0  0  0  2  0  0  0  0  0  0
  188.7340  177.1710  145.1170 C   0  0  2  0  0  3  0  0  0  0  0  0
  186.4340  177.3840  144.2910 N   0  0  0  0  0  1  0  0  0  0  0  0
  187.4250  177.9650  145.1850 C   0  0  1  0  0  3  0  0  0  0  0  0
  186.8880  177.9580  146.5790 C   0  0  0  0  0  3  0  0  0  0  0  0
  185.6270  178.0300  146.7860 N   0  0  0  0  0  2  0  0  0  0  0  0
  189.4490  177.2160  146.4610 C   0  0  0  0  0  2  0  0  0  0  0  0
  191.3080  176.8440  147.5940 C   0  0  0  0  0  1  0  0  0  0  0  0
  190.7980  176.8970  146.2960 O   0  0  0  0  0  0  0  0  0  0  0  0
  1 34  1  6  0  0  0
  1  4  1  0  0  0  0
  3  4  2  0  0  0  0
  3  6  1  0  0  0  0
  4  8  1  0  0  0  0
  5  6  1  0  0  0  0
  5  7  2  0  0  0  0
  6  9  2  0  0  0  0
  7 11  1  0  0  0  0
  8 13  2  0  0  0  0
  9 13  1  0  0  0  0
  9 11  1  0  0  0  0
 10 24  1  0  0  0  0
 10  5  1  0  0  0  0
 11 12  1  0  0  0  0
 12 14  2  0  0  0  0
 13 14  1  0  0  0  0
 14  2  1  0  0  0  0
 15 10  1  0  0  0  0
 16 15  1  0  0  0  0
 17 18  1  0  0  0  0
 17 16  1  0  0  0  0
 18 19  1  0  0  0  0
 19 20  2  0  0  0  0
 20 21  1  0  0  0  0
 21 23  1  0  0  0  0
 22 21  2  0  0  0  0
 25 28  1  0  0  0  0
 25 27  1  0  0  0  0
 26 25  2  0  0  0  0
 27 24  1  6  0  0  0
 28 27  1  0  0  0  0
 29  1  1  0  0  0  0
 30 29  2  0  0  0  0
 31 29  1  0  0  0  0
 33 32  1  0  0  0  0
 33 30  1  0  0  0  0
 35 39  1  0  0  0  0
 35 34  1  0  0  0  0
 37 42  1  0  0  0  0
 38 41  1  0  0  0  0
 39 36  1  6  0  0  0
 39 37  1  0  0  0  0
 39 38  1  0  0  0  0
 40 43  1  6  0  0  0
 41 40  1  0  0  0  0
 42 40  1  0  0  0  0
 43 44  1  0  0  0  0
 44 46  2  0  0  0  0
 44 47  1  0  0  0  0
 45 44  2  0  0  0  0
 47 48  1  0  0  0  0
 48 50  1  0  0  0  0
 48 53  1  1  0  0  0
 50 49  1  6  0  0  0
 50 51  1  0  0  0  0
 51 52  2  0  0  0  0
 55 53  1  0  0  0  0
 55 54  1  0  0  0  0
M  END
>  <MODEL>
7

>  <REMARK>
 VINA RESULT:      -5.3      3.059      8.230
  Name = 
  22 active torsions:
  status: ('A' for Active; 'I' for Inactive)
    1  A    between atoms: C_2  and  O_19
    2  A    between atoms: C_2  and  C_20
    3  A    between atoms: C_5  and  N_55
    4  A    between atoms: S_6  and  N_21
    5  A    between atoms: S_6  and  N_38
    6  A    between atoms: C_7  and  C_39
    7  A    between atoms: C_14  and  C_51
    8  A    between atoms: C_15  and  C_18
    9  A    between atoms: C_15  and  C_46
   10  A    between atoms: C_16  and  C_39
   11  A    between atoms: C_18  and  O_35
   12  A    between atoms: C_20  and  N_21
   13  A    between atoms: C_20  and  C_26
   14  A    between atoms: C_23  and  C_29
   15  A    between atoms: C_23  and  N_41
   16  A    between atoms: C_25  and  O_35
   17  A    between atoms: C_25  and  N_41
   18  A    between atoms: C_26  and  C_32
   19  A    between atoms: C_30  and  C_45
   20  A    between atoms: C_31  and  C_39
   21  A    between atoms: C_31  and  C_45
   22  A    between atoms: C_37  and  N_38
                            x       y       z     vdW  Elec       q    Type
                         _______ _______ _______ _____ _____    ______ ____

>  <TORSDO>
F 22

$$$$
=
 OpenBabel11062412143D

 55 59  0  0  1  0  0  0  0  0999 V2000
  186.2980  177.7510  143.3610 C   0  0  1  0  0  3  0  0  0  0  0  0
  191.0940  176.8090  145.8580 N   0  0  0  0  0  1  0  0  0  0  0  0
  188.2980  177.9080  141.7850 C   0  0  0  0  0  3  0  0  0  0  0  0
  187.7680  177.9380  143.1120 C   0  0  0  0  0  0  0  0  0  0  0  0
  190.5690  177.4880  140.7110 C   0  0  0  0  0  0  0  0  0  0  0  0
  189.6810  178.0690  141.6250 C   0  0  0  0  0  0  0  0  0  0  0  0
  191.7710  177.2560  141.3270 N   0  0  0  0  0  0  0  0  0  0  0  0
  188.6520  177.8980  144.2280 C   0  0  0  0  0  3  0  0  0  0  0  0
  190.4620  178.2580  142.7170 C   0  0  0  0  0  0  0  0  0  0  0  0
  190.2420  176.9850  139.4040 N   0  0  0  0  0  0  0  0  0  0  0  0
  191.6700  177.7760  142.5420 N   0  0  0  0  0  0  0  0  0  0  0  0
  192.0990  177.2200  143.6660 N   0  0  0  0  0  0  0  0  0  0  0  0
  190.0230  178.0560  143.9820 C   0  0  0  0  0  0  0  0  0  0  0  0
  191.1240  177.4530  144.5910 C   0  0  0  0  0  0  0  0  0  0  0  0
  188.9170  177.1570  138.8200 C   0  0  0  0  0  2  0  0  0  0  0  0
  188.8490  178.3780  138.1410 O   0  0  0  0  0  0  0  0  0  0  0  0
  187.7180  178.2760  137.3250 C   0  0  0  0  0  2  0  0  0  0  0  0
  187.0200  176.9590  137.6110 C   0  0  0  0  0  2  0  0  0  0  0  0
  187.2050  176.0140  136.4720 C   0  0  0  0  0  3  0  0  0  0  0  0
  187.3310  174.7450  136.6850 N   0  0  0  0  0  0  0  0  0  0  0  0
  187.5330  173.8100  135.6190 C   0  0  0  0  0  0  0  0  0  0  0  0
  188.2270  174.1120  134.6140 O   0  0  0  0  0  0  0  0  0  0  0  0
  186.9230  172.4600  135.7040 C   0  0  0  0  0  1  0  0  0  0  0  0
  191.2470  176.2840  138.6130 C   0  0  0  0  0  2  0  0  0  0  0  0
  191.4900  175.0820  136.5860 C   0  0  0  0  0  0  0  0  0  0  0  0
  192.1960  175.3660  135.5400 N   0  0  0  0  0  2  0  0  0  0  0  0
  190.5700  175.4170  137.5660 C   0  0  1  0  0  3  0  0  0  0  0  0
  191.0380  174.1080  137.6800 N   0  0  0  0  0  2  0  0  0  0  0  0
  185.9070  177.8090  144.8060 C   0  0  0  0  0  0  0  0  0  0  0  0
  185.0860  178.7760  145.2100 C   0  0  0  0  0  3  0  0  0  0  0  0
  186.3760  176.8570  145.7060 O   0  0  0  0  0  1  0  0  0  0  0  0
  185.6660  179.4700  147.3970 O   0  0  0  0  0  1  0  0  0  0  0  0
  184.6420  178.9130  146.6310 C   0  0  0  0  0  2  0  0  0  0  0  0
  185.4230  178.6140  142.4550 C   0  0  0  0  0  2  0  0  0  0  0  0
  184.7640  177.8200  141.3280 C   0  0  0  0  0  2  0  0  0  0  0  0
  182.7850  178.9650  142.2170 C   0  0  0  0  0  1  0  0  0  0  0  0
  182.4560  177.1690  140.5490 C   0  0  0  0  0  2  0  0  0  0  0  0
  183.4700  179.4400  139.9000 C   0  0  0  0  0  2  0  0  0  0  0  0
  183.3700  178.3380  140.9690 C   0  0  2  0  0  0  0  0  0  0  0  0
  182.2220  178.0090  138.1920 C   0  0  1  0  0  3  0  0  0  0  0  0
  183.4630  178.8690  138.4800 C   0  0  0  0  0  2  0  0  0  0  0  0
  181.4670  177.5710  139.4540 C   0  0  0  0  0  2  0  0  0  0  0  0
  181.3140  178.7250  137.3070 N   0  0  0  0  0  2  0  0  0  0  0  0
  180.6810  177.5870  136.1660 S   0  0  0  0  0  0  0  0  0  0  0  0
  179.8380  176.5830  136.8960 O   0  0  0  0  0  0  0  0  0  0  0  0
  179.8330  178.3080  135.1560 O   0  0  0  0  0  0  0  0  0  0  0  0
  181.9950  176.7840  135.3640 N   0  0  0  0  0  2  0  0  0  0  0  0
  181.9170  175.3650  135.6810 C   0  0  2  0  0  3  0  0  0  0  0  0
  184.2380  175.6520  134.9420 N   0  0  0  0  0  1  0  0  0  0  0  0
  183.2870  174.7020  135.5010 C   0  0  1  0  0  3  0  0  0  0  0  0
  183.8020  174.2140  136.8150 C   0  0  0  0  0  3  0  0  0  0  0  0
  183.3310  174.6840  137.9090 N   0  0  0  0  0  2  0  0  0  0  0  0
  180.8880  174.7070  134.7690 C   0  0  0  0  0  2  0  0  0  0  0  0
  180.7750  172.5050  134.6520 C   0  0  0  0  0  1  0  0  0  0  0  0
  180.3310  173.5950  135.4010 O   0  0  0  0  0  0  0  0  0  0  0  0
  1 34  1  6  0  0  0
  1 29  1  0  0  0  0
  3  4  1  0  0  0  0
  4  1  1  0  0  0  0
  4  8  2  0  0  0  0
  5  7  2  0  0  0  0
  5  6  1  0  0  0  0
  6  3  2  0  0  0  0
  6  9  1  0  0  0  0
  7 11  1  0  0  0  0
  9 13  2  0  0  0  0
 10  5  1  0  0  0  0
 11  9  1  0  0  0  0
 11 12  1  0  0  0  0
 12 14  2  0  0  0  0
 13  8  1  0  0  0  0
 13 14  1  0  0  0  0
 14  2  1  0  0  0  0
 15 10  1  0  0  0  0
 16 15  1  0  0  0  0
 17 18  1  0  0  0  0
 17 16  1  0  0  0  0
 19 20  2  0  0  0  0
 19 18  1  0  0  0  0
 21 23  1  0  0  0  0
 21 20  1  0  0  0  0
 22 21  2  0  0  0  0
 24 10  1  0  0  0  0
 25 27  1  0  0  0  0
 25 28  1  0  0  0  0
 26 25  2  0  0  0  0
 27 28  1  0  0  0  0
 27 24  1  1  0  0  0
 29 30  2  0  0  0  0
 29 31  1  0  0  0  0
 30 33  1  0  0  0  0
 33 32  1  0  0  0  0
 35 34  1  0  0  0  0
 37 39  1  0  0  0  0
 38 39  1  0  0  0  0
 39 35  1  0  0  0  0
 39 36  1  1  0  0  0
 40 43  1  6  0  0  0
 40 41  1  0  0  0  0
 40 42  1  0  0  0  0
 41 38  1  0  0  0  0
 42 37  1  0  0  0  0
 44 45  2  0  0  0  0
 44 43  1  0  0  0  0
 46 44  2  0  0  0  0
 47 48  1  0  0  0  0
 47 44  1  0  0  0  0
 48 53  1  6  0  0  0
 50 49  1  1  0  0  0
 50 48  1  0  0  0  0
 50 51  1  0  0  0  0
 51 52  2  0  0  0  0
 53 55  1  0  0  0  0
 54 55  1  0  0  0  0
M  END
>  <MODEL>
8

>  <REMARK>
 VINA RESULT:      -5.3      3.074      7.032
  Name = 
  22 active torsions:
  status: ('A' for Active; 'I' for Inactive)
    1  A    between atoms: C_2  and  O_19
    2  A    between atoms: C_2  and  C_20
    3  A    between atoms: C_5  and  N_55
    4  A    between atoms: S_6  and  N_21
    5  A    between atoms: S_6  and  N_38
    6  A    between atoms: C_7  and  C_39
    7  A    between atoms: C_14  and  C_51
    8  A    between atoms: C_15  and  C_18
    9  A    between atoms: C_15  and  C_46
   10  A    between atoms: C_16  and  C_39
   11  A    between atoms: C_18  and  O_35
   12  A    between atoms: C_20  and  N_21
   13  A    between atoms: C_20  and  C_26
   14  A    between atoms: C_23  and  C_29
   15  A    between atoms: C_23  and  N_41
   16  A    between atoms: C_25  and  O_35
   17  A    between atoms: C_25  and  N_41
   18  A    between atoms: C_26  and  C_32
   19  A    between atoms: C_30  and  C_45
   20  A    between atoms: C_31  and  C_39
   21  A    between atoms: C_31  and  C_45
   22  A    between atoms: C_37  and  N_38
                            x       y       z     vdW  Elec       q    Type
                         _______ _______ _______ _____ _____    ______ ____

>  <TORSDO>
F 22

$$$$
=
 OpenBabel11062412143D

 55 59  0  0  1  0  0  0  0  0999 V2000
  189.8990  177.7270  139.7090 C   0  0  1  0  0  3  0  0  0  0  0  0
  192.0560  178.2360  144.7310 N   0  0  0  0  0  1  0  0  0  0  0  0
  188.2060  177.3210  141.5740 C   0  0  0  0  0  3  0  0  0  0  0  0
  189.5650  177.3810  141.1330 C   0  0  0  0  0  0  0  0  0  0  0  0
  186.9780  177.4740  143.8010 C   0  0  0  0  0  0  0  0  0  0  0  0
  187.9650  177.0130  142.9210 C   0  0  0  0  0  0  0  0  0  0  0  0
  187.5090  177.5980  145.0580 N   0  0  0  0  0  0  0  0  0  0  0  0
  190.6200  177.3610  142.0880 C   0  0  0  0  0  3  0  0  0  0  0  0
  189.0120  176.7750  143.7490 C   0  0  0  0  0  0  0  0  0  0  0  0
  185.6770  177.9720  143.4400 N   0  0  0  0  0  0  0  0  0  0  0  0
  188.7450  177.1250  144.9850 N   0  0  0  0  0  0  0  0  0  0  0  0
  189.8200  177.6640  145.5420 N   0  0  0  0  0  0  0  0  0  0  0  0
  190.2940  177.0560  143.4170 C   0  0  0  0  0  0  0  0  0  0  0  0
  190.8120  177.5580  144.6110 C   0  0  0  0  0  0  0  0  0  0  0  0
  185.1850  177.9220  142.0700 C   0  0  0  0  0  2  0  0  0  0  0  0
  185.2110  179.2010  141.5050 O   0  0  0  0  0  0  0  0  0  0  0  0
  184.9060  179.0070  140.1540 C   0  0  0  0  0  2  0  0  0  0  0  0
  183.7410  178.0410  140.0440 C   0  0  0  0  0  2  0  0  0  0  0  0
  182.5540  178.7240  139.4560 C   0  0  0  0  0  3  0  0  0  0  0  0
  182.6690  179.8920  138.9140 N   0  0  0  0  0  0  0  0  0  0  0  0
  181.5480  180.5890  138.3600 C   0  0  0  0  0  0  0  0  0  0  0  0
  180.5580  179.9640  137.8980 O   0  0  0  0  0  0  0  0  0  0  0  0
  181.5460  182.0730  138.3370 C   0  0  0  0  0  1  0  0  0  0  0  0
  184.8010  178.5440  144.4570 C   0  0  0  0  0  2  0  0  0  0  0  0
  182.6360  179.1240  143.6900 C   0  0  0  0  0  0  0  0  0  0  0  0
  181.7570  178.3980  143.0810 N   0  0  0  0  0  2  0  0  0  0  0  0
  183.9230  179.6170  143.8390 C   0  0  1  0  0  3  0  0  0  0  0  0
  183.0380  180.0990  144.8030 N   0  0  0  0  0  2  0  0  0  0  0  0
  190.7480  176.7080  139.0130 C   0  0  0  0  0  0  0  0  0  0  0  0
  192.0170  177.0060  138.7430 C   0  0  0  0  0  3  0  0  0  0  0  0
  190.2250  175.4630  138.6730 O   0  0  0  0  0  1  0  0  0  0  0  0
  194.1630  176.0100  138.7170 O   0  0  0  0  0  1  0  0  0  0  0  0
  192.9380  176.0520  138.0520 C   0  0  0  0  0  2  0  0  0  0  0  0
  188.6810  178.1660  138.8990 C   0  0  0  0  0  2  0  0  0  0  0  0
  188.9750  178.2990  137.4050 C   0  0  0  0  0  2  0  0  0  0  0  0
  187.5250  179.3780  135.7470 C   0  0  0  0  0  1  0  0  0  0  0  0
  186.4890  177.8750  137.4150 C   0  0  0  0  0  2  0  0  0  0  0  0
  187.9700  176.9670  135.5200 C   0  0  0  0  0  2  0  0  0  0  0  0
  187.7340  178.1020  136.5330 C   0  0  2  0  0  0  0  0  0  0  0  0
  186.1510  175.5260  136.5870 C   0  0  1  0  0  3  0  0  0  0  0  0
  187.6060  175.5960  136.0930 C   0  0  0  0  0  2  0  0  0  0  0  0
  185.4970  176.9010  136.7790 C   0  0  0  0  0  2  0  0  0  0  0  0
  185.3500  174.7320  135.6670 N   0  0  0  0  0  2  0  0  0  0  0  0
  183.9700  174.1500  136.5350 S   0  0  0  0  0  0  0  0  0  0  0  0
  184.4110  173.6620  137.8830 O   0  0  0  0  0  0  0  0  0  0  0  0
  182.9800  175.2690  136.7100 O   0  0  0  0  0  0  0  0  0  0  0  0
  183.2360  172.8520  135.6460 N   0  0  0  0  0  2  0  0  0  0  0  0
  183.0100  171.7470  136.5680 C   0  0  2  0  0  3  0  0  0  0  0  0
  182.7880  169.6560  135.3040 N   0  0  0  0  0  1  0  0  0  0  0  0
  183.7140  170.4810  136.0660 C   0  0  1  0  0  3  0  0  0  0  0  0
  184.8730  170.8450  135.1970 C   0  0  0  0  0  3  0  0  0  0  0  0
  186.0100  171.1180  135.7160 N   0  0  0  0  0  2  0  0  0  0  0  0
  181.5110  171.5030  136.6940 C   0  0  0  0  0  2  0  0  0  0  0  0
  180.2990  173.0240  137.7390 C   0  0  0  0  0  1  0  0  0  0  0  0
  181.0700  171.8820  137.9620 O   0  0  0  0  0  0  0  0  0  0  0  0
  1 34  1  6  0  0  0
  1  4  1  0  0  0  0
  3  6  1  0  0  0  0
  4  3  2  0  0  0  0
  4  8  1  0  0  0  0
  5  7  2  0  0  0  0
  6  9  2  0  0  0  0
  6  5  1  0  0  0  0
  8 13  2  0  0  0  0
  9 11  1  0  0  0  0
 10  5  1  0  0  0  0
 10 24  1  0  0  0  0
 11  7  1  0  0  0  0
 11 12  1  0  0  0  0
 13  9  1  0  0  0  0
 13 14  1  0  0  0  0
 14  2  1  0  0  0  0
 14 12  2  0  0  0  0
 15 10  1  0  0  0  0
 16 15  1  0  0  0  0
 17 16  1  0  0  0  0
 18 17  1  0  0  0  0
 19 18  1  0  0  0  0
 20 19  2  0  0  0  0
 21 20  1  0  0  0  0
 22 21  2  0  0  0  0
 23 21  1  0  0  0  0
 25 27  1  0  0  0  0
 25 28  1  0  0  0  0
 26 25  2  0  0  0  0
 27 24  1  1  0  0  0
 27 28  1  0  0  0  0
 29  1  1  0  0  0  0
 30 29  2  0  0  0  0
 31 29  1  0  0  0  0
 33 32  1  0  0  0  0
 33 30  1  0  0  0  0
 35 34  1  0  0  0  0
 38 41  1  0  0  0  0
 38 39  1  0  0  0  0
 39 36  1  6  0  0  0
 39 35  1  0  0  0  0
 39 37  1  0  0  0  0
 40 43  1  6  0  0  0
 40 42  1  0  0  0  0
 41 40  1  0  0  0  0
 42 37  1  0  0  0  0
 43 44  1  0  0  0  0
 44 46  2  0  0  0  0
 44 45  2  0  0  0  0
 47 44  1  0  0  0  0
 47 48  1  0  0  0  0
 48 53  1  6  0  0  0
 50 49  1  6  0  0  0
 50 48  1  0  0  0  0
 51 52  2  0  0  0  0
 51 50  1  0  0  0  0
 53 55  1  0  0  0  0
 54 55  1  0  0  0  0
M  END
>  <MODEL>
9

>  <REMARK>
 VINA RESULT:      -5.2      1.558      2.106
  Name = 
  22 active torsions:
  status: ('A' for Active; 'I' for Inactive)
    1  A    between atoms: C_2  and  O_19
    2  A    between atoms: C_2  and  C_20
    3  A    between atoms: C_5  and  N_55
    4  A    between atoms: S_6  and  N_21
    5  A    between atoms: S_6  and  N_38
    6  A    between atoms: C_7  and  C_39
    7  A    between atoms: C_14  and  C_51
    8  A    between atoms: C_15  and  C_18
    9  A    between atoms: C_15  and  C_46
   10  A    between atoms: C_16  and  C_39
   11  A    between atoms: C_18  and  O_35
   12  A    between atoms: C_20  and  N_21
   13  A    between atoms: C_20  and  C_26
   14  A    between atoms: C_23  and  C_29
   15  A    between atoms: C_23  and  N_41
   16  A    between atoms: C_25  and  O_35
   17  A    between atoms: C_25  and  N_41
   18  A    between atoms: C_26  and  C_32
   19  A    between atoms: C_30  and  C_45
   20  A    between atoms: C_31  and  C_39
   21  A    between atoms: C_31  and  C_45
   22  A    between atoms: C_37  and  N_38
                            x       y       z     vdW  Elec       q    Type
                         _______ _______ _______ _____ _____    ______ ____

>  <TORSDO>
F 22

$$$$
