=
 OpenBabel11062410593D

 49 51  0  0  1  0  0  0  0  0999 V2000
  190.5380  176.8850  141.1520 C   0  0  1  0  0  3  0  0  0  0  0  0
  190.4610  175.2160  142.8470 O   0  0  0  0  0  0  0  0  0  0  0  0
  190.7940  176.3920  142.5430 C   0  0  0  0  0  0  0  0  0  0  0  0
  191.3760  177.2470  143.4890 O   0  0  0  0  0  0  0  0  0  0  0  0
  190.7460  177.6510  144.7040 C   0  0  1  0  0  3  0  0  0  0  0  0
  189.3600  178.2300  144.4300 C   0  0  0  0  0  2  0  0  0  0  0  0
  188.2790  177.2230  144.7680 C   0  0  0  0  0  2  0  0  0  0  0  0
  187.2760  177.8330  145.5700 O   0  0  0  0  0  0  0  0  0  0  0  0
  185.2260  178.1420  142.6130 C   0  0  0  0  0  3  0  0  0  0  0  0
  183.5060  179.6030  143.8230 C   0  0  0  0  0  2  0  0  0  0  0  0
  186.0440  178.2050  145.0330 C   0  0  0  0  0  0  0  0  0  0  0  0
  183.5450  178.8800  145.1880 C   0  0  0  0  0  2  0  0  0  0  0  0
  185.8080  178.0780  143.7670 C   0  0  0  0  0  0  0  0  0  0  0  0
  183.8140  178.6690  142.6220 C   0  0  0  0  0  2  0  0  0  0  0  0
  184.9460  178.8340  145.8650 C   0  0  0  0  0  2  0  0  0  0  0  0
  190.6860  176.4830  145.6880 C   0  0  0  0  0  2  0  0  0  0  0  0
  192.0450  176.1920  146.3010 C   0  0  0  0  0  2  0  0  0  0  0  0
  192.0720  176.6130  147.6350 O   0  0  0  0  0  1  0  0  0  0  0  0
  189.5590  178.0600  141.1370 C   0  0  0  0  0  2  0  0  0  0  0  0
  188.2000  177.7220  140.5390 C   0  0  0  0  0  2  0  0  0  0  0  0
  188.1070  178.1790  139.0890 C   0  0  0  0  0  2  0  0  0  0  0  0
  185.9570  178.2210  137.7250 C   0  0  2  0  0  3  0  0  0  0  0  0
  185.3400  174.4390  135.1310 C   0  0  0  0  0  2  0  0  0  0  0  0
  182.2900  174.4940  135.0310 O   0  0  0  0  0  0  0  0  0  0  0  0
  182.8240  176.0360  137.1540 C   0  0  0  0  0  2  0  0  0  0  0  0
  185.3320  176.9510  135.5910 C   0  0  0  0  0  2  0  0  0  0  0  0
  186.1620  175.6560  135.5620 C   0  0  1  0  0  3  0  0  0  0  0  0
  182.0920  173.4780  137.2410 O   0  0  0  0  0  0  0  0  0  0  0  0
  187.0460  175.3750  136.7810 C   0  0  0  0  0  2  0  0  0  0  0  0
  187.8490  176.5960  137.1850 C   0  0  0  0  0  2  0  0  0  0  0  0
  184.8740  177.4440  136.9680 C   0  0  1  0  0  3  0  0  0  0  0  0
  187.1070  177.3570  138.2770 C   0  0  1  0  0  3  0  0  0  0  0  0
  184.1430  176.4020  137.8110 C   0  0  0  0  0  2  0  0  0  0  0  0
  184.5630  173.7880  136.2750 C   0  0  0  0  0  2  0  0  0  0  0  0
  185.3620  178.9500  138.7630 O   0  0  0  0  0  1  0  0  0  0  0  0
  182.8980  174.4240  136.4010 S   0  0  0  0  0  0  0  0  0  0  0  0
  191.7590  177.2120  140.4900 O   0  0  0  0  0  0  0  0  0  0  0  0
  193.3130  176.4280  138.7580 N   0  0  0  0  0  2  0  0  0  0  0  0
  192.8910  176.1600  136.4710 O   0  0  0  0  0  0  0  0  0  0  0  0
  193.7180  176.1070  137.4240 C   0  0  0  0  0  0  0  0  0  0  0  0
  192.0010  176.8440  139.1630 C   0  0  0  0  0  0  0  0  0  0  0  0
  191.0570  176.8890  138.3310 O   0  0  0  0  0  0  0  0  0  0  0  0
  195.0550  175.7570  137.1930 O   0  0  0  0  0  0  0  0  0  0  0  0
  194.7610  173.3700  136.9200 C   0  0  0  0  0  1  0  0  0  0  0  0
  195.6570  174.3210  139.0040 C   0  0  0  0  0  1  0  0  0  0  0  0
  195.6280  174.4820  137.4940 C   0  0  0  0  0  0  0  0  0  0  0  0
  197.0600  174.6120  135.4880 N   0  0  0  0  0  1  0  0  0  0  0  0
  197.9130  175.2950  137.5480 O   0  0  0  0  0  1  0  0  0  0  0  0
  197.0530  174.3840  136.9240 C   0  0  1  0  0  3  0  0  0  0  0  0
  1 19  1  1  0  0  0
  1  3  1  0  0  0  0
  3  2  2  0  0  0  0
  3  4  1  0  0  0  0
  4  5  1  0  0  0  0
  5  6  1  6  0  0  0
  5 16  1  0  0  0  0
  6  7  1  0  0  0  0
  7  8  1  0  0  0  0
  9 14  1  0  0  0  0
  9 13  2  0  0  0  0
 10 12  1  0  0  0  0
 11  8  1  0  0  0  0
 11 15  1  0  0  0  0
 12 15  1  0  0  0  0
 13 11  2  0  0  0  0
 14 10  1  0  0  0  0
 16 17  1  0  0  0  0
 17 18  1  0  0  0  0
 20 19  1  0  0  0  0
 21 20  1  0  0  0  0
 22 32  1  0  0  0  0
 22 35  1  1  0  0  0
 23 34  1  0  0  0  0
 24 36  2  0  0  0  0
 25 33  1  0  0  0  0
 27 23  1  1  0  0  0
 27 26  1  0  0  0  0
 27 29  1  0  0  0  0
 29 30  1  0  0  0  0
 30 32  1  0  0  0  0
 31 26  1  6  0  0  0
 31 22  1  0  0  0  0
 31 33  1  0  0  0  0
 32 21  1  6  0  0  0
 34 36  1  0  0  0  0
 36 25  1  0  0  0  0
 36 28  2  0  0  0  0
 37  1  1  0  0  0  0
 38 41  1  0  0  0  0
 39 40  2  0  0  0  0
 40 38  1  0  0  0  0
 41 37  1  0  0  0  0
 42 41  2  0  0  0  0
 43 40  1  0  0  0  0
 43 46  1  0  0  0  0
 44 46  1  0  0  0  0
 46 45  1  0  0  0  0
 49 47  1  6  0  0  0
 49 46  1  0  0  0  0
 49 48  1  0  0  0  0
M  END
>  <MODEL>
1

>  <REMARK>
 VINA RESULT:      -7.9      0.000      0.000
  Name = 
  18 active torsions:
  status: ('A' for Active; 'I' for Inactive)
    1  A    between atoms: C_4  and  O_42
    2  A    between atoms: C_13  and  O_35
    3  A    between atoms: C_15  and  O_42
    4  A    between atoms: C_15  and  C_49
    5  A    between atoms: C_16  and  O_25
    6  A    between atoms: C_16  and  C_45
    7  A    between atoms: C_16  and  C_48
    8  A    between atoms: C_22  and  C_32
    9  A    between atoms: O_25  and  C_30
   10  A    between atoms: C_28  and  C_36
   11  A    between atoms: C_28  and  C_44
   12  A    between atoms: C_29  and  C_32
   13  A    between atoms: C_29  and  O_39
   14  A    between atoms: C_29  and  C_49
   15  A    between atoms: C_34  and  C_46
   16  A    between atoms: O_35  and  C_46
   17  A    between atoms: O_39  and  C_45
   18  A    between atoms: C_44  and  C_48
                            x       y       z     vdW  Elec       q    Type
                         _______ _______ _______ _____ _____    ______ ____

>  <TORSDO>
F 18

$$$$
=
 OpenBabel11062410593D

 49 51  0  0  1  0  0  0  0  0999 V2000
  182.1600  178.7320  141.4000 C   0  0  1  0  0  3  0  0  0  0  0  0
  181.1710  178.6820  143.5640 O   0  0  0  0  0  0  0  0  0  0  0  0
  182.2010  178.9310  142.8830 C   0  0  0  0  0  0  0  0  0  0  0  0
  183.3700  179.4110  143.4900 O   0  0  0  0  0  0  0  0  0  0  0  0
  184.3200  178.5890  144.1670 C   0  0  1  0  0  3  0  0  0  0  0  0
  185.7310  178.8530  143.6480 C   0  0  0  0  0  2  0  0  0  0  0  0
  186.3680  177.5730  143.1450 C   0  0  0  0  0  2  0  0  0  0  0  0
  187.0190  176.8970  144.2140 O   0  0  0  0  0  0  0  0  0  0  0  0
  190.1970  176.0220  142.7400 C   0  0  0  0  0  3  0  0  0  0  0  0
  191.4500  176.4080  144.9400 C   0  0  0  0  0  2  0  0  0  0  0  0
  188.4080  176.9020  144.3380 C   0  0  0  0  0  0  0  0  0  0  0  0
  190.6460  177.6360  145.4220 C   0  0  0  0  0  2  0  0  0  0  0  0
  189.1580  176.4220  143.3990 C   0  0  0  0  0  0  0  0  0  0  0  0
  191.5280  176.2910  143.3950 C   0  0  0  0  0  2  0  0  0  0  0  0
  189.1160  177.3970  145.5810 C   0  0  0  0  0  2  0  0  0  0  0  0
  184.2250  178.7970  145.6770 C   0  0  0  0  0  2  0  0  0  0  0  0
  185.5590  179.2100  146.2760 C   0  0  0  0  0  2  0  0  0  0  0  0
  186.0240  178.2200  147.1470 O   0  0  0  0  0  1  0  0  0  0  0  0
  183.4080  178.0110  140.8900 C   0  0  0  0  0  2  0  0  0  0  0  0
  184.3480  178.9000  140.0850 C   0  0  0  0  0  2  0  0  0  0  0  0
  184.6490  178.2910  138.7210 C   0  0  0  0  0  2  0  0  0  0  0  0
  186.6480  178.2330  137.1460 C   0  0  2  0  0  3  0  0  0  0  0  0
  190.6890  177.5980  139.3110 C   0  0  0  0  0  2  0  0  0  0  0  0
  192.1880  176.2600  137.0140 O   0  0  0  0  0  0  0  0  0  0  0  0
  189.6290  175.9260  136.3030 C   0  0  0  0  0  2  0  0  0  0  0  0
  189.1270  178.6850  137.6090 C   0  0  0  0  0  2  0  0  0  0  0  0
  189.3860  178.3720  139.0920 C   0  0  1  0  0  3  0  0  0  0  0  0
  191.1670  174.0910  137.4670 O   0  0  0  0  0  0  0  0  0  0  0  0
  188.2120  177.7990  139.8920 C   0  0  0  0  0  2  0  0  0  0  0  0
  186.9370  178.5840  139.6570 C   0  0  0  0  0  2  0  0  0  0  0  0
  188.0980  177.8050  136.8890 C   0  0  1  0  0  3  0  0  0  0  0  0
  186.1200  177.9150  138.5580 C   0  0  1  0  0  3  0  0  0  0  0  0
  188.3410  176.3030  137.0130 C   0  0  0  0  0  2  0  0  0  0  0  0
  190.5430  176.0870  139.1290 C   0  0  0  0  0  2  0  0  0  0  0  0
  185.8170  177.6530  136.1790 O   0  0  0  0  0  1  0  0  0  0  0  0
  190.9320  175.5730  137.4630 S   0  0  0  0  0  0  0  0  0  0  0  0
  180.9670  178.0570  141.0040 O   0  0  0  0  0  0  0  0  0  0  0  0
  180.8370  179.0990  138.7840 N   0  0  0  0  0  2  0  0  0  0  0  0
  179.7260  178.2940  136.8870 O   0  0  0  0  0  0  0  0  0  0  0  0
  180.4050  179.2130  137.4240 C   0  0  0  0  0  0  0  0  0  0  0  0
  180.5580  178.0030  139.6680 C   0  0  0  0  0  0  0  0  0  0  0  0
  179.9390  176.9890  139.2550 O   0  0  0  0  0  0  0  0  0  0  0  0
  180.7290  180.3740  136.7110 O   0  0  0  0  0  0  0  0  0  0  0  0
  181.5140  182.0570  138.2640 C   0  0  0  0  0  1  0  0  0  0  0  0
  179.1180  181.7690  137.7900 C   0  0  0  0  0  1  0  0  0  0  0  0
  180.5070  181.7070  137.1780 C   0  0  0  0  0  0  0  0  0  0  0  0
  180.6850  182.0230  134.7360 N   0  0  0  0  0  1  0  0  0  0  0  0
  179.5430  183.6050  136.0140 O   0  0  0  0  0  1  0  0  0  0  0  0
  180.6180  182.7100  136.0160 C   0  0  1  0  0  3  0  0  0  0  0  0
  1 19  1  1  0  0  0
  1  3  1  0  0  0  0
  3  4  1  0  0  0  0
  3  2  2  0  0  0  0
  4  5  1  0  0  0  0
  5  6  1  6  0  0  0
  5 16  1  0  0  0  0
  7  6  1  0  0  0  0
  7  8  1  0  0  0  0
  8 11  1  0  0  0  0
  9 14  1  0  0  0  0
  9 13  2  0  0  0  0
 10 12  1  0  0  0  0
 11 15  1  0  0  0  0
 12 15  1  0  0  0  0
 13 11  2  0  0  0  0
 14 10  1  0  0  0  0
 16 17  1  0  0  0  0
 17 18  1  0  0  0  0
 20 19  1  0  0  0  0
 21 20  1  0  0  0  0
 22 35  1  6  0  0  0
 22 32  1  0  0  0  0
 24 36  2  0  0  0  0
 25 33  1  0  0  0  0
 25 36  1  0  0  0  0
 27 26  1  6  0  0  0
 27 23  1  0  0  0  0
 27 29  1  0  0  0  0
 30 29  1  0  0  0  0
 31 33  1  1  0  0  0
 31 22  1  0  0  0  0
 31 26  1  0  0  0  0
 32 21  1  6  0  0  0
 32 30  1  0  0  0  0
 34 23  1  0  0  0  0
 36 28  2  0  0  0  0
 36 34  1  0  0  0  0
 37  1  1  0  0  0  0
 38 41  1  0  0  0  0
 39 40  2  0  0  0  0
 40 38  1  0  0  0  0
 41 37  1  0  0  0  0
 42 41  2  0  0  0  0
 43 46  1  0  0  0  0
 43 40  1  0  0  0  0
 46 45  1  0  0  0  0
 46 44  1  0  0  0  0
 48 49  1  0  0  0  0
 49 47  1  6  0  0  0
 49 46  1  0  0  0  0
M  END
>  <MODEL>
2

>  <REMARK>
 VINA RESULT:      -7.8      4.448      9.526
  Name = 
  18 active torsions:
  status: ('A' for Active; 'I' for Inactive)
    1  A    between atoms: C_4  and  O_42
    2  A    between atoms: C_13  and  O_35
    3  A    between atoms: C_15  and  O_42
    4  A    between atoms: C_15  and  C_49
    5  A    between atoms: C_16  and  O_25
    6  A    between atoms: C_16  and  C_45
    7  A    between atoms: C_16  and  C_48
    8  A    between atoms: C_22  and  C_32
    9  A    between atoms: O_25  and  C_30
   10  A    between atoms: C_28  and  C_36
   11  A    between atoms: C_28  and  C_44
   12  A    between atoms: C_29  and  C_32
   13  A    between atoms: C_29  and  O_39
   14  A    between atoms: C_29  and  C_49
   15  A    between atoms: C_34  and  C_46
   16  A    between atoms: O_35  and  C_46
   17  A    between atoms: O_39  and  C_45
   18  A    between atoms: C_44  and  C_48
                            x       y       z     vdW  Elec       q    Type
                         _______ _______ _______ _____ _____    ______ ____

>  <TORSDO>
F 18

$$$$
=
 OpenBabel11062410593D

 49 51  0  0  1  0  0  0  0  0999 V2000
  181.8640  178.6520  140.7870 C   0  0  1  0  0  3  0  0  0  0  0  0
  180.8200  178.4330  142.9140 O   0  0  0  0  0  0  0  0  0  0  0  0
  181.8390  178.8060  142.2760 C   0  0  0  0  0  0  0  0  0  0  0  0
  182.9360  179.3790  142.9350 O   0  0  0  0  0  0  0  0  0  0  0  0
  183.8930  178.6430  143.6950 C   0  0  1  0  0  3  0  0  0  0  0  0
  185.3140  179.0000  143.2680 C   0  0  0  0  0  2  0  0  0  0  0  0
  186.0790  177.7600  142.8490 C   0  0  0  0  0  2  0  0  0  0  0  0
  186.7190  177.1760  143.9760 O   0  0  0  0  0  0  0  0  0  0  0  0
  189.7830  177.5990  145.8390 C   0  0  0  0  0  3  0  0  0  0  0  0
  191.2310  177.1070  143.7840 C   0  0  0  0  0  2  0  0  0  0  0  0
  188.1010  176.9950  144.0130 C   0  0  0  0  0  0  0  0  0  0  0  0
  190.3430  176.0040  143.1660 C   0  0  0  0  0  2  0  0  0  0  0  0
  188.7880  177.3520  145.0490 C   0  0  0  0  0  0  0  0  0  0  0  0
  191.1380  177.1760  145.3320 C   0  0  0  0  0  2  0  0  0  0  0  0
  188.8850  176.4420  142.8410 C   0  0  0  0  0  2  0  0  0  0  0  0
  183.6770  178.8720  145.1900 C   0  0  0  0  0  2  0  0  0  0  0  0
  184.9870  179.1280  145.9160 C   0  0  0  0  0  2  0  0  0  0  0  0
  185.0040  178.4450  147.1360 O   0  0  0  0  0  1  0  0  0  0  0  0
  183.1120  177.9060  140.3140 C   0  0  0  0  0  2  0  0  0  0  0  0
  184.0980  178.7780  139.5480 C   0  0  0  0  0  2  0  0  0  0  0  0
  184.5150  178.1190  138.2390 C   0  0  0  0  0  2  0  0  0  0  0  0
  186.6190  178.0850  136.8050 C   0  0  2  0  0  3  0  0  0  0  0  0
  190.5240  177.7160  139.2610 C   0  0  0  0  0  2  0  0  0  0  0  0
  192.2310  176.3540  137.1290 O   0  0  0  0  0  0  0  0  0  0  0  0
  189.7430  175.8790  136.2640 C   0  0  0  0  0  2  0  0  0  0  0  0
  189.0390  178.6640  137.4130 C   0  0  0  0  0  2  0  0  0  0  0  0
  189.2090  178.4230  138.9220 C   0  0  1  0  0  3  0  0  0  0  0  0
  191.2720  174.1630  137.6070 O   0  0  0  0  0  0  0  0  0  0  0  0
  188.0070  177.8310  139.6660 C   0  0  0  0  0  2  0  0  0  0  0  0
  186.7200  178.5490  139.3120 C   0  0  0  0  0  2  0  0  0  0  0  0
  188.0990  177.7110  136.6640 C   0  0  1  0  0  3  0  0  0  0  0  0
  186.0090  177.8010  138.1910 C   0  0  1  0  0  3  0  0  0  0  0  0
  188.3940  176.2280  136.8690 C   0  0  0  0  0  2  0  0  0  0  0  0
  190.4530  176.1950  139.1350 C   0  0  0  0  0  2  0  0  0  0  0  0
  185.8810  177.4300  135.8110 O   0  0  0  0  0  1  0  0  0  0  0  0
  190.9770  175.6310  137.5220 S   0  0  0  0  0  0  0  0  0  0  0  0
  180.6700  178.0290  140.3140 O   0  0  0  0  0  0  0  0  0  0  0  0
  181.1470  176.4400  138.5040 N   0  0  0  0  0  2  0  0  0  0  0  0
  180.6580  174.1510  138.4420 O   0  0  0  0  0  0  0  0  0  0  0  0
  181.1200  175.1660  137.8510 C   0  0  0  0  0  0  0  0  0  0  0  0
  180.6650  176.7180  139.8260 C   0  0  0  0  0  0  0  0  0  0  0  0
  180.2270  175.7930  140.5580 O   0  0  0  0  0  0  0  0  0  0  0  0
  181.5940  175.0750  136.5360 O   0  0  0  0  0  0  0  0  0  0  0  0
  183.8440  174.5650  137.2680 C   0  0  0  0  0  1  0  0  0  0  0  0
  183.3620  175.1640  134.9330 C   0  0  0  0  0  1  0  0  0  0  0  0
  182.8170  174.4410  136.1520 C   0  0  0  0  0  0  0  0  0  0  0  0
  182.9680  172.1040  136.9340 N   0  0  0  0  0  1  0  0  0  0  0  0
  181.2330  172.7220  135.5020 O   0  0  0  0  0  1  0  0  0  0  0  0
  182.5750  172.9580  135.8240 C   0  0  1  0  0  3  0  0  0  0  0  0
  1 19  1  1  0  0  0
  1  3  1  0  0  0  0
  3  2  2  0  0  0  0
  3  4  1  0  0  0  0
  4  5  1  0  0  0  0
  5  6  1  6  0  0  0
  5 16  1  0  0  0  0
  7  6  1  0  0  0  0
  7  8  1  0  0  0  0
  8 11  1  0  0  0  0
 10 14  1  0  0  0  0
 11 13  2  0  0  0  0
 12 10  1  0  0  0  0
 13  9  2  0  0  0  0
 14  9  1  0  0  0  0
 15 12  1  0  0  0  0
 15 11  1  0  0  0  0
 16 17  1  0  0  0  0
 17 18  1  0  0  0  0
 20 19  1  0  0  0  0
 21 20  1  0  0  0  0
 22 35  1  6  0  0  0
 22 32  1  0  0  0  0
 24 36  2  0  0  0  0
 25 33  1  0  0  0  0
 25 36  1  0  0  0  0
 27 26  1  6  0  0  0
 27 23  1  0  0  0  0
 27 29  1  0  0  0  0
 30 29  1  0  0  0  0
 31 22  1  0  0  0  0
 31 33  1  1  0  0  0
 31 26  1  0  0  0  0
 32 21  1  6  0  0  0
 32 30  1  0  0  0  0
 34 23  1  0  0  0  0
 36 28  2  0  0  0  0
 36 34  1  0  0  0  0
 37  1  1  0  0  0  0
 38 41  1  0  0  0  0
 40 39  2  0  0  0  0
 40 38  1  0  0  0  0
 41 37  1  0  0  0  0
 41 42  2  0  0  0  0
 43 40  1  0  0  0  0
 45 46  1  0  0  0  0
 46 43  1  0  0  0  0
 46 44  1  0  0  0  0
 49 48  1  1  0  0  0
 49 46  1  0  0  0  0
 49 47  1  0  0  0  0
M  END
>  <MODEL>
3

>  <REMARK>
 VINA RESULT:      -7.8      4.002      8.629
  Name = 
  18 active torsions:
  status: ('A' for Active; 'I' for Inactive)
    1  A    between atoms: C_4  and  O_42
    2  A    between atoms: C_13  and  O_35
    3  A    between atoms: C_15  and  O_42
    4  A    between atoms: C_15  and  C_49
    5  A    between atoms: C_16  and  O_25
    6  A    between atoms: C_16  and  C_45
    7  A    between atoms: C_16  and  C_48
    8  A    between atoms: C_22  and  C_32
    9  A    between atoms: O_25  and  C_30
   10  A    between atoms: C_28  and  C_36
   11  A    between atoms: C_28  and  C_44
   12  A    between atoms: C_29  and  C_32
   13  A    between atoms: C_29  and  O_39
   14  A    between atoms: C_29  and  C_49
   15  A    between atoms: C_34  and  C_46
   16  A    between atoms: O_35  and  C_46
   17  A    between atoms: O_39  and  C_45
   18  A    between atoms: C_44  and  C_48
                            x       y       z     vdW  Elec       q    Type
                         _______ _______ _______ _____ _____    ______ ____

>  <TORSDO>
F 18

$$$$
=
 OpenBabel11062410593D

 49 51  0  0  1  0  0  0  0  0999 V2000
  183.4000  179.2090  143.4210 C   0  0  1  0  0  3  0  0  0  0  0  0
  183.5780  179.0310  145.7880 O   0  0  0  0  0  0  0  0  0  0  0  0
  184.1700  178.9500  144.6800 C   0  0  0  0  0  0  0  0  0  0  0  0
  185.5360  178.6450  144.6100 O   0  0  0  0  0  0  0  0  0  0  0  0
  186.1880  177.6780  145.4330 C   0  0  1  0  0  3  0  0  0  0  0  0
  187.3200  176.9930  144.6720 C   0  0  0  0  0  2  0  0  0  0  0  0
  187.2390  177.3040  143.1910 C   0  0  0  0  0  2  0  0  0  0  0  0
  188.3380  178.1180  142.8010 O   0  0  0  0  0  0  0  0  0  0  0  0
  188.4420  178.3490  139.1990 C   0  0  0  0  0  3  0  0  0  0  0  0
  190.4180  176.7270  139.0410 C   0  0  0  0  0  2  0  0  0  0  0  0
  189.0530  177.8600  141.6320 C   0  0  0  0  0  0  0  0  0  0  0  0
  191.1780  177.2050  140.2980 C   0  0  0  0  0  2  0  0  0  0  0  0
  188.5800  178.2050  140.4780 C   0  0  0  0  0  0  0  0  0  0  0  0
  189.5890  177.8480  138.3590 C   0  0  0  0  0  2  0  0  0  0  0  0
  190.3700  177.1140  141.6270 C   0  0  0  0  0  2  0  0  0  0  0  0
  186.6860  178.3260  146.7240 C   0  0  0  0  0  2  0  0  0  0  0  0
  187.8550  177.5630  147.3250 C   0  0  0  0  0  2  0  0  0  0  0  0
  188.2150  178.1230  148.5550 O   0  0  0  0  0  1  0  0  0  0  0  0
  183.8050  178.2500  142.3010 C   0  0  0  0  0  2  0  0  0  0  0  0
  184.7400  178.8670  141.2690 C   0  0  0  0  0  2  0  0  0  0  0  0
  184.0050  179.1660  139.9680 C   0  0  0  0  0  2  0  0  0  0  0  0
  182.7050  177.6410  138.3980 C   0  0  2  0  0  3  0  0  0  0  0  0
  185.3820  175.4130  135.3500 C   0  0  0  0  0  2  0  0  0  0  0  0
  183.5980  172.9710  134.9340 O   0  0  0  0  0  0  0  0  0  0  0  0
  182.7010  173.9500  137.2590 C   0  0  0  0  0  2  0  0  0  0  0  0
  183.3280  176.7420  136.0820 C   0  0  0  0  0  2  0  0  0  0  0  0
  184.8620  176.6990  135.9980 C   0  0  1  0  0  3  0  0  0  0  0  0
  184.3890  171.9100  136.9840 O   0  0  0  0  0  0  0  0  0  0  0  0
  185.6340  177.0800  137.2650 C   0  0  0  0  0  2  0  0  0  0  0  0
  185.1000  178.3570  137.8840 C   0  0  0  0  0  2  0  0  0  0  0  0
  182.7040  176.4370  137.4490 C   0  0  1  0  0  3  0  0  0  0  0  0
  184.0870  178.0140  138.9690 C   0  0  1  0  0  3  0  0  0  0  0  0
  183.1710  175.1320  138.0890 C   0  0  0  0  0  2  0  0  0  0  0  0
  185.5110  174.2440  136.3260 C   0  0  0  0  0  2  0  0  0  0  0  0
  181.8000  177.4080  139.4410 O   0  0  0  0  0  1  0  0  0  0  0  0
  184.0440  173.2230  136.3450 S   0  0  0  0  0  0  0  0  0  0  0  0
  181.9950  179.1720  143.6610 O   0  0  0  0  0  0  0  0  0  0  0  0
  180.8870  180.1180  141.6840 N   0  0  0  0  0  2  0  0  0  0  0  0
  179.1410  179.1830  140.4360 O   0  0  0  0  0  0  0  0  0  0  0  0
  179.9220  180.1560  140.6270 C   0  0  0  0  0  0  0  0  0  0  0  0
  181.0710  179.0450  142.6190 C   0  0  0  0  0  0  0  0  0  0  0  0
  180.4020  177.9840  142.5170 O   0  0  0  0  0  0  0  0  0  0  0  0
  179.8470  181.3030  139.8270 O   0  0  0  0  0  0  0  0  0  0  0  0
  180.1520  180.0090  137.8040 C   0  0  0  0  0  1  0  0  0  0  0  0
  181.7360  181.7780  138.4450 C   0  0  0  0  0  1  0  0  0  0  0  0
  180.2710  181.3760  138.4640 C   0  0  0  0  0  0  0  0  0  0  0  0
  179.4430  183.6990  138.3580 N   0  0  0  0  0  1  0  0  0  0  0  0
  179.8840  182.5510  136.3770 O   0  0  0  0  0  1  0  0  0  0  0  0
  179.4290  182.4070  137.6920 C   0  0  1  0  0  3  0  0  0  0  0  0
  1 19  1  6  0  0  0
  1 37  1  0  0  0  0
  1  3  1  0  0  0  0
  3  2  2  0  0  0  0
  4  3  1  0  0  0  0
  4  5  1  0  0  0  0
  5  6  1  6  0  0  0
  5 16  1  0  0  0  0
  7  6  1  0  0  0  0
  8  7  1  0  0  0  0
  9 13  2  0  0  0  0
 10 12  1  0  0  0  0
 11  8  1  0  0  0  0
 12 15  1  0  0  0  0
 13 11  2  0  0  0  0
 14 10  1  0  0  0  0
 14  9  1  0  0  0  0
 15 11  1  0  0  0  0
 16 17  1  0  0  0  0
 17 18  1  0  0  0  0
 20 19  1  0  0  0  0
 21 20  1  0  0  0  0
 22 32  1  0  0  0  0
 22 35  1  1  0  0  0
 23 34  1  0  0  0  0
 24 36  2  0  0  0  0
 25 33  1  0  0  0  0
 27 23  1  1  0  0  0
 27 26  1  0  0  0  0
 27 29  1  0  0  0  0
 29 30  1  0  0  0  0
 30 32  1  0  0  0  0
 31 26  1  6  0  0  0
 31 33  1  0  0  0  0
 31 22  1  0  0  0  0
 32 21  1  1  0  0  0
 34 36  1  0  0  0  0
 36 28  2  0  0  0  0
 36 25  1  0  0  0  0
 38 41  1  0  0  0  0
 39 40  2  0  0  0  0
 40 38  1  0  0  0  0
 41 37  1  0  0  0  0
 42 41  2  0  0  0  0
 43 40  1  0  0  0  0
 44 46  1  0  0  0  0
 45 46  1  0  0  0  0
 46 43  1  0  0  0  0
 49 48  1  6  0  0  0
 49 47  1  0  0  0  0
 49 46  1  0  0  0  0
M  END
>  <MODEL>
4

>  <REMARK>
 VINA RESULT:      -7.7      4.851      9.046
  Name = 
  18 active torsions:
  status: ('A' for Active; 'I' for Inactive)
    1  A    between atoms: C_4  and  O_42
    2  A    between atoms: C_13  and  O_35
    3  A    between atoms: C_15  and  O_42
    4  A    between atoms: C_15  and  C_49
    5  A    between atoms: C_16  and  O_25
    6  A    between atoms: C_16  and  C_45
    7  A    between atoms: C_16  and  C_48
    8  A    between atoms: C_22  and  C_32
    9  A    between atoms: O_25  and  C_30
   10  A    between atoms: C_28  and  C_36
   11  A    between atoms: C_28  and  C_44
   12  A    between atoms: C_29  and  C_32
   13  A    between atoms: C_29  and  O_39
   14  A    between atoms: C_29  and  C_49
   15  A    between atoms: C_34  and  C_46
   16  A    between atoms: O_35  and  C_46
   17  A    between atoms: O_39  and  C_45
   18  A    between atoms: C_44  and  C_48
                            x       y       z     vdW  Elec       q    Type
                         _______ _______ _______ _____ _____    ______ ____

>  <TORSDO>
F 18

$$$$
=
 OpenBabel11062410593D

 49 51  0  0  1  0  0  0  0  0999 V2000
  185.3240  178.5230  139.6280 C   0  0  1  0  0  3  0  0  0  0  0  0
  183.9930  180.4000  139.0240 O   0  0  0  0  0  0  0  0  0  0  0  0
  184.0120  179.2300  139.4890 C   0  0  0  0  0  0  0  0  0  0  0  0
  182.8310  178.5940  139.8970 O   0  0  0  0  0  0  0  0  0  0  0  0
  181.5290  178.9280  139.4150 C   0  0  1  0  0  3  0  0  0  0  0  0
  181.2090  178.1540  138.1390 C   0  0  0  0  0  2  0  0  0  0  0  0
  181.3950  179.0300  136.9170 C   0  0  0  0  0  2  0  0  0  0  0  0
  180.3350  179.9740  136.8250 O   0  0  0  0  0  0  0  0  0  0  0  0
  181.5680  183.1230  138.0880 C   0  0  0  0  0  3  0  0  0  0  0  0
  180.5560  184.4320  136.1330 C   0  0  0  0  0  2  0  0  0  0  0  0
  180.5830  181.3210  136.5680 C   0  0  0  0  0  0  0  0  0  0  0  0
  180.8300  183.3910  135.0250 C   0  0  0  0  0  2  0  0  0  0  0  0
  181.1140  182.0810  137.4710 C   0  0  0  0  0  0  0  0  0  0  0  0
  181.5980  184.3970  137.2820 C   0  0  0  0  0  2  0  0  0  0  0  0
  180.1930  181.9910  135.2670 C   0  0  0  0  0  2  0  0  0  0  0  0
  180.4820  178.6880  140.5010 C   0  0  0  0  0  2  0  0  0  0  0  0
  180.4600  179.8130  141.5220 C   0  0  0  0  0  2  0  0  0  0  0  0
  179.9800  180.9880  140.9350 O   0  0  0  0  0  1  0  0  0  0  0  0
  186.0300  178.3670  138.2810 C   0  0  0  0  0  2  0  0  0  0  0  0
  187.2740  177.4900  138.3340 C   0  0  0  0  0  2  0  0  0  0  0  0
  188.5360  178.3080  138.0850 C   0  0  0  0  0  2  0  0  0  0  0  0
  190.1910  176.4440  138.6020 C   0  0  2  0  0  3  0  0  0  0  0  0
  192.2160  174.6710  134.8370 C   0  0  0  0  0  2  0  0  0  0  0  0
  194.8110  173.7500  136.1520 O   0  0  0  0  0  0  0  0  0  0  0  0
  193.8840  175.5480  137.9060 C   0  0  0  0  0  2  0  0  0  0  0  0
  191.0640  174.5520  137.1130 C   0  0  0  0  0  2  0  0  0  0  0  0
  190.9720  175.0290  135.6540 C   0  0  1  0  0  3  0  0  0  0  0  0
  195.7700  175.9920  136.0800 O   0  0  0  0  0  0  0  0  0  0  0  0
  190.5060  176.4710  135.4280 C   0  0  0  0  0  2  0  0  0  0  0  0
  189.2740  176.7980  136.2480 C   0  0  0  0  0  2  0  0  0  0  0  0
  191.4040  175.6140  138.1650 C   0  0  1  0  0  3  0  0  0  0  0  0
  189.6910  177.4580  137.5560 C   0  0  1  0  0  3  0  0  0  0  0  0
  192.6540  176.4370  137.8630 C   0  0  0  0  0  2  0  0  0  0  0  0
  193.3550  175.6790  134.9810 C   0  0  0  0  0  2  0  0  0  0  0  0
  190.4900  177.0990  139.8040 O   0  0  0  0  0  1  0  0  0  0  0  0
  194.5020  175.2140  136.2700 S   0  0  0  0  0  0  0  0  0  0  0  0
  186.1600  179.1700  140.5860 O   0  0  0  0  0  0  0  0  0  0  0  0
  187.4560  177.9200  142.2560 N   0  0  0  0  0  2  0  0  0  0  0  0
  186.8390  177.4060  144.4550 O   0  0  0  0  0  0  0  0  0  0  0  0
  187.6850  177.2970  143.5230 C   0  0  0  0  0  0  0  0  0  0  0  0
  186.2990  178.6870  141.8910 C   0  0  0  0  0  0  0  0  0  0  0  0
  185.3970  178.9280  142.7340 O   0  0  0  0  0  0  0  0  0  0  0  0
  188.8530  176.5450  143.7010 O   0  0  0  0  0  0  0  0  0  0  0  0
  190.2030  178.5540  143.7200 C   0  0  0  0  0  1  0  0  0  0  0  0
  191.2060  176.3400  143.3490 C   0  0  0  0  0  1  0  0  0  0  0  0
  190.1170  177.0830  144.1010 C   0  0  0  0  0  0  0  0  0  0  0  0
  191.7180  177.0360  145.9790 N   0  0  0  0  0  1  0  0  0  0  0  0
  189.5670  177.8640  146.3310 O   0  0  0  0  0  1  0  0  0  0  0  0
  190.3150  176.9210  145.6180 C   0  0  1  0  0  3  0  0  0  0  0  0
  1 19  1  6  0  0  0
  1 37  1  0  0  0  0
  2  3  2  0  0  0  0
  3  1  1  0  0  0  0
  3  4  1  0  0  0  0
  5  6  1  6  0  0  0
  5  4  1  0  0  0  0
  5 16  1  0  0  0  0
  7  6  1  0  0  0  0
  8  7  1  0  0  0  0
 10 14  1  0  0  0  0
 11  8  1  0  0  0  0
 11 13  2  0  0  0  0
 12 15  1  0  0  0  0
 12 10  1  0  0  0  0
 13  9  2  0  0  0  0
 14  9  1  0  0  0  0
 15 11  1  0  0  0  0
 16 17  1  0  0  0  0
 18 17  1  0  0  0  0
 19 20  1  0  0  0  0
 21 20  1  0  0  0  0
 22 35  1  1  0  0  0
 23 34  1  0  0  0  0
 24 36  2  0  0  0  0
 27 23  1  1  0  0  0
 27 26  1  0  0  0  0
 28 36  2  0  0  0  0
 29 27  1  0  0  0  0
 29 30  1  0  0  0  0
 30 32  1  0  0  0  0
 31 26  1  6  0  0  0
 31 22  1  0  0  0  0
 32 21  1  1  0  0  0
 32 22  1  0  0  0  0
 33 25  1  0  0  0  0
 33 31  1  0  0  0  0
 34 36  1  0  0  0  0
 36 25  1  0  0  0  0
 37 41  1  0  0  0  0
 38 40  1  0  0  0  0
 40 43  1  0  0  0  0
 40 39  2  0  0  0  0
 41 38  1  0  0  0  0
 41 42  2  0  0  0  0
 43 46  1  0  0  0  0
 44 46  1  0  0  0  0
 45 46  1  0  0  0  0
 46 49  1  0  0  0  0
 49 47  1  6  0  0  0
 49 48  1  0  0  0  0
M  END
>  <MODEL>
5

>  <REMARK>
 VINA RESULT:      -7.6      4.155      9.082
  Name = 
  18 active torsions:
  status: ('A' for Active; 'I' for Inactive)
    1  A    between atoms: C_4  and  O_42
    2  A    between atoms: C_13  and  O_35
    3  A    between atoms: C_15  and  O_42
    4  A    between atoms: C_15  and  C_49
    5  A    between atoms: C_16  and  O_25
    6  A    between atoms: C_16  and  C_45
    7  A    between atoms: C_16  and  C_48
    8  A    between atoms: C_22  and  C_32
    9  A    between atoms: O_25  and  C_30
   10  A    between atoms: C_28  and  C_36
   11  A    between atoms: C_28  and  C_44
   12  A    between atoms: C_29  and  C_32
   13  A    between atoms: C_29  and  O_39
   14  A    between atoms: C_29  and  C_49
   15  A    between atoms: C_34  and  C_46
   16  A    between atoms: O_35  and  C_46
   17  A    between atoms: O_39  and  C_45
   18  A    between atoms: C_44  and  C_48
                            x       y       z     vdW  Elec       q    Type
                         _______ _______ _______ _____ _____    ______ ____

>  <TORSDO>
F 18

$$$$
=
 OpenBabel11062410593D

 49 51  0  0  1  0  0  0  0  0999 V2000
  184.4500  178.7130  143.7620 C   0  0  1  0  0  3  0  0  0  0  0  0
  182.1450  178.9980  144.2850 O   0  0  0  0  0  0  0  0  0  0  0  0
  182.9930  178.6570  143.4180 C   0  0  0  0  0  0  0  0  0  0  0  0
  182.5940  178.2090  142.1510 O   0  0  0  0  0  0  0  0  0  0  0  0
  181.9220  179.0180  141.1860 C   0  0  1  0  0  3  0  0  0  0  0  0
  182.2630  178.5650  139.7690 C   0  0  0  0  0  2  0  0  0  0  0  0
  182.6490  177.1000  139.7500 C   0  0  0  0  0  2  0  0  0  0  0  0
  181.9450  176.4210  138.7170 O   0  0  0  0  0  0  0  0  0  0  0  0
  184.4440  174.0580  137.6190 C   0  0  0  0  0  3  0  0  0  0  0  0
  184.4810  175.0280  135.2500 C   0  0  0  0  0  2  0  0  0  0  0  0
  182.6150  175.8420  137.6410 C   0  0  0  0  0  0  0  0  0  0  0  0
  182.9690  175.3240  135.1250 C   0  0  0  0  0  2  0  0  0  0  0  0
  183.5090  174.9260  137.8330 C   0  0  0  0  0  0  0  0  0  0  0  0
  184.7980  173.8220  136.1730 C   0  0  0  0  0  2  0  0  0  0  0  0
  182.3970  176.2840  136.2090 C   0  0  0  0  0  2  0  0  0  0  0  0
  180.4150  179.0060  141.4370 C   0  0  0  0  0  2  0  0  0  0  0  0
  179.7420  180.2530  140.8870 C   0  0  0  0  0  2  0  0  0  0  0  0
  179.6730  181.2390  141.8760 O   0  0  0  0  0  1  0  0  0  0  0  0
  185.2690  179.3780  142.6560 C   0  0  0  0  0  2  0  0  0  0  0  0
  186.0620  178.3980  141.8010 C   0  0  0  0  0  2  0  0  0  0  0  0
  185.9120  178.7130  140.3180 C   0  0  0  0  0  2  0  0  0  0  0  0
  186.7330  178.2410  137.9550 C   0  0  2  0  0  3  0  0  0  0  0  0
  191.0840  176.6730  137.7890 C   0  0  0  0  0  2  0  0  0  0  0  0
  190.8570  175.0820  135.1950 O   0  0  0  0  0  0  0  0  0  0  0  0
  188.2970  175.3420  135.9360 C   0  0  0  0  0  2  0  0  0  0  0  0
  189.1190  178.1170  137.0320 C   0  0  0  0  0  2  0  0  0  0  0  0
  190.0460  177.7230  138.1930 C   0  0  1  0  0  3  0  0  0  0  0  0
  189.8120  173.1870  136.3220 O   0  0  0  0  0  0  0  0  0  0  0  0
  189.3770  177.4110  139.5360 C   0  0  0  0  0  2  0  0  0  0  0  0
  188.3550  178.4660  139.9110 C   0  0  0  0  0  2  0  0  0  0  0  0
  187.7130  177.5050  137.0340 C   0  0  1  0  0  3  0  0  0  0  0  0
  186.9700  178.0200  139.4610 C   0  0  1  0  0  3  0  0  0  0  0  0
  187.6780  175.9840  137.1660 C   0  0  0  0  0  2  0  0  0  0  0  0
  190.5650  175.2380  137.8600 C   0  0  0  0  0  2  0  0  0  0  0  0
  185.4230  177.8800  137.6160 O   0  0  0  0  0  1  0  0  0  0  0  0
  189.9120  174.6830  136.2910 S   0  0  0  0  0  0  0  0  0  0  0  0
  184.6570  179.3490  145.0220 O   0  0  0  0  0  0  0  0  0  0  0  0
  186.7550  178.1300  145.3970 N   0  0  0  0  0  2  0  0  0  0  0  0
  187.9220  177.8740  147.4110 O   0  0  0  0  0  0  0  0  0  0  0  0
  187.8300  177.6010  146.1810 C   0  0  0  0  0  0  0  0  0  0  0  0
  185.6970  178.9710  145.8780 C   0  0  0  0  0  0  0  0  0  0  0  0
  185.6870  179.3730  147.0700 O   0  0  0  0  0  0  0  0  0  0  0  0
  188.7610  176.7580  145.5630 O   0  0  0  0  0  0  0  0  0  0  0  0
  189.1720  178.4990  143.9320 C   0  0  0  0  0  1  0  0  0  0  0  0
  189.0110  176.1360  143.2710 C   0  0  0  0  0  1  0  0  0  0  0  0
  189.4810  177.0740  144.3690 C   0  0  0  0  0  0  0  0  0  0  0  0
  191.7200  178.0910  144.1570 N   0  0  0  0  0  1  0  0  0  0  0  0
  191.2820  176.6500  145.9380 O   0  0  0  0  0  1  0  0  0  0  0  0
  190.9940  176.9100  144.5930 C   0  0  1  0  0  3  0  0  0  0  0  0
  1 19  1  6  0  0  0
  1 37  1  0  0  0  0
  3  1  1  0  0  0  0
  3  2  2  0  0  0  0
  4  3  1  0  0  0  0
  5  6  1  6  0  0  0
  5 16  1  0  0  0  0
  5  4  1  0  0  0  0
  7  6  1  0  0  0  0
  8  7  1  0  0  0  0
  9 13  2  0  0  0  0
 10 14  1  0  0  0  0
 11 13  2  0  0  0  0
 11  8  1  0  0  0  0
 12 10  1  0  0  0  0
 12 15  1  0  0  0  0
 14  9  1  0  0  0  0
 15 11  1  0  0  0  0
 17 16  1  0  0  0  0
 17 18  1  0  0  0  0
 20 19  1  0  0  0  0
 21 20  1  0  0  0  0
 22 35  1  6  0  0  0
 22 32  1  0  0  0  0
 23 34  1  0  0  0  0
 23 27  1  0  0  0  0
 24 36  2  0  0  0  0
 25 36  1  0  0  0  0
 25 33  1  0  0  0  0
 27 26  1  6  0  0  0
 27 29  1  0  0  0  0
 29 30  1  0  0  0  0
 31 26  1  1  0  0  0
 31 33  1  0  0  0  0
 31 22  1  0  0  0  0
 32 30  1  0  0  0  0
 32 21  1  1  0  0  0
 36 28  2  0  0  0  0
 36 34  1  0  0  0  0
 37 41  1  0  0  0  0
 38 41  1  0  0  0  0
 38 40  1  0  0  0  0
 40 39  2  0  0  0  0
 41 42  2  0  0  0  0
 43 40  1  0  0  0  0
 44 46  1  0  0  0  0
 45 46  1  0  0  0  0
 46 49  1  0  0  0  0
 46 43  1  0  0  0  0
 49 47  1  1  0  0  0
 49 48  1  0  0  0  0
M  END
>  <MODEL>
6

>  <REMARK>
 VINA RESULT:      -7.5      3.391      8.368
  Name = 
  18 active torsions:
  status: ('A' for Active; 'I' for Inactive)
    1  A    between atoms: C_4  and  O_42
    2  A    between atoms: C_13  and  O_35
    3  A    between atoms: C_15  and  O_42
    4  A    between atoms: C_15  and  C_49
    5  A    between atoms: C_16  and  O_25
    6  A    between atoms: C_16  and  C_45
    7  A    between atoms: C_16  and  C_48
    8  A    between atoms: C_22  and  C_32
    9  A    between atoms: O_25  and  C_30
   10  A    between atoms: C_28  and  C_36
   11  A    between atoms: C_28  and  C_44
   12  A    between atoms: C_29  and  C_32
   13  A    between atoms: C_29  and  O_39
   14  A    between atoms: C_29  and  C_49
   15  A    between atoms: C_34  and  C_46
   16  A    between atoms: O_35  and  C_46
   17  A    between atoms: O_39  and  C_45
   18  A    between atoms: C_44  and  C_48
                            x       y       z     vdW  Elec       q    Type
                         _______ _______ _______ _____ _____    ______ ____

>  <TORSDO>
F 18

$$$$
=
 OpenBabel11062410593D

 49 51  0  0  1  0  0  0  0  0999 V2000
  190.6500  176.8130  141.1700 C   0  0  1  0  0  3  0  0  0  0  0  0
  190.3940  175.1400  142.8440 O   0  0  0  0  0  0  0  0  0  0  0  0
  190.5370  176.3670  142.5950 C   0  0  0  0  0  0  0  0  0  0  0  0
  190.5700  177.3150  143.6260 O   0  0  0  0  0  0  0  0  0  0  0  0
  189.4480  177.6610  144.4380 C   0  0  1  0  0  3  0  0  0  0  0  0
  188.1950  176.9230  143.9730 C   0  0  0  0  0  2  0  0  0  0  0  0
  186.9830  177.3680  144.7670 C   0  0  0  0  0  2  0  0  0  0  0  0
  186.4100  178.5270  144.1750 O   0  0  0  0  0  0  0  0  0  0  0  0
  183.9540  178.2310  141.5450 C   0  0  0  0  0  3  0  0  0  0  0  0
  182.1150  179.2700  142.9920 C   0  0  0  0  0  2  0  0  0  0  0  0
  185.0620  178.5710  143.8220 C   0  0  0  0  0  0  0  0  0  0  0  0
  182.5210  178.6250  144.3350 C   0  0  0  0  0  2  0  0  0  0  0  0
  184.6890  178.3490  142.6030 C   0  0  0  0  0  0  0  0  0  0  0  0
  182.4720  178.4000  141.7580 C   0  0  0  0  0  2  0  0  0  0  0  0
  183.9710  178.9420  144.8040 C   0  0  0  0  0  2  0  0  0  0  0  0
  189.7520  177.3890  145.9100 C   0  0  0  0  0  2  0  0  0  0  0  0
  191.2260  177.0990  146.1380 C   0  0  0  0  0  2  0  0  0  0  0  0
  191.6040  177.5050  147.4220 O   0  0  0  0  0  1  0  0  0  0  0  0
  189.4570  177.6700  140.7470 C   0  0  0  0  0  2  0  0  0  0  0  0
  188.9670  177.3910  139.3320 C   0  0  0  0  0  2  0  0  0  0  0  0
  187.7700  178.2660  138.9810 C   0  0  0  0  0  2  0  0  0  0  0  0
  185.5540  178.4040  137.7360 C   0  0  2  0  0  3  0  0  0  0  0  0
  184.4090  174.4830  135.5590 C   0  0  0  0  0  2  0  0  0  0  0  0
  181.3790  174.8420  135.6170 O   0  0  0  0  0  0  0  0  0  0  0  0
  182.1930  176.5090  137.5480 C   0  0  0  0  0  2  0  0  0  0  0  0
  184.6750  177.0140  135.7720 C   0  0  0  0  0  2  0  0  0  0  0  0
  185.3710  175.6440  135.8250 C   0  0  1  0  0  3  0  0  0  0  0  0
  181.2220  174.0590  137.9220 O   0  0  0  0  0  0  0  0  0  0  0  0
  186.2990  175.3870  137.0170 C   0  0  0  0  0  2  0  0  0  0  0  0
  187.2400  176.5500  137.2560 C   0  0  0  0  0  2  0  0  0  0  0  0
  184.3550  177.6760  137.1170 C   0  0  1  0  0  3  0  0  0  0  0  0
  186.6460  177.4810  138.3070 C   0  0  1  0  0  3  0  0  0  0  0  0
  183.5800  176.7970  138.0950 C   0  0  0  0  0  2  0  0  0  0  0  0
  183.6470  174.0230  136.8010 C   0  0  0  0  0  2  0  0  0  0  0  0
  185.0980  179.2820  138.7280 O   0  0  0  0  0  1  0  0  0  0  0  0
  182.0620  174.8360  136.9530 S   0  0  0  0  0  0  0  0  0  0  0  0
  191.8870  177.4850  140.9370 O   0  0  0  0  0  0  0  0  0  0  0  0
  192.2120  176.9080  138.5730 N   0  0  0  0  0  2  0  0  0  0  0  0
  194.1890  176.2150  137.5260 O   0  0  0  0  0  0  0  0  0  0  0  0
  192.9520  176.4540  137.4350 C   0  0  0  0  0  0  0  0  0  0  0  0
  192.7390  177.1210  139.8900 C   0  0  0  0  0  0  0  0  0  0  0  0
  193.9680  176.9780  140.1200 O   0  0  0  0  0  0  0  0  0  0  0  0
  192.2720  176.2560  136.2260 O   0  0  0  0  0  0  0  0  0  0  0  0
  192.3950  174.3700  134.7140 C   0  0  0  0  0  1  0  0  0  0  0  0
  190.2390  175.3840  135.3260 C   0  0  0  0  0  1  0  0  0  0  0  0
  191.6250  175.0400  135.8440 C   0  0  0  0  0  0  0  0  0  0  0  0
  190.1580  173.6030  137.2140 N   0  0  0  0  0  1  0  0  0  0  0  0
  192.3890  172.9980  136.9070 O   0  0  0  0  0  1  0  0  0  0  0  0
  191.5200  174.0850  137.0450 C   0  0  1  0  0  3  0  0  0  0  0  0
  1 19  1  1  0  0  0
  1  3  1  0  0  0  0
  3  2  2  0  0  0  0
  3  4  1  0  0  0  0
  4  5  1  0  0  0  0
  5  6  1  6  0  0  0
  5 16  1  0  0  0  0
  6  7  1  0  0  0  0
  8  7  1  0  0  0  0
  9 14  1  0  0  0  0
  9 13  2  0  0  0  0
 10 12  1  0  0  0  0
 11  8  1  0  0  0  0
 11 15  1  0  0  0  0
 12 15  1  0  0  0  0
 13 11  2  0  0  0  0
 14 10  1  0  0  0  0
 16 17  1  0  0  0  0
 17 18  1  0  0  0  0
 20 19  1  0  0  0  0
 21 20  1  0  0  0  0
 22 32  1  0  0  0  0
 22 35  1  1  0  0  0
 23 34  1  0  0  0  0
 24 36  2  0  0  0  0
 25 33  1  0  0  0  0
 26 27  1  0  0  0  0
 27 23  1  1  0  0  0
 27 29  1  0  0  0  0
 29 30  1  0  0  0  0
 30 32  1  0  0  0  0
 31 26  1  6  0  0  0
 31 22  1  0  0  0  0
 31 33  1  0  0  0  0
 32 21  1  6  0  0  0
 34 36  1  0  0  0  0
 36 25  1  0  0  0  0
 36 28  2  0  0  0  0
 37  1  1  0  0  0  0
 38 41  1  0  0  0  0
 40 39  2  0  0  0  0
 40 38  1  0  0  0  0
 41 42  2  0  0  0  0
 41 37  1  0  0  0  0
 43 40  1  0  0  0  0
 44 46  1  0  0  0  0
 45 46  1  0  0  0  0
 46 43  1  0  0  0  0
 46 49  1  0  0  0  0
 49 48  1  6  0  0  0
 49 47  1  0  0  0  0
M  END
>  <MODEL>
7

>  <REMARK>
 VINA RESULT:      -7.5      1.766      2.329
  Name = 
  18 active torsions:
  status: ('A' for Active; 'I' for Inactive)
    1  A    between atoms: C_4  and  O_42
    2  A    between atoms: C_13  and  O_35
    3  A    between atoms: C_15  and  O_42
    4  A    between atoms: C_15  and  C_49
    5  A    between atoms: C_16  and  O_25
    6  A    between atoms: C_16  and  C_45
    7  A    between atoms: C_16  and  C_48
    8  A    between atoms: C_22  and  C_32
    9  A    between atoms: O_25  and  C_30
   10  A    between atoms: C_28  and  C_36
   11  A    between atoms: C_28  and  C_44
   12  A    between atoms: C_29  and  C_32
   13  A    between atoms: C_29  and  O_39
   14  A    between atoms: C_29  and  C_49
   15  A    between atoms: C_34  and  C_46
   16  A    between atoms: O_35  and  C_46
   17  A    between atoms: O_39  and  C_45
   18  A    between atoms: C_44  and  C_48
                            x       y       z     vdW  Elec       q    Type
                         _______ _______ _______ _____ _____    ______ ____

>  <TORSDO>
F 18

$$$$
=
 OpenBabel11062410593D

 49 51  0  0  1  0  0  0  0  0999 V2000
  188.2610  177.4770  137.5250 C   0  0  1  0  0  3  0  0  0  0  0  0
  186.4450  179.0090  137.3850 O   0  0  0  0  0  0  0  0  0  0  0  0
  186.8330  177.8200  137.2330 C   0  0  0  0  0  0  0  0  0  0  0  0
  185.9460  176.8170  136.8190 O   0  0  0  0  0  0  0  0  0  0  0  0
  184.8320  176.3600  137.5850 C   0  0  1  0  0  3  0  0  0  0  0  0
  183.8390  177.4930  137.8260 C   0  0  0  0  0  2  0  0  0  0  0  0
  183.3120  177.4550  139.2460 C   0  0  0  0  0  2  0  0  0  0  0  0
  184.0110  178.3950  140.0530 O   0  0  0  0  0  0  0  0  0  0  0  0
  185.0950  179.0060  143.4420 C   0  0  0  0  0  3  0  0  0  0  0  0
  182.7560  178.5700  144.3880 C   0  0  0  0  0  2  0  0  0  0  0  0
  183.6400  178.6340  141.3750 C   0  0  0  0  0  0  0  0  0  0  0  0
  181.9470  179.2270  143.2480 C   0  0  0  0  0  2  0  0  0  0  0  0
  184.5350  178.8210  142.2910 C   0  0  0  0  0  0  0  0  0  0  0  0
  184.1530  179.2110  144.6010 C   0  0  0  0  0  2  0  0  0  0  0  0
  182.1970  178.6250  141.8340 C   0  0  0  0  0  2  0  0  0  0  0  0
  184.1710  175.1630  136.9040 C   0  0  0  0  0  2  0  0  0  0  0  0
  184.5140  173.8570  137.6020 C   0  0  0  0  0  2  0  0  0  0  0  0
  185.8990  173.6680  137.6190 O   0  0  0  0  0  1  0  0  0  0  0  0
  188.8250  178.3220  138.6680 C   0  0  0  0  0  2  0  0  0  0  0  0
  188.3830  177.8630  140.0510 C   0  0  0  0  0  2  0  0  0  0  0  0
  189.3190  176.7940  140.6020 C   0  0  0  0  0  2  0  0  0  0  0  0
  190.8080  177.6860  142.4650 C   0  0  2  0  0  3  0  0  0  0  0  0
  188.7320  177.7910  146.6000 C   0  0  0  0  0  2  0  0  0  0  0  0
  191.2310  177.5120  148.3300 O   0  0  0  0  0  0  0  0  0  0  0  0
  192.0730  176.6110  145.9530 C   0  0  0  0  0  2  0  0  0  0  0  0
  190.1830  178.7280  144.7200 C   0  0  0  0  0  2  0  0  0  0  0  0
  188.8050  178.1770  145.1200 C   0  0  1  0  0  3  0  0  0  0  0  0
  191.3160  175.0960  148.0070 O   0  0  0  0  0  0  0  0  0  0  0  0
  188.1910  177.1180  144.1990 C   0  0  0  0  0  2  0  0  0  0  0  0
  188.2760  177.5260  142.7410 C   0  0  0  0  0  2  0  0  0  0  0  0
  191.1150  177.7730  143.9650 C   0  0  1  0  0  3  0  0  0  0  0  0
  189.5220  176.9150  142.1120 C   0  0  1  0  0  3  0  0  0  0  0  0
  191.3310  176.4220  144.6410 C   0  0  0  0  0  2  0  0  0  0  0  0
  189.2590  176.3870  146.8940 C   0  0  0  0  0  2  0  0  0  0  0  0
  191.9050  177.1230  141.8010 O   0  0  0  0  0  1  0  0  0  0  0  0
  190.9880  176.4030  147.3490 S   0  0  0  0  0  0  0  0  0  0  0  0
  188.4140  176.0820  137.7790 O   0  0  0  0  0  0  0  0  0  0  0  0
  190.5400  174.9020  137.4380 N   0  0  0  0  0  2  0  0  0  0  0  0
  191.2410  173.7350  135.5340 O   0  0  0  0  0  0  0  0  0  0  0  0
  191.5070  174.1530  136.6950 C   0  0  0  0  0  0  0  0  0  0  0  0
  189.2300  175.2720  136.9840 C   0  0  0  0  0  0  0  0  0  0  0  0
  188.8040  174.8780  135.8680 O   0  0  0  0  0  0  0  0  0  0  0  0
  192.7600  173.9140  137.2720 O   0  0  0  0  0  0  0  0  0  0  0  0
  193.6640  175.9470  136.3190 C   0  0  0  0  0  1  0  0  0  0  0  0
  194.6340  173.7480  135.8000 C   0  0  0  0  0  1  0  0  0  0  0  0
  193.9720  174.5710  136.8910 C   0  0  0  0  0  0  0  0  0  0  0  0
  196.2970  174.8540  137.6730 N   0  0  0  0  0  1  0  0  0  0  0  0
  194.5520  175.7860  138.9100 O   0  0  0  0  0  1  0  0  0  0  0  0
  194.9150  174.7040  138.1000 C   0  0  1  0  0  3  0  0  0  0  0  0
  1 37  1  0  0  0  0
  1 19  1  1  0  0  0
  3  2  2  0  0  0  0
  3  1  1  0  0  0  0
  4  3  1  0  0  0  0
  4  5  1  0  0  0  0
  5 16  1  6  0  0  0
  5  6  1  0  0  0  0
  6  7  1  0  0  0  0
  7  8  1  0  0  0  0
  8 11  1  0  0  0  0
  9 14  1  0  0  0  0
 10 14  1  0  0  0  0
 11 15  1  0  0  0  0
 11 13  2  0  0  0  0
 12 10  1  0  0  0  0
 13  9  2  0  0  0  0
 15 12  1  0  0  0  0
 16 17  1  0  0  0  0
 17 18  1  0  0  0  0
 19 20  1  0  0  0  0
 20 21  1  0  0  0  0
 22 35  1  6  0  0  0
 22 31  1  0  0  0  0
 23 34  1  0  0  0  0
 25 36  1  0  0  0  0
 26 27  1  0  0  0  0
 27 29  1  6  0  0  0
 27 23  1  0  0  0  0
 30 29  1  0  0  0  0
 31 33  1  1  0  0  0
 31 26  1  0  0  0  0
 32 21  1  6  0  0  0
 32 22  1  0  0  0  0
 32 30  1  0  0  0  0
 33 25  1  0  0  0  0
 34 36  1  0  0  0  0
 36 28  2  0  0  0  0
 36 24  2  0  0  0  0
 39 40  2  0  0  0  0
 40 43  1  0  0  0  0
 40 38  1  0  0  0  0
 41 38  1  0  0  0  0
 41 37  1  0  0  0  0
 42 41  2  0  0  0  0
 44 46  1  0  0  0  0
 45 46  1  0  0  0  0
 46 43  1  0  0  0  0
 46 49  1  0  0  0  0
 49 47  1  6  0  0  0
 49 48  1  0  0  0  0
M  END
>  <MODEL>
8

>  <REMARK>
 VINA RESULT:      -7.5      2.801      7.570
  Name = 
  18 active torsions:
  status: ('A' for Active; 'I' for Inactive)
    1  A    between atoms: C_4  and  O_42
    2  A    between atoms: C_13  and  O_35
    3  A    between atoms: C_15  and  O_42
    4  A    between atoms: C_15  and  C_49
    5  A    between atoms: C_16  and  O_25
    6  A    between atoms: C_16  and  C_45
    7  A    between atoms: C_16  and  C_48
    8  A    between atoms: C_22  and  C_32
    9  A    between atoms: O_25  and  C_30
   10  A    between atoms: C_28  and  C_36
   11  A    between atoms: C_28  and  C_44
   12  A    between atoms: C_29  and  C_32
   13  A    between atoms: C_29  and  O_39
   14  A    between atoms: C_29  and  C_49
   15  A    between atoms: C_34  and  C_46
   16  A    between atoms: O_35  and  C_46
   17  A    between atoms: O_39  and  C_45
   18  A    between atoms: C_44  and  C_48
                            x       y       z     vdW  Elec       q    Type
                         _______ _______ _______ _____ _____    ______ ____

>  <TORSDO>
F 18

$$$$
=
 OpenBabel11062410593D

 49 51  0  0  1  0  0  0  0  0999 V2000
  184.4590  178.7520  143.9740 C   0  0  1  0  0  3  0  0  0  0  0  0
  182.1620  178.8860  144.5830 O   0  0  0  0  0  0  0  0  0  0  0  0
  182.9960  178.6520  143.6690 C   0  0  0  0  0  0  0  0  0  0  0  0
  182.5770  178.2810  142.3840 O   0  0  0  0  0  0  0  0  0  0  0  0
  181.6310  179.0120  141.6030 C   0  0  1  0  0  3  0  0  0  0  0  0
  181.9860  178.9450  140.1200 C   0  0  0  0  0  2  0  0  0  0  0  0
  181.8130  177.5360  139.5880 C   0  0  0  0  0  2  0  0  0  0  0  0
  180.6330  177.4530  138.7990 O   0  0  0  0  0  0  0  0  0  0  0  0
  181.8660  178.2620  135.5030 C   0  0  0  0  0  3  0  0  0  0  0  0
  180.4240  180.3740  135.3600 C   0  0  0  0  0  2  0  0  0  0  0  0
  180.4750  178.2210  137.6460 C   0  0  0  0  0  0  0  0  0  0  0  0
  179.1710  179.8150  136.0710 C   0  0  0  0  0  2  0  0  0  0  0  0
  181.2810  178.0830  136.6430 C   0  0  0  0  0  0  0  0  0  0  0  0
  181.2340  179.2910  134.6000 C   0  0  0  0  0  2  0  0  0  0  0  0
  179.4140  179.2940  137.5180 C   0  0  0  0  0  2  0  0  0  0  0  0
  180.2150  178.5050  141.8690 C   0  0  0  0  0  2  0  0  0  0  0  0
  179.2980  179.6180  142.3480 C   0  0  0  0  0  2  0  0  0  0  0  0
  180.0530  180.7170  142.7690 O   0  0  0  0  0  1  0  0  0  0  0  0
  185.2170  179.5040  142.8780 C   0  0  0  0  0  2  0  0  0  0  0  0
  186.1430  178.6210  142.0520 C   0  0  0  0  0  2  0  0  0  0  0  0
  185.7530  178.6390  140.5790 C   0  0  0  0  0  2  0  0  0  0  0  0
  186.5610  178.2940  138.1900 C   0  0  2  0  0  3  0  0  0  0  0  0
  190.9500  176.8540  137.9120 C   0  0  0  0  0  2  0  0  0  0  0  0
  190.7360  175.3710  135.2530 O   0  0  0  0  0  0  0  0  0  0  0  0
  188.1790  175.5300  136.0300 C   0  0  0  0  0  2  0  0  0  0  0  0
  188.9390  178.2750  137.2380 C   0  0  0  0  0  2  0  0  0  0  0  0
  189.8890  177.8570  138.3720 C   0  0  1  0  0  3  0  0  0  0  0  0
  189.7550  173.4020  136.3060 O   0  0  0  0  0  0  0  0  0  0  0  0
  189.2430  177.4680  139.7060 C   0  0  0  0  0  2  0  0  0  0  0  0
  188.1980  178.4780  140.1380 C   0  0  0  0  0  2  0  0  0  0  0  0
  187.5500  177.6250  137.2280 C   0  0  1  0  0  3  0  0  0  0  0  0
  186.8200  178.0140  139.6820 C   0  0  1  0  0  3  0  0  0  0  0  0
  187.5560  176.1000  137.2930 C   0  0  0  0  0  2  0  0  0  0  0  0
  190.4700  175.4030  137.9250 C   0  0  0  0  0  2  0  0  0  0  0  0
  185.2570  177.9130  137.8480 O   0  0  0  0  0  1  0  0  0  0  0  0
  189.8150  174.9000  136.3390 S   0  0  0  0  0  0  0  0  0  0  0  0
  184.6790  179.3350  145.2570 O   0  0  0  0  0  0  0  0  0  0  0  0
  186.7920  178.1140  145.5270 N   0  0  0  0  0  2  0  0  0  0  0  0
  188.1210  177.9600  147.4480 O   0  0  0  0  0  0  0  0  0  0  0  0
  187.9240  177.6180  146.2480 C   0  0  0  0  0  0  0  0  0  0  0  0
  185.7830  178.9940  146.0440 C   0  0  0  0  0  0  0  0  0  0  0  0
  185.8770  179.4640  147.2070 O   0  0  0  0  0  0  0  0  0  0  0  0
  188.7940  176.7280  145.6050 O   0  0  0  0  0  0  0  0  0  0  0  0
  191.1540  176.5110  145.1120 C   0  0  0  0  0  1  0  0  0  0  0  0
  189.9550  178.6240  144.7320 C   0  0  0  0  0  1  0  0  0  0  0  0
  189.8210  177.1120  144.6880 C   0  0  0  0  0  0  0  0  0  0  0  0
  190.5090  175.7980  142.7140 N   0  0  0  0  0  1  0  0  0  0  0  0
  188.2430  175.9790  143.2350 O   0  0  0  0  0  1  0  0  0  0  0  0
  189.4690  176.6530  143.2620 C   0  0  1  0  0  3  0  0  0  0  0  0
  1 19  1  6  0  0  0
  1 37  1  0  0  0  0
  3  1  1  0  0  0  0
  3  2  2  0  0  0  0
  4  3  1  0  0  0  0
  5  6  1  6  0  0  0
  5 16  1  0  0  0  0
  5  4  1  0  0  0  0
  7  6  1  0  0  0  0
  8  7  1  0  0  0  0
  9 13  2  0  0  0  0
 10 12  1  0  0  0  0
 11  8  1  0  0  0  0
 12 15  1  0  0  0  0
 13 11  2  0  0  0  0
 14 10  1  0  0  0  0
 14  9  1  0  0  0  0
 15 11  1  0  0  0  0
 16 17  1  0  0  0  0
 17 18  1  0  0  0  0
 20 19  1  0  0  0  0
 21 20  1  0  0  0  0
 22 35  1  6  0  0  0
 22 32  1  0  0  0  0
 23 34  1  0  0  0  0
 23 27  1  0  0  0  0
 24 36  2  0  0  0  0
 25 36  1  0  0  0  0
 25 33  1  0  0  0  0
 27 26  1  6  0  0  0
 27 29  1  0  0  0  0
 28 36  2  0  0  0  0
 29 30  1  0  0  0  0
 31 26  1  1  0  0  0
 31 33  1  0  0  0  0
 31 22  1  0  0  0  0
 32 30  1  0  0  0  0
 32 21  1  1  0  0  0
 36 34  1  0  0  0  0
 37 41  1  0  0  0  0
 38 41  1  0  0  0  0
 38 40  1  0  0  0  0
 40 39  2  0  0  0  0
 41 42  2  0  0  0  0
 43 40  1  0  0  0  0
 46 45  1  0  0  0  0
 46 44  1  0  0  0  0
 46 43  1  0  0  0  0
 48 49  1  0  0  0  0
 49 47  1  1  0  0  0
 49 46  1  0  0  0  0
M  END
>  <MODEL>
9

>  <REMARK>
 VINA RESULT:      -7.4      3.496      8.395
  Name = 
  18 active torsions:
  status: ('A' for Active; 'I' for Inactive)
    1  A    between atoms: C_4  and  O_42
    2  A    between atoms: C_13  and  O_35
    3  A    between atoms: C_15  and  O_42
    4  A    between atoms: C_15  and  C_49
    5  A    between atoms: C_16  and  O_25
    6  A    between atoms: C_16  and  C_45
    7  A    between atoms: C_16  and  C_48
    8  A    between atoms: C_22  and  C_32
    9  A    between atoms: O_25  and  C_30
   10  A    between atoms: C_28  and  C_36
   11  A    between atoms: C_28  and  C_44
   12  A    between atoms: C_29  and  C_32
   13  A    between atoms: C_29  and  O_39
   14  A    between atoms: C_29  and  C_49
   15  A    between atoms: C_34  and  C_46
   16  A    between atoms: O_35  and  C_46
   17  A    between atoms: O_39  and  C_45
   18  A    between atoms: C_44  and  C_48
                            x       y       z     vdW  Elec       q    Type
                         _______ _______ _______ _____ _____    ______ ____

>  <TORSDO>
F 18

$$$$
