=
 OpenBabel11062416463D

 28 31  0  0  1  0  0  0  0  0999 V2000
  184.7820  177.9340  140.2820 N   0  0  0  0  0  0  0  0  0  0  0  0
  184.9970  178.1510  142.6330 N   0  0  0  0  0  2  0  0  0  0  0  0
  186.8500  178.7290  141.0990 N   0  0  0  0  0  2  0  0  0  0  0  0
  185.5170  178.2560  141.3040 C   0  0  0  0  0  0  0  0  0  0  0  0
  186.3970  177.1440  144.3860 C   0  0  1  0  0  3  0  0  0  0  0  0
  184.9560  179.1240  144.9040 C   0  0  0  0  0  0  0  0  0  0  0  0
  184.2810  180.4190  144.5210 C   0  0  0  0  0  2  0  0  0  0  0  0
  185.5000  179.1350  146.2550 N   0  0  0  0  0  2  0  0  0  0  0  0
  187.4270  176.5530  143.4420 C   0  0  0  0  0  1  0  0  0  0  0  0
  187.0270  177.3450  145.7390 C   0  0  0  0  0  3  0  0  0  0  0  0
  186.5710  178.2530  146.6070 C   0  0  0  0  0  3  0  0  0  0  0  0
  183.4480  179.1740  144.8180 C   0  0  0  0  0  2  0  0  0  0  0  0
  185.7990  178.4410  143.8170 C   0  0  2  0  0  3  0  0  0  0  0  0
  183.1150  176.4970  139.2780 C   0  0  0  0  0  3  0  0  0  0  0  0
  182.4730  178.5950  140.3930 C   0  0  0  0  0  3  0  0  0  0  0  0
  180.4700  177.1970  140.6280 N   0  0  0  0  0  0  0  0  0  0  0  0
  183.4160  177.4420  140.3980 C   0  0  2  0  0  3  0  0  0  0  0  0
  181.9490  175.8660  139.1630 C   0  0  0  0  0  3  0  0  0  0  0  0
  180.7850  176.0730  140.0480 C   0  0  0  0  0  3  0  0  0  0  0  0
  181.1540  178.4590  140.5360 C   0  0  0  0  0  3  0  0  0  0  0  0
  187.4000  178.8310  139.8140 N   0  0  0  0  0  2  0  0  0  0  0  0
  188.4080  177.7920  139.7010 C   0  0  1  0  0  3  0  0  0  0  0  0
  189.2600  178.0280  138.4530 C   0  0  0  0  0  2  0  0  0  0  0  0
  189.3050  177.8150  140.9360 C   0  0  0  0  0  2  0  0  0  0  0  0
  191.1980  177.0850  139.7030 C   0  0  0  0  0  2  0  0  0  0  0  0
  190.4060  177.0250  138.3980 C   0  0  0  0  0  2  0  0  0  0  0  0
  190.3250  176.7720  140.8330 N   0  0  0  0  0  0  0  0  0  0  0  0
  191.0850  176.8600  141.9490 O   0  0  0  0  0  1  0  0  0  0  0  0
  1  4  2  0  0  0  0
  3  4  1  0  0  0  0
  4  2  1  0  0  0  0
  5  9  1  6  0  0  0
  5 10  1  0  0  0  0
  6  8  1  0  0  0  0
  7 12  1  0  0  0  0
  7  6  1  0  0  0  0
  8 11  1  0  0  0  0
 10 11  2  0  0  0  0
 12  6  1  0  0  0  0
 13  2  1  6  0  0  0
 13  5  1  0  0  0  0
 13  6  1  0  0  0  0
 14 17  1  0  0  0  0
 15 17  1  0  0  0  0
 15 20  2  0  0  0  0
 17  1  1  6  0  0  0
 18 14  2  0  0  0  0
 18 19  1  0  0  0  0
 19 16  2  0  0  0  0
 20 16  1  0  0  0  0
 21  3  1  0  0  0  0
 22 21  1  1  0  0  0
 22 24  1  0  0  0  0
 23 22  1  0  0  0  0
 25 27  1  0  0  0  0
 26 23  1  0  0  0  0
 26 25  1  0  0  0  0
 27 24  1  0  0  0  0
 27 28  1  0  0  0  0
M  END
>  <MODEL>
1

>  <REMARK>
 VINA RESULT:      -7.0      0.000      0.000
  Name = 
  4 active torsions:
  status: ('A' for Active; 'I' for Inactive)
    1  A    between atoms: N_2  and  C_17
    2  A    between atoms: C_6  and  N_24
    3  A    between atoms: N_8  and  C_26
    4  A    between atoms: N_10  and  N_24
                            x       y       z     vdW  Elec       q    Type
                         _______ _______ _______ _____ _____    ______ ____

>  <TORSDO>
F 4

$$$$
=
 OpenBabel11062416463D

 28 31  0  0  1  0  0  0  0  0999 V2000
  189.6550  177.5730  139.6540 N   0  0  0  0  0  0  0  0  0  0  0  0
  190.7420  175.8930  138.3820 N   0  0  0  0  0  2  0  0  0  0  0  0
  189.5620  177.7820  137.3030 N   0  0  0  0  0  2  0  0  0  0  0  0
  189.9730  177.0960  138.4880 C   0  0  0  0  0  0  0  0  0  0  0  0
  190.4400  173.8850  136.9950 C   0  0  1  0  0  3  0  0  0  0  0  0
  192.5940  175.1570  136.9210 C   0  0  0  0  0  0  0  0  0  0  0  0
  193.3900  176.4380  137.0000 C   0  0  0  0  0  2  0  0  0  0  0  0
  193.0670  174.2460  135.8880 N   0  0  0  0  0  2  0  0  0  0  0  0
  188.9270  173.9710  136.9230 C   0  0  0  0  0  1  0  0  0  0  0  0
  190.9450  173.1100  135.8070 C   0  0  0  0  0  3  0  0  0  0  0  0
  192.1840  173.2680  135.3310 C   0  0  0  0  0  3  0  0  0  0  0  0
  193.5440  175.3670  138.0780 C   0  0  0  0  0  2  0  0  0  0  0  0
  191.0730  175.2810  137.0990 C   0  0  2  0  0  3  0  0  0  0  0  0
  188.8920  177.0120  141.8790 C   0  0  0  0  0  3  0  0  0  0  0  0
  191.2420  177.6080  141.4600 C   0  0  0  0  0  3  0  0  0  0  0  0
  191.3740  176.1600  143.4360 N   0  0  0  0  0  0  0  0  0  0  0  0
  190.0290  176.9400  140.9110 C   0  0  2  0  0  3  0  0  0  0  0  0
  188.9470  176.4730  143.0950 C   0  0  0  0  0  3  0  0  0  0  0  0
  190.1380  175.8240  143.6790 C   0  0  0  0  0  3  0  0  0  0  0  0
  191.8490  177.2130  142.5800 C   0  0  0  0  0  3  0  0  0  0  0  0
  188.7960  178.9530  137.3660 N   0  0  0  0  0  2  0  0  0  0  0  0
  187.5250  178.6630  136.7240 C   0  0  1  0  0  3  0  0  0  0  0  0
  187.7360  177.6760  135.5760 C   0  0  0  0  0  2  0  0  0  0  0  0
  186.5660  178.0550  137.7440 C   0  0  0  0  0  2  0  0  0  0  0  0
  185.4930  176.7260  136.0950 C   0  0  0  0  0  2  0  0  0  0  0  0
  186.3950  177.2590  134.9850 C   0  0  0  0  0  2  0  0  0  0  0  0
  185.2830  177.7590  137.1080 N   0  0  0  0  0  0  0  0  0  0  0  0
  184.4930  177.2140  138.0630 O   0  0  0  0  0  1  0  0  0  0  0  0
  2  4  1  0  0  0  0
  3 21  1  0  0  0  0
  3  4  1  0  0  0  0
  4  1  2  0  0  0  0
  5  9  1  6  0  0  0
  5 13  1  0  0  0  0
  6  7  1  0  0  0  0
  6 13  1  0  0  0  0
  6 12  1  0  0  0  0
  7 12  1  0  0  0  0
  8  6  1  0  0  0  0
 10  5  1  0  0  0  0
 11 10  2  0  0  0  0
 11  8  1  0  0  0  0
 13  2  1  1  0  0  0
 14 18  2  0  0  0  0
 15 20  2  0  0  0  0
 16 19  2  0  0  0  0
 17  1  1  6  0  0  0
 17 15  1  0  0  0  0
 17 14  1  0  0  0  0
 18 19  1  0  0  0  0
 20 16  1  0  0  0  0
 22 21  1  1  0  0  0
 22 24  1  0  0  0  0
 23 22  1  0  0  0  0
 25 27  1  0  0  0  0
 26 23  1  0  0  0  0
 26 25  1  0  0  0  0
 27 24  1  0  0  0  0
 27 28  1  0  0  0  0
M  END
>  <MODEL>
2

>  <REMARK>
 VINA RESULT:      -6.9      4.433      8.668
  Name = 
  4 active torsions:
  status: ('A' for Active; 'I' for Inactive)
    1  A    between atoms: N_2  and  C_17
    2  A    between atoms: C_6  and  N_24
    3  A    between atoms: N_8  and  C_26
    4  A    between atoms: N_10  and  N_24
                            x       y       z     vdW  Elec       q    Type
                         _______ _______ _______ _____ _____    ______ ____

>  <TORSDO>
F 4

$$$$
=
 OpenBabel11062416463D

 28 31  0  0  1  0  0  0  0  0999 V2000
  183.5610  179.8620  139.3420 N   0  0  0  0  0  0  0  0  0  0  0  0
  184.2100  178.0860  137.9120 N   0  0  0  0  0  2  0  0  0  0  0  0
  185.5020  178.6590  139.9430 N   0  0  0  0  0  2  0  0  0  0  0  0
  184.3970  178.9050  139.0710 C   0  0  0  0  0  0  0  0  0  0  0  0
  186.0160  177.5040  136.3460 C   0  0  1  0  0  3  0  0  0  0  0  0
  184.4160  175.7490  137.1350 C   0  0  0  0  0  0  0  0  0  0  0  0
  183.5080  175.1440  138.1790 C   0  0  0  0  0  2  0  0  0  0  0  0
  185.1730  174.7570  136.3850 N   0  0  0  0  0  2  0  0  0  0  0  0
  186.9460  178.6320  136.7550 C   0  0  0  0  0  1  0  0  0  0  0  0
  186.8300  176.3860  135.7520 C   0  0  0  0  0  3  0  0  0  0  0  0
  186.4030  175.1200  135.7480 C   0  0  0  0  0  3  0  0  0  0  0  0
  182.9230  175.7330  136.8970 C   0  0  0  0  0  2  0  0  0  0  0  0
  185.1520  177.0380  137.5290 C   0  0  2  0  0  3  0  0  0  0  0  0
  182.1410  181.6540  138.5520 C   0  0  0  0  0  3  0  0  0  0  0  0
  181.2270  179.4090  138.9790 C   0  0  0  0  0  3  0  0  0  0  0  0
  179.7210  180.3120  137.2660 N   0  0  0  0  0  0  0  0  0  0  0  0
  182.4100  180.1840  138.5090 C   0  0  2  0  0  3  0  0  0  0  0  0
  181.1690  182.2280  137.8470 C   0  0  0  0  0  3  0  0  0  0  0  0
  180.1860  181.5040  137.0160 C   0  0  0  0  0  3  0  0  0  0  0  0
  180.0370  179.4580  138.3790 C   0  0  0  0  0  3  0  0  0  0  0  0
  185.7260  179.4480  141.0790 N   0  0  0  0  0  2  0  0  0  0  0  0
  185.5370  178.5900  142.2350 C   0  0  1  0  0  3  0  0  0  0  0  0
  186.8950  178.1850  142.8090 C   0  0  0  0  0  2  0  0  0  0  0  0
  184.7410  179.3390  143.3020 C   0  0  0  0  0  2  0  0  0  0  0  0
  185.8500  178.2080  145.0700 C   0  0  0  0  0  2  0  0  0  0  0  0
  186.7090  177.3990  144.1020 C   0  0  0  0  0  2  0  0  0  0  0  0
  184.5450  178.4840  144.4710 N   0  0  0  0  0  0  0  0  0  0  0  0
  183.8480  179.2140  145.3740 O   0  0  0  0  0  1  0  0  0  0  0  0
  2  4  1  0  0  0  0
  3 21  1  0  0  0  0
  4  1  2  0  0  0  0
  4  3  1  0  0  0  0
  5  9  1  1  0  0  0
  5 13  1  0  0  0  0
  6 13  1  0  0  0  0
  6  7  1  0  0  0  0
  8  6  1  0  0  0  0
 10  5  1  0  0  0  0
 11 10  2  0  0  0  0
 11  8  1  0  0  0  0
 12  6  1  0  0  0  0
 12  7  1  0  0  0  0
 13  2  1  6  0  0  0
 16 20  1  0  0  0  0
 17 14  1  0  0  0  0
 17 15  1  0  0  0  0
 17  1  1  1  0  0  0
 18 14  2  0  0  0  0
 19 16  2  0  0  0  0
 19 18  1  0  0  0  0
 20 15  2  0  0  0  0
 22 21  1  6  0  0  0
 22 23  1  0  0  0  0
 22 24  1  0  0  0  0
 23 26  1  0  0  0  0
 24 27  1  0  0  0  0
 26 25  1  0  0  0  0
 27 25  1  0  0  0  0
 27 28  1  0  0  0  0
M  END
>  <MODEL>
3

>  <REMARK>
 VINA RESULT:      -6.8      3.316      6.568
  Name = 
  4 active torsions:
  status: ('A' for Active; 'I' for Inactive)
    1  A    between atoms: N_2  and  C_17
    2  A    between atoms: C_6  and  N_24
    3  A    between atoms: N_8  and  C_26
    4  A    between atoms: N_10  and  N_24
                            x       y       z     vdW  Elec       q    Type
                         _______ _______ _______ _____ _____    ______ ____

>  <TORSDO>
F 4

$$$$
=
 OpenBabel11062416463D

 28 31  0  0  1  0  0  0  0  0999 V2000
  191.8010  175.7660  138.5390 N   0  0  0  0  0  0  0  0  0  0  0  0
  189.6440  176.2890  137.7070 N   0  0  0  0  0  2  0  0  0  0  0  0
  190.1600  176.3720  140.1250 N   0  0  0  0  0  2  0  0  0  0  0  0
  190.5760  176.1250  138.7800 C   0  0  0  0  0  0  0  0  0  0  0  0
  187.3460  175.8790  136.9310 C   0  0  1  0  0  3  0  0  0  0  0  0
  188.0090  178.1410  137.7710 C   0  0  0  0  0  0  0  0  0  0  0  0
  188.8150  179.0450  138.6730 C   0  0  0  0  0  2  0  0  0  0  0  0
  186.6340  178.5840  137.5910 N   0  0  0  0  0  2  0  0  0  0  0  0
  187.3540  174.3860  137.2020 C   0  0  0  0  0  1  0  0  0  0  0  0
  185.9240  176.3740  136.9470 C   0  0  0  0  0  3  0  0  0  0  0  0
  185.6180  177.6450  137.2220 C   0  0  0  0  0  3  0  0  0  0  0  0
  189.0600  179.0430  137.1650 C   0  0  0  0  0  2  0  0  0  0  0  0
  188.2420  176.6310  137.9280 C   0  0  2  0  0  3  0  0  0  0  0  0
  192.5980  174.0330  137.0510 C   0  0  0  0  0  3  0  0  0  0  0  0
  193.5340  176.3070  136.9610 C   0  0  0  0  0  3  0  0  0  0  0  0
  193.8680  175.4710  134.6790 N   0  0  0  0  0  0  0  0  0  0  0  0
  192.3100  175.4920  137.2010 C   0  0  2  0  0  3  0  0  0  0  0  0
  193.0350  173.4990  135.9130 C   0  0  0  0  0  3  0  0  0  0  0  0
  193.3750  174.2650  134.6970 C   0  0  0  0  0  3  0  0  0  0  0  0
  194.1950  176.3070  135.8030 C   0  0  0  0  0  3  0  0  0  0  0  0
  191.0410  176.2090  141.2030 N   0  0  0  0  0  2  0  0  0  0  0  0
  190.5080  176.9870  142.3080 C   0  0  1  0  0  3  0  0  0  0  0  0
  189.1070  176.4910  142.6650 C   0  0  0  0  0  2  0  0  0  0  0  0
  191.4210  176.8410  143.5220 C   0  0  0  0  0  2  0  0  0  0  0  0
  189.6080  177.0510  145.0400 C   0  0  0  0  0  2  0  0  0  0  0  0
  188.5940  177.2070  143.9090 C   0  0  0  0  0  2  0  0  0  0  0  0
  190.8940  177.6210  144.6410 N   0  0  0  0  0  0  0  0  0  0  0  0
  191.7420  177.4340  145.6790 O   0  0  0  0  0  1  0  0  0  0  0  0
  1  4  2  0  0  0  0
  2  4  1  0  0  0  0
  3 21  1  0  0  0  0
  4  3  1  0  0  0  0
  5 10  1  0  0  0  0
  5  9  1  1  0  0  0
  5 13  1  0  0  0  0
  6 13  1  0  0  0  0
  6  7  1  0  0  0  0
  8  6  1  0  0  0  0
 10 11  2  0  0  0  0
 11  8  1  0  0  0  0
 12  6  1  0  0  0  0
 12  7  1  0  0  0  0
 13  2  1  6  0  0  0
 14 17  1  0  0  0  0
 15 17  1  0  0  0  0
 16 19  2  0  0  0  0
 16 20  1  0  0  0  0
 17  1  1  1  0  0  0
 18 14  2  0  0  0  0
 19 18  1  0  0  0  0
 20 15  2  0  0  0  0
 22 21  1  6  0  0  0
 22 23  1  0  0  0  0
 22 24  1  0  0  0  0
 23 26  1  0  0  0  0
 24 27  1  0  0  0  0
 26 25  1  0  0  0  0
 27 25  1  0  0  0  0
 27 28  1  0  0  0  0
M  END
>  <MODEL>
4

>  <REMARK>
 VINA RESULT:      -6.8      3.921      8.448
  Name = 
  4 active torsions:
  status: ('A' for Active; 'I' for Inactive)
    1  A    between atoms: N_2  and  C_17
    2  A    between atoms: C_6  and  N_24
    3  A    between atoms: N_8  and  C_26
    4  A    between atoms: N_10  and  N_24
                            x       y       z     vdW  Elec       q    Type
                         _______ _______ _______ _____ _____    ______ ____

>  <TORSDO>
F 4

$$$$
=
 OpenBabel11062416463D

 28 31  0  0  1  0  0  0  0  0999 V2000
  185.6640  178.6370  138.8570 N   0  0  0  0  0  0  0  0  0  0  0  0
  183.3150  178.4060  138.6370 N   0  0  0  0  0  2  0  0  0  0  0  0
  184.3590  179.1220  140.7640 N   0  0  0  0  0  2  0  0  0  0  0  0
  184.4870  178.7140  139.4000 C   0  0  0  0  0  0  0  0  0  0  0  0
  181.2980  177.0510  139.0190 C   0  0  1  0  0  3  0  0  0  0  0  0
  181.1030  179.5060  138.5730 C   0  0  0  0  0  0  0  0  0  0  0  0
  181.6180  180.9230  138.6630 C   0  0  0  0  0  2  0  0  0  0  0  0
  179.6630  179.4020  138.7650 N   0  0  0  0  0  0  0  0  0  0  0  0
  181.9860  175.9740  139.8360 C   0  0  0  0  0  1  0  0  0  0  0  0
  179.8340  177.0780  139.3730 C   0  0  0  0  0  2  0  0  0  0  0  0
  179.0840  178.1720  139.2130 C   0  0  0  0  0  3  0  0  0  0  0  0
  181.5330  180.2180  137.3110 C   0  0  0  0  0  2  0  0  0  0  0  0
  181.9750  178.4170  139.2160 C   0  0  2  0  0  3  0  0  0  0  0  0
  185.5260  176.7890  137.3020 C   0  0  0  0  0  3  0  0  0  0  0  0
  187.3110  178.4720  137.1120 C   0  0  0  0  0  3  0  0  0  0  0  0
  187.0560  177.6620  134.8110 N   0  0  0  0  0  0  0  0  0  0  0  0
  185.8870  178.2300  137.4750 C   0  0  2  0  0  3  0  0  0  0  0  0
  185.5940  176.1670  136.1270 C   0  0  0  0  0  3  0  0  0  0  0  0
  186.1090  176.7690  134.8810 C   0  0  0  0  0  3  0  0  0  0  0  0
  187.8030  178.2420  135.8940 C   0  0  0  0  0  3  0  0  0  0  0  0
  185.4830  179.4180  141.5460 N   0  0  0  0  0  2  0  0  0  0  0  0
  185.4520  178.5220  142.6890 C   0  0  1  0  0  3  0  0  0  0  0  0
  186.8680  178.0550  143.0220 C   0  0  0  0  0  2  0  0  0  0  0  0
  184.8650  179.2540  143.8940 C   0  0  0  0  0  2  0  0  0  0  0  0
  186.2010  178.0240  145.4220 C   0  0  0  0  0  2  0  0  0  0  0  0
  186.8640  177.2260  144.3010 C   0  0  0  0  0  2  0  0  0  0  0  0
  184.8280  178.3620  145.0510 N   0  0  0  0  0  0  0  0  0  0  0  0
  184.3120  179.0770  146.0780 O   0  0  0  0  0  1  0  0  0  0  0  0
  1  4  2  0  0  0  0
  2  4  1  0  0  0  0
  3 21  1  0  0  0  0
  4  3  1  0  0  0  0
  5 13  1  0  0  0  0
  5 10  1  0  0  0  0
  5  9  1  1  0  0  0
  6  7  1  0  0  0  0
  6  8  1  0  0  0  0
  6 13  1  0  0  0  0
  8 11  2  0  0  0  0
 11 10  1  0  0  0  0
 12  6  1  0  0  0  0
 12  7  1  0  0  0  0
 13  2  1  6  0  0  0
 14 17  1  0  0  0  0
 15 17  1  0  0  0  0
 16 19  2  0  0  0  0
 16 20  1  0  0  0  0
 17  1  1  1  0  0  0
 18 14  2  0  0  0  0
 19 18  1  0  0  0  0
 20 15  2  0  0  0  0
 22 21  1  6  0  0  0
 22 23  1  0  0  0  0
 22 24  1  0  0  0  0
 23 26  1  0  0  0  0
 24 27  1  0  0  0  0
 26 25  1  0  0  0  0
 27 25  1  0  0  0  0
 27 28  1  0  0  0  0
M  END
>  <MODEL>
5

>  <REMARK>
 VINA RESULT:      -6.7      2.952      6.562
  Name = 
  4 active torsions:
  status: ('A' for Active; 'I' for Inactive)
    1  A    between atoms: N_2  and  C_17
    2  A    between atoms: C_6  and  N_24
    3  A    between atoms: N_8  and  C_26
    4  A    between atoms: N_10  and  N_24
                            x       y       z     vdW  Elec       q    Type
                         _______ _______ _______ _____ _____    ______ ____

>  <TORSDO>
F 4

$$$$
=
 OpenBabel11062416463D

 28 31  0  0  1  0  0  0  0  0999 V2000
  185.9470  178.7430  140.7500 N   0  0  0  0  0  0  0  0  0  0  0  0
  187.0580  177.7820  138.8890 N   0  0  0  0  0  2  0  0  0  0  0  0
  185.1720  179.3590  138.6060 N   0  0  0  0  0  2  0  0  0  0  0  0
  186.0540  178.6270  139.4600 C   0  0  0  0  0  0  0  0  0  0  0  0
  186.8890  176.1010  137.1020 C   0  0  1  0  0  3  0  0  0  0  0  0
  188.5900  177.9310  136.9550 C   0  0  0  0  0  0  0  0  0  0  0  0
  189.0550  179.3430  137.2180 C   0  0  0  0  0  2  0  0  0  0  0  0
  188.9810  177.4280  135.6460 N   0  0  0  0  0  0  0  0  0  0  0  0
  185.4320  175.7570  137.3490 C   0  0  0  0  0  1  0  0  0  0  0  0
  187.2380  175.7670  135.6760 C   0  0  0  0  0  2  0  0  0  0  0  0
  188.2390  176.3710  135.0290 C   0  0  0  0  0  3  0  0  0  0  0  0
  189.7290  178.1660  137.9200 C   0  0  0  0  0  2  0  0  0  0  0  0
  187.1810  177.5690  137.4500 C   0  0  2  0  0  3  0  0  0  0  0  0
  186.2140  178.1020  143.0670 C   0  0  0  0  0  3  0  0  0  0  0  0
  188.1680  178.6280  141.6670 C   0  0  0  0  0  3  0  0  0  0  0  0
  189.0760  177.0810  143.3400 N   0  0  0  0  0  0  0  0  0  0  0  0
  186.8020  178.0350  141.6940 C   0  0  2  0  0  3  0  0  0  0  0  0
  186.7690  177.5030  144.1180 C   0  0  0  0  0  3  0  0  0  0  0  0
  188.0570  176.7810  144.0960 C   0  0  0  0  0  3  0  0  0  0  0  0
  189.1830  178.1560  142.3910 C   0  0  0  0  0  3  0  0  0  0  0  0
  184.1680  180.1850  139.1280 N   0  0  0  0  0  2  0  0  0  0  0  0
  182.9040  179.5030  138.9130 C   0  0  1  0  0  3  0  0  0  0  0  0
  183.1070  178.3180  137.9680 C   0  0  0  0  0  2  0  0  0  0  0  0
  182.3630  178.9970  140.2490 C   0  0  0  0  0  2  0  0  0  0  0  0
  181.3310  177.1150  139.2360 C   0  0  0  0  0  2  0  0  0  0  0  0
  181.8170  177.5150  137.8450 C   0  0  0  0  0  2  0  0  0  0  0  0
  181.0900  178.3090  140.0440 N   0  0  0  0  0  0  0  0  0  0  0  0
  180.6800  177.8800  141.2600 O   0  0  0  0  0  1  0  0  0  0  0  0
  2  4  1  0  0  0  0
  3 21  1  0  0  0  0
  3  4  1  0  0  0  0
  4  1  2  0  0  0  0
  5  9  1  6  0  0  0
  5 13  1  0  0  0  0
  6  7  1  0  0  0  0
  6 13  1  0  0  0  0
  6 12  1  0  0  0  0
  7 12  1  0  0  0  0
  8  6  1  0  0  0  0
 10  5  1  0  0  0  0
 11  8  2  0  0  0  0
 11 10  1  0  0  0  0
 13  2  1  1  0  0  0
 14 18  2  0  0  0  0
 15 17  1  0  0  0  0
 15 20  2  0  0  0  0
 16 19  2  0  0  0  0
 17  1  1  6  0  0  0
 17 14  1  0  0  0  0
 19 18  1  0  0  0  0
 20 16  1  0  0  0  0
 22 21  1  1  0  0  0
 22 24  1  0  0  0  0
 23 22  1  0  0  0  0
 25 27  1  0  0  0  0
 26 23  1  0  0  0  0
 26 25  1  0  0  0  0
 27 24  1  0  0  0  0
 27 28  1  0  0  0  0
M  END
>  <MODEL>
6

>  <REMARK>
 VINA RESULT:      -6.6      2.981      7.645
  Name = 
  4 active torsions:
  status: ('A' for Active; 'I' for Inactive)
    1  A    between atoms: N_2  and  C_17
    2  A    between atoms: C_6  and  N_24
    3  A    between atoms: N_8  and  C_26
    4  A    between atoms: N_10  and  N_24
                            x       y       z     vdW  Elec       q    Type
                         _______ _______ _______ _____ _____    ______ ____

>  <TORSDO>
F 4

$$$$
=
 OpenBabel11062416463D

 28 31  0  0  1  0  0  0  0  0999 V2000
  183.5380  179.8850  139.2750 N   0  0  0  0  0  0  0  0  0  0  0  0
  184.2950  178.1200  137.8840 N   0  0  0  0  0  2  0  0  0  0  0  0
  185.4760  178.7300  139.9710 N   0  0  0  0  0  2  0  0  0  0  0  0
  184.4080  178.9470  139.0480 C   0  0  0  0  0  0  0  0  0  0  0  0
  186.1790  177.5730  136.4020 C   0  0  1  0  0  3  0  0  0  0  0  0
  184.5910  175.7840  137.1360 C   0  0  0  0  0  0  0  0  0  0  0  0
  183.6550  175.1640  138.1460 C   0  0  0  0  0  2  0  0  0  0  0  0
  185.4040  174.8060  136.4270 N   0  0  0  0  0  2  0  0  0  0  0  0
  187.0630  178.7260  136.8400 C   0  0  0  0  0  1  0  0  0  0  0  0
  187.0460  176.4710  135.8520 C   0  0  0  0  0  3  0  0  0  0  0  0
  186.6500  175.1950  135.8400 C   0  0  0  0  0  3  0  0  0  0  0  0
  183.1110  175.7290  136.8350 C   0  0  0  0  0  2  0  0  0  0  0  0
  185.2770  177.0940  137.5500 C   0  0  2  0  0  3  0  0  0  0  0  0
  182.0580  181.6250  138.4780 C   0  0  0  0  0  3  0  0  0  0  0  0
  181.2620  179.3120  138.7500 C   0  0  0  0  0  3  0  0  0  0  0  0
  179.8060  180.2050  136.9900 N   0  0  0  0  0  0  0  0  0  0  0  0
  182.4200  180.1770  138.3880 C   0  0  2  0  0  3  0  0  0  0  0  0
  181.0950  182.1730  137.7420 C   0  0  0  0  0  3  0  0  0  0  0  0
  180.2100  181.4330  136.8210 C   0  0  0  0  0  3  0  0  0  0  0  0
  180.1090  179.3180  138.0810 C   0  0  0  0  0  3  0  0  0  0  0  0
  185.6280  179.5280  141.1130 N   0  0  0  0  0  2  0  0  0  0  0  0
  186.7660  179.0050  141.8480 C   0  0  1  0  0  3  0  0  0  0  0  0
  186.2960  177.9620  142.8620 C   0  0  0  0  0  2  0  0  0  0  0  0
  187.7480  178.3560  140.8740 C   0  0  0  0  0  2  0  0  0  0  0  0
  188.4380  176.7490  142.4800 C   0  0  0  0  0  2  0  0  0  0  0  0
  187.4930  177.3070  143.5410 C   0  0  0  0  0  2  0  0  0  0  0  0
  188.8980  177.8250  141.6040 N   0  0  0  0  0  0  0  0  0  0  0  0
  189.7130  177.2580  140.6840 O   0  0  0  0  0  1  0  0  0  0  0  0
  2  4  1  0  0  0  0
  3 21  1  0  0  0  0
  4  1  2  0  0  0  0
  4  3  1  0  0  0  0
  5  9  1  1  0  0  0
  5 13  1  0  0  0  0
  6 13  1  0  0  0  0
  6  7  1  0  0  0  0
  8  6  1  0  0  0  0
 10  5  1  0  0  0  0
 11 10  2  0  0  0  0
 11  8  1  0  0  0  0
 12  6  1  0  0  0  0
 12  7  1  0  0  0  0
 13  2  1  6  0  0  0
 16 20  1  0  0  0  0
 17 14  1  0  0  0  0
 17 15  1  0  0  0  0
 17  1  1  1  0  0  0
 18 14  2  0  0  0  0
 19 16  2  0  0  0  0
 19 18  1  0  0  0  0
 20 15  2  0  0  0  0
 22 21  1  6  0  0  0
 22 23  1  0  0  0  0
 23 26  1  0  0  0  0
 24 27  1  0  0  0  0
 24 22  1  0  0  0  0
 25 26  1  0  0  0  0
 27 25  1  0  0  0  0
 28 27  1  0  0  0  0
M  END
>  <MODEL>
7

>  <REMARK>
 VINA RESULT:      -6.6      2.950      6.003
  Name = 
  4 active torsions:
  status: ('A' for Active; 'I' for Inactive)
    1  A    between atoms: N_2  and  C_17
    2  A    between atoms: C_6  and  N_24
    3  A    between atoms: N_8  and  C_26
    4  A    between atoms: N_10  and  N_24
                            x       y       z     vdW  Elec       q    Type
                         _______ _______ _______ _____ _____    ______ ____

>  <TORSDO>
F 4

$$$$
=
 OpenBabel11062416463D

 28 31  0  0  1  0  0  0  0  0999 V2000
  182.3010  180.5060  138.6370 N   0  0  0  0  0  0  0  0  0  0  0  0
  180.9510  178.6980  139.3660 N   0  0  0  0  0  2  0  0  0  0  0  0
  183.3650  178.8170  139.8980 N   0  0  0  0  0  2  0  0  0  0  0  0
  182.2080  179.3780  139.2740 C   0  0  0  0  0  0  0  0  0  0  0  0
  180.3010  176.3530  139.0090 C   0  0  1  0  0  3  0  0  0  0  0  0
  179.8230  177.4770  141.1930 C   0  0  0  0  0  0  0  0  0  0  0  0
  180.1550  178.4640  142.2850 C   0  0  0  0  0  2  0  0  0  0  0  0
  179.2910  176.2180  141.6960 N   0  0  0  0  0  2  0  0  0  0  0  0
  181.3470  176.0600  137.9490 C   0  0  0  0  0  1  0  0  0  0  0  0
  179.8990  175.0620  139.6720 C   0  0  0  0  0  3  0  0  0  0  0  0
  179.3970  175.0260  140.9100 C   0  0  0  0  0  3  0  0  0  0  0  0
  178.9310  178.6790  141.3990 C   0  0  0  0  0  2  0  0  0  0  0  0
  180.8060  177.3990  140.0150 C   0  0  2  0  0  3  0  0  0  0  0  0
  181.0460  180.6330  136.5730 C   0  0  0  0  0  3  0  0  0  0  0  0
  181.3700  182.6250  137.9820 C   0  0  0  0  0  3  0  0  0  0  0  0
  179.2650  183.0990  136.8150 N   0  0  0  0  0  0  0  0  0  0  0  0
  181.1750  181.1480  137.9710 C   0  0  2  0  0  3  0  0  0  0  0  0
  180.0730  181.0210  135.7510 C   0  0  0  0  0  3  0  0  0  0  0  0
  179.0650  182.0540  136.0620 C   0  0  0  0  0  3  0  0  0  0  0  0
  180.4760  183.4830  137.4880 C   0  0  0  0  0  3  0  0  0  0  0  0
  184.6150  179.4460  139.8180 N   0  0  0  0  0  2  0  0  0  0  0  0
  185.2380  179.3180  141.1230 C   0  0  1  0  0  3  0  0  0  0  0  0
  184.3270  178.5240  142.0590 C   0  0  0  0  0  2  0  0  0  0  0  0
  186.5740  178.5930  140.9820 C   0  0  0  0  0  2  0  0  0  0  0  0
  186.3780  177.5960  143.1280 C   0  0  0  0  0  2  0  0  0  0  0  0
  185.0300  178.2650  143.3870 C   0  0  0  0  0  2  0  0  0  0  0  0
  187.2110  178.4580  142.2910 N   0  0  0  0  0  0  0  0  0  0  0  0
  188.3760  177.7990  142.0900 O   0  0  0  0  0  1  0  0  0  0  0  0
  1  4  2  0  0  0  0
  4  2  1  0  0  0  0
  4  3  1  0  0  0  0
  5  9  1  6  0  0  0
  5 10  1  0  0  0  0
  5 13  1  0  0  0  0
  6 12  1  0  0  0  0
  6  8  1  0  0  0  0
  6  7  1  0  0  0  0
 10 11  2  0  0  0  0
 11  8  1  0  0  0  0
 12  7  1  0  0  0  0
 13  2  1  6  0  0  0
 13  6  1  0  0  0  0
 14 17  1  0  0  0  0
 16 20  1  0  0  0  0
 17 15  1  0  0  0  0
 17  1  1  6  0  0  0
 18 19  1  0  0  0  0
 18 14  2  0  0  0  0
 19 16  2  0  0  0  0
 20 15  2  0  0  0  0
 21  3  1  0  0  0  0
 22 21  1  6  0  0  0
 22 23  1  0  0  0  0
 23 26  1  0  0  0  0
 24 22  1  0  0  0  0
 24 27  1  0  0  0  0
 25 26  1  0  0  0  0
 27 25  1  0  0  0  0
 28 27  1  0  0  0  0
M  END
>  <MODEL>
8

>  <REMARK>
 VINA RESULT:      -6.5      3.173      6.105
  Name = 
  4 active torsions:
  status: ('A' for Active; 'I' for Inactive)
    1  A    between atoms: N_2  and  C_17
    2  A    between atoms: C_6  and  N_24
    3  A    between atoms: N_8  and  C_26
    4  A    between atoms: N_10  and  N_24
                            x       y       z     vdW  Elec       q    Type
                         _______ _______ _______ _____ _____    ______ ____

>  <TORSDO>
F 4

$$$$
=
 OpenBabel11062416463D

 28 31  0  0  1  0  0  0  0  0999 V2000
  185.5450  178.6810  139.4250 N   0  0  0  0  0  0  0  0  0  0  0  0
  186.6030  177.4400  137.7050 N   0  0  0  0  0  2  0  0  0  0  0  0
  187.8170  178.1250  139.7490 N   0  0  0  0  0  2  0  0  0  0  0  0
  186.6180  178.1050  138.9720 C   0  0  0  0  0  0  0  0  0  0  0  0
  188.4570  177.7990  136.1280 C   0  0  1  0  0  3  0  0  0  0  0  0
  187.4490  175.5230  136.3940 C   0  0  0  0  0  0  0  0  0  0  0  0
  186.7820  174.4490  137.2190 C   0  0  0  0  0  2  0  0  0  0  0  0
  188.4390  175.0040  135.4610 N   0  0  0  0  0  2  0  0  0  0  0  0
  189.0350  179.0080  136.8400 C   0  0  0  0  0  1  0  0  0  0  0  0
  189.5410  177.1400  135.3180 C   0  0  0  0  0  3  0  0  0  0  0  0
  189.4950  175.8460  134.9880 C   0  0  0  0  0  3  0  0  0  0  0  0
  186.0180  175.1420  136.0930 C   0  0  0  0  0  2  0  0  0  0  0  0
  187.7950  176.8310  137.1220 C   0  0  2  0  0  3  0  0  0  0  0  0
  183.4910  179.9160  139.1000 C   0  0  0  0  0  3  0  0  0  0  0  0
  183.5240  177.4590  138.9760 C   0  0  0  0  0  3  0  0  0  0  0  0
  181.6310  178.0680  137.5400 N   0  0  0  0  0  0  0  0  0  0  0  0
  184.2820  178.7110  138.7010 C   0  0  2  0  0  3  0  0  0  0  0  0
  182.3110  180.2130  138.5600 C   0  0  0  0  0  3  0  0  0  0  0  0
  181.5920  179.3710  137.5840 C   0  0  0  0  0  3  0  0  0  0  0  0
  182.3490  177.1770  138.4110 C   0  0  0  0  0  3  0  0  0  0  0  0
  187.8750  178.7790  140.9870 N   0  0  0  0  0  2  0  0  0  0  0  0
  188.1090  177.7590  141.9950 C   0  0  1  0  0  3  0  0  0  0  0  0
  189.5300  177.8880  142.5430 C   0  0  0  0  0  2  0  0  0  0  0  0
  187.1090  177.9310  143.1360 C   0  0  0  0  0  2  0  0  0  0  0  0
  188.6560  177.1270  144.7480 C   0  0  0  0  0  2  0  0  0  0  0  0
  189.7410  176.9130  143.6960 C   0  0  0  0  0  2  0  0  0  0  0  0
  187.3360  176.9090  144.1570 N   0  0  0  0  0  0  0  0  0  0  0  0
  186.4290  177.1300  145.1360 O   0  0  0  0  0  1  0  0  0  0  0  0
  2  4  1  0  0  0  0
  3 21  1  0  0  0  0
  4  1  2  0  0  0  0
  4  3  1  0  0  0  0
  5  9  1  1  0  0  0
  5 13  1  0  0  0  0
  6 13  1  0  0  0  0
  6  7  1  0  0  0  0
  8  6  1  0  0  0  0
 10  5  1  0  0  0  0
 11 10  2  0  0  0  0
 11  8  1  0  0  0  0
 12  6  1  0  0  0  0
 12  7  1  0  0  0  0
 13  2  1  6  0  0  0
 16 19  2  0  0  0  0
 16 20  1  0  0  0  0
 17 15  1  0  0  0  0
 17 14  1  0  0  0  0
 17  1  1  1  0  0  0
 18 14  2  0  0  0  0
 19 18  1  0  0  0  0
 20 15  2  0  0  0  0
 22 21  1  6  0  0  0
 22 23  1  0  0  0  0
 22 24  1  0  0  0  0
 23 26  1  0  0  0  0
 24 27  1  0  0  0  0
 26 25  1  0  0  0  0
 27 25  1  0  0  0  0
 27 28  1  0  0  0  0
M  END
>  <MODEL>
9

>  <REMARK>
 VINA RESULT:      -6.4      2.926      6.357
  Name = 
  4 active torsions:
  status: ('A' for Active; 'I' for Inactive)
    1  A    between atoms: N_2  and  C_17
    2  A    between atoms: C_6  and  N_24
    3  A    between atoms: N_8  and  C_26
    4  A    between atoms: N_10  and  N_24
                            x       y       z     vdW  Elec       q    Type
                         _______ _______ _______ _____ _____    ______ ____

>  <TORSDO>
F 4

$$$$
