=
 OpenBabel11062413433D

 35 38  0  0  1  0  0  0  0  0999 V2000
  184.7480  177.0460  137.8150 O   0  0  0  0  0  0  0  0  0  0  0  0
  188.5630  177.6580  143.3390 C   0  0  2  0  0  3  0  0  0  0  0  0
  192.2570  176.2020  137.8900 C   0  0  0  0  0  2  0  0  0  0  0  0
  191.5650  178.0030  141.7860 F   0  0  0  0  0  0  0  0  0  0  0  0
  185.0060  178.2460  138.1090 C   0  0  0  0  0  0  0  0  0  0  0  0
  191.1390  175.4430  137.1830 C   0  0  2  0  0  3  0  0  0  0  0  0
  184.0670  178.4070  140.4180 C   0  0  0  0  0  0  0  0  0  0  0  0
  187.0230  178.7160  141.6770 C   0  0  0  0  0  2  0  0  0  0  0  0
  188.0540  177.6230  141.9120 C   0  0  1  0  0  3  0  0  0  0  0  0
  189.2910  177.8740  141.1060 C   0  0  1  0  0  3  0  0  0  0  0  0
  184.1150  179.0100  139.0380 C   0  0  2  0  0  3  0  0  0  0  0  0
  185.7290  178.2830  142.1750 N   0  0  0  0  0  2  0  0  0  0  0  0
  189.1760  176.6900  136.9860 C   0  0  0  0  0  2  0  0  0  0  0  0
  190.2520  176.3750  139.1260 C   0  0  2  0  0  3  0  0  0  0  0  0
  186.1620  178.8910  137.5740 N   0  0  0  0  0  2  0  0  0  0  0  0
  188.1880  177.6740  138.9830 N   0  0  0  0  0  0  0  0  0  0  0  0
  191.5710  177.0750  138.9060 C   0  0  0  0  0  2  0  0  0  0  0  0
  190.5730  175.9710  141.8440 F   0  0  0  0  0  0  0  0  0  0  0  0
  187.9000  177.1470  137.6680 C   0  0  1  0  0  3  0  0  0  0  0  0
  189.9710  177.5550  143.3480 O   0  0  0  0  0  0  0  0  0  0  0  0
  189.8750  175.7400  137.8530 N   0  0  2  0  0  0  0  0  0  0  0  0
  190.3790  177.3320  142.0200 C   0  0  0  0  0  0  0  0  0  0  0  0
  184.7180  179.1270  141.5570 C   0  0  0  0  0  2  0  0  0  0  0  0
  187.9580  176.5180  144.1350 C   0  0  0  0  0  1  0  0  0  0  0  0
  183.5080  177.3390  140.6140 O   0  0  0  0  0  0  0  0  0  0  0  0
  189.1870  177.2940  139.7070 C   0  0  0  0  0  0  0  0  0  0  0  0
  187.1940  178.1950  136.8130 C   0  0  0  0  0  2  0  0  0  0  0  0
  182.7460  179.3330  138.4190 C   0  0  0  0  0  3  0  0  0  0  0  0
  181.6390  178.4040  138.8890 C   0  0  0  0  0  1  0  0  0  0  0  0
  182.3600  180.7770  138.6790 C   0  0  0  0  0  1  0  0  0  0  0  0
  191.4060  173.9450  137.2290 C   0  0  0  0  0  2  0  0  0  0  0  0
  190.4590  172.8250  135.3720 C   0  0  0  0  0  1  0  0  0  0  0  0
  191.6760  173.4360  135.8890 N   0  0  0  0  0  0  0  0  0  0  0  0
  192.7460  172.4340  135.9470 C   0  0  0  0  0  2  0  0  0  0  0  0
  193.9890  172.9060  136.7030 C   0  0  0  0  0  1  0  0  0  0  0  0
  1  5  2  0  0  0  0
  2 20  1  0  0  0  0
  2 24  1  1  0  0  0
  3 17  1  0  0  0  0
  4 22  1  0  0  0  0
  5 11  1  0  0  0  0
  6 31  1  1  0  0  0
  6 21  1  0  0  0  0
  6  3  1  0  0  0  0
  7 25  2  0  0  0  0
  7 23  1  0  0  0  0
  8 12  1  0  0  0  0
  9  8  1  1  0  0  0
  9  2  1  0  0  0  0
 10 26  1  6  0  0  0
 10  9  1  0  0  0  0
 10 22  1  0  0  0  0
 11 28  1  6  0  0  0
 11  7  1  0  0  0  0
 13 19  1  0  0  0  0
 14 17  1  6  0  0  0
 14 26  1  0  0  0  0
 15  5  1  0  0  0  0
 16 26  2  0  0  0  0
 18 22  1  0  0  0  0
 19 27  1  6  0  0  0
 19 16  1  0  0  0  0
 21 13  1  6  0  0  0
 21 14  1  0  0  0  0
 22 20  1  0  0  0  0
 23 12  1  0  0  0  0
 27 15  1  0  0  0  0
 28 30  1  0  0  0  0
 28 29  1  0  0  0  0
 32 33  1  0  0  0  0
 33 34  1  0  0  0  0
 33 31  1  0  0  0  0
 34 35  1  0  0  0  0
M  END
>  <MODEL>
1

>  <REMARK>
 VINA RESULT:      -7.9      0.000      0.000
  Name = 
  4 active torsions:
  status: ('A' for Active; 'I' for Inactive)
    1  A    between atoms: C_4  and  N_20
    2  A    between atoms: C_7  and  C_14
    3  A    between atoms: C_8  and  C_26
    4  A    between atoms: N_20  and  C_26
                            x       y       z     vdW  Elec       q    Type
                         _______ _______ _______ _____ _____    ______ ____

>  <TORSDO>
F 4

$$$$
=
 OpenBabel11062413433D

 35 38  0  0  1  0  0  0  0  0999 V2000
  187.2880  176.3160  144.0780 O   0  0  0  0  0  0  0  0  0  0  0  0
  189.0780  177.1890  137.6380 C   0  0  2  0  0  3  0  0  0  0  0  0
  182.8650  179.5110  138.8500 C   0  0  0  0  0  2  0  0  0  0  0  0
  186.7040  179.4730  136.8080 F   0  0  0  0  0  0  0  0  0  0  0  0
  188.0180  177.3290  143.8990 C   0  0  0  0  0  0  0  0  0  0  0  0
  182.5840  178.5250  139.9780 C   0  0  2  0  0  3  0  0  0  0  0  0
  190.0580  176.3040  142.8880 C   0  0  0  0  0  0  0  0  0  0  0  0
  189.4540  177.7230  140.0520 C   0  0  0  0  0  2  0  0  0  0  0  0
  188.4320  177.3100  139.0030 C   0  0  1  0  0  3  0  0  0  0  0  0
  187.4110  178.3870  138.8010 C   0  0  1  0  0  3  0  0  0  0  0  0
  189.5090  177.2130  143.9570 C   0  0  2  0  0  3  0  0  0  0  0  0
  190.2080  176.5580  140.4840 N   0  0  0  0  0  2  0  0  0  0  0  0
  184.2120  178.5670  141.6500 C   0  0  0  0  0  2  0  0  0  0  0  0
  184.8060  178.2530  139.3300 C   0  0  2  0  0  3  0  0  0  0  0  0
  187.4350  178.6040  143.6220 N   0  0  0  0  0  2  0  0  0  0  0  0
  186.5510  178.2680  141.0380 N   0  0  0  0  0  0  0  0  0  0  0  0
  184.3650  179.5640  138.7250 C   0  0  0  0  0  2  0  0  0  0  0  0
  186.1120  177.3080  137.0820 F   0  0  0  0  0  0  0  0  0  0  0  0
  185.5780  178.0750  142.0910 C   0  0  1  0  0  3  0  0  0  0  0  0
  188.2770  177.8340  136.6710 O   0  0  0  0  0  0  0  0  0  0  0  0
  183.8450  177.9140  140.3930 N   0  0  2  0  0  0  0  0  0  0  0  0
  187.0990  178.2510  137.3180 C   0  0  0  0  0  0  0  0  0  0  0  0
  190.8370  176.8920  141.7530 C   0  0  0  0  0  2  0  0  0  0  0  0
  189.2510  175.7280  137.2720 C   0  0  0  0  0  1  0  0  0  0  0  0
  189.8720  175.0980  142.9370 O   0  0  0  0  0  0  0  0  0  0  0  0
  186.2590  178.2710  139.7810 C   0  0  0  0  0  0  0  0  0  0  0  0
  186.0120  178.7990  143.3610 C   0  0  0  0  0  2  0  0  0  0  0  0
  190.0310  176.9420  145.3760 C   0  0  0  0  0  3  0  0  0  0  0  0
  191.5400  177.0810  145.4980 C   0  0  0  0  0  1  0  0  0  0  0  0
  189.3420  177.8370  146.3890 C   0  0  0  0  0  1  0  0  0  0  0  0
  181.6190  177.4460  139.5090 C   0  0  0  0  0  2  0  0  0  0  0  0
  179.4220  176.6480  139.8800 C   0  0  0  0  0  1  0  0  0  0  0  0
  180.6100  177.1880  140.5290 N   0  0  0  0  0  0  0  0  0  0  0  0
  180.2720  178.4370  141.2190 C   0  0  0  0  0  2  0  0  0  0  0  0
  180.0010  178.2590  142.7140 C   0  0  0  0  0  1  0  0  0  0  0  0
  2 24  1  6  0  0  0
  2  9  1  0  0  0  0
  3  6  1  0  0  0  0
  4 22  1  0  0  0  0
  5 11  1  0  0  0  0
  5  1  2  0  0  0  0
  6 31  1  6  0  0  0
  6 21  1  0  0  0  0
  7 25  2  0  0  0  0
  7 11  1  0  0  0  0
  8 12  1  0  0  0  0
  9  8  1  1  0  0  0
 10  9  1  0  0  0  0
 10 26  1  1  0  0  0
 11 28  1  1  0  0  0
 12 23  1  0  0  0  0
 14 17  1  1  0  0  0
 14 26  1  0  0  0  0
 14 21  1  0  0  0  0
 15  5  1  0  0  0  0
 16 19  1  0  0  0  0
 17  3  1  0  0  0  0
 18 22  1  0  0  0  0
 19 13  1  6  0  0  0
 19 27  1  0  0  0  0
 20 22  1  0  0  0  0
 20  2  1  0  0  0  0
 21 13  1  1  0  0  0
 22 10  1  0  0  0  0
 23  7  1  0  0  0  0
 26 16  2  0  0  0  0
 27 15  1  0  0  0  0
 28 29  1  0  0  0  0
 28 30  1  0  0  0  0
 31 33  1  0  0  0  0
 32 33  1  0  0  0  0
 33 34  1  0  0  0  0
 34 35  1  0  0  0  0
M  END
>  <MODEL>
2

>  <REMARK>
 VINA RESULT:      -7.4      3.048      8.243
  Name = 
  4 active torsions:
  status: ('A' for Active; 'I' for Inactive)
    1  A    between atoms: C_4  and  N_20
    2  A    between atoms: C_7  and  C_14
    3  A    between atoms: C_8  and  C_26
    4  A    between atoms: N_20  and  C_26
                            x       y       z     vdW  Elec       q    Type
                         _______ _______ _______ _____ _____    ______ ____

>  <TORSDO>
F 4

$$$$
=
 OpenBabel11062413433D

 35 38  0  0  1  0  0  0  0  0999 V2000
  187.3000  176.2930  144.0400 O   0  0  0  0  0  0  0  0  0  0  0  0
  189.1140  177.3120  137.6280 C   0  0  2  0  0  3  0  0  0  0  0  0
  182.8330  179.4530  138.8270 C   0  0  0  0  0  2  0  0  0  0  0  0
  186.6860  179.5460  136.8150 F   0  0  0  0  0  0  0  0  0  0  0  0
  188.0050  177.3280  143.8820 C   0  0  0  0  0  0  0  0  0  0  0  0
  182.5700  178.4420  139.9380 C   0  0  2  0  0  3  0  0  0  0  0  0
  190.0780  176.3720  142.8710 C   0  0  0  0  0  0  0  0  0  0  0  0
  189.4580  177.8170  140.0530 C   0  0  0  0  0  2  0  0  0  0  0  0
  188.4550  177.3950  138.9900 C   0  0  1  0  0  3  0  0  0  0  0  0
  187.4080  178.4470  138.7960 C   0  0  1  0  0  3  0  0  0  0  0  0
  189.4980  177.2490  143.9490 C   0  0  2  0  0  3  0  0  0  0  0  0
  190.2390  176.6670  140.4720 N   0  0  0  0  0  2  0  0  0  0  0  0
  184.1840  178.5000  141.6230 C   0  0  0  0  0  2  0  0  0  0  0  0
  184.8030  178.2370  139.3030 C   0  0  2  0  0  3  0  0  0  0  0  0
  187.3900  178.5900  143.6200 N   0  0  0  0  0  2  0  0  0  0  0  0
  186.5340  178.2720  141.0240 N   0  0  0  0  0  0  0  0  0  0  0  0
  184.3320  179.5460  138.7150 C   0  0  0  0  0  2  0  0  0  0  0  0
  186.1500  177.3620  137.0500 F   0  0  0  0  0  0  0  0  0  0  0  0
  185.5590  178.0380  142.0660 C   0  0  1  0  0  3  0  0  0  0  0  0
  188.3030  177.9510  136.6650 O   0  0  0  0  0  0  0  0  0  0  0  0
  183.8430  177.8580  140.3530 N   0  0  2  0  0  0  0  0  0  0  0  0
  187.1100  178.3270  137.3090 C   0  0  0  0  0  0  0  0  0  0  0  0
  190.8500  176.9970  141.7520 C   0  0  0  0  0  2  0  0  0  0  0  0
  189.3280  175.8610  137.2410 C   0  0  0  0  0  1  0  0  0  0  0  0
  189.9230  175.1600  142.9000 O   0  0  0  0  0  0  0  0  0  0  0  0
  186.2520  178.2870  139.7660 C   0  0  0  0  0  0  0  0  0  0  0  0
  185.9650  178.7530  143.3510 C   0  0  0  0  0  2  0  0  0  0  0  0
  190.0160  176.9700  145.3680 C   0  0  0  0  0  3  0  0  0  0  0  0
  191.5230  177.1230  145.4990 C   0  0  0  0  0  1  0  0  0  0  0  0
  189.3140  177.8490  146.3860 C   0  0  0  0  0  1  0  0  0  0  0  0
  181.6370  177.3450  139.4450 C   0  0  0  0  0  2  0  0  0  0  0  0
  179.9610  177.4830  137.7800 C   0  0  0  0  0  1  0  0  0  0  0  0
  181.4000  177.4870  138.0130 N   0  0  0  0  0  0  0  0  0  0  0  0
  182.0190  176.3670  137.2950 C   0  0  0  0  0  2  0  0  0  0  0  0
  182.9770  176.8050  136.1850 C   0  0  0  0  0  1  0  0  0  0  0  0
  2 24  1  6  0  0  0
  2  9  1  0  0  0  0
  3  6  1  0  0  0  0
  4 22  1  0  0  0  0
  5 11  1  0  0  0  0
  5  1  2  0  0  0  0
  6 31  1  6  0  0  0
  6 21  1  0  0  0  0
  7 25  2  0  0  0  0
  7 11  1  0  0  0  0
  8 12  1  0  0  0  0
  9  8  1  1  0  0  0
 10  9  1  0  0  0  0
 10 26  1  1  0  0  0
 11 28  1  1  0  0  0
 12 23  1  0  0  0  0
 14 17  1  1  0  0  0
 14 26  1  0  0  0  0
 14 21  1  0  0  0  0
 15  5  1  0  0  0  0
 16 19  1  0  0  0  0
 17  3  1  0  0  0  0
 18 22  1  0  0  0  0
 19 13  1  6  0  0  0
 19 27  1  0  0  0  0
 20 22  1  0  0  0  0
 20  2  1  0  0  0  0
 21 13  1  1  0  0  0
 22 10  1  0  0  0  0
 23  7  1  0  0  0  0
 26 16  2  0  0  0  0
 27 15  1  0  0  0  0
 28 29  1  0  0  0  0
 28 30  1  0  0  0  0
 32 33  1  0  0  0  0
 33 31  1  0  0  0  0
 34 33  1  0  0  0  0
 35 34  1  0  0  0  0
M  END
>  <MODEL>
3

>  <REMARK>
 VINA RESULT:      -7.3      3.057      7.770
  Name = 
  4 active torsions:
  status: ('A' for Active; 'I' for Inactive)
    1  A    between atoms: C_4  and  N_20
    2  A    between atoms: C_7  and  C_14
    3  A    between atoms: C_8  and  C_26
    4  A    between atoms: N_20  and  C_26
                            x       y       z     vdW  Elec       q    Type
                         _______ _______ _______ _____ _____    ______ ____

>  <TORSDO>
F 4

$$$$
=
 OpenBabel11062413433D

 35 38  0  0  1  0  0  0  0  0999 V2000
  184.6000  177.5390  142.5210 O   0  0  0  0  0  0  0  0  0  0  0  0
  191.3070  176.8900  142.7230 C   0  0  2  0  0  3  0  0  0  0  0  0
  189.0600  177.7530  136.4240 C   0  0  0  0  0  2  0  0  0  0  0  0
  191.9790  178.1160  139.6260 F   0  0  0  0  0  0  0  0  0  0  0  0
  185.1920  178.6070  142.8370 C   0  0  0  0  0  0  0  0  0  0  0  0
  187.7030  177.1100  136.6900 C   0  0  2  0  0  3  0  0  0  0  0  0
  186.4440  177.9000  144.8780 C   0  0  0  0  0  0  0  0  0  0  0  0
  189.2660  178.1980  143.3390 C   0  0  0  0  0  2  0  0  0  0  0  0
  189.8840  177.2380  142.3340 C   0  0  1  0  0  3  0  0  0  0  0  0
  190.0500  177.8980  141.0000 C   0  0  1  0  0  3  0  0  0  0  0  0
  185.5060  178.9090  144.2690 C   0  0  2  0  0  3  0  0  0  0  0  0
  188.7950  177.4560  144.4960 N   0  0  0  0  0  2  0  0  0  0  0  0
  186.5760  178.0740  138.4920 C   0  0  0  0  0  2  0  0  0  0  0  0
  188.8350  177.2500  138.7220 C   0  0  2  0  0  3  0  0  0  0  0  0
  185.5890  179.5410  141.8310 N   0  0  0  0  0  2  0  0  0  0  0  0
  187.7000  178.2310  140.6480 N   0  0  0  0  0  0  0  0  0  0  0  0
  189.5850  178.1570  137.7770 C   0  0  0  0  0  2  0  0  0  0  0  0
  191.0710  176.0550  139.8300 F   0  0  0  0  0  0  0  0  0  0  0  0
  186.4120  178.1120  140.0000 C   0  0  1  0  0  3  0  0  0  0  0  0
  192.1480  176.9830  141.5930 O   0  0  0  0  0  0  0  0  0  0  0  0
  187.5080  177.0040  138.1340 N   0  0  2  0  0  0  0  0  0  0  0  0
  191.3260  177.2500  140.4830 C   0  0  0  0  0  0  0  0  0  0  0  0
  187.8480  178.3060  145.2030 C   0  0  0  0  0  2  0  0  0  0  0  0
  191.3600  175.4850  143.2910 C   0  0  0  0  0  1  0  0  0  0  0  0
  186.0730  176.7590  145.1060 O   0  0  0  0  0  0  0  0  0  0  0  0
  188.8010  177.7830  140.1470 C   0  0  0  0  0  0  0  0  0  0  0  0
  185.5020  179.2700  140.4000 C   0  0  0  0  0  2  0  0  0  0  0  0
  184.2520  179.2200  145.1010 C   0  0  0  0  0  3  0  0  0  0  0  0
  182.9590  178.8060  144.4180 C   0  0  0  0  0  1  0  0  0  0  0  0
  184.3410  178.5860  146.4760 C   0  0  0  0  0  1  0  0  0  0  0  0
  187.6410  175.7270  136.0590 C   0  0  0  0  0  2  0  0  0  0  0  0
  188.1080  173.5910  136.9640 C   0  0  0  0  0  1  0  0  0  0  0  0
  187.2140  174.7380  137.0430 N   0  0  0  0  0  0  0  0  0  0  0  0
  185.8390  174.3140  136.7550 C   0  0  0  0  0  2  0  0  0  0  0  0
  185.3390  173.1940  137.6680 C   0  0  0  0  0  1  0  0  0  0  0  0
  1  5  2  0  0  0  0
  2 24  1  6  0  0  0
  3  6  1  0  0  0  0
  3 17  1  0  0  0  0
  4 22  1  0  0  0  0
  5 11  1  0  0  0  0
  6 31  1  6  0  0  0
  6 21  1  0  0  0  0
  7 25  2  0  0  0  0
  7 23  1  0  0  0  0
  8 12  1  0  0  0  0
  9  2  1  0  0  0  0
  9  8  1  1  0  0  0
 10 26  1  6  0  0  0
 10  9  1  0  0  0  0
 11  7  1  0  0  0  0
 11 28  1  1  0  0  0
 12 23  1  0  0  0  0
 14 17  1  6  0  0  0
 14 26  1  0  0  0  0
 15  5  1  0  0  0  0
 18 22  1  0  0  0  0
 19 13  1  6  0  0  0
 19 27  1  0  0  0  0
 19 16  1  0  0  0  0
 20  2  1  0  0  0  0
 21 13  1  1  0  0  0
 21 14  1  0  0  0  0
 22 10  1  0  0  0  0
 22 20  1  0  0  0  0
 26 16  2  0  0  0  0
 27 15  1  0  0  0  0
 28 30  1  0  0  0  0
 29 28  1  0  0  0  0
 31 33  1  0  0  0  0
 32 33  1  0  0  0  0
 34 33  1  0  0  0  0
 34 35  1  0  0  0  0
M  END
>  <MODEL>
4

>  <REMARK>
 VINA RESULT:      -7.1      2.728      4.321
  Name = 
  4 active torsions:
  status: ('A' for Active; 'I' for Inactive)
    1  A    between atoms: C_4  and  N_20
    2  A    between atoms: C_7  and  C_14
    3  A    between atoms: C_8  and  C_26
    4  A    between atoms: N_20  and  C_26
                            x       y       z     vdW  Elec       q    Type
                         _______ _______ _______ _____ _____    ______ ____

>  <TORSDO>
F 4

$$$$
=
 OpenBabel11062413433D

 35 38  0  0  1  0  0  0  0  0999 V2000
  193.9280  174.4880  138.6430 O   0  0  0  0  0  0  0  0  0  0  0  0
  188.2440  175.7660  135.2520 C   0  0  2  0  0  3  0  0  0  0  0  0
  188.2250  178.6410  141.3510 C   0  0  0  0  0  2  0  0  0  0  0  0
  187.1560  178.3700  137.1450 F   0  0  0  0  0  0  0  0  0  0  0  0
  194.0490  175.4260  137.8080 C   0  0  0  0  0  0  0  0  0  0  0  0
  189.1290  177.5890  141.9840 C   0  0  2  0  0  3  0  0  0  0  0  0
  193.4320  174.2810  135.6760 C   0  0  0  0  0  0  0  0  0  0  0  0
  190.7240  176.0210  135.4390 C   0  0  0  0  0  2  0  0  0  0  0  0
  189.4220  175.8270  136.2020 C   0  0  1  0  0  3  0  0  0  0  0  0
  189.1150  177.0250  137.0460 C   0  0  1  0  0  3  0  0  0  0  0  0
  194.4420  175.1390  136.3920 C   0  0  2  0  0  3  0  0  0  0  0  0
  191.1790  174.7440  134.9170 N   0  0  0  0  0  2  0  0  0  0  0  0
  191.1300  177.2890  140.8220 C   0  0  0  0  0  2  0  0  0  0  0  0
  188.9950  177.1330  139.7030 C   0  0  2  0  0  3  0  0  0  0  0  0
  193.7960  176.7780  138.1940 N   0  0  0  0  0  2  0  0  0  0  0  0
  191.0560  176.7910  138.4390 N   0  0  0  0  0  0  0  0  0  0  0  0
  188.4650  178.5370  139.8680 C   0  0  0  0  0  2  0  0  0  0  0  0
  187.0220  176.2670  137.9680 F   0  0  0  0  0  0  0  0  0  0  0  0
  191.8180  176.6080  139.6540 C   0  0  1  0  0  3  0  0  0  0  0  0
  187.1990  176.5860  135.7320 O   0  0  0  0  0  0  0  0  0  0  0  0
  189.7520  176.8040  140.9220 N   0  0  2  0  0  0  0  0  0  0  0  0
  187.5960  177.0680  136.9930 C   0  0  0  0  0  0  0  0  0  0  0  0
  192.5920  174.8830  134.5940 C   0  0  0  0  0  2  0  0  0  0  0  0
  187.7570  174.3360  135.1190 C   0  0  0  0  0  1  0  0  0  0  0  0
  193.2910  173.1030  135.9710 O   0  0  0  0  0  0  0  0  0  0  0  0
  189.7750  176.9460  138.4100 C   0  0  0  0  0  0  0  0  0  0  0  0
  193.2330  177.1540  139.4870 C   0  0  0  0  0  2  0  0  0  0  0  0
  195.9010  174.6770  136.2620 C   0  0  0  0  0  3  0  0  0  0  0  0
  196.7740  175.6530  135.4900 C   0  0  0  0  0  1  0  0  0  0  0  0
  196.5080  174.4010  137.6250 C   0  0  0  0  0  1  0  0  0  0  0  0
  188.3190  176.6740  142.8920 C   0  0  0  0  0  2  0  0  0  0  0  0
  187.7110  177.5030  145.0230 C   0  0  0  0  0  1  0  0  0  0  0  0
  188.7560  176.8150  144.2760 N   0  0  0  0  0  0  0  0  0  0  0  0
  189.9960  177.5970  144.3270 C   0  0  0  0  0  2  0  0  0  0  0  0
  191.1060  176.9350  145.1450 C   0  0  0  0  0  1  0  0  0  0  0  0
  2 24  1  1  0  0  0
  2 20  1  0  0  0  0
  2  9  1  0  0  0  0
  3  6  1  0  0  0  0
  5 15  1  0  0  0  0
  5  1  2  0  0  0  0
  6 31  1  1  0  0  0
  7 25  2  0  0  0  0
  7 11  1  0  0  0  0
  9  8  1  6  0  0  0
  9 10  1  0  0  0  0
 10 26  1  1  0  0  0
 11 28  1  1  0  0  0
 11  5  1  0  0  0  0
 12  8  1  0  0  0  0
 14 17  1  1  0  0  0
 14 21  1  0  0  0  0
 15 27  1  0  0  0  0
 16 19  1  0  0  0  0
 17  3  1  0  0  0  0
 19 27  1  6  0  0  0
 19 13  1  0  0  0  0
 20 22  1  0  0  0  0
 21 13  1  6  0  0  0
 21  6  1  0  0  0  0
 22 10  1  0  0  0  0
 22  4  1  0  0  0  0
 22 18  1  0  0  0  0
 23 12  1  0  0  0  0
 23  7  1  0  0  0  0
 26 16  2  0  0  0  0
 26 14  1  0  0  0  0
 28 30  1  0  0  0  0
 29 28  1  0  0  0  0
 31 33  1  0  0  0  0
 33 34  1  0  0  0  0
 33 32  1  0  0  0  0
 34 35  1  0  0  0  0
M  END
>  <MODEL>
5

>  <REMARK>
 VINA RESULT:      -6.9      3.531      8.677
  Name = 
  4 active torsions:
  status: ('A' for Active; 'I' for Inactive)
    1  A    between atoms: C_4  and  N_20
    2  A    between atoms: C_7  and  C_14
    3  A    between atoms: C_8  and  C_26
    4  A    between atoms: N_20  and  C_26
                            x       y       z     vdW  Elec       q    Type
                         _______ _______ _______ _____ _____    ______ ____

>  <TORSDO>
F 4

$$$$
=
 OpenBabel11062413433D

 35 38  0  0  1  0  0  0  0  0999 V2000
  188.1060  176.4570  139.1990 O   0  0  0  0  0  0  0  0  0  0  0  0
  181.8130  178.2690  140.7990 C   0  0  2  0  0  3  0  0  0  0  0  0
  186.0820  179.2380  145.9270 C   0  0  0  0  0  2  0  0  0  0  0  0
  182.5560  180.1280  143.5440 F   0  0  0  0  0  0  0  0  0  0  0  0
  187.7960  177.6030  138.7720 C   0  0  0  0  0  0  0  0  0  0  0  0
  187.0250  178.1130  145.5150 C   0  0  2  0  0  3  0  0  0  0  0  0
  185.8120  177.0870  137.3470 C   0  0  0  0  0  0  0  0  0  0  0  0
  183.8490  178.6290  139.3930 C   0  0  0  0  0  2  0  0  0  0  0  0
  183.3200  178.1320  140.7300 C   0  0  1  0  0  3  0  0  0  0  0  0
  183.7910  179.0100  141.8480 C   0  0  1  0  0  3  0  0  0  0  0  0
  187.1530  177.7680  137.4300 C   0  0  2  0  0  3  0  0  0  0  0  0
  183.6840  177.5940  138.3870 N   0  0  0  0  0  2  0  0  0  0  0  0
  187.7610  178.3030  143.3090 C   0  0  0  0  0  2  0  0  0  0  0  0
  185.4070  178.3320  143.8530 C   0  0  2  0  0  3  0  0  0  0  0  0
  188.0380  178.7630  139.5690 N   0  0  0  0  0  2  0  0  0  0  0  0
  186.1170  178.5150  141.5230 N   0  0  0  0  0  0  0  0  0  0  0  0
  185.3050  179.5870  144.6850 C   0  0  0  0  0  2  0  0  0  0  0  0
  182.6860  177.8730  143.6630 F   0  0  0  0  0  0  0  0  0  0  0  0
  187.4440  178.0410  141.8480 C   0  0  1  0  0  3  0  0  0  0  0  0
  181.4410  178.8390  142.0360 O   0  0  0  0  0  0  0  0  0  0  0  0
  186.7120  177.7170  144.1450 N   0  0  2  0  0  0  0  0  0  0  0  0
  182.6110  178.9600  142.8070 C   0  0  0  0  0  0  0  0  0  0  0  0
  184.5690  177.9180  137.2780 C   0  0  0  0  0  2  0  0  0  0  0  0
  181.1600  176.9080  140.6410 C   0  0  0  0  0  1  0  0  0  0  0  0
  185.7290  175.8680  137.3370 O   0  0  0  0  0  0  0  0  0  0  0  0
  185.1500  178.5830  142.3740 C   0  0  0  0  0  0  0  0  0  0  0  0
  188.4860  178.7090  140.9570 C   0  0  0  0  0  2  0  0  0  0  0  0
  188.1120  177.4660  136.2690 C   0  0  0  0  0  3  0  0  0  0  0  0
  187.5230  177.7850  134.9040 C   0  0  0  0  0  1  0  0  0  0  0  0
  189.4310  178.1940  136.4500 C   0  0  0  0  0  1  0  0  0  0  0  0
  186.8620  176.9200  146.4460 C   0  0  0  0  0  2  0  0  0  0  0  0
  187.9300  177.6140  148.4410 C   0  0  0  0  0  1  0  0  0  0  0  0
  188.0530  176.7530  147.2710 N   0  0  0  0  0  0  0  0  0  0  0  0
  189.2450  177.1290  146.5030 C   0  0  0  0  0  2  0  0  0  0  0  0
  190.5600  176.7530  147.1870 C   0  0  0  0  0  1  0  0  0  0  0  0
  2 24  1  1  0  0  0
  2 20  1  0  0  0  0
  5  1  2  0  0  0  0
  5 15  1  0  0  0  0
  6  3  1  0  0  0  0
  6 31  1  1  0  0  0
  7 11  1  0  0  0  0
  9  8  1  6  0  0  0
  9  2  1  0  0  0  0
  9 10  1  0  0  0  0
 10 26  1  1  0  0  0
 10 22  1  0  0  0  0
 11 28  1  6  0  0  0
 11  5  1  0  0  0  0
 12  8  1  0  0  0  0
 14 21  1  0  0  0  0
 14 17  1  1  0  0  0
 15 27  1  0  0  0  0
 16 19  1  0  0  0  0
 16 26  2  0  0  0  0
 17  3  1  0  0  0  0
 19 27  1  6  0  0  0
 19 13  1  0  0  0  0
 20 22  1  0  0  0  0
 21 13  1  6  0  0  0
 21  6  1  0  0  0  0
 22  4  1  0  0  0  0
 22 18  1  0  0  0  0
 23  7  1  0  0  0  0
 23 12  1  0  0  0  0
 25  7  2  0  0  0  0
 26 14  1  0  0  0  0
 28 30  1  0  0  0  0
 29 28  1  0  0  0  0
 31 33  1  0  0  0  0
 33 32  1  0  0  0  0
 34 35  1  0  0  0  0
 34 33  1  0  0  0  0
M  END
>  <MODEL>
6

>  <REMARK>
 VINA RESULT:      -6.9      3.744      7.559
  Name = 
  4 active torsions:
  status: ('A' for Active; 'I' for Inactive)
    1  A    between atoms: C_4  and  N_20
    2  A    between atoms: C_7  and  C_14
    3  A    between atoms: C_8  and  C_26
    4  A    between atoms: N_20  and  C_26
                            x       y       z     vdW  Elec       q    Type
                         _______ _______ _______ _____ _____    ______ ____

>  <TORSDO>
F 4

$$$$
=
 OpenBabel11062413433D

 35 38  0  0  1  0  0  0  0  0999 V2000
  194.3600  174.0890  138.4310 O   0  0  0  0  0  0  0  0  0  0  0  0
  188.4800  173.5050  135.1860 C   0  0  2  0  0  3  0  0  0  0  0  0
  188.2950  178.3670  139.8550 C   0  0  0  0  0  2  0  0  0  0  0  0
  187.1540  176.4970  136.0990 F   0  0  0  0  0  0  0  0  0  0  0  0
  194.3520  174.6710  137.3110 C   0  0  0  0  0  0  0  0  0  0  0  0
  189.3300  177.7060  140.7600 C   0  0  2  0  0  3  0  0  0  0  0  0
  193.8130  172.7810  135.7700 C   0  0  0  0  0  0  0  0  0  0  0  0
  190.9200  174.0490  135.1080 C   0  0  0  0  0  2  0  0  0  0  0  0
  189.6690  174.0180  135.9740 C   0  0  1  0  0  3  0  0  0  0  0  0
  189.2500  175.4040  136.3550 C   0  0  1  0  0  3  0  0  0  0  0  0
  194.7370  173.9330  136.0670 C   0  0  2  0  0  3  0  0  0  0  0  0
  191.5030  172.7200  135.0450 N   0  0  0  0  0  2  0  0  0  0  0  0
  191.3210  177.2030  139.6520 C   0  0  0  0  0  2  0  0  0  0  0  0
  189.1880  176.4490  138.8030 C   0  0  2  0  0  3  0  0  0  0  0  0
  193.9580  176.0400  137.2080 N   0  0  0  0  0  2  0  0  0  0  0  0
  191.2410  175.8750  137.6100 N   0  0  0  0  0  0  0  0  0  0  0  0
  188.5060  177.7600  138.4930 C   0  0  0  0  0  2  0  0  0  0  0  0
  187.2810  174.8300  137.6220 F   0  0  0  0  0  0  0  0  0  0  0  0
  192.0510  176.2170  138.7580 C   0  0  1  0  0  3  0  0  0  0  0  0
  187.3620  174.3380  135.4120 O   0  0  0  0  0  0  0  0  0  0  0  0
  190.0100  176.6560  140.0060 N   0  0  2  0  0  0  0  0  0  0  0  0
  187.7350  175.2770  136.3910 C   0  0  0  0  0  0  0  0  0  0  0  0
  192.8810  172.8700  134.6020 C   0  0  0  0  0  2  0  0  0  0  0  0
  188.1560  172.0830  135.6020 C   0  0  0  0  0  1  0  0  0  0  0  0
  193.8150  171.7810  136.4720 O   0  0  0  0  0  0  0  0  0  0  0  0
  189.9500  175.8850  137.6120 C   0  0  0  0  0  0  0  0  0  0  0  0
  193.3890  176.8000  138.3160 C   0  0  0  0  0  2  0  0  0  0  0  0
  196.2360  173.5980  136.0130 C   0  0  0  0  0  3  0  0  0  0  0  0
  196.6460  172.8760  134.7400 C   0  0  0  0  0  1  0  0  0  0  0  0
  197.0780  174.8470  136.1980 C   0  0  0  0  0  1  0  0  0  0  0  0
  188.6540  177.1050  141.9840 C   0  0  0  0  0  2  0  0  0  0  0  0
  190.3300  178.1310  143.3030 C   0  0  0  0  0  1  0  0  0  0  0  0
  188.8930  177.9390  143.1570 N   0  0  0  0  0  0  0  0  0  0  0  0
  188.3580  177.2770  144.3520 C   0  0  0  0  0  2  0  0  0  0  0  0
  189.1460  177.5830  145.6270 C   0  0  0  0  0  1  0  0  0  0  0  0
  2 20  1  0  0  0  0
  2 24  1  1  0  0  0
  2  9  1  0  0  0  0
  3  6  1  0  0  0  0
  4 22  1  0  0  0  0
  5  1  2  0  0  0  0
  6 31  1  1  0  0  0
  7 11  1  0  0  0  0
  7 25  2  0  0  0  0
  9  8  1  6  0  0  0
  9 10  1  0  0  0  0
 10 22  1  0  0  0  0
 10 26  1  1  0  0  0
 11 28  1  1  0  0  0
 11  5  1  0  0  0  0
 12  8  1  0  0  0  0
 14 17  1  6  0  0  0
 14 21  1  0  0  0  0
 15  5  1  0  0  0  0
 15 27  1  0  0  0  0
 16 26  2  0  0  0  0
 16 19  1  0  0  0  0
 17  3  1  0  0  0  0
 19 27  1  6  0  0  0
 19 13  1  0  0  0  0
 20 22  1  0  0  0  0
 21 13  1  6  0  0  0
 21  6  1  0  0  0  0
 22 18  1  0  0  0  0
 23 12  1  0  0  0  0
 23  7  1  0  0  0  0
 26 14  1  0  0  0  0
 28 30  1  0  0  0  0
 29 28  1  0  0  0  0
 31 33  1  0  0  0  0
 33 32  1  0  0  0  0
 33 34  1  0  0  0  0
 34 35  1  0  0  0  0
M  END
>  <MODEL>
7

>  <REMARK>
 VINA RESULT:      -6.8      3.652      9.091
  Name = 
  4 active torsions:
  status: ('A' for Active; 'I' for Inactive)
    1  A    between atoms: C_4  and  N_20
    2  A    between atoms: C_7  and  C_14
    3  A    between atoms: C_8  and  C_26
    4  A    between atoms: N_20  and  C_26
                            x       y       z     vdW  Elec       q    Type
                         _______ _______ _______ _____ _____    ______ ____

>  <TORSDO>
F 4

$$$$
=
 OpenBabel11062413433D

 35 38  0  0  1  0  0  0  0  0999 V2000
  190.4980  175.5930  139.4200 O   0  0  0  0  0  0  0  0  0  0  0  0
  184.4190  177.4980  137.2150 C   0  0  2  0  0  3  0  0  0  0  0  0
  185.5960  179.6480  143.4970 C   0  0  0  0  0  2  0  0  0  0  0  0
  183.8270  179.9100  139.5340 F   0  0  0  0  0  0  0  0  0  0  0  0
  190.5370  176.6150  138.6810 C   0  0  0  0  0  0  0  0  0  0  0  0
  186.5250  178.4920  143.8500 C   0  0  2  0  0  3  0  0  0  0  0  0
  189.5040  175.7510  136.5780 C   0  0  0  0  0  0  0  0  0  0  0  0
  186.9070  177.6220  136.9980 C   0  0  0  0  0  2  0  0  0  0  0  0
  185.7410  177.3980  137.9490 C   0  0  1  0  0  3  0  0  0  0  0  0
  185.6540  178.5030  138.9560 C   0  0  1  0  0  3  0  0  0  0  0  0
  190.6700  176.4760  137.1960 C   0  0  2  0  0  3  0  0  0  0  0  0
  187.1890  176.3960  136.2720 N   0  0  0  0  0  2  0  0  0  0  0  0
  188.2820  178.2420  142.3340 C   0  0  0  0  0  2  0  0  0  0  0  0
  185.9850  178.3090  141.5900 C   0  0  2  0  0  3  0  0  0  0  0  0
  190.4370  177.9230  139.2460 N   0  0  0  0  0  2  0  0  0  0  0  0
  187.7810  178.0260  139.9600 N   0  0  0  0  0  0  0  0  0  0  0  0
  185.5780  179.7050  141.9920 C   0  0  0  0  0  2  0  0  0  0  0  0
  183.7010  177.7340  140.1390 F   0  0  0  0  0  0  0  0  0  0  0  0
  188.7230  177.6710  140.9990 C   0  0  1  0  0  3  0  0  0  0  0  0
  183.5220  178.3010  137.9530 O   0  0  0  0  0  0  0  0  0  0  0  0
  186.9130  177.8090  142.6180 N   0  0  2  0  0  0  0  0  0  0  0  0
  184.1530  178.6160  139.1710 C   0  0  0  0  0  0  0  0  0  0  0  0
  188.5340  176.5100  135.7280 C   0  0  0  0  0  2  0  0  0  0  0  0
  183.8290  176.1150  137.0170 C   0  0  0  0  0  1  0  0  0  0  0  0
  189.3400  174.5550  136.7660 O   0  0  0  0  0  0  0  0  0  0  0  0
  186.5260  178.2390  140.1690 C   0  0  0  0  0  0  0  0  0  0  0  0
  190.1210  178.1720  140.6490 C   0  0  0  0  0  2  0  0  0  0  0  0
  192.0550  175.9700  136.7670 C   0  0  0  0  0  3  0  0  0  0  0  0
  192.2670  176.0000  135.2620 C   0  0  0  0  0  1  0  0  0  0  0  0
  193.1570  176.7470  137.4640 C   0  0  0  0  0  1  0  0  0  0  0  0
  185.8230  177.5140  144.7800 C   0  0  0  0  0  2  0  0  0  0  0  0
  185.7350  178.5600  146.9010 C   0  0  0  0  0  1  0  0  0  0  0  0
  186.4270  177.5530  146.1070 N   0  0  0  0  0  0  0  0  0  0  0  0
  187.8470  177.9010  145.9950 C   0  0  0  0  0  2  0  0  0  0  0  0
  188.7420  177.1560  146.9870 C   0  0  0  0  0  1  0  0  0  0  0  0
  2 24  1  1  0  0  0
  2  9  1  0  0  0  0
  2 20  1  0  0  0  0
  3  6  1  0  0  0  0
  5 15  1  0  0  0  0
  5  1  2  0  0  0  0
  6 31  1  1  0  0  0
  7 25  2  0  0  0  0
  7 11  1  0  0  0  0
  9  8  1  6  0  0  0
  9 10  1  0  0  0  0
 10 22  1  0  0  0  0
 10 26  1  1  0  0  0
 11 28  1  1  0  0  0
 11  5  1  0  0  0  0
 12  8  1  0  0  0  0
 14 17  1  1  0  0  0
 14 21  1  0  0  0  0
 15 27  1  0  0  0  0
 16 26  2  0  0  0  0
 16 19  1  0  0  0  0
 17  3  1  0  0  0  0
 19 27  1  6  0  0  0
 19 13  1  0  0  0  0
 20 22  1  0  0  0  0
 21 13  1  6  0  0  0
 21  6  1  0  0  0  0
 22  4  1  0  0  0  0
 22 18  1  0  0  0  0
 23 12  1  0  0  0  0
 23  7  1  0  0  0  0
 26 14  1  0  0  0  0
 28 30  1  0  0  0  0
 29 28  1  0  0  0  0
 31 33  1  0  0  0  0
 33 32  1  0  0  0  0
 34 33  1  0  0  0  0
 34 35  1  0  0  0  0
M  END
>  <MODEL>
8

>  <REMARK>
 VINA RESULT:      -6.4      2.845      8.005
  Name = 
  4 active torsions:
  status: ('A' for Active; 'I' for Inactive)
    1  A    between atoms: C_4  and  N_20
    2  A    between atoms: C_7  and  C_14
    3  A    between atoms: C_8  and  C_26
    4  A    between atoms: N_20  and  C_26
                            x       y       z     vdW  Elec       q    Type
                         _______ _______ _______ _____ _____    ______ ____

>  <TORSDO>
F 4

$$$$
=
 OpenBabel11062413433D

 35 38  0  0  1  0  0  0  0  0999 V2000
  190.2770  176.0090  139.4040 O   0  0  0  0  0  0  0  0  0  0  0  0
  185.2430  174.8170  135.0820 C   0  0  2  0  0  3  0  0  0  0  0  0
  183.6300  179.6000  139.5530 C   0  0  0  0  0  2  0  0  0  0  0  0
  183.4520  177.6440  135.6740 F   0  0  0  0  0  0  0  0  0  0  0  0
  190.4260  176.5930  138.2950 C   0  0  0  0  0  0  0  0  0  0  0  0
  184.5320  179.0490  140.6520 C   0  0  2  0  0  3  0  0  0  0  0  0
  190.4050  174.6670  136.7070 C   0  0  0  0  0  0  0  0  0  0  0  0
  187.5780  175.6210  135.4740 C   0  0  0  0  0  2  0  0  0  0  0  0
  186.1930  175.4500  136.0790 C   0  0  1  0  0  3  0  0  0  0  0  0
  185.5620  176.7800  136.3510 C   0  0  1  0  0  3  0  0  0  0  0  0
  191.1240  175.9090  137.1620 C   0  0  2  0  0  3  0  0  0  0  0  0
  188.3010  174.3630  135.5450 N   0  0  0  0  0  2  0  0  0  0  0  0
  186.7430  178.7700  139.9620 C   0  0  0  0  0  2  0  0  0  0  0  0
  184.9110  177.7960  138.7240 C   0  0  2  0  0  3  0  0  0  0  0  0
  189.9160  177.9130  138.0970 N   0  0  0  0  0  2  0  0  0  0  0  0
  187.2060  177.4550  137.9640 N   0  0  0  0  0  0  0  0  0  0  0  0
  184.1670  179.0280  138.2680 C   0  0  0  0  0  2  0  0  0  0  0  0
  183.4560  175.9900  137.2170 F   0  0  0  0  0  0  0  0  0  0  0  0
  187.7350  177.8740  139.2430 C   0  0  1  0  0  3  0  0  0  0  0  0
  184.0200  175.5230  135.0730 O   0  0  0  0  0  0  0  0  0  0  0  0
  185.4550  178.0830  140.0620 N   0  0  2  0  0  0  0  0  0  0  0  0
  184.0910  176.4910  136.0920 C   0  0  0  0  0  0  0  0  0  0  0  0
  189.7150  174.6620  135.3780 C   0  0  0  0  0  2  0  0  0  0  0  0
  184.9970  173.3660  135.4470 C   0  0  0  0  0  1  0  0  0  0  0  0
  190.3750  173.6680  137.4100 O   0  0  0  0  0  0  0  0  0  0  0  0
  185.9470  177.3260  137.7130 C   0  0  0  0  0  0  0  0  0  0  0  0
  189.0640  178.6010  139.0620 C   0  0  0  0  0  2  0  0  0  0  0  0
  192.6310  175.7380  137.4070 C   0  0  0  0  0  3  0  0  0  0  0  0
  193.4650  175.8710  136.1420 C   0  0  0  0  0  1  0  0  0  0  0  0
  193.1250  176.7120  138.4600 C   0  0  0  0  0  1  0  0  0  0  0  0
  183.6970  178.3710  141.7290 C   0  0  0  0  0  2  0  0  0  0  0  0
  185.0910  178.3760  143.6420 C   0  0  0  0  0  1  0  0  0  0  0  0
  183.9290  179.0020  143.0240 N   0  0  0  0  0  0  0  0  0  0  0  0
  182.7530  178.8180  143.8820 C   0  0  0  0  0  2  0  0  0  0  0  0
  181.4290  179.1360  143.1860 C   0  0  0  0  0  1  0  0  0  0  0  0
  2 24  1  1  0  0  0
  2  9  1  0  0  0  0
  3  6  1  0  0  0  0
  4 22  1  0  0  0  0
  5  1  2  0  0  0  0
  6 31  1  1  0  0  0
  7 11  1  0  0  0  0
  7 25  2  0  0  0  0
  8 12  1  0  0  0  0
  9  8  1  6  0  0  0
  9 10  1  0  0  0  0
 10 26  1  1  0  0  0
 11 28  1  1  0  0  0
 11  5  1  0  0  0  0
 14 17  1  6  0  0  0
 14 21  1  0  0  0  0
 15  5  1  0  0  0  0
 15 27  1  0  0  0  0
 16 19  1  0  0  0  0
 17  3  1  0  0  0  0
 19 27  1  6  0  0  0
 19 13  1  0  0  0  0
 20  2  1  0  0  0  0
 20 22  1  0  0  0  0
 21 13  1  6  0  0  0
 21  6  1  0  0  0  0
 22 10  1  0  0  0  0
 22 18  1  0  0  0  0
 23 12  1  0  0  0  0
 23  7  1  0  0  0  0
 26 16  2  0  0  0  0
 26 14  1  0  0  0  0
 28 30  1  0  0  0  0
 29 28  1  0  0  0  0
 31 33  1  0  0  0  0
 33 32  1  0  0  0  0
 33 34  1  0  0  0  0
 35 34  1  0  0  0  0
M  END
>  <MODEL>
9

>  <REMARK>
 VINA RESULT:      -6.3      3.328      8.675
  Name = 
  4 active torsions:
  status: ('A' for Active; 'I' for Inactive)
    1  A    between atoms: C_4  and  N_20
    2  A    between atoms: C_7  and  C_14
    3  A    between atoms: C_8  and  C_26
    4  A    between atoms: N_20  and  C_26
                            x       y       z     vdW  Elec       q    Type
                         _______ _______ _______ _____ _____    ______ ____

>  <TORSDO>
F 4

$$$$
