=
 OpenBabel11062412213D

 43 48  0  0  1  0  0  0  0  0999 V2000
  189.2990  178.3400  139.5620 C   0  0  0  0  0  3  0  0  0  0  0  0
  188.1140  178.8600  137.3940 C   0  0  0  0  0  2  0  0  0  0  0  0
  190.0650  174.0540  136.8680 C   0  0  0  0  0  3  0  0  0  0  0  0
  190.5990  174.6740  137.8900 N   0  0  0  0  0  0  0  0  0  0  0  0
  187.6170  174.8260  136.7480 C   0  0  0  0  0  2  0  0  0  0  0  0
  186.7010  178.2280  137.3480 C   0  0  1  0  0  3  0  0  0  0  0  0
  188.9330  174.5430  135.9910 C   0  0  1  0  0  3  0  0  0  0  0  0
  186.7030  176.8490  137.6340 O   0  0  0  0  0  0  0  0  0  0  0  0
  190.2650  175.9650  138.4210 C   0  0  0  0  0  0  0  0  0  0  0  0
  190.0560  177.4460  140.3410 C   0  0  0  0  0  0  0  0  0  0  0  0
  186.9510  176.1730  136.4320 C   0  0  0  0  0  2  0  0  0  0  0  0
  190.5160  176.2490  139.7700 C   0  0  0  0  0  3  0  0  0  0  0  0
  189.5980  176.9090  137.6510 C   0  0  0  0  0  3  0  0  0  0  0  0
  189.0810  178.0690  138.2110 C   0  0  0  0  0  0  0  0  0  0  0  0
  190.7150  175.3270  134.5970 O   0  0  0  0  0  1  0  0  0  0  0  0
  189.3890  175.5700  134.9570 C   0  0  0  0  0  2  0  0  0  0  0  0
  190.3010  177.7010  141.7270 N   0  0  0  0  0  2  0  0  0  0  0  0
  190.9330  176.7000  144.0100 C   0  0  1  0  0  0  0  0  0  0  0  0
  190.5390  175.7650  142.9620 N   0  0  0  0  0  2  0  0  0  0  0  0
  191.7920  177.8550  143.5990 C   0  0  2  0  0  3  0  0  0  0  0  0
  191.8220  175.9620  144.7880 O   0  0  0  0  0  1  0  0  0  0  0  0
  191.0150  179.1410  143.8760 C   0  0  0  0  0  1  0  0  0  0  0  0
  191.2680  176.9410  142.5170 C   0  0  1  0  0  0  0  0  0  0  0  0
  185.8410  178.9030  138.3070 N   0  0  0  0  0  2  0  0  0  0  0  0
  184.6950  178.0420  138.5550 C   0  0  0  0  0  2  0  0  0  0  0  0
  183.8110  178.6480  139.6380 C   0  0  2  0  0  3  0  0  0  0  0  0
  184.0270  177.9480  140.9770 C   0  0  0  0  0  2  0  0  0  0  0  0
  185.1380  178.5870  141.8020 C   0  0  0  0  0  2  0  0  0  0  0  0
  184.5460  179.3990  142.9410 C   0  0  0  0  0  2  0  0  0  0  0  0
  182.7110  178.6810  144.3090 O   0  0  0  0  0  1  0  0  0  0  0  0
  184.0720  178.4910  144.0660 C   0  0  2  0  0  3  0  0  0  0  0  0
  184.8600  178.7610  145.3030 C   0  0  0  0  0  0  0  0  0  0  0  0
  184.2720  178.9100  146.4100 O   0  0  0  0  0  0  0  0  0  0  0  0
  186.2470  178.8890  145.2090 O   0  0  0  0  0  0  0  0  0  0  0  0
  188.3520  178.0410  146.1850 C   0  0  0  0  0  2  0  0  0  0  0  0
  187.2350  177.1300  146.7050 C   0  0  0  0  0  2  0  0  0  0  0  0
  187.3550  176.9350  144.1900 N   0  0  0  0  0  1  0  0  0  0  0  0
  187.1280  177.7810  145.3500 C   0  0  0  0  0  0  0  0  0  0  0  0
  182.3370  178.6150  139.2450 C   0  0  0  0  0  2  0  0  0  0  0  0
  180.0110  178.4920  140.1080 C   0  0  0  0  0  2  0  0  0  0  0  0
  180.5140  177.0670  140.2270 C   0  0  2  0  0  3  0  0  0  0  0  0
  181.4670  178.2490  140.4460 C   0  0  1  0  0  3  0  0  0  0  0  0
  180.5810  176.4340  138.8430 C   0  0  0  0  0  1  0  0  0  0  0  0
  1 10  1  0  0  0  0
  2 14  1  0  0  0  0
  3  4  2  0  0  0  0
  4  9  1  0  0  0  0
  6  2  1  0  0  0  0
  6  8  1  0  0  0  0
  6 24  1  1  0  0  0
  7 16  1  1  0  0  0
  7  5  1  0  0  0  0
  7  3  1  0  0  0  0
  9 12  1  0  0  0  0
 10 17  1  0  0  0  0
 11  5  1  0  0  0  0
 11  8  1  0  0  0  0
 12 10  2  0  0  0  0
 13 14  1  0  0  0  0
 13  9  2  0  0  0  0
 14  1  2  0  0  0  0
 15 16  1  0  0  0  0
 18 21  1  1  0  0  0
 19 18  1  0  0  0  0
 20 22  1  6  0  0  0
 20 18  1  0  0  0  0
 23 17  1  6  0  0  0
 23 19  1  0  0  0  0
 23 20  1  0  0  0  0
 23 18  1  0  0  0  0
 24 25  1  0  0  0  0
 26 25  1  6  0  0  0
 26 27  1  0  0  0  0
 27 28  1  0  0  0  0
 28 29  1  0  0  0  0
 29 31  1  0  0  0  0
 31 30  1  1  0  0  0
 31 32  1  0  0  0  0
 32 33  2  0  0  0  0
 34 32  1  0  0  0  0
 34 38  1  0  0  0  0
 35 36  1  0  0  0  0
 37 38  1  0  0  0  0
 38 35  1  0  0  0  0
 38 36  1  0  0  0  0
 39 26  1  0  0  0  0
 40 41  1  0  0  0  0
 40 42  1  0  0  0  0
 41 43  1  6  0  0  0
 41 42  1  0  0  0  0
 42 39  1  6  0  0  0
M  END
>  <MODEL>
1

>  <REMARK>
 VINA RESULT:      -7.6      0.000      0.000
  Name = 
  15 active torsions:
  status: ('A' for Active; 'I' for Inactive)
    1  A    between atoms: C_2  and  C_34
    2  A    between atoms: C_2  and  C_37
    3  A    between atoms: C_3  and  C_24
    4  A    between atoms: C_3  and  C_37
    5  A    between atoms: C_6  and  C_14
    6  A    between atoms: C_6  and  C_34
    7  A    between atoms: N_12  and  C_30
    8  A    between atoms: N_12  and  C_38
    9  A    between atoms: N_13  and  C_19
   10  A    between atoms: N_13  and  C_21
   11  A    between atoms: C_14  and  C_26
   12  A    between atoms: C_20  and  C_33
   13  A    between atoms: C_21  and  C_37
   14  A    between atoms: O_22  and  C_26
   15  A    between atoms: O_22  and  C_43
                            x       y       z     vdW  Elec       q    Type
                         _______ _______ _______ _____ _____    ______ ____

>  <TORSDO>
F 15

$$$$
=
 OpenBabel11062412213D

 43 48  0  0  1  0  0  0  0  0999 V2000
  184.7940  178.3300  142.6540 C   0  0  0  0  0  3  0  0  0  0  0  0
  184.3710  177.5140  140.3020 C   0  0  0  0  0  2  0  0  0  0  0  0
  180.0430  180.0220  141.7720 C   0  0  0  0  0  3  0  0  0  0  0  0
  180.8110  179.7590  142.7990 N   0  0  0  0  0  0  0  0  0  0  0  0
  181.6110  180.5260  139.8000 C   0  0  0  0  0  2  0  0  0  0  0  0
  184.5950  178.6360  139.2580 C   0  0  1  0  0  3  0  0  0  0  0  0
  180.3560  179.7850  140.3110 C   0  0  1  0  0  3  0  0  0  0  0  0
  183.8780  179.8130  139.5480 O   0  0  0  0  0  0  0  0  0  0  0  0
  182.1210  179.1720  142.8030 C   0  0  0  0  0  0  0  0  0  0  0  0
  184.3350  179.0070  143.7980 C   0  0  0  0  0  0  0  0  0  0  0  0
  182.5990  179.6710  138.9940 C   0  0  0  0  0  2  0  0  0  0  0  0
  183.0030  179.4450  143.8560 C   0  0  0  0  0  3  0  0  0  0  0  0
  182.5750  178.4200  141.7270 C   0  0  0  0  0  3  0  0  0  0  0  0
  183.9030  178.0310  141.6220 C   0  0  0  0  0  0  0  0  0  0  0  0
  179.1310  177.7510  140.6170 O   0  0  0  0  0  1  0  0  0  0  0  0
  180.1790  178.3260  139.8980 C   0  0  0  0  0  2  0  0  0  0  0  0
  185.2240  179.3210  144.8750 N   0  0  0  0  0  2  0  0  0  0  0  0
  186.6240  178.5430  146.8860 C   0  0  1  0  0  0  0  0  0  0  0  0
  185.5730  179.5200  147.1480 N   0  0  0  0  0  2  0  0  0  0  0  0
  186.3070  177.4510  145.9140 C   0  0  2  0  0  3  0  0  0  0  0  0
  186.7110  177.8290  148.0800 O   0  0  0  0  0  1  0  0  0  0  0  0
  187.2630  177.5820  144.7290 C   0  0  0  0  0  1  0  0  0  0  0  0
  185.2840  178.5430  146.1110 C   0  0  1  0  0  0  0  0  0  0  0  0
  186.0120  178.9560  139.1930 N   0  0  0  0  0  2  0  0  0  0  0  0
  186.6700  177.8960  138.4450 C   0  0  0  0  0  2  0  0  0  0  0  0
  188.0700  177.6590  138.9980 C   0  0  2  0  0  3  0  0  0  0  0  0
  188.2570  178.3660  140.3390 C   0  0  0  0  0  2  0  0  0  0  0  0
  188.6740  177.4130  141.4530 C   0  0  0  0  0  2  0  0  0  0  0  0
  190.1250  177.6540  141.8340 C   0  0  0  0  0  2  0  0  0  0  0  0
  190.8260  179.2190  143.5120 O   0  0  0  0  0  1  0  0  0  0  0  0
  190.2520  177.9610  143.3190 C   0  0  2  0  0  3  0  0  0  0  0  0
  191.0740  176.9120  143.9870 C   0  0  0  0  0  0  0  0  0  0  0  0
  191.1570  175.7560  143.4860 O   0  0  0  0  0  0  0  0  0  0  0  0
  191.7120  177.2150  145.1910 O   0  0  0  0  0  0  0  0  0  0  0  0
  190.8210  177.4870  147.4800 C   0  0  0  0  0  2  0  0  0  0  0  0
  189.9160  176.4680  146.7800 C   0  0  0  0  0  2  0  0  0  0  0  0
  192.2580  175.5360  146.9120 N   0  0  0  0  0  1  0  0  0  0  0  0
  191.3740  176.5770  146.4170 C   0  0  0  0  0  0  0  0  0  0  0  0
  189.1480  178.0890  138.0080 C   0  0  0  0  0  2  0  0  0  0  0  0
  189.8660  175.7260  137.7460 C   0  0  0  0  0  2  0  0  0  0  0  0
  190.6950  176.4700  136.7180 C   0  0  2  0  0  3  0  0  0  0  0  0
  190.3370  177.1320  138.0540 C   0  0  1  0  0  3  0  0  0  0  0  0
  189.8100  176.8700  135.5440 C   0  0  0  0  0  1  0  0  0  0  0  0
  1 10  1  0  0  0  0
  2 14  1  0  0  0  0
  3  4  2  0  0  0  0
  4  9  1  0  0  0  0
  5  7  1  0  0  0  0
  6 24  1  1  0  0  0
  6  8  1  0  0  0  0
  6  2  1  0  0  0  0
  7 16  1  1  0  0  0
  7  3  1  0  0  0  0
  9 12  1  0  0  0  0
 10 12  2  0  0  0  0
 10 17  1  0  0  0  0
 11  8  1  0  0  0  0
 11  5  1  0  0  0  0
 13  9  2  0  0  0  0
 14 13  1  0  0  0  0
 14  1  2  0  0  0  0
 16 15  1  0  0  0  0
 18 19  1  0  0  0  0
 18 21  1  1  0  0  0
 20 22  1  6  0  0  0
 20 23  1  0  0  0  0
 20 18  1  0  0  0  0
 23 17  1  6  0  0  0
 23 18  1  0  0  0  0
 23 19  1  0  0  0  0
 25 26  1  0  0  0  0
 25 24  1  0  0  0  0
 26 39  1  6  0  0  0
 26 27  1  0  0  0  0
 27 28  1  0  0  0  0
 28 29  1  0  0  0  0
 29 31  1  0  0  0  0
 31 30  1  6  0  0  0
 31 32  1  0  0  0  0
 32 34  1  0  0  0  0
 33 32  2  0  0  0  0
 34 38  1  0  0  0  0
 36 35  1  0  0  0  0
 38 36  1  0  0  0  0
 38 37  1  0  0  0  0
 38 35  1  0  0  0  0
 40 42  1  0  0  0  0
 41 43  1  6  0  0  0
 41 40  1  0  0  0  0
 41 42  1  0  0  0  0
 42 39  1  6  0  0  0
M  END
>  <MODEL>
2

>  <REMARK>
 VINA RESULT:      -7.5      2.678      7.449
  Name = 
  15 active torsions:
  status: ('A' for Active; 'I' for Inactive)
    1  A    between atoms: C_2  and  C_34
    2  A    between atoms: C_2  and  C_37
    3  A    between atoms: C_3  and  C_24
    4  A    between atoms: C_3  and  C_37
    5  A    between atoms: C_6  and  C_14
    6  A    between atoms: C_6  and  C_34
    7  A    between atoms: N_12  and  C_30
    8  A    between atoms: N_12  and  C_38
    9  A    between atoms: N_13  and  C_19
   10  A    between atoms: N_13  and  C_21
   11  A    between atoms: C_14  and  C_26
   12  A    between atoms: C_20  and  C_33
   13  A    between atoms: C_21  and  C_37
   14  A    between atoms: O_22  and  C_26
   15  A    between atoms: O_22  and  C_43
                            x       y       z     vdW  Elec       q    Type
                         _______ _______ _______ _____ _____    ______ ____

>  <TORSDO>
F 15

$$$$
=
 OpenBabel11062412213D

 43 48  0  0  1  0  0  0  0  0999 V2000
  186.1890  178.3830  138.4050 C   0  0  0  0  0  3  0  0  0  0  0  0
  183.9950  179.3670  139.1750 C   0  0  0  0  0  2  0  0  0  0  0  0
  182.8250  174.8530  136.8430 C   0  0  0  0  0  3  0  0  0  0  0  0
  184.0460  175.2310  136.5610 N   0  0  0  0  0  0  0  0  0  0  0  0
  182.3790  175.5830  139.2660 C   0  0  0  0  0  2  0  0  0  0  0  0
  183.5200  178.7350  140.5060 C   0  0  1  0  0  3  0  0  0  0  0  0
  181.8650  175.5090  137.8110 C   0  0  1  0  0  3  0  0  0  0  0  0
  183.4860  177.3270  140.4680 O   0  0  0  0  0  0  0  0  0  0  0  0
  184.7720  176.3570  137.0780 C   0  0  0  0  0  0  0  0  0  0  0  0
  186.8870  177.3480  137.7570 C   0  0  0  0  0  0  0  0  0  0  0  0
  182.2400  176.9530  139.9450 C   0  0  0  0  0  2  0  0  0  0  0  0
  186.1710  176.3260  137.1150 C   0  0  0  0  0  3  0  0  0  0  0  0
  184.1100  177.4400  137.6430 C   0  0  0  0  0  3  0  0  0  0  0  0
  184.7960  178.4280  138.3360 C   0  0  0  0  0  0  0  0  0  0  0  0
  180.5500  176.4390  136.0400 O   0  0  0  0  0  1  0  0  0  0  0  0
  181.2030  176.7560  137.2320 C   0  0  0  0  0  2  0  0  0  0  0  0
  188.3160  177.2800  137.8040 N   0  0  0  0  0  2  0  0  0  0  0  0
  190.4430  177.4430  139.2390 C   0  0  1  0  0  0  0  0  0  0  0  0
  189.2180  177.9980  139.8040 N   0  0  0  0  0  2  0  0  0  0  0  0
  190.3200  176.1550  138.4880 C   0  0  2  0  0  3  0  0  0  0  0  0
  191.1640  177.0370  140.3600 O   0  0  0  0  0  1  0  0  0  0  0  0
  190.7370  176.4110  137.0410 C   0  0  0  0  0  1  0  0  0  0  0  0
  189.0520  176.8140  138.9770 C   0  0  1  0  0  0  0  0  0  0  0  0
  184.4060  179.1520  141.5800 N   0  0  0  0  0  2  0  0  0  0  0  0
  184.1410  178.3000  142.7280 C   0  0  0  0  0  2  0  0  0  0  0  0
  183.2870  179.0460  143.7460 C   0  0  2  0  0  3  0  0  0  0  0  0
  183.8470  178.8810  145.1570 C   0  0  0  0  0  2  0  0  0  0  0  0
  185.3180  179.2700  145.2550 C   0  0  0  0  0  2  0  0  0  0  0  0
  186.1330  178.1070  145.7950 C   0  0  0  0  0  2  0  0  0  0  0  0
  187.3350  177.3460  143.8630 O   0  0  0  0  0  1  0  0  0  0  0  0
  187.4750  178.0080  145.0840 C   0  0  2  0  0  3  0  0  0  0  0  0
  188.4570  177.2940  145.9490 C   0  0  0  0  0  0  0  0  0  0  0  0
  188.3580  177.3540  147.2060 O   0  0  0  0  0  0  0  0  0  0  0  0
  189.5080  176.5980  145.3480 O   0  0  0  0  0  0  0  0  0  0  0  0
  191.4840  176.9500  143.9070 C   0  0  0  0  0  2  0  0  0  0  0  0
  191.0260  178.3390  144.3630 C   0  0  0  0  0  2  0  0  0  0  0  0
  191.7090  176.9910  146.3860 N   0  0  0  0  0  1  0  0  0  0  0  0
  190.8210  177.1340  145.2460 C   0  0  0  0  0  0  0  0  0  0  0  0
  181.8280  178.6020  143.6920 C   0  0  0  0  0  2  0  0  0  0  0  0
  179.8810  178.8090  142.1640 C   0  0  0  0  0  2  0  0  0  0  0  0
  179.5500  179.7570  143.3000 C   0  0  2  0  0  3  0  0  0  0  0  0
  181.0020  179.5670  142.8440 C   0  0  1  0  0  3  0  0  0  0  0  0
  179.1510  178.9550  144.5320 C   0  0  0  0  0  1  0  0  0  0  0  0
  2  6  1  0  0  0  0
  3  7  1  0  0  0  0
  4  3  2  0  0  0  0
  4  9  1  0  0  0  0
  5 11  1  0  0  0  0
  6 24  1  1  0  0  0
  7 16  1  6  0  0  0
  7  5  1  0  0  0  0
  8  6  1  0  0  0  0
  9 12  2  0  0  0  0
  9 13  1  0  0  0  0
 10 17  1  0  0  0  0
 10  1  2  0  0  0  0
 11  8  1  0  0  0  0
 12 10  1  0  0  0  0
 13 14  2  0  0  0  0
 14  1  1  0  0  0  0
 14  2  1  0  0  0  0
 15 16  1  0  0  0  0
 18 19  1  0  0  0  0
 18 21  1  1  0  0  0
 20 22  1  6  0  0  0
 20 23  1  0  0  0  0
 20 18  1  0  0  0  0
 23 17  1  6  0  0  0
 23 18  1  0  0  0  0
 23 19  1  0  0  0  0
 24 25  1  0  0  0  0
 26 25  1  6  0  0  0
 26 27  1  0  0  0  0
 27 28  1  0  0  0  0
 28 29  1  0  0  0  0
 31 30  1  6  0  0  0
 31 29  1  0  0  0  0
 31 32  1  0  0  0  0
 32 33  2  0  0  0  0
 34 32  1  0  0  0  0
 35 36  1  0  0  0  0
 35 38  1  0  0  0  0
 36 38  1  0  0  0  0
 38 34  1  0  0  0  0
 38 37  1  0  0  0  0
 39 26  1  0  0  0  0
 40 42  1  0  0  0  0
 40 41  1  0  0  0  0
 41 43  1  1  0  0  0
 42 41  1  0  0  0  0
 42 39  1  1  0  0  0
M  END
>  <MODEL>
3

>  <REMARK>
 VINA RESULT:      -7.5      2.475      5.113
  Name = 
  15 active torsions:
  status: ('A' for Active; 'I' for Inactive)
    1  A    between atoms: C_2  and  C_34
    2  A    between atoms: C_2  and  C_37
    3  A    between atoms: C_3  and  C_24
    4  A    between atoms: C_3  and  C_37
    5  A    between atoms: C_6  and  C_14
    6  A    between atoms: C_6  and  C_34
    7  A    between atoms: N_12  and  C_30
    8  A    between atoms: N_12  and  C_38
    9  A    between atoms: N_13  and  C_19
   10  A    between atoms: N_13  and  C_21
   11  A    between atoms: C_14  and  C_26
   12  A    between atoms: C_20  and  C_33
   13  A    between atoms: C_21  and  C_37
   14  A    between atoms: O_22  and  C_26
   15  A    between atoms: O_22  and  C_43
                            x       y       z     vdW  Elec       q    Type
                         _______ _______ _______ _____ _____    ______ ____

>  <TORSDO>
F 15

$$$$
=
 OpenBabel11062412213D

 43 48  0  0  1  0  0  0  0  0999 V2000
  185.9310  178.1900  137.7980 C   0  0  0  0  0  3  0  0  0  0  0  0
  184.1890  179.4870  139.0860 C   0  0  0  0  0  2  0  0  0  0  0  0
  181.7890  175.2240  137.2840 C   0  0  0  0  0  3  0  0  0  0  0  0
  182.9350  175.4150  136.6800 N   0  0  0  0  0  0  0  0  0  0  0  0
  182.1130  175.9900  139.7150 C   0  0  0  0  0  2  0  0  0  0  0  0
  183.9940  178.9210  140.5140 C   0  0  1  0  0  3  0  0  0  0  0  0
  181.2280  176.0080  138.4500 C   0  0  1  0  0  3  0  0  0  0  0  0
  183.7430  177.5350  140.5310 O   0  0  0  0  0  0  0  0  0  0  0  0
  183.9290  176.4140  136.9540 C   0  0  0  0  0  0  0  0  0  0  0  0
  186.2720  177.0680  137.0220 C   0  0  0  0  0  0  0  0  0  0  0  0
  182.3630  177.3590  140.3650 C   0  0  0  0  0  2  0  0  0  0  0  0
  185.2690  176.1710  136.6230 C   0  0  0  0  0  3  0  0  0  0  0  0
  183.6090  177.5790  137.6390 C   0  0  0  0  0  3  0  0  0  0  0  0
  184.5920  178.4460  138.0960 C   0  0  0  0  0  0  0  0  0  0  0  0
  179.4200  177.5600  138.6930 O   0  0  0  0  0  1  0  0  0  0  0  0
  180.6280  177.3470  138.0260 C   0  0  0  0  0  2  0  0  0  0  0  0
  187.6360  176.7840  136.6950 N   0  0  0  0  0  2  0  0  0  0  0  0
  190.1800  176.8620  137.0550 C   0  0  1  0  0  0  0  0  0  0  0  0
  189.4800  178.1400  136.9870 N   0  0  0  0  0  2  0  0  0  0  0  0
  189.5000  175.7560  137.7990 C   0  0  2  0  0  3  0  0  0  0  0  0
  191.2630  177.1280  137.8920 O   0  0  0  0  0  1  0  0  0  0  0  0
  189.2240  174.6250  136.8110 C   0  0  0  0  0  1  0  0  0  0  0  0
  188.7460  177.0500  137.6070 C   0  0  1  0  0  0  0  0  0  0  0  0
  185.1850  179.1890  141.3050 N   0  0  0  0  0  2  0  0  0  0  0  0
  185.1220  178.3560  142.4950 C   0  0  0  0  0  2  0  0  0  0  0  0
  186.4990  178.2630  143.1410 C   0  0  2  0  0  3  0  0  0  0  0  0
  187.3480  177.1850  142.4700 C   0  0  0  0  0  2  0  0  0  0  0  0
  188.2400  176.4410  143.4580 C   0  0  0  0  0  2  0  0  0  0  0  0
  189.6000  176.1730  142.8360 C   0  0  0  0  0  2  0  0  0  0  0  0
  191.3670  177.6940  142.2730 O   0  0  0  0  0  1  0  0  0  0  0  0
  190.6330  177.1710  143.3390 C   0  0  2  0  0  3  0  0  0  0  0  0
  191.5430  176.5120  144.3180 C   0  0  0  0  0  0  0  0  0  0  0  0
  191.9510  175.3350  144.1130 O   0  0  0  0  0  0  0  0  0  0  0  0
  191.9000  177.1990  145.4800 O   0  0  0  0  0  0  0  0  0  0  0  0
  189.9570  177.8020  146.8840 C   0  0  0  0  0  2  0  0  0  0  0  0
  189.9050  176.2820  146.6990 C   0  0  0  0  0  2  0  0  0  0  0  0
  192.0280  176.8910  147.9230 N   0  0  0  0  0  1  0  0  0  0  0  0
  191.2250  177.0080  146.7180 C   0  0  0  0  0  0  0  0  0  0  0  0
  186.4010  178.0130  144.6430 C   0  0  0  0  0  2  0  0  0  0  0  0
  184.5080  178.2930  146.2260 C   0  0  0  0  0  2  0  0  0  0  0  0
  185.6020  179.1600  146.8170 C   0  0  2  0  0  3  0  0  0  0  0  0
  185.4560  179.0200  145.2970 C   0  0  1  0  0  3  0  0  0  0  0  0
  186.6700  178.2740  147.4460 C   0  0  0  0  0  1  0  0  0  0  0  0
  1 14  1  0  0  0  0
  2  6  1  0  0  0  0
  3  7  1  0  0  0  0
  4  9  1  0  0  0  0
  4  3  2  0  0  0  0
  5 11  1  0  0  0  0
  6  8  1  0  0  0  0
  6 24  1  1  0  0  0
  7 16  1  6  0  0  0
  7  5  1  0  0  0  0
  9 13  1  0  0  0  0
 10  1  2  0  0  0  0
 11  8  1  0  0  0  0
 12  9  2  0  0  0  0
 12 10  1  0  0  0  0
 13 14  2  0  0  0  0
 14  2  1  0  0  0  0
 16 15  1  0  0  0  0
 17 10  1  0  0  0  0
 18 23  1  0  0  0  0
 18 20  1  0  0  0  0
 18 21  1  1  0  0  0
 19 18  1  0  0  0  0
 19 23  1  0  0  0  0
 20 22  1  6  0  0  0
 23 17  1  6  0  0  0
 23 20  1  0  0  0  0
 24 25  1  0  0  0  0
 25 26  1  0  0  0  0
 26 27  1  6  0  0  0
 26 39  1  0  0  0  0
 27 28  1  0  0  0  0
 29 31  1  0  0  0  0
 29 28  1  0  0  0  0
 31 30  1  6  0  0  0
 31 32  1  0  0  0  0
 32 34  1  0  0  0  0
 33 32  2  0  0  0  0
 34 38  1  0  0  0  0
 36 38  1  0  0  0  0
 36 35  1  0  0  0  0
 38 35  1  0  0  0  0
 38 37  1  0  0  0  0
 40 41  1  0  0  0  0
 41 43  1  1  0  0  0
 42 39  1  1  0  0  0
 42 40  1  0  0  0  0
 42 41  1  0  0  0  0
M  END
>  <MODEL>
4

>  <REMARK>
 VINA RESULT:      -7.4      2.570      6.585
  Name = 
  15 active torsions:
  status: ('A' for Active; 'I' for Inactive)
    1  A    between atoms: C_2  and  C_34
    2  A    between atoms: C_2  and  C_37
    3  A    between atoms: C_3  and  C_24
    4  A    between atoms: C_3  and  C_37
    5  A    between atoms: C_6  and  C_14
    6  A    between atoms: C_6  and  C_34
    7  A    between atoms: N_12  and  C_30
    8  A    between atoms: N_12  and  C_38
    9  A    between atoms: N_13  and  C_19
   10  A    between atoms: N_13  and  C_21
   11  A    between atoms: C_14  and  C_26
   12  A    between atoms: C_20  and  C_33
   13  A    between atoms: C_21  and  C_37
   14  A    between atoms: O_22  and  C_26
   15  A    between atoms: O_22  and  C_43
                            x       y       z     vdW  Elec       q    Type
                         _______ _______ _______ _____ _____    ______ ____

>  <TORSDO>
F 15

$$$$
=
 OpenBabel11062412213D

 43 48  0  0  1  0  0  0  0  0999 V2000
  184.4790  177.4730  138.3340 C   0  0  0  0  0  3  0  0  0  0  0  0
  184.4540  179.2690  140.1100 C   0  0  0  0  0  2  0  0  0  0  0  0
  179.4990  178.6310  138.6170 C   0  0  0  0  0  3  0  0  0  0  0  0
  180.3260  178.0760  137.7680 N   0  0  0  0  0  0  0  0  0  0  0  0
  180.5370  178.3260  140.9480 C   0  0  0  0  0  2  0  0  0  0  0  0
  184.0490  178.7010  141.4920 C   0  0  1  0  0  3  0  0  0  0  0  0
  179.8440  179.2720  139.9440 C   0  0  1  0  0  3  0  0  0  0  0  0
  182.8450  177.9710  141.4590 O   0  0  0  0  0  0  0  0  0  0  0  0
  181.7530  177.9500  137.8680 C   0  0  0  0  0  0  0  0  0  0  0  0
  183.7760  176.6770  137.4120 C   0  0  0  0  0  0  0  0  0  0  0  0
  181.7970  178.8870  141.6230 C   0  0  0  0  0  2  0  0  0  0  0  0
  182.4080  176.9070  137.2000 C   0  0  0  0  0  3  0  0  0  0  0  0
  182.4920  178.7800  138.7010 C   0  0  0  0  0  3  0  0  0  0  0  0
  183.8310  178.5320  138.9710 C   0  0  0  0  0  0  0  0  0  0  0  0
  179.7290  181.5680  140.6150 O   0  0  0  0  0  1  0  0  0  0  0  0
  180.4180  180.6790  139.7880 C   0  0  0  0  0  2  0  0  0  0  0  0
  184.4170  175.5890  136.7380 N   0  0  0  0  0  2  0  0  0  0  0  0
  186.4130  174.3020  135.7540 C   0  0  1  0  0  0  0  0  0  0  0  0
  186.0870  175.5880  135.1460 N   0  0  0  0  0  2  0  0  0  0  0  0
  186.3140  174.2140  137.2450 C   0  0  2  0  0  3  0  0  0  0  0  0
  187.7890  174.1910  135.5650 O   0  0  0  0  0  1  0  0  0  0  0  0
  185.2420  173.1800  137.5850 C   0  0  0  0  0  1  0  0  0  0  0  0
  185.8660  175.4930  136.5790 C   0  0  1  0  0  0  0  0  0  0  0  0
  185.1070  177.8340  141.9850 N   0  0  0  0  0  2  0  0  0  0  0  0
  186.2450  178.6740  142.3230 C   0  0  0  0  0  2  0  0  0  0  0  0
  187.0690  178.0180  143.4250 C   0  0  2  0  0  3  0  0  0  0  0  0
  187.8710  176.8380  142.8810 C   0  0  0  0  0  2  0  0  0  0  0  0
  189.1060  176.5290  143.7200 C   0  0  0  0  0  2  0  0  0  0  0  0
  190.2210  175.9980  142.8360 C   0  0  0  0  0  2  0  0  0  0  0  0
  190.9940  178.2140  143.3320 O   0  0  0  0  0  1  0  0  0  0  0  0
  191.2660  177.0730  142.5750 C   0  0  2  0  0  3  0  0  0  0  0  0
  191.2950  177.4120  141.1240 C   0  0  0  0  0  0  0  0  0  0  0  0
  192.3960  177.6290  140.5440 O   0  0  0  0  0  0  0  0  0  0  0  0
  190.0890  177.5270  140.4310 O   0  0  0  0  0  0  0  0  0  0  0  0
  188.4800  177.0320  138.6220 C   0  0  0  0  0  2  0  0  0  0  0  0
  189.5850  177.8890  137.9970 C   0  0  0  0  0  2  0  0  0  0  0  0
  190.5890  175.7250  138.8240 N   0  0  0  0  0  1  0  0  0  0  0  0
  189.8900  176.9580  139.1420 C   0  0  0  0  0  0  0  0  0  0  0  0
  186.1970  177.5810  144.5970 C   0  0  0  0  0  2  0  0  0  0  0  0
  184.7660  178.3330  146.4830 C   0  0  0  0  0  2  0  0  0  0  0  0
  186.0910  179.0210  146.7410 C   0  0  2  0  0  3  0  0  0  0  0  0
  185.5990  178.7950  145.3060 C   0  0  1  0  0  3  0  0  0  0  0  0
  187.1050  178.0000  147.2420 C   0  0  0  0  0  1  0  0  0  0  0  0
  1 14  1  0  0  0  0
  2  6  1  0  0  0  0
  3  7  1  0  0  0  0
  4  9  1  0  0  0  0
  4  3  2  0  0  0  0
  5 11  1  0  0  0  0
  6 24  1  6  0  0  0
  7 16  1  6  0  0  0
  7  5  1  0  0  0  0
  8  6  1  0  0  0  0
  8 11  1  0  0  0  0
  9 13  1  0  0  0  0
 10  1  2  0  0  0  0
 12 10  1  0  0  0  0
 12  9  2  0  0  0  0
 13 14  2  0  0  0  0
 14  2  1  0  0  0  0
 16 15  1  0  0  0  0
 17 10  1  0  0  0  0
 18 21  1  1  0  0  0
 18 23  1  0  0  0  0
 18 20  1  0  0  0  0
 19 18  1  0  0  0  0
 19 23  1  0  0  0  0
 20 22  1  6  0  0  0
 23 17  1  6  0  0  0
 23 20  1  0  0  0  0
 24 25  1  0  0  0  0
 26 25  1  6  0  0  0
 26 39  1  0  0  0  0
 27 26  1  0  0  0  0
 27 28  1  0  0  0  0
 29 28  1  0  0  0  0
 31 29  1  0  0  0  0
 31 30  1  1  0  0  0
 32 31  1  0  0  0  0
 33 32  2  0  0  0  0
 34 32  1  0  0  0  0
 35 38  1  0  0  0  0
 36 35  1  0  0  0  0
 36 38  1  0  0  0  0
 37 38  1  0  0  0  0
 38 34  1  0  0  0  0
 40 41  1  0  0  0  0
 41 43  1  6  0  0  0
 42 39  1  6  0  0  0
 42 40  1  0  0  0  0
 42 41  1  0  0  0  0
M  END
>  <MODEL>
5

>  <REMARK>
 VINA RESULT:      -7.1      2.433      8.166
  Name = 
  15 active torsions:
  status: ('A' for Active; 'I' for Inactive)
    1  A    between atoms: C_2  and  C_34
    2  A    between atoms: C_2  and  C_37
    3  A    between atoms: C_3  and  C_24
    4  A    between atoms: C_3  and  C_37
    5  A    between atoms: C_6  and  C_14
    6  A    between atoms: C_6  and  C_34
    7  A    between atoms: N_12  and  C_30
    8  A    between atoms: N_12  and  C_38
    9  A    between atoms: N_13  and  C_19
   10  A    between atoms: N_13  and  C_21
   11  A    between atoms: C_14  and  C_26
   12  A    between atoms: C_20  and  C_33
   13  A    between atoms: C_21  and  C_37
   14  A    between atoms: O_22  and  C_26
   15  A    between atoms: O_22  and  C_43
                            x       y       z     vdW  Elec       q    Type
                         _______ _______ _______ _____ _____    ______ ____

>  <TORSDO>
F 15

$$$$
=
 OpenBabel11062412213D

 43 48  0  0  1  0  0  0  0  0999 V2000
  184.5440  177.2440  137.8060 C   0  0  0  0  0  3  0  0  0  0  0  0
  184.3360  179.2830  139.2810 C   0  0  0  0  0  2  0  0  0  0  0  0
  179.4820  177.5400  138.5160 C   0  0  0  0  0  3  0  0  0  0  0  0
  180.3190  177.0020  137.6660 N   0  0  0  0  0  0  0  0  0  0  0  0
  180.7690  177.8220  140.7230 C   0  0  0  0  0  2  0  0  0  0  0  0
  184.1770  178.8960  140.7720 C   0  0  1  0  0  3  0  0  0  0  0  0
  179.8170  178.4480  139.6800 C   0  0  1  0  0  3  0  0  0  0  0  0
  183.1380  177.9720  140.9960 O   0  0  0  0  0  0  0  0  0  0  0  0
  181.7470  177.1480  137.6090 C   0  0  0  0  0  0  0  0  0  0  0  0
  183.9270  176.1920  137.1050 C   0  0  0  0  0  0  0  0  0  0  0  0
  181.9520  178.7030  141.1470 C   0  0  0  0  0  2  0  0  0  0  0  0
  182.5260  176.1380  137.0300 C   0  0  0  0  0  3  0  0  0  0  0  0
  182.3850  178.2240  138.2120 C   0  0  0  0  0  3  0  0  0  0  0  0
  183.7650  178.2650  138.3500 C   0  0  0  0  0  0  0  0  0  0  0  0
  179.3070  180.2060  138.1370 O   0  0  0  0  0  1  0  0  0  0  0  0
  180.0910  179.8860  139.2460 C   0  0  0  0  0  2  0  0  0  0  0  0
  184.7010  175.1350  136.5300 N   0  0  0  0  0  2  0  0  0  0  0  0
  186.8180  173.7240  136.1600 C   0  0  1  0  0  0  0  0  0  0  0  0
  186.8520  175.1060  135.6940 N   0  0  0  0  0  2  0  0  0  0  0  0
  186.1440  173.4680  137.4720 C   0  0  2  0  0  3  0  0  0  0  0  0
  188.1480  173.4550  136.4790 O   0  0  0  0  0  1  0  0  0  0  0  0
  184.9480  172.5530  137.2160 C   0  0  0  0  0  1  0  0  0  0  0  0
  186.0870  174.8670  136.9070 C   0  0  1  0  0  0  0  0  0  0  0  0
  185.4230  178.3260  141.2570 N   0  0  0  0  0  2  0  0  0  0  0  0
  185.2620  178.0540  142.6770 C   0  0  0  0  0  2  0  0  0  0  0  0
  186.6150  178.1060  143.3750 C   0  0  2  0  0  3  0  0  0  0  0  0
  187.5960  177.1200  142.7460 C   0  0  0  0  0  2  0  0  0  0  0  0
  188.7980  177.8100  142.1110 C   0  0  0  0  0  2  0  0  0  0  0  0
  190.0880  177.2100  142.6430 C   0  0  0  0  0  2  0  0  0  0  0  0
  190.2070  178.7200  144.5030 O   0  0  0  0  0  1  0  0  0  0  0  0
  190.1780  177.3690  144.1540 C   0  0  2  0  0  3  0  0  0  0  0  0
  191.3960  176.6780  144.6660 C   0  0  0  0  0  0  0  0  0  0  0  0
  191.9040  175.7220  144.0170 O   0  0  0  0  0  0  0  0  0  0  0  0
  191.9340  177.0740  145.8920 O   0  0  0  0  0  0  0  0  0  0  0  0
  191.8210  175.0650  147.3250 C   0  0  0  0  0  2  0  0  0  0  0  0
  192.5580  176.1350  148.1350 C   0  0  0  0  0  2  0  0  0  0  0  0
  190.2130  176.9360  147.6510 N   0  0  0  0  0  1  0  0  0  0  0  0
  191.5040  176.5230  147.1300 C   0  0  0  0  0  0  0  0  0  0  0  0
  186.4860  177.8530  144.8740 C   0  0  0  0  0  2  0  0  0  0  0  0
  184.7430  178.2900  146.5880 C   0  0  0  0  0  2  0  0  0  0  0  0
  185.8980  179.1720  147.0170 C   0  0  2  0  0  3  0  0  0  0  0  0
  185.6180  178.9250  145.5290 C   0  0  1  0  0  3  0  0  0  0  0  0
  187.0020  178.3110  147.6170 C   0  0  0  0  0  1  0  0  0  0  0  0
  1 14  1  0  0  0  0
  2  6  1  0  0  0  0
  3  7  1  0  0  0  0
  4  3  2  0  0  0  0
  5 11  1  0  0  0  0
  6  8  1  0  0  0  0
  6 24  1  6  0  0  0
  7 16  1  6  0  0  0
  7  5  1  0  0  0  0
  8 11  1  0  0  0  0
  9  4  1  0  0  0  0
  9 13  1  0  0  0  0
 10  1  2  0  0  0  0
 12 10  1  0  0  0  0
 12  9  2  0  0  0  0
 13 14  2  0  0  0  0
 14  2  1  0  0  0  0
 15 16  1  0  0  0  0
 17 10  1  0  0  0  0
 18 21  1  1  0  0  0
 18 23  1  0  0  0  0
 18 20  1  0  0  0  0
 19 18  1  0  0  0  0
 19 23  1  0  0  0  0
 20 22  1  6  0  0  0
 23 17  1  6  0  0  0
 23 20  1  0  0  0  0
 24 25  1  0  0  0  0
 26 25  1  6  0  0  0
 26 39  1  0  0  0  0
 27 26  1  0  0  0  0
 28 29  1  0  0  0  0
 28 27  1  0  0  0  0
 29 31  1  0  0  0  0
 31 30  1  6  0  0  0
 31 32  1  0  0  0  0
 32 34  1  0  0  0  0
 33 32  2  0  0  0  0
 34 38  1  0  0  0  0
 35 36  1  0  0  0  0
 38 35  1  0  0  0  0
 38 37  1  0  0  0  0
 38 36  1  0  0  0  0
 40 41  1  0  0  0  0
 41 43  1  1  0  0  0
 42 39  1  1  0  0  0
 42 40  1  0  0  0  0
 42 41  1  0  0  0  0
M  END
>  <MODEL>
6

>  <REMARK>
 VINA RESULT:      -7.0      2.801      7.685
  Name = 
  15 active torsions:
  status: ('A' for Active; 'I' for Inactive)
    1  A    between atoms: C_2  and  C_34
    2  A    between atoms: C_2  and  C_37
    3  A    between atoms: C_3  and  C_24
    4  A    between atoms: C_3  and  C_37
    5  A    between atoms: C_6  and  C_14
    6  A    between atoms: C_6  and  C_34
    7  A    between atoms: N_12  and  C_30
    8  A    between atoms: N_12  and  C_38
    9  A    between atoms: N_13  and  C_19
   10  A    between atoms: N_13  and  C_21
   11  A    between atoms: C_14  and  C_26
   12  A    between atoms: C_20  and  C_33
   13  A    between atoms: C_21  and  C_37
   14  A    between atoms: O_22  and  C_26
   15  A    between atoms: O_22  and  C_43
                            x       y       z     vdW  Elec       q    Type
                         _______ _______ _______ _____ _____    ______ ____

>  <TORSDO>
F 15

$$$$
=
 OpenBabel11062412213D

 43 48  0  0  1  0  0  0  0  0999 V2000
  185.9550  177.8540  137.7630 C   0  0  0  0  0  3  0  0  0  0  0  0
  184.2390  179.3770  138.8180 C   0  0  0  0  0  2  0  0  0  0  0  0
  181.6420  175.1470  137.2230 C   0  0  0  0  0  3  0  0  0  0  0  0
  182.8330  175.2040  136.6830 N   0  0  0  0  0  0  0  0  0  0  0  0
  181.8730  176.1020  139.5970 C   0  0  0  0  0  2  0  0  0  0  0  0
  183.9150  178.9550  140.2720 C   0  0  1  0  0  3  0  0  0  0  0  0
  181.0700  176.0680  138.2780 C   0  0  1  0  0  3  0  0  0  0  0  0
  183.5610  177.5970  140.3880 O   0  0  0  0  0  0  0  0  0  0  0  0
  183.8810  176.1520  136.9380 C   0  0  0  0  0  0  0  0  0  0  0  0
  186.2580  176.6460  137.1090 C   0  0  0  0  0  0  0  0  0  0  0  0
  182.1840  177.5020  140.1450 C   0  0  0  0  0  2  0  0  0  0  0  0
  185.2160  175.7900  136.7200 C   0  0  0  0  0  3  0  0  0  0  0  0
  183.6080  177.3930  137.5000 C   0  0  0  0  0  3  0  0  0  0  0  0
  184.6220  178.2270  137.9470 C   0  0  0  0  0  0  0  0  0  0  0  0
  179.3120  177.6890  138.1600 O   0  0  0  0  0  1  0  0  0  0  0  0
  180.5990  177.4020  137.7040 C   0  0  0  0  0  2  0  0  0  0  0  0
  187.6140  176.2410  136.8990 N   0  0  0  0  0  2  0  0  0  0  0  0
  189.5060  174.8840  135.8090 C   0  0  1  0  0  0  0  0  0  0  0  0
  188.6340  174.1770  136.7410 N   0  0  0  0  0  2  0  0  0  0  0  0
  188.8550  175.8630  134.8830 C   0  0  2  0  0  3  0  0  0  0  0  0
  189.9050  173.8900  134.9180 O   0  0  0  0  0  1  0  0  0  0  0  0
  189.4200  177.2480  135.1900 C   0  0  0  0  0  1  0  0  0  0  0  0
  187.9970  175.2090  135.9400 C   0  0  1  0  0  0  0  0  0  0  0  0
  185.0720  179.2100  141.1150 N   0  0  0  0  0  2  0  0  0  0  0  0
  184.6380  179.1180  142.5000 C   0  0  0  0  0  2  0  0  0  0  0  0
  185.8140  178.7400  143.3930 C   0  0  2  0  0  3  0  0  0  0  0  0
  186.8240  177.8820  142.6350 C   0  0  0  0  0  2  0  0  0  0  0  0
  188.1220  177.6790  143.4090 C   0  0  0  0  0  2  0  0  0  0  0  0
  188.6170  176.2530  143.2390 C   0  0  0  0  0  2  0  0  0  0  0  0
  190.3570  176.7750  144.8050 O   0  0  0  0  0  1  0  0  0  0  0  0
  190.0940  176.1460  143.5870 C   0  0  2  0  0  3  0  0  0  0  0  0
  190.9170  176.7560  142.5030 C   0  0  0  0  0  0  0  0  0  0  0  0
  191.6760  177.7320  142.7560 O   0  0  0  0  0  0  0  0  0  0  0  0
  190.8010  176.2590  141.2040 O   0  0  0  0  0  0  0  0  0  0  0  0
  190.4510  176.6120  138.7840 C   0  0  0  0  0  2  0  0  0  0  0  0
  190.0690  177.9250  139.4740 C   0  0  0  0  0  2  0  0  0  0  0  0
  192.5140  177.4550  139.8940 N   0  0  0  0  0  1  0  0  0  0  0  0
  191.1330  177.0320  140.0570 C   0  0  0  0  0  0  0  0  0  0  0  0
  185.3530  178.0330  144.6630 C   0  0  0  0  0  2  0  0  0  0  0  0
  184.9300  178.2590  147.1000 C   0  0  0  0  0  2  0  0  0  0  0  0
  186.3670  178.7150  146.9400 C   0  0  2  0  0  3  0  0  0  0  0  0
  185.3340  179.0010  145.8440 C   0  0  1  0  0  3  0  0  0  0  0  0
  187.2590  177.5070  146.6850 C   0  0  0  0  0  1  0  0  0  0  0  0
  1 14  1  0  0  0  0
  2  6  1  0  0  0  0
  3  7  1  0  0  0  0
  4  9  1  0  0  0  0
  4  3  2  0  0  0  0
  5 11  1  0  0  0  0
  6  8  1  0  0  0  0
  6 24  1  1  0  0  0
  7 16  1  6  0  0  0
  7  5  1  0  0  0  0
  9 13  1  0  0  0  0
 10  1  2  0  0  0  0
 11  8  1  0  0  0  0
 12  9  2  0  0  0  0
 12 10  1  0  0  0  0
 13 14  2  0  0  0  0
 14  2  1  0  0  0  0
 16 15  1  0  0  0  0
 17 10  1  0  0  0  0
 18 21  1  6  0  0  0
 18 23  1  0  0  0  0
 18 19  1  0  0  0  0
 20 22  1  1  0  0  0
 20 18  1  0  0  0  0
 20 23  1  0  0  0  0
 23 19  1  0  0  0  0
 23 17  1  1  0  0  0
 24 25  1  0  0  0  0
 26 25  1  6  0  0  0
 26 39  1  0  0  0  0
 27 26  1  0  0  0  0
 27 28  1  0  0  0  0
 29 28  1  0  0  0  0
 29 31  1  0  0  0  0
 31 30  1  1  0  0  0
 32 33  2  0  0  0  0
 32 31  1  0  0  0  0
 34 32  1  0  0  0  0
 35 36  1  0  0  0  0
 35 38  1  0  0  0  0
 36 38  1  0  0  0  0
 37 38  1  0  0  0  0
 38 34  1  0  0  0  0
 41 43  1  6  0  0  0
 41 40  1  0  0  0  0
 42 39  1  6  0  0  0
 42 41  1  0  0  0  0
 42 40  1  0  0  0  0
M  END
>  <MODEL>
7

>  <REMARK>
 VINA RESULT:      -6.9      2.252      7.071
  Name = 
  15 active torsions:
  status: ('A' for Active; 'I' for Inactive)
    1  A    between atoms: C_2  and  C_34
    2  A    between atoms: C_2  and  C_37
    3  A    between atoms: C_3  and  C_24
    4  A    between atoms: C_3  and  C_37
    5  A    between atoms: C_6  and  C_14
    6  A    between atoms: C_6  and  C_34
    7  A    between atoms: N_12  and  C_30
    8  A    between atoms: N_12  and  C_38
    9  A    between atoms: N_13  and  C_19
   10  A    between atoms: N_13  and  C_21
   11  A    between atoms: C_14  and  C_26
   12  A    between atoms: C_20  and  C_33
   13  A    between atoms: C_21  and  C_37
   14  A    between atoms: O_22  and  C_26
   15  A    between atoms: O_22  and  C_43
                            x       y       z     vdW  Elec       q    Type
                         _______ _______ _______ _____ _____    ______ ____

>  <TORSDO>
F 15

$$$$
=
 OpenBabel11062412213D

 43 48  0  0  1  0  0  0  0  0999 V2000
  184.9480  177.8060  138.1220 C   0  0  0  0  0  3  0  0  0  0  0  0
  184.3800  179.4090  139.9890 C   0  0  0  0  0  2  0  0  0  0  0  0
  179.8970  178.3920  137.5280 C   0  0  0  0  0  3  0  0  0  0  0  0
  180.9270  178.0130  136.8150 N   0  0  0  0  0  0  0  0  0  0  0  0
  180.5220  177.9760  139.9860 C   0  0  0  0  0  2  0  0  0  0  0  0
  183.8020  178.6710  141.2210 C   0  0  1  0  0  3  0  0  0  0  0  0
  179.9130  178.9360  138.9400 C   0  0  1  0  0  3  0  0  0  0  0  0
  182.7230  177.8230  140.9030 O   0  0  0  0  0  0  0  0  0  0  0  0
  182.3160  178.0310  137.1780 C   0  0  0  0  0  0  0  0  0  0  0  0
  184.5290  177.0320  137.0250 C   0  0  0  0  0  0  0  0  0  0  0  0
  181.5580  178.6010  140.9300 C   0  0  0  0  0  2  0  0  0  0  0  0
  183.2050  177.1330  136.5720 C   0  0  0  0  0  3  0  0  0  0  0  0
  182.7830  178.8510  138.1970 C   0  0  0  0  0  3  0  0  0  0  0  0
  184.0700  178.7230  138.7000 C   0  0  0  0  0  0  0  0  0  0  0  0
  179.9280  181.0620  137.8400 O   0  0  0  0  0  1  0  0  0  0  0  0
  180.3270  180.4040  139.0040 C   0  0  0  0  0  2  0  0  0  0  0  0
  185.4100  176.0890  136.4090 N   0  0  0  0  0  2  0  0  0  0  0  0
  187.5530  174.6820  136.2050 C   0  0  1  0  0  0  0  0  0  0  0  0
  187.7050  176.1320  136.1600 N   0  0  0  0  0  2  0  0  0  0  0  0
  186.5630  174.1350  137.1860 C   0  0  2  0  0  3  0  0  0  0  0  0
  188.7550  174.2460  136.7590 O   0  0  0  0  0  1  0  0  0  0  0  0
  185.4760  173.4060  136.3990 C   0  0  0  0  0  1  0  0  0  0  0  0
  186.6520  175.6340  137.0300 C   0  0  1  0  0  0  0  0  0  0  0  0
  184.8510  177.8780  141.8430 N   0  0  0  0  0  2  0  0  0  0  0  0
  185.9720  178.7640  142.1150 C   0  0  0  0  0  2  0  0  0  0  0  0
  187.2680  177.9640  142.1730 C   0  0  2  0  0  3  0  0  0  0  0  0
  187.8160  177.9120  143.5970 C   0  0  0  0  0  2  0  0  0  0  0  0
  186.7150  177.8540  144.6490 C   0  0  0  0  0  2  0  0  0  0  0  0
  187.0590  176.8250  145.7130 C   0  0  0  0  0  2  0  0  0  0  0  0
  186.7900  178.7970  147.0520 O   0  0  0  0  0  1  0  0  0  0  0  0
  187.2890  177.4930  147.0600 C   0  0  2  0  0  3  0  0  0  0  0  0
  188.7450  177.5010  147.3820 C   0  0  0  0  0  0  0  0  0  0  0  0
  189.2210  178.3810  148.1520 O   0  0  0  0  0  0  0  0  0  0  0  0
  189.5750  176.5500  146.7850 O   0  0  0  0  0  0  0  0  0  0  0  0
  191.0430  176.5110  144.7980 C   0  0  0  0  0  2  0  0  0  0  0  0
  190.9190  177.9790  145.2170 C   0  0  0  0  0  2  0  0  0  0  0  0
  192.0200  176.6800  147.0820 N   0  0  0  0  0  1  0  0  0  0  0  0
  190.8490  176.8790  146.2440 C   0  0  0  0  0  0  0  0  0  0  0  0
  188.3160  178.5190  141.2130 C   0  0  0  0  0  2  0  0  0  0  0  0
  189.0500  178.6240  138.8430 C   0  0  0  0  0  2  0  0  0  0  0  0
  189.4340  177.2230  139.2770 C   0  0  2  0  0  3  0  0  0  0  0  0
  188.1680  177.8900  139.8300 C   0  0  1  0  0  3  0  0  0  0  0  0
  190.6490  177.2880  140.1930 C   0  0  0  0  0  1  0  0  0  0  0  0
  1 14  1  0  0  0  0
  2  6  1  0  0  0  0
  3  7  1  0  0  0  0
  4  9  1  0  0  0  0
  4  3  2  0  0  0  0
  5 11  1  0  0  0  0
  6 24  1  6  0  0  0
  7 16  1  6  0  0  0
  7  5  1  0  0  0  0
  8 11  1  0  0  0  0
  8  6  1  0  0  0  0
  9 13  1  0  0  0  0
 10  1  2  0  0  0  0
 12 10  1  0  0  0  0
 12  9  2  0  0  0  0
 13 14  2  0  0  0  0
 14  2  1  0  0  0  0
 15 16  1  0  0  0  0
 17 10  1  0  0  0  0
 18 21  1  1  0  0  0
 18 23  1  0  0  0  0
 18 20  1  0  0  0  0
 19 18  1  0  0  0  0
 19 23  1  0  0  0  0
 20 22  1  6  0  0  0
 23 17  1  6  0  0  0
 23 20  1  0  0  0  0
 24 25  1  0  0  0  0
 25 26  1  0  0  0  0
 26 39  1  6  0  0  0
 26 27  1  0  0  0  0
 27 28  1  0  0  0  0
 28 29  1  0  0  0  0
 29 31  1  0  0  0  0
 31 30  1  6  0  0  0
 31 32  1  0  0  0  0
 32 33  2  0  0  0  0
 34 32  1  0  0  0  0
 35 36  1  0  0  0  0
 35 38  1  0  0  0  0
 36 38  1  0  0  0  0
 38 34  1  0  0  0  0
 38 37  1  0  0  0  0
 40 41  1  0  0  0  0
 40 42  1  0  0  0  0
 41 42  1  0  0  0  0
 41 43  1  1  0  0  0
 42 39  1  1  0  0  0
M  END
>  <MODEL>
8

>  <REMARK>
 VINA RESULT:      -6.9      2.483      7.230
  Name = 
  15 active torsions:
  status: ('A' for Active; 'I' for Inactive)
    1  A    between atoms: C_2  and  C_34
    2  A    between atoms: C_2  and  C_37
    3  A    between atoms: C_3  and  C_24
    4  A    between atoms: C_3  and  C_37
    5  A    between atoms: C_6  and  C_14
    6  A    between atoms: C_6  and  C_34
    7  A    between atoms: N_12  and  C_30
    8  A    between atoms: N_12  and  C_38
    9  A    between atoms: N_13  and  C_19
   10  A    between atoms: N_13  and  C_21
   11  A    between atoms: C_14  and  C_26
   12  A    between atoms: C_20  and  C_33
   13  A    between atoms: C_21  and  C_37
   14  A    between atoms: O_22  and  C_26
   15  A    between atoms: O_22  and  C_43
                            x       y       z     vdW  Elec       q    Type
                         _______ _______ _______ _____ _____    ______ ____

>  <TORSDO>
F 15

$$$$
=
 OpenBabel11062412213D

 43 48  0  0  1  0  0  0  0  0999 V2000
  184.5180  177.4840  138.1010 C   0  0  0  0  0  3  0  0  0  0  0  0
  184.2290  179.4180  139.6990 C   0  0  0  0  0  2  0  0  0  0  0  0
  179.4660  178.2900  137.9020 C   0  0  0  0  0  3  0  0  0  0  0  0
  180.3950  177.7280  137.1710 N   0  0  0  0  0  0  0  0  0  0  0  0
  180.3290  178.2620  140.3230 C   0  0  0  0  0  2  0  0  0  0  0  0
  183.7510  178.9410  141.0930 C   0  0  1  0  0  3  0  0  0  0  0  0
  179.6580  179.0660  139.1870 C   0  0  1  0  0  3  0  0  0  0  0  0
  182.6050  178.1240  141.0360 O   0  0  0  0  0  0  0  0  0  0  0  0
  181.8140  177.7160  137.3890 C   0  0  0  0  0  0  0  0  0  0  0  0
  183.9490  176.5630  137.2040 C   0  0  0  0  0  0  0  0  0  0  0  0
  181.4880  178.9700  141.0370 C   0  0  0  0  0  2  0  0  0  0  0  0
  182.5890  176.6720  136.8700 C   0  0  0  0  0  3  0  0  0  0  0  0
  182.4250  178.6670  138.1970 C   0  0  0  0  0  3  0  0  0  0  0  0
  183.7510  178.5430  138.5880 C   0  0  0  0  0  0  0  0  0  0  0  0
  179.7730  180.9160  137.6730 O   0  0  0  0  0  1  0  0  0  0  0  0
  180.1460  180.4920  138.9490 C   0  0  0  0  0  2  0  0  0  0  0  0
  184.7130  175.4730  136.6820 N   0  0  0  0  0  2  0  0  0  0  0  0
  186.8220  174.0250  136.4210 C   0  0  1  0  0  0  0  0  0  0  0  0
  186.9570  175.4500  136.1410 N   0  0  0  0  0  2  0  0  0  0  0  0
  185.9680  173.6420  137.5890 C   0  0  2  0  0  3  0  0  0  0  0  0
  188.0880  173.6610  136.8770 O   0  0  0  0  0  1  0  0  0  0  0  0
  184.7950  172.8180  137.0650 C   0  0  0  0  0  1  0  0  0  0  0  0
  186.0270  175.1000  137.2020 C   0  0  1  0  0  0  0  0  0  0  0  0
  184.8210  178.2000  141.7410 N   0  0  0  0  0  2  0  0  0  0  0  0
  186.0360  178.9930  141.6320 C   0  0  0  0  0  2  0  0  0  0  0  0
  187.2510  178.0770  141.5400 C   0  0  2  0  0  3  0  0  0  0  0  0
  187.8740  177.8540  142.9160 C   0  0  0  0  0  2  0  0  0  0  0  0
  188.1030  176.3790  143.2260 C   0  0  0  0  0  2  0  0  0  0  0  0
  189.5600  176.1370  143.5790 C   0  0  0  0  0  2  0  0  0  0  0  0
  191.4680  177.3910  142.8420 O   0  0  0  0  0  1  0  0  0  0  0  0
  190.3280  177.4490  143.6460 C   0  0  2  0  0  3  0  0  0  0  0  0
  190.7070  177.7450  145.0570 C   0  0  0  0  0  0  0  0  0  0  0  0
  191.8720  177.4880  145.4690 O   0  0  0  0  0  0  0  0  0  0  0  0
  189.7430  178.2680  145.9220 O   0  0  0  0  0  0  0  0  0  0  0  0
  188.4370  178.2610  148.0190 C   0  0  0  0  0  2  0  0  0  0  0  0
  187.5970  177.5090  146.9820 C   0  0  0  0  0  2  0  0  0  0  0  0
  189.7600  176.2610  147.3530 N   0  0  0  0  0  1  0  0  0  0  0  0
  189.1030  177.4800  146.9180 C   0  0  0  0  0  0  0  0  0  0  0  0
  188.2890  178.6150  140.5600 C   0  0  0  0  0  2  0  0  0  0  0  0
  189.0700  178.6330  138.2030 C   0  0  0  0  0  2  0  0  0  0  0  0
  189.1920  177.1790  138.6110 C   0  0  2  0  0  3  0  0  0  0  0  0
  188.0550  178.0480  139.1610 C   0  0  1  0  0  3  0  0  0  0  0  0
  190.3840  177.0100  139.5440 C   0  0  0  0  0  1  0  0  0  0  0  0
  1 14  1  0  0  0  0
  2  6  1  0  0  0  0
  3  7  1  0  0  0  0
  4  9  1  0  0  0  0
  4  3  2  0  0  0  0
  5 11  1  0  0  0  0
  6 24  1  6  0  0  0
  7 16  1  6  0  0  0
  7  5  1  0  0  0  0
  8 11  1  0  0  0  0
  8  6  1  0  0  0  0
  9 13  1  0  0  0  0
 10  1  2  0  0  0  0
 12 10  1  0  0  0  0
 12  9  2  0  0  0  0
 13 14  2  0  0  0  0
 14  2  1  0  0  0  0
 15 16  1  0  0  0  0
 17 10  1  0  0  0  0
 18 21  1  1  0  0  0
 18 23  1  0  0  0  0
 18 20  1  0  0  0  0
 19 18  1  0  0  0  0
 19 23  1  0  0  0  0
 20 22  1  6  0  0  0
 23 17  1  6  0  0  0
 23 20  1  0  0  0  0
 25 24  1  0  0  0  0
 26 39  1  6  0  0  0
 26 25  1  0  0  0  0
 26 27  1  0  0  0  0
 27 28  1  0  0  0  0
 28 29  1  0  0  0  0
 29 31  1  0  0  0  0
 31 30  1  6  0  0  0
 31 32  1  0  0  0  0
 32 33  2  0  0  0  0
 32 34  1  0  0  0  0
 34 38  1  0  0  0  0
 36 35  1  0  0  0  0
 38 36  1  0  0  0  0
 38 37  1  0  0  0  0
 38 35  1  0  0  0  0
 40 41  1  0  0  0  0
 40 42  1  0  0  0  0
 41 42  1  0  0  0  0
 41 43  1  1  0  0  0
 42 39  1  1  0  0  0
M  END
>  <MODEL>
9

>  <REMARK>
 VINA RESULT:      -6.9      2.586      7.518
  Name = 
  15 active torsions:
  status: ('A' for Active; 'I' for Inactive)
    1  A    between atoms: C_2  and  C_34
    2  A    between atoms: C_2  and  C_37
    3  A    between atoms: C_3  and  C_24
    4  A    between atoms: C_3  and  C_37
    5  A    between atoms: C_6  and  C_14
    6  A    between atoms: C_6  and  C_34
    7  A    between atoms: N_12  and  C_30
    8  A    between atoms: N_12  and  C_38
    9  A    between atoms: N_13  and  C_19
   10  A    between atoms: N_13  and  C_21
   11  A    between atoms: C_14  and  C_26
   12  A    between atoms: C_20  and  C_33
   13  A    between atoms: C_21  and  C_37
   14  A    between atoms: O_22  and  C_26
   15  A    between atoms: O_22  and  C_43
                            x       y       z     vdW  Elec       q    Type
                         _______ _______ _______ _____ _____    ______ ____

>  <TORSDO>
F 15

$$$$
