=
 OpenBabel11062412233D

 43 49  0  0  1  0  0  0  0  0999 V2000
  189.3320  178.6200  138.3530 N   0  0  0  0  0  0  0  0  0  0  0  0
  187.8300  178.5640  140.0330 C   0  0  0  0  0  0  0  0  0  0  0  0
  180.3780  178.4090  138.4800 O   0  0  0  0  0  0  0  0  0  0  0  0
  183.7610  177.4750  136.7030 C   0  0  0  0  0  2  0  0  0  0  0  0
  185.1210  178.4730  142.4560 C   0  0  2  0  0  0  0  0  0  0  0  0
  181.3930  177.7350  140.4660 N   0  0  0  0  0  2  0  0  0  0  0  0
  180.5010  176.4770  134.8860 C   0  0  1  0  0  3  0  0  0  0  0  0
  185.6120  178.3630  143.8810 C   0  0  0  0  0  2  0  0  0  0  0  0
  179.7490  175.6260  137.9020 C   0  0  0  0  0  2  0  0  0  0  0  0
  187.3300  178.7430  141.4400 C   0  0  1  0  0  3  0  0  0  0  0  0
  189.1770  178.8920  139.6060 C   0  0  0  0  0  3  0  0  0  0  0  0
  179.1540  176.0690  135.5140 C   0  0  2  0  0  3  0  0  0  0  0  0
  180.5570  177.4980  139.3340 C   0  0  0  0  0  0  0  0  0  0  0  0
  188.0920  178.0910  137.8000 C   0  0  1  0  0  3  0  0  0  0  0  0
  185.9330  177.2640  142.8680 C   0  0  2  0  0  3  0  0  0  0  0  0
  185.0750  175.3060  135.6450 S   0  0  0  0  0  0  0  0  0  0  0  0
  187.1910  178.0440  138.9900 C   0  0  0  0  0  0  0  0  0  0  0  0
  185.9310  179.3310  141.4900 C   0  0  0  0  0  2  0  0  0  0  0  0
  179.2560  177.3100  134.6510 C   0  0  0  0  0  2  0  0  0  0  0  0
  182.9160  176.8950  135.5900 C   0  0  2  0  0  3  0  0  0  0  0  0
  182.9150  179.2260  141.5870 C   0  0  0  0  0  3  0  0  0  0  0  0
  185.7560  177.6180  138.9880 C   0  0  0  0  0  2  0  0  0  0  0  0
  183.6860  178.0780  142.1460 C   0  0  0  0  0  2  0  0  0  0  0  0
  181.8630  179.0430  140.7930 C   0  0  0  0  0  3  0  0  0  0  0  0
  187.2960  177.4220  142.1930 C   0  0  2  0  0  3  0  0  0  0  0  0
  185.1270  176.7940  136.6990 C   0  0  2  0  0  3  0  0  0  0  0  0
  187.5680  179.0240  136.8190 N   0  0  0  0  0  1  0  0  0  0  0  0
  179.9640  176.2410  139.1730 O   0  0  0  0  0  0  0  0  0  0  0  0
  178.9310  176.4980  136.9620 C   0  0  0  0  0  2  0  0  0  0  0  0
  181.4400  177.2070  135.8440 C   0  0  0  0  0  2  0  0  0  0  0  0
  185.5120  176.3970  138.1140 C   0  0  0  0  0  2  0  0  0  0  0  0
  183.2740  175.4150  135.4580 C   0  0  2  0  0  3  0  0  0  0  0  0
  189.5640  176.5380  142.7610 C   0  0  0  0  0  3  0  0  0  0  0  0
  188.4360  177.2630  143.1570 C   0  0  0  0  0  0  0  0  0  0  0  0
  189.4200  177.5660  145.3580 C   0  0  0  0  0  3  0  0  0  0  0  0
  190.6200  176.3320  143.6540 C   0  0  0  0  0  3  0  0  0  0  0  0
  188.3630  177.7690  144.4660 C   0  0  0  0  0  3  0  0  0  0  0  0
  190.5520  176.8520  144.9510 C   0  0  0  0  0  0  0  0  0  0  0  0
  191.1600  176.6090  147.2670 N   0  0  0  0  0  1  0  0  0  0  0  0
  191.6690  176.6160  145.9070 C   0  0  0  0  0  2  0  0  0  0  0  0
  182.5980  174.5280  136.4670 C   0  0  0  0  0  0  0  0  0  0  0  0
  182.8240  174.6570  137.7000 O   0  0  0  0  0  1  0  0  0  0  0  0
  181.7040  173.5610  136.0340 O   0  0  0  0  0  0  0  0  0  0  0  0
  1 11  2  0  0  0  0
  2 10  1  0  0  0  0
  3 13  2  0  0  0  0
  5 18  1  6  0  0  0
  5 15  1  0  0  0  0
  5  8  1  0  0  0  0
  6 24  1  0  0  0  0
  7 19  1  6  0  0  0
  7 12  1  0  0  0  0
  7 30  1  0  0  0  0
  9 28  1  0  0  0  0
 10 18  1  6  0  0  0
 10 25  1  0  0  0  0
 11  2  1  0  0  0  0
 12 19  1  6  0  0  0
 12 29  1  0  0  0  0
 13  6  1  0  0  0  0
 14 27  1  6  0  0  0
 14  1  1  0  0  0  0
 14 17  1  0  0  0  0
 15  8  1  1  0  0  0
 16 26  1  0  0  0  0
 17  2  2  0  0  0  0
 20 30  1  1  0  0  0
 20  4  1  0  0  0  0
 21 23  1  0  0  0  0
 22 17  1  0  0  0  0
 23  5  1  0  0  0  0
 24 21  2  0  0  0  0
 25 15  1  0  0  0  0
 25 34  1  1  0  0  0
 26  4  1  1  0  0  0
 26 31  1  0  0  0  0
 28 13  1  0  0  0  0
 29  9  1  0  0  0  0
 31 22  1  0  0  0  0
 32 20  1  0  0  0  0
 32 16  1  0  0  0  0
 32 41  1  1  0  0  0
 33 34  2  0  0  0  0
 33 36  1  0  0  0  0
 34 37  1  0  0  0  0
 36 38  2  0  0  0  0
 37 35  2  0  0  0  0
 38 35  1  0  0  0  0
 38 40  1  0  0  0  0
 40 39  1  0  0  0  0
 41 42  1  0  0  0  0
 43 41  2  0  0  0  0
M  END
>  <MODEL>
1

>  <REMARK>
 VINA RESULT:      -7.2      0.000      0.000
  Name = 
  3 active torsions:
  status: ('A' for Active; 'I' for Inactive)
    1  A    between atoms: C_7  and  C_42
    2  A    between atoms: C_19  and  C_33
    3  A    between atoms: C_34  and  C_39
                            x       y       z     vdW  Elec       q    Type
                         _______ _______ _______ _____ _____    ______ ____

>  <TORSDO>
F 3

$$$$
=
 OpenBabel11062412233D

 43 49  0  0  1  0  0  0  0  0999 V2000
  190.9220  177.6940  138.7710 N   0  0  0  0  0  0  0  0  0  0  0  0
  189.3490  177.8710  140.3760 C   0  0  0  0  0  0  0  0  0  0  0  0
  182.0240  178.6770  138.4590 O   0  0  0  0  0  0  0  0  0  0  0  0
  185.3330  177.2670  136.8630 C   0  0  0  0  0  2  0  0  0  0  0  0
  186.5400  178.1880  142.6640 C   0  0  2  0  0  0  0  0  0  0  0  0
  182.8450  177.9140  140.5010 N   0  0  0  0  0  2  0  0  0  0  0  0
  182.0580  176.6770  134.9000 C   0  0  1  0  0  3  0  0  0  0  0  0
  186.9440  178.0410  144.1120 C   0  0  0  0  0  2  0  0  0  0  0  0
  181.0570  175.9930  137.8860 C   0  0  0  0  0  2  0  0  0  0  0  0
  188.8110  178.1420  141.7540 C   0  0  1  0  0  3  0  0  0  0  0  0
  190.7460  178.0090  140.0120 C   0  0  0  0  0  3  0  0  0  0  0  0
  180.6400  176.4640  135.4660 C   0  0  2  0  0  3  0  0  0  0  0  0
  182.0390  177.7670  139.3320 C   0  0  0  0  0  0  0  0  0  0  0  0
  189.6500  177.3240  138.1650 C   0  0  1  0  0  3  0  0  0  0  0  0
  187.1630  176.8900  143.1300 C   0  0  2  0  0  3  0  0  0  0  0  0
  186.3930  174.9230  135.9000 S   0  0  0  0  0  0  0  0  0  0  0  0
  188.6950  177.4200  139.3100 C   0  0  0  0  0  0  0  0  0  0  0  0
  187.5030  178.9110  141.7270 C   0  0  0  0  0  2  0  0  0  0  0  0
  180.9480  177.6640  134.5940 C   0  0  0  0  0  2  0  0  0  0  0  0
  184.4710  176.7840  135.7170 C   0  0  2  0  0  3  0  0  0  0  0  0
  184.4980  179.2100  141.6770 C   0  0  0  0  0  3  0  0  0  0  0  0
  187.2180  177.1880  139.2420 C   0  0  0  0  0  2  0  0  0  0  0  0
  185.0820  177.9810  142.2880 C   0  0  0  0  0  2  0  0  0  0  0  0
  183.4700  179.1530  140.8340 C   0  0  0  0  0  3  0  0  0  0  0  0
  188.5650  176.8520  142.5220 C   0  0  2  0  0  3  0  0  0  0  0  0
  186.5930  176.4120  136.9350 C   0  0  2  0  0  3  0  0  0  0  0  0
  189.3020  178.2990  137.1480 N   0  0  0  0  0  1  0  0  0  0  0  0
  181.2920  176.5980  139.1590 O   0  0  0  0  0  0  0  0  0  0  0  0
  180.4080  176.9470  136.8960 C   0  0  0  0  0  2  0  0  0  0  0  0
  183.0390  177.2950  135.8940 C   0  0  0  0  0  2  0  0  0  0  0  0
  186.8550  175.9950  138.3730 C   0  0  0  0  0  2  0  0  0  0  0  0
  184.6340  175.2680  135.6230 C   0  0  2  0  0  3  0  0  0  0  0  0
  190.6660  175.6860  143.2110 C   0  0  0  0  0  3  0  0  0  0  0  0
  189.6270  176.5620  143.5430 C   0  0  0  0  0  0  0  0  0  0  0  0
  190.5360  176.7720  145.7860 C   0  0  0  0  0  3  0  0  0  0  0  0
  191.6420  175.3590  144.1580 C   0  0  0  0  0  3  0  0  0  0  0  0
  189.5600  177.0960  144.8410 C   0  0  0  0  0  3  0  0  0  0  0  0
  191.5810  175.9070  145.4440 C   0  0  0  0  0  0  0  0  0  0  0  0
  192.2480  176.1000  147.7490 N   0  0  0  0  0  1  0  0  0  0  0  0
  192.6110  175.5440  146.4570 C   0  0  0  0  0  2  0  0  0  0  0  0
  183.7990  174.4980  136.6080 C   0  0  0  0  0  0  0  0  0  0  0  0
  183.9990  174.5980  137.8490 O   0  0  0  0  0  1  0  0  0  0  0  0
  182.7840  173.6730  136.1460 O   0  0  0  0  0  0  0  0  0  0  0  0
  1 11  2  0  0  0  0
  2 10  1  0  0  0  0
  3 13  2  0  0  0  0
  5 18  1  6  0  0  0
  5 15  1  0  0  0  0
  5  8  1  0  0  0  0
  6 24  1  0  0  0  0
  7 19  1  6  0  0  0
  7 12  1  0  0  0  0
  7 30  1  0  0  0  0
  9 28  1  0  0  0  0
 10 18  1  6  0  0  0
 10 25  1  0  0  0  0
 11  2  1  0  0  0  0
 12 19  1  6  0  0  0
 12 29  1  0  0  0  0
 13  6  1  0  0  0  0
 14 27  1  6  0  0  0
 14  1  1  0  0  0  0
 14 17  1  0  0  0  0
 15  8  1  1  0  0  0
 16 26  1  0  0  0  0
 17  2  2  0  0  0  0
 20 30  1  1  0  0  0
 20  4  1  0  0  0  0
 21 23  1  0  0  0  0
 22 17  1  0  0  0  0
 23  5  1  0  0  0  0
 24 21  2  0  0  0  0
 25 15  1  0  0  0  0
 25 34  1  1  0  0  0
 26  4  1  1  0  0  0
 26 31  1  0  0  0  0
 28 13  1  0  0  0  0
 29  9  1  0  0  0  0
 31 22  1  0  0  0  0
 32 20  1  0  0  0  0
 32 16  1  0  0  0  0
 32 41  1  1  0  0  0
 33 34  2  0  0  0  0
 33 36  1  0  0  0  0
 34 37  1  0  0  0  0
 36 38  2  0  0  0  0
 37 35  2  0  0  0  0
 38 35  1  0  0  0  0
 38 40  1  0  0  0  0
 40 39  1  0  0  0  0
 41 42  1  0  0  0  0
 43 41  2  0  0  0  0
M  END
>  <MODEL>
2

>  <REMARK>
 VINA RESULT:      -6.5      1.254      1.524
  Name = 
  3 active torsions:
  status: ('A' for Active; 'I' for Inactive)
    1  A    between atoms: C_7  and  C_42
    2  A    between atoms: C_19  and  C_33
    3  A    between atoms: C_34  and  C_39
                            x       y       z     vdW  Elec       q    Type
                         _______ _______ _______ _____ _____    ______ ____

>  <TORSDO>
F 3

$$$$
=
 OpenBabel11062412233D

 43 49  0  0  1  0  0  0  0  0999 V2000
  190.5740  177.7970  139.8400 N   0  0  0  0  0  0  0  0  0  0  0  0
  190.5010  176.0670  138.3970 C   0  0  0  0  0  0  0  0  0  0  0  0
  183.8500  172.7310  136.7810 O   0  0  0  0  0  0  0  0  0  0  0  0
  185.1400  176.2040  138.1070 C   0  0  0  0  0  2  0  0  0  0  0  0
  189.9820  173.2680  136.1350 C   0  0  2  0  0  0  0  0  0  0  0  0
  185.7850  172.6600  135.4860 N   0  0  0  0  0  2  0  0  0  0  0  0
  181.3700  175.9310  137.3100 C   0  0  1  0  0  3  0  0  0  0  0  0
  191.2460  172.8500  135.4190 C   0  0  0  0  0  2  0  0  0  0  0  0
  182.5990  174.4030  134.7530 C   0  0  0  0  0  2  0  0  0  0  0  0
  191.0460  174.9130  137.6010 C   0  0  1  0  0  3  0  0  0  0  0  0
  191.2950  176.8650  139.3100 C   0  0  0  0  0  3  0  0  0  0  0  0
  180.6920  175.0740  136.2230 C   0  0  2  0  0  3  0  0  0  0  0  0
  184.3960  172.9380  135.6630 C   0  0  0  0  0  0  0  0  0  0  0  0
  189.2070  177.7120  139.3450 C   0  0  1  0  0  3  0  0  0  0  0  0
  190.6830  174.2580  135.2310 C   0  0  2  0  0  3  0  0  0  0  0  0
  185.1440  178.8660  137.4300 S   0  0  0  0  0  0  0  0  0  0  0  0
  189.2760  176.5840  138.3670 C   0  0  0  0  0  0  0  0  0  0  0  0
  190.1040  173.7220  137.5860 C   0  0  0  0  0  2  0  0  0  0  0  0
  180.4000  174.8290  137.6900 C   0  0  0  0  0  2  0  0  0  0  0  0
  183.7070  176.6770  138.0070 C   0  0  2  0  0  3  0  0  0  0  0  0
  187.8690  172.0060  136.5000 C   0  0  0  0  0  3  0  0  0  0  0  0
  188.1270  176.0270  137.5870 C   0  0  0  0  0  2  0  0  0  0  0  0
  188.6410  172.8570  135.5480 C   0  0  0  0  0  2  0  0  0  0  0  0
  186.5400  171.9450  136.4640 C   0  0  0  0  0  3  0  0  0  0  0  0
  191.3070  175.3050  136.1540 C   0  0  2  0  0  3  0  0  0  0  0  0
  186.0720  177.4080  138.0150 C   0  0  2  0  0  3  0  0  0  0  0  0
  188.3210  177.3630  140.4410 N   0  0  0  0  0  1  0  0  0  0  0  0
  183.6620  173.4620  134.5940 O   0  0  0  0  0  0  0  0  0  0  0  0
  181.5090  173.9010  135.6860 C   0  0  0  0  0  2  0  0  0  0  0  0
  182.7980  175.5010  137.6420 C   0  0  0  0  0  2  0  0  0  0  0  0
  187.2080  177.1120  137.0500 C   0  0  0  0  0  2  0  0  0  0  0  0
  183.6780  177.8680  137.0500 C   0  0  2  0  0  3  0  0  0  0  0  0
  193.7220  174.9410  136.6820 C   0  0  0  0  0  3  0  0  0  0  0  0
  192.7610  175.5370  135.8600 C   0  0  0  0  0  0  0  0  0  0  0  0
  194.5290  176.6280  134.6020 C   0  0  0  0  0  3  0  0  0  0  0  0
  195.0830  175.1790  136.4630 C   0  0  0  0  0  3  0  0  0  0  0  0
  193.1700  176.3920  134.8240 C   0  0  0  0  0  3  0  0  0  0  0  0
  195.4880  176.0170  135.4180 C   0  0  0  0  0  0  0  0  0  0  0  0
  197.6800  176.0030  136.4120 N   0  0  0  0  0  1  0  0  0  0  0  0
  196.9360  176.2850  135.1970 C   0  0  0  0  0  2  0  0  0  0  0  0
  183.6810  177.4860  135.5950 C   0  0  0  0  0  0  0  0  0  0  0  0
  184.6620  176.8830  135.0820 O   0  0  0  0  0  1  0  0  0  0  0  0
  182.5810  177.7920  134.8070 O   0  0  0  0  0  0  0  0  0  0  0  0
  2 11  1  0  0  0  0
  5  8  1  6  0  0  0
  5 18  1  0  0  0  0
  6 13  1  0  0  0  0
  6 24  1  0  0  0  0
  7 30  1  1  0  0  0
  7 19  1  0  0  0  0
  9 29  1  0  0  0  0
 10 18  1  6  0  0  0
 10  2  1  0  0  0  0
 11  1  2  0  0  0  0
 12 29  1  1  0  0  0
 12  7  1  0  0  0  0
 12 19  1  0  0  0  0
 13  3  2  0  0  0  0
 14  1  1  0  0  0  0
 14 27  1  1  0  0  0
 15  8  1  1  0  0  0
 15  5  1  0  0  0  0
 15 25  1  0  0  0  0
 16 26  1  0  0  0  0
 17  2  2  0  0  0  0
 17 14  1  0  0  0  0
 20 30  1  6  0  0  0
 20  4  1  0  0  0  0
 22 17  1  0  0  0  0
 23  5  1  0  0  0  0
 23 21  1  0  0  0  0
 24 21  2  0  0  0  0
 25 34  1  1  0  0  0
 25 10  1  0  0  0  0
 26 31  1  6  0  0  0
 26  4  1  0  0  0  0
 28  9  1  0  0  0  0
 28 13  1  0  0  0  0
 31 22  1  0  0  0  0
 32 41  1  6  0  0  0
 32 16  1  0  0  0  0
 32 20  1  0  0  0  0
 34 33  2  0  0  0  0
 35 37  2  0  0  0  0
 35 38  1  0  0  0  0
 36 33  1  0  0  0  0
 37 34  1  0  0  0  0
 38 36  2  0  0  0  0
 40 38  1  0  0  0  0
 40 39  1  0  0  0  0
 42 41  1  0  0  0  0
 43 41  2  0  0  0  0
M  END
>  <MODEL>
3

>  <REMARK>
 VINA RESULT:      -4.9      4.505      6.967
  Name = 
  3 active torsions:
  status: ('A' for Active; 'I' for Inactive)
    1  A    between atoms: C_7  and  C_42
    2  A    between atoms: C_19  and  C_33
    3  A    between atoms: C_34  and  C_39
                            x       y       z     vdW  Elec       q    Type
                         _______ _______ _______ _____ _____    ______ ____

>  <TORSDO>
F 3

$$$$
