=
 OpenBabel11062416403D

 62 68  0  0  1  0  0  0  0  0999 V2000
  189.2170  176.8180  137.3040 C   0  0  2  0  0  3  0  0  0  0  0  0
  185.3010  177.5980  136.9040 O   0  0  0  0  0  0  0  0  0  0  0  0
  187.7260  176.7430  137.6960 C   0  0  1  0  0  3  0  0  0  0  0  0
  190.7720  175.2960  136.0260 C   0  0  2  0  0  3  0  0  0  0  0  0
  187.6450  175.1730  134.8990 C   0  0  0  0  0  3  0  0  0  0  0  0
  187.2210  178.4750  135.6610 O   0  0  0  0  0  0  0  0  0  0  0  0
  188.7950  175.7590  134.5950 C   0  0  0  0  0  3  0  0  0  0  0  0
  189.8490  175.4250  137.2550 C   0  0  0  0  0  2  0  0  0  0  0  0
  187.4430  177.4980  138.8410 O   0  0  0  0  0  1  0  0  0  0  0  0
  186.4950  175.9650  135.1940 N   0  0  0  0  0  0  0  0  0  0  0  0
  190.0520  174.9800  134.6950 C   0  0  0  0  0  2  0  0  0  0  0  0
  186.6570  177.2600  136.3440 S   0  0  0  0  0  0  0  0  0  0  0  0
  191.8370  174.3260  136.2850 N   0  0  0  0  0  2  0  0  0  0  0  0
  193.0030  175.0040  136.4280 O   0  0  0  0  0  1  0  0  0  0  0  0
  185.1720  175.4860  134.8160 C   0  0  0  0  0  2  0  0  0  0  0  0
  182.2070  174.8150  134.9260 C   0  0  1  0  0  3  0  0  0  0  0  0
  181.7750  177.0790  136.1300 C   0  0  2  0  0  0  0  0  0  0  0  0
  182.5840  175.0140  137.4620 C   0  0  0  0  0  0  0  0  0  0  0  0
  183.3290  173.3650  134.8260 S   0  0  0  0  0  0  0  0  0  0  0  0
  181.5460  175.0270  138.4130 O   0  0  0  0  0  0  0  0  0  0  0  0
  182.5020  178.0440  135.4050 O   0  0  0  0  0  0  0  0  0  0  0  0
  179.9120  176.8920  137.7240 C   0  0  1  0  0  3  0  0  0  0  0  0
  183.6820  174.4030  137.7930 N   0  0  0  0  0  0  0  0  0  0  0  0
  180.8840  174.3850  134.9150 O   0  0  0  0  0  1  0  0  0  0  0  0
  182.4790  175.7180  136.1290 C   0  0  1  0  0  3  0  0  0  0  0  0
  184.8630  174.2070  136.9940 C   0  0  0  0  0  0  0  0  0  0  0  0
  181.2680  177.6330  134.8530 C   0  0  0  0  0  2  0  0  0  0  0  0
  184.8490  174.1530  135.4880 C   0  0  2  0  0  3  0  0  0  0  0  0
  180.1990  175.4760  138.2130 C   0  0  2  0  0  0  0  0  0  0  0  0
  185.9600  174.0270  137.5890 O   0  0  0  0  0  0  0  0  0  0  0  0
  179.8460  176.5650  139.2030 C   0  0  0  0  0  2  0  0  0  0  0  0
  181.1850  177.6500  137.4070 C   0  0  0  0  0  2  0  0  0  0  0  0
  178.9360  173.6760  139.4250 C   0  0  0  0  0  1  0  0  0  0  0  0
  179.3690  173.5310  137.0920 O   0  0  0  0  0  1  0  0  0  0  0  0
  179.0940  174.4300  138.1170 C   0  0  2  0  0  3  0  0  0  0  0  0
  190.0500  177.7530  138.1690 C   0  0  0  0  0  2  0  0  0  0  0  0
  190.9410  176.9290  139.0800 C   0  0  0  0  0  2  0  0  0  0  0  0
  191.5510  177.8100  140.1710 C   0  0  0  0  0  2  0  0  0  0  0  0
  191.0290  177.5510  141.5210 N   0  0  0  0  0  0  0  0  0  0  0  0
  192.0640  177.7150  142.5400 C   0  0  0  0  0  2  0  0  0  0  0  0
  191.5020  178.4630  143.7310 C   0  0  0  0  0  2  0  0  0  0  0  0
  191.6770  177.6640  144.9350 N   0  0  0  0  0  2  0  0  0  0  0  0
  190.5660  177.2220  145.7170 C   0  0  0  0  0  0  0  0  0  0  0  0
  189.3970  177.5940  145.4280 O   0  0  0  0  0  0  0  0  0  0  0  0
  192.5980  175.7010  148.4590 C   0  0  0  0  0  1  0  0  0  0  0  0
  190.6480  177.1880  148.1950 C   0  0  0  0  0  2  0  0  0  0  0  0
  192.0220  176.8530  147.6620 C   0  0  2  0  0  3  0  0  0  0  0  0
  190.7870  176.3700  146.9240 C   0  0  2  0  0  3  0  0  0  0  0  0
  190.3910  176.2330  141.5930 C   0  0  0  0  0  2  0  0  0  0  0  0
  189.3200  176.2140  142.5000 O   0  0  0  0  0  0  0  0  0  0  0  0
  188.2870  176.8910  141.8460 C   0  0  0  0  0  2  0  0  0  0  0  0
  187.9410  179.1180  142.0450 O   0  0  0  0  0  1  0  0  0  0  0  0
  187.7570  177.9460  142.6990 N   0  0  0  0  0  0  0  0  0  0  0  0
  186.3200  177.7500  142.8170 C   0  0  0  0  0  2  0  0  0  0  0  0
  183.4540  178.4660  143.4610 O   0  0  0  0  0  0  0  0  0  0  0  0
  185.8370  179.4010  141.0730 N   0  0  0  0  0  2  0  0  0  0  0  0
  185.5570  179.0230  142.4510 C   0  0  1  0  0  3  0  0  0  0  0  0
  183.4460  178.9340  141.1150 C   0  0  1  0  0  3  0  0  0  0  0  0
  184.5870  179.6620  139.1050 O   0  0  0  0  0  0  0  0  0  0  0  0
  184.6320  179.3550  140.3250 C   0  0  0  0  0  0  0  0  0  0  0  0
  182.9280  177.5990  140.6040 C   0  0  0  0  0  1  0  0  0  0  0  0
  184.0830  178.7550  142.4540 C   0  0  0  0  0  0  0  0  0  0  0  0
  1  3  1  0  0  0  0
  1 36  1  1  0  0  0
  3  9  1  1  0  0  0
  4 13  1  1  0  0  0
  4  8  1  0  0  0  0
  5 10  1  0  0  0  0
  6 12  2  0  0  0  0
  7 11  1  0  0  0  0
  7  5  2  0  0  0  0
  8  1  1  0  0  0  0
 10 12  1  0  0  0  0
 11  4  1  0  0  0  0
 12  2  2  0  0  0  0
 12  3  1  0  0  0  0
 13 14  1  0  0  0  0
 15 10  1  0  0  0  0
 16 24  1  1  0  0  0
 16 25  1  0  0  0  0
 17 27  1  6  0  0  0
 17 32  1  0  0  0  0
 18 23  2  0  0  0  0
 18 20  1  0  0  0  0
 19 16  1  0  0  0  0
 19 28  1  0  0  0  0
 21 17  1  0  0  0  0
 22 32  1  1  0  0  0
 22 29  1  0  0  0  0
 22 31  1  0  0  0  0
 25 17  1  0  0  0  0
 25 18  1  1  0  0  0
 26 30  2  0  0  0  0
 26 23  1  0  0  0  0
 27 21  1  0  0  0  0
 28 15  1  6  0  0  0
 28 26  1  0  0  0  0
 29 35  1  6  0  0  0
 29 20  1  0  0  0  0
 29 31  1  0  0  0  0
 34 35  1  0  0  0  0
 35 33  1  1  0  0  0
 36 37  1  0  0  0  0
 37 38  1  0  0  0  0
 38 39  1  0  0  0  0
 39 49  1  0  0  0  0
 39 40  1  0  0  0  0
 40 41  1  0  0  0  0
 41 42  1  0  0  0  0
 42 43  1  0  0  0  0
 44 43  2  0  0  0  0
 47 46  1  0  0  0  0
 47 45  1  1  0  0  0
 48 43  1  6  0  0  0
 48 47  1  0  0  0  0
 48 46  1  0  0  0  0
 49 50  1  0  0  0  0
 51 50  1  0  0  0  0
 51 53  1  0  0  0  0
 52 53  1  0  0  0  0
 53 54  1  0  0  0  0
 56 57  1  0  0  0  0
 57 62  1  0  0  0  0
 57 54  1  6  0  0  0
 58 61  1  6  0  0  0
 58 62  1  0  0  0  0
 59 60  2  0  0  0  0
 60 56  1  0  0  0  0
 60 58  1  0  0  0  0
 62 55  2  0  0  0  0
M  END
>  <MODEL>
1

>  <REMARK>
 VINA RESULT:      -6.2      0.000      0.000
  Name = 
  18 active torsions:
  status: ('A' for Active; 'I' for Inactive)
    1  A    between atoms: C_4  and  O_7
    2  A    between atoms: C_4  and  N_56
    3  A    between atoms: N_5  and  C_47
    4  A    between atoms: O_7  and  C_55
    5  A    between atoms: C_10  and  C_38
    6  A    between atoms: C_13  and  C_47
    7  A    between atoms: C_13  and  N_56
    8  A    between atoms: C_18  and  C_59
    9  A    between atoms: N_19  and  C_38
   10  A    between atoms: N_19  and  C_55
   11  A    between atoms: C_21  and  C_61
   12  A    between atoms: C_26  and  N_32
   13  A    between atoms: C_29  and  C_45
   14  A    between atoms: C_31  and  C_37
   15  A    between atoms: C_31  and  C_59
   16  A    between atoms: C_37  and  N_56
   17  A    between atoms: C_41  and  C_52
   18  A    between atoms: C_52  and  N_53
                            x       y       z     vdW  Elec       q    Type
                         _______ _______ _______ _____ _____    ______ ____

>  <TORSDO>
F 18

$$$$
=
 OpenBabel11062416403D

 62 68  0  0  1  0  0  0  0  0999 V2000
  189.5080  176.3030  137.2950 C   0  0  2  0  0  3  0  0  0  0  0  0
  185.6740  177.2850  136.6340 O   0  0  0  0  0  0  0  0  0  0  0  0
  187.9970  176.3380  137.6060 C   0  0  1  0  0  3  0  0  0  0  0  0
  191.0330  174.6230  136.1910 C   0  0  2  0  0  3  0  0  0  0  0  0
  187.9680  174.6170  134.8980 C   0  0  0  0  0  3  0  0  0  0  0  0
  187.7060  177.9770  135.4560 O   0  0  0  0  0  0  0  0  0  0  0  0
  189.1660  175.1170  134.6280 C   0  0  0  0  0  3  0  0  0  0  0  0
  190.0560  174.8760  137.3570 C   0  0  0  0  0  2  0  0  0  0  0  0
  187.7000  177.1720  138.6910 O   0  0  0  0  0  1  0  0  0  0  0  0
  186.8540  175.4900  135.0850 N   0  0  0  0  0  0  0  0  0  0  0  0
  190.3660  174.2740  134.8410 C   0  0  0  0  0  2  0  0  0  0  0  0
  187.0340  176.8380  136.1710 S   0  0  0  0  0  0  0  0  0  0  0  0
  192.0220  173.6100  136.5610 N   0  0  0  0  0  2  0  0  0  0  0  0
  192.7920  174.1120  137.5580 O   0  0  0  0  0  1  0  0  0  0  0  0
  185.5260  175.0680  134.6590 C   0  0  0  0  0  2  0  0  0  0  0  0
  182.5250  174.5860  134.7700 C   0  0  1  0  0  3  0  0  0  0  0  0
  182.2390  176.8670  135.9870 C   0  0  2  0  0  0  0  0  0  0  0  0
  182.9160  174.7470  137.3070 C   0  0  0  0  0  0  0  0  0  0  0  0
  183.5520  173.0690  134.6610 S   0  0  0  0  0  0  0  0  0  0  0  0
  181.8830  174.8210  138.2600 O   0  0  0  0  0  0  0  0  0  0  0  0
  183.0260  177.7880  135.2670 O   0  0  0  0  0  0  0  0  0  0  0  0
  180.3710  176.7910  137.5830 C   0  0  1  0  0  3  0  0  0  0  0  0
  183.9740  174.0650  137.6330 N   0  0  0  0  0  0  0  0  0  0  0  0
  181.1770  174.2420  134.7590 O   0  0  0  0  0  1  0  0  0  0  0  0
  182.8560  175.4640  135.9780 C   0  0  1  0  0  3  0  0  0  0  0  0
  185.1390  173.8000  136.8310 C   0  0  0  0  0  0  0  0  0  0  0  0
  181.7670  177.4590  134.7140 C   0  0  0  0  0  2  0  0  0  0  0  0
  185.1200  173.7550  135.3250 C   0  0  2  0  0  3  0  0  0  0  0  0
  180.5670  175.3560  138.0640 C   0  0  2  0  0  0  0  0  0  0  0  0
  186.2230  173.5460  137.4230 O   0  0  0  0  0  0  0  0  0  0  0  0
  180.2860  176.4600  139.0600 C   0  0  0  0  0  2  0  0  0  0  0  0
  181.6890  177.4680  137.2680 C   0  0  0  0  0  2  0  0  0  0  0  0
  178.9360  173.9360  139.3390 C   0  0  0  0  0  1  0  0  0  0  0  0
  179.7580  173.2720  137.2100 O   0  0  0  0  0  1  0  0  0  0  0  0
  179.3970  174.3840  137.9640 C   0  0  2  0  0  3  0  0  0  0  0  0
  190.3500  177.2370  138.1540 C   0  0  0  0  0  2  0  0  0  0  0  0
  190.5850  176.5940  139.5080 C   0  0  0  0  0  2  0  0  0  0  0  0
  191.5730  177.4220  140.3290 C   0  0  0  0  0  2  0  0  0  0  0  0
  190.9910  178.0480  141.5260 N   0  0  0  0  0  0  0  0  0  0  0  0
  191.8870  177.9490  142.6770 C   0  0  0  0  0  2  0  0  0  0  0  0
  191.2000  178.4860  143.9150 C   0  0  0  0  0  2  0  0  0  0  0  0
  191.6980  177.7860  145.0900 N   0  0  0  0  0  2  0  0  0  0  0  0
  191.5380  176.3750  145.2540 C   0  0  0  0  0  0  0  0  0  0  0  0
  190.8740  175.7090  144.4170 O   0  0  0  0  0  0  0  0  0  0  0  0
  192.9500  176.2230  148.7100 C   0  0  0  0  0  1  0  0  0  0  0  0
  191.0010  175.3730  147.4590 C   0  0  0  0  0  2  0  0  0  0  0  0
  191.8980  176.5710  147.6780 C   0  0  2  0  0  3  0  0  0  0  0  0
  192.0980  175.6900  146.4580 C   0  0  2  0  0  3  0  0  0  0  0  0
  189.6640  177.4960  141.8140 C   0  0  0  0  0  2  0  0  0  0  0  0
  188.7010  178.5030  141.9890 O   0  0  0  0  0  0  0  0  0  0  0  0
  187.4910  177.9080  141.6230 C   0  0  0  0  0  2  0  0  0  0  0  0
  185.2530  177.9870  141.9450 O   0  0  0  0  0  1  0  0  0  0  0  0
  186.3720  178.7440  142.0360 N   0  0  0  0  0  0  0  0  0  0  0  0
  186.5490  179.0700  143.4430 C   0  0  0  0  0  2  0  0  0  0  0  0
  184.1180  178.8250  145.2240 O   0  0  0  0  0  0  0  0  0  0  0  0
  187.3030  177.3830  145.0510 N   0  0  0  0  0  2  0  0  0  0  0  0
  186.1440  177.8970  144.3360 C   0  0  1  0  0  3  0  0  0  0  0  0
  185.8070  178.1920  146.7950 C   0  0  1  0  0  3  0  0  0  0  0  0
  187.9420  177.1610  147.2970 O   0  0  0  0  0  0  0  0  0  0  0  0
  187.1000  177.5470  146.4450 C   0  0  0  0  0  0  0  0  0  0  0  0
  186.0590  179.5470  147.4380 C   0  0  0  0  0  1  0  0  0  0  0  0
  185.2360  178.3750  145.4270 C   0  0  0  0  0  0  0  0  0  0  0  0
  1  8  1  0  0  0  0
  1  3  1  0  0  0  0
  1 36  1  1  0  0  0
  3  9  1  1  0  0  0
  4 13  1  1  0  0  0
  4  8  1  0  0  0  0
  5 10  1  0  0  0  0
  6 12  2  0  0  0  0
  7 11  1  0  0  0  0
  7  5  2  0  0  0  0
 10 12  1  0  0  0  0
 11  4  1  0  0  0  0
 12  2  2  0  0  0  0
 12  3  1  0  0  0  0
 13 14  1  0  0  0  0
 15 10  1  0  0  0  0
 16 24  1  1  0  0  0
 16 25  1  0  0  0  0
 17 27  1  6  0  0  0
 17 32  1  0  0  0  0
 18 23  2  0  0  0  0
 18 20  1  0  0  0  0
 19 16  1  0  0  0  0
 19 28  1  0  0  0  0
 21 17  1  0  0  0  0
 22 32  1  1  0  0  0
 22 29  1  0  0  0  0
 22 31  1  0  0  0  0
 25 17  1  0  0  0  0
 25 18  1  1  0  0  0
 26 30  2  0  0  0  0
 26 23  1  0  0  0  0
 27 21  1  0  0  0  0
 28 15  1  6  0  0  0
 28 26  1  0  0  0  0
 29 35  1  6  0  0  0
 29 20  1  0  0  0  0
 29 31  1  0  0  0  0
 34 35  1  0  0  0  0
 35 33  1  1  0  0  0
 36 37  1  0  0  0  0
 37 38  1  0  0  0  0
 38 39  1  0  0  0  0
 39 49  1  0  0  0  0
 39 40  1  0  0  0  0
 40 41  1  0  0  0  0
 41 42  1  0  0  0  0
 42 43  1  0  0  0  0
 44 43  2  0  0  0  0
 46 47  1  0  0  0  0
 47 45  1  1  0  0  0
 48 43  1  6  0  0  0
 48 46  1  0  0  0  0
 48 47  1  0  0  0  0
 49 50  1  0  0  0  0
 51 50  1  0  0  0  0
 51 53  1  0  0  0  0
 52 53  1  0  0  0  0
 53 54  1  0  0  0  0
 55 62  2  0  0  0  0
 56 60  1  0  0  0  0
 57 54  1  6  0  0  0
 57 56  1  0  0  0  0
 57 62  1  0  0  0  0
 58 61  1  6  0  0  0
 60 58  1  0  0  0  0
 60 59  2  0  0  0  0
 62 58  1  0  0  0  0
M  END
>  <MODEL>
2

>  <REMARK>
 VINA RESULT:      -6.2      1.394      2.287
  Name = 
  18 active torsions:
  status: ('A' for Active; 'I' for Inactive)
    1  A    between atoms: C_4  and  O_7
    2  A    between atoms: C_4  and  N_56
    3  A    between atoms: N_5  and  C_47
    4  A    between atoms: O_7  and  C_55
    5  A    between atoms: C_10  and  C_38
    6  A    between atoms: C_13  and  C_47
    7  A    between atoms: C_13  and  N_56
    8  A    between atoms: C_18  and  C_59
    9  A    between atoms: N_19  and  C_38
   10  A    between atoms: N_19  and  C_55
   11  A    between atoms: C_21  and  C_61
   12  A    between atoms: C_26  and  N_32
   13  A    between atoms: C_29  and  C_45
   14  A    between atoms: C_31  and  C_37
   15  A    between atoms: C_31  and  C_59
   16  A    between atoms: C_37  and  N_56
   17  A    between atoms: C_41  and  C_52
   18  A    between atoms: C_52  and  N_53
                            x       y       z     vdW  Elec       q    Type
                         _______ _______ _______ _____ _____    ______ ____

>  <TORSDO>
F 18

$$$$
=
 OpenBabel11062416403D

 62 68  0  0  1  0  0  0  0  0999 V2000
  186.5630  177.4680  137.9350 C   0  0  2  0  0  3  0  0  0  0  0  0
  187.1180  175.1680  134.6930 O   0  0  0  0  0  0  0  0  0  0  0  0
  186.5560  176.1470  137.1350 C   0  0  1  0  0  3  0  0  0  0  0  0
  188.1890  178.5350  139.5420 C   0  0  2  0  0  3  0  0  0  0  0  0
  189.7070  176.7550  137.1780 C   0  0  0  0  0  3  0  0  0  0  0  0
  187.2620  177.6000  134.9470 O   0  0  0  0  0  0  0  0  0  0  0  0
  189.4070  178.0200  137.4400 C   0  0  0  0  0  3  0  0  0  0  0  0
  187.2970  177.3070  139.2670 C   0  0  0  0  0  2  0  0  0  0  0  0
  185.2570  175.7190  136.8340 O   0  0  0  0  0  1  0  0  0  0  0  0
  189.2150  176.1350  135.9890 N   0  0  0  0  0  0  0  0  0  0  0  0
  189.5570  178.5260  138.8250 C   0  0  0  0  0  2  0  0  0  0  0  0
  187.5200  176.2810  135.6220 S   0  0  0  0  0  0  0  0  0  0  0  0
  188.3570  178.7340  140.9820 N   0  0  0  0  0  2  0  0  0  0  0  0
  188.8070  177.5730  141.5220 O   0  0  0  0  0  1  0  0  0  0  0  0
  190.0260  175.1340  135.3080 C   0  0  0  0  0  2  0  0  0  0  0  0
  192.3440  174.9090  137.2650 C   0  0  1  0  0  3  0  0  0  0  0  0
  193.9940  175.3680  135.3080 C   0  0  2  0  0  0  0  0  0  0  0  0
  193.0540  172.9900  135.7060 C   0  0  0  0  0  0  0  0  0  0  0  0
  190.8220  174.0070  137.7560 S   0  0  0  0  0  0  0  0  0  0  0  0
  194.3000  172.3410  135.7750 O   0  0  0  0  0  0  0  0  0  0  0  0
  193.4550  176.4600  134.6000 O   0  0  0  0  0  0  0  0  0  0  0  0
  196.1120  174.1630  135.6360 C   0  0  1  0  0  3  0  0  0  0  0  0
  192.0210  172.2600  135.4090 N   0  0  0  0  0  0  0  0  0  0  0  0
  193.3080  174.7770  138.2590 O   0  0  0  0  0  1  0  0  0  0  0  0
  192.8970  174.4800  135.9050 C   0  0  1  0  0  3  0  0  0  0  0  0
  190.6430  172.6660  135.3210 C   0  0  0  0  0  0  0  0  0  0  0  0
  194.1450  176.7590  135.7960 C   0  0  0  0  0  2  0  0  0  0  0  0
  190.0670  173.8240  136.0930 C   0  0  2  0  0  3  0  0  0  0  0  0
  195.5350  172.8920  136.2520 C   0  0  2  0  0  0  0  0  0  0  0  0
  189.8690  171.9870  134.5940 O   0  0  0  0  0  0  0  0  0  0  0  0
  196.6070  172.8020  135.1880 C   0  0  0  0  0  2  0  0  0  0  0  0
  195.1870  174.7580  134.5940 C   0  0  0  0  0  2  0  0  0  0  0  0
  196.6260  171.0300  137.5340 C   0  0  0  0  0  1  0  0  0  0  0  0
  195.0380  172.4740  138.5550 O   0  0  0  0  0  1  0  0  0  0  0  0
  196.0570  172.4350  137.6100 C   0  0  2  0  0  3  0  0  0  0  0  0
  185.1860  178.0800  138.1530 C   0  0  0  0  0  2  0  0  0  0  0  0
  184.7480  177.8240  139.5840 C   0  0  0  0  0  2  0  0  0  0  0  0
  183.9240  179.0000  140.1080 C   0  0  0  0  0  2  0  0  0  0  0  0
  183.8620  179.0900  141.5750 N   0  0  0  0  0  0  0  0  0  0  0  0
  184.9040  178.2840  142.2080 C   0  0  0  0  0  2  0  0  0  0  0  0
  184.6930  178.2510  143.7080 C   0  0  0  0  0  2  0  0  0  0  0  0
  185.9830  178.2320  144.3810 N   0  0  0  0  0  2  0  0  0  0  0  0
  186.1280  178.6200  145.7490 C   0  0  0  0  0  0  0  0  0  0  0  0
  185.1450  179.0810  146.3870 O   0  0  0  0  0  0  0  0  0  0  0  0
  188.4470  178.3900  148.6700 C   0  0  0  0  0  1  0  0  0  0  0  0
  187.8770  177.1050  146.6430 C   0  0  0  0  0  2  0  0  0  0  0  0
  187.3110  177.9180  147.7850 C   0  0  2  0  0  3  0  0  0  0  0  0
  187.4650  178.5480  146.4130 C   0  0  2  0  0  3  0  0  0  0  0  0
  182.5250  178.7440  142.0660 C   0  0  0  0  0  2  0  0  0  0  0  0
  181.9330  177.7210  141.3080 O   0  0  0  0  0  0  0  0  0  0  0  0
  180.7030  178.2440  140.9010 C   0  0  0  0  0  2  0  0  0  0  0  0
  179.0980  176.7980  140.2300 O   0  0  0  0  0  1  0  0  0  0  0  0
  180.1770  177.4810  139.7780 N   0  0  0  0  0  0  0  0  0  0  0  0
  179.6920  178.4230  138.7810 C   0  0  0  0  0  2  0  0  0  0  0  0
  179.6920  181.2360  137.6720 O   0  0  0  0  0  0  0  0  0  0  0  0
  181.5750  178.3200  137.2180 N   0  0  0  0  0  2  0  0  0  0  0  0
  180.8490  179.1860  138.1350 C   0  0  1  0  0  3  0  0  0  0  0  0
  180.6720  180.0930  135.8130 C   0  0  1  0  0  3  0  0  0  0  0  0
  182.0380  178.3030  134.9180 O   0  0  0  0  0  0  0  0  0  0  0  0
  181.4760  178.8470  135.9040 C   0  0  0  0  0  0  0  0  0  0  0  0
  179.4140  179.8420  134.9950 C   0  0  0  0  0  1  0  0  0  0  0  0
  180.3160  180.2720  137.2520 C   0  0  0  0  0  0  0  0  0  0  0  0
  1 36  1  1  0  0  0
  1  8  1  0  0  0  0
  2 12  2  0  0  0  0
  3  9  1  6  0  0  0
  3  1  1  0  0  0  0
  4 13  1  1  0  0  0
  5  7  2  0  0  0  0
  6 12  2  0  0  0  0
  7 11  1  0  0  0  0
  8  4  1  0  0  0  0
 10  5  1  0  0  0  0
 11  4  1  0  0  0  0
 12 10  1  0  0  0  0
 12  3  1  0  0  0  0
 13 14  1  0  0  0  0
 15 10  1  0  0  0  0
 16 19  1  0  0  0  0
 16 24  1  1  0  0  0
 17 32  1  6  0  0  0
 17 27  1  0  0  0  0
 17 25  1  0  0  0  0
 18 20  1  0  0  0  0
 20 29  1  0  0  0  0
 21 17  1  0  0  0  0
 21 27  1  0  0  0  0
 22 32  1  6  0  0  0
 22 29  1  0  0  0  0
 23 18  2  0  0  0  0
 25 18  1  1  0  0  0
 25 16  1  0  0  0  0
 26 23  1  0  0  0  0
 26 28  1  0  0  0  0
 28 15  1  6  0  0  0
 28 19  1  0  0  0  0
 29 35  1  1  0  0  0
 30 26  2  0  0  0  0
 31 22  1  0  0  0  0
 31 29  1  0  0  0  0
 35 33  1  6  0  0  0
 35 34  1  0  0  0  0
 36 37  1  0  0  0  0
 37 38  1  0  0  0  0
 38 39  1  0  0  0  0
 39 49  1  0  0  0  0
 39 40  1  0  0  0  0
 40 41  1  0  0  0  0
 41 42  1  0  0  0  0
 42 43  1  0  0  0  0
 43 44  2  0  0  0  0
 46 47  1  0  0  0  0
 47 45  1  1  0  0  0
 48 43  1  6  0  0  0
 48 46  1  0  0  0  0
 48 47  1  0  0  0  0
 50 49  1  0  0  0  0
 51 50  1  0  0  0  0
 53 52  1  0  0  0  0
 53 51  1  0  0  0  0
 54 53  1  0  0  0  0
 56 57  1  0  0  0  0
 57 54  1  6  0  0  0
 58 61  1  6  0  0  0
 58 60  1  0  0  0  0
 58 62  1  0  0  0  0
 59 60  2  0  0  0  0
 60 56  1  0  0  0  0
 62 55  2  0  0  0  0
 62 57  1  0  0  0  0
M  END
>  <MODEL>
3

>  <REMARK>
 VINA RESULT:      -5.1      3.162      8.692
  Name = 
  18 active torsions:
  status: ('A' for Active; 'I' for Inactive)
    1  A    between atoms: C_4  and  O_7
    2  A    between atoms: C_4  and  N_56
    3  A    between atoms: N_5  and  C_47
    4  A    between atoms: O_7  and  C_55
    5  A    between atoms: C_10  and  C_38
    6  A    between atoms: C_13  and  C_47
    7  A    between atoms: C_13  and  N_56
    8  A    between atoms: C_18  and  C_59
    9  A    between atoms: N_19  and  C_38
   10  A    between atoms: N_19  and  C_55
   11  A    between atoms: C_21  and  C_61
   12  A    between atoms: C_26  and  N_32
   13  A    between atoms: C_29  and  C_45
   14  A    between atoms: C_31  and  C_37
   15  A    between atoms: C_31  and  C_59
   16  A    between atoms: C_37  and  N_56
   17  A    between atoms: C_41  and  C_52
   18  A    between atoms: C_52  and  N_53
                            x       y       z     vdW  Elec       q    Type
                         _______ _______ _______ _____ _____    ______ ____

>  <TORSDO>
F 18

$$$$
=
 OpenBabel11062416403D

 62 68  0  0  1  0  0  0  0  0999 V2000
  189.7800  176.8270  136.1440 C   0  0  2  0  0  3  0  0  0  0  0  0
  187.3770  178.5860  138.8340 O   0  0  0  0  0  0  0  0  0  0  0  0
  189.1600  178.0210  136.9010 C   0  0  1  0  0  3  0  0  0  0  0  0
  191.9150  175.5070  136.4010 C   0  0  2  0  0  3  0  0  0  0  0  0
  190.7180  176.5850  139.3100 C   0  0  0  0  0  3  0  0  0  0  0  0
  187.5250  176.2400  138.1460 O   0  0  0  0  0  0  0  0  0  0  0  0
  190.7230  175.4790  138.5800 C   0  0  0  0  0  3  0  0  0  0  0  0
  191.3080  176.9010  136.1440 C   0  0  0  0  0  2  0  0  0  0  0  0
  188.2820  178.7570  136.0960 O   0  0  0  0  0  1  0  0  0  0  0  0
  189.4810  177.2060  139.6600 N   0  0  0  0  0  0  0  0  0  0  0  0
  191.9690  175.0780  137.8840 C   0  0  0  0  0  2  0  0  0  0  0  0
  188.3160  177.4940  138.3990 S   0  0  0  0  0  0  0  0  0  0  0  0
  193.2360  175.4010  135.7790 N   0  0  0  0  0  2  0  0  0  0  0  0
  193.5260  174.0850  135.6200 O   0  0  0  0  0  1  0  0  0  0  0  0
  189.3490  177.8830  140.9440 C   0  0  0  0  0  2  0  0  0  0  0  0
  188.1060  176.2940  143.2200 C   0  0  1  0  0  3  0  0  0  0  0  0
  186.5840  178.3320  143.7650 C   0  0  2  0  0  0  0  0  0  0  0  0
  189.0160  178.2330  144.6440 C   0  0  0  0  0  0  0  0  0  0  0  0
  189.8050  175.7800  142.7510 S   0  0  0  0  0  0  0  0  0  0  0  0
  188.6990  178.4300  146.0010 O   0  0  0  0  0  0  0  0  0  0  0  0
  186.0750  178.7720  142.5270 O   0  0  0  0  0  0  0  0  0  0  0  0
  186.1310  178.4790  146.1770 C   0  0  1  0  0  3  0  0  0  0  0  0
  190.2280  178.5200  144.2720 N   0  0  0  0  0  0  0  0  0  0  0  0
  187.6270  175.4640  144.2280 O   0  0  0  0  0  1  0  0  0  0  0  0
  188.0020  177.7650  143.6270 C   0  0  1  0  0  3  0  0  0  0  0  0
  190.8150  178.3680  142.9670 C   0  0  0  0  0  0  0  0  0  0  0  0
  185.4580  177.6370  143.1000 C   0  0  0  0  0  2  0  0  0  0  0  0
  190.3530  177.3440  141.9620 C   0  0  2  0  0  3  0  0  0  0  0  0
  187.5000  178.0220  146.6730 C   0  0  2  0  0  0  0  0  0  0  0  0
  191.7970  179.0990  142.6670 O   0  0  0  0  0  0  0  0  0  0  0  0
  186.8160  179.2100  147.3150 C   0  0  0  0  0  2  0  0  0  0  0  0
  186.2330  179.2810  144.8960 C   0  0  0  0  0  2  0  0  0  0  0  0
  187.4960  177.2930  149.0750 C   0  0  0  0  0  1  0  0  0  0  0  0
  188.7530  176.1280  147.4280 O   0  0  0  0  0  1  0  0  0  0  0  0
  187.5740  176.8370  147.6300 C   0  0  2  0  0  3  0  0  0  0  0  0
  189.2530  176.6350  134.7290 C   0  0  0  0  0  2  0  0  0  0  0  0
  187.8270  176.1200  134.7930 C   0  0  0  0  0  2  0  0  0  0  0  0
  187.8140  174.6090  135.0270 C   0  0  0  0  0  2  0  0  0  0  0  0
  186.4700  174.0310  135.1780 N   0  0  0  0  0  0  0  0  0  0  0  0
  186.3890  172.6940  134.5940 C   0  0  0  0  0  2  0  0  0  0  0  0
  185.7050  171.7480  135.5580 C   0  0  0  0  0  2  0  0  0  0  0  0
  184.4390  171.3050  134.9910 N   0  0  0  0  0  2  0  0  0  0  0  0
  183.2860  171.0740  135.8030 C   0  0  0  0  0  0  0  0  0  0  0  0
  183.3640  171.1620  137.0570 O   0  0  0  0  0  0  0  0  0  0  0  0
  179.6690  170.1370  135.8070 C   0  0  0  0  0  1  0  0  0  0  0  0
  181.1410  171.8670  134.8440 C   0  0  0  0  0  2  0  0  0  0  0  0
  180.8450  171.0520  136.0830 C   0  0  2  0  0  3  0  0  0  0  0  0
  181.9960  170.6570  135.1760 C   0  0  2  0  0  3  0  0  0  0  0  0
  185.4480  174.9310  134.6360 C   0  0  0  0  0  2  0  0  0  0  0  0
  184.3230  175.0140  135.4710 O   0  0  0  0  0  0  0  0  0  0  0  0
  184.0100  176.3750  135.5150 C   0  0  0  0  0  2  0  0  0  0  0  0
  182.0020  175.3320  135.4980 O   0  0  0  0  0  1  0  0  0  0  0  0
  182.5670  176.5590  135.5910 N   0  0  0  0  0  0  0  0  0  0  0  0
  182.2480  177.0720  136.9140 C   0  0  0  0  0  2  0  0  0  0  0  0
  182.5660  175.7250  139.6020 O   0  0  0  0  0  0  0  0  0  0  0  0
  184.0770  178.3770  137.8890 N   0  0  0  0  0  2  0  0  0  0  0  0
  183.4760  177.0530  137.8240 C   0  0  1  0  0  3  0  0  0  0  0  0
  183.3680  177.9050  140.1710 C   0  0  1  0  0  3  0  0  0  0  0  0
  184.4930  179.9640  139.5660 O   0  0  0  0  0  0  0  0  0  0  0  0
  184.0180  178.8490  139.2260 C   0  0  0  0  0  0  0  0  0  0  0  0
  182.0750  178.5070  140.7010 C   0  0  0  0  0  1  0  0  0  0  0  0
  183.0610  176.7800  139.2370 C   0  0  0  0  0  0  0  0  0  0  0  0
  1 36  1  6  0  0  0
  1  8  1  0  0  0  0
  1  3  1  0  0  0  0
  3  9  1  6  0  0  0
  3 12  1  0  0  0  0
  4 13  1  1  0  0  0
  4 11  1  0  0  0  0
  5 10  1  0  0  0  0
  6 12  2  0  0  0  0
  7  5  2  0  0  0  0
  8  4  1  0  0  0  0
 10 15  1  0  0  0  0
 11  7  1  0  0  0  0
 12  2  2  0  0  0  0
 12 10  1  0  0  0  0
 14 13  1  0  0  0  0
 16 25  1  0  0  0  0
 16 24  1  1  0  0  0
 17 27  1  1  0  0  0
 17 32  1  0  0  0  0
 18 20  1  0  0  0  0
 19 16  1  0  0  0  0
 20 29  1  0  0  0  0
 21 27  1  0  0  0  0
 21 17  1  0  0  0  0
 22 32  1  6  0  0  0
 22 29  1  0  0  0  0
 22 31  1  0  0  0  0
 23 18  2  0  0  0  0
 25 17  1  0  0  0  0
 25 18  1  1  0  0  0
 26 23  1  0  0  0  0
 28 15  1  1  0  0  0
 28 19  1  0  0  0  0
 28 26  1  0  0  0  0
 29 31  1  0  0  0  0
 29 35  1  1  0  0  0
 30 26  2  0  0  0  0
 34 35  1  0  0  0  0
 35 33  1  1  0  0  0
 36 37  1  0  0  0  0
 37 38  1  0  0  0  0
 38 39  1  0  0  0  0
 40 39  1  0  0  0  0
 40 41  1  0  0  0  0
 42 41  1  0  0  0  0
 42 43  1  0  0  0  0
 43 44  2  0  0  0  0
 46 48  1  0  0  0  0
 46 47  1  0  0  0  0
 47 45  1  6  0  0  0
 48 43  1  1  0  0  0
 48 47  1  0  0  0  0
 49 39  1  0  0  0  0
 49 50  1  0  0  0  0
 50 51  1  0  0  0  0
 51 53  1  0  0  0  0
 52 53  1  0  0  0  0
 53 54  1  0  0  0  0
 56 60  1  0  0  0  0
 57 54  1  6  0  0  0
 57 56  1  0  0  0  0
 57 62  1  0  0  0  0
 58 61  1  6  0  0  0
 60 59  2  0  0  0  0
 60 58  1  0  0  0  0
 62 55  2  0  0  0  0
 62 58  1  0  0  0  0
M  END
>  <MODEL>
4

>  <REMARK>
 VINA RESULT:      -4.7      2.542      9.107
  Name = 
  18 active torsions:
  status: ('A' for Active; 'I' for Inactive)
    1  A    between atoms: C_4  and  O_7
    2  A    between atoms: C_4  and  N_56
    3  A    between atoms: N_5  and  C_47
    4  A    between atoms: O_7  and  C_55
    5  A    between atoms: C_10  and  C_38
    6  A    between atoms: C_13  and  C_47
    7  A    between atoms: C_13  and  N_56
    8  A    between atoms: C_18  and  C_59
    9  A    between atoms: N_19  and  C_38
   10  A    between atoms: N_19  and  C_55
   11  A    between atoms: C_21  and  C_61
   12  A    between atoms: C_26  and  N_32
   13  A    between atoms: C_29  and  C_45
   14  A    between atoms: C_31  and  C_37
   15  A    between atoms: C_31  and  C_59
   16  A    between atoms: C_37  and  N_56
   17  A    between atoms: C_41  and  C_52
   18  A    between atoms: C_52  and  N_53
                            x       y       z     vdW  Elec       q    Type
                         _______ _______ _______ _____ _____    ______ ____

>  <TORSDO>
F 18

$$$$
=
 OpenBabel11062416403D

 62 68  0  0  1  0  0  0  0  0999 V2000
  188.0380  173.9470  136.0470 C   0  0  2  0  0  3  0  0  0  0  0  0
  186.4280  177.1580  137.8380 O   0  0  0  0  0  0  0  0  0  0  0  0
  187.6850  174.8540  137.2450 C   0  0  1  0  0  3  0  0  0  0  0  0
  186.9990  171.8740  135.0520 C   0  0  2  0  0  3  0  0  0  0  0  0
  184.7410  173.9410  136.3530 C   0  0  0  0  0  3  0  0  0  0  0  0
  186.6550  176.6250  135.4570 O   0  0  0  0  0  0  0  0  0  0  0  0
  185.2520  173.6350  135.1680 C   0  0  0  0  0  3  0  0  0  0  0  0
  187.6360  172.4950  136.3120 C   0  0  0  0  0  2  0  0  0  0  0  0
  188.8080  175.5210  137.7510 O   0  0  0  0  0  1  0  0  0  0  0  0
  184.8480  175.2740  136.8550 N   0  0  0  0  0  0  0  0  0  0  0  0
  185.5070  172.2140  134.8360 C   0  0  0  0  0  2  0  0  0  0  0  0
  186.4060  176.0460  136.8230 S   0  0  0  0  0  0  0  0  0  0  0  0
  187.2130  170.4270  135.0290 N   0  0  0  0  0  2  0  0  0  0  0  0
  188.3960  170.1620  135.6380 O   0  0  0  0  0  1  0  0  0  0  0  0
  183.7770  175.8230  137.6760 C   0  0  0  0  0  2  0  0  0  0  0  0
  182.6210  178.6250  137.9310 C   0  0  1  0  0  3  0  0  0  0  0  0
  182.5200  178.3100  140.5110 C   0  0  2  0  0  0  0  0  0  0  0  0
  180.6460  177.3670  138.9960 C   0  0  0  0  0  0  0  0  0  0  0  0
  182.3290  177.8090  136.3130 S   0  0  0  0  0  0  0  0  0  0  0  0
  179.5780  177.9970  139.6600 O   0  0  0  0  0  0  0  0  0  0  0  0
  183.7630  177.7610  140.8790 O   0  0  0  0  0  0  0  0  0  0  0  0
  180.6010  179.5090  141.4740 C   0  0  1  0  0  3  0  0  0  0  0  0
  180.3650  176.3120  138.2900 N   0  0  0  0  0  0  0  0  0  0  0  0
  182.0960  179.9140  137.9070 O   0  0  0  0  0  1  0  0  0  0  0  0
  182.0770  177.8350  139.1230 C   0  0  1  0  0  3  0  0  0  0  0  0
  181.2570  175.5190  137.4860 C   0  0  0  0  0  0  0  0  0  0  0  0
  183.7320  179.1530  140.6360 C   0  0  0  0  0  2  0  0  0  0  0  0
  182.5120  176.0640  136.8530 C   0  0  2  0  0  3  0  0  0  0  0  0
  179.6100  179.2590  140.3420 C   0  0  2  0  0  0  0  0  0  0  0  0
  180.9480  174.3180  137.2620 O   0  0  0  0  0  0  0  0  0  0  0  0
  179.1740  179.0980  141.7820 C   0  0  0  0  0  2  0  0  0  0  0  0
  181.5420  178.3380  141.6720 C   0  0  0  0  0  2  0  0  0  0  0  0
  179.0390  180.3820  138.1710 C   0  0  0  0  0  1  0  0  0  0  0  0
  179.5030  181.6400  140.1330 O   0  0  0  0  0  1  0  0  0  0  0  0
  178.9320  180.4550  139.6830 C   0  0  2  0  0  3  0  0  0  0  0  0
  189.4920  174.0270  135.6030 C   0  0  0  0  0  2  0  0  0  0  0  0
  190.0590  175.3800  135.9920 C   0  0  0  0  0  2  0  0  0  0  0  0
  191.3090  175.2070  136.8560 C   0  0  0  0  0  2  0  0  0  0  0  0
  192.3740  176.1830  136.5820 N   0  0  0  0  0  0  0  0  0  0  0  0
  193.3160  175.6860  135.5810 C   0  0  0  0  0  2  0  0  0  0  0  0
  194.7300  175.7630  136.1180 C   0  0  0  0  0  2  0  0  0  0  0  0
  195.4460  174.5420  135.7800 N   0  0  0  0  0  2  0  0  0  0  0  0
  195.4810  173.4180  136.6620 C   0  0  0  0  0  0  0  0  0  0  0  0
  194.9610  173.4920  137.8070 O   0  0  0  0  0  0  0  0  0  0  0  0
  196.7860  169.9540  137.1710 C   0  0  0  0  0  1  0  0  0  0  0  0
  195.2240  171.1530  135.6850 C   0  0  0  0  0  2  0  0  0  0  0  0
  195.7030  171.0120  137.1120 C   0  0  2  0  0  3  0  0  0  0  0  0
  196.1950  172.1680  136.2610 C   0  0  2  0  0  3  0  0  0  0  0  0
  193.0490  176.5840  137.8200 C   0  0  0  0  0  2  0  0  0  0  0  0
  192.3090  176.2360  138.9600 O   0  0  0  0  0  0  0  0  0  0  0  0
  192.1920  177.4230  139.6870 C   0  0  0  0  0  2  0  0  0  0  0  0
  190.2880  176.2890  140.1390 O   0  0  0  0  0  1  0  0  0  0  0  0
  190.9460  177.4340  140.4400 N   0  0  0  0  0  0  0  0  0  0  0  0
  191.2740  177.3720  141.8560 C   0  0  0  0  0  2  0  0  0  0  0  0
  191.8940  179.2960  144.1050 O   0  0  0  0  0  0  0  0  0  0  0  0
  189.1420  177.4020  143.0600 N   0  0  0  0  0  2  0  0  0  0  0  0
  190.2970  178.2040  142.6860 C   0  0  1  0  0  3  0  0  0  0  0  0
  190.1980  177.9930  145.1750 C   0  0  1  0  0  3  0  0  0  0  0  0
  188.1690  176.6710  145.0660 O   0  0  0  0  0  0  0  0  0  0  0  0
  189.0890  177.2940  144.4740 C   0  0  0  0  0  0  0  0  0  0  0  0
  191.0830  176.9810  145.8850 C   0  0  0  0  0  1  0  0  0  0  0  0
  190.9200  178.5660  144.0000 C   0  0  0  0  0  0  0  0  0  0  0  0
  1 36  1  1  0  0  0
  1  8  1  0  0  0  0
  1  3  1  0  0  0  0
  3  9  1  6  0  0  0
  4 13  1  1  0  0  0
  4  8  1  0  0  0  0
  5 10  1  0  0  0  0
  6 12  2  0  0  0  0
  7  5  2  0  0  0  0
 10 15  1  0  0  0  0
 11  4  1  0  0  0  0
 11  7  1  0  0  0  0
 12 10  1  0  0  0  0
 12  3  1  0  0  0  0
 12  2  2  0  0  0  0
 13 14  1  0  0  0  0
 16 24  1  6  0  0  0
 16 25  1  0  0  0  0
 17 27  1  6  0  0  0
 17 21  1  0  0  0  0
 17 32  1  0  0  0  0
 18 20  1  0  0  0  0
 19 28  1  0  0  0  0
 19 16  1  0  0  0  0
 20 29  1  0  0  0  0
 22 32  1  6  0  0  0
 22 31  1  0  0  0  0
 23 18  2  0  0  0  0
 25 18  1  1  0  0  0
 25 17  1  0  0  0  0
 26 23  1  0  0  0  0
 27 21  1  0  0  0  0
 28 26  1  0  0  0  0
 28 15  1  1  0  0  0
 29 35  1  6  0  0  0
 29 22  1  0  0  0  0
 29 31  1  0  0  0  0
 30 26  2  0  0  0  0
 35 33  1  6  0  0  0
 35 34  1  0  0  0  0
 36 37  1  0  0  0  0
 37 38  1  0  0  0  0
 39 38  1  0  0  0  0
 39 49  1  0  0  0  0
 40 41  1  0  0  0  0
 40 39  1  0  0  0  0
 42 41  1  0  0  0  0
 42 43  1  0  0  0  0
 43 44  2  0  0  0  0
 46 48  1  0  0  0  0
 46 47  1  0  0  0  0
 47 45  1  6  0  0  0
 48 43  1  1  0  0  0
 48 47  1  0  0  0  0
 49 50  1  0  0  0  0
 50 51  1  0  0  0  0
 51 53  1  0  0  0  0
 52 53  1  0  0  0  0
 53 54  1  0  0  0  0
 56 60  1  0  0  0  0
 57 54  1  6  0  0  0
 57 56  1  0  0  0  0
 57 62  1  0  0  0  0
 58 61  1  6  0  0  0
 60 59  2  0  0  0  0
 60 58  1  0  0  0  0
 62 55  2  0  0  0  0
 62 58  1  0  0  0  0
M  END
>  <MODEL>
5

>  <REMARK>
 VINA RESULT:      -4.5      3.083      6.408
  Name = 
  18 active torsions:
  status: ('A' for Active; 'I' for Inactive)
    1  A    between atoms: C_4  and  O_7
    2  A    between atoms: C_4  and  N_56
    3  A    between atoms: N_5  and  C_47
    4  A    between atoms: O_7  and  C_55
    5  A    between atoms: C_10  and  C_38
    6  A    between atoms: C_13  and  C_47
    7  A    between atoms: C_13  and  N_56
    8  A    between atoms: C_18  and  C_59
    9  A    between atoms: N_19  and  C_38
   10  A    between atoms: N_19  and  C_55
   11  A    between atoms: C_21  and  C_61
   12  A    between atoms: C_26  and  N_32
   13  A    between atoms: C_29  and  C_45
   14  A    between atoms: C_31  and  C_37
   15  A    between atoms: C_31  and  C_59
   16  A    between atoms: C_37  and  N_56
   17  A    between atoms: C_41  and  C_52
   18  A    between atoms: C_52  and  N_53
                            x       y       z     vdW  Elec       q    Type
                         _______ _______ _______ _____ _____    ______ ____

>  <TORSDO>
F 18

$$$$
=
 OpenBabel11062416403D

 62 68  0  0  1  0  0  0  0  0999 V2000
  187.6290  177.5870  136.8780 C   0  0  2  0  0  3  0  0  0  0  0  0
  191.3710  177.6560  138.3290 O   0  0  0  0  0  0  0  0  0  0  0  0
  189.1330  177.9340  136.8610 C   0  0  1  0  0  3  0  0  0  0  0  0
  186.2470  175.7340  135.8690 C   0  0  2  0  0  3  0  0  0  0  0  0
  189.3000  174.7330  136.7260 C   0  0  0  0  0  3  0  0  0  0  0  0
  189.2870  176.8960  139.3700 O   0  0  0  0  0  0  0  0  0  0  0  0
  188.0650  174.7000  137.2080 C   0  0  0  0  0  3  0  0  0  0  0  0
  187.2000  176.9100  135.5760 C   0  0  0  0  0  2  0  0  0  0  0  0
  189.3620  179.3010  137.0620 O   0  0  0  0  0  1  0  0  0  0  0  0
  190.3390  175.3730  137.4670 N   0  0  0  0  0  0  0  0  0  0  0  0
  186.9390  174.4160  136.2870 C   0  0  0  0  0  2  0  0  0  0  0  0
  190.0510  176.9770  138.0770 S   0  0  0  0  0  0  0  0  0  0  0  0
  185.3440  175.5110  134.7390 N   0  0  0  0  0  2  0  0  0  0  0  0
  184.5650  176.6120  134.5940 O   0  0  0  0  0  1  0  0  0  0  0  0
  191.6970  174.8480  137.4090 C   0  0  0  0  0  2  0  0  0  0  0  0
  194.0580  174.4860  135.5250 C   0  0  1  0  0  3  0  0  0  0  0  0
  194.5180  172.1640  136.6040 C   0  0  2  0  0  0  0  0  0  0  0  0
  195.3790  174.3310  137.7270 C   0  0  0  0  0  0  0  0  0  0  0  0
  193.5990  176.2300  135.8690 S   0  0  0  0  0  0  0  0  0  0  0  0
  196.7280  173.9370  137.8090 O   0  0  0  0  0  0  0  0  0  0  0  0
  193.2650  171.5250  136.6880 O   0  0  0  0  0  0  0  0  0  0  0  0
  196.9240  171.6590  136.6260 C   0  0  1  0  0  3  0  0  0  0  0  0
  194.9840  175.2620  138.5430 N   0  0  0  0  0  0  0  0  0  0  0  0
  195.1090  174.4490  134.6140 O   0  0  0  0  0  1  0  0  0  0  0  0
  194.3950  173.6820  136.7820 C   0  0  1  0  0  3  0  0  0  0  0  0
  193.6820  175.8690  138.6310 C   0  0  0  0  0  0  0  0  0  0  0  0
  193.8960  171.5210  135.4240 C   0  0  0  0  0  2  0  0  0  0  0  0
  192.7310  175.9710  137.4660 C   0  0  2  0  0  3  0  0  0  0  0  0
  197.4300  173.0710  136.9060 C   0  0  2  0  0  0  0  0  0  0  0  0
  193.3390  176.3840  139.7290 O   0  0  0  0  0  0  0  0  0  0  0  0
  198.0200  171.8920  137.6480 C   0  0  0  0  0  2  0  0  0  0  0  0
  195.6050  171.3820  137.3190 C   0  0  0  0  0  2  0  0  0  0  0  0
  198.4810  175.2010  136.0930 C   0  0  0  0  0  1  0  0  0  0  0  0
  198.1280  173.3570  134.6350 O   0  0  0  0  0  1  0  0  0  0  0  0
  198.4410  173.6910  135.9480 C   0  0  2  0  0  3  0  0  0  0  0  0
  186.7150  178.7620  137.1970 C   0  0  0  0  0  2  0  0  0  0  0  0
  185.4680  178.2480  137.8940 C   0  0  0  0  0  2  0  0  0  0  0  0
  185.6870  178.1870  139.4050 C   0  0  0  0  0  2  0  0  0  0  0  0
  184.6030  178.7850  140.1990 N   0  0  0  0  0  0  0  0  0  0  0  0
  185.0870  179.2820  141.4850 C   0  0  0  0  0  2  0  0  0  0  0  0
  186.4380  178.6740  141.7990 C   0  0  0  0  0  2  0  0  0  0  0  0
  186.4690  178.2510  143.1920 N   0  0  0  0  0  2  0  0  0  0  0  0
  187.4170  177.2950  143.6710 C   0  0  0  0  0  0  0  0  0  0  0  0
  188.2000  176.7190  142.8690 O   0  0  0  0  0  0  0  0  0  0  0  0
  188.8720  177.1620  147.1100 C   0  0  0  0  0  1  0  0  0  0  0  0
  186.8610  178.0280  145.9740 C   0  0  0  0  0  2  0  0  0  0  0  0
  188.3600  177.8630  145.8680 C   0  0  2  0  0  3  0  0  0  0  0  0
  187.4400  176.9170  145.1160 C   0  0  2  0  0  3  0  0  0  0  0  0
  183.4890  177.8460  140.3580 C   0  0  0  0  0  2  0  0  0  0  0  0
  182.3100  178.4900  140.7630 O   0  0  0  0  0  0  0  0  0  0  0  0
  182.0530  179.4290  139.7610 C   0  0  0  0  0  2  0  0  0  0  0  0
  179.8730  179.7330  139.2370 O   0  0  0  0  0  1  0  0  0  0  0  0
  180.9530  178.9810  138.9180 N   0  0  0  0  0  0  0  0  0  0  0  0
  181.2900  179.2890  137.5370 C   0  0  0  0  0  2  0  0  0  0  0  0
  178.9750  177.6830  136.4400 O   0  0  0  0  0  0  0  0  0  0  0  0
  182.3430  177.1040  137.1980 N   0  0  0  0  0  2  0  0  0  0  0  0
  181.3370  178.0220  136.6840 C   0  0  1  0  0  3  0  0  0  0  0  0
  180.2340  175.9080  137.4330 C   0  0  1  0  0  3  0  0  0  0  0  0
  182.3550  174.9290  138.0770 O   0  0  0  0  0  0  0  0  0  0  0  0
  181.7080  175.9050  137.6140 C   0  0  0  0  0  0  0  0  0  0  0  0
  179.5440  175.8520  138.7870 C   0  0  0  0  0  1  0  0  0  0  0  0
  180.0550  177.2610  136.8250 C   0  0  0  0  0  0  0  0  0  0  0  0
  1 36  1  6  0  0  0
  3  1  1  0  0  0  0
  3  9  1  1  0  0  0
  3 12  1  0  0  0  0
  4 13  1  6  0  0  0
  4 11  1  0  0  0  0
  5  7  2  0  0  0  0
  5 10  1  0  0  0  0
  8  4  1  0  0  0  0
  8  1  1  0  0  0  0
 10 12  1  0  0  0  0
 11  7  1  0  0  0  0
 12  2  2  0  0  0  0
 12  6  2  0  0  0  0
 14 13  1  0  0  0  0
 15 10  1  0  0  0  0
 16 24  1  6  0  0  0
 16 19  1  0  0  0  0
 16 25  1  0  0  0  0
 17 27  1  6  0  0  0
 17 21  1  0  0  0  0
 17 25  1  0  0  0  0
 17 32  1  0  0  0  0
 18 20  1  0  0  0  0
 18 23  2  0  0  0  0
 19 28  1  0  0  0  0
 22 29  1  0  0  0  0
 22 32  1  1  0  0  0
 22 31  1  0  0  0  0
 23 26  1  0  0  0  0
 25 18  1  6  0  0  0
 26 30  2  0  0  0  0
 27 21  1  0  0  0  0
 28 15  1  6  0  0  0
 28 26  1  0  0  0  0
 29 35  1  6  0  0  0
 29 31  1  0  0  0  0
 29 20  1  0  0  0  0
 34 35  1  0  0  0  0
 35 33  1  6  0  0  0
 36 37  1  0  0  0  0
 37 38  1  0  0  0  0
 38 39  1  0  0  0  0
 39 49  1  0  0  0  0
 39 40  1  0  0  0  0
 40 41  1  0  0  0  0
 41 42  1  0  0  0  0
 42 43  1  0  0  0  0
 44 43  2  0  0  0  0
 47 46  1  0  0  0  0
 47 45  1  1  0  0  0
 48 43  1  6  0  0  0
 48 47  1  0  0  0  0
 48 46  1  0  0  0  0
 49 50  1  0  0  0  0
 51 50  1  0  0  0  0
 53 52  1  0  0  0  0
 53 51  1  0  0  0  0
 54 53  1  0  0  0  0
 55 62  2  0  0  0  0
 56 60  1  0  0  0  0
 57 62  1  0  0  0  0
 57 56  1  0  0  0  0
 57 54  1  1  0  0  0
 58 60  1  0  0  0  0
 58 61  1  1  0  0  0
 60 59  2  0  0  0  0
 62 58  1  0  0  0  0
M  END
>  <MODEL>
6

>  <REMARK>
 VINA RESULT:      -4.4      3.627      9.491
  Name = 
  18 active torsions:
  status: ('A' for Active; 'I' for Inactive)
    1  A    between atoms: C_4  and  O_7
    2  A    between atoms: C_4  and  N_56
    3  A    between atoms: N_5  and  C_47
    4  A    between atoms: O_7  and  C_55
    5  A    between atoms: C_10  and  C_38
    6  A    between atoms: C_13  and  C_47
    7  A    between atoms: C_13  and  N_56
    8  A    between atoms: C_18  and  C_59
    9  A    between atoms: N_19  and  C_38
   10  A    between atoms: N_19  and  C_55
   11  A    between atoms: C_21  and  C_61
   12  A    between atoms: C_26  and  N_32
   13  A    between atoms: C_29  and  C_45
   14  A    between atoms: C_31  and  C_37
   15  A    between atoms: C_31  and  C_59
   16  A    between atoms: C_37  and  N_56
   17  A    between atoms: C_41  and  C_52
   18  A    between atoms: C_52  and  N_53
                            x       y       z     vdW  Elec       q    Type
                         _______ _______ _______ _____ _____    ______ ____

>  <TORSDO>
F 18

$$$$
=
 OpenBabel11062416403D

 62 68  0  0  1  0  0  0  0  0999 V2000
  189.4130  176.8670  140.6160 C   0  0  2  0  0  3  0  0  0  0  0  0
  190.6730  176.6940  136.8100 O   0  0  0  0  0  0  0  0  0  0  0  0
  189.7140  176.1760  139.2690 C   0  0  1  0  0  3  0  0  0  0  0  0
  190.6630  177.0760  142.7970 C   0  0  2  0  0  3  0  0  0  0  0  0
  192.6910  176.9720  140.1640 C   0  0  0  0  0  3  0  0  0  0  0  0
  190.3660  178.6250  138.2850 O   0  0  0  0  0  0  0  0  0  0  0  0
  192.1510  177.8710  140.9750 C   0  0  0  0  0  3  0  0  0  0  0  0
  190.0300  176.0990  141.7850 C   0  0  0  0  0  2  0  0  0  0  0  0
  188.5450  175.8470  138.5710 O   0  0  0  0  0  1  0  0  0  0  0  0
  192.4330  177.0300  138.7600 N   0  0  0  0  0  0  0  0  0  0  0  0
  192.0750  177.5820  142.4260 C   0  0  0  0  0  2  0  0  0  0  0  0
  190.7830  177.1820  138.2290 S   0  0  0  0  0  0  0  0  0  0  0  0
  190.6530  176.5000  144.1420 N   0  0  0  0  0  2  0  0  0  0  0  0
  191.9380  176.3160  144.5350 O   0  0  0  0  0  1  0  0  0  0  0  0
  193.4680  176.6240  137.8190 C   0  0  0  0  0  2  0  0  0  0  0  0
  194.3820  173.7270  137.9750 C   0  0  1  0  0  3  0  0  0  0  0  0
  196.8520  174.5390  137.9180 C   0  0  2  0  0  0  0  0  0  0  0  0
  195.4970  174.2930  135.7270 C   0  0  0  0  0  0  0  0  0  0  0  0
  192.7090  173.9770  137.2600 S   0  0  0  0  0  0  0  0  0  0  0  0
  196.4150  173.4520  135.0710 O   0  0  0  0  0  0  0  0  0  0  0  0
  196.9260  175.6070  138.8340 O   0  0  0  0  0  0  0  0  0  0  0  0
  198.2890  172.9200  136.7530 C   0  0  1  0  0  3  0  0  0  0  0  0
  194.6680  174.9610  134.9810 N   0  0  0  0  0  0  0  0  0  0  0  0
  194.6630  172.3660  138.0440 O   0  0  0  0  0  1  0  0  0  0  0  0
  195.4850  174.4770  137.2270 C   0  0  1  0  0  3  0  0  0  0  0  0
  193.6120  175.8450  135.4000 C   0  0  0  0  0  0  0  0  0  0  0  0
  196.9370  174.3030  139.3770 C   0  0  0  0  0  2  0  0  0  0  0  0
  192.9020  175.7220  136.7240 C   0  0  2  0  0  3  0  0  0  0  0  0
  197.2940  172.4950  135.6770 C   0  0  2  0  0  0  0  0  0  0  0  0
  193.2320  176.7390  134.5980 O   0  0  0  0  0  0  0  0  0  0  0  0
  198.7330  172.7830  135.3100 C   0  0  0  0  0  2  0  0  0  0  0  0
  198.1350  174.3810  137.1220 C   0  0  0  0  0  2  0  0  0  0  0  0
  195.6380  170.8150  134.8190 C   0  0  0  0  0  1  0  0  0  0  0  0
  196.9230  170.4010  136.7760 O   0  0  0  0  0  1  0  0  0  0  0  0
  196.9650  171.0140  135.5280 C   0  0  2  0  0  3  0  0  0  0  0  0
  187.9350  177.1340  140.8710 C   0  0  0  0  0  2  0  0  0  0  0  0
  187.6420  178.6010  140.6170 C   0  0  0  0  0  2  0  0  0  0  0  0
  186.8660  179.2020  141.7890 C   0  0  0  0  0  2  0  0  0  0  0  0
  185.4050  179.1990  141.6120 N   0  0  0  0  0  0  0  0  0  0  0  0
  184.7520  178.2780  142.5390 C   0  0  0  0  0  2  0  0  0  0  0  0
  184.8570  178.8060  143.9540 C   0  0  0  0  0  2  0  0  0  0  0  0
  186.0710  178.2960  144.5750 N   0  0  0  0  0  2  0  0  0  0  0  0
  186.2900  178.3750  145.9850 C   0  0  0  0  0  0  0  0  0  0  0  0
  185.4650  178.9760  146.7240 O   0  0  0  0  0  0  0  0  0  0  0  0
  189.1440  178.2710  148.3940 C   0  0  0  0  0  1  0  0  0  0  0  0
  187.1990  176.8950  147.7550 C   0  0  0  0  0  2  0  0  0  0  0  0
  187.6780  178.3060  148.0110 C   0  0  2  0  0  3  0  0  0  0  0  0
  187.5330  177.8040  146.5860 C   0  0  2  0  0  3  0  0  0  0  0  0
  185.0460  178.9230  140.2180 C   0  0  0  0  0  2  0  0  0  0  0  0
  184.2160  179.9190  139.6800 O   0  0  0  0  0  0  0  0  0  0  0  0
  183.4110  179.2520  138.7540 C   0  0  0  0  0  2  0  0  0  0  0  0
  181.6340  178.7060  140.0440 O   0  0  0  0  0  1  0  0  0  0  0  0
  182.6950  178.1610  139.4020 N   0  0  0  0  0  0  0  0  0  0  0  0
  182.1600  177.2940  138.3630 C   0  0  0  0  0  2  0  0  0  0  0  0
  183.3690  174.8720  137.0180 O   0  0  0  0  0  0  0  0  0  0  0  0
  180.7910  175.4930  139.3020 N   0  0  0  0  0  2  0  0  0  0  0  0
  182.1220  175.8380  138.8250 C   0  0  1  0  0  3  0  0  0  0  0  0
  181.1560  174.0410  137.3810 C   0  0  1  0  0  3  0  0  0  0  0  0
  179.1190  173.9650  138.6920 O   0  0  0  0  0  0  0  0  0  0  0  0
  180.2540  174.4680  138.4820 C   0  0  0  0  0  0  0  0  0  0  0  0
  180.5410  174.3970  136.0370 C   0  0  0  0  0  1  0  0  0  0  0  0
  182.3280  174.9250  137.6550 C   0  0  0  0  0  0  0  0  0  0  0  0
  1 36  1  1  0  0  0
  1  8  1  0  0  0  0
  2 12  2  0  0  0  0
  3  9  1  6  0  0  0
  3  1  1  0  0  0  0
  4 13  1  1  0  0  0
  5  7  2  0  0  0  0
  7 11  1  0  0  0  0
  8  4  1  0  0  0  0
 10  5  1  0  0  0  0
 11  4  1  0  0  0  0
 12  6  2  0  0  0  0
 12 10  1  0  0  0  0
 12  3  1  0  0  0  0
 13 14  1  0  0  0  0
 15 10  1  0  0  0  0
 16 24  1  6  0  0  0
 17 32  1  6  0  0  0
 17 21  1  0  0  0  0
 17 27  1  0  0  0  0
 19 16  1  0  0  0  0
 20 29  1  0  0  0  0
 20 18  1  0  0  0  0
 21 27  1  0  0  0  0
 22 31  1  6  0  0  0
 22 32  1  0  0  0  0
 23 26  1  0  0  0  0
 23 18  2  0  0  0  0
 25 18  1  6  0  0  0
 25 17  1  0  0  0  0
 25 16  1  0  0  0  0
 26 28  1  0  0  0  0
 28 19  1  0  0  0  0
 28 15  1  1  0  0  0
 29 35  1  6  0  0  0
 29 22  1  0  0  0  0
 30 26  2  0  0  0  0
 31 29  1  0  0  0  0
 35 33  1  1  0  0  0
 35 34  1  0  0  0  0
 37 36  1  0  0  0  0
 37 38  1  0  0  0  0
 39 38  1  0  0  0  0
 39 40  1  0  0  0  0
 40 41  1  0  0  0  0
 41 42  1  0  0  0  0
 42 43  1  0  0  0  0
 43 44  2  0  0  0  0
 46 47  1  0  0  0  0
 47 45  1  1  0  0  0
 48 43  1  6  0  0  0
 48 46  1  0  0  0  0
 48 47  1  0  0  0  0
 49 39  1  0  0  0  0
 50 49  1  0  0  0  0
 51 53  1  0  0  0  0
 51 50  1  0  0  0  0
 53 52  1  0  0  0  0
 54 53  1  0  0  0  0
 55 62  2  0  0  0  0
 57 54  1  6  0  0  0
 57 56  1  0  0  0  0
 58 61  1  6  0  0  0
 58 62  1  0  0  0  0
 58 60  1  0  0  0  0
 60 59  2  0  0  0  0
 60 56  1  0  0  0  0
 62 57  1  0  0  0  0
M  END
>  <MODEL>
7

>  <REMARK>
 VINA RESULT:      -4.3      3.773      9.811
  Name = 
  18 active torsions:
  status: ('A' for Active; 'I' for Inactive)
    1  A    between atoms: C_4  and  O_7
    2  A    between atoms: C_4  and  N_56
    3  A    between atoms: N_5  and  C_47
    4  A    between atoms: O_7  and  C_55
    5  A    between atoms: C_10  and  C_38
    6  A    between atoms: C_13  and  C_47
    7  A    between atoms: C_13  and  N_56
    8  A    between atoms: C_18  and  C_59
    9  A    between atoms: N_19  and  C_38
   10  A    between atoms: N_19  and  C_55
   11  A    between atoms: C_21  and  C_61
   12  A    between atoms: C_26  and  N_32
   13  A    between atoms: C_29  and  C_45
   14  A    between atoms: C_31  and  C_37
   15  A    between atoms: C_31  and  C_59
   16  A    between atoms: C_37  and  N_56
   17  A    between atoms: C_41  and  C_52
   18  A    between atoms: C_52  and  N_53
                            x       y       z     vdW  Elec       q    Type
                         _______ _______ _______ _____ _____    ______ ____

>  <TORSDO>
F 18

$$$$
=
 OpenBabel11062416403D

 62 68  0  0  1  0  0  0  0  0999 V2000
  187.6640  177.5230  136.8910 C   0  0  2  0  0  3  0  0  0  0  0  0
  191.4720  177.5410  138.1560 O   0  0  0  0  0  0  0  0  0  0  0  0
  189.1710  177.8400  136.7940 C   0  0  1  0  0  3  0  0  0  0  0  0
  186.1990  175.6800  135.9820 C   0  0  2  0  0  3  0  0  0  0  0  0
  189.2720  174.6340  136.7060 C   0  0  0  0  0  3  0  0  0  0  0  0
  189.4290  176.8390  139.3100 O   0  0  0  0  0  0  0  0  0  0  0  0
  188.0610  174.6330  137.2470 C   0  0  0  0  0  3  0  0  0  0  0  0
  187.1590  176.8330  135.6220 C   0  0  0  0  0  2  0  0  0  0  0  0
  189.4340  179.2050  136.9610 O   0  0  0  0  0  1  0  0  0  0  0  0
  190.3580  175.2660  137.3840 N   0  0  0  0  0  0  0  0  0  0  0  0
  186.8860  174.3570  136.3880 C   0  0  0  0  0  2  0  0  0  0  0  0
  190.1290  176.8850  137.9800 S   0  0  0  0  0  0  0  0  0  0  0  0
  185.2380  175.4580  134.9010 N   0  0  0  0  0  2  0  0  0  0  0  0
  184.4710  176.5700  134.7780 O   0  0  0  0  0  1  0  0  0  0  0  0
  191.7010  174.7140  137.2680 C   0  0  0  0  0  2  0  0  0  0  0  0
  194.1230  174.3400  135.4660 C   0  0  1  0  0  3  0  0  0  0  0  0
  194.4720  171.9720  136.4860 C   0  0  2  0  0  0  0  0  0  0  0  0
  195.3510  174.0760  137.7110 C   0  0  0  0  0  0  0  0  0  0  0  0
  193.7010  176.0850  135.8490 S   0  0  0  0  0  0  0  0  0  0  0  0
  196.6830  173.6390  137.8320 O   0  0  0  0  0  0  0  0  0  0  0  0
  193.1990  171.3690  136.5010 O   0  0  0  0  0  0  0  0  0  0  0  0
  196.8600  171.3950  136.5850 C   0  0  1  0  0  3  0  0  0  0  0  0
  194.9500  174.9920  138.5410 N   0  0  0  0  0  0  0  0  0  0  0  0
  195.2070  174.2990  134.5960 O   0  0  0  0  0  1  0  0  0  0  0  0
  194.3860  173.4870  136.7080 C   0  0  1  0  0  3  0  0  0  0  0  0
  193.6640  175.6360  138.5990 C   0  0  0  0  0  0  0  0  0  0  0  0
  193.8790  171.3850  135.2630 C   0  0  0  0  0  2  0  0  0  0  0  0
  192.7640  175.8030  137.4020 C   0  0  2  0  0  3  0  0  0  0  0  0
  197.3950  172.7820  136.9300 C   0  0  2  0  0  0  0  0  0  0  0  0
  193.2940  176.1260  139.6990 O   0  0  0  0  0  0  0  0  0  0  0  0
  197.9210  171.5620  137.6550 C   0  0  0  0  0  2  0  0  0  0  0  0
  195.5070  171.1360  137.2170 C   0  0  0  0  0  2  0  0  0  0  0  0
  198.5500  174.9010  136.2390 C   0  0  0  0  0  1  0  0  0  0  0  0
  198.1820  173.1300  134.6970 O   0  0  0  0  0  1  0  0  0  0  0  0
  198.4610  173.4000  136.0320 C   0  0  2  0  0  3  0  0  0  0  0  0
  186.7880  178.7200  137.2340 C   0  0  0  0  0  2  0  0  0  0  0  0
  185.5130  178.2310  137.8970 C   0  0  0  0  0  2  0  0  0  0  0  0
  185.6740  178.2110  139.4170 C   0  0  0  0  0  2  0  0  0  0  0  0
  184.4730  178.6260  140.1580 N   0  0  0  0  0  0  0  0  0  0  0  0
  184.8180  179.2660  141.4260 C   0  0  0  0  0  2  0  0  0  0  0  0
  186.1740  178.7850  141.8970 C   0  0  0  0  0  2  0  0  0  0  0  0
  186.0560  178.2260  143.2360 N   0  0  0  0  0  2  0  0  0  0  0  0
  187.1610  177.6090  143.8980 C   0  0  0  0  0  0  0  0  0  0  0  0
  188.2560  177.4500  143.2950 O   0  0  0  0  0  0  0  0  0  0  0  0
  188.2880  176.8840  147.3860 C   0  0  0  0  0  1  0  0  0  0  0  0
  186.5330  178.1750  146.2290 C   0  0  0  0  0  2  0  0  0  0  0  0
  187.9930  177.7840  146.2040 C   0  0  2  0  0  3  0  0  0  0  0  0
  187.0070  177.0830  145.2880 C   0  0  2  0  0  3  0  0  0  0  0  0
  183.5550  177.4980  140.3440 C   0  0  0  0  0  2  0  0  0  0  0  0
  182.2180  177.9160  140.4320 O   0  0  0  0  0  0  0  0  0  0  0  0
  181.9220  178.4360  139.1700 C   0  0  0  0  0  2  0  0  0  0  0  0
  182.3560  180.6020  138.6790 O   0  0  0  0  0  1  0  0  0  0  0  0
  181.4440  179.8070  139.2880 N   0  0  0  0  0  0  0  0  0  0  0  0
  180.2100  179.9210  138.5260 C   0  0  0  0  0  2  0  0  0  0  0  0
  179.1510  181.9300  140.5210 O   0  0  0  0  0  0  0  0  0  0  0  0
  178.9310  178.4710  140.0290 N   0  0  0  0  0  2  0  0  0  0  0  0
  178.9870  179.7980  139.4340 C   0  0  1  0  0  3  0  0  0  0  0  0
  179.1870  179.9880  141.9180 C   0  0  1  0  0  3  0  0  0  0  0  0
  178.9920  177.5890  142.2030 O   0  0  0  0  0  0  0  0  0  0  0  0
  179.0380  178.5890  141.4390 C   0  0  0  0  0  0  0  0  0  0  0  0
  180.5550  180.1750  142.5560 C   0  0  0  0  0  1  0  0  0  0  0  0
  179.1300  180.7110  140.6120 C   0  0  0  0  0  0  0  0  0  0  0  0
  1 36  1  6  0  0  0
  3  1  1  0  0  0  0
  3  9  1  1  0  0  0
  3 12  1  0  0  0  0
  4 13  1  6  0  0  0
  4 11  1  0  0  0  0
  5  7  2  0  0  0  0
  5 10  1  0  0  0  0
  8  4  1  0  0  0  0
  8  1  1  0  0  0  0
 10 12  1  0  0  0  0
 11  7  1  0  0  0  0
 12  2  2  0  0  0  0
 12  6  2  0  0  0  0
 14 13  1  0  0  0  0
 15 10  1  0  0  0  0
 16 24  1  6  0  0  0
 16 19  1  0  0  0  0
 16 25  1  0  0  0  0
 17 27  1  6  0  0  0
 17 21  1  0  0  0  0
 17 25  1  0  0  0  0
 17 32  1  0  0  0  0
 18 20  1  0  0  0  0
 18 23  2  0  0  0  0
 19 28  1  0  0  0  0
 22 29  1  0  0  0  0
 22 32  1  1  0  0  0
 22 31  1  0  0  0  0
 23 26  1  0  0  0  0
 25 18  1  6  0  0  0
 26 30  2  0  0  0  0
 27 21  1  0  0  0  0
 28 15  1  6  0  0  0
 28 26  1  0  0  0  0
 29 35  1  6  0  0  0
 29 31  1  0  0  0  0
 29 20  1  0  0  0  0
 34 35  1  0  0  0  0
 35 33  1  6  0  0  0
 36 37  1  0  0  0  0
 37 38  1  0  0  0  0
 38 39  1  0  0  0  0
 39 49  1  0  0  0  0
 39 40  1  0  0  0  0
 40 41  1  0  0  0  0
 41 42  1  0  0  0  0
 42 43  1  0  0  0  0
 44 43  2  0  0  0  0
 47 46  1  0  0  0  0
 47 45  1  1  0  0  0
 48 43  1  6  0  0  0
 48 47  1  0  0  0  0
 48 46  1  0  0  0  0
 49 50  1  0  0  0  0
 51 53  1  0  0  0  0
 51 50  1  0  0  0  0
 52 53  1  0  0  0  0
 54 53  1  0  0  0  0
 55 62  2  0  0  0  0
 56 60  1  0  0  0  0
 57 54  1  6  0  0  0
 57 56  1  0  0  0  0
 57 62  1  0  0  0  0
 58 61  1  6  0  0  0
 60 58  1  0  0  0  0
 60 59  2  0  0  0  0
 62 58  1  0  0  0  0
M  END
>  <MODEL>
8

>  <REMARK>
 VINA RESULT:      -4.3      3.947      9.469
  Name = 
  18 active torsions:
  status: ('A' for Active; 'I' for Inactive)
    1  A    between atoms: C_4  and  O_7
    2  A    between atoms: C_4  and  N_56
    3  A    between atoms: N_5  and  C_47
    4  A    between atoms: O_7  and  C_55
    5  A    between atoms: C_10  and  C_38
    6  A    between atoms: C_13  and  C_47
    7  A    between atoms: C_13  and  N_56
    8  A    between atoms: C_18  and  C_59
    9  A    between atoms: N_19  and  C_38
   10  A    between atoms: N_19  and  C_55
   11  A    between atoms: C_21  and  C_61
   12  A    between atoms: C_26  and  N_32
   13  A    between atoms: C_29  and  C_45
   14  A    between atoms: C_31  and  C_37
   15  A    between atoms: C_31  and  C_59
   16  A    between atoms: C_37  and  N_56
   17  A    between atoms: C_41  and  C_52
   18  A    between atoms: C_52  and  N_53
                            x       y       z     vdW  Elec       q    Type
                         _______ _______ _______ _____ _____    ______ ____

>  <TORSDO>
F 18

$$$$
=
 OpenBabel11062416403D

 62 68  0  0  1  0  0  0  0  0999 V2000
  186.6920  178.5260  140.4020 C   0  0  2  0  0  3  0  0  0  0  0  0
  186.7890  177.8360  136.4500 O   0  0  0  0  0  0  0  0  0  0  0  0
  186.7940  178.9190  138.9130 C   0  0  1  0  0  3  0  0  0  0  0  0
  184.8040  178.4750  142.0760 C   0  0  2  0  0  3  0  0  0  0  0  0
  183.7940  177.7820  138.9840 C   0  0  0  0  0  3  0  0  0  0  0  0
  186.7820  176.2630  138.3270 O   0  0  0  0  0  0  0  0  0  0  0  0
  184.1190  177.1390  140.0970 C   0  0  0  0  0  3  0  0  0  0  0  0
  185.6350  179.3620  141.1260 C   0  0  0  0  0  2  0  0  0  0  0  0
  188.0880  179.3210  138.5600 O   0  0  0  0  0  1  0  0  0  0  0  0
  184.5180  177.5350  137.7780 N   0  0  0  0  0  0  0  0  0  0  0  0
  183.6650  177.6780  141.4010 C   0  0  0  0  0  2  0  0  0  0  0  0
  186.2560  177.5820  137.8340 S   0  0  0  0  0  0  0  0  0  0  0  0
  184.2950  179.2630  143.1990 N   0  0  0  0  0  2  0  0  0  0  0  0
  182.9610  179.0380  143.3050 O   0  0  0  0  0  1  0  0  0  0  0  0
  183.8270  177.5910  136.4960 C   0  0  0  0  0  2  0  0  0  0  0  0
  181.1750  176.2960  135.7600 C   0  0  1  0  0  3  0  0  0  0  0  0
  180.4910  176.3530  138.2690 C   0  0  2  0  0  0  0  0  0  0  0  0
  181.9960  174.4560  137.3580 C   0  0  0  0  0  0  0  0  0  0  0  0
  182.5520  175.9630  134.5940 S   0  0  0  0  0  0  0  0  0  0  0  0
  181.1940  173.3910  137.8100 O   0  0  0  0  0  0  0  0  0  0  0  0
  180.8210  177.6440  138.7280 O   0  0  0  0  0  0  0  0  0  0  0  0
  179.0770  174.4260  138.8450 C   0  0  1  0  0  3  0  0  0  0  0  0
  183.2480  174.1960  137.1220 N   0  0  0  0  0  0  0  0  0  0  0  0
  180.0080  175.7010  135.2910 O   0  0  0  0  0  1  0  0  0  0  0  0
  181.4710  175.8630  137.1970 C   0  0  1  0  0  3  0  0  0  0  0  0
  184.2580  175.0860  136.6150 C   0  0  0  0  0  0  0  0  0  0  0  0
  179.6280  177.5220  137.9820 C   0  0  0  0  0  2  0  0  0  0  0  0
  183.9560  176.2720  135.7360 C   0  0  2  0  0  3  0  0  0  0  0  0
  179.7680  173.3900  137.9630 C   0  0  2  0  0  0  0  0  0  0  0  0
  185.4630  174.8320  136.8820 O   0  0  0  0  0  0  0  0  0  0  0  0
  179.3840  173.0430  139.3850 C   0  0  0  0  0  2  0  0  0  0  0  0
  180.0550  175.4400  139.4010 C   0  0  0  0  0  2  0  0  0  0  0  0
  179.1820  171.1200  137.0670 C   0  0  0  0  0  1  0  0  0  0  0  0
  179.2220  173.0360  135.6610 O   0  0  0  0  0  1  0  0  0  0  0  0
  178.9320  172.6130  136.9530 C   0  0  2  0  0  3  0  0  0  0  0  0
  188.0140  178.5650  141.1560 C   0  0  0  0  0  2  0  0  0  0  0  0
  188.9100  177.4490  140.6500 C   0  0  0  0  0  2  0  0  0  0  0  0
  190.1160  178.0270  139.9100 C   0  0  0  0  0  2  0  0  0  0  0  0
  191.4160  177.5360  140.3950 N   0  0  0  0  0  0  0  0  0  0  0  0
  191.9310  176.4570  139.5550 C   0  0  0  0  0  2  0  0  0  0  0  0
  193.2920  176.8340  139.0060 C   0  0  0  0  0  2  0  0  0  0  0  0
  193.5020  176.1710  137.7280 N   0  0  0  0  0  2  0  0  0  0  0  0
  194.2880  174.9830  137.6130 C   0  0  0  0  0  0  0  0  0  0  0  0
  194.9000  174.5250  138.6150 O   0  0  0  0  0  0  0  0  0  0  0  0
  194.9650  172.0930  135.3430 C   0  0  0  0  0  1  0  0  0  0  0  0
  193.1410  173.6760  135.8440 C   0  0  0  0  0  2  0  0  0  0  0  0
  194.2280  172.8180  136.4500 C   0  0  2  0  0  3  0  0  0  0  0  0
  194.4460  174.3110  136.2880 C   0  0  2  0  0  3  0  0  0  0  0  0
  191.3350  177.1450  141.8050 C   0  0  0  0  0  2  0  0  0  0  0  0
  192.2030  177.8980  142.6110 O   0  0  0  0  0  0  0  0  0  0  0  0
  191.4180  178.3100  143.6920 C   0  0  0  0  0  2  0  0  0  0  0  0
  190.9330  176.4760  144.9250 O   0  0  0  0  0  1  0  0  0  0  0  0
  190.4070  177.3060  143.9930 N   0  0  0  0  0  0  0  0  0  0  0  0
  189.2770  177.9790  144.6150 C   0  0  0  0  0  2  0  0  0  0  0  0
  186.4200  177.0170  144.8480 O   0  0  0  0  0  0  0  0  0  0  0  0
  189.1100  177.5560  147.0220 N   0  0  0  0  0  2  0  0  0  0  0  0
  188.6560  177.1140  145.7120 C   0  0  1  0  0  3  0  0  0  0  0  0
  186.7010  177.9130  147.0480 C   0  0  1  0  0  3  0  0  0  0  0  0
  188.1030  178.4140  148.9600 O   0  0  0  0  0  0  0  0  0  0  0  0
  187.9930  178.0010  147.7760 C   0  0  0  0  0  0  0  0  0  0  0  0
  186.1410  179.3080  146.8130 C   0  0  0  0  0  1  0  0  0  0  0  0
  187.1740  177.3300  145.7570 C   0  0  0  0  0  0  0  0  0  0  0  0
  1  8  1  0  0  0  0
  1 36  1  1  0  0  0
  2 12  2  0  0  0  0
  3  9  1  6  0  0  0
  3  1  1  0  0  0  0
  4 13  1  1  0  0  0
  5  7  2  0  0  0  0
  7 11  1  0  0  0  0
  8  4  1  0  0  0  0
 10 12  1  0  0  0  0
 10  5  1  0  0  0  0
 11  4  1  0  0  0  0
 12  6  2  0  0  0  0
 12  3  1  0  0  0  0
 13 14  1  0  0  0  0
 15 10  1  0  0  0  0
 16 24  1  6  0  0  0
 16 25  1  0  0  0  0
 17 27  1  6  0  0  0
 17 21  1  0  0  0  0
 17 32  1  0  0  0  0
 18 20  1  0  0  0  0
 19 28  1  0  0  0  0
 19 16  1  0  0  0  0
 20 29  1  0  0  0  0
 22 31  1  1  0  0  0
 22 32  1  0  0  0  0
 23 18  2  0  0  0  0
 25 18  1  6  0  0  0
 25 17  1  0  0  0  0
 26 30  2  0  0  0  0
 26 23  1  0  0  0  0
 27 21  1  0  0  0  0
 28 15  1  1  0  0  0
 28 26  1  0  0  0  0
 29 35  1  6  0  0  0
 29 22  1  0  0  0  0
 29 31  1  0  0  0  0
 34 35  1  0  0  0  0
 35 33  1  6  0  0  0
 37 36  1  0  0  0  0
 38 39  1  0  0  0  0
 38 37  1  0  0  0  0
 39 49  1  0  0  0  0
 40 39  1  0  0  0  0
 41 40  1  0  0  0  0
 42 41  1  0  0  0  0
 43 42  1  0  0  0  0
 43 44  2  0  0  0  0
 46 48  1  0  0  0  0
 46 47  1  0  0  0  0
 47 45  1  6  0  0  0
 48 47  1  0  0  0  0
 48 43  1  1  0  0  0
 49 50  1  0  0  0  0
 50 51  1  0  0  0  0
 51 53  1  0  0  0  0
 53 54  1  0  0  0  0
 53 52  1  0  0  0  0
 55 62  2  0  0  0  0
 56 60  1  0  0  0  0
 57 54  1  6  0  0  0
 57 62  1  0  0  0  0
 57 56  1  0  0  0  0
 58 61  1  6  0  0  0
 58 60  1  0  0  0  0
 60 59  2  0  0  0  0
 62 58  1  0  0  0  0
M  END
>  <MODEL>
9

>  <REMARK>
 VINA RESULT:      -3.9      2.341      5.938
  Name = 
  18 active torsions:
  status: ('A' for Active; 'I' for Inactive)
    1  A    between atoms: C_4  and  O_7
    2  A    between atoms: C_4  and  N_56
    3  A    between atoms: N_5  and  C_47
    4  A    between atoms: O_7  and  C_55
    5  A    between atoms: C_10  and  C_38
    6  A    between atoms: C_13  and  C_47
    7  A    between atoms: C_13  and  N_56
    8  A    between atoms: C_18  and  C_59
    9  A    between atoms: N_19  and  C_38
   10  A    between atoms: N_19  and  C_55
   11  A    between atoms: C_21  and  C_61
   12  A    between atoms: C_26  and  N_32
   13  A    between atoms: C_29  and  C_45
   14  A    between atoms: C_31  and  C_37
   15  A    between atoms: C_31  and  C_59
   16  A    between atoms: C_37  and  N_56
   17  A    between atoms: C_41  and  C_52
   18  A    between atoms: C_52  and  N_53
                            x       y       z     vdW  Elec       q    Type
                         _______ _______ _______ _____ _____    ______ ____

>  <TORSDO>
F 18

$$$$
