=
 OpenBabel11062417203D

 60 64  0  0  1  0  0  0  0  0999 V2000
  186.9330  178.0480  144.3220 C   0  0  1  0  0  3  0  0  0  0  0  0
  190.2170  175.9790  142.2840 C   0  0  0  0  0  3  0  0  0  0  0  0
  189.6400  177.7560  145.2480 O   0  0  0  0  0  0  0  0  0  0  0  0
  189.7030  177.3930  140.3890 C   0  0  0  0  0  0  0  0  0  0  0  0
  186.3410  177.7270  146.6330 O   0  0  0  0  0  0  0  0  0  0  0  0
  188.7570  177.8980  142.5710 C   0  0  0  0  0  0  0  0  0  0  0  0
  187.8530  178.6810  143.3720 N   0  0  0  0  0  2  0  0  0  0  0  0
  188.6710  177.7460  146.2490 C   0  0  2  0  0  3  0  0  0  0  0  0
  184.6260  178.5210  145.1750 C   0  0  0  0  0  0  0  0  0  0  0  0
  187.3150  178.3150  145.8030 C   0  0  1  0  0  3  0  0  0  0  0  0
  183.3860  178.6820  144.9770 O   0  0  0  0  0  0  0  0  0  0  0  0
  185.5460  178.4830  144.0690 N   0  0  0  0  0  0  0  0  0  0  0  0
  189.4610  176.8020  143.1120 C   0  0  0  0  0  0  0  0  0  0  0  0
  189.4850  176.5380  144.5800 C   0  0  0  0  0  2  0  0  0  0  0  0
  188.9150  178.2130  141.2110 C   0  0  0  0  0  3  0  0  0  0  0  0
  185.1780  178.5140  146.5760 C   0  0  1  0  0  3  0  0  0  0  0  0
  189.1320  178.4900  147.3330 O   0  0  0  0  0  1  0  0  0  0  0  0
  190.3260  176.2690  140.9280 C   0  0  0  0  0  3  0  0  0  0  0  0
  184.2240  178.0030  147.4670 O   0  0  0  0  0  1  0  0  0  0  0  0
  185.1380  179.1610  142.8370 C   0  0  0  0  0  2  0  0  0  0  0  0
  184.4170  178.2190  141.8680 C   0  0  0  0  0  2  0  0  0  0  0  0
  183.7270  178.9990  140.7490 C   0  0  0  0  0  2  0  0  0  0  0  0
  182.4360  178.3300  140.2730 C   0  0  0  0  0  2  0  0  0  0  0  0
  180.2740  178.0700  140.9130 O   0  0  0  0  0  1  0  0  0  0  0  0
  181.2840  178.9780  140.8910 N   0  0  0  0  0  0  0  0  0  0  0  0
  180.8670  180.0540  140.0000 C   0  0  0  0  0  2  0  0  0  0  0  0
  179.6070  179.7590  139.4670 O   0  0  0  0  0  0  0  0  0  0  0  0
  179.2660  180.8760  138.7050 C   0  0  0  0  0  2  0  0  0  0  0  0
  179.0030  181.0740  135.8650 O   0  0  0  0  0  0  0  0  0  0  0  0
  180.8660  179.3220  136.9140 O   0  0  0  0  0  1  0  0  0  0  0  0
  180.1230  180.8240  137.1100 P   0  0  0  0  0  0  0  0  0  0  0  0
  181.1690  181.9130  137.0660 O   0  0  0  0  0  1  0  0  0  0  0  0
  189.8810  177.7000  139.0400 O   0  0  0  0  0  0  0  0  0  0  0  0
  189.2360  176.9570  138.0150 C   0  0  2  0  0  3  0  0  0  0  0  0
  188.0570  174.7150  135.1120 C   0  0  0  0  0  2  0  0  0  0  0  0
  190.1290  174.9050  135.5950 C   0  0  2  0  0  0  0  0  0  0  0  0
  190.4280  176.3120  136.7580 P   0  0  0  0  0  0  0  0  0  0  0  0
  191.6390  177.3650  136.2530 O   0  0  0  0  0  1  0  0  0  0  0  0
  189.1870  175.6430  134.6810 C   0  0  2  0  0  3  0  0  0  0  0  0
  189.2420  176.9040  135.5040 C   0  0  0  0  0  2  0  0  0  0  0  0
  189.0320  173.9120  135.9570 C   0  0  2  0  0  3  0  0  0  0  0  0
  191.2750  174.4270  134.8750 O   0  0  0  0  0  0  0  0  0  0  0  0
  193.6350  174.4480  135.3160 O   0  0  0  0  0  0  0  0  0  0  0  0
  192.4020  173.8270  135.4460 C   0  0  0  0  0  0  0  0  0  0  0  0
  192.3240  172.7270  136.0580 O   0  0  0  0  0  1  0  0  0  0  0  0
  191.5060  175.5060  137.9860 C   0  0  0  0  0  2  0  0  0  0  0  0
  192.9730  176.6660  139.1490 C   0  0  0  0  0  1  0  0  0  0  0  0
  192.8050  176.0100  137.9300 O   0  0  0  0  0  0  0  0  0  0  0  0
  189.1770  172.4530  135.4440 C   0  0  0  0  0  2  0  0  0  0  0  0
  188.1220  170.3650  135.1500 O   0  0  0  0  0  0  0  0  0  0  0  0
  188.0170  171.4920  135.5930 C   0  0  0  0  0  0  0  0  0  0  0  0
  186.7710  171.8240  136.3490 C   0  0  0  0  0  1  0  0  0  0  0  0
  188.1530  177.8330  137.3810 C   0  0  0  0  0  2  0  0  0  0  0  0
  186.6590  178.7070  139.0420 O   0  0  0  0  0  1  0  0  0  0  0  0
  186.8130  177.6940  138.0880 C   0  0  1  0  0  3  0  0  0  0  0  0
  185.6490  177.6950  137.0980 C   0  0  0  0  0  2  0  0  0  0  0  0
  185.4100  176.3890  136.3180 C   0  0  2  0  0  3  0  0  0  0  0  0
  184.6460  176.7300  135.0380 C   0  0  0  0  0  1  0  0  0  0  0  0
  184.6510  175.3240  137.1100 C   0  0  0  0  0  2  0  0  0  0  0  0
  183.6460  175.8930  137.9010 O   0  0  0  0  0  1  0  0  0  0  0  0
  1  7  1  6  0  0  0
  1 10  1  0  0  0  0
  2 13  1  0  0  0  0
  3  8  1  0  0  0  0
  4 18  1  0  0  0  0
  4 15  2  0  0  0  0
  6 13  2  0  0  0  0
  6  7  1  0  0  0  0
  8 17  1  1  0  0  0
  9 16  1  0  0  0  0
 10  8  1  0  0  0  0
 10  5  1  1  0  0  0
 11  9  2  0  0  0  0
 12  1  1  0  0  0  0
 12  9  1  0  0  0  0
 13 14  1  0  0  0  0
 14  3  1  0  0  0  0
 15  6  1  0  0  0  0
 16  5  1  0  0  0  0
 16 19  1  1  0  0  0
 18  2  2  0  0  0  0
 20 12  1  0  0  0  0
 21 20  1  0  0  0  0
 22 21  1  0  0  0  0
 23 22  1  0  0  0  0
 23 25  1  0  0  0  0
 25 24  1  0  0  0  0
 26 25  1  0  0  0  0
 27 26  1  0  0  0  0
 28 27  1  0  0  0  0
 29 31  2  0  0  0  0
 30 31  1  0  0  0  0
 31 28  1  0  0  0  0
 32 31  1  0  0  0  0
 33  4  1  0  0  0  0
 34 53  1  6  0  0  0
 34 33  1  0  0  0  0
 35 41  1  0  0  0  0
 36 42  1  6  0  0  0
 36 41  1  0  0  0  0
 36 37  1  0  0  0  0
 37 46  1  0  0  0  0
 37 34  1  0  0  0  0
 38 37  1  0  0  0  0
 39 35  1  1  0  0  0
 39 40  1  0  0  0  0
 39 36  1  0  0  0  0
 40 37  1  0  0  0  0
 41 49  1  6  0  0  0
 42 44  1  0  0  0  0
 43 44  2  0  0  0  0
 44 45  1  0  0  0  0
 48 46  1  0  0  0  0
 48 47  1  0  0  0  0
 49 51  1  0  0  0  0
 50 51  2  0  0  0  0
 51 52  1  0  0  0  0
 53 55  1  0  0  0  0
 55 54  1  1  0  0  0
 56 55  1  0  0  0  0
 57 58  1  6  0  0  0
 57 56  1  0  0  0  0
 57 59  1  0  0  0  0
 59 60  1  0  0  0  0
M  END
>  <MODEL>
1

>  <REMARK>
 VINA RESULT:      -5.0      0.000      0.000
  Name = 
  23 active torsions:
  status: ('A' for Active; 'I' for Inactive)
    1  A    between atoms: C_3  and  C_20
    2  A    between atoms: C_4  and  O_38
    3  A    between atoms: C_5  and  C_29
    4  A    between atoms: C_5  and  C_58
    5  A    between atoms: C_6  and  C_8
    6  A    between atoms: C_6  and  P_15
    7  A    between atoms: C_6  and  O_49
    8  A    between atoms: C_8  and  C_21
    9  A    between atoms: C_11  and  C_19
   10  A    between atoms: C_11  and  C_48
   11  A    between atoms: C_12  and  P_15
   12  A    between atoms: C_12  and  O_59
   13  A    between atoms: C_13  and  O_49
   14  A    between atoms: C_20  and  C_60
   15  A    between atoms: C_21  and  C_60
   16  A    between atoms: C_27  and  O_28
   17  A    between atoms: C_27  and  N_51
   18  A    between atoms: O_28  and  C_33
   19  A    between atoms: C_29  and  C_50
   20  A    between atoms: C_32  and  O_38
   21  A    between atoms: C_33  and  P_41
   22  A    between atoms: N_43  and  C_50
   23  A    between atoms: N_51  and  C_58
                            x       y       z     vdW  Elec       q    Type
                         _______ _______ _______ _____ _____    ______ ____

>  <TORSDO>
F 23

$$$$
=
 OpenBabel11062417203D

 60 64  0  0  1  0  0  0  0  0999 V2000
  183.3380  177.7890  137.5350 C   0  0  1  0  0  3  0  0  0  0  0  0
  184.6010  178.9890  141.5580 C   0  0  0  0  0  3  0  0  0  0  0  0
  182.7000  180.2410  138.8950 O   0  0  0  0  0  0  0  0  0  0  0  0
  186.8550  178.5470  140.7960 C   0  0  0  0  0  0  0  0  0  0  0  0
  181.0760  177.9090  136.7200 O   0  0  0  0  0  0  0  0  0  0  0  0
  185.0350  178.6840  139.1880 C   0  0  0  0  0  0  0  0  0  0  0  0
  184.5700  178.5240  137.8360 N   0  0  0  0  0  2  0  0  0  0  0  0
  181.6950  179.7500  138.0640 C   0  0  2  0  0  3  0  0  0  0  0  0
  182.5260  176.3330  135.6650 C   0  0  0  0  0  0  0  0  0  0  0  0
  182.1880  178.7100  137.0450 C   0  0  1  0  0  3  0  0  0  0  0  0
  182.6300  175.2960  134.9470 O   0  0  0  0  0  0  0  0  0  0  0  0
  183.5960  176.7280  136.5430 N   0  0  0  0  0  0  0  0  0  0  0  0
  184.1470  178.9790  140.2430 C   0  0  0  0  0  0  0  0  0  0  0  0
  182.7300  179.3660  139.9850 C   0  0  0  0  0  2  0  0  0  0  0  0
  186.4000  178.5070  139.4680 C   0  0  0  0  0  3  0  0  0  0  0  0
  181.3440  177.2530  135.5060 C   0  0  1  0  0  3  0  0  0  0  0  0
  181.1200  180.8130  137.3720 O   0  0  0  0  0  1  0  0  0  0  0  0
  185.9450  178.7610  141.8310 C   0  0  0  0  0  3  0  0  0  0  0  0
  180.2150  176.5230  135.1110 O   0  0  0  0  0  1  0  0  0  0  0  0
  184.9450  176.2740  136.1960 C   0  0  0  0  0  2  0  0  0  0  0  0
  185.5650  175.4050  137.2950 C   0  0  0  0  0  2  0  0  0  0  0  0
  185.9830  174.0390  136.7510 C   0  0  0  0  0  2  0  0  0  0  0  0
  185.1520  172.8940  137.3310 C   0  0  0  0  0  2  0  0  0  0  0  0
  185.4690  172.1860  135.1990 O   0  0  0  0  0  1  0  0  0  0  0  0
  185.2280  171.7310  136.4550 N   0  0  0  0  0  0  0  0  0  0  0  0
  183.9060  171.1180  136.4370 C   0  0  0  0  0  2  0  0  0  0  0  0
  182.9440  172.0880  136.1360 O   0  0  0  0  0  0  0  0  0  0  0  0
  181.9240  171.8880  137.0670 C   0  0  0  0  0  2  0  0  0  0  0  0
  179.0840  172.0360  137.3590 O   0  0  0  0  0  1  0  0  0  0  0  0
  180.1440  170.3240  135.4640 O   0  0  0  0  0  1  0  0  0  0  0  0
  180.3220  171.8200  136.2240 P   0  0  0  0  0  0  0  0  0  0  0  0
  180.2500  172.9210  135.1920 O   0  0  0  0  0  0  0  0  0  0  0  0
  188.2090  178.3870  141.0890 O   0  0  0  0  0  0  0  0  0  0  0  0
  188.7220  177.1630  141.5960 C   0  0  2  0  0  3  0  0  0  0  0  0
  186.1870  176.8900  144.4840 C   0  0  0  0  0  2  0  0  0  0  0  0
  188.1620  177.6340  144.8090 C   0  0  2  0  0  0  0  0  0  0  0  0
  189.2600  177.3020  143.3580 P   0  0  0  0  0  0  0  0  0  0  0  0
  190.7190  176.5670  143.7650 O   0  0  0  0  0  1  0  0  0  0  0  0
  187.5290  176.2690  144.8550 C   0  0  2  0  0  3  0  0  0  0  0  0
  188.2910  175.7820  143.6500 C   0  0  0  0  0  2  0  0  0  0  0  0
  186.8070  178.2760  144.5360 C   0  0  2  0  0  3  0  0  0  0  0  0
  188.8250  177.9360  146.0470 O   0  0  0  0  0  0  0  0  0  0  0  0
  188.2760  176.7400  148.0550 O   0  0  0  0  0  1  0  0  0  0  0  0
  189.1730  177.0060  147.0300 C   0  0  0  0  0  0  0  0  0  0  0  0
  190.2890  176.4190  147.0170 O   0  0  0  0  0  0  0  0  0  0  0  0
  190.0320  178.9380  143.1420 C   0  0  0  0  0  2  0  0  0  0  0  0
  191.6010  179.8140  144.4160 C   0  0  0  0  0  1  0  0  0  0  0  0
  191.4030  178.8890  143.3910 O   0  0  0  0  0  0  0  0  0  0  0  0
  186.1790  179.1490  145.6570 C   0  0  0  0  0  2  0  0  0  0  0  0
  184.9540  178.3840  147.5200 O   0  0  0  0  0  0  0  0  0  0  0  0
  184.9120  178.6840  146.3410 C   0  0  0  0  0  0  0  0  0  0  0  0
  183.5780  178.6620  145.6690 C   0  0  0  0  0  1  0  0  0  0  0  0
  189.8590  176.6950  140.6850 C   0  0  0  0  0  2  0  0  0  0  0  0
  191.2490  177.8130  139.0820 O   0  0  0  0  0  1  0  0  0  0  0  0
  189.9230  177.4890  139.3880 C   0  0  1  0  0  3  0  0  0  0  0  0
  189.2640  176.7380  138.2330 C   0  0  0  0  0  2  0  0  0  0  0  0
  189.5770  177.2480  136.8140 C   0  0  2  0  0  3  0  0  0  0  0  0
  188.3510  178.0010  136.2940 C   0  0  0  0  0  1  0  0  0  0  0  0
  189.9680  176.1450  135.8290 C   0  0  0  0  0  2  0  0  0  0  0  0
  189.7730  174.8740  136.3820 O   0  0  0  0  0  1  0  0  0  0  0  0
  1  7  1  6  0  0  0
  2 18  1  0  0  0  0
  3 14  1  0  0  0  0
  4 33  1  0  0  0  0
  4 18  2  0  0  0  0
  6 15  2  0  0  0  0
  6 13  1  0  0  0  0
  7  6  1  0  0  0  0
  8 17  1  6  0  0  0
  8  3  1  0  0  0  0
  9 12  1  0  0  0  0
 10  5  1  1  0  0  0
 10  1  1  0  0  0  0
 10  8  1  0  0  0  0
 11  9  2  0  0  0  0
 12  1  1  0  0  0  0
 13  2  2  0  0  0  0
 14 13  1  0  0  0  0
 15  4  1  0  0  0  0
 16 19  1  1  0  0  0
 16  9  1  0  0  0  0
 16  5  1  0  0  0  0
 20 12  1  0  0  0  0
 20 21  1  0  0  0  0
 22 21  1  0  0  0  0
 22 23  1  0  0  0  0
 24 25  1  0  0  0  0
 25 23  1  0  0  0  0
 26 25  1  0  0  0  0
 27 26  1  0  0  0  0
 27 28  1  0  0  0  0
 30 31  1  0  0  0  0
 31 28  1  0  0  0  0
 31 29  1  0  0  0  0
 32 31  2  0  0  0  0
 33 34  1  0  0  0  0
 34 53  1  6  0  0  0
 34 37  1  0  0  0  0
 35 41  1  0  0  0  0
 35 39  1  0  0  0  0
 36 39  1  0  0  0  0
 36 42  1  1  0  0  0
 37 40  1  0  0  0  0
 37 38  1  0  0  0  0
 37 36  1  0  0  0  0
 39 40  1  6  0  0  0
 41 36  1  0  0  0  0
 41 49  1  1  0  0  0
 42 44  1  0  0  0  0
 44 43  1  0  0  0  0
 45 44  2  0  0  0  0
 46 37  1  0  0  0  0
 46 48  1  0  0  0  0
 48 47  1  0  0  0  0
 49 51  1  0  0  0  0
 51 50  2  0  0  0  0
 52 51  1  0  0  0  0
 55 54  1  6  0  0  0
 55 53  1  0  0  0  0
 56 55  1  0  0  0  0
 57 58  1  6  0  0  0
 57 56  1  0  0  0  0
 59 60  1  0  0  0  0
 59 57  1  0  0  0  0
M  END
>  <MODEL>
2

>  <REMARK>
 VINA RESULT:      -4.9      3.183      8.859
  Name = 
  23 active torsions:
  status: ('A' for Active; 'I' for Inactive)
    1  A    between atoms: C_3  and  C_20
    2  A    between atoms: C_4  and  O_38
    3  A    between atoms: C_5  and  C_29
    4  A    between atoms: C_5  and  C_58
    5  A    between atoms: C_6  and  C_8
    6  A    between atoms: C_6  and  P_15
    7  A    between atoms: C_6  and  O_49
    8  A    between atoms: C_8  and  C_21
    9  A    between atoms: C_11  and  C_19
   10  A    between atoms: C_11  and  C_48
   11  A    between atoms: C_12  and  P_15
   12  A    between atoms: C_12  and  O_59
   13  A    between atoms: C_13  and  O_49
   14  A    between atoms: C_20  and  C_60
   15  A    between atoms: C_21  and  C_60
   16  A    between atoms: C_27  and  O_28
   17  A    between atoms: C_27  and  N_51
   18  A    between atoms: O_28  and  C_33
   19  A    between atoms: C_29  and  C_50
   20  A    between atoms: C_32  and  O_38
   21  A    between atoms: C_33  and  P_41
   22  A    between atoms: N_43  and  C_50
   23  A    between atoms: N_51  and  C_58
                            x       y       z     vdW  Elec       q    Type
                         _______ _______ _______ _____ _____    ______ ____

>  <TORSDO>
F 23

$$$$
=
 OpenBabel11062417203D

 60 64  0  0  1  0  0  0  0  0999 V2000
  188.7080  177.8900  144.7210 C   0  0  1  0  0  3  0  0  0  0  0  0
  184.8380  179.6040  143.5800 C   0  0  0  0  0  3  0  0  0  0  0  0
  186.1170  177.1420  145.7190 O   0  0  0  0  0  0  0  0  0  0  0  0
  185.4790  179.1000  141.3030 C   0  0  0  0  0  0  0  0  0  0  0  0
  189.4370  177.5500  146.9900 O   0  0  0  0  0  0  0  0  0  0  0  0
  186.7340  178.1480  143.1550 C   0  0  0  0  0  0  0  0  0  0  0  0
  187.8740  177.4020  143.6180 N   0  0  0  0  0  2  0  0  0  0  0  0
  187.1520  177.0620  146.6490 C   0  0  2  0  0  3  0  0  0  0  0  0
  191.1360  177.7690  145.3270 C   0  0  0  0  0  0  0  0  0  0  0  0
  188.5520  177.0480  146.0160 C   0  0  1  0  0  3  0  0  0  0  0  0
  192.3520  178.0110  145.0710 O   0  0  0  0  0  0  0  0  0  0  0  0
  190.1260  177.9410  144.3160 N   0  0  0  0  0  0  0  0  0  0  0  0
  185.8480  178.7740  144.0560 C   0  0  0  0  0  0  0  0  0  0  0  0
  185.9090  178.5100  145.5230 C   0  0  0  0  0  2  0  0  0  0  0  0
  186.5190  178.2830  141.7740 C   0  0  0  0  0  3  0  0  0  0  0  0
  190.7420  177.1590  146.6460 C   0  0  1  0  0  3  0  0  0  0  0  0
  186.9930  175.9030  147.4050 O   0  0  0  0  0  1  0  0  0  0  0  0
  184.6640  179.7730  142.2110 C   0  0  0  0  0  3  0  0  0  0  0  0
  191.6320  177.5650  147.6500 O   0  0  0  0  0  1  0  0  0  0  0  0
  190.5570  177.8500  142.9200 C   0  0  0  0  0  2  0  0  0  0  0  0
  190.4620  176.4210  142.3750 C   0  0  0  0  0  2  0  0  0  0  0  0
  190.2770  176.4190  140.8570 C   0  0  0  0  0  2  0  0  0  0  0  0
  191.4780  177.0070  140.1160 C   0  0  0  0  0  2  0  0  0  0  0  0
  190.9620  175.2510  138.7730 O   0  0  0  0  0  1  0  0  0  0  0  0
  191.5250  176.4880  138.7540 N   0  0  0  0  0  0  0  0  0  0  0  0
  192.9300  176.3080  138.4090 C   0  0  0  0  0  2  0  0  0  0  0  0
  193.0350  175.4700  137.2950 O   0  0  0  0  0  0  0  0  0  0  0  0
  194.2370  175.8290  136.6840 C   0  0  0  0  0  2  0  0  0  0  0  0
  194.6590  173.0740  137.3220 O   0  0  0  0  0  1  0  0  0  0  0  0
  196.5570  174.9290  138.0960 O   0  0  0  0  0  1  0  0  0  0  0  0
  195.4560  174.5050  136.8900 P   0  0  0  0  0  0  0  0  0  0  0  0
  196.1920  174.2920  135.5880 O   0  0  0  0  0  0  0  0  0  0  0  0
  185.2440  179.2330  139.9340 O   0  0  0  0  0  0  0  0  0  0  0  0
  184.7620  178.1490  139.1520 C   0  0  2  0  0  3  0  0  0  0  0  0
  183.7020  175.5760  136.4880 C   0  0  0  0  0  2  0  0  0  0  0  0
  185.6630  176.4220  136.4930 C   0  0  2  0  0  0  0  0  0  0  0  0
  185.7690  177.8810  137.6260 P   0  0  0  0  0  0  0  0  0  0  0  0
  186.4380  179.2490  136.9100 O   0  0  0  0  0  1  0  0  0  0  0  0
  184.3520  176.8010  135.8570 C   0  0  2  0  0  3  0  0  0  0  0  0
  184.2000  178.0370  136.7060 C   0  0  0  0  0  2  0  0  0  0  0  0
  185.0460  175.1430  137.0470 C   0  0  2  0  0  3  0  0  0  0  0  0
  186.7000  176.3110  135.5080 O   0  0  0  0  0  0  0  0  0  0  0  0
  188.5870  175.3100  136.6070 O   0  0  0  0  0  1  0  0  0  0  0  0
  188.0730  176.2920  135.7710 C   0  0  0  0  0  0  0  0  0  0  0  0
  188.8490  177.1580  135.2830 O   0  0  0  0  0  0  0  0  0  0  0  0
  187.2990  177.4880  138.5340 C   0  0  0  0  0  2  0  0  0  0  0  0
  189.2040  178.5160  138.1290 C   0  0  0  0  0  1  0  0  0  0  0  0
  188.0150  178.6430  138.8450 O   0  0  0  0  0  0  0  0  0  0  0  0
  185.5170  173.7910  136.4430 C   0  0  0  0  0  2  0  0  0  0  0  0
  183.6540  172.6320  137.3050 O   0  0  0  0  0  0  0  0  0  0  0  0
  184.6970  172.5420  136.6860 C   0  0  0  0  0  0  0  0  0  0  0  0
  185.0520  171.2060  136.1190 C   0  0  0  0  0  1  0  0  0  0  0  0
  183.2870  178.3970  138.8290 C   0  0  0  0  0  2  0  0  0  0  0  0
  183.0650  176.8110  140.6140 O   0  0  0  0  0  1  0  0  0  0  0  0
  182.3570  177.7300  139.8320 C   0  0  1  0  0  3  0  0  0  0  0  0
  181.6420  178.7560  140.7090 C   0  0  0  0  0  2  0  0  0  0  0  0
  180.8030  178.1980  141.8750 C   0  0  2  0  0  3  0  0  0  0  0  0
  179.4010  177.8850  141.3480 C   0  0  0  0  0  1  0  0  0  0  0  0
  180.7110  179.1360  143.0780 C   0  0  0  0  0  2  0  0  0  0  0  0
  180.1980  180.3860  142.7140 O   0  0  0  0  0  1  0  0  0  0  0  0
  1  7  1  6  0  0  0
  1 10  1  0  0  0  0
  2 13  1  0  0  0  0
  3  8  1  0  0  0  0
  4 15  2  0  0  0  0
  4 18  1  0  0  0  0
  6  7  1  0  0  0  0
  6 13  2  0  0  0  0
  8 17  1  6  0  0  0
  9 16  1  0  0  0  0
 10  8  1  0  0  0  0
 10  5  1  1  0  0  0
 11  9  2  0  0  0  0
 12  1  1  0  0  0  0
 12  9  1  0  0  0  0
 13 14  1  0  0  0  0
 14  3  1  0  0  0  0
 15  6  1  0  0  0  0
 16  5  1  0  0  0  0
 16 19  1  1  0  0  0
 18  2  2  0  0  0  0
 20 12  1  0  0  0  0
 21 20  1  0  0  0  0
 22 21  1  0  0  0  0
 23 22  1  0  0  0  0
 25 24  1  0  0  0  0
 25 23  1  0  0  0  0
 26 25  1  0  0  0  0
 27 26  1  0  0  0  0
 28 31  1  0  0  0  0
 28 27  1  0  0  0  0
 31 29  1  0  0  0  0
 31 30  1  0  0  0  0
 32 31  2  0  0  0  0
 33  4  1  0  0  0  0
 34 53  1  6  0  0  0
 34 33  1  0  0  0  0
 35 41  1  0  0  0  0
 36 42  1  6  0  0  0
 36 41  1  0  0  0  0
 36 37  1  0  0  0  0
 37 46  1  0  0  0  0
 37 34  1  0  0  0  0
 38 37  1  0  0  0  0
 39 35  1  1  0  0  0
 39 36  1  0  0  0  0
 39 40  1  0  0  0  0
 40 37  1  0  0  0  0
 41 49  1  6  0  0  0
 42 44  1  0  0  0  0
 44 43  1  0  0  0  0
 45 44  2  0  0  0  0
 46 48  1  0  0  0  0
 47 48  1  0  0  0  0
 49 51  1  0  0  0  0
 51 50  2  0  0  0  0
 52 51  1  0  0  0  0
 53 55  1  0  0  0  0
 55 54  1  1  0  0  0
 55 56  1  0  0  0  0
 56 57  1  0  0  0  0
 57 58  1  6  0  0  0
 57 59  1  0  0  0  0
 60 59  1  0  0  0  0
M  END
>  <MODEL>
3

>  <REMARK>
 VINA RESULT:      -4.8      2.779      7.581
  Name = 
  23 active torsions:
  status: ('A' for Active; 'I' for Inactive)
    1  A    between atoms: C_3  and  C_20
    2  A    between atoms: C_4  and  O_38
    3  A    between atoms: C_5  and  C_29
    4  A    between atoms: C_5  and  C_58
    5  A    between atoms: C_6  and  C_8
    6  A    between atoms: C_6  and  P_15
    7  A    between atoms: C_6  and  O_49
    8  A    between atoms: C_8  and  C_21
    9  A    between atoms: C_11  and  C_19
   10  A    between atoms: C_11  and  C_48
   11  A    between atoms: C_12  and  P_15
   12  A    between atoms: C_12  and  O_59
   13  A    between atoms: C_13  and  O_49
   14  A    between atoms: C_20  and  C_60
   15  A    between atoms: C_21  and  C_60
   16  A    between atoms: C_27  and  O_28
   17  A    between atoms: C_27  and  N_51
   18  A    between atoms: O_28  and  C_33
   19  A    between atoms: C_29  and  C_50
   20  A    between atoms: C_32  and  O_38
   21  A    between atoms: C_33  and  P_41
   22  A    between atoms: N_43  and  C_50
   23  A    between atoms: N_51  and  C_58
                            x       y       z     vdW  Elec       q    Type
                         _______ _______ _______ _____ _____    ______ ____

>  <TORSDO>
F 23

$$$$
=
 OpenBabel11062417203D

 60 64  0  0  1  0  0  0  0  0999 V2000
  184.6830  178.4350  143.1850 C   0  0  1  0  0  3  0  0  0  0  0  0
  183.0310  179.6730  139.3180 C   0  0  0  0  0  3  0  0  0  0  0  0
  181.9060  178.7360  142.5010 O   0  0  0  0  0  0  0  0  0  0  0  0
  184.3510  177.8780  138.3730 C   0  0  0  0  0  0  0  0  0  0  0  0
  184.0330  179.3630  145.3100 O   0  0  0  0  0  0  0  0  0  0  0  0
  184.0200  178.0040  140.7790 C   0  0  0  0  0  0  0  0  0  0  0  0
  184.3390  177.5170  142.0950 N   0  0  0  0  0  2  0  0  0  0  0  0
  182.2280  179.0690  143.8150 C   0  0  2  0  0  3  0  0  0  0  0  0
  186.1990  178.3680  145.1780 C   0  0  0  0  0  0  0  0  0  0  0  0
  183.5840  178.5140  144.2790 C   0  0  1  0  0  3  0  0  0  0  0  0
  187.3540  178.2600  145.6850 O   0  0  0  0  0  0  0  0  0  0  0  0
  185.9760  178.0600  143.7910 N   0  0  0  0  0  0  0  0  0  0  0  0
  183.2080  179.1420  140.5910 C   0  0  0  0  0  0  0  0  0  0  0  0
  182.4550  179.7590  141.7220 C   0  0  0  0  0  2  0  0  0  0  0  0
  184.5580  177.3510  139.6580 C   0  0  0  0  0  3  0  0  0  0  0  0
  185.0120  178.6790  146.0510 C   0  0  1  0  0  3  0  0  0  0  0  0
  181.2340  178.5830  144.6610 O   0  0  0  0  0  1  0  0  0  0  0  0
  183.6110  179.0490  138.2190 C   0  0  0  0  0  3  0  0  0  0  0  0
  185.4070  179.4670  147.1400 O   0  0  0  0  0  1  0  0  0  0  0  0
  186.9120  177.1310  143.1540 C   0  0  0  0  0  2  0  0  0  0  0  0
  187.9620  177.8570  142.3060 C   0  0  0  0  0  2  0  0  0  0  0  0
  188.8220  176.8650  141.5230 C   0  0  0  0  0  2  0  0  0  0  0  0
  190.3170  177.0340  141.8010 C   0  0  0  0  0  2  0  0  0  0  0  0
  191.3090  178.5280  143.1910 O   0  0  0  0  0  1  0  0  0  0  0  0
  190.5240  177.4190  143.1920 N   0  0  0  0  0  0  0  0  0  0  0  0
  191.2940  176.3550  143.8240 C   0  0  0  0  0  2  0  0  0  0  0  0
  191.7260  176.7760  145.0850 O   0  0  0  0  0  0  0  0  0  0  0  0
  190.6140  177.3910  145.6630 C   0  0  0  0  0  2  0  0  0  0  0  0
  189.7740  175.3740  147.5060 O   0  0  0  0  0  0  0  0  0  0  0  0
  189.5200  178.0310  148.2280 O   0  0  0  0  0  1  0  0  0  0  0  0
  190.4770  176.9110  147.4040 P   0  0  0  0  0  0  0  0  0  0  0  0
  191.8540  176.8720  148.0240 O   0  0  0  0  0  1  0  0  0  0  0  0
  184.8670  177.2340  137.2500 O   0  0  0  0  0  0  0  0  0  0  0  0
  184.2450  177.3410  135.9770 C   0  0  2  0  0  3  0  0  0  0  0  0
  180.6010  178.5770  136.1800 C   0  0  0  0  0  2  0  0  0  0  0  0
  181.0730  176.4970  136.2860 C   0  0  2  0  0  0  0  0  0  0  0  0
  182.8250  176.1730  135.7870 P   0  0  0  0  0  0  0  0  0  0  0  0
  182.9880  174.9660  134.6260 O   0  0  0  0  0  1  0  0  0  0  0  0
  180.7560  177.4510  135.1650 C   0  0  2  0  0  3  0  0  0  0  0  0
  182.1480  177.3780  134.5940 C   0  0  0  0  0  2  0  0  0  0  0  0
  180.8250  177.5930  137.3150 C   0  0  2  0  0  3  0  0  0  0  0  0
  180.1910  175.3650  136.2640 O   0  0  0  0  0  0  0  0  0  0  0  0
  180.5890  173.0010  136.1230 O   0  0  0  0  0  0  0  0  0  0  0  0
  180.4230  174.1410  136.8980 C   0  0  0  0  0  0  0  0  0  0  0  0
  180.4660  174.0470  138.1540 O   0  0  0  0  0  1  0  0  0  0  0  0
  183.3610  175.0790  137.1410 C   0  0  0  0  0  2  0  0  0  0  0  0
  185.0340  173.7160  137.5840 C   0  0  0  0  0  1  0  0  0  0  0  0
  184.0250  173.9540  136.6520 O   0  0  0  0  0  0  0  0  0  0  0  0
  179.5710  177.4620  138.2240 C   0  0  0  0  0  2  0  0  0  0  0  0
  179.0580  178.0670  140.4440 O   0  0  0  0  0  0  0  0  0  0  0  0
  179.7470  177.3690  139.7250 C   0  0  0  0  0  0  0  0  0  0  0  0
  180.6610  176.3860  140.3830 C   0  0  0  0  0  1  0  0  0  0  0  0
  185.3060  177.1340  134.8940 C   0  0  0  0  0  2  0  0  0  0  0  0
  186.6610  178.7840  135.9870 O   0  0  0  0  0  1  0  0  0  0  0  0
  186.6970  177.5300  135.3670 C   0  0  1  0  0  3  0  0  0  0  0  0
  187.2980  176.4780  136.2980 C   0  0  0  0  0  2  0  0  0  0  0  0
  188.8050  176.2010  136.1390 C   0  0  2  0  0  3  0  0  0  0  0  0
  188.9720  174.8960  135.3610 C   0  0  0  0  0  1  0  0  0  0  0  0
  189.5630  176.1190  137.4640 C   0  0  0  0  0  2  0  0  0  0  0  0
  190.7720  176.8230  137.4070 O   0  0  0  0  0  1  0  0  0  0  0  0
  1  7  1  6  0  0  0
  1 12  1  0  0  0  0
  1 10  1  0  0  0  0
  2 13  1  0  0  0  0
  3  8  1  0  0  0  0
  4 15  2  0  0  0  0
  5 16  1  0  0  0  0
  6  7  1  0  0  0  0
  8 10  1  0  0  0  0
  8 17  1  1  0  0  0
  9 11  2  0  0  0  0
  9 16  1  0  0  0  0
 10  5  1  1  0  0  0
 12  9  1  0  0  0  0
 13  6  2  0  0  0  0
 13 14  1  0  0  0  0
 14  3  1  0  0  0  0
 15  6  1  0  0  0  0
 16 19  1  1  0  0  0
 18  4  1  0  0  0  0
 18  2  2  0  0  0  0
 20 12  1  0  0  0  0
 21 20  1  0  0  0  0
 22 23  1  0  0  0  0
 22 21  1  0  0  0  0
 23 25  1  0  0  0  0
 24 25  1  0  0  0  0
 25 26  1  0  0  0  0
 26 27  1  0  0  0  0
 27 28  1  0  0  0  0
 28 31  1  0  0  0  0
 31 29  2  0  0  0  0
 31 32  1  0  0  0  0
 31 30  1  0  0  0  0
 33  4  1  0  0  0  0
 34 53  1  6  0  0  0
 34 33  1  0  0  0  0
 35 41  1  0  0  0  0
 36 42  1  1  0  0  0
 36 41  1  0  0  0  0
 37 34  1  0  0  0  0
 37 36  1  0  0  0  0
 37 46  1  0  0  0  0
 38 37  1  0  0  0  0
 39 40  1  6  0  0  0
 39 35  1  0  0  0  0
 39 36  1  0  0  0  0
 40 37  1  0  0  0  0
 41 49  1  1  0  0  0
 42 44  1  0  0  0  0
 43 44  2  0  0  0  0
 44 45  1  0  0  0  0
 48 46  1  0  0  0  0
 48 47  1  0  0  0  0
 49 51  1  0  0  0  0
 51 52  1  0  0  0  0
 51 50  2  0  0  0  0
 53 55  1  0  0  0  0
 55 54  1  1  0  0  0
 55 56  1  0  0  0  0
 57 58  1  1  0  0  0
 57 56  1  0  0  0  0
 57 59  1  0  0  0  0
 60 59  1  0  0  0  0
M  END
>  <MODEL>
4

>  <REMARK>
 VINA RESULT:      -4.7      2.794      8.599
  Name = 
  23 active torsions:
  status: ('A' for Active; 'I' for Inactive)
    1  A    between atoms: C_3  and  C_20
    2  A    between atoms: C_4  and  O_38
    3  A    between atoms: C_5  and  C_29
    4  A    between atoms: C_5  and  C_58
    5  A    between atoms: C_6  and  C_8
    6  A    between atoms: C_6  and  P_15
    7  A    between atoms: C_6  and  O_49
    8  A    between atoms: C_8  and  C_21
    9  A    between atoms: C_11  and  C_19
   10  A    between atoms: C_11  and  C_48
   11  A    between atoms: C_12  and  P_15
   12  A    between atoms: C_12  and  O_59
   13  A    between atoms: C_13  and  O_49
   14  A    between atoms: C_20  and  C_60
   15  A    between atoms: C_21  and  C_60
   16  A    between atoms: C_27  and  O_28
   17  A    between atoms: C_27  and  N_51
   18  A    between atoms: O_28  and  C_33
   19  A    between atoms: C_29  and  C_50
   20  A    between atoms: C_32  and  O_38
   21  A    between atoms: C_33  and  P_41
   22  A    between atoms: N_43  and  C_50
   23  A    between atoms: N_51  and  C_58
                            x       y       z     vdW  Elec       q    Type
                         _______ _______ _______ _____ _____    ______ ____

>  <TORSDO>
F 23

$$$$
=
 OpenBabel11062417203D

 60 64  0  0  1  0  0  0  0  0999 V2000
  185.1410  178.2930  142.9310 C   0  0  1  0  0  3  0  0  0  0  0  0
  189.0420  176.3030  142.7410 C   0  0  0  0  0  3  0  0  0  0  0  0
  187.2540  178.4280  144.8770 O   0  0  0  0  0  0  0  0  0  0  0  0
  189.2830  177.3580  140.5770 C   0  0  0  0  0  0  0  0  0  0  0  0
  183.6800  178.2570  144.8450 O   0  0  0  0  0  0  0  0  0  0  0  0
  187.5190  178.0780  142.0890 C   0  0  0  0  0  0  0  0  0  0  0  0
  186.3410  178.8710  142.3200 N   0  0  0  0  0  2  0  0  0  0  0  0
  185.9650  178.4640  145.4040 C   0  0  2  0  0  3  0  0  0  0  0  0
  182.6690  178.6410  142.7170 C   0  0  0  0  0  0  0  0  0  0  0  0
  184.8830  178.8150  144.3710 C   0  0  1  0  0  3  0  0  0  0  0  0
  181.6090  178.6390  142.0250 O   0  0  0  0  0  0  0  0  0  0  0  0
  183.9570  178.5360  142.0840 N   0  0  0  0  0  0  0  0  0  0  0  0
  187.9860  177.1550  143.0470 C   0  0  0  0  0  0  0  0  0  0  0  0
  187.4270  177.1150  144.4300 C   0  0  0  0  0  2  0  0  0  0  0  0
  188.2000  178.2030  140.8660 C   0  0  0  0  0  3  0  0  0  0  0  0
  182.6100  178.9000  144.1990 C   0  0  1  0  0  3  0  0  0  0  0  0
  185.9220  179.4050  146.4310 O   0  0  0  0  0  1  0  0  0  0  0  0
  189.6770  176.3980  141.5080 C   0  0  0  0  0  3  0  0  0  0  0  0
  181.3980  178.4290  144.7220 O   0  0  0  0  0  1  0  0  0  0  0  0
  184.0550  178.9780  140.6910 C   0  0  0  0  0  2  0  0  0  0  0  0
  183.0210  178.2930  139.7920 C   0  0  0  0  0  2  0  0  0  0  0  0
  182.7560  179.1130  138.5290 C   0  0  0  0  0  2  0  0  0  0  0  0
  181.3380  179.6840  138.4840 C   0  0  0  0  0  2  0  0  0  0  0  0
  181.3660  178.1890  136.7770 O   0  0  0  0  0  1  0  0  0  0  0  0
  180.6620  179.2410  137.2710 N   0  0  0  0  0  0  0  0  0  0  0  0
  180.7730  180.3200  136.2970 C   0  0  0  0  0  2  0  0  0  0  0  0
  180.4270  181.5330  136.9020 O   0  0  0  0  0  0  0  0  0  0  0  0
  180.3160  182.4430  135.8500 C   0  0  0  0  0  2  0  0  0  0  0  0
  182.1520  183.9970  137.3950 O   0  0  0  0  0  1  0  0  0  0  0  0
  179.5010  184.7750  137.2930 O   0  0  0  0  0  1  0  0  0  0  0  0
  180.7750  184.1020  136.4150 P   0  0  0  0  0  0  0  0  0  0  0  0
  181.0790  184.9740  135.2190 O   0  0  0  0  0  0  0  0  0  0  0  0
  189.9770  177.4790  139.3740 O   0  0  0  0  0  0  0  0  0  0  0  0
  189.4490  176.9740  138.1550 C   0  0  2  0  0  3  0  0  0  0  0  0
  188.5650  174.9570  134.9940 C   0  0  0  0  0  2  0  0  0  0  0  0
  190.5590  175.0060  135.7560 C   0  0  2  0  0  0  0  0  0  0  0  0
  190.7660  176.3300  137.0310 P   0  0  0  0  0  0  0  0  0  0  0  0
  192.0840  177.3390  136.7530 O   0  0  0  0  0  1  0  0  0  0  0  0
  189.7860  175.8420  134.7720 C   0  0  2  0  0  3  0  0  0  0  0  0
  189.7910  177.0530  135.6680 C   0  0  0  0  0  2  0  0  0  0  0  0
  189.3760  174.0580  135.9110 C   0  0  2  0  0  3  0  0  0  0  0  0
  191.7670  174.5020  135.1670 O   0  0  0  0  0  0  0  0  0  0  0  0
  192.4140  172.7200  136.6410 O   0  0  0  0  0  1  0  0  0  0  0  0
  192.7690  173.7970  135.8420 C   0  0  0  0  0  0  0  0  0  0  0  0
  193.9820  174.1310  135.7550 O   0  0  0  0  0  0  0  0  0  0  0  0
  191.6280  175.4020  138.3400 C   0  0  0  0  0  2  0  0  0  0  0  0
  192.9850  176.7110  139.4790 C   0  0  0  0  0  1  0  0  0  0  0  0
  192.9650  175.7850  138.4370 O   0  0  0  0  0  0  0  0  0  0  0  0
  189.5180  172.6220  135.3360 C   0  0  0  0  0  2  0  0  0  0  0  0
  188.4980  170.8480  136.5060 O   0  0  0  0  0  0  0  0  0  0  0  0
  188.4120  171.6150  135.5660 C   0  0  0  0  0  0  0  0  0  0  0  0
  187.1590  171.5740  134.7520 C   0  0  0  0  0  1  0  0  0  0  0  0
  188.6150  178.0730  137.4910 C   0  0  0  0  0  2  0  0  0  0  0  0
  186.5110  179.2230  137.5530 O   0  0  0  0  0  1  0  0  0  0  0  0
  187.1640  178.0510  137.9490 C   0  0  1  0  0  3  0  0  0  0  0  0
  186.4270  176.8150  137.4340 C   0  0  0  0  0  2  0  0  0  0  0  0
  185.0680  177.0600  136.7520 C   0  0  2  0  0  3  0  0  0  0  0  0
  184.2650  175.7600  136.8060 C   0  0  0  0  0  1  0  0  0  0  0  0
  185.1780  177.5460  135.3060 C   0  0  0  0  0  2  0  0  0  0  0  0
  186.3960  177.1680  134.7310 O   0  0  0  0  0  1  0  0  0  0  0  0
  1  7  1  6  0  0  0
  1 10  1  0  0  0  0
  2 13  1  0  0  0  0
  3  8  1  0  0  0  0
  4 15  2  0  0  0  0
  4 18  1  0  0  0  0
  6  7  1  0  0  0  0
  6 13  2  0  0  0  0
  8 17  1  1  0  0  0
  9 16  1  0  0  0  0
 10  5  1  1  0  0  0
 10  8  1  0  0  0  0
 11  9  2  0  0  0  0
 12  9  1  0  0  0  0
 12  1  1  0  0  0  0
 13 14  1  0  0  0  0
 14  3  1  0  0  0  0
 15  6  1  0  0  0  0
 16 19  1  1  0  0  0
 16  5  1  0  0  0  0
 18  2  2  0  0  0  0
 20 12  1  0  0  0  0
 21 20  1  0  0  0  0
 22 21  1  0  0  0  0
 23 22  1  0  0  0  0
 24 25  1  0  0  0  0
 25 23  1  0  0  0  0
 26 27  1  0  0  0  0
 26 25  1  0  0  0  0
 28 31  1  0  0  0  0
 28 27  1  0  0  0  0
 31 30  1  0  0  0  0
 31 29  1  0  0  0  0
 32 31  2  0  0  0  0
 33  4  1  0  0  0  0
 34 53  1  6  0  0  0
 34 33  1  0  0  0  0
 35 41  1  0  0  0  0
 36 42  1  6  0  0  0
 36 41  1  0  0  0  0
 36 37  1  0  0  0  0
 37 34  1  0  0  0  0
 37 46  1  0  0  0  0
 38 37  1  0  0  0  0
 39 35  1  1  0  0  0
 39 40  1  0  0  0  0
 39 36  1  0  0  0  0
 40 37  1  0  0  0  0
 41 49  1  6  0  0  0
 42 44  1  0  0  0  0
 44 43  1  0  0  0  0
 45 44  2  0  0  0  0
 46 48  1  0  0  0  0
 48 47  1  0  0  0  0
 49 51  1  0  0  0  0
 51 50  2  0  0  0  0
 52 51  1  0  0  0  0
 53 55  1  0  0  0  0
 55 54  1  6  0  0  0
 56 55  1  0  0  0  0
 57 58  1  6  0  0  0
 57 56  1  0  0  0  0
 59 57  1  0  0  0  0
 60 59  1  0  0  0  0
M  END
>  <MODEL>
5

>  <REMARK>
 VINA RESULT:      -4.7      1.644      2.410
  Name = 
  23 active torsions:
  status: ('A' for Active; 'I' for Inactive)
    1  A    between atoms: C_3  and  C_20
    2  A    between atoms: C_4  and  O_38
    3  A    between atoms: C_5  and  C_29
    4  A    between atoms: C_5  and  C_58
    5  A    between atoms: C_6  and  C_8
    6  A    between atoms: C_6  and  P_15
    7  A    between atoms: C_6  and  O_49
    8  A    between atoms: C_8  and  C_21
    9  A    between atoms: C_11  and  C_19
   10  A    between atoms: C_11  and  C_48
   11  A    between atoms: C_12  and  P_15
   12  A    between atoms: C_12  and  O_59
   13  A    between atoms: C_13  and  O_49
   14  A    between atoms: C_20  and  C_60
   15  A    between atoms: C_21  and  C_60
   16  A    between atoms: C_27  and  O_28
   17  A    between atoms: C_27  and  N_51
   18  A    between atoms: O_28  and  C_33
   19  A    between atoms: C_29  and  C_50
   20  A    between atoms: C_32  and  O_38
   21  A    between atoms: C_33  and  P_41
   22  A    between atoms: N_43  and  C_50
   23  A    between atoms: N_51  and  C_58
                            x       y       z     vdW  Elec       q    Type
                         _______ _______ _______ _____ _____    ______ ____

>  <TORSDO>
F 23

$$$$
=
 OpenBabel11062417203D

 60 64  0  0  1  0  0  0  0  0999 V2000
  188.4020  177.6060  144.9560 C   0  0  1  0  0  3  0  0  0  0  0  0
  190.6300  176.0600  141.5120 C   0  0  0  0  0  3  0  0  0  0  0  0
  191.2590  177.4170  144.6800 O   0  0  0  0  0  0  0  0  0  0  0  0
  189.3630  177.6460  140.1970 C   0  0  0  0  0  0  0  0  0  0  0  0
  188.8020  176.9650  147.2420 O   0  0  0  0  0  0  0  0  0  0  0  0
  189.3670  177.8100  142.6230 C   0  0  0  0  0  0  0  0  0  0  0  0
  188.8450  178.4180  143.8190 N   0  0  0  0  0  2  0  0  0  0  0  0
  190.7770  177.2110  145.9710 C   0  0  2  0  0  3  0  0  0  0  0  0
  186.6260  177.7920  146.7130 C   0  0  0  0  0  0  0  0  0  0  0  0
  189.3440  177.7220  146.1850 C   0  0  1  0  0  3  0  0  0  0  0  0
  185.4090  177.8780  147.0480 O   0  0  0  0  0  0  0  0  0  0  0  0
  187.0220  177.9590  145.3390 N   0  0  0  0  0  0  0  0  0  0  0  0
  190.2540  176.7160  142.6790 C   0  0  0  0  0  0  0  0  0  0  0  0
  190.8750  176.2800  143.9640 C   0  0  0  0  0  2  0  0  0  0  0  0
  188.9550  178.2970  141.3720 C   0  0  0  0  0  3  0  0  0  0  0  0
  187.6970  177.6600  147.7630 C   0  0  1  0  0  3  0  0  0  0  0  0
  191.6190  177.8530  146.8760 O   0  0  0  0  0  1  0  0  0  0  0  0
  190.1760  176.5170  140.2800 C   0  0  0  0  0  3  0  0  0  0  0  0
  187.1970  176.9730  148.8780 O   0  0  0  0  0  1  0  0  0  0  0  0
  186.1350  178.7460  144.4800 C   0  0  0  0  0  2  0  0  0  0  0  0
  185.4840  177.8960  143.3840 C   0  0  0  0  0  2  0  0  0  0  0  0
  184.0940  178.4230  143.0280 C   0  0  0  0  0  2  0  0  0  0  0  0
  183.4850  179.2780  144.1400 C   0  0  0  0  0  2  0  0  0  0  0  0
  181.7860  177.7790  144.2750 O   0  0  0  0  0  1  0  0  0  0  0  0
  182.0370  179.1090  144.1600 N   0  0  0  0  0  0  0  0  0  0  0  0
  181.5370  179.5230  142.8550 C   0  0  0  0  0  2  0  0  0  0  0  0
  180.3530  178.8350  142.5680 O   0  0  0  0  0  0  0  0  0  0  0  0
  179.6010  179.7170  141.7910 C   0  0  0  0  0  2  0  0  0  0  0  0
  179.6580  177.9670  139.5320 O   0  0  0  0  0  1  0  0  0  0  0  0
  181.6940  179.8110  139.8430 O   0  0  0  0  0  1  0  0  0  0  0  0
  180.0420  179.5340  140.0440 P   0  0  0  0  0  0  0  0  0  0  0  0
  179.2600  180.5330  139.2220 O   0  0  0  0  0  0  0  0  0  0  0  0
  188.9730  178.1260  138.9470 O   0  0  0  0  0  0  0  0  0  0  0  0
  188.1240  177.3740  138.0920 C   0  0  2  0  0  3  0  0  0  0  0  0
  186.2620  175.5830  135.2330 C   0  0  0  0  0  2  0  0  0  0  0  0
  188.3720  175.3690  135.4870 C   0  0  2  0  0  0  0  0  0  0  0  0
  189.0410  176.6160  136.6770 P   0  0  0  0  0  0  0  0  0  0  0  0
  190.3670  177.4710  136.0910 O   0  0  0  0  0  1  0  0  0  0  0  0
  187.4930  176.3240  134.7240 C   0  0  2  0  0  3  0  0  0  0  0  0
  187.8620  177.4950  135.5960 C   0  0  0  0  0  2  0  0  0  0  0  0
  187.1530  174.5630  135.9210 C   0  0  2  0  0  3  0  0  0  0  0  0
  189.3310  174.7460  134.6190 O   0  0  0  0  0  0  0  0  0  0  0  0
  190.3260  172.9660  135.8870 O   0  0  0  0  0  1  0  0  0  0  0  0
  190.4710  174.0510  135.0330 C   0  0  0  0  0  0  0  0  0  0  0  0
  191.6250  174.3990  134.6640 O   0  0  0  0  0  0  0  0  0  0  0  0
  190.0730  175.5490  137.7340 C   0  0  0  0  0  2  0  0  0  0  0  0
  192.1870  174.9350  137.7800 C   0  0  0  0  0  1  0  0  0  0  0  0
  191.3650  176.0570  137.8610 O   0  0  0  0  0  0  0  0  0  0  0  0
  186.9750  173.1410  135.3230 C   0  0  0  0  0  2  0  0  0  0  0  0
  185.7730  171.2040  135.9250 O   0  0  0  0  0  0  0  0  0  0  0  0
  185.6990  172.3730  135.5980 C   0  0  0  0  0  0  0  0  0  0  0  0
  184.3440  173.0040  135.5820 C   0  0  0  0  0  1  0  0  0  0  0  0
  186.9830  178.2770  137.6160 C   0  0  0  0  0  2  0  0  0  0  0  0
  185.0670  179.3720  138.5550 O   0  0  0  0  0  1  0  0  0  0  0  0
  185.7450  178.1510  138.4920 C   0  0  1  0  0  3  0  0  0  0  0  0
  184.8190  177.0370  138.0040 C   0  0  0  0  0  2  0  0  0  0  0  0
  183.3520  177.1120  138.4660 C   0  0  2  0  0  3  0  0  0  0  0  0
  183.3240  177.0020  139.9910 C   0  0  0  0  0  1  0  0  0  0  0  0
  182.4510  176.0420  137.8490 C   0  0  0  0  0  2  0  0  0  0  0  0
  183.1150  174.8140  137.7420 O   0  0  0  0  0  1  0  0  0  0  0  0
  1  7  1  6  0  0  0
  1 12  1  0  0  0  0
  1 10  1  0  0  0  0
  2 13  1  0  0  0  0
  3  8  1  0  0  0  0
  4 18  1  0  0  0  0
  4 15  2  0  0  0  0
  5 16  1  0  0  0  0
  6 13  2  0  0  0  0
  6  7  1  0  0  0  0
  8 10  1  0  0  0  0
  8 17  1  1  0  0  0
  9 11  2  0  0  0  0
  9 16  1  0  0  0  0
 10  5  1  1  0  0  0
 12  9  1  0  0  0  0
 13 14  1  0  0  0  0
 14  3  1  0  0  0  0
 15  6  1  0  0  0  0
 16 19  1  1  0  0  0
 18  2  2  0  0  0  0
 20 12  1  0  0  0  0
 21 20  1  0  0  0  0
 22 21  1  0  0  0  0
 22 23  1  0  0  0  0
 23 25  1  0  0  0  0
 25 24  1  0  0  0  0
 26 25  1  0  0  0  0
 27 26  1  0  0  0  0
 28 27  1  0  0  0  0
 29 31  1  0  0  0  0
 30 31  1  0  0  0  0
 31 28  1  0  0  0  0
 32 31  2  0  0  0  0
 33  4  1  0  0  0  0
 34 53  1  6  0  0  0
 34 33  1  0  0  0  0
 35 41  1  0  0  0  0
 36 42  1  6  0  0  0
 36 41  1  0  0  0  0
 36 37  1  0  0  0  0
 37 46  1  0  0  0  0
 37 34  1  0  0  0  0
 38 37  1  0  0  0  0
 39 35  1  1  0  0  0
 39 36  1  0  0  0  0
 39 40  1  0  0  0  0
 40 37  1  0  0  0  0
 41 49  1  6  0  0  0
 42 44  1  0  0  0  0
 44 43  1  0  0  0  0
 45 44  2  0  0  0  0
 46 48  1  0  0  0  0
 47 48  1  0  0  0  0
 49 51  1  0  0  0  0
 51 50  2  0  0  0  0
 52 51  1  0  0  0  0
 53 55  1  0  0  0  0
 55 54  1  6  0  0  0
 56 57  1  0  0  0  0
 56 55  1  0  0  0  0
 57 58  1  1  0  0  0
 59 57  1  0  0  0  0
 60 59  1  0  0  0  0
M  END
>  <MODEL>
6

>  <REMARK>
 VINA RESULT:      -4.4      1.751      2.422
  Name = 
  23 active torsions:
  status: ('A' for Active; 'I' for Inactive)
    1  A    between atoms: C_3  and  C_20
    2  A    between atoms: C_4  and  O_38
    3  A    between atoms: C_5  and  C_29
    4  A    between atoms: C_5  and  C_58
    5  A    between atoms: C_6  and  C_8
    6  A    between atoms: C_6  and  P_15
    7  A    between atoms: C_6  and  O_49
    8  A    between atoms: C_8  and  C_21
    9  A    between atoms: C_11  and  C_19
   10  A    between atoms: C_11  and  C_48
   11  A    between atoms: C_12  and  P_15
   12  A    between atoms: C_12  and  O_59
   13  A    between atoms: C_13  and  O_49
   14  A    between atoms: C_20  and  C_60
   15  A    between atoms: C_21  and  C_60
   16  A    between atoms: C_27  and  O_28
   17  A    between atoms: C_27  and  N_51
   18  A    between atoms: O_28  and  C_33
   19  A    between atoms: C_29  and  C_50
   20  A    between atoms: C_32  and  O_38
   21  A    between atoms: C_33  and  P_41
   22  A    between atoms: N_43  and  C_50
   23  A    between atoms: N_51  and  C_58
                            x       y       z     vdW  Elec       q    Type
                         _______ _______ _______ _____ _____    ______ ____

>  <TORSDO>
F 23

$$$$
=
 OpenBabel11062417203D

 60 64  0  0  1  0  0  0  0  0999 V2000
  183.4100  174.1950  135.9650 C   0  0  1  0  0  3  0  0  0  0  0  0
  187.6510  173.1850  135.5050 C   0  0  0  0  0  3  0  0  0  0  0  0
  184.7110  171.7600  136.7720 O   0  0  0  0  0  0  0  0  0  0  0  0
  188.0950  175.2660  136.6570 C   0  0  0  0  0  0  0  0  0  0  0  0
  181.5860  172.7530  135.3400 O   0  0  0  0  0  0  0  0  0  0  0  0
  185.8450  174.3420  136.6440 C   0  0  0  0  0  0  0  0  0  0  0  0
  184.4490  174.4920  136.9560 N   0  0  0  0  0  2  0  0  0  0  0  0
  183.4000  171.6070  136.3270 C   0  0  2  0  0  3  0  0  0  0  0  0
  181.1380  175.0960  135.4180 C   0  0  0  0  0  0  0  0  0  0  0  0
  182.5970  172.9170  136.3070 C   0  0  1  0  0  3  0  0  0  0  0  0
  180.3830  176.0490  135.0640 O   0  0  0  0  0  0  0  0  0  0  0  0
  182.5020  175.3460  135.8030 N   0  0  0  0  0  0  0  0  0  0  0  0
  186.3220  173.2340  135.9130 C   0  0  0  0  0  0  0  0  0  0  0  0
  185.4530  172.0570  135.6240 C   0  0  0  0  0  2  0  0  0  0  0  0
  186.7490  175.3380  137.0490 C   0  0  0  0  0  3  0  0  0  0  0  0
  180.5830  173.7070  135.5820 C   0  0  1  0  0  3  0  0  0  0  0  0
  182.7460  170.6950  137.1510 O   0  0  0  0  0  1  0  0  0  0  0  0
  188.5270  174.2020  135.8660 C   0  0  0  0  0  3  0  0  0  0  0  0
  179.5200  173.5030  134.6920 O   0  0  0  0  0  1  0  0  0  0  0  0
  182.8200  176.6850  136.3020 C   0  0  0  0  0  2  0  0  0  0  0  0
  181.8130  177.1680  137.3510 C   0  0  0  0  0  2  0  0  0  0  0  0
  182.4600  177.2750  138.7310 C   0  0  0  0  0  2  0  0  0  0  0  0
  182.6020  178.7220  139.2050 C   0  0  0  0  0  2  0  0  0  0  0  0
  182.1590  180.8360  138.5080 O   0  0  0  0  0  1  0  0  0  0  0  0
  181.6570  179.5740  138.4920 N   0  0  0  0  0  0  0  0  0  0  0  0
  180.4260  179.5980  139.2720 C   0  0  0  0  0  2  0  0  0  0  0  0
  180.6630  180.2230  140.5010 O   0  0  0  0  0  0  0  0  0  0  0  0
  179.5640  179.8900  141.2940 C   0  0  0  0  0  2  0  0  0  0  0  0
  179.3380  179.2530  144.0720 O   0  0  0  0  0  1  0  0  0  0  0  0
  181.7540  178.8300  142.7990 O   0  0  0  0  0  1  0  0  0  0  0  0
  180.0770  178.7740  142.6260 P   0  0  0  0  0  0  0  0  0  0  0  0
  179.6520  177.3640  142.2910 O   0  0  0  0  0  0  0  0  0  0  0  0
  189.0060  176.2400  137.0620 O   0  0  0  0  0  0  0  0  0  0  0  0
  189.6260  176.1950  138.3390 C   0  0  2  0  0  3  0  0  0  0  0  0
  190.6220  176.3060  142.0600 C   0  0  0  0  0  2  0  0  0  0  0  0
  189.0810  177.5670  141.2860 C   0  0  2  0  0  0  0  0  0  0  0  0
  189.0780  177.5780  139.4370 P   0  0  0  0  0  0  0  0  0  0  0  0
  189.0780  179.1210  138.7660 O   0  0  0  0  0  1  0  0  0  0  0  0
  190.5720  177.7020  141.4500 C   0  0  2  0  0  3  0  0  0  0  0  0
  190.8220  177.6920  139.9650 C   0  0  0  0  0  2  0  0  0  0  0  0
  189.1070  176.2120  141.9840 C   0  0  2  0  0  3  0  0  0  0  0  0
  188.3930  178.6530  141.9250 O   0  0  0  0  0  0  0  0  0  0  0  0
  186.3810  179.9160  141.5750 O   0  0  0  0  0  0  0  0  0  0  0  0
  187.0050  178.7730  142.0520 C   0  0  0  0  0  0  0  0  0  0  0  0
  186.3150  177.8760  142.6070 O   0  0  0  0  0  1  0  0  0  0  0  0
  187.3050  177.3270  139.1040 C   0  0  0  0  0  2  0  0  0  0  0  0
  186.3950  178.4080  137.4150 C   0  0  0  0  0  1  0  0  0  0  0  0
  186.6750  178.5260  138.7750 O   0  0  0  0  0  0  0  0  0  0  0  0
  188.4620  176.1110  143.3930 C   0  0  0  0  0  2  0  0  0  0  0  0
  190.2740  176.6480  144.8020 O   0  0  0  0  0  0  0  0  0  0  0  0
  189.0980  176.8390  144.5570 C   0  0  0  0  0  0  0  0  0  0  0  0
  188.3800  177.8660  145.3720 C   0  0  0  0  0  1  0  0  0  0  0  0
  191.1450  176.1840  138.1470 C   0  0  0  0  0  2  0  0  0  0  0  0
  191.8400  175.8720  135.8730 O   0  0  0  0  0  1  0  0  0  0  0  0
  191.5820  175.2000  137.0720 C   0  0  1  0  0  3  0  0  0  0  0  0
  192.7970  174.3840  137.5120 C   0  0  0  0  0  2  0  0  0  0  0  0
  194.0880  175.1740  137.7980 C   0  0  2  0  0  3  0  0  0  0  0  0
  194.6770  175.6260  136.4610 C   0  0  0  0  0  1  0  0  0  0  0  0
  195.1330  174.3890  138.5900 C   0  0  0  0  0  2  0  0  0  0  0  0
  196.4260  174.8650  138.3430 O   0  0  0  0  0  1  0  0  0  0  0  0
  1 10  1  0  0  0  0
  1  7  1  1  0  0  0
  2 18  2  0  0  0  0
  2 13  1  0  0  0  0
  4 15  2  0  0  0  0
  4 33  1  0  0  0  0
  5 16  1  0  0  0  0
  6  7  1  0  0  0  0
  6 15  1  0  0  0  0
  8  3  1  0  0  0  0
  8 17  1  1  0  0  0
  9 16  1  0  0  0  0
  9 12  1  0  0  0  0
 10  5  1  6  0  0  0
 10  8  1  0  0  0  0
 11  9  2  0  0  0  0
 12  1  1  0  0  0  0
 12 20  1  0  0  0  0
 13  6  2  0  0  0  0
 14 13  1  0  0  0  0
 14  3  1  0  0  0  0
 16 19  1  6  0  0  0
 18  4  1  0  0  0  0
 20 21  1  0  0  0  0
 21 22  1  0  0  0  0
 22 23  1  0  0  0  0
 25 24  1  0  0  0  0
 25 23  1  0  0  0  0
 25 26  1  0  0  0  0
 26 27  1  0  0  0  0
 27 28  1  0  0  0  0
 28 31  1  0  0  0  0
 31 30  1  0  0  0  0
 31 29  1  0  0  0  0
 32 31  2  0  0  0  0
 33 34  1  0  0  0  0
 34 53  1  6  0  0  0
 34 37  1  0  0  0  0
 36 39  1  0  0  0  0
 36 42  1  1  0  0  0
 36 41  1  0  0  0  0
 37 40  1  0  0  0  0
 37 36  1  0  0  0  0
 38 37  1  0  0  0  0
 39 40  1  6  0  0  0
 39 35  1  0  0  0  0
 41 35  1  0  0  0  0
 41 49  1  1  0  0  0
 42 44  1  0  0  0  0
 43 44  2  0  0  0  0
 44 45  1  0  0  0  0
 46 37  1  0  0  0  0
 47 48  1  0  0  0  0
 48 46  1  0  0  0  0
 49 51  1  0  0  0  0
 51 50  2  0  0  0  0
 51 52  1  0  0  0  0
 55 54  1  6  0  0  0
 55 56  1  0  0  0  0
 55 53  1  0  0  0  0
 56 57  1  0  0  0  0
 57 58  1  6  0  0  0
 57 59  1  0  0  0  0
 60 59  1  0  0  0  0
M  END
>  <MODEL>
7

>  <REMARK>
 VINA RESULT:      -4.4      2.854      8.373
  Name = 
  23 active torsions:
  status: ('A' for Active; 'I' for Inactive)
    1  A    between atoms: C_3  and  C_20
    2  A    between atoms: C_4  and  O_38
    3  A    between atoms: C_5  and  C_29
    4  A    between atoms: C_5  and  C_58
    5  A    between atoms: C_6  and  C_8
    6  A    between atoms: C_6  and  P_15
    7  A    between atoms: C_6  and  O_49
    8  A    between atoms: C_8  and  C_21
    9  A    between atoms: C_11  and  C_19
   10  A    between atoms: C_11  and  C_48
   11  A    between atoms: C_12  and  P_15
   12  A    between atoms: C_12  and  O_59
   13  A    between atoms: C_13  and  O_49
   14  A    between atoms: C_20  and  C_60
   15  A    between atoms: C_21  and  C_60
   16  A    between atoms: C_27  and  O_28
   17  A    between atoms: C_27  and  N_51
   18  A    between atoms: O_28  and  C_33
   19  A    between atoms: C_29  and  C_50
   20  A    between atoms: C_32  and  O_38
   21  A    between atoms: C_33  and  P_41
   22  A    between atoms: N_43  and  C_50
   23  A    between atoms: N_51  and  C_58
                            x       y       z     vdW  Elec       q    Type
                         _______ _______ _______ _____ _____    ______ ____

>  <TORSDO>
F 23

$$$$
=
 OpenBabel11062417203D

 60 64  0  0  1  0  0  0  0  0999 V2000
  184.2890  178.5280  142.9520 C   0  0  1  0  0  3  0  0  0  0  0  0
  182.7370  179.6310  139.0040 C   0  0  0  0  0  3  0  0  0  0  0  0
  181.5340  178.8940  142.2110 O   0  0  0  0  0  0  0  0  0  0  0  0
  184.0030  177.7460  138.1690 C   0  0  0  0  0  0  0  0  0  0  0  0
  183.6440  179.5830  145.0180 O   0  0  0  0  0  0  0  0  0  0  0  0
  183.6440  178.0030  140.5610 C   0  0  0  0  0  0  0  0  0  0  0  0
  183.9260  177.5710  141.9030 N   0  0  0  0  0  2  0  0  0  0  0  0
  181.8500  179.2800  143.5120 C   0  0  2  0  0  3  0  0  0  0  0  0
  185.7740  178.5060  144.9700 C   0  0  0  0  0  0  0  0  0  0  0  0
  183.1780  178.7010  144.0240 C   0  0  1  0  0  3  0  0  0  0  0  0
  186.9170  178.3820  145.4990 O   0  0  0  0  0  0  0  0  0  0  0  0
  185.5590  178.1380  143.5950 N   0  0  0  0  0  0  0  0  0  0  0  0
  182.8760  179.1580  140.3040 C   0  0  0  0  0  0  0  0  0  0  0  0
  182.1310  179.8570  141.3920 C   0  0  0  0  0  2  0  0  0  0  0  0
  184.1730  177.2760  139.4810 C   0  0  0  0  0  3  0  0  0  0  0  0
  184.5870  178.9020  145.8070 C   0  0  1  0  0  3  0  0  0  0  0  0
  180.8280  178.8720  144.3660 O   0  0  0  0  0  1  0  0  0  0  0  0
  183.3080  178.9340  137.9460 C   0  0  0  0  0  3  0  0  0  0  0  0
  184.9960  179.7290  146.8630 O   0  0  0  0  0  1  0  0  0  0  0  0
  186.4690  177.1460  143.0200 C   0  0  0  0  0  2  0  0  0  0  0  0
  187.9290  177.6080  143.0570 C   0  0  0  0  0  2  0  0  0  0  0  0
  188.8760  176.4320  143.2930 C   0  0  0  0  0  2  0  0  0  0  0  0
  190.2320  176.8680  143.8490 C   0  0  0  0  0  2  0  0  0  0  0  0
  191.6780  178.1390  142.6470 O   0  0  0  0  0  1  0  0  0  0  0  0
  191.2300  176.8640  142.7860 N   0  0  0  0  0  0  0  0  0  0  0  0
  190.5400  176.5200  141.5490 C   0  0  0  0  0  2  0  0  0  0  0  0
  191.4120  176.6820  140.4670 O   0  0  0  0  0  0  0  0  0  0  0  0
  190.6320  176.4400  139.3350 C   0  0  0  0  0  2  0  0  0  0  0  0
  193.2580  176.0600  138.2690 O   0  0  0  0  0  1  0  0  0  0  0  0
  191.1100  176.1380  136.5300 O   0  0  0  0  0  0  0  0  0  0  0  0
  191.6320  175.6380  138.0550 P   0  0  0  0  0  0  0  0  0  0  0  0
  191.4870  174.1380  138.1700 O   0  0  0  0  0  1  0  0  0  0  0  0
  184.5110  177.0290  137.0860 O   0  0  0  0  0  0  0  0  0  0  0  0
  183.7890  176.9060  135.8690 C   0  0  2  0  0  3  0  0  0  0  0  0
  179.9800  176.9450  136.4510 C   0  0  0  0  0  2  0  0  0  0  0  0
  181.0860  175.1180  136.4690 C   0  0  2  0  0  0  0  0  0  0  0  0
  182.7930  175.3510  135.7950 P   0  0  0  0  0  0  0  0  0  0  0  0
  183.2090  174.2420  134.6000 O   0  0  0  0  0  1  0  0  0  0  0  0
  180.3770  175.9120  135.4040 C   0  0  2  0  0  3  0  0  0  0  0  0
  181.6590  176.2700  134.6980 C   0  0  0  0  0  2  0  0  0  0  0  0
  180.6110  176.0930  137.5390 C   0  0  2  0  0  3  0  0  0  0  0  0
  180.6030  173.7670  136.5110 O   0  0  0  0  0  0  0  0  0  0  0  0
  181.3840  172.4060  138.3280 O   0  0  0  0  0  1  0  0  0  0  0  0
  181.3250  172.6590  136.9650 C   0  0  0  0  0  0  0  0  0  0  0  0
  181.9370  171.8990  136.1670 O   0  0  0  0  0  0  0  0  0  0  0  0
  183.7740  174.4950  137.0690 C   0  0  0  0  0  2  0  0  0  0  0  0
  185.0480  172.7140  137.3090 C   0  0  0  0  0  1  0  0  0  0  0  0
  184.8720  173.8420  136.5090 O   0  0  0  0  0  0  0  0  0  0  0  0
  179.5570  175.5880  138.5630 C   0  0  0  0  0  2  0  0  0  0  0  0
  181.1580  175.3750  140.2810 O   0  0  0  0  0  0  0  0  0  0  0  0
  179.9780  175.3180  139.9920 C   0  0  0  0  0  0  0  0  0  0  0  0
  179.0050  175.0790  141.1010 C   0  0  0  0  0  1  0  0  0  0  0  0
  184.7740  177.0120  134.7030 C   0  0  0  0  0  2  0  0  0  0  0  0
  186.8540  175.8170  134.6770 O   0  0  0  0  0  1  0  0  0  0  0  0
  186.2230  176.9660  135.1660 C   0  0  1  0  0  3  0  0  0  0  0  0
  186.9870  178.2240  134.7580 C   0  0  0  0  0  2  0  0  0  0  0  0
  188.3610  178.4390  135.4190 C   0  0  2  0  0  3  0  0  0  0  0  0
  189.3730  177.5240  134.7260 C   0  0  0  0  0  1  0  0  0  0  0  0
  188.3720  178.1810  136.9260 C   0  0  0  0  0  2  0  0  0  0  0  0
  187.7020  179.1940  137.6230 O   0  0  0  0  0  1  0  0  0  0  0  0
  1  7  1  6  0  0  0
  1 12  1  0  0  0  0
  1 10  1  0  0  0  0
  2 13  1  0  0  0  0
  3  8  1  0  0  0  0
  4 15  2  0  0  0  0
  5 16  1  0  0  0  0
  6  7  1  0  0  0  0
  8 10  1  0  0  0  0
  8 17  1  1  0  0  0
  9 11  2  0  0  0  0
  9 16  1  0  0  0  0
 10  5  1  1  0  0  0
 12  9  1  0  0  0  0
 13  6  2  0  0  0  0
 13 14  1  0  0  0  0
 14  3  1  0  0  0  0
 15  6  1  0  0  0  0
 16 19  1  1  0  0  0
 18  4  1  0  0  0  0
 18  2  2  0  0  0  0
 20 21  1  0  0  0  0
 20 12  1  0  0  0  0
 21 22  1  0  0  0  0
 22 23  1  0  0  0  0
 24 25  1  0  0  0  0
 25 23  1  0  0  0  0
 26 25  1  0  0  0  0
 27 26  1  0  0  0  0
 28 27  1  0  0  0  0
 30 31  2  0  0  0  0
 31 32  1  0  0  0  0
 31 29  1  0  0  0  0
 31 28  1  0  0  0  0
 33  4  1  0  0  0  0
 34 53  1  6  0  0  0
 34 33  1  0  0  0  0
 35 41  1  0  0  0  0
 36 42  1  1  0  0  0
 36 41  1  0  0  0  0
 37 34  1  0  0  0  0
 37 36  1  0  0  0  0
 37 46  1  0  0  0  0
 38 37  1  0  0  0  0
 39 40  1  6  0  0  0
 39 35  1  0  0  0  0
 39 36  1  0  0  0  0
 40 37  1  0  0  0  0
 41 49  1  1  0  0  0
 42 44  1  0  0  0  0
 44 43  1  0  0  0  0
 45 44  2  0  0  0  0
 48 46  1  0  0  0  0
 48 47  1  0  0  0  0
 49 51  1  0  0  0  0
 51 50  2  0  0  0  0
 51 52  1  0  0  0  0
 53 55  1  0  0  0  0
 55 54  1  6  0  0  0
 56 55  1  0  0  0  0
 56 57  1  0  0  0  0
 57 58  1  6  0  0  0
 57 59  1  0  0  0  0
 59 60  1  0  0  0  0
M  END
>  <MODEL>
8

>  <REMARK>
 VINA RESULT:      -4.2      2.721      8.152
  Name = 
  23 active torsions:
  status: ('A' for Active; 'I' for Inactive)
    1  A    between atoms: C_3  and  C_20
    2  A    between atoms: C_4  and  O_38
    3  A    between atoms: C_5  and  C_29
    4  A    between atoms: C_5  and  C_58
    5  A    between atoms: C_6  and  C_8
    6  A    between atoms: C_6  and  P_15
    7  A    between atoms: C_6  and  O_49
    8  A    between atoms: C_8  and  C_21
    9  A    between atoms: C_11  and  C_19
   10  A    between atoms: C_11  and  C_48
   11  A    between atoms: C_12  and  P_15
   12  A    between atoms: C_12  and  O_59
   13  A    between atoms: C_13  and  O_49
   14  A    between atoms: C_20  and  C_60
   15  A    between atoms: C_21  and  C_60
   16  A    between atoms: C_27  and  O_28
   17  A    between atoms: C_27  and  N_51
   18  A    between atoms: O_28  and  C_33
   19  A    between atoms: C_29  and  C_50
   20  A    between atoms: C_32  and  O_38
   21  A    between atoms: C_33  and  P_41
   22  A    between atoms: N_43  and  C_50
   23  A    between atoms: N_51  and  C_58
                            x       y       z     vdW  Elec       q    Type
                         _______ _______ _______ _____ _____    ______ ____

>  <TORSDO>
F 23

$$$$
=
 OpenBabel11062417203D

 60 64  0  0  1  0  0  0  0  0999 V2000
  186.7640  177.9520  144.3560 C   0  0  1  0  0  3  0  0  0  0  0  0
  183.9240  179.9390  141.6720 C   0  0  0  0  0  3  0  0  0  0  0  0
  184.0250  178.6270  144.9190 O   0  0  0  0  0  0  0  0  0  0  0  0
  184.4680  178.1960  140.0850 C   0  0  0  0  0  0  0  0  0  0  0  0
  187.1610  178.5930  146.6430 O   0  0  0  0  0  0  0  0  0  0  0  0
  185.1430  177.9730  142.4110 C   0  0  0  0  0  0  0  0  0  0  0  0
  185.8790  177.2560  143.4180 N   0  0  0  0  0  2  0  0  0  0  0  0
  184.8890  178.7160  146.0080 C   0  0  2  0  0  3  0  0  0  0  0  0
  188.9160  177.4250  145.5240 C   0  0  0  0  0  0  0  0  0  0  0  0
  186.2150  177.9650  145.8090 C   0  0  1  0  0  3  0  0  0  0  0  0
  190.1460  177.1260  145.4920 O   0  0  0  0  0  0  0  0  0  0  0  0
  188.1160  177.3630  144.3290 N   0  0  0  0  0  0  0  0  0  0  0  0
  184.5080  179.1990  142.6950 C   0  0  0  0  0  0  0  0  0  0  0  0
  184.3690  179.7010  144.0940 C   0  0  0  0  0  2  0  0  0  0  0  0
  185.0840  177.4550  141.1060 C   0  0  0  0  0  3  0  0  0  0  0  0
  188.2360  177.7090  146.8370 C   0  0  1  0  0  3  0  0  0  0  0  0
  184.2510  178.2020  147.1350 O   0  0  0  0  0  1  0  0  0  0  0  0
  183.9170  179.4430  140.3730 C   0  0  0  0  0  3  0  0  0  0  0  0
  189.1470  178.2730  147.7400 O   0  0  0  0  0  1  0  0  0  0  0  0
  188.5680  176.4590  143.2700 C   0  0  0  0  0  2  0  0  0  0  0  0
  189.7070  177.0620  142.4400 C   0  0  0  0  0  2  0  0  0  0  0  0
  189.6190  176.6230  140.9790 C   0  0  0  0  0  2  0  0  0  0  0  0
  190.6050  177.3690  140.0790 C   0  0  0  0  0  2  0  0  0  0  0  0
  188.5690  178.0380  139.3320 O   0  0  0  0  0  1  0  0  0  0  0  0
  189.8870  178.0380  139.0010 N   0  0  0  0  0  0  0  0  0  0  0  0
  190.0240  177.2070  137.8110 C   0  0  0  0  0  2  0  0  0  0  0  0
  190.9650  176.2000  138.0500 O   0  0  0  0  0  0  0  0  0  0  0  0
  191.9090  176.3370  137.0310 C   0  0  0  0  0  2  0  0  0  0  0  0
  193.8690  176.7680  139.0680 O   0  0  0  0  0  1  0  0  0  0  0  0
  194.7160  176.2710  136.4840 O   0  0  0  0  0  0  0  0  0  0  0  0
  193.5540  175.8990  137.6490 P   0  0  0  0  0  0  0  0  0  0  0  0
  193.5990  174.4190  137.9500 O   0  0  0  0  0  1  0  0  0  0  0  0
  184.3900  177.6890  138.7880 O   0  0  0  0  0  0  0  0  0  0  0  0
  183.4360  176.7000  138.4310 C   0  0  2  0  0  3  0  0  0  0  0  0
  180.9130  174.3420  136.7220 C   0  0  0  0  0  2  0  0  0  0  0  0
  182.9400  174.4620  136.0620 C   0  0  2  0  0  0  0  0  0  0  0  0
  183.8070  175.9220  136.7960 P   0  0  0  0  0  0  0  0  0  0  0  0
  184.5980  176.8830  135.6630 O   0  0  0  0  0  1  0  0  0  0  0  0
  181.6700  175.1870  135.7040 C   0  0  2  0  0  3  0  0  0  0  0  0
  182.1510  176.4920  136.2820 C   0  0  0  0  0  2  0  0  0  0  0  0
  182.1740  173.5470  137.0100 C   0  0  2  0  0  3  0  0  0  0  0  0
  183.5500  173.8860  134.8970 O   0  0  0  0  0  0  0  0  0  0  0  0
  185.8880  173.3800  134.6860 O   0  0  0  0  0  0  0  0  0  0  0  0
  184.5870  172.9480  134.9020 C   0  0  0  0  0  0  0  0  0  0  0  0
  184.3640  171.7200  135.0790 O   0  0  0  0  0  1  0  0  0  0  0  0
  185.3550  175.1430  137.3590 C   0  0  0  0  0  2  0  0  0  0  0  0
  187.5260  175.1770  136.9940 C   0  0  0  0  0  1  0  0  0  0  0  0
  186.4370  176.0130  137.2330 O   0  0  0  0  0  0  0  0  0  0  0  0
  182.0220  172.0540  136.6090 C   0  0  0  0  0  2  0  0  0  0  0  0
  180.7660  171.8700  134.6220 O   0  0  0  0  0  0  0  0  0  0  0  0
  180.8120  171.6170  135.8110 C   0  0  0  0  0  0  0  0  0  0  0  0
  179.7010  170.8000  136.3880 C   0  0  0  0  0  1  0  0  0  0  0  0
  182.0420  177.3300  138.4620 C   0  0  0  0  0  2  0  0  0  0  0  0
  181.6450  175.4220  139.8590 O   0  0  0  0  0  1  0  0  0  0  0  0
  181.1340  176.6710  139.4890 C   0  0  1  0  0  3  0  0  0  0  0  0
  180.9260  177.5600  140.7140 C   0  0  0  0  0  2  0  0  0  0  0  0
  179.7110  178.5060  140.6780 C   0  0  2  0  0  3  0  0  0  0  0  0
  180.2000  179.8970  140.2700 C   0  0  0  0  0  1  0  0  0  0  0  0
  178.9490  178.5890  142.0010 C   0  0  0  0  0  2  0  0  0  0  0  0
  179.8200  178.5450  143.0960 O   0  0  0  0  0  1  0  0  0  0  0  0
  1  7  1  6  0  0  0
  1 10  1  0  0  0  0
  2 13  1  0  0  0  0
  3  8  1  0  0  0  0
  4 18  1  0  0  0  0
  4 15  2  0  0  0  0
  5 16  1  0  0  0  0
  6 13  2  0  0  0  0
  6  7  1  0  0  0  0
  8 17  1  1  0  0  0
  9 16  1  0  0  0  0
 10  8  1  0  0  0  0
 10  5  1  1  0  0  0
 11  9  2  0  0  0  0
 12  1  1  0  0  0  0
 12  9  1  0  0  0  0
 13 14  1  0  0  0  0
 14  3  1  0  0  0  0
 15  6  1  0  0  0  0
 16 19  1  1  0  0  0
 18  2  2  0  0  0  0
 20 12  1  0  0  0  0
 21 20  1  0  0  0  0
 22 21  1  0  0  0  0
 23 22  1  0  0  0  0
 25 24  1  0  0  0  0
 25 23  1  0  0  0  0
 26 27  1  0  0  0  0
 26 25  1  0  0  0  0
 28 31  1  0  0  0  0
 28 27  1  0  0  0  0
 30 31  2  0  0  0  0
 31 32  1  0  0  0  0
 31 29  1  0  0  0  0
 33  4  1  0  0  0  0
 34 53  1  6  0  0  0
 34 33  1  0  0  0  0
 35 41  1  0  0  0  0
 36 42  1  6  0  0  0
 36 37  1  0  0  0  0
 36 41  1  0  0  0  0
 37 46  1  0  0  0  0
 37 34  1  0  0  0  0
 38 37  1  0  0  0  0
 39 36  1  0  0  0  0
 39 40  1  1  0  0  0
 39 35  1  0  0  0  0
 40 37  1  0  0  0  0
 41 49  1  6  0  0  0
 42 44  1  0  0  0  0
 43 44  2  0  0  0  0
 44 45  1  0  0  0  0
 47 48  1  0  0  0  0
 48 46  1  0  0  0  0
 50 51  2  0  0  0  0
 51 52  1  0  0  0  0
 51 49  1  0  0  0  0
 53 55  1  0  0  0  0
 55 54  1  1  0  0  0
 55 56  1  0  0  0  0
 57 58  1  1  0  0  0
 57 56  1  0  0  0  0
 57 59  1  0  0  0  0
 59 60  1  0  0  0  0
M  END
>  <MODEL>
9

>  <REMARK>
 VINA RESULT:      -4.2      2.623      7.520
  Name = 
  23 active torsions:
  status: ('A' for Active; 'I' for Inactive)
    1  A    between atoms: C_3  and  C_20
    2  A    between atoms: C_4  and  O_38
    3  A    between atoms: C_5  and  C_29
    4  A    between atoms: C_5  and  C_58
    5  A    between atoms: C_6  and  C_8
    6  A    between atoms: C_6  and  P_15
    7  A    between atoms: C_6  and  O_49
    8  A    between atoms: C_8  and  C_21
    9  A    between atoms: C_11  and  C_19
   10  A    between atoms: C_11  and  C_48
   11  A    between atoms: C_12  and  P_15
   12  A    between atoms: C_12  and  O_59
   13  A    between atoms: C_13  and  O_49
   14  A    between atoms: C_20  and  C_60
   15  A    between atoms: C_21  and  C_60
   16  A    between atoms: C_27  and  O_28
   17  A    between atoms: C_27  and  N_51
   18  A    between atoms: O_28  and  C_33
   19  A    between atoms: C_29  and  C_50
   20  A    between atoms: C_32  and  O_38
   21  A    between atoms: C_33  and  P_41
   22  A    between atoms: N_43  and  C_50
   23  A    between atoms: N_51  and  C_58
                            x       y       z     vdW  Elec       q    Type
                         _______ _______ _______ _____ _____    ______ ____

>  <TORSDO>
F 23

$$$$
