=
 OpenBabel11062415053D

 66 72  0  0  1  0  0  0  0  0999 V2000
  188.6530  176.1080  142.9890 O   0  0  0  0  0  0  0  0  0  0  0  0
  188.4880  177.3510  142.8820 C   0  0  0  0  0  0  0  0  0  0  0  0
  187.1100  177.7230  140.4300 C   0  0  1  0  0  3  0  0  0  0  0  0
  187.8000  177.8700  141.7490 N   0  0  0  0  0  0  0  0  0  0  0  0
  187.1720  178.9900  140.9830 C   0  0  2  0  0  3  0  0  0  0  0  0
  183.9320  177.9830  140.7300 C   0  0  1  0  0  3  0  0  0  0  0  0
  184.6430  179.3360  140.5840 C   0  0  1  0  0  3  0  0  0  0  0  0
  183.9850  178.6900  143.1980 C   0  0  0  0  0  2  0  0  0  0  0  0
  185.8180  179.4340  141.5870 C   0  0  1  0  0  3  0  0  0  0  0  0
  183.3390  177.7910  142.1370 C   0  0  0  0  0  2  0  0  0  0  0  0
  185.4890  178.8180  142.9680 C   0  0  0  0  0  2  0  0  0  0  0  0
  181.4980  178.7910  139.7840 S   0  0  0  0  0  0  0  0  0  0  0  0
  182.3980  176.5490  137.6400 C   0  0  0  0  0  3  0  0  0  0  0  0
  180.1930  177.7780  137.5600 C   0  0  1  0  0  3  0  0  0  0  0  0
  180.1150  177.9030  139.0840 C   0  0  0  0  0  2  0  0  0  0  0  0
  179.5360  178.9170  136.9470 N   0  0  0  0  0  1  0  0  0  0  0  0
  182.9090  177.7820  139.7090 N   0  0  0  0  0  0  0  0  0  0  0  0
  182.9910  176.6400  138.8340 C   0  0  0  0  0  3  0  0  0  0  0  0
  181.7420  180.0690  139.0290 O   0  0  0  0  0  0  0  0  0  0  0  0
  181.6130  177.6540  137.0050 C   0  0  0  0  0  2  0  0  0  0  0  0
  181.1810  179.1110  141.2190 O   0  0  0  0  0  0  0  0  0  0  0  0
  184.4550  180.6410  138.8860 O   0  0  0  0  0  1  0  0  0  0  0  0
  185.0720  179.5420  139.2680 O   0  0  0  0  0  0  0  0  0  0  0  0
  189.1550  178.5200  139.4780 O   0  0  0  0  0  1  0  0  0  0  0  0
  188.1400  177.5760  139.3130 C   0  0  2  0  0  3  0  0  0  0  0  0
  187.5570  177.7110  137.8930 C   0  0  2  0  0  3  0  0  0  0  0  0
  186.2910  176.9010  137.5840 C   0  0  2  0  0  3  0  0  0  0  0  0
  186.5760  175.5370  137.5070 O   0  0  0  0  0  1  0  0  0  0  0  0
  185.6660  177.3640  136.2830 C   0  0  0  0  0  1  0  0  0  0  0  0
  189.2020  179.1030  136.6260 C   0  0  0  0  0  1  0  0  0  0  0  0
  188.6020  177.7150  136.7710 C   0  0  1  0  0  3  0  0  0  0  0  0
  189.7150  176.6880  136.9890 C   0  0  0  0  0  2  0  0  0  0  0  0
  188.1600  172.5880  136.5860 C   0  0  0  0  0  2  0  0  0  0  0  0
  188.5830  175.6100  135.1460 O   0  0  0  0  0  0  0  0  0  0  0  0
  189.1340  172.1110  135.5040 C   0  0  0  0  0  2  0  0  0  0  0  0
  188.9780  173.5770  135.8020 C   0  0  0  0  0  0  0  0  0  0  0  0
  190.0720  174.3030  136.4640 C   0  0  0  0  0  2  0  0  0  0  0  0
  188.3060  174.3370  134.8530 O   0  0  0  0  0  0  0  0  0  0  0  0
  189.8080  175.6580  135.8660 C   0  0  2  0  0  0  0  0  0  0  0  0
  190.9570  176.0870  134.9420 C   0  0  0  0  0  2  0  0  0  0  0  0
  192.6950  174.3120  134.7460 C   0  0  0  0  0  3  0  0  0  0  0  0
  193.1810  176.4070  136.0590 C   0  0  0  0  0  2  0  0  0  0  0  0
  194.4840  174.6440  137.2580 C   0  0  2  0  0  3  0  0  0  0  0  0
  193.5440  175.8320  137.4170 C   0  0  0  0  0  2  0  0  0  0  0  0
  192.2510  175.5400  135.3400 N   0  0  0  0  0  0  0  0  0  0  0  0
  193.6530  173.4250  136.8820 C   0  0  0  0  0  2  0  0  0  0  0  0
  193.3690  173.3730  135.4120 C   0  0  0  0  0  3  0  0  0  0  0  0
  195.2610  174.4020  138.5630 C   0  0  2  0  0  3  0  0  0  0  0  0
  194.9610  175.4040  139.4900 O   0  0  0  0  0  1  0  0  0  0  0  0
  197.1760  174.6110  136.9270 C   0  0  0  0  0  1  0  0  0  0  0  0
  196.7820  174.3600  138.3730 C   0  0  1  0  0  3  0  0  0  0  0  0
  198.5330  175.5890  138.5750 O   0  0  0  0  0  1  0  0  0  0  0  0
  197.4290  175.2690  139.2160 O   0  0  0  0  0  0  0  0  0  0  0  0
  188.9480  178.2340  143.8660 O   0  0  0  0  0  0  0  0  0  0  0  0
  189.2990  177.8700  145.2100 C   0  0  2  0  0  3  0  0  0  0  0  0
  190.9990  177.2060  146.9360 C   0  0  0  0  0  2  0  0  0  0  0  0
  190.7990  177.7200  145.5100 C   0  0  1  0  0  3  0  0  0  0  0  0
  192.0650  175.7300  145.4060 O   0  0  0  0  0  0  0  0  0  0  0  0
  191.5050  176.7240  144.5720 C   0  0  0  0  0  2  0  0  0  0  0  0
  191.7960  175.9840  146.7290 C   0  0  0  0  0  0  0  0  0  0  0  0
  192.1940  175.2420  147.6620 O   0  0  0  0  0  0  0  0  0  0  0  0
  188.4360  176.9350  145.8290 O   0  0  0  0  0  0  0  0  0  0  0  0
  187.8270  176.8450  148.0170 F   0  0  0  0  0  0  0  0  0  0  0  0
  187.7140  177.5740  146.8470 C   0  0  2  0  0  3  0  0  0  0  0  0
  185.7910  179.1130  146.5070 C   0  0  0  0  0  1  0  0  0  0  0  0
  186.2540  177.6700  146.4450 C   0  0  0  0  0  2  0  0  0  0  0  0
  2  1  2  0  0  0  0
  2 54  1  0  0  0  0
  3 25  1  6  0  0  0
  3  5  1  0  0  0  0
  3  4  1  0  0  0  0
  4  2  1  0  0  0  0
  5  9  1  0  0  0  0
  5  4  1  1  0  0  0
  6 17  1  6  0  0  0
  6 10  1  0  0  0  0
  7 23  1  6  0  0  0
  7  6  1  0  0  0  0
  7  9  1  0  0  0  0
  9 11  1  1  0  0  0
 10  8  1  0  0  0  0
 11  8  1  0  0  0  0
 12 21  2  0  0  0  0
 13 18  2  0  0  0  0
 14 16  1  6  0  0  0
 14 15  1  0  0  0  0
 15 12  1  0  0  0  0
 17 12  1  0  0  0  0
 18 17  1  0  0  0  0
 19 12  2  0  0  0  0
 20 14  1  0  0  0  0
 20 13  1  0  0  0  0
 22 23  1  0  0  0  0
 25 24  1  1  0  0  0
 26 31  1  6  0  0  0
 26 25  1  0  0  0  0
 27 29  1  6  0  0  0
 27 26  1  0  0  0  0
 28 27  1  0  0  0  0
 31 30  1  1  0  0  0
 31 32  1  0  0  0  0
 34 39  1  0  0  0  0
 35 36  1  0  0  0  0
 35 33  1  0  0  0  0
 36 37  1  0  0  0  0
 36 33  1  0  0  0  0
 38 34  1  0  0  0  0
 38 36  1  0  0  0  0
 39 40  1  6  0  0  0
 39 37  1  0  0  0  0
 39 32  1  0  0  0  0
 40 45  1  0  0  0  0
 41 45  1  0  0  0  0
 41 47  2  0  0  0  0
 42 44  1  0  0  0  0
 43 44  1  0  0  0  0
 43 48  1  1  0  0  0
 45 42  1  0  0  0  0
 46 43  1  0  0  0  0
 47 46  1  0  0  0  0
 48 49  1  1  0  0  0
 51 50  1  6  0  0  0
 51 48  1  0  0  0  0
 51 53  1  0  0  0  0
 52 53  1  0  0  0  0
 55 54  1  6  0  0  0
 55 62  1  0  0  0  0
 57 55  1  6  0  0  0
 57 56  1  0  0  0  0
 58 60  1  0  0  0  0
 59 58  1  0  0  0  0
 59 57  1  0  0  0  0
 60 56  1  0  0  0  0
 60 61  2  0  0  0  0
 62 64  1  0  0  0  0
 64 63  1  1  0  0  0
 66 65  1  0  0  0  0
 66 64  1  0  0  0  0
M  END
>  <MODEL>
1

>  <REMARK>
 VINA RESULT:      -8.1      0.000      0.000
  Name = 
  20 active torsions:
  status: ('A' for Active; 'I' for Inactive)
    1  A    between atoms: C_6  and  O_8
    2  A    between atoms: C_6  and  C_19
    3  A    between atoms: C_6  and  O_57
    4  A    between atoms: O_8  and  C_65
    5  A    between atoms: C_12  and  C_18
    6  A    between atoms: O_17  and  C_45
    7  A    between atoms: C_18  and  C_23
    8  A    between atoms: C_18  and  C_32
    9  A    between atoms: C_20  and  O_57
   10  A    between atoms: C_23  and  C_52
   11  A    between atoms: C_24  and  N_42
   12  A    between atoms: C_24  and  C_64
   13  A    between atoms: C_26  and  C_65
   14  A    between atoms: N_29  and  C_30
   15  A    between atoms: C_31  and  C_32
   16  A    between atoms: C_34  and  C_40
   17  A    between atoms: C_40  and  C_45
   18  A    between atoms: C_47  and  O_51
   19  A    between atoms: C_52  and  C_64
   20  A    between atoms: C_54  and  C_58
                            x       y       z     vdW  Elec       q    Type
                         _______ _______ _______ _____ _____    ______ ____

>  <TORSDO>
F 20

$$$$
=
 OpenBabel11062415053D

 66 72  0  0  1  0  0  0  0  0999 V2000
  188.1750  175.9060  142.8010 O   0  0  0  0  0  0  0  0  0  0  0  0
  188.0490  177.1570  142.8270 C   0  0  0  0  0  0  0  0  0  0  0  0
  186.8720  177.8500  140.3390 C   0  0  1  0  0  3  0  0  0  0  0  0
  187.4630  177.8240  141.7140 N   0  0  0  0  0  0  0  0  0  0  0  0
  186.9230  179.0440  141.0380 C   0  0  2  0  0  3  0  0  0  0  0  0
  183.7160  177.9690  140.6670 C   0  0  1  0  0  3  0  0  0  0  0  0
  184.4050  179.3360  140.5430 C   0  0  1  0  0  3  0  0  0  0  0  0
  183.6610  178.6840  143.1320 C   0  0  0  0  0  2  0  0  0  0  0  0
  185.5380  179.4610  141.5900 C   0  0  1  0  0  3  0  0  0  0  0  0
  183.0740  177.7680  142.0500 C   0  0  0  0  0  2  0  0  0  0  0  0
  185.1700  178.8420  142.9590 C   0  0  0  0  0  2  0  0  0  0  0  0
  181.2990  178.7170  139.6320 S   0  0  0  0  0  0  0  0  0  0  0  0
  182.3340  176.5020  137.5210 C   0  0  0  0  0  3  0  0  0  0  0  0
  180.1040  177.6740  137.3600 C   0  0  1  0  0  3  0  0  0  0  0  0
  179.9660  177.7950  138.8800 C   0  0  0  0  0  2  0  0  0  0  0  0
  179.4410  178.7970  136.7240 N   0  0  0  0  0  1  0  0  0  0  0  0
  182.7380  177.7430  139.6080 N   0  0  0  0  0  0  0  0  0  0  0  0
  182.8810  176.6050  138.7360 C   0  0  0  0  0  3  0  0  0  0  0  0
  181.5380  180.0010  138.8870 O   0  0  0  0  0  0  0  0  0  0  0  0
  181.5460  177.5880  136.8570 C   0  0  0  0  0  2  0  0  0  0  0  0
  180.9210  179.0260  141.0550 O   0  0  0  0  0  0  0  0  0  0  0  0
  184.3590  180.7030  138.8840 O   0  0  0  0  0  1  0  0  0  0  0  0
  184.8780  179.5470  139.2430 O   0  0  0  0  0  0  0  0  0  0  0  0
  188.8720  178.8520  139.4920 O   0  0  0  0  0  1  0  0  0  0  0  0
  187.9800  177.7970  139.2920 C   0  0  2  0  0  3  0  0  0  0  0  0
  187.4770  177.8370  137.8360 C   0  0  2  0  0  3  0  0  0  0  0  0
  186.2440  176.9850  137.5060 C   0  0  2  0  0  3  0  0  0  0  0  0
  186.5480  175.6240  137.5560 O   0  0  0  0  0  1  0  0  0  0  0  0
  185.7060  177.3360  136.1330 C   0  0  0  0  0  1  0  0  0  0  0  0
  189.2230  179.1660  136.6390 C   0  0  0  0  0  1  0  0  0  0  0  0
  188.5840  177.7960  136.7750 C   0  0  1  0  0  3  0  0  0  0  0  0
  189.6590  176.7490  137.0760 C   0  0  0  0  0  2  0  0  0  0  0  0
  188.2010  172.6100  136.7040 C   0  0  0  0  0  2  0  0  0  0  0  0
  188.5960  175.6170  135.2250 O   0  0  0  0  0  0  0  0  0  0  0  0
  189.2120  172.1360  135.6540 C   0  0  0  0  0  2  0  0  0  0  0  0
  189.0180  173.6030  135.9240 C   0  0  0  0  0  0  0  0  0  0  0  0
  190.0790  174.3640  136.6000 C   0  0  0  0  0  2  0  0  0  0  0  0
  188.3540  174.3330  134.9470 O   0  0  0  0  0  0  0  0  0  0  0  0
  189.8020  175.7020  135.9730 C   0  0  2  0  0  0  0  0  0  0  0  0
  190.9640  176.1420  135.0710 C   0  0  0  0  0  2  0  0  0  0  0  0
  192.6040  174.2840  134.8110 C   0  0  0  0  0  3  0  0  0  0  0  0
  193.2270  176.3350  136.1360 C   0  0  0  0  0  2  0  0  0  0  0  0
  194.4670  174.4930  137.2820 C   0  0  2  0  0  3  0  0  0  0  0  0
  193.5930  175.7250  137.4780 C   0  0  0  0  0  2  0  0  0  0  0  0
  192.2370  175.5240  135.4300 N   0  0  0  0  0  0  0  0  0  0  0  0
  193.5670  173.3220  136.9140 C   0  0  0  0  0  2  0  0  0  0  0  0
  193.2450  173.3030  135.4510 C   0  0  0  0  0  3  0  0  0  0  0  0
  195.2620  174.1960  138.5650 C   0  0  2  0  0  3  0  0  0  0  0  0
  195.1730  175.2790  139.4440 O   0  0  0  0  0  1  0  0  0  0  0  0
  197.0440  173.7410  136.8320 C   0  0  0  0  0  1  0  0  0  0  0  0
  196.7450  173.9000  138.3130 C   0  0  1  0  0  3  0  0  0  0  0  0
  198.0020  175.5760  137.8410 O   0  0  0  0  0  1  0  0  0  0  0  0
  197.5660  174.8840  138.8720 O   0  0  0  0  0  0  0  0  0  0  0  0
  188.4540  177.9070  143.9370 O   0  0  0  0  0  0  0  0  0  0  0  0
  188.9550  177.3640  145.1680 C   0  0  2  0  0  3  0  0  0  0  0  0
  188.6040  176.9800  147.6250 C   0  0  0  0  0  2  0  0  0  0  0  0
  187.9170  177.0730  146.2630 C   0  0  1  0  0  3  0  0  0  0  0  0
  186.9120  178.6480  147.7060 O   0  0  0  0  0  0  0  0  0  0  0  0
  186.8400  178.1680  146.3790 C   0  0  0  0  0  2  0  0  0  0  0  0
  187.8890  177.9940  148.4180 C   0  0  0  0  0  0  0  0  0  0  0  0
  188.1390  178.2450  149.6240 O   0  0  0  0  0  0  0  0  0  0  0  0
  190.1960  177.8900  145.6000 O   0  0  0  0  0  0  0  0  0  0  0  0
  192.1760  176.8150  145.9020 F   0  0  0  0  0  0  0  0  0  0  0  0
  191.2380  177.2020  144.9620 C   0  0  2  0  0  3  0  0  0  0  0  0
  191.7000  177.5430  142.5430 C   0  0  0  0  0  1  0  0  0  0  0  0
  191.8890  178.1110  143.9360 C   0  0  0  0  0  2  0  0  0  0  0  0
  1  2  2  0  0  0  0
  2 54  1  0  0  0  0
  3 25  1  6  0  0  0
  3  5  1  0  0  0  0
  3  4  1  0  0  0  0
  4  2  1  0  0  0  0
  5  9  1  0  0  0  0
  5  4  1  1  0  0  0
  6 17  1  6  0  0  0
  6 10  1  0  0  0  0
  7 23  1  6  0  0  0
  7  6  1  0  0  0  0
  7  9  1  0  0  0  0
  9 11  1  1  0  0  0
 10  8  1  0  0  0  0
 11  8  1  0  0  0  0
 12 21  2  0  0  0  0
 13 18  2  0  0  0  0
 14 16  1  6  0  0  0
 14 15  1  0  0  0  0
 15 12  1  0  0  0  0
 17 12  1  0  0  0  0
 18 17  1  0  0  0  0
 19 12  2  0  0  0  0
 20 14  1  0  0  0  0
 20 13  1  0  0  0  0
 22 23  1  0  0  0  0
 25 24  1  1  0  0  0
 26 31  1  6  0  0  0
 26 25  1  0  0  0  0
 27 29  1  6  0  0  0
 27 28  1  0  0  0  0
 27 26  1  0  0  0  0
 31 30  1  1  0  0  0
 31 32  1  0  0  0  0
 34 39  1  0  0  0  0
 35 36  1  0  0  0  0
 35 33  1  0  0  0  0
 36 37  1  0  0  0  0
 36 33  1  0  0  0  0
 38 34  1  0  0  0  0
 38 36  1  0  0  0  0
 39 40  1  6  0  0  0
 39 37  1  0  0  0  0
 39 32  1  0  0  0  0
 40 45  1  0  0  0  0
 41 45  1  0  0  0  0
 41 47  2  0  0  0  0
 42 44  1  0  0  0  0
 43 44  1  0  0  0  0
 43 48  1  1  0  0  0
 45 42  1  0  0  0  0
 46 43  1  0  0  0  0
 47 46  1  0  0  0  0
 48 49  1  1  0  0  0
 51 50  1  6  0  0  0
 51 48  1  0  0  0  0
 51 53  1  0  0  0  0
 52 53  1  0  0  0  0
 55 54  1  6  0  0  0
 55 62  1  0  0  0  0
 56 60  1  0  0  0  0
 57 55  1  6  0  0  0
 57 59  1  0  0  0  0
 57 56  1  0  0  0  0
 58 60  1  0  0  0  0
 59 58  1  0  0  0  0
 60 61  2  0  0  0  0
 64 62  1  0  0  0  0
 64 63  1  1  0  0  0
 65 66  1  0  0  0  0
 66 64  1  0  0  0  0
M  END
>  <MODEL>
2

>  <REMARK>
 VINA RESULT:      -8.1      1.040      2.041
  Name = 
  20 active torsions:
  status: ('A' for Active; 'I' for Inactive)
    1  A    between atoms: C_6  and  O_8
    2  A    between atoms: C_6  and  C_19
    3  A    between atoms: C_6  and  O_57
    4  A    between atoms: O_8  and  C_65
    5  A    between atoms: C_12  and  C_18
    6  A    between atoms: O_17  and  C_45
    7  A    between atoms: C_18  and  C_23
    8  A    between atoms: C_18  and  C_32
    9  A    between atoms: C_20  and  O_57
   10  A    between atoms: C_23  and  C_52
   11  A    between atoms: C_24  and  N_42
   12  A    between atoms: C_24  and  C_64
   13  A    between atoms: C_26  and  C_65
   14  A    between atoms: N_29  and  C_30
   15  A    between atoms: C_31  and  C_32
   16  A    between atoms: C_34  and  C_40
   17  A    between atoms: C_40  and  C_45
   18  A    between atoms: C_47  and  O_51
   19  A    between atoms: C_52  and  C_64
   20  A    between atoms: C_54  and  C_58
                            x       y       z     vdW  Elec       q    Type
                         _______ _______ _______ _____ _____    ______ ____

>  <TORSDO>
F 20

$$$$
=
 OpenBabel11062415053D

 66 72  0  0  1  0  0  0  0  0999 V2000
  188.3930  176.0870  142.4130 O   0  0  0  0  0  0  0  0  0  0  0  0
  188.1780  177.3250  142.3600 C   0  0  0  0  0  0  0  0  0  0  0  0
  186.7450  177.7420  139.9470 C   0  0  1  0  0  3  0  0  0  0  0  0
  187.4520  177.8620  141.2600 N   0  0  0  0  0  0  0  0  0  0  0  0
  186.7670  178.9870  140.5510 C   0  0  2  0  0  3  0  0  0  0  0  0
  183.5430  177.9550  140.2080 C   0  0  1  0  0  3  0  0  0  0  0  0
  184.2330  179.3270  140.1860 C   0  0  1  0  0  3  0  0  0  0  0  0
  183.5890  178.4340  142.7300 C   0  0  0  0  0  2  0  0  0  0  0  0
  185.4070  179.3520  141.1940 C   0  0  1  0  0  3  0  0  0  0  0  0
  182.9560  177.6250  141.5910 C   0  0  0  0  0  2  0  0  0  0  0  0
  185.0910  178.6060  142.5120 C   0  0  0  0  0  2  0  0  0  0  0  0
  181.2030  178.9600  139.2160 S   0  0  0  0  0  0  0  0  0  0  0  0
  181.9370  176.6240  137.1090 C   0  0  0  0  0  3  0  0  0  0  0  0
  179.8490  178.0380  136.9820 C   0  0  1  0  0  3  0  0  0  0  0  0
  179.7590  178.1870  138.5030 C   0  0  0  0  0  2  0  0  0  0  0  0
  179.3020  179.2220  136.3460 N   0  0  0  0  0  1  0  0  0  0  0  0
  182.5230  177.8310  139.1730 N   0  0  0  0  0  0  0  0  0  0  0  0
  182.5180  176.6760  138.3110 C   0  0  0  0  0  3  0  0  0  0  0  0
  181.5680  180.2030  138.4520 O   0  0  0  0  0  0  0  0  0  0  0  0
  181.2600  177.7850  136.4500 C   0  0  0  0  0  2  0  0  0  0  0  0
  180.8940  179.3230  140.6420 O   0  0  0  0  0  0  0  0  0  0  0  0
  184.3550  180.9350  138.7650 O   0  0  0  0  0  1  0  0  0  0  0  0
  184.6550  179.6600  138.8950 O   0  0  0  0  0  0  0  0  0  0  0  0
  188.1120  178.9760  138.4200 O   0  0  0  0  0  1  0  0  0  0  0  0
  187.7620  177.6820  138.8090 C   0  0  2  0  0  3  0  0  0  0  0  0
  187.2800  176.9010  137.5720 C   0  0  2  0  0  3  0  0  0  0  0  0
  185.7640  176.8150  137.3540 C   0  0  2  0  0  3  0  0  0  0  0  0
  185.3200  175.4950  137.4340 O   0  0  0  0  0  1  0  0  0  0  0  0
  185.3860  177.3970  136.0060 C   0  0  0  0  0  1  0  0  0  0  0  0
  187.0550  174.4720  137.0260 C   0  0  0  0  0  1  0  0  0  0  0  0
  188.0380  175.5940  137.3060 C   0  0  1  0  0  3  0  0  0  0  0  0
  189.0380  175.7100  136.1540 C   0  0  0  0  0  2  0  0  0  0  0  0
  191.0260  176.8800  139.9050 C   0  0  0  0  0  2  0  0  0  0  0  0
  190.6710  174.5420  137.4970 O   0  0  0  0  0  0  0  0  0  0  0  0
  192.4450  177.0160  139.3440 C   0  0  0  0  0  2  0  0  0  0  0  0
  191.3790  176.2980  138.5630 C   0  0  0  0  0  0  0  0  0  0  0  0
  190.8390  176.9100  137.3400 C   0  0  0  0  0  2  0  0  0  0  0  0
  191.4880  174.9160  138.4870 O   0  0  0  0  0  0  0  0  0  0  0  0
  190.4930  175.6400  136.6120 C   0  0  2  0  0  0  0  0  0  0  0  0
  191.3620  175.4670  135.3590 C   0  0  0  0  0  2  0  0  0  0  0  0
  192.6460  173.3310  135.4040 C   0  0  0  0  0  3  0  0  0  0  0  0
  193.8390  175.5230  135.7540 C   0  0  0  0  0  2  0  0  0  0  0  0
  195.1340  173.9160  137.1630 C   0  0  2  0  0  3  0  0  0  0  0  0
  194.4930  175.2960  137.1070 C   0  0  0  0  0  2  0  0  0  0  0  0
  192.6070  174.7490  135.6160 N   0  0  0  0  0  0  0  0  0  0  0  0
  194.0410  172.8930  137.4380 C   0  0  0  0  0  2  0  0  0  0  0  0
  193.3250  172.4890  136.1850 C   0  0  0  0  0  3  0  0  0  0  0  0
  196.2150  173.8770  138.2560 C   0  0  2  0  0  3  0  0  0  0  0  0
  195.9380  174.8340  139.2370 O   0  0  0  0  0  1  0  0  0  0  0  0
  197.8230  173.5450  136.3350 C   0  0  0  0  0  1  0  0  0  0  0  0
  197.6330  174.1250  137.7260 C   0  0  1  0  0  3  0  0  0  0  0  0
  197.8750  175.8510  136.4700 O   0  0  0  0  0  1  0  0  0  0  0  0
  197.9500  175.4870  137.7320 O   0  0  0  0  0  0  0  0  0  0  0  0
  188.6190  178.1840  143.3730 O   0  0  0  0  0  0  0  0  0  0  0  0
  188.9780  177.7840  144.7050 C   0  0  2  0  0  3  0  0  0  0  0  0
  190.7090  177.2420  146.4420 C   0  0  0  0  0  2  0  0  0  0  0  0
  190.4690  177.8690  145.0680 C   0  0  1  0  0  3  0  0  0  0  0  0
  192.0770  176.1570  144.8280 O   0  0  0  0  0  0  0  0  0  0  0  0
  191.3760  177.1230  144.0720 C   0  0  0  0  0  2  0  0  0  0  0  0
  191.7200  176.2110  146.1540 C   0  0  0  0  0  0  0  0  0  0  0  0
  192.2140  175.4510  147.0260 O   0  0  0  0  0  0  0  0  0  0  0  0
  188.2670  176.6710  145.2130 O   0  0  0  0  0  0  0  0  0  0  0  0
  186.0770  177.1090  144.7880 F   0  0  0  0  0  0  0  0  0  0  0  0
  187.0550  177.1090  145.7660 C   0  0  2  0  0  3  0  0  0  0  0  0
  185.9990  178.9210  147.1010 C   0  0  0  0  0  1  0  0  0  0  0  0
  187.2280  178.5140  146.3130 C   0  0  0  0  0  2  0  0  0  0  0  0
  2  1  2  0  0  0  0
  2 54  1  0  0  0  0
  3 25  1  6  0  0  0
  3  5  1  0  0  0  0
  3  4  1  0  0  0  0
  4  2  1  0  0  0  0
  5  9  1  0  0  0  0
  5  4  1  1  0  0  0
  6 17  1  6  0  0  0
  6 10  1  0  0  0  0
  7 23  1  6  0  0  0
  7  6  1  0  0  0  0
  7  9  1  0  0  0  0
  9 11  1  1  0  0  0
 10  8  1  0  0  0  0
 11  8  1  0  0  0  0
 12 21  2  0  0  0  0
 13 18  2  0  0  0  0
 14 16  1  6  0  0  0
 14 15  1  0  0  0  0
 15 12  1  0  0  0  0
 17 12  1  0  0  0  0
 18 17  1  0  0  0  0
 19 12  2  0  0  0  0
 20 14  1  0  0  0  0
 20 13  1  0  0  0  0
 22 23  1  0  0  0  0
 25 24  1  6  0  0  0
 26 31  1  1  0  0  0
 26 25  1  0  0  0  0
 27 29  1  6  0  0  0
 27 28  1  0  0  0  0
 27 26  1  0  0  0  0
 31 30  1  6  0  0  0
 32 39  1  0  0  0  0
 32 31  1  0  0  0  0
 34 38  1  0  0  0  0
 35 33  1  0  0  0  0
 36 35  1  0  0  0  0
 36 33  1  0  0  0  0
 37 36  1  0  0  0  0
 38 36  1  0  0  0  0
 39 40  1  6  0  0  0
 39 37  1  0  0  0  0
 39 34  1  0  0  0  0
 40 45  1  0  0  0  0
 41 45  1  0  0  0  0
 41 47  2  0  0  0  0
 42 44  1  0  0  0  0
 43 46  1  0  0  0  0
 43 48  1  1  0  0  0
 44 43  1  0  0  0  0
 45 42  1  0  0  0  0
 47 46  1  0  0  0  0
 48 49  1  1  0  0  0
 51 50  1  6  0  0  0
 51 53  1  0  0  0  0
 51 48  1  0  0  0  0
 52 53  1  0  0  0  0
 55 54  1  6  0  0  0
 55 62  1  0  0  0  0
 57 55  1  6  0  0  0
 57 56  1  0  0  0  0
 58 60  1  0  0  0  0
 59 58  1  0  0  0  0
 59 57  1  0  0  0  0
 60 56  1  0  0  0  0
 60 61  2  0  0  0  0
 62 64  1  0  0  0  0
 64 63  1  6  0  0  0
 64 66  1  0  0  0  0
 66 65  1  0  0  0  0
M  END
>  <MODEL>
3

>  <REMARK>
 VINA RESULT:      -7.3      1.298      1.921
  Name = 
  20 active torsions:
  status: ('A' for Active; 'I' for Inactive)
    1  A    between atoms: C_6  and  O_8
    2  A    between atoms: C_6  and  C_19
    3  A    between atoms: C_6  and  O_57
    4  A    between atoms: O_8  and  C_65
    5  A    between atoms: C_12  and  C_18
    6  A    between atoms: O_17  and  C_45
    7  A    between atoms: C_18  and  C_23
    8  A    between atoms: C_18  and  C_32
    9  A    between atoms: C_20  and  O_57
   10  A    between atoms: C_23  and  C_52
   11  A    between atoms: C_24  and  N_42
   12  A    between atoms: C_24  and  C_64
   13  A    between atoms: C_26  and  C_65
   14  A    between atoms: N_29  and  C_30
   15  A    between atoms: C_31  and  C_32
   16  A    between atoms: C_34  and  C_40
   17  A    between atoms: C_40  and  C_45
   18  A    between atoms: C_47  and  O_51
   19  A    between atoms: C_52  and  C_64
   20  A    between atoms: C_54  and  C_58
                            x       y       z     vdW  Elec       q    Type
                         _______ _______ _______ _____ _____    ______ ____

>  <TORSDO>
F 20

$$$$
=
 OpenBabel11062415053D

 66 72  0  0  1  0  0  0  0  0999 V2000
  189.0120  175.7400  142.1970 O   0  0  0  0  0  0  0  0  0  0  0  0
  188.9100  176.9840  142.0460 C   0  0  0  0  0  0  0  0  0  0  0  0
  187.1280  177.3390  139.8670 C   0  0  1  0  0  3  0  0  0  0  0  0
  188.0590  177.4980  141.0270 N   0  0  0  0  0  0  0  0  0  0  0  0
  187.3730  178.6240  140.3210 C   0  0  2  0  0  3  0  0  0  0  0  0
  184.0350  178.0060  140.5410 C   0  0  1  0  0  3  0  0  0  0  0  0
  184.8730  179.2720  140.3170 C   0  0  1  0  0  3  0  0  0  0  0  0
  184.5360  178.6050  142.9860 C   0  0  0  0  0  2  0  0  0  0  0  0
  186.1870  179.1960  141.1330 C   0  0  1  0  0  3  0  0  0  0  0  0
  183.6380  177.8280  142.0160 C   0  0  0  0  0  2  0  0  0  0  0  0
  185.9940  178.5680  142.5340 C   0  0  0  0  0  2  0  0  0  0  0  0
  182.8670  176.8260  138.3690 S   0  0  0  0  0  0  0  0  0  0  0  0
  180.5790  178.8570  139.4050 C   0  0  0  0  0  3  0  0  0  0  0  0
  180.3530  177.3990  137.3550 C   0  0  1  0  0  3  0  0  0  0  0  0
  181.8510  177.4630  137.0450 C   0  0  0  0  0  2  0  0  0  0  0  0
  179.8190  176.1270  136.9060 N   0  0  0  0  0  1  0  0  0  0  0  0
  182.8560  177.9630  139.6820 N   0  0  0  0  0  0  0  0  0  0  0  0
  181.8480  178.9850  139.8040 C   0  0  0  0  0  3  0  0  0  0  0  0
  182.3470  175.4960  138.8390 O   0  0  0  0  0  0  0  0  0  0  0  0
  180.0000  177.6020  138.8300 C   0  0  0  0  0  2  0  0  0  0  0  0
  184.2710  176.6610  137.8540 O   0  0  0  0  0  0  0  0  0  0  0  0
  184.4800  180.5910  138.6650 O   0  0  0  0  0  1  0  0  0  0  0  0
  185.1240  179.4800  138.9560 O   0  0  0  0  0  0  0  0  0  0  0  0
  188.3850  175.7450  138.6020 O   0  0  0  0  0  1  0  0  0  0  0  0
  187.9220  177.0620  138.5930 C   0  0  2  0  0  3  0  0  0  0  0  0
  189.1150  178.0110  138.3720 C   0  0  2  0  0  3  0  0  0  0  0  0
  188.9730  179.0550  137.2560 C   0  0  2  0  0  3  0  0  0  0  0  0
  189.1880  180.3430  137.7450 O   0  0  0  0  0  1  0  0  0  0  0  0
  187.5980  178.9740  136.6230 C   0  0  0  0  0  1  0  0  0  0  0  0
  191.0740  177.4940  139.8360 C   0  0  0  0  0  1  0  0  0  0  0  0
  190.4900  177.3360  138.4440 C   0  0  1  0  0  3  0  0  0  0  0  0
  190.4470  175.8550  138.0630 C   0  0  0  0  0  2  0  0  0  0  0  0
  194.7010  174.7330  138.2570 C   0  0  0  0  0  2  0  0  0  0  0  0
  191.6550  174.0750  136.9640 O   0  0  0  0  0  0  0  0  0  0  0  0
  195.0660  175.0850  136.8110 C   0  0  0  0  0  2  0  0  0  0  0  0
  193.6270  174.9480  137.2260 C   0  0  0  0  0  0  0  0  0  0  0  0
  192.7760  176.1460  137.3000 C   0  0  0  0  0  2  0  0  0  0  0  0
  192.9530  173.8210  136.7760 O   0  0  0  0  0  0  0  0  0  0  0  0
  191.4640  175.4830  136.9860 C   0  0  2  0  0  0  0  0  0  0  0  0
  190.9070  175.9700  135.6410 C   0  0  0  0  0  2  0  0  0  0  0  0
  188.5970  176.0750  134.7100 C   0  0  0  0  0  3  0  0  0  0  0  0
  189.6930  173.8410  135.1070 C   0  0  0  0  0  2  0  0  0  0  0  0
  187.2700  173.3930  135.5250 C   0  0  2  0  0  3  0  0  0  0  0  0
  188.6890  173.1760  136.0330 C   0  0  0  0  0  2  0  0  0  0  0  0
  189.6730  175.2950  135.2490 N   0  0  0  0  0  0  0  0  0  0  0  0
  186.8260  174.7920  135.9300 C   0  0  0  0  0  2  0  0  0  0  0  0
  187.3110  175.8320  134.9670 C   0  0  0  0  0  3  0  0  0  0  0  0
  186.3280  172.3250  136.1060 C   0  0  2  0  0  3  0  0  0  0  0  0
  186.3990  171.1580  135.3400 O   0  0  0  0  0  1  0  0  0  0  0  0
  183.9100  171.6030  135.9800 C   0  0  0  0  0  1  0  0  0  0  0  0
  184.8620  172.7700  136.1730 C   0  0  1  0  0  3  0  0  0  0  0  0
  185.2840  172.7870  138.2790 O   0  0  0  0  0  1  0  0  0  0  0  0
  184.5830  173.4330  137.3720 O   0  0  0  0  0  0  0  0  0  0  0  0
  189.6000  177.8770  142.8750 O   0  0  0  0  0  0  0  0  0  0  0  0
  189.8890  177.6660  144.2650 C   0  0  2  0  0  3  0  0  0  0  0  0
  191.5180  177.2620  146.1340 C   0  0  0  0  0  2  0  0  0  0  0  0
  191.3390  177.2950  144.6160 C   0  0  1  0  0  3  0  0  0  0  0  0
  192.1400  175.1570  145.2180 O   0  0  0  0  0  0  0  0  0  0  0  0
  191.7520  175.9100  144.0860 C   0  0  0  0  0  2  0  0  0  0  0  0
  192.0200  175.8970  146.3690 C   0  0  0  0  0  0  0  0  0  0  0  0
  192.3110  175.4440  147.5060 O   0  0  0  0  0  0  0  0  0  0  0  0
  188.8750  177.0080  145.0000 O   0  0  0  0  0  0  0  0  0  0  0  0
  188.5880  178.2760  146.8660 F   0  0  0  0  0  0  0  0  0  0  0  0
  188.0620  177.9650  145.6250 C   0  0  2  0  0  3  0  0  0  0  0  0
  185.7720  178.4220  146.4790 C   0  0  0  0  0  1  0  0  0  0  0  0
  186.6610  177.4050  145.7910 C   0  0  0  0  0  2  0  0  0  0  0  0
  2  1  2  0  0  0  0
  2 54  1  0  0  0  0
  3 25  1  6  0  0  0
  3  5  1  0  0  0  0
  3  4  1  0  0  0  0
  4  2  1  0  0  0  0
  5  4  1  1  0  0  0
  5  9  1  0  0  0  0
  6 17  1  6  0  0  0
  6 10  1  0  0  0  0
  7 23  1  6  0  0  0
  7  6  1  0  0  0  0
  7  9  1  0  0  0  0
  9 11  1  1  0  0  0
 10  8  1  0  0  0  0
 11  8  1  0  0  0  0
 12 19  2  0  0  0  0
 12 17  1  0  0  0  0
 13 18  2  0  0  0  0
 14 16  1  1  0  0  0
 14 20  1  0  0  0  0
 15 14  1  0  0  0  0
 15 12  1  0  0  0  0
 17 18  1  0  0  0  0
 20 13  1  0  0  0  0
 21 12  2  0  0  0  0
 22 23  1  0  0  0  0
 25 24  1  1  0  0  0
 26 27  1  6  0  0  0
 26 31  1  0  0  0  0
 26 25  1  0  0  0  0
 27 29  1  1  0  0  0
 27 28  1  0  0  0  0
 31 30  1  1  0  0  0
 32 31  1  0  0  0  0
 34 39  1  0  0  0  0
 35 36  1  0  0  0  0
 35 33  1  0  0  0  0
 36 37  1  0  0  0  0
 36 33  1  0  0  0  0
 38 34  1  0  0  0  0
 38 36  1  0  0  0  0
 39 40  1  6  0  0  0
 39 37  1  0  0  0  0
 39 32  1  0  0  0  0
 41 47  2  0  0  0  0
 41 45  1  0  0  0  0
 42 45  1  0  0  0  0
 42 44  1  0  0  0  0
 43 46  1  0  0  0  0
 43 44  1  0  0  0  0
 43 48  1  1  0  0  0
 45 40  1  0  0  0  0
 47 46  1  0  0  0  0
 48 49  1  6  0  0  0
 48 51  1  0  0  0  0
 51 50  1  1  0  0  0
 51 53  1  0  0  0  0
 53 52  1  0  0  0  0
 55 54  1  6  0  0  0
 55 62  1  0  0  0  0
 56 60  1  0  0  0  0
 57 55  1  1  0  0  0
 57 56  1  0  0  0  0
 58 60  1  0  0  0  0
 59 57  1  0  0  0  0
 59 58  1  0  0  0  0
 60 61  2  0  0  0  0
 62 64  1  0  0  0  0
 64 66  1  0  0  0  0
 64 63  1  1  0  0  0
 66 65  1  0  0  0  0
M  END
>  <MODEL>
4

>  <REMARK>
 VINA RESULT:      -6.8      1.923      4.764
  Name = 
  20 active torsions:
  status: ('A' for Active; 'I' for Inactive)
    1  A    between atoms: C_6  and  O_8
    2  A    between atoms: C_6  and  C_19
    3  A    between atoms: C_6  and  O_57
    4  A    between atoms: O_8  and  C_65
    5  A    between atoms: C_12  and  C_18
    6  A    between atoms: O_17  and  C_45
    7  A    between atoms: C_18  and  C_23
    8  A    between atoms: C_18  and  C_32
    9  A    between atoms: C_20  and  O_57
   10  A    between atoms: C_23  and  C_52
   11  A    between atoms: C_24  and  N_42
   12  A    between atoms: C_24  and  C_64
   13  A    between atoms: C_26  and  C_65
   14  A    between atoms: N_29  and  C_30
   15  A    between atoms: C_31  and  C_32
   16  A    between atoms: C_34  and  C_40
   17  A    between atoms: C_40  and  C_45
   18  A    between atoms: C_47  and  O_51
   19  A    between atoms: C_52  and  C_64
   20  A    between atoms: C_54  and  C_58
                            x       y       z     vdW  Elec       q    Type
                         _______ _______ _______ _____ _____    ______ ____

>  <TORSDO>
F 20

$$$$
=
 OpenBabel11062415053D

 66 72  0  0  1  0  0  0  0  0999 V2000
  188.1800  176.0920  142.8570 O   0  0  0  0  0  0  0  0  0  0  0  0
  187.9580  177.3280  142.7890 C   0  0  0  0  0  0  0  0  0  0  0  0
  186.7390  177.7410  140.2600 C   0  0  1  0  0  3  0  0  0  0  0  0
  187.3270  177.8630  141.6310 N   0  0  0  0  0  0  0  0  0  0  0  0
  186.6960  178.9840  140.8670 C   0  0  2  0  0  3  0  0  0  0  0  0
  183.5200  177.9600  140.2020 C   0  0  1  0  0  3  0  0  0  0  0  0
  184.2060  179.3320  140.2770 C   0  0  1  0  0  3  0  0  0  0  0  0
  183.3310  178.3790  142.7280 C   0  0  0  0  0  2  0  0  0  0  0  0
  185.2820  179.3330  141.3900 C   0  0  1  0  0  3  0  0  0  0  0  0
  182.8080  177.5980  141.5160 C   0  0  0  0  0  2  0  0  0  0  0  0
  184.8450  178.5570  142.6550 C   0  0  0  0  0  2  0  0  0  0  0  0
  182.1120  176.2690  138.5800 S   0  0  0  0  0  0  0  0  0  0  0  0
  181.2270  179.1900  137.5210 C   0  0  0  0  0  3  0  0  0  0  0  0
  180.4360  177.0180  136.5050 C   0  0  1  0  0  3  0  0  0  0  0  0
  181.7450  176.2940  136.8320 C   0  0  0  0  0  2  0  0  0  0  0  0
  179.3390  176.0700  136.5350 N   0  0  0  0  0  1  0  0  0  0  0  0
  182.6000  177.8620  139.0740 N   0  0  0  0  0  0  0  0  0  0  0  0
  182.3130  179.0330  138.2850 C   0  0  0  0  0  3  0  0  0  0  0  0
  180.9050  175.8380  139.3660 O   0  0  0  0  0  0  0  0  0  0  0  0
  180.1130  178.1950  137.4270 C   0  0  0  0  0  2  0  0  0  0  0  0
  183.2370  175.2990  138.8170 O   0  0  0  0  0  0  0  0  0  0  0  0
  184.3510  180.9380  138.8550 O   0  0  0  0  0  1  0  0  0  0  0  0
  184.7460  179.6960  139.0390 O   0  0  0  0  0  0  0  0  0  0  0  0
  188.6530  178.8320  139.3280 O   0  0  0  0  0  1  0  0  0  0  0  0
  187.8520  177.6950  139.2160 C   0  0  2  0  0  3  0  0  0  0  0  0
  187.3520  177.5770  137.7640 C   0  0  2  0  0  3  0  0  0  0  0  0
  185.9630  176.9590  137.5580 C   0  0  2  0  0  3  0  0  0  0  0  0
  186.0430  175.5700  137.4530 O   0  0  0  0  0  1  0  0  0  0  0  0
  185.3060  177.5250  136.3140 C   0  0  0  0  0  1  0  0  0  0  0  0
  189.3780  178.2460  136.4620 C   0  0  0  0  0  1  0  0  0  0  0  0
  188.4120  177.1120  136.7580 C   0  0  1  0  0  3  0  0  0  0  0  0
  189.1860  175.8810  137.2340 C   0  0  0  0  0  2  0  0  0  0  0  0
  186.8100  172.2730  136.3830 C   0  0  0  0  0  2  0  0  0  0  0  0
  188.3410  175.0120  135.1440 O   0  0  0  0  0  0  0  0  0  0  0  0
  187.8810  171.5100  135.5950 C   0  0  0  0  0  2  0  0  0  0  0  0
  188.0270  172.9850  135.8570 C   0  0  0  0  0  0  0  0  0  0  0  0
  189.0560  173.4560  136.7950 C   0  0  0  0  0  2  0  0  0  0  0  0
  187.8390  173.8310  134.7730 O   0  0  0  0  0  0  0  0  0  0  0  0
  189.3070  174.7980  136.1640 C   0  0  2  0  0  0  0  0  0  0  0  0
  190.7270  174.8800  135.5860 C   0  0  0  0  0  2  0  0  0  0  0  0
  192.0490  175.7590  137.5060 C   0  0  0  0  0  3  0  0  0  0  0  0
  192.2530  173.3370  136.8440 C   0  0  0  0  0  2  0  0  0  0  0  0
  194.5290  173.9070  137.7010 C   0  0  2  0  0  3  0  0  0  0  0  0
  193.7460  173.2200  136.5910 C   0  0  0  0  0  2  0  0  0  0  0  0
  191.7700  174.6920  136.5900 N   0  0  0  0  0  0  0  0  0  0  0  0
  194.5270  175.4050  137.4310 C   0  0  0  0  0  2  0  0  0  0  0  0
  193.2770  176.0620  137.9320 C   0  0  0  0  0  3  0  0  0  0  0  0
  195.9650  173.3580  137.7570 C   0  0  2  0  0  3  0  0  0  0  0  0
  196.4760  173.4860  139.0520 O   0  0  0  0  0  1  0  0  0  0  0  0
  198.2170  174.4690  137.4750 C   0  0  0  0  0  1  0  0  0  0  0  0
  196.9270  174.0570  136.7880 C   0  0  1  0  0  3  0  0  0  0  0  0
  197.0770  172.0220  136.1140 O   0  0  0  0  0  1  0  0  0  0  0  0
  197.2030  173.2570  135.6750 O   0  0  0  0  0  0  0  0  0  0  0  0
  188.3010  178.1880  143.8390 O   0  0  0  0  0  0  0  0  0  0  0  0
  189.1830  177.8630  144.9250 C   0  0  2  0  0  3  0  0  0  0  0  0
  191.1290  176.7850  143.7600 C   0  0  0  0  0  2  0  0  0  0  0  0
  190.6890  177.9580  144.6370 C   0  0  1  0  0  3  0  0  0  0  0  0
  191.6990  178.8300  142.6900 O   0  0  0  0  0  0  0  0  0  0  0  0
  191.0810  179.2460  143.8910 C   0  0  0  0  0  2  0  0  0  0  0  0
  191.7380  177.4600  142.6010 C   0  0  0  0  0  0  0  0  0  0  0  0
  192.2450  176.8520  141.6240 O   0  0  0  0  0  0  0  0  0  0  0  0
  188.7630  176.7870  145.7430 O   0  0  0  0  0  0  0  0  0  0  0  0
  190.1470  175.8850  147.3050 F   0  0  0  0  0  0  0  0  0  0  0  0
  189.3020  176.9440  147.0280 C   0  0  2  0  0  3  0  0  0  0  0  0
  187.9710  178.3960  148.5450 C   0  0  0  0  0  1  0  0  0  0  0  0
  188.1770  176.9800  148.0450 C   0  0  0  0  0  2  0  0  0  0  0  0
  2  1  2  0  0  0  0
  2 54  1  0  0  0  0
  3 25  1  6  0  0  0
  3  5  1  0  0  0  0
  3  4  1  0  0  0  0
  4  2  1  0  0  0  0
  5  9  1  0  0  0  0
  5  4  1  1  0  0  0
  6 17  1  6  0  0  0
  6  7  1  0  0  0  0
  6 10  1  0  0  0  0
  7 23  1  6  0  0  0
  7  9  1  0  0  0  0
  9 11  1  1  0  0  0
 10  8  1  0  0  0  0
 11  8  1  0  0  0  0
 12 21  2  0  0  0  0
 12 17  1  0  0  0  0
 12 19  2  0  0  0  0
 13 18  2  0  0  0  0
 14 16  1  1  0  0  0
 14 15  1  0  0  0  0
 14 20  1  0  0  0  0
 15 12  1  0  0  0  0
 18 17  1  0  0  0  0
 20 13  1  0  0  0  0
 22 23  1  0  0  0  0
 25 24  1  6  0  0  0
 26 31  1  6  0  0  0
 26 25  1  0  0  0  0
 27 29  1  6  0  0  0
 27 26  1  0  0  0  0
 28 27  1  0  0  0  0
 31 30  1  1  0  0  0
 31 32  1  0  0  0  0
 34 39  1  0  0  0  0
 35 36  1  0  0  0  0
 35 33  1  0  0  0  0
 36 33  1  0  0  0  0
 36 37  1  0  0  0  0
 38 34  1  0  0  0  0
 38 36  1  0  0  0  0
 39 40  1  6  0  0  0
 39 37  1  0  0  0  0
 39 32  1  0  0  0  0
 40 45  1  0  0  0  0
 41 47  2  0  0  0  0
 43 48  1  6  0  0  0
 44 42  1  0  0  0  0
 44 43  1  0  0  0  0
 45 42  1  0  0  0  0
 45 41  1  0  0  0  0
 46 43  1  0  0  0  0
 46 47  1  0  0  0  0
 48 49  1  1  0  0  0
 51 50  1  1  0  0  0
 51 48  1  0  0  0  0
 53 52  1  0  0  0  0
 53 51  1  0  0  0  0
 55 54  1  6  0  0  0
 55 62  1  0  0  0  0
 56 57  1  0  0  0  0
 57 55  1  6  0  0  0
 58 59  1  0  0  0  0
 59 57  1  0  0  0  0
 60 58  1  0  0  0  0
 60 56  1  0  0  0  0
 61 60  2  0  0  0  0
 62 64  1  0  0  0  0
 64 63  1  1  0  0  0
 64 66  1  0  0  0  0
 66 65  1  0  0  0  0
M  END
>  <MODEL>
5

>  <REMARK>
 VINA RESULT:      -6.7      1.623      2.233
  Name = 
  20 active torsions:
  status: ('A' for Active; 'I' for Inactive)
    1  A    between atoms: C_6  and  O_8
    2  A    between atoms: C_6  and  C_19
    3  A    between atoms: C_6  and  O_57
    4  A    between atoms: O_8  and  C_65
    5  A    between atoms: C_12  and  C_18
    6  A    between atoms: O_17  and  C_45
    7  A    between atoms: C_18  and  C_23
    8  A    between atoms: C_18  and  C_32
    9  A    between atoms: C_20  and  O_57
   10  A    between atoms: C_23  and  C_52
   11  A    between atoms: C_24  and  N_42
   12  A    between atoms: C_24  and  C_64
   13  A    between atoms: C_26  and  C_65
   14  A    between atoms: N_29  and  C_30
   15  A    between atoms: C_31  and  C_32
   16  A    between atoms: C_34  and  C_40
   17  A    between atoms: C_40  and  C_45
   18  A    between atoms: C_47  and  O_51
   19  A    between atoms: C_52  and  C_64
   20  A    between atoms: C_54  and  C_58
                            x       y       z     vdW  Elec       q    Type
                         _______ _______ _______ _____ _____    ______ ____

>  <TORSDO>
F 20

$$$$
=
 OpenBabel11062415053D

 66 72  0  0  1  0  0  0  0  0999 V2000
  188.3790  176.0820  142.4410 O   0  0  0  0  0  0  0  0  0  0  0  0
  188.1420  177.3170  142.4140 C   0  0  0  0  0  0  0  0  0  0  0  0
  186.7870  177.7740  139.9630 C   0  0  1  0  0  3  0  0  0  0  0  0
  187.4450  177.8710  141.3040 N   0  0  0  0  0  0  0  0  0  0  0  0
  186.7650  179.0020  140.6010 C   0  0  2  0  0  3  0  0  0  0  0  0
  183.5740  177.9260  140.1130 C   0  0  1  0  0  3  0  0  0  0  0  0
  184.2390  179.3090  140.1560 C   0  0  1  0  0  3  0  0  0  0  0  0
  183.5220  178.3310  142.6480 C   0  0  0  0  0  2  0  0  0  0  0  0
  185.3760  179.3250  141.2060 C   0  0  1  0  0  3  0  0  0  0  0  0
  182.9440  177.5450  141.4640 C   0  0  0  0  0  2  0  0  0  0  0  0
  185.0270  178.5350  142.4890 C   0  0  0  0  0  2  0  0  0  0  0  0
  182.0880  176.2180  138.5810 S   0  0  0  0  0  0  0  0  0  0  0  0
  181.1260  179.1270  137.5600 C   0  0  0  0  0  3  0  0  0  0  0  0
  180.2940  176.9450  136.6000 C   0  0  1  0  0  3  0  0  0  0  0  0
  181.6230  176.2310  136.8560 C   0  0  0  0  0  2  0  0  0  0  0  0
  179.2050  175.9910  136.6960 N   0  0  0  0  0  1  0  0  0  0  0  0
  182.5930  177.8160  139.0390 N   0  0  0  0  0  0  0  0  0  0  0  0
  182.2540  178.9810  138.2620 C   0  0  0  0  0  3  0  0  0  0  0  0
  180.9300  175.7830  139.4360 O   0  0  0  0  0  0  0  0  0  0  0  0
  180.0150  178.1250  137.5330 C   0  0  0  0  0  2  0  0  0  0  0  0
  183.2300  175.2560  138.7590 O   0  0  0  0  0  0  0  0  0  0  0  0
  184.2550  180.9160  138.7270 O   0  0  0  0  0  1  0  0  0  0  0  0
  184.7010  179.6880  138.8910 O   0  0  0  0  0  0  0  0  0  0  0  0
  188.4810  179.0040  138.8060 O   0  0  0  0  0  1  0  0  0  0  0  0
  187.8430  177.7640  138.8620 C   0  0  2  0  0  3  0  0  0  0  0  0
  187.2950  177.4200  137.4630 C   0  0  2  0  0  3  0  0  0  0  0  0
  185.8570  176.8900  137.3950 C   0  0  2  0  0  3  0  0  0  0  0  0
  185.8400  175.4970  137.3120 O   0  0  0  0  0  1  0  0  0  0  0  0
  185.1280  177.4790  136.2030 C   0  0  0  0  0  1  0  0  0  0  0  0
  189.3710  177.6540  136.0910 C   0  0  0  0  0  1  0  0  0  0  0  0
  188.2880  176.6930  136.5480 C   0  0  1  0  0  3  0  0  0  0  0  0
  188.9240  175.4700  137.2120 C   0  0  0  0  0  2  0  0  0  0  0  0
  192.2250  177.0460  139.6640 C   0  0  0  0  0  2  0  0  0  0  0  0
  190.9920  174.4370  137.9150 O   0  0  0  0  0  0  0  0  0  0  0  0
  193.2930  177.0750  138.5650 C   0  0  0  0  0  2  0  0  0  0  0  0
  192.0220  176.2930  138.3770 C   0  0  0  0  0  0  0  0  0  0  0  0
  191.0180  176.7620  137.4110 C   0  0  0  0  0  2  0  0  0  0  0  0
  192.1280  174.9100  138.4350 O   0  0  0  0  0  0  0  0  0  0  0  0
  190.4420  175.4210  137.0490 C   0  0  2  0  0  0  0  0  0  0  0  0
  190.7350  175.0700  135.5830 C   0  0  0  0  0  2  0  0  0  0  0  0
  192.5070  173.3190  135.5280 C   0  0  0  0  0  3  0  0  0  0  0  0
  192.9890  175.6240  134.6310 C   0  0  0  0  0  2  0  0  0  0  0  0
  195.1890  174.8770  135.5490 C   0  0  2  0  0  3  0  0  0  0  0  0
  194.1930  176.0250  135.4660 C   0  0  0  0  0  2  0  0  0  0  0  0
  192.1250  174.6900  135.3490 N   0  0  0  0  0  0  0  0  0  0  0  0
  194.6970  173.8910  136.6000 C   0  0  0  0  0  2  0  0  0  0  0  0
  193.6790  172.9430  136.0440 C   0  0  0  0  0  3  0  0  0  0  0  0
  196.5870  175.4110  135.9040 C   0  0  2  0  0  3  0  0  0  0  0  0
  197.2280  175.8760  134.7530 O   0  0  0  0  0  1  0  0  0  0  0  0
  197.9770  173.3260  135.5780 C   0  0  0  0  0  1  0  0  0  0  0  0
  197.4910  174.3670  136.5720 C   0  0  1  0  0  3  0  0  0  0  0  0
  198.0610  175.5080  138.3000 O   0  0  0  0  0  1  0  0  0  0  0  0
  198.5770  174.9670  137.2170 O   0  0  0  0  0  0  0  0  0  0  0  0
  188.5320  178.1560  143.4650 O   0  0  0  0  0  0  0  0  0  0  0  0
  189.0800  177.7190  144.7180 C   0  0  2  0  0  3  0  0  0  0  0  0
  188.7370  177.1260  147.1340 C   0  0  0  0  0  2  0  0  0  0  0  0
  188.0800  177.1830  145.7550 C   0  0  1  0  0  3  0  0  0  0  0  0
  186.7750  178.4650  147.2470 O   0  0  0  0  0  0  0  0  0  0  0  0
  186.8250  178.0630  145.8930 C   0  0  0  0  0  2  0  0  0  0  0  0
  187.8330  177.9480  147.9560 C   0  0  0  0  0  0  0  0  0  0  0  0
  188.0030  178.1630  149.1830 O   0  0  0  0  0  0  0  0  0  0  0  0
  190.1470  178.5030  145.2170 O   0  0  0  0  0  0  0  0  0  0  0  0
  191.5410  178.6000  143.4230 F   0  0  0  0  0  0  0  0  0  0  0  0
  191.3550  178.0410  144.6750 C   0  0  2  0  0  3  0  0  0  0  0  0
  191.7760  176.1000  143.1790 C   0  0  0  0  0  1  0  0  0  0  0  0
  191.3090  176.5290  144.5560 C   0  0  0  0  0  2  0  0  0  0  0  0
  2  1  2  0  0  0  0
  2 54  1  0  0  0  0
  3 25  1  6  0  0  0
  3  5  1  0  0  0  0
  3  4  1  0  0  0  0
  4  2  1  0  0  0  0
  5  9  1  0  0  0  0
  5  4  1  1  0  0  0
  6 17  1  6  0  0  0
  6  7  1  0  0  0  0
  6 10  1  0  0  0  0
  7 23  1  6  0  0  0
  7  9  1  0  0  0  0
  9 11  1  1  0  0  0
 10  8  1  0  0  0  0
 11  8  1  0  0  0  0
 12 21  2  0  0  0  0
 12 17  1  0  0  0  0
 12 19  2  0  0  0  0
 13 18  2  0  0  0  0
 14 16  1  1  0  0  0
 14 15  1  0  0  0  0
 14 20  1  0  0  0  0
 15 12  1  0  0  0  0
 18 17  1  0  0  0  0
 20 13  1  0  0  0  0
 22 23  1  0  0  0  0
 25 24  1  6  0  0  0
 26 31  1  1  0  0  0
 26 25  1  0  0  0  0
 27 29  1  6  0  0  0
 27 26  1  0  0  0  0
 28 27  1  0  0  0  0
 31 30  1  1  0  0  0
 31 32  1  0  0  0  0
 34 38  1  0  0  0  0
 35 33  1  0  0  0  0
 36 38  1  0  0  0  0
 36 35  1  0  0  0  0
 36 33  1  0  0  0  0
 37 36  1  0  0  0  0
 39 40  1  6  0  0  0
 39 32  1  0  0  0  0
 39 37  1  0  0  0  0
 39 34  1  0  0  0  0
 41 47  2  0  0  0  0
 42 45  1  0  0  0  0
 42 44  1  0  0  0  0
 43 48  1  1  0  0  0
 43 46  1  0  0  0  0
 44 43  1  0  0  0  0
 45 41  1  0  0  0  0
 45 40  1  0  0  0  0
 47 46  1  0  0  0  0
 48 49  1  6  0  0  0
 48 51  1  0  0  0  0
 51 50  1  6  0  0  0
 51 53  1  0  0  0  0
 53 52  1  0  0  0  0
 55 54  1  6  0  0  0
 55 62  1  0  0  0  0
 56 60  1  0  0  0  0
 57 55  1  6  0  0  0
 57 59  1  0  0  0  0
 57 56  1  0  0  0  0
 58 60  1  0  0  0  0
 59 58  1  0  0  0  0
 60 61  2  0  0  0  0
 64 63  1  6  0  0  0
 64 62  1  0  0  0  0
 65 66  1  0  0  0  0
 66 64  1  0  0  0  0
M  END
>  <MODEL>
6

>  <REMARK>
 VINA RESULT:      -6.6      1.907      3.068
  Name = 
  20 active torsions:
  status: ('A' for Active; 'I' for Inactive)
    1  A    between atoms: C_6  and  O_8
    2  A    between atoms: C_6  and  C_19
    3  A    between atoms: C_6  and  O_57
    4  A    between atoms: O_8  and  C_65
    5  A    between atoms: C_12  and  C_18
    6  A    between atoms: O_17  and  C_45
    7  A    between atoms: C_18  and  C_23
    8  A    between atoms: C_18  and  C_32
    9  A    between atoms: C_20  and  O_57
   10  A    between atoms: C_23  and  C_52
   11  A    between atoms: C_24  and  N_42
   12  A    between atoms: C_24  and  C_64
   13  A    between atoms: C_26  and  C_65
   14  A    between atoms: N_29  and  C_30
   15  A    between atoms: C_31  and  C_32
   16  A    between atoms: C_34  and  C_40
   17  A    between atoms: C_40  and  C_45
   18  A    between atoms: C_47  and  O_51
   19  A    between atoms: C_52  and  C_64
   20  A    between atoms: C_54  and  C_58
                            x       y       z     vdW  Elec       q    Type
                         _______ _______ _______ _____ _____    ______ ____

>  <TORSDO>
F 20

$$$$
=
 OpenBabel11062415053D

 66 72  0  0  1  0  0  0  0  0999 V2000
  188.3350  176.2060  142.7420 O   0  0  0  0  0  0  0  0  0  0  0  0
  188.0120  177.4220  142.7730 C   0  0  0  0  0  0  0  0  0  0  0  0
  186.9690  177.9930  140.1960 C   0  0  1  0  0  3  0  0  0  0  0  0
  187.4320  178.0200  141.6190 N   0  0  0  0  0  0  0  0  0  0  0  0
  186.7690  179.1600  140.9130 C   0  0  2  0  0  3  0  0  0  0  0  0
  183.7630  177.9210  139.9090 C   0  0  1  0  0  3  0  0  0  0  0  0
  184.3100  179.3370  140.1420 C   0  0  1  0  0  3  0  0  0  0  0  0
  183.3410  178.1150  142.4330 C   0  0  0  0  0  2  0  0  0  0  0  0
  185.2920  179.3410  141.3390 C   0  0  1  0  0  3  0  0  0  0  0  0
  182.9880  177.3920  141.1270 C   0  0  0  0  0  2  0  0  0  0  0  0
  184.8330  178.4290  142.5020 C   0  0  0  0  0  2  0  0  0  0  0  0
  181.4550  178.7250  138.6850 S   0  0  0  0  0  0  0  0  0  0  0  0
  182.9000  176.9490  136.4060 C   0  0  0  0  0  3  0  0  0  0  0  0
  180.6350  178.0300  136.1310 C   0  0  1  0  0  3  0  0  0  0  0  0
  180.2940  177.8850  137.6170 C   0  0  0  0  0  2  0  0  0  0  0  0
  179.9850  179.2140  135.6000 N   0  0  0  0  0  1  0  0  0  0  0  0
  182.9460  177.8350  138.7020 N   0  0  0  0  0  0  0  0  0  0  0  0
  183.2770  176.8690  137.6860 C   0  0  0  0  0  3  0  0  0  0  0  0
  181.7000  180.1260  138.1980 O   0  0  0  0  0  0  0  0  0  0  0  0
  182.1320  178.0950  135.8250 C   0  0  0  0  0  2  0  0  0  0  0  0
  180.8760  178.7710  140.0730 O   0  0  0  0  0  0  0  0  0  0  0  0
  184.2030  180.9180  138.6890 O   0  0  0  0  0  1  0  0  0  0  0  0
  184.9080  179.8460  138.9840 O   0  0  0  0  0  0  0  0  0  0  0  0
  187.8370  179.0140  138.2150 O   0  0  0  0  0  1  0  0  0  0  0  0
  188.1620  178.1420  139.2560 C   0  0  2  0  0  3  0  0  0  0  0  0
  188.6650  176.8140  138.6570 C   0  0  2  0  0  3  0  0  0  0  0  0
  190.1840  176.6360  138.5460 C   0  0  2  0  0  3  0  0  0  0  0  0
  190.6230  175.5730  139.3370 O   0  0  0  0  0  1  0  0  0  0  0  0
  190.9010  177.9060  138.9590 C   0  0  0  0  0  1  0  0  0  0  0  0
  186.6390  177.1820  137.2410 C   0  0  0  0  0  1  0  0  0  0  0  0
  187.8740  176.3210  137.4390 C   0  0  1  0  0  3  0  0  0  0  0  0
  188.7070  176.3030  136.1560 C   0  0  0  0  0  2  0  0  0  0  0  0
  192.4140  173.9860  136.6800 C   0  0  0  0  0  2  0  0  0  0  0  0
  189.0430  174.0080  136.8310 O   0  0  0  0  0  0  0  0  0  0  0  0
  192.2000  173.0020  135.5240 C   0  0  0  0  0  2  0  0  0  0  0  0
  191.0600  173.8380  136.0410 C   0  0  0  0  0  0  0  0  0  0  0  0
  190.5240  174.9270  135.2110 C   0  0  0  0  0  2  0  0  0  0  0  0
  190.0870  173.1760  136.7780 O   0  0  0  0  0  0  0  0  0  0  0  0
  189.1100  174.8960  135.7220 C   0  0  2  0  0  0  0  0  0  0  0  0
  188.1340  174.4560  134.6220 C   0  0  0  0  0  2  0  0  0  0  0  0
  187.2590  172.3410  135.6060 C   0  0  0  0  0  3  0  0  0  0  0  0
  185.7640  174.3620  135.4380 C   0  0  0  0  0  2  0  0  0  0  0  0
  184.1930  172.4400  135.1520 C   0  0  2  0  0  3  0  0  0  0  0  0
  184.6040  173.8090  134.6270 C   0  0  0  0  0  2  0  0  0  0  0  0
  187.0130  173.6700  135.1280 N   0  0  0  0  0  0  0  0  0  0  0  0
  185.1650  171.4060  134.6010 C   0  0  0  0  0  2  0  0  0  0  0  0
  186.4160  171.3230  135.4200 C   0  0  0  0  0  3  0  0  0  0  0  0
  182.7480  172.1210  134.7280 C   0  0  2  0  0  3  0  0  0  0  0  0
  182.0070  173.3010  134.6300 O   0  0  0  0  0  1  0  0  0  0  0  0
  182.0390  171.6980  137.1170 C   0  0  0  0  0  1  0  0  0  0  0  0
  182.0220  171.1730  135.6920 C   0  0  1  0  0  3  0  0  0  0  0  0
  179.9640  171.6050  136.1290 O   0  0  0  0  0  1  0  0  0  0  0  0
  180.7090  170.9310  135.2780 O   0  0  0  0  0  0  0  0  0  0  0  0
  188.1930  178.1940  143.9260 O   0  0  0  0  0  0  0  0  0  0  0  0
  189.0580  177.8600  145.0230 C   0  0  2  0  0  3  0  0  0  0  0  0
  191.0890  176.8430  143.9520 C   0  0  0  0  0  2  0  0  0  0  0  0
  190.5670  178.0180  144.7790 C   0  0  1  0  0  3  0  0  0  0  0  0
  191.5970  178.8810  142.8380 O   0  0  0  0  0  0  0  0  0  0  0  0
  190.9220  179.3010  144.0060 C   0  0  0  0  0  2  0  0  0  0  0  0
  191.7030  177.5110  142.7930 C   0  0  0  0  0  0  0  0  0  0  0  0
  192.2690  176.9000  141.8510 O   0  0  0  0  0  0  0  0  0  0  0  0
  188.6570  176.7400  145.7890 O   0  0  0  0  0  0  0  0  0  0  0  0
  189.7400  175.7500  147.5260 F   0  0  0  0  0  0  0  0  0  0  0  0
  189.0970  176.9020  147.1110 C   0  0  2  0  0  3  0  0  0  0  0  0
  188.1440  178.4250  148.8300 C   0  0  0  0  0  1  0  0  0  0  0  0
  187.9040  177.1720  148.0100 C   0  0  0  0  0  2  0  0  0  0  0  0
  1  2  2  0  0  0  0
  2 54  1  0  0  0  0
  3 25  1  6  0  0  0
  3  5  1  0  0  0  0
  3  4  1  0  0  0  0
  4  2  1  0  0  0  0
  5  9  1  0  0  0  0
  5  4  1  1  0  0  0
  6 17  1  6  0  0  0
  6  7  1  0  0  0  0
  6 10  1  0  0  0  0
  7 23  1  6  0  0  0
  7  9  1  0  0  0  0
  8 11  1  0  0  0  0
  9 11  1  1  0  0  0
 10  8  1  0  0  0  0
 12 17  1  0  0  0  0
 12 21  2  0  0  0  0
 13 18  2  0  0  0  0
 14 16  1  1  0  0  0
 14 15  1  0  0  0  0
 15 12  1  0  0  0  0
 18 17  1  0  0  0  0
 19 12  2  0  0  0  0
 20 14  1  0  0  0  0
 20 13  1  0  0  0  0
 22 23  1  0  0  0  0
 25 24  1  6  0  0  0
 26 31  1  6  0  0  0
 26 25  1  0  0  0  0
 27 26  1  0  0  0  0
 27 29  1  1  0  0  0
 27 28  1  0  0  0  0
 31 30  1  6  0  0  0
 32 31  1  0  0  0  0
 35 36  1  0  0  0  0
 35 33  1  0  0  0  0
 36 33  1  0  0  0  0
 36 38  1  0  0  0  0
 37 39  1  0  0  0  0
 37 36  1  0  0  0  0
 38 34  1  0  0  0  0
 39 40  1  6  0  0  0
 39 32  1  0  0  0  0
 39 34  1  0  0  0  0
 40 45  1  0  0  0  0
 43 48  1  6  0  0  0
 44 43  1  0  0  0  0
 44 42  1  0  0  0  0
 45 42  1  0  0  0  0
 45 41  1  0  0  0  0
 46 43  1  0  0  0  0
 46 47  1  0  0  0  0
 47 41  2  0  0  0  0
 48 49  1  1  0  0  0
 48 51  1  0  0  0  0
 51 50  1  1  0  0  0
 53 51  1  0  0  0  0
 53 52  1  0  0  0  0
 55 54  1  6  0  0  0
 55 62  1  0  0  0  0
 56 57  1  0  0  0  0
 57 55  1  6  0  0  0
 58 59  1  0  0  0  0
 59 57  1  0  0  0  0
 60 58  1  0  0  0  0
 60 56  1  0  0  0  0
 61 60  2  0  0  0  0
 62 64  1  0  0  0  0
 64 63  1  1  0  0  0
 64 66  1  0  0  0  0
 66 65  1  0  0  0  0
M  END
>  <MODEL>
7

>  <REMARK>
 VINA RESULT:      -6.0      2.628      5.880
  Name = 
  20 active torsions:
  status: ('A' for Active; 'I' for Inactive)
    1  A    between atoms: C_6  and  O_8
    2  A    between atoms: C_6  and  C_19
    3  A    between atoms: C_6  and  O_57
    4  A    between atoms: O_8  and  C_65
    5  A    between atoms: C_12  and  C_18
    6  A    between atoms: O_17  and  C_45
    7  A    between atoms: C_18  and  C_23
    8  A    between atoms: C_18  and  C_32
    9  A    between atoms: C_20  and  O_57
   10  A    between atoms: C_23  and  C_52
   11  A    between atoms: C_24  and  N_42
   12  A    between atoms: C_24  and  C_64
   13  A    between atoms: C_26  and  C_65
   14  A    between atoms: N_29  and  C_30
   15  A    between atoms: C_31  and  C_32
   16  A    between atoms: C_34  and  C_40
   17  A    between atoms: C_40  and  C_45
   18  A    between atoms: C_47  and  O_51
   19  A    between atoms: C_52  and  C_64
   20  A    between atoms: C_54  and  C_58
                            x       y       z     vdW  Elec       q    Type
                         _______ _______ _______ _____ _____    ______ ____

>  <TORSDO>
F 20

$$$$
=
 OpenBabel11062415053D

 66 72  0  0  1  0  0  0  0  0999 V2000
  188.3810  176.1800  142.5930 O   0  0  0  0  0  0  0  0  0  0  0  0
  188.0750  177.3970  142.6870 C   0  0  0  0  0  0  0  0  0  0  0  0
  187.0070  178.1050  140.1560 C   0  0  1  0  0  3  0  0  0  0  0  0
  187.4880  178.0580  141.5720 N   0  0  0  0  0  0  0  0  0  0  0  0
  186.8320  179.2390  140.9300 C   0  0  2  0  0  3  0  0  0  0  0  0
  183.8240  177.9000  140.0710 C   0  0  1  0  0  3  0  0  0  0  0  0
  184.3510  179.3350  140.2150 C   0  0  1  0  0  3  0  0  0  0  0  0
  183.4620  178.2210  142.5920 C   0  0  0  0  0  2  0  0  0  0  0  0
  185.3630  179.4190  141.3840 C   0  0  1  0  0  3  0  0  0  0  0  0
  183.0890  177.4240  141.3360 C   0  0  0  0  0  2  0  0  0  0  0  0
  184.9500  178.5620  142.6050 C   0  0  0  0  0  2  0  0  0  0  0  0
  181.4100  178.4820  138.9280 S   0  0  0  0  0  0  0  0  0  0  0  0
  182.9380  176.8500  136.5970 C   0  0  0  0  0  3  0  0  0  0  0  0
  180.5730  177.7120  136.4010 C   0  0  1  0  0  3  0  0  0  0  0  0
  180.2990  177.5360  137.8970 C   0  0  0  0  0  2  0  0  0  0  0  0
  179.7980  178.8290  135.8950 N   0  0  0  0  0  1  0  0  0  0  0  0
  182.9790  177.7370  138.8930 N   0  0  0  0  0  0  0  0  0  0  0  0
  183.3650  176.8060  137.8630 C   0  0  0  0  0  3  0  0  0  0  0  0
  181.5050  179.9000  138.4370 O   0  0  0  0  0  0  0  0  0  0  0  0
  182.0470  177.9180  136.0450 C   0  0  0  0  0  2  0  0  0  0  0  0
  180.8770  178.4730  140.3350 O   0  0  0  0  0  0  0  0  0  0  0  0
  184.2680  180.9100  138.7540 O   0  0  0  0  0  1  0  0  0  0  0  0
  184.9110  179.7910  139.0170 O   0  0  0  0  0  0  0  0  0  0  0  0
  187.7680  178.9270  138.0420 O   0  0  0  0  0  1  0  0  0  0  0  0
  188.1890  178.2840  139.2070 C   0  0  2  0  0  3  0  0  0  0  0  0
  188.8970  176.9700  138.8250 C   0  0  2  0  0  3  0  0  0  0  0  0
  190.4150  176.9130  139.0420 C   0  0  2  0  0  3  0  0  0  0  0  0
  190.8280  175.6170  139.3540 O   0  0  0  0  0  1  0  0  0  0  0  0
  190.8310  177.8600  140.1500 C   0  0  0  0  0  1  0  0  0  0  0  0
  187.1320  177.0130  137.0560 C   0  0  0  0  0  1  0  0  0  0  0  0
  188.4160  176.3430  137.5110 C   0  0  1  0  0  3  0  0  0  0  0  0
  189.4640  176.4170  136.3970 C   0  0  0  0  0  2  0  0  0  0  0  0
  193.2690  174.2690  136.9410 C   0  0  0  0  0  2  0  0  0  0  0  0
  189.8990  174.1220  137.0180 O   0  0  0  0  0  0  0  0  0  0  0  0
  193.1270  173.3080  135.7560 C   0  0  0  0  0  2  0  0  0  0  0  0
  191.9380  174.0730  136.2690 C   0  0  0  0  0  0  0  0  0  0  0  0
  191.3660  175.1570  135.4570 C   0  0  0  0  0  2  0  0  0  0  0  0
  190.9830  173.3440  136.9660 O   0  0  0  0  0  0  0  0  0  0  0  0
  189.9450  175.0430  135.9360 C   0  0  2  0  0  0  0  0  0  0  0  0
  189.0150  174.5870  134.8020 C   0  0  0  0  0  2  0  0  0  0  0  0
  188.2810  172.4210  135.7910 C   0  0  0  0  0  3  0  0  0  0  0  0
  186.6140  174.2820  135.4620 C   0  0  0  0  0  2  0  0  0  0  0  0
  185.2570  172.2100  135.1320 C   0  0  2  0  0  3  0  0  0  0  0  0
  185.5710  173.5990  134.5940 C   0  0  0  0  0  2  0  0  0  0  0  0
  187.9420  173.7080  135.2570 N   0  0  0  0  0  0  0  0  0  0  0  0
  186.3590  171.2620  134.6790 C   0  0  0  0  0  2  0  0  0  0  0  0
  187.5540  171.3220  135.5810 C   0  0  0  0  0  3  0  0  0  0  0  0
  183.8830  171.7410  134.6240 C   0  0  2  0  0  3  0  0  0  0  0  0
  182.9390  172.7580  134.7930 O   0  0  0  0  0  1  0  0  0  0  0  0
  182.9060  170.7770  136.7460 C   0  0  0  0  0  1  0  0  0  0  0  0
  183.3660  170.4810  135.3290 C   0  0  1  0  0  3  0  0  0  0  0  0
  181.3330  170.7190  134.6770 O   0  0  0  0  0  1  0  0  0  0  0  0
  182.3380  169.8730  134.6020 O   0  0  0  0  0  0  0  0  0  0  0  0
  188.2810  178.1100  143.8740 O   0  0  0  0  0  0  0  0  0  0  0  0
  189.1700  177.7220  144.9330 C   0  0  2  0  0  3  0  0  0  0  0  0
  189.2500  177.4990  147.4330 C   0  0  0  0  0  2  0  0  0  0  0  0
  188.5250  177.0600  146.1610 C   0  0  1  0  0  3  0  0  0  0  0  0
  186.9400  178.0330  147.6160 O   0  0  0  0  0  0  0  0  0  0  0  0
  187.0420  177.4350  146.3390 C   0  0  0  0  0  2  0  0  0  0  0  0
  188.1620  178.0740  148.2430 C   0  0  0  0  0  0  0  0  0  0  0  0
  188.3240  178.5560  149.3930 O   0  0  0  0  0  0  0  0  0  0  0  0
  190.2360  178.6170  145.1860 O   0  0  0  0  0  0  0  0  0  0  0  0
  191.3510  178.4670  143.2100 F   0  0  0  0  0  0  0  0  0  0  0  0
  191.3960  178.1450  144.5550 C   0  0  2  0  0  3  0  0  0  0  0  0
  191.6320  175.9780  143.3600 C   0  0  0  0  0  1  0  0  0  0  0  0
  191.4810  176.6390  144.7160 C   0  0  0  0  0  2  0  0  0  0  0  0
  1  2  2  0  0  0  0
  2 54  1  0  0  0  0
  3 25  1  6  0  0  0
  3  5  1  0  0  0  0
  3  4  1  0  0  0  0
  4  2  1  0  0  0  0
  5  9  1  0  0  0  0
  5  4  1  1  0  0  0
  6 17  1  6  0  0  0
  6  7  1  0  0  0  0
  6 10  1  0  0  0  0
  7 23  1  6  0  0  0
  7  9  1  0  0  0  0
  8 11  1  0  0  0  0
  9 11  1  1  0  0  0
 10  8  1  0  0  0  0
 12 21  2  0  0  0  0
 13 18  2  0  0  0  0
 14 16  1  1  0  0  0
 14 15  1  0  0  0  0
 15 12  1  0  0  0  0
 17 12  1  0  0  0  0
 18 17  1  0  0  0  0
 19 12  2  0  0  0  0
 20 14  1  0  0  0  0
 20 13  1  0  0  0  0
 22 23  1  0  0  0  0
 25 24  1  6  0  0  0
 26 31  1  6  0  0  0
 26 27  1  0  0  0  0
 26 25  1  0  0  0  0
 27 28  1  0  0  0  0
 27 29  1  1  0  0  0
 31 30  1  6  0  0  0
 32 31  1  0  0  0  0
 35 36  1  0  0  0  0
 35 33  1  0  0  0  0
 36 33  1  0  0  0  0
 36 38  1  0  0  0  0
 37 39  1  0  0  0  0
 37 36  1  0  0  0  0
 38 34  1  0  0  0  0
 39 40  1  6  0  0  0
 39 32  1  0  0  0  0
 39 34  1  0  0  0  0
 40 45  1  0  0  0  0
 43 48  1  6  0  0  0
 44 43  1  0  0  0  0
 44 42  1  0  0  0  0
 45 42  1  0  0  0  0
 45 41  1  0  0  0  0
 46 43  1  0  0  0  0
 46 47  1  0  0  0  0
 47 41  2  0  0  0  0
 48 49  1  1  0  0  0
 48 51  1  0  0  0  0
 51 50  1  1  0  0  0
 53 52  1  0  0  0  0
 53 51  1  0  0  0  0
 55 54  1  1  0  0  0
 55 62  1  0  0  0  0
 56 60  1  0  0  0  0
 57 55  1  6  0  0  0
 57 59  1  0  0  0  0
 57 56  1  0  0  0  0
 58 60  1  0  0  0  0
 59 58  1  0  0  0  0
 60 61  2  0  0  0  0
 64 63  1  6  0  0  0
 64 66  1  0  0  0  0
 64 62  1  0  0  0  0
 65 66  1  0  0  0  0
M  END
>  <MODEL>
8

>  <REMARK>
 VINA RESULT:      -5.9      2.576      5.773
  Name = 
  20 active torsions:
  status: ('A' for Active; 'I' for Inactive)
    1  A    between atoms: C_6  and  O_8
    2  A    between atoms: C_6  and  C_19
    3  A    between atoms: C_6  and  O_57
    4  A    between atoms: O_8  and  C_65
    5  A    between atoms: C_12  and  C_18
    6  A    between atoms: O_17  and  C_45
    7  A    between atoms: C_18  and  C_23
    8  A    between atoms: C_18  and  C_32
    9  A    between atoms: C_20  and  O_57
   10  A    between atoms: C_23  and  C_52
   11  A    between atoms: C_24  and  N_42
   12  A    between atoms: C_24  and  C_64
   13  A    between atoms: C_26  and  C_65
   14  A    between atoms: N_29  and  C_30
   15  A    between atoms: C_31  and  C_32
   16  A    between atoms: C_34  and  C_40
   17  A    between atoms: C_40  and  C_45
   18  A    between atoms: C_47  and  O_51
   19  A    between atoms: C_52  and  C_64
   20  A    between atoms: C_54  and  C_58
                            x       y       z     vdW  Elec       q    Type
                         _______ _______ _______ _____ _____    ______ ____

>  <TORSDO>
F 20

$$$$
=
 OpenBabel11062415053D

 66 72  0  0  1  0  0  0  0  0999 V2000
  190.3450  173.5390  137.4140 O   0  0  0  0  0  0  0  0  0  0  0  0
  190.5140  174.7450  137.0980 C   0  0  0  0  0  0  0  0  0  0  0  0
  188.6040  176.1970  138.6140 C   0  0  1  0  0  3  0  0  0  0  0  0
  189.7070  175.7460  137.7090 N   0  0  0  0  0  0  0  0  0  0  0  0
  189.3450  177.1730  137.9720 C   0  0  2  0  0  3  0  0  0  0  0  0
  190.2620  176.8390  141.2310 C   0  0  1  0  0  3  0  0  0  0  0  0
  189.8060  178.0240  140.3670 C   0  0  1  0  0  3  0  0  0  0  0  0
  192.5210  177.4910  140.2010 C   0  0  0  0  0  2  0  0  0  0  0  0
  190.3460  177.8720  138.9240 C   0  0  1  0  0  3  0  0  0  0  0  0
  191.7940  176.7530  141.3320 C   0  0  0  0  0  2  0  0  0  0  0  0
  191.7890  177.3170  138.8720 C   0  0  0  0  0  2  0  0  0  0  0  0
  190.5970  177.5490  143.8500 S   0  0  0  0  0  0  0  0  0  0  0  0
  187.5870  176.3780  143.7990 C   0  0  0  0  0  3  0  0  0  0  0  0
  188.7480  177.2030  145.8840 C   0  0  1  0  0  3  0  0  0  0  0  0
  190.1280  176.7670  145.3860 C   0  0  0  0  0  2  0  0  0  0  0  0
  188.8870  178.3710  146.7330 N   0  0  0  0  0  1  0  0  0  0  0  0
  189.6590  176.8600  142.5600 N   0  0  0  0  0  0  0  0  0  0  0  0
  188.4410  176.1290  142.8010 C   0  0  0  0  0  3  0  0  0  0  0  0
  190.3590  179.0320  143.9190 O   0  0  0  0  0  0  0  0  0  0  0  0
  187.7380  177.5030  144.7750 C   0  0  0  0  0  2  0  0  0  0  0  0
  192.0580  177.2870  143.6090 O   0  0  0  0  0  0  0  0  0  0  0  0
  188.1910  179.2410  141.0970 O   0  0  0  0  0  1  0  0  0  0  0  0
  188.4130  178.1560  140.3840 O   0  0  0  0  0  0  0  0  0  0  0  0
  187.1800  174.7330  137.3680 O   0  0  0  0  0  1  0  0  0  0  0  0
  187.2540  176.0110  137.9250 C   0  0  2  0  0  3  0  0  0  0  0  0
  186.9550  177.0530  136.8300 C   0  0  2  0  0  3  0  0  0  0  0  0
  187.9920  178.1650  136.6300 C   0  0  2  0  0  3  0  0  0  0  0  0
  187.4260  179.4220  136.8440 O   0  0  0  0  0  1  0  0  0  0  0  0
  188.5790  178.1020  135.2340 C   0  0  0  0  0  1  0  0  0  0  0  0
  184.8510  177.0690  135.4800 C   0  0  0  0  0  1  0  0  0  0  0  0
  185.4960  177.5230  136.7770 C   0  0  1  0  0  3  0  0  0  0  0  0
  184.6690  177.0350  137.9680 C   0  0  0  0  0  2  0  0  0  0  0  0
  185.0540  178.1990  142.1970 C   0  0  0  0  0  2  0  0  0  0  0  0
  185.0200  179.2020  138.9760 O   0  0  0  0  0  0  0  0  0  0  0  0
  183.7580  179.0100  142.3000 C   0  0  0  0  0  2  0  0  0  0  0  0
  184.3270  178.6410  140.9570 C   0  0  0  0  0  0  0  0  0  0  0  0
  183.6360  177.6450  140.1250 C   0  0  0  0  0  2  0  0  0  0  0  0
  184.9040  179.6680  140.2230 O   0  0  0  0  0  0  0  0  0  0  0  0
  184.0580  178.1740  138.7820 C   0  0  2  0  0  0  0  0  0  0  0  0
  182.8530  178.7060  137.9940 C   0  0  0  0  0  2  0  0  0  0  0  0
  180.7800  177.7760  139.0170 C   0  0  0  0  0  3  0  0  0  0  0  0
  181.4430  177.1000  136.6820 C   0  0  0  0  0  2  0  0  0  0  0  0
  180.3160  175.0620  137.5890 C   0  0  2  0  0  3  0  0  0  0  0  0
  181.5190  175.5880  136.8180 C   0  0  0  0  0  2  0  0  0  0  0  0
  181.7350  177.7680  137.9470 N   0  0  0  0  0  0  0  0  0  0  0  0
  180.5680  175.2810  139.0740 C   0  0  0  0  0  2  0  0  0  0  0  0
  180.2100  176.6720  139.5020 C   0  0  0  0  0  3  0  0  0  0  0  0
  180.0990  173.5710  137.2800 C   0  0  2  0  0  3  0  0  0  0  0  0
  180.0800  172.8350  138.4680 O   0  0  0  0  0  1  0  0  0  0  0  0
  181.9800  171.8980  137.0610 C   0  0  0  0  0  1  0  0  0  0  0  0
  181.1690  172.9720  136.3580 C   0  0  1  0  0  3  0  0  0  0  0  0
  179.3280  172.7660  135.2700 O   0  0  0  0  0  1  0  0  0  0  0  0
  180.6070  172.4660  135.1830 O   0  0  0  0  0  0  0  0  0  0  0  0
  191.4930  175.1250  136.1730 O   0  0  0  0  0  0  0  0  0  0  0  0
  192.8070  174.5550  136.0720 C   0  0  2  0  0  3  0  0  0  0  0  0
  194.1610  174.6660  138.1850 C   0  0  0  0  0  2  0  0  0  0  0  0
  193.9340  175.2950  136.8100 C   0  0  1  0  0  3  0  0  0  0  0  0
  196.1950  174.6330  136.9540 O   0  0  0  0  0  0  0  0  0  0  0  0
  195.2800  175.2400  136.0650 C   0  0  0  0  0  2  0  0  0  0  0  0
  195.5890  174.3100  138.1440 C   0  0  0  0  0  0  0  0  0  0  0  0
  196.2020  173.7630  139.0970 O   0  0  0  0  0  0  0  0  0  0  0  0
  193.1330  174.0080  134.8090 O   0  0  0  0  0  0  0  0  0  0  0  0
  191.4020  172.5440  134.6270 F   0  0  0  0  0  0  0  0  0  0  0  0
  192.7730  172.6530  134.7840 C   0  0  2  0  0  3  0  0  0  0  0  0
  194.4740  171.2150  135.8880 C   0  0  0  0  0  1  0  0  0  0  0  0
  193.1900  171.9960  136.0870 C   0  0  0  0  0  2  0  0  0  0  0  0
  2  1  2  0  0  0  0
  2  4  1  0  0  0  0
  3 25  1  6  0  0  0
  4  3  1  0  0  0  0
  5  4  1  6  0  0  0
  5  3  1  0  0  0  0
  5  9  1  0  0  0  0
  6 10  1  1  0  0  0
  6 17  1  0  0  0  0
  7 23  1  6  0  0  0
  7  6  1  0  0  0  0
  8 10  1  0  0  0  0
  9 11  1  1  0  0  0
  9  7  1  0  0  0  0
 11  8  1  0  0  0  0
 12 19  2  0  0  0  0
 12 15  1  0  0  0  0
 13 20  1  0  0  0  0
 14 16  1  6  0  0  0
 15 14  1  0  0  0  0
 17 18  1  0  0  0  0
 17 12  1  0  0  0  0
 18 13  2  0  0  0  0
 20 14  1  0  0  0  0
 21 12  2  0  0  0  0
 23 22  1  0  0  0  0
 25 24  1  6  0  0  0
 26 27  1  1  0  0  0
 26 25  1  0  0  0  0
 27 29  1  6  0  0  0
 27 28  1  0  0  0  0
 31 30  1  6  0  0  0
 31 26  1  0  0  0  0
 31 32  1  0  0  0  0
 33 35  1  0  0  0  0
 34 38  1  0  0  0  0
 36 33  1  0  0  0  0
 36 35  1  0  0  0  0
 37 36  1  0  0  0  0
 38 36  1  0  0  0  0
 39 32  1  6  0  0  0
 39 34  1  0  0  0  0
 39 37  1  0  0  0  0
 40 39  1  0  0  0  0
 41 47  2  0  0  0  0
 42 44  1  0  0  0  0
 42 45  1  0  0  0  0
 43 48  1  1  0  0  0
 43 46  1  0  0  0  0
 44 43  1  0  0  0  0
 45 40  1  0  0  0  0
 45 41  1  0  0  0  0
 46 47  1  0  0  0  0
 48 49  1  1  0  0  0
 51 50  1  1  0  0  0
 51 48  1  0  0  0  0
 53 52  1  0  0  0  0
 53 51  1  0  0  0  0
 54  2  1  0  0  0  0
 55 62  1  6  0  0  0
 55 54  1  0  0  0  0
 57 55  1  6  0  0  0
 57 56  1  0  0  0  0
 58 60  1  0  0  0  0
 59 57  1  0  0  0  0
 59 58  1  0  0  0  0
 60 56  1  0  0  0  0
 60 61  2  0  0  0  0
 64 63  1  1  0  0  0
 64 62  1  0  0  0  0
 64 66  1  0  0  0  0
 65 66  1  0  0  0  0
M  END
>  <MODEL>
9

>  <REMARK>
 VINA RESULT:      -5.5      3.421     10.125
  Name = 
  20 active torsions:
  status: ('A' for Active; 'I' for Inactive)
    1  A    between atoms: C_6  and  O_8
    2  A    between atoms: C_6  and  C_19
    3  A    between atoms: C_6  and  O_57
    4  A    between atoms: O_8  and  C_65
    5  A    between atoms: C_12  and  C_18
    6  A    between atoms: O_17  and  C_45
    7  A    between atoms: C_18  and  C_23
    8  A    between atoms: C_18  and  C_32
    9  A    between atoms: C_20  and  O_57
   10  A    between atoms: C_23  and  C_52
   11  A    between atoms: C_24  and  N_42
   12  A    between atoms: C_24  and  C_64
   13  A    between atoms: C_26  and  C_65
   14  A    between atoms: N_29  and  C_30
   15  A    between atoms: C_31  and  C_32
   16  A    between atoms: C_34  and  C_40
   17  A    between atoms: C_40  and  C_45
   18  A    between atoms: C_47  and  O_51
   19  A    between atoms: C_52  and  C_64
   20  A    between atoms: C_54  and  C_58
                            x       y       z     vdW  Elec       q    Type
                         _______ _______ _______ _____ _____    ______ ____

>  <TORSDO>
F 20

$$$$
