=
 OpenBabel11062414423D

 27 30  0  0  1  0  0  0  0  0999 V2000
  189.7020  177.0230  140.0150 C   0  0  0  0  0  0  0  0  0  0  0  0
  188.2580  177.5820  143.3860 C   0  0  0  0  0  0  0  0  0  0  0  0
  188.3540  177.8990  141.9280 C   0  0  0  0  0  2  0  0  0  0  0  0
  192.0550  177.3730  141.7070 C   0  0  0  0  0  2  0  0  0  0  0  0
  188.8370  177.2680  145.5050 C   0  0  0  0  0  0  0  0  0  0  0  0
  190.8360  177.5020  142.2230 C   0  0  0  0  0  0  0  0  0  0  0  0
  189.6650  177.1340  146.6550 N   0  0  0  0  0  1  0  0  0  0  0  0
  190.4190  176.0250  139.7280 O   0  0  0  0  0  0  0  0  0  0  0  0
  191.0740  179.0760  143.9860 O   0  0  0  0  0  1  0  0  0  0  0  0
  187.5490  177.1880  145.5520 N   0  0  0  0  0  0  0  0  0  0  0  0
  187.0120  177.3820  144.2020 C   0  0  1  0  0  3  0  0  0  0  0  0
  189.6540  177.4900  141.3790 N   0  0  0  0  0  0  0  0  0  0  0  0
  190.7180  177.7560  143.7040 C   0  0  1  0  0  3  0  0  0  0  0  0
  189.3160  177.5110  144.1640 C   0  0  0  0  0  0  0  0  0  0  0  0
  187.6590  177.1700  138.5860 C   0  0  0  0  0  3  0  0  0  0  0  0
  188.6900  179.3770  137.2190 C   0  0  0  0  0  3  0  0  0  0  0  0
  187.4310  178.8720  136.8800 C   0  0  0  0  0  3  0  0  0  0  0  0
  189.4300  178.7790  138.2410 C   0  0  0  0  0  3  0  0  0  0  0  0
  188.9190  177.6760  138.9400 C   0  0  0  0  0  0  0  0  0  0  0  0
  186.9170  177.7670  137.5630 C   0  0  0  0  0  3  0  0  0  0  0  0
  185.0420  178.5990  145.2340 C   0  0  0  0  0  2  0  0  0  0  0  0
  184.1830  179.7060  143.2330 C   0  0  0  0  0  2  0  0  0  0  0  0
  186.1150  178.6280  144.1650 C   0  0  2  0  0  3  0  0  0  0  0  0
  185.3640  178.8310  142.8540 C   0  0  1  0  0  3  0  0  0  0  0  0
  183.9260  179.4870  144.7170 C   0  0  0  0  0  2  0  0  0  0  0  0
  183.8450  177.8780  141.3440 C   0  0  0  0  0  1  0  0  0  0  0  0
  184.8680  177.5640  142.3270 N   0  0  0  0  0  2  0  0  0  0  0  0
  1 12  1  0  0  0  0
  2 14  2  0  0  0  0
  3  2  1  0  0  0  0
  4  6  2  0  0  0  0
  5 10  2  0  0  0  0
  5  7  1  0  0  0  0
  6 13  1  0  0  0  0
  8  1  2  0  0  0  0
 11  2  1  6  0  0  0
 11 10  1  0  0  0  0
 12  3  1  0  0  0  0
 12  6  1  0  0  0  0
 13  9  1  6  0  0  0
 13 14  1  0  0  0  0
 14  5  1  0  0  0  0
 15 19  1  0  0  0  0
 16 18  1  0  0  0  0
 17 16  2  0  0  0  0
 17 20  1  0  0  0  0
 18 19  2  0  0  0  0
 19  1  1  0  0  0  0
 20 15  2  0  0  0  0
 22 25  1  0  0  0  0
 23 11  1  0  0  0  0
 23 21  1  1  0  0  0
 24 27  1  1  0  0  0
 24 22  1  0  0  0  0
 24 23  1  0  0  0  0
 25 21  1  0  0  0  0
 26 27  1  0  0  0  0
M  END
>  <MODEL>
1

>  <REMARK>
 VINA RESULT:      -8.1      0.000      0.000
  Name = 
  3 active torsions:
  status: ('A' for Active; 'I' for Inactive)
    1  A    between atoms: C_1  and  C_20
    2  A    between atoms: N_4  and  C_18
    3  A    between atoms: C_12  and  C_22
                            x       y       z     vdW  Elec       q    Type
                         _______ _______ _______ _____ _____    ______ ____

>  <TORSDO>
F 3

$$$$
=
 OpenBabel11062414423D

 27 30  0  0  1  0  0  0  0  0999 V2000
  189.7040  178.2710  143.0980 C   0  0  0  0  0  0  0  0  0  0  0  0
  188.2370  178.1160  139.6940 C   0  0  0  0  0  0  0  0  0  0  0  0
  188.1920  177.8220  141.1590 C   0  0  0  0  0  2  0  0  0  0  0  0
  191.8610  177.1470  141.4850 C   0  0  0  0  0  2  0  0  0  0  0  0
  188.9360  178.1770  137.5890 C   0  0  0  0  0  0  0  0  0  0  0  0
  190.6770  177.4000  140.9340 C   0  0  0  0  0  0  0  0  0  0  0  0
  189.7900  178.0110  136.4630 N   0  0  0  0  0  1  0  0  0  0  0  0
  190.6950  178.9950  143.3900 O   0  0  0  0  0  0  0  0  0  0  0  0
  190.4420  175.7890  139.2040 O   0  0  0  0  0  1  0  0  0  0  0  0
  187.7430  178.6620  137.5010 N   0  0  0  0  0  0  0  0  0  0  0  0
  187.1400  178.6820  138.8370 C   0  0  1  0  0  3  0  0  0  0  0  0
  189.5420  177.8090  141.7410 N   0  0  0  0  0  0  0  0  0  0  0  0
  190.5200  177.1600  139.4530 C   0  0  1  0  0  3  0  0  0  0  0  0
  189.2800  177.8280  138.9470 C   0  0  0  0  0  0  0  0  0  0  0  0
  187.3690  177.7800  143.8390 C   0  0  0  0  0  3  0  0  0  0  0  0
  188.2020  177.4720  146.4890 C   0  0  0  0  0  3  0  0  0  0  0  0
  186.8530  177.3170  146.1590 C   0  0  0  0  0  3  0  0  0  0  0  0
  189.1330  177.7800  145.4940 C   0  0  0  0  0  3  0  0  0  0  0  0
  188.7270  177.9290  144.1590 C   0  0  0  0  0  0  0  0  0  0  0  0
  186.4360  177.4730  144.8340 C   0  0  0  0  0  3  0  0  0  0  0  0
  185.4680  177.3400  137.4830 C   0  0  0  0  0  2  0  0  0  0  0  0
  183.4940  177.6580  138.8860 C   0  0  0  0  0  2  0  0  0  0  0  0
  185.8910  177.7890  138.8660 C   0  0  2  0  0  3  0  0  0  0  0  0
  184.6530  178.4470  139.4660 C   0  0  1  0  0  3  0  0  0  0  0  0
  183.9860  177.0360  137.5870 C   0  0  0  0  0  2  0  0  0  0  0  0
  183.1220  180.1550  138.9810 C   0  0  0  0  0  1  0  0  0  0  0  0
  184.5390  179.8400  139.0450 N   0  0  0  0  0  2  0  0  0  0  0  0
  1  8  2  0  0  0  0
  1 19  1  0  0  0  0
  2  3  1  0  0  0  0
  3 12  1  0  0  0  0
  5 14  1  0  0  0  0
  6  4  2  0  0  0  0
  6 12  1  0  0  0  0
  7  5  1  0  0  0  0
 10  5  2  0  0  0  0
 11 10  1  6  0  0  0
 11 23  1  0  0  0  0
 11  2  1  0  0  0  0
 12  1  1  0  0  0  0
 13  9  1  1  0  0  0
 13  6  1  0  0  0  0
 14 13  1  0  0  0  0
 14  2  2  0  0  0  0
 15 19  2  0  0  0  0
 15 20  1  0  0  0  0
 17 16  1  0  0  0  0
 18 16  2  0  0  0  0
 19 18  1  0  0  0  0
 20 17  2  0  0  0  0
 21 25  1  0  0  0  0
 22 24  1  0  0  0  0
 23 21  1  6  0  0  0
 23 24  1  0  0  0  0
 24 27  1  6  0  0  0
 25 22  1  0  0  0  0
 26 27  1  0  0  0  0
M  END
>  <MODEL>
2

>  <REMARK>
 VINA RESULT:      -7.6      2.087      5.922
  Name = 
  3 active torsions:
  status: ('A' for Active; 'I' for Inactive)
    1  A    between atoms: C_1  and  C_20
    2  A    between atoms: N_4  and  C_18
    3  A    between atoms: C_12  and  C_22
                            x       y       z     vdW  Elec       q    Type
                         _______ _______ _______ _____ _____    ______ ____

>  <TORSDO>
F 3

$$$$
=
 OpenBabel11062414423D

 27 30  0  0  1  0  0  0  0  0999 V2000
  186.0140  178.9180  146.2640 C   0  0  0  0  0  0  0  0  0  0  0  0
  189.3940  177.7050  145.3340 C   0  0  0  0  0  0  0  0  0  0  0  0
  187.9260  177.8310  145.0790 C   0  0  0  0  0  2  0  0  0  0  0  0
  186.9300  177.5580  148.6790 C   0  0  0  0  0  2  0  0  0  0  0  0
  191.3130  177.2280  146.3410 C   0  0  0  0  0  0  0  0  0  0  0  0
  187.6840  177.5540  147.5830 C   0  0  0  0  0  0  0  0  0  0  0  0
  192.2190  176.8200  147.3600 N   0  0  0  0  0  1  0  0  0  0  0  0
  185.8120  179.7700  147.1730 O   0  0  0  0  0  0  0  0  0  0  0  0
  188.8920  175.5100  147.6690 O   0  0  0  0  0  1  0  0  0  0  0  0
  191.6970  177.5760  145.1570 N   0  0  0  0  0  0  0  0  0  0  0  0
  190.5170  177.9230  144.3590 C   0  0  1  0  0  3  0  0  0  0  0  0
  187.1890  178.0850  146.3250 N   0  0  0  0  0  0  0  0  0  0  0  0
  189.0400  176.8980  147.6600 C   0  0  1  0  0  3  0  0  0  0  0  0
  189.8790  177.3000  146.4880 C   0  0  0  0  0  0  0  0  0  0  0  0
  183.6690  178.9650  145.4050 C   0  0  0  0  0  3  0  0  0  0  0  0
  184.5370  178.4170  142.8060 C   0  0  0  0  0  3  0  0  0  0  0  0
  183.1730  178.5800  143.0670 C   0  0  0  0  0  3  0  0  0  0  0  0
  185.4650  178.5300  143.8450 C   0  0  0  0  0  3  0  0  0  0  0  0
  185.0410  178.8130  145.1520 C   0  0  0  0  0  0  0  0  0  0  0  0
  182.7390  178.8520  144.3670 C   0  0  0  0  0  3  0  0  0  0  0  0
  191.5810  177.0950  142.2120 C   0  0  0  0  0  2  0  0  0  0  0  0
  189.5520  176.6230  140.9350 C   0  0  0  0  0  2  0  0  0  0  0  0
  190.4000  176.9800  143.1530 C   0  0  2  0  0  3  0  0  0  0  0  0
  189.1720  177.2150  142.2810 C   0  0  1  0  0  3  0  0  0  0  0  0
  191.0720  176.6340  140.8600 C   0  0  0  0  0  2  0  0  0  0  0  0
  187.9590  178.7770  141.0220 C   0  0  0  0  0  1  0  0  0  0  0  0
  188.9060  178.6400  142.1150 N   0  0  0  0  0  2  0  0  0  0  0  0
  1 12  1  0  0  0  0
  1  8  2  0  0  0  0
  2 14  2  0  0  0  0
  3  2  1  0  0  0  0
  3 12  1  0  0  0  0
  5 14  1  0  0  0  0
  5  7  1  0  0  0  0
  6 13  1  0  0  0  0
  6  4  2  0  0  0  0
 10  5  2  0  0  0  0
 11 10  1  1  0  0  0
 11  2  1  0  0  0  0
 12  6  1  0  0  0  0
 13  9  1  6  0  0  0
 14 13  1  0  0  0  0
 16 17  2  0  0  0  0
 16 18  1  0  0  0  0
 17 20  1  0  0  0  0
 18 19  2  0  0  0  0
 19 15  1  0  0  0  0
 19  1  1  0  0  0  0
 20 15  2  0  0  0  0
 22 24  1  0  0  0  0
 23 21  1  6  0  0  0
 23 11  1  0  0  0  0
 24 27  1  6  0  0  0
 24 23  1  0  0  0  0
 25 22  1  0  0  0  0
 25 21  1  0  0  0  0
 26 27  1  0  0  0  0
M  END
>  <MODEL>
3

>  <REMARK>
 VINA RESULT:      -7.5      2.807      6.061
  Name = 
  3 active torsions:
  status: ('A' for Active; 'I' for Inactive)
    1  A    between atoms: C_1  and  C_20
    2  A    between atoms: N_4  and  C_18
    3  A    between atoms: C_12  and  C_22
                            x       y       z     vdW  Elec       q    Type
                         _______ _______ _______ _____ _____    ______ ____

>  <TORSDO>
F 3

$$$$
=
 OpenBabel11062414423D

 27 30  0  0  1  0  0  0  0  0999 V2000
  184.5850  179.1010  143.5420 C   0  0  0  0  0  0  0  0  0  0  0  0
  188.0880  178.2100  142.7070 C   0  0  0  0  0  0  0  0  0  0  0  0
  186.6140  178.0970  142.4840 C   0  0  0  0  0  2  0  0  0  0  0  0
  185.7050  178.2860  146.1120 C   0  0  0  0  0  2  0  0  0  0  0  0
  190.0650  178.1610  143.7120 C   0  0  0  0  0  0  0  0  0  0  0  0
  186.4400  178.2040  145.0060 C   0  0  0  0  0  0  0  0  0  0  0  0
  191.0290  178.0480  144.7530 N   0  0  0  0  0  1  0  0  0  0  0  0
  184.2810  180.0560  144.3090 O   0  0  0  0  0  0  0  0  0  0  0  0
  187.9150  176.3790  145.3780 O   0  0  0  0  0  1  0  0  0  0  0  0
  190.3850  178.3580  142.4760 N   0  0  0  0  0  0  0  0  0  0  0  0
  189.1600  178.4110  141.6720 C   0  0  1  0  0  3  0  0  0  0  0  0
  185.8640  178.4520  143.6970 N   0  0  0  0  0  0  0  0  0  0  0  0
  187.8730  177.7540  145.1420 C   0  0  1  0  0  3  0  0  0  0  0  0
  188.6360  178.0660  143.8930 C   0  0  0  0  0  0  0  0  0  0  0  0
  182.2620  179.0030  142.6300 C   0  0  0  0  0  3  0  0  0  0  0  0
  183.1250  177.5570  140.4000 C   0  0  0  0  0  3  0  0  0  0  0  0
  181.7730  177.8830  140.5400 C   0  0  0  0  0  3  0  0  0  0  0  0
  184.0440  177.9550  141.3750 C   0  0  0  0  0  3  0  0  0  0  0  0
  183.6230  178.6880  142.4940 C   0  0  0  0  0  0  0  0  0  0  0  0
  181.3410  178.6050  141.6560 C   0  0  0  0  0  3  0  0  0  0  0  0
  190.5500  176.7530  140.3510 C   0  0  0  0  0  2  0  0  0  0  0  0
  189.1960  176.6490  138.3200 C   0  0  0  0  0  2  0  0  0  0  0  0
  189.1580  177.2770  140.6370 C   0  0  2  0  0  3  0  0  0  0  0  0
  188.5900  177.6620  139.2750 C   0  0  1  0  0  3  0  0  0  0  0  0
  190.4800  176.1460  138.9630 C   0  0  0  0  0  2  0  0  0  0  0  0
  189.0520  179.0330  137.4310 C   0  0  0  0  0  1  0  0  0  0  0  0
  189.0180  179.0010  138.8840 N   0  0  0  0  0  2  0  0  0  0  0  0
  1 12  1  0  0  0  0
  1  8  2  0  0  0  0
  2 14  2  0  0  0  0
  3  2  1  0  0  0  0
  3 12  1  0  0  0  0
  5 14  1  0  0  0  0
  5  7  1  0  0  0  0
  6 13  1  0  0  0  0
  6  4  2  0  0  0  0
 10  5  2  0  0  0  0
 11 10  1  1  0  0  0
 11  2  1  0  0  0  0
 12  6  1  0  0  0  0
 13  9  1  6  0  0  0
 14 13  1  0  0  0  0
 16 17  2  0  0  0  0
 16 18  1  0  0  0  0
 17 20  1  0  0  0  0
 18 19  2  0  0  0  0
 19 15  1  0  0  0  0
 19  1  1  0  0  0  0
 20 15  2  0  0  0  0
 22 25  1  0  0  0  0
 22 24  1  0  0  0  0
 23 21  1  6  0  0  0
 23 11  1  0  0  0  0
 24 27  1  6  0  0  0
 24 23  1  0  0  0  0
 25 21  1  0  0  0  0
 26 27  1  0  0  0  0
M  END
>  <MODEL>
4

>  <REMARK>
 VINA RESULT:      -7.3      2.136      5.773
  Name = 
  3 active torsions:
  status: ('A' for Active; 'I' for Inactive)
    1  A    between atoms: C_1  and  C_20
    2  A    between atoms: N_4  and  C_18
    3  A    between atoms: C_12  and  C_22
                            x       y       z     vdW  Elec       q    Type
                         _______ _______ _______ _____ _____    ______ ____

>  <TORSDO>
F 3

$$$$
=
 OpenBabel11062414423D

 27 30  0  0  1  0  0  0  0  0999 V2000
  185.5570  178.9350  141.6890 C   0  0  0  0  0  0  0  0  0  0  0  0
  188.9000  177.6970  140.6630 C   0  0  0  0  0  0  0  0  0  0  0  0
  187.4150  177.7570  140.5040 C   0  0  0  0  0  2  0  0  0  0  0  0
  186.6820  177.8960  144.1740 C   0  0  0  0  0  2  0  0  0  0  0  0
  190.8990  177.3890  141.5750 C   0  0  0  0  0  0  0  0  0  0  0  0
  187.3580  177.7780  143.0340 C   0  0  0  0  0  0  0  0  0  0  0  0
  191.8860  177.1280  142.5660 N   0  0  0  0  0  1  0  0  0  0  0  0
  185.3920  179.8840  142.5030 O   0  0  0  0  0  0  0  0  0  0  0  0
  188.6330  175.7880  143.2720 O   0  0  0  0  0  1  0  0  0  0  0  0
  191.1880  177.6010  140.3340 N   0  0  0  0  0  0  0  0  0  0  0  0
  189.9440  177.8220  139.5890 C   0  0  1  0  0  3  0  0  0  0  0  0
  186.7590  178.1420  141.7610 N   0  0  0  0  0  0  0  0  0  0  0  0
  188.7350  177.1680  143.0880 C   0  0  1  0  0  3  0  0  0  0  0  0
  189.4770  177.4450  141.8180 C   0  0  0  0  0  0  0  0  0  0  0  0
  183.5410  177.6870  140.9020 C   0  0  0  0  0  3  0  0  0  0  0  0
  183.5110  179.1130  138.4990 C   0  0  0  0  0  3  0  0  0  0  0  0
  182.5430  178.1340  138.7420 C   0  0  0  0  0  3  0  0  0  0  0  0
  184.4920  179.3780  139.4580 C   0  0  0  0  0  3  0  0  0  0  0  0
  184.5110  178.6740  140.6710 C   0  0  0  0  0  0  0  0  0  0  0  0
  182.5590  177.4200  139.9430 C   0  0  0  0  0  3  0  0  0  0  0  0
  191.0540  176.4730  137.7520 C   0  0  0  0  0  2  0  0  0  0  0  0
  189.1360  176.2010  136.2630 C   0  0  0  0  0  2  0  0  0  0  0  0
  189.7730  176.7380  138.5150 C   0  0  2  0  0  3  0  0  0  0  0  0
  188.7330  177.0620  137.4470 C   0  0  1  0  0  3  0  0  0  0  0  0
  190.6210  175.9070  136.4130 C   0  0  0  0  0  2  0  0  0  0  0  0
  187.4620  178.8570  136.6370 C   0  0  0  0  0  1  0  0  0  0  0  0
  188.7970  178.4670  137.0570 N   0  0  0  0  0  2  0  0  0  0  0  0
  1 12  1  0  0  0  0
  1  8  2  0  0  0  0
  2 14  2  0  0  0  0
  3  2  1  0  0  0  0
  3 12  1  0  0  0  0
  5 14  1  0  0  0  0
  5  7  1  0  0  0  0
  6 13  1  0  0  0  0
  6  4  2  0  0  0  0
 10  5  2  0  0  0  0
 11 10  1  1  0  0  0
 11  2  1  0  0  0  0
 12  6  1  0  0  0  0
 13  9  1  6  0  0  0
 14 13  1  0  0  0  0
 16 17  2  0  0  0  0
 16 18  1  0  0  0  0
 17 20  1  0  0  0  0
 18 19  2  0  0  0  0
 19 15  1  0  0  0  0
 19  1  1  0  0  0  0
 20 15  2  0  0  0  0
 22 25  1  0  0  0  0
 22 24  1  0  0  0  0
 23 21  1  6  0  0  0
 23 11  1  0  0  0  0
 24 27  1  6  0  0  0
 24 23  1  0  0  0  0
 25 21  1  0  0  0  0
 26 27  1  0  0  0  0
M  END
>  <MODEL>
5

>  <REMARK>
 VINA RESULT:      -7.1      2.424      5.817
  Name = 
  3 active torsions:
  status: ('A' for Active; 'I' for Inactive)
    1  A    between atoms: C_1  and  C_20
    2  A    between atoms: N_4  and  C_18
    3  A    between atoms: C_12  and  C_22
                            x       y       z     vdW  Elec       q    Type
                         _______ _______ _______ _____ _____    ______ ____

>  <TORSDO>
F 3

$$$$
=
 OpenBabel11062414423D

 27 30  0  0  1  0  0  0  0  0999 V2000
  189.2870  177.2360  136.6370 C   0  0  0  0  0  0  0  0  0  0  0  0
  187.2110  178.0740  139.5960 C   0  0  0  0  0  0  0  0  0  0  0  0
  188.2250  177.2240  138.8990 C   0  0  0  0  0  2  0  0  0  0  0  0
  186.5900  177.4270  135.5360 C   0  0  0  0  0  2  0  0  0  0  0  0
  185.3140  179.1360  140.0350 C   0  0  0  0  0  0  0  0  0  0  0  0
  186.7890  177.5690  136.8440 C   0  0  0  0  0  0  0  0  0  0  0  0
  184.0000  179.6510  139.8490 N   0  0  0  0  0  1  0  0  0  0  0  0
  189.4280  178.0110  135.6510 O   0  0  0  0  0  0  0  0  0  0  0  0
  184.7980  176.7700  137.8640 O   0  0  0  0  0  1  0  0  0  0  0  0
  185.9840  179.2970  141.1280 N   0  0  0  0  0  0  0  0  0  0  0  0
  187.2840  178.6340  140.9880 C   0  0  1  0  0  3  0  0  0  0  0  0
  188.0910  177.3240  137.4390 N   0  0  0  0  0  0  0  0  0  0  0  0
  185.6000  177.9020  137.7090 C   0  0  1  0  0  3  0  0  0  0  0  0
  186.0520  178.3780  139.0540 C   0  0  0  0  0  0  0  0  0  0  0  0
  190.1880  174.9060  136.6550 C   0  0  0  0  0  3  0  0  0  0  0  0
  192.5570  175.7590  137.8670 C   0  0  0  0  0  3  0  0  0  0  0  0
  192.3760  174.4070  137.5620 C   0  0  0  0  0  3  0  0  0  0  0  0
  191.5540  176.6830  137.5640 C   0  0  0  0  0  3  0  0  0  0  0  0
  190.3640  176.2670  136.9480 C   0  0  0  0  0  0  0  0  0  0  0  0
  191.1910  173.9800  136.9580 C   0  0  0  0  0  3  0  0  0  0  0  0
  186.6740  177.8280  143.3130 C   0  0  0  0  0  2  0  0  0  0  0  0
  188.7050  176.5730  143.8290 C   0  0  0  0  0  2  0  0  0  0  0  0
  187.4220  177.5190  142.0330 C   0  0  2  0  0  3  0  0  0  0  0  0
  188.8550  177.2320  142.4700 C   0  0  1  0  0  3  0  0  0  0  0  0
  187.3670  177.0240  144.3960 C   0  0  0  0  0  2  0  0  0  0  0  0
  190.7640  178.1640  143.4630 C   0  0  0  0  0  1  0  0  0  0  0  0
  189.6180  178.4670  142.6230 N   0  0  0  0  0  2  0  0  0  0  0  0
  1 19  1  0  0  0  0
  1 12  1  0  0  0  0
  3  2  1  0  0  0  0
  4  6  2  0  0  0  0
  5 10  2  0  0  0  0
  6 12  1  0  0  0  0
  6 13  1  0  0  0  0
  7  5  1  0  0  0  0
  8  1  2  0  0  0  0
 11  2  1  6  0  0  0
 11 10  1  0  0  0  0
 11 23  1  0  0  0  0
 12  3  1  0  0  0  0
 13  9  1  1  0  0  0
 13 14  1  0  0  0  0
 14  2  2  0  0  0  0
 14  5  1  0  0  0  0
 15 19  2  0  0  0  0
 15 20  1  0  0  0  0
 17 16  1  0  0  0  0
 18 16  2  0  0  0  0
 19 18  1  0  0  0  0
 20 17  2  0  0  0  0
 21 25  1  0  0  0  0
 22 25  1  0  0  0  0
 23 24  1  0  0  0  0
 23 21  1  1  0  0  0
 24 27  1  1  0  0  0
 24 22  1  0  0  0  0
 27 26  1  0  0  0  0
M  END
>  <MODEL>
6

>  <REMARK>
 VINA RESULT:      -7.0      2.803      5.556
  Name = 
  3 active torsions:
  status: ('A' for Active; 'I' for Inactive)
    1  A    between atoms: C_1  and  C_20
    2  A    between atoms: N_4  and  C_18
    3  A    between atoms: C_12  and  C_22
                            x       y       z     vdW  Elec       q    Type
                         _______ _______ _______ _____ _____    ______ ____

>  <TORSDO>
F 3

$$$$
=
 OpenBabel11062414423D

 27 30  0  0  1  0  0  0  0  0999 V2000
  184.0720  178.9940  144.1000 C   0  0  0  0  0  0  0  0  0  0  0  0
  186.7170  178.3240  141.5860 C   0  0  0  0  0  0  0  0  0  0  0  0
  185.2970  178.2570  142.0510 C   0  0  0  0  0  2  0  0  0  0  0  0
  186.1420  177.6340  145.6450 C   0  0  0  0  0  2  0  0  0  0  0  0
  188.9200  178.0620  141.5350 C   0  0  0  0  0  0  0  0  0  0  0  0
  186.2890  177.8020  144.3340 C   0  0  0  0  0  0  0  0  0  0  0  0
  190.2330  177.7250  141.9690 N   0  0  0  0  0  1  0  0  0  0  0  0
  184.2410  179.7530  145.0940 O   0  0  0  0  0  0  0  0  0  0  0  0
  187.5850  175.9460  143.6140 O   0  0  0  0  0  1  0  0  0  0  0  0
  188.6660  178.5300  140.3580 N   0  0  0  0  0  0  0  0  0  0  0  0
  187.2220  178.7540  140.2380 C   0  0  1  0  0  3  0  0  0  0  0  0
  185.2120  178.3310  143.5160 N   0  0  0  0  0  0  0  0  0  0  0  0
  187.5770  177.3390  143.7020 C   0  0  1  0  0  3  0  0  0  0  0  0
  187.7240  177.9240  142.3320 C   0  0  0  0  0  0  0  0  0  0  0  0
  181.6230  178.6280  144.4270 C   0  0  0  0  0  3  0  0  0  0  0  0
  181.1840  178.6280  141.6680 C   0  0  0  0  0  3  0  0  0  0  0  0
  180.1110  178.4480  142.5450 C   0  0  0  0  0  3  0  0  0  0  0  0
  182.4750  178.8090  142.1710 C   0  0  0  0  0  3  0  0  0  0  0  0
  182.7050  178.8190  143.5550 C   0  0  0  0  0  0  0  0  0  0  0  0
  180.3310  178.4460  143.9250 C   0  0  0  0  0  3  0  0  0  0  0  0
  187.4040  178.0240  137.8170 C   0  0  0  0  0  2  0  0  0  0  0  0
  185.0360  177.6500  137.3500 C   0  0  0  0  0  2  0  0  0  0  0  0
  186.6440  177.8780  139.1190 C   0  0  2  0  0  3  0  0  0  0  0  0
  185.1900  178.1770  138.7650 C   0  0  1  0  0  3  0  0  0  0  0  0
  186.4230  177.6420  136.7250 C   0  0  0  0  0  2  0  0  0  0  0  0
  183.4900  179.7890  138.8490 C   0  0  0  0  0  1  0  0  0  0  0  0
  184.9300  179.6130  138.7700 N   0  0  0  0  0  2  0  0  0  0  0  0
  1  8  2  0  0  0  0
  2  3  1  0  0  0  0
  2 14  2  0  0  0  0
  3 12  1  0  0  0  0
  5  7  1  0  0  0  0
  5 14  1  0  0  0  0
  6  4  2  0  0  0  0
 10  5  2  0  0  0  0
 11 10  1  1  0  0  0
 11  2  1  0  0  0  0
 12  1  1  0  0  0  0
 12  6  1  0  0  0  0
 13  9  1  6  0  0  0
 13  6  1  0  0  0  0
 14 13  1  0  0  0  0
 16 18  2  0  0  0  0
 16 17  1  0  0  0  0
 17 20  2  0  0  0  0
 18 19  1  0  0  0  0
 19  1  1  0  0  0  0
 19 15  2  0  0  0  0
 20 15  1  0  0  0  0
 22 24  1  0  0  0  0
 23 21  1  6  0  0  0
 23 11  1  0  0  0  0
 24 27  1  6  0  0  0
 24 23  1  0  0  0  0
 25 22  1  0  0  0  0
 25 21  1  0  0  0  0
 27 26  1  0  0  0  0
M  END
>  <MODEL>
7

>  <REMARK>
 VINA RESULT:      -6.9      2.578      6.276
  Name = 
  3 active torsions:
  status: ('A' for Active; 'I' for Inactive)
    1  A    between atoms: C_1  and  C_20
    2  A    between atoms: N_4  and  C_18
    3  A    between atoms: C_12  and  C_22
                            x       y       z     vdW  Elec       q    Type
                         _______ _______ _______ _____ _____    ______ ____

>  <TORSDO>
F 3

$$$$
=
 OpenBabel11062414423D

 27 30  0  0  1  0  0  0  0  0999 V2000
  192.9910  175.7930  136.5390 C   0  0  0  0  0  0  0  0  0  0  0  0
  190.1550  177.0700  138.5620 C   0  0  0  0  0  0  0  0  0  0  0  0
  191.2650  176.0980  138.3210 C   0  0  0  0  0  2  0  0  0  0  0  0
  190.8120  175.9750  134.6050 C   0  0  0  0  0  2  0  0  0  0  0  0
  188.3100  178.2630  138.2520 C   0  0  0  0  0  0  0  0  0  0  0  0
  190.5940  176.2620  135.8860 C   0  0  0  0  0  0  0  0  0  0  0  0
  187.1710  178.8110  137.5980 N   0  0  0  0  0  1  0  0  0  0  0  0
  193.5020  176.4390  135.5830 O   0  0  0  0  0  0  0  0  0  0  0  0
  188.3230  175.6820  136.2730 O   0  0  0  0  0  1  0  0  0  0  0  0
  188.6070  178.5220  139.4820 N   0  0  0  0  0  0  0  0  0  0  0  0
  189.8250  177.7880  139.8400 C   0  0  1  0  0  3  0  0  0  0  0  0
  191.6130  176.0300  136.8940 N   0  0  0  0  0  0  0  0  0  0  0  0
  189.2220  176.7490  136.2790 C   0  0  1  0  0  3  0  0  0  0  0  0
  189.2590  177.3610  137.6440 C   0  0  0  0  0  0  0  0  0  0  0  0
  194.6230  175.2540  138.3510 C   0  0  0  0  0  3  0  0  0  0  0  0
  194.6780  172.5640  137.5960 C   0  0  0  0  0  3  0  0  0  0  0  0
  195.4570  173.0030  138.6690 C   0  0  0  0  0  3  0  0  0  0  0  0
  193.8710  173.4700  136.9020 C   0  0  0  0  0  3  0  0  0  0  0  0
  193.8300  174.8210  137.2780 C   0  0  0  0  0  0  0  0  0  0  0  0
  195.4320  174.3490  139.0460 C   0  0  0  0  0  3  0  0  0  0  0  0
  188.3470  177.2230  141.8210 C   0  0  0  0  0  2  0  0  0  0  0  0
  190.0000  176.0970  143.2240 C   0  0  0  0  0  2  0  0  0  0  0  0
  189.5300  176.7990  140.9760 C   0  0  2  0  0  3  0  0  0  0  0  0
  190.6760  176.6080  141.9640 C   0  0  1  0  0  3  0  0  0  0  0  0
  188.5540  176.5660  143.1720 C   0  0  0  0  0  2  0  0  0  0  0  0
  191.6850  177.8620  143.6690 C   0  0  0  0  0  1  0  0  0  0  0  0
  191.3370  177.8750  142.2590 N   0  0  0  0  0  2  0  0  0  0  0  0
  1 12  1  0  0  0  0
  1 19  1  0  0  0  0
  3  2  1  0  0  0  0
  4  6  2  0  0  0  0
  5 10  2  0  0  0  0
  6 13  1  0  0  0  0
  6 12  1  0  0  0  0
  7  5  1  0  0  0  0
  8  1  2  0  0  0  0
 10 11  1  0  0  0  0
 11  2  1  6  0  0  0
 11 23  1  0  0  0  0
 12  3  1  0  0  0  0
 13  9  1  1  0  0  0
 13 14  1  0  0  0  0
 14  5  1  0  0  0  0
 14  2  2  0  0  0  0
 15 20  1  0  0  0  0
 16 17  1  0  0  0  0
 17 20  2  0  0  0  0
 18 19  1  0  0  0  0
 18 16  2  0  0  0  0
 19 15  2  0  0  0  0
 21 25  1  0  0  0  0
 23 21  1  1  0  0  0
 23 24  1  0  0  0  0
 24 27  1  1  0  0  0
 24 22  1  0  0  0  0
 25 22  1  0  0  0  0
 27 26  1  0  0  0  0
M  END
>  <MODEL>
8

>  <REMARK>
 VINA RESULT:      -6.9      3.825      6.927
  Name = 
  3 active torsions:
  status: ('A' for Active; 'I' for Inactive)
    1  A    between atoms: C_1  and  C_20
    2  A    between atoms: N_4  and  C_18
    3  A    between atoms: C_12  and  C_22
                            x       y       z     vdW  Elec       q    Type
                         _______ _______ _______ _____ _____    ______ ____

>  <TORSDO>
F 3

$$$$
=
 OpenBabel11062414423D

 27 30  0  0  1  0  0  0  0  0999 V2000
  188.7610  176.8590  142.3350 C   0  0  0  0  0  0  0  0  0  0  0  0
  190.0230  176.3850  138.8790 C   0  0  0  0  0  0  0  0  0  0  0  0
  190.2450  176.6140  140.3400 C   0  0  0  0  0  2  0  0  0  0  0  0
  187.2650  178.8350  140.7940 C   0  0  0  0  0  2  0  0  0  0  0  0
  189.2950  176.6600  136.8010 C   0  0  0  0  0  0  0  0  0  0  0  0
  188.1950  178.0920  140.2020 C   0  0  0  0  0  0  0  0  0  0  0  0
  188.5630  177.1970  135.7060 N   0  0  0  0  0  1  0  0  0  0  0  0
  187.5630  176.6430  142.6670 O   0  0  0  0  0  0  0  0  0  0  0  0
  189.0560  179.4510  138.4540 O   0  0  0  0  0  1  0  0  0  0  0  0
  190.1480  175.6990  136.6730 N   0  0  0  0  0  0  0  0  0  0  0  0
  190.7270  175.4020  137.9870 C   0  0  1  0  0  3  0  0  0  0  0  0
  189.0610  177.2150  140.9700 N   0  0  0  0  0  0  0  0  0  0  0  0
  188.3900  178.2530  138.7150 C   0  0  1  0  0  3  0  0  0  0  0  0
  189.1890  177.1120  138.1690 C   0  0  0  0  0  0  0  0  0  0  0  0
  190.6990  175.6270  143.3180 C   0  0  0  0  0  3  0  0  0  0  0  0
  190.9530  177.5180  145.3600 C   0  0  0  0  0  3  0  0  0  0  0  0
  191.8250  176.4270  145.3070 C   0  0  0  0  0  3  0  0  0  0  0  0
  189.9560  177.6630  144.3920 C   0  0  0  0  0  3  0  0  0  0  0  0
  189.8240  176.7240  143.3580 C   0  0  0  0  0  0  0  0  0  0  0  0
  191.6970  175.4810  144.2870 C   0  0  0  0  0  3  0  0  0  0  0  0
  192.6620  176.5590  136.8270 C   0  0  0  0  0  2  0  0  0  0  0  0
  194.4090  174.9040  137.2500 C   0  0  0  0  0  2  0  0  0  0  0  0
  192.2420  175.6520  137.9650 C   0  0  2  0  0  3  0  0  0  0  0  0
  193.0910  174.3950  137.8050 C   0  0  1  0  0  3  0  0  0  0  0  0
  194.1160  176.2260  136.5550 C   0  0  0  0  0  2  0  0  0  0  0  0
  193.5550  172.6030  136.3670 C   0  0  0  0  0  1  0  0  0  0  0  0
  192.4940  173.4730  136.8450 N   0  0  0  0  0  2  0  0  0  0  0  0
  1  8  2  0  0  0  0
  1 19  1  0  0  0  0
  2  3  1  0  0  0  0
  3 12  1  0  0  0  0
  5 14  1  0  0  0  0
  6  4  2  0  0  0  0
  6 12  1  0  0  0  0
  7  5  1  0  0  0  0
 10  5  2  0  0  0  0
 11 10  1  6  0  0  0
 11  2  1  0  0  0  0
 12  1  1  0  0  0  0
 13  9  1  1  0  0  0
 13  6  1  0  0  0  0
 14 13  1  0  0  0  0
 14  2  2  0  0  0  0
 15 19  2  0  0  0  0
 15 20  1  0  0  0  0
 17 16  1  0  0  0  0
 18 16  2  0  0  0  0
 19 18  1  0  0  0  0
 20 17  2  0  0  0  0
 22 24  1  0  0  0  0
 23 21  1  6  0  0  0
 23 11  1  0  0  0  0
 24 27  1  6  0  0  0
 24 23  1  0  0  0  0
 25 21  1  0  0  0  0
 25 22  1  0  0  0  0
 26 27  1  0  0  0  0
M  END
>  <MODEL>
9

>  <REMARK>
 VINA RESULT:      -6.7      3.583      8.154
  Name = 
  3 active torsions:
  status: ('A' for Active; 'I' for Inactive)
    1  A    between atoms: C_1  and  C_20
    2  A    between atoms: N_4  and  C_18
    3  A    between atoms: C_12  and  C_22
                            x       y       z     vdW  Elec       q    Type
                         _______ _______ _______ _____ _____    ______ ____

>  <TORSDO>
F 3

$$$$
