=
 OpenBabel11062417023D

 26 29  0  0  1  0  0  0  0  0999 V2000
  187.8870  176.7320  144.4760 C   0  0  0  0  0  2  0  0  0  0  0  0
  185.2070  178.3180  146.3560 C   0  0  0  0  0  3  0  0  0  0  0  0
  186.7910  177.5000  144.5800 C   0  0  0  0  0  0  0  0  0  0  0  0
  188.4830  179.0020  139.8920 O   0  0  0  0  0  1  0  0  0  0  0  0
  189.9560  176.2260  143.0640 N   0  0  0  0  0  0  0  0  0  0  0  0
  188.0790  177.2720  142.0520 C   0  0  0  0  0  0  0  0  0  0  0  0
  188.9260  176.7990  139.8390 N   0  0  0  0  0  2  0  0  0  0  0  0
  185.0700  178.7910  143.2550 C   0  0  0  0  0  3  0  0  0  0  0  0
  187.0430  178.1050  142.1190 C   0  0  0  0  0  3  0  0  0  0  0  0
  186.2270  178.1370  143.3490 C   0  0  0  0  0  0  0  0  0  0  0  0
  186.3270  177.7370  145.9470 C   0  0  0  0  0  2  0  0  0  0  0  0
  184.1160  178.8780  145.5590 C   0  0  0  0  0  3  0  0  0  0  0  0
  190.3490  176.5380  141.7330 N   0  0  0  0  0  2  0  0  0  0  0  0
  189.2270  177.2530  141.1470 C   0  0  2  0  0  0  0  0  0  0  0  0
  188.4780  176.3620  143.1350 C   0  0  2  0  0  3  0  0  0  0  0  0
  189.4960  178.1150  140.0410 N   0  0  0  0  0  0  0  0  0  0  0  0
  184.0190  179.0830  144.2420 C   0  0  0  0  0  0  0  0  0  0  0  0
  190.6250  177.2000  143.9290 C   0  0  0  0  0  2  0  0  0  0  0  0
  191.6470  176.5000  144.8090 C   0  0  0  0  0  2  0  0  0  0  0  0
  192.2630  176.3510  147.2200 O   0  0  0  0  0  1  0  0  0  0  0  0
  190.3000  177.3500  146.5830 O   0  0  0  0  0  0  0  0  0  0  0  0
  191.3590  176.7570  146.2480 C   0  0  0  0  0  0  0  0  0  0  0  0
  182.8500  179.6490  143.7000 O   0  0  0  0  0  0  0  0  0  0  0  0
  181.5640  178.7250  141.8870 O   0  0  0  0  0  0  0  0  0  0  0  0
  180.8070  178.5830  144.0390 O   0  0  0  0  0  1  0  0  0  0  0  0
  181.7090  178.9680  143.2470 C   0  0  0  0  0  0  0  0  0  0  0  0
  1  3  1  0  0  0  0
  3 11  1  0  0  0  0
  4 16  1  0  0  0  0
  5 15  1  0  0  0  0
  5 18  1  0  0  0  0
  6  9  2  0  0  0  0
  6 15  1  0  0  0  0
  7 16  1  0  0  0  0
  8 10  1  0  0  0  0
  8 17  2  0  0  0  0
  9 10  1  0  0  0  0
 10  3  2  0  0  0  0
 11  2  1  0  0  0  0
 12  2  2  0  0  0  0
 13  5  1  0  0  0  0
 14  7  1  6  0  0  0
 14 13  1  0  0  0  0
 14  6  1  0  0  0  0
 15  1  1  1  0  0  0
 16 14  1  0  0  0  0
 17 12  1  0  0  0  0
 18 19  1  0  0  0  0
 19 22  1  0  0  0  0
 22 21  2  0  0  0  0
 22 20  1  0  0  0  0
 23 17  1  0  0  0  0
 24 26  2  0  0  0  0
 26 23  1  0  0  0  0
 26 25  1  0  0  0  0
M  END
>  <MODEL>
1

>  <REMARK>
 VINA RESULT:      -9.1      0.000      0.000
  Name = 
  5 active torsions:
  status: ('A' for Active; 'I' for Inactive)
    1  A    between atoms: N_7  and  C_15
    2  A    between atoms: C_10  and  C_15
    3  A    between atoms: C_10  and  C_17
    4  A    between atoms: C_13  and  O_22
    5  A    between atoms: O_22  and  C_26
                            x       y       z     vdW  Elec       q    Type
                         _______ _______ _______ _____ _____    ______ ____

>  <TORSDO>
F 5

$$$$
=
 OpenBabel11062417023D

 26 29  0  0  1  0  0  0  0  0999 V2000
  187.3560  176.9720  143.2390 C   0  0  0  0  0  2  0  0  0  0  0  0
  190.9580  176.5830  142.9210 C   0  0  0  0  0  3  0  0  0  0  0  0
  188.6080  177.0040  143.7180 C   0  0  0  0  0  0  0  0  0  0  0  0
  186.1910  179.8180  147.3690 O   0  0  0  0  0  1  0  0  0  0  0  0
  184.9800  177.8630  143.5420 N   0  0  0  0  0  0  0  0  0  0  0  0
  186.4710  177.8620  145.3900 C   0  0  0  0  0  0  0  0  0  0  0  0
  184.6550  178.2340  146.9400 N   0  0  0  0  0  2  0  0  0  0  0  0
  189.9860  177.3350  145.8100 C   0  0  0  0  0  3  0  0  0  0  0  0
  187.7000  177.9860  145.8850 C   0  0  0  0  0  3  0  0  0  0  0  0
  188.8350  177.4020  145.1430 C   0  0  0  0  0  0  0  0  0  0  0  0
  189.6580  176.7600  142.7290 C   0  0  0  0  0  3  0  0  0  0  0  0
  191.7090  176.5710  144.1760 C   0  0  0  0  0  2  0  0  0  0  0  0
  184.2940  178.5200  144.6010 N   0  0  0  0  0  2  0  0  0  0  0  0
  185.2430  178.5910  145.7010 C   0  0  2  0  0  0  0  0  0  0  0  0
  186.1530  177.1700  144.1330 C   0  0  2  0  0  3  0  0  0  0  0  0
  185.0410  179.6060  146.6840 N   0  0  0  0  0  0  0  0  0  0  0  0
  191.3270  176.8740  145.4200 C   0  0  0  0  0  0  0  0  0  0  0  0
  185.3930  178.9120  142.6070 C   0  0  0  0  0  2  0  0  0  0  0  0
  184.4390  178.9630  141.4260 C   0  0  0  0  0  2  0  0  0  0  0  0
  186.4450  178.6120  139.9880 O   0  0  0  0  0  1  0  0  0  0  0  0
  184.6850  179.8730  139.2370 O   0  0  0  0  0  0  0  0  0  0  0  0
  185.1900  179.1810  140.1580 C   0  0  0  0  0  0  0  0  0  0  0  0
  192.2470  176.7900  146.4820 O   0  0  0  0  0  0  0  0  0  0  0  0
  193.0510  176.1320  148.6530 O   0  0  0  0  0  1  0  0  0  0  0  0
  191.4220  174.9210  147.6020 O   0  0  0  0  0  0  0  0  0  0  0  0
  192.2020  175.9110  147.5770 C   0  0  0  0  0  0  0  0  0  0  0  0
  1  3  1  0  0  0  0
  2 12  1  0  0  0  0
  3 10  2  0  0  0  0
  5 15  1  0  0  0  0
  5 13  1  0  0  0  0
  6 14  1  0  0  0  0
  6  9  2  0  0  0  0
 10  8  1  0  0  0  0
 10  9  1  0  0  0  0
 11  2  2  0  0  0  0
 11  3  1  0  0  0  0
 12 17  1  0  0  0  0
 14 13  1  6  0  0  0
 14 16  1  0  0  0  0
 14  7  1  0  0  0  0
 15  1  1  6  0  0  0
 15  6  1  0  0  0  0
 16  7  1  0  0  0  0
 16  4  1  0  0  0  0
 17  8  2  0  0  0  0
 17 23  1  0  0  0  0
 18  5  1  0  0  0  0
 19 18  1  0  0  0  0
 20 22  1  0  0  0  0
 21 22  2  0  0  0  0
 22 19  1  0  0  0  0
 23 26  1  0  0  0  0
 26 25  2  0  0  0  0
 26 24  1  0  0  0  0
M  END
>  <MODEL>
2

>  <REMARK>
 VINA RESULT:      -8.9      3.081      7.659
  Name = 
  5 active torsions:
  status: ('A' for Active; 'I' for Inactive)
    1  A    between atoms: N_7  and  C_15
    2  A    between atoms: C_10  and  C_15
    3  A    between atoms: C_10  and  C_17
    4  A    between atoms: C_13  and  O_22
    5  A    between atoms: O_22  and  C_26
                            x       y       z     vdW  Elec       q    Type
                         _______ _______ _______ _____ _____    ______ ____

>  <TORSDO>
F 5

$$$$
=
 OpenBabel11062417023D

 26 29  0  0  1  0  0  0  0  0999 V2000
  187.6790  176.9930  144.3080 C   0  0  0  0  0  2  0  0  0  0  0  0
  184.5030  178.7360  144.6310 C   0  0  0  0  0  3  0  0  0  0  0  0
  186.6360  177.6780  143.8160 C   0  0  0  0  0  0  0  0  0  0  0  0
  190.0100  178.2610  139.8960 O   0  0  0  0  0  1  0  0  0  0  0  0
  190.1250  176.3550  143.9320 N   0  0  0  0  0  0  0  0  0  0  0  0
  188.7910  177.0110  142.0800 C   0  0  0  0  0  0  0  0  0  0  0  0
  190.4140  176.1390  140.5170 N   0  0  0  0  0  2  0  0  0  0  0  0
  185.5680  178.5180  141.6860 C   0  0  0  0  0  3  0  0  0  0  0  0
  187.8180  177.7560  141.5610 C   0  0  0  0  0  3  0  0  0  0  0  0
  186.5930  177.9900  142.3530 C   0  0  0  0  0  0  0  0  0  0  0  0
  185.6870  178.1680  144.8160 C   0  0  0  0  0  2  0  0  0  0  0  0
  183.8070  179.0250  143.3770 C   0  0  0  0  0  3  0  0  0  0  0  0
  191.0010  176.4020  142.8120 N   0  0  0  0  0  2  0  0  0  0  0  0
  190.1970  176.8860  141.7010 C   0  0  2  0  0  0  0  0  0  0  0  0
  188.7350  176.3890  143.4100 C   0  0  2  0  0  3  0  0  0  0  0  0
  190.8790  177.5070  140.6120 N   0  0  0  0  0  0  0  0  0  0  0  0
  184.2230  178.9340  142.1110 C   0  0  0  0  0  0  0  0  0  0  0  0
  190.4240  177.5410  144.7380 C   0  0  0  0  0  2  0  0  0  0  0  0
  191.6510  177.2920  145.5970 C   0  0  0  0  0  2  0  0  0  0  0  0
  192.2220  176.3490  147.8330 O   0  0  0  0  0  1  0  0  0  0  0  0
  190.0400  176.7750  147.2750 O   0  0  0  0  0  0  0  0  0  0  0  0
  191.2530  176.7910  146.9420 C   0  0  0  0  0  0  0  0  0  0  0  0
  183.3580  179.2780  141.0560 O   0  0  0  0  0  0  0  0  0  0  0  0
  184.2770  180.3410  139.1020 O   0  0  0  0  0  1  0  0  0  0  0  0
  183.3250  178.2680  138.9570 O   0  0  0  0  0  0  0  0  0  0  0  0
  183.6420  179.2500  139.6810 C   0  0  0  0  0  0  0  0  0  0  0  0
  2 11  1  0  0  0  0
  3  1  1  0  0  0  0
  3 11  1  0  0  0  0
  4 16  1  0  0  0  0
  5 18  1  0  0  0  0
  6 15  1  0  0  0  0
  7 16  1  0  0  0  0
  8 17  2  0  0  0  0
  8 10  1  0  0  0  0
  9  6  2  0  0  0  0
  9 10  1  0  0  0  0
 10  3  2  0  0  0  0
 12  2  2  0  0  0  0
 13  5  1  0  0  0  0
 14  7  1  6  0  0  0
 14  6  1  0  0  0  0
 14 13  1  0  0  0  0
 15  5  1  0  0  0  0
 15  1  1  1  0  0  0
 16 14  1  0  0  0  0
 17 12  1  0  0  0  0
 18 19  1  0  0  0  0
 19 22  1  0  0  0  0
 22 21  2  0  0  0  0
 22 20  1  0  0  0  0
 23 17  1  0  0  0  0
 24 26  1  0  0  0  0
 25 26  2  0  0  0  0
 26 23  1  0  0  0  0
M  END
>  <MODEL>
3

>  <REMARK>
 VINA RESULT:      -8.5      1.669      2.071
  Name = 
  5 active torsions:
  status: ('A' for Active; 'I' for Inactive)
    1  A    between atoms: N_7  and  C_15
    2  A    between atoms: C_10  and  C_15
    3  A    between atoms: C_10  and  C_17
    4  A    between atoms: C_13  and  O_22
    5  A    between atoms: O_22  and  C_26
                            x       y       z     vdW  Elec       q    Type
                         _______ _______ _______ _____ _____    ______ ____

>  <TORSDO>
F 5

$$$$
=
 OpenBabel11062417023D

 26 29  0  0  1  0  0  0  0  0999 V2000
  186.8830  177.3460  144.2840 C   0  0  0  0  0  2  0  0  0  0  0  0
  184.6950  178.6350  141.6800 C   0  0  0  0  0  3  0  0  0  0  0  0
  186.6430  177.8290  143.0560 C   0  0  0  0  0  0  0  0  0  0  0  0
  191.7910  178.5500  143.2980 O   0  0  0  0  0  1  0  0  0  0  0  0
  188.6590  177.0350  146.0960 N   0  0  0  0  0  0  0  0  0  0  0  0
  189.3330  177.3310  143.8380 C   0  0  0  0  0  0  0  0  0  0  0  0
  191.5720  176.5690  144.3370 N   0  0  0  0  0  2  0  0  0  0  0  0
  187.6960  178.3190  140.8120 C   0  0  0  0  0  3  0  0  0  0  0  0
  189.1540  177.8810  142.6390 C   0  0  0  0  0  3  0  0  0  0  0  0
  187.7830  178.0040  142.1040 C   0  0  0  0  0  0  0  0  0  0  0  0
  185.2650  178.2610  142.8180 C   0  0  0  0  0  2  0  0  0  0  0  0
  185.2780  178.7120  140.3410 C   0  0  0  0  0  3  0  0  0  0  0  0
  190.0790  177.1110  146.1150 N   0  0  0  0  0  2  0  0  0  0  0  0
  190.4800  177.3770  144.7430 C   0  0  2  0  0  0  0  0  0  0  0  0
  188.2450  176.8240  144.6850 C   0  0  2  0  0  3  0  0  0  0  0  0
  191.7500  177.9930  144.5320 N   0  0  0  0  0  0  0  0  0  0  0  0
  186.5430  178.5730  139.9350 C   0  0  0  0  0  0  0  0  0  0  0  0
  188.1720  178.3170  146.6110 C   0  0  0  0  0  2  0  0  0  0  0  0
  187.1120  178.0830  147.6730 C   0  0  0  0  0  2  0  0  0  0  0  0
  184.7520  178.3280  146.9070 O   0  0  0  0  0  0  0  0  0  0  0  0
  185.9350  180.1550  147.6280 O   0  0  0  0  0  1  0  0  0  0  0  0
  185.9090  178.9170  147.4020 C   0  0  0  0  0  0  0  0  0  0  0  0
  186.8650  178.6970  138.5700 O   0  0  0  0  0  0  0  0  0  0  0  0
  188.3830  177.1160  137.5760 O   0  0  0  0  0  0  0  0  0  0  0  0
  188.9610  179.3190  137.7660 O   0  0  0  0  0  1  0  0  0  0  0  0
  188.1000  178.4200  137.9610 C   0  0  0  0  0  0  0  0  0  0  0  0
  2 11  1  0  0  0  0
  3  1  1  0  0  0  0
  4 16  1  0  0  0  0
  5 13  1  0  0  0  0
  5 18  1  0  0  0  0
  6 15  1  0  0  0  0
  7 16  1  0  0  0  0
  7 14  1  0  0  0  0
  8 10  1  0  0  0  0
  9  6  2  0  0  0  0
 10  9  1  0  0  0  0
 10  3  2  0  0  0  0
 11  3  1  0  0  0  0
 12  2  2  0  0  0  0
 14  6  1  6  0  0  0
 14 13  1  0  0  0  0
 15  1  1  6  0  0  0
 15  5  1  0  0  0  0
 16 14  1  0  0  0  0
 17 12  1  0  0  0  0
 17  8  2  0  0  0  0
 18 19  1  0  0  0  0
 20 22  2  0  0  0  0
 22 21  1  0  0  0  0
 22 19  1  0  0  0  0
 23 17  1  0  0  0  0
 24 26  2  0  0  0  0
 25 26  1  0  0  0  0
 26 23  1  0  0  0  0
M  END
>  <MODEL>
4

>  <REMARK>
 VINA RESULT:      -8.3      2.912      5.180
  Name = 
  5 active torsions:
  status: ('A' for Active; 'I' for Inactive)
    1  A    between atoms: N_7  and  C_15
    2  A    between atoms: C_10  and  C_15
    3  A    between atoms: C_10  and  C_17
    4  A    between atoms: C_13  and  O_22
    5  A    between atoms: O_22  and  C_26
                            x       y       z     vdW  Elec       q    Type
                         _______ _______ _______ _____ _____    ______ ____

>  <TORSDO>
F 5

$$$$
=
 OpenBabel11062417023D

 26 29  0  0  1  0  0  0  0  0999 V2000
  186.7050  177.3150  145.0660 C   0  0  0  0  0  2  0  0  0  0  0  0
  183.4910  178.9680  145.4830 C   0  0  0  0  0  3  0  0  0  0  0  0
  185.6220  177.9580  144.6030 C   0  0  0  0  0  0  0  0  0  0  0  0
  188.8170  178.5600  140.5380 O   0  0  0  0  0  1  0  0  0  0  0  0
  189.1520  176.7430  144.6030 N   0  0  0  0  0  0  0  0  0  0  0  0
  187.7250  177.3200  142.7940 C   0  0  0  0  0  0  0  0  0  0  0  0
  189.3110  176.4640  141.1840 N   0  0  0  0  0  2  0  0  0  0  0  0
  184.4440  178.7200  142.5010 C   0  0  0  0  0  3  0  0  0  0  0  0
  186.7100  178.0240  142.3010 C   0  0  0  0  0  3  0  0  0  0  0  0
  185.5110  178.2380  143.1370 C   0  0  0  0  0  0  0  0  0  0  0  0
  184.6990  178.4400  145.6300 C   0  0  0  0  0  2  0  0  0  0  0  0
  182.7370  179.2100  144.2530 C   0  0  0  0  0  3  0  0  0  0  0  0
  189.9810  176.7930  143.4480 N   0  0  0  0  0  2  0  0  0  0  0  0
  189.1180  177.2290  142.3610 C   0  0  2  0  0  0  0  0  0  0  0  0
  187.7410  176.7240  144.1380 C   0  0  2  0  0  3  0  0  0  0  0  0
  189.7370  177.8480  141.2330 N   0  0  0  0  0  0  0  0  0  0  0  0
  183.1050  179.1050  142.9730 C   0  0  0  0  0  0  0  0  0  0  0  0
  189.4460  177.9540  145.3720 C   0  0  0  0  0  2  0  0  0  0  0  0
  190.1800  177.5940  146.6520 C   0  0  0  0  0  2  0  0  0  0  0  0
  189.3160  178.5790  148.7730 O   0  0  0  0  0  1  0  0  0  0  0  0
  188.3700  176.6800  147.9050 O   0  0  0  0  0  0  0  0  0  0  0  0
  189.2400  177.5840  147.8080 C   0  0  0  0  0  0  0  0  0  0  0  0
  182.1880  179.4000  141.9480 O   0  0  0  0  0  0  0  0  0  0  0  0
  180.1250  178.1640  142.0470 O   0  0  0  0  0  0  0  0  0  0  0  0
  180.1120  180.4500  142.0840 O   0  0  0  0  0  1  0  0  0  0  0  0
  180.7860  179.3860  142.0330 C   0  0  0  0  0  0  0  0  0  0  0  0
  2 11  1  0  0  0  0
  3  1  1  0  0  0  0
  3 11  1  0  0  0  0
  4 16  1  0  0  0  0
  5 18  1  0  0  0  0
  6 15  1  0  0  0  0
  7 16  1  0  0  0  0
  8 17  2  0  0  0  0
  8 10  1  0  0  0  0
  9  6  2  0  0  0  0
  9 10  1  0  0  0  0
 10  3  2  0  0  0  0
 12  2  2  0  0  0  0
 13  5  1  0  0  0  0
 14  7  1  6  0  0  0
 14  6  1  0  0  0  0
 14 13  1  0  0  0  0
 15  5  1  0  0  0  0
 15  1  1  1  0  0  0
 16 14  1  0  0  0  0
 17 12  1  0  0  0  0
 18 19  1  0  0  0  0
 19 22  1  0  0  0  0
 22 21  2  0  0  0  0
 22 20  1  0  0  0  0
 23 26  1  0  0  0  0
 23 17  1  0  0  0  0
 26 24  2  0  0  0  0
 26 25  1  0  0  0  0
M  END
>  <MODEL>
5

>  <REMARK>
 VINA RESULT:      -8.0      1.536      1.862
  Name = 
  5 active torsions:
  status: ('A' for Active; 'I' for Inactive)
    1  A    between atoms: N_7  and  C_15
    2  A    between atoms: C_10  and  C_15
    3  A    between atoms: C_10  and  C_17
    4  A    between atoms: C_13  and  O_22
    5  A    between atoms: O_22  and  C_26
                            x       y       z     vdW  Elec       q    Type
                         _______ _______ _______ _____ _____    ______ ____

>  <TORSDO>
F 5

$$$$
=
 OpenBabel11062417023D

 26 29  0  0  1  0  0  0  0  0999 V2000
  186.4700  178.9990  141.7910 C   0  0  0  0  0  2  0  0  0  0  0  0
  184.4980  178.6290  144.8250 C   0  0  0  0  0  3  0  0  0  0  0  0
  186.2940  178.6060  143.0620 C   0  0  0  0  0  0  0  0  0  0  0  0
  190.5070  175.8030  141.8450 O   0  0  0  0  0  1  0  0  0  0  0  0
  187.8200  178.6180  139.6550 N   0  0  0  0  0  0  0  0  0  0  0  0
  188.7350  177.9640  141.7470 C   0  0  0  0  0  0  0  0  0  0  0  0
  190.9410  177.7380  140.7870 N   0  0  0  0  0  2  0  0  0  0  0  0
  187.4600  177.6170  145.0740 C   0  0  0  0  0  3  0  0  0  0  0  0
  188.5800  177.4860  142.9790 C   0  0  0  0  0  3  0  0  0  0  0  0
  187.4170  177.9250  143.7780 C   0  0  0  0  0  0  0  0  0  0  0  0
  184.9380  178.7810  143.5830 C   0  0  0  0  0  3  0  0  0  0  0  0
  185.2440  178.2540  146.0260 C   0  0  0  0  0  2  0  0  0  0  0  0
  189.0440  177.9540  139.3600 N   0  0  0  0  0  2  0  0  0  0  0  0
  189.5550  177.4830  140.6370 C   0  0  2  0  0  0  0  0  0  0  0  0
  187.8170  178.9190  141.1100 C   0  0  2  0  0  3  0  0  0  0  0  0
  190.4630  176.3810  140.6200 N   0  0  0  0  0  0  0  0  0  0  0  0
  186.5030  177.8310  146.1700 C   0  0  0  0  0  0  0  0  0  0  0  0
  186.7500  177.6840  139.3000 C   0  0  0  0  0  2  0  0  0  0  0  0
  185.9090  178.2590  138.1730 C   0  0  0  0  0  2  0  0  0  0  0  0
  184.5410  180.1280  139.0960 O   0  0  0  0  0  1  0  0  0  0  0  0
  183.6150  178.0540  138.7870 O   0  0  0  0  0  0  0  0  0  0  0  0
  184.6260  178.7990  138.7030 C   0  0  0  0  0  0  0  0  0  0  0  0
  187.0020  177.5210  147.4490 O   0  0  0  0  0  0  0  0  0  0  0  0
  188.9210  178.5570  148.4690 O   0  0  0  0  0  1  0  0  0  0  0  0
  189.0570  176.4370  147.6270 O   0  0  0  0  0  0  0  0  0  0  0  0
  188.3500  177.4580  147.8410 C   0  0  0  0  0  0  0  0  0  0  0  0
  1  3  1  0  0  0  0
  2 12  1  0  0  0  0
  3 11  1  0  0  0  0
  3 10  2  0  0  0  0
  5 15  1  0  0  0  0
  6  9  2  0  0  0  0
  8 17  2  0  0  0  0
  9 10  1  0  0  0  0
 10  8  1  0  0  0  0
 11  2  2  0  0  0  0
 12 17  1  0  0  0  0
 13  5  1  0  0  0  0
 14 13  1  6  0  0  0
 14  7  1  0  0  0  0
 14  6  1  0  0  0  0
 15  6  1  0  0  0  0
 15  1  1  1  0  0  0
 16 14  1  0  0  0  0
 16  7  1  0  0  0  0
 16  4  1  0  0  0  0
 17 23  1  0  0  0  0
 18  5  1  0  0  0  0
 19 22  1  0  0  0  0
 19 18  1  0  0  0  0
 22 21  2  0  0  0  0
 22 20  1  0  0  0  0
 23 26  1  0  0  0  0
 25 26  2  0  0  0  0
 26 24  1  0  0  0  0
M  END
>  <MODEL>
6

>  <REMARK>
 VINA RESULT:      -7.9      2.519      5.837
  Name = 
  5 active torsions:
  status: ('A' for Active; 'I' for Inactive)
    1  A    between atoms: N_7  and  C_15
    2  A    between atoms: C_10  and  C_15
    3  A    between atoms: C_10  and  C_17
    4  A    between atoms: C_13  and  O_22
    5  A    between atoms: O_22  and  C_26
                            x       y       z     vdW  Elec       q    Type
                         _______ _______ _______ _____ _____    ______ ____

>  <TORSDO>
F 5

$$$$
=
 OpenBabel11062417023D

 26 29  0  0  1  0  0  0  0  0999 V2000
  187.1920  177.3770  144.6410 C   0  0  0  0  0  2  0  0  0  0  0  0
  184.3740  179.0000  143.0120 C   0  0  0  0  0  3  0  0  0  0  0  0
  186.5850  177.9440  143.5880 C   0  0  0  0  0  0  0  0  0  0  0  0
  191.5330  178.1700  141.9880 O   0  0  0  0  0  1  0  0  0  0  0  0
  189.4500  176.8080  145.6950 N   0  0  0  0  0  0  0  0  0  0  0  0
  189.3100  177.1580  143.3500 C   0  0  0  0  0  0  0  0  0  0  0  0
  191.4870  176.1660  143.0050 N   0  0  0  0  0  2  0  0  0  0  0  0
  186.8230  178.4520  141.1240 C   0  0  0  0  0  3  0  0  0  0  0  0
  188.7780  177.7850  142.3030 C   0  0  0  0  0  3  0  0  0  0  0  0
  187.3280  178.0630  142.2940 C   0  0  0  0  0  0  0  0  0  0  0  0
  185.2670  178.5150  143.8640 C   0  0  0  0  0  2  0  0  0  0  0  0
  184.4510  179.0930  141.5540 C   0  0  0  0  0  3  0  0  0  0  0  0
  190.7850  176.7500  145.2070 N   0  0  0  0  0  2  0  0  0  0  0  0
  190.7010  177.0490  143.7870 C   0  0  2  0  0  0  0  0  0  0  0  0
  188.5440  176.7100  144.5220 C   0  0  2  0  0  3  0  0  0  0  0  0
  191.8720  177.5550  143.1460 N   0  0  0  0  0  0  0  0  0  0  0  0
  185.4690  178.8580  140.7200 C   0  0  0  0  0  0  0  0  0  0  0  0
  189.3150  178.1000  146.3700 C   0  0  0  0  0  2  0  0  0  0  0  0
  189.3200  177.9040  147.8760 C   0  0  0  0  0  2  0  0  0  0  0  0
  186.9830  178.7670  147.7780 O   0  0  0  0  0  0  0  0  0  0  0  0
  187.6220  177.3320  149.4480 O   0  0  0  0  0  1  0  0  0  0  0  0
  187.9340  177.9830  148.4170 C   0  0  0  0  0  0  0  0  0  0  0  0
  185.2980  179.0240  139.3330 O   0  0  0  0  0  0  0  0  0  0  0  0
  187.0930  178.7720  137.7490 O   0  0  0  0  0  0  0  0  0  0  0  0
  185.4280  177.2110  137.8750 O   0  0  0  0  0  1  0  0  0  0  0  0
  185.9170  178.2880  138.3090 C   0  0  0  0  0  0  0  0  0  0  0  0
  2 11  1  0  0  0  0
  3 11  1  0  0  0  0
  3  1  1  0  0  0  0
  4 16  1  0  0  0  0
  5 18  1  0  0  0  0
  6 14  1  0  0  0  0
  6 15  1  0  0  0  0
  7 16  1  0  0  0  0
  8 10  1  0  0  0  0
  9  6  2  0  0  0  0
 10  9  1  0  0  0  0
 10  3  2  0  0  0  0
 12  2  2  0  0  0  0
 13  5  1  0  0  0  0
 14  7  1  6  0  0  0
 14 13  1  0  0  0  0
 15  1  1  1  0  0  0
 15  5  1  0  0  0  0
 16 14  1  0  0  0  0
 17  8  2  0  0  0  0
 17 12  1  0  0  0  0
 18 19  1  0  0  0  0
 19 22  1  0  0  0  0
 20 22  2  0  0  0  0
 22 21  1  0  0  0  0
 23 17  1  0  0  0  0
 24 26  2  0  0  0  0
 25 26  1  0  0  0  0
 26 23  1  0  0  0  0
M  END
>  <MODEL>
7

>  <REMARK>
 VINA RESULT:      -7.9      2.847      3.997
  Name = 
  5 active torsions:
  status: ('A' for Active; 'I' for Inactive)
    1  A    between atoms: N_7  and  C_15
    2  A    between atoms: C_10  and  C_15
    3  A    between atoms: C_10  and  C_17
    4  A    between atoms: C_13  and  O_22
    5  A    between atoms: O_22  and  C_26
                            x       y       z     vdW  Elec       q    Type
                         _______ _______ _______ _____ _____    ______ ____

>  <TORSDO>
F 5

$$$$
=
 OpenBabel11062417023D

 26 29  0  0  1  0  0  0  0  0999 V2000
  185.6460  178.8740  142.8290 C   0  0  0  0  0  2  0  0  0  0  0  0
  186.2600  177.6720  146.2070 C   0  0  0  0  0  3  0  0  0  0  0  0
  186.4080  178.3050  143.7750 C   0  0  0  0  0  0  0  0  0  0  0  0
  189.0120  176.8100  139.5240 O   0  0  0  0  0  1  0  0  0  0  0  0
  185.2580  179.0940  140.3130 N   0  0  0  0  0  0  0  0  0  0  0  0
  187.4000  178.4530  141.1120 C   0  0  0  0  0  0  0  0  0  0  0  0
  188.4100  178.9010  138.9620 N   0  0  0  0  0  2  0  0  0  0  0  0
  188.7200  177.4140  144.2730 C   0  0  0  0  0  3  0  0  0  0  0  0
  188.1620  177.8110  141.9950 C   0  0  0  0  0  3  0  0  0  0  0  0
  187.7900  177.8490  143.4240 C   0  0  0  0  0  0  0  0  0  0  0  0
  185.7380  178.0720  145.0550 C   0  0  0  0  0  3  0  0  0  0  0  0
  187.6530  177.3590  146.5270 C   0  0  0  0  0  2  0  0  0  0  0  0
  186.0360  178.7980  139.1590 N   0  0  0  0  0  2  0  0  0  0  0  0
  187.3170  178.3250  139.6580 C   0  0  2  0  0  0  0  0  0  0  0  0
  186.1930  179.2140  141.4610 C   0  0  2  0  0  3  0  0  0  0  0  0
  188.0980  177.4960  138.7970 N   0  0  0  0  0  0  0  0  0  0  0  0
  188.7230  177.2510  145.7340 C   0  0  0  0  0  0  0  0  0  0  0  0
  184.3370  177.9690  140.4870 C   0  0  0  0  0  2  0  0  0  0  0  0
  183.0330  178.2450  139.7590 C   0  0  0  0  0  2  0  0  0  0  0  0
  182.2360  178.7920  142.0570 O   0  0  0  0  0  1  0  0  0  0  0  0
  181.0200  179.4340  140.2230 O   0  0  0  0  0  0  0  0  0  0  0  0
  182.0370  178.8550  140.6850 C   0  0  0  0  0  0  0  0  0  0  0  0
  189.9790  176.9310  146.2830 O   0  0  0  0  0  0  0  0  0  0  0  0
  192.0090  175.7910  145.6730 O   0  0  0  0  0  1  0  0  0  0  0  0
  191.6390  177.9440  145.0000 O   0  0  0  0  0  0  0  0  0  0  0  0
  191.2190  176.9320  145.6230 C   0  0  0  0  0  0  0  0  0  0  0  0
  1  3  1  0  0  0  0
  2 12  1  0  0  0  0
  3 11  1  0  0  0  0
  5 18  1  0  0  0  0
  5 15  1  0  0  0  0
  6 15  1  0  0  0  0
  6  9  2  0  0  0  0
  8 17  2  0  0  0  0
  9 10  1  0  0  0  0
 10  3  2  0  0  0  0
 10  8  1  0  0  0  0
 11  2  2  0  0  0  0
 13 14  1  0  0  0  0
 13  5  1  0  0  0  0
 14  7  1  6  0  0  0
 14  6  1  0  0  0  0
 15  1  1  1  0  0  0
 16  7  1  0  0  0  0
 16  4  1  0  0  0  0
 16 14  1  0  0  0  0
 17 23  1  0  0  0  0
 17 12  1  0  0  0  0
 19 18  1  0  0  0  0
 19 22  1  0  0  0  0
 21 22  2  0  0  0  0
 22 20  1  0  0  0  0
 25 26  2  0  0  0  0
 26 24  1  0  0  0  0
 26 23  1  0  0  0  0
M  END
>  <MODEL>
8

>  <REMARK>
 VINA RESULT:      -7.8      2.009      6.638
  Name = 
  5 active torsions:
  status: ('A' for Active; 'I' for Inactive)
    1  A    between atoms: N_7  and  C_15
    2  A    between atoms: C_10  and  C_15
    3  A    between atoms: C_10  and  C_17
    4  A    between atoms: C_13  and  O_22
    5  A    between atoms: O_22  and  C_26
                            x       y       z     vdW  Elec       q    Type
                         _______ _______ _______ _____ _____    ______ ____

>  <TORSDO>
F 5

$$$$
=
 OpenBabel11062417023D

 26 29  0  0  1  0  0  0  0  0999 V2000
  187.5620  177.3410  143.2290 C   0  0  0  0  0  2  0  0  0  0  0  0
  188.5770  178.1860  139.8400 C   0  0  0  0  0  3  0  0  0  0  0  0
  188.4780  177.5170  142.2640 C   0  0  0  0  0  0  0  0  0  0  0  0
  191.5730  177.6020  146.4480 O   0  0  0  0  0  1  0  0  0  0  0  0
  187.1740  177.2810  145.7540 N   0  0  0  0  0  0  0  0  0  0  0  0
  189.3550  176.8930  144.8980 C   0  0  0  0  0  0  0  0  0  0  0  0
  190.1000  176.0030  147.0180 N   0  0  0  0  0  2  0  0  0  0  0  0
  190.9300  177.2700  141.7060 C   0  0  0  0  0  3  0  0  0  0  0  0
  190.3040  177.1340  143.9970 C   0  0  0  0  0  3  0  0  0  0  0  0
  189.9230  177.2910  142.5790 C   0  0  0  0  0  0  0  0  0  0  0  0
  187.9570  178.0480  141.0040 C   0  0  0  0  0  2  0  0  0  0  0  0
  189.9530  177.8390  139.4830 C   0  0  0  0  0  3  0  0  0  0  0  0
  188.0280  177.1750  146.8860 N   0  0  0  0  0  2  0  0  0  0  0  0
  189.3720  177.0220  146.3540 C   0  0  2  0  0  0  0  0  0  0  0  0
  187.9260  176.7680  144.5800 C   0  0  2  0  0  3  0  0  0  0  0  0
  190.4640  177.3930  147.1970 N   0  0  0  0  0  0  0  0  0  0  0  0
  190.9730  177.4360  140.2460 C   0  0  0  0  0  0  0  0  0  0  0  0
  186.8600  178.7040  145.6080 C   0  0  0  0  0  2  0  0  0  0  0  0
  185.4930  179.0000  146.2010 C   0  0  0  0  0  2  0  0  0  0  0  0
  184.8980  179.4870  143.8290 O   0  0  0  0  0  0  0  0  0  0  0  0
  183.2580  179.0530  145.3710 O   0  0  0  0  0  1  0  0  0  0  0  0
  184.4850  179.1820  145.1190 C   0  0  0  0  0  0  0  0  0  0  0  0
  192.2240  177.1610  139.6640 O   0  0  0  0  0  0  0  0  0  0  0  0
  191.7290  175.2480  138.2900 O   0  0  0  0  0  1  0  0  0  0  0  0
  193.3650  176.7230  137.6800 O   0  0  0  0  0  0  0  0  0  0  0  0
  192.4740  176.3980  138.5110 C   0  0  0  0  0  0  0  0  0  0  0  0
  2 11  1  0  0  0  0
  3 10  2  0  0  0  0
  3  1  1  0  0  0  0
  4 16  1  0  0  0  0
  5 13  1  0  0  0  0
  7 16  1  0  0  0  0
  8 10  1  0  0  0  0
  9  6  2  0  0  0  0
 10  9  1  0  0  0  0
 11  3  1  0  0  0  0
 12  2  2  0  0  0  0
 12 17  1  0  0  0  0
 14  6  1  6  0  0  0
 14 13  1  0  0  0  0
 14  7  1  0  0  0  0
 14 16  1  0  0  0  0
 15  1  1  6  0  0  0
 15  6  1  0  0  0  0
 15  5  1  0  0  0  0
 17  8  2  0  0  0  0
 18  5  1  0  0  0  0
 18 19  1  0  0  0  0
 20 22  2  0  0  0  0
 22 21  1  0  0  0  0
 22 19  1  0  0  0  0
 23 17  1  0  0  0  0
 24 26  1  0  0  0  0
 25 26  2  0  0  0  0
 26 23  1  0  0  0  0
M  END
>  <MODEL>
9

>  <REMARK>
 VINA RESULT:      -7.6      2.803      7.293
  Name = 
  5 active torsions:
  status: ('A' for Active; 'I' for Inactive)
    1  A    between atoms: N_7  and  C_15
    2  A    between atoms: C_10  and  C_15
    3  A    between atoms: C_10  and  C_17
    4  A    between atoms: C_13  and  O_22
    5  A    between atoms: O_22  and  C_26
                            x       y       z     vdW  Elec       q    Type
                         _______ _______ _______ _____ _____    ______ ____

>  <TORSDO>
F 5

$$$$
