=
 OpenBabel11062416423D

 57 61  0  0  1  0  0  0  0  0999 V2000
  187.5820  176.9120  137.0740 C   0  0  1  0  0  3  0  0  0  0  0  0
  188.7640  174.6850  136.9040 N   0  0  0  0  0  0  0  0  0  0  0  0
  186.6720  172.9610  136.6950 S   0  0  0  0  0  0  0  0  0  0  0  0
  185.1470  175.3120  136.4530 C   0  0  0  0  0  2  0  0  0  0  0  0
  186.2400  177.5960  136.7180 C   0  0  2  0  0  3  0  0  0  0  0  0
  186.1560  178.8260  137.3720 O   0  0  0  0  0  1  0  0  0  0  0  0
  188.3890  173.3170  137.0360 C   0  0  0  0  0  0  0  0  0  0  0  0
  187.6130  175.4860  136.5020 C   0  0  1  0  0  3  0  0  0  0  0  0
  186.4110  174.7240  137.0310 C   0  0  2  0  0  3  0  0  0  0  0  0
  184.9960  176.7210  137.0460 C   0  0  1  0  0  3  0  0  0  0  0  0
  189.1920  172.4350  137.4390 O   0  0  0  0  0  0  0  0  0  0  0  0
  183.6470  177.3900  136.6680 C   0  0  2  0  0  0  0  0  0  0  0  0
  183.5640  177.6510  135.1650 C   0  0  0  0  0  1  0  0  0  0  0  0
  183.5390  178.6180  137.3330 O   0  0  0  0  0  1  0  0  0  0  0  0
  182.4830  176.4590  137.0750 C   0  0  2  0  0  3  0  0  0  0  0  0
  182.1490  175.3890  136.0180 C   0  0  2  0  0  3  0  0  0  0  0  0
  181.4260  175.8880  134.9320 O   0  0  0  0  0  1  0  0  0  0  0  0
  182.6030  173.0810  136.8670 C   0  0  0  0  0  2  0  0  0  0  0  0
  181.5230  174.1490  136.6540 C   0  0  2  0  0  3  0  0  0  0  0  0
  179.6580  172.4310  136.6390 C   0  0  0  0  0  2  0  0  0  0  0  0
  180.5780  171.7370  137.6560 C   0  0  0  0  0  2  0  0  0  0  0  0
  182.0360  171.6900  137.1910 C   0  0  1  0  0  3  0  0  0  0  0  0
  182.1620  170.8610  136.0760 O   0  0  0  0  0  1  0  0  0  0  0  0
  180.3380  173.5760  135.8740 C   0  0  0  0  0  2  0  0  0  0  0  0
  181.3250  177.1200  137.8620 C   0  0  2  0  0  3  0  0  0  0  0  0
  180.4070  175.2400  139.4810 C   0  0  0  0  0  1  0  0  0  0  0  0
  182.2480  176.8280  140.2510 C   0  0  0  0  0  2  0  0  0  0  0  0
  180.9490  177.5950  140.4170 C   0  0  1  0  0  0  0  0  0  0  0  0
  181.0930  176.5850  139.2820 C   0  0  1  0  0  0  0  0  0  0  0  0
  180.1970  177.1630  141.5100 O   0  0  0  0  0  1  0  0  0  0  0  0
  182.2930  179.5320  140.0240 F   0  0  0  0  0  0  0  0  0  0  0  0
  180.3560  179.8340  141.1740 O   0  0  0  0  0  1  0  0  0  0  0  0
  180.9860  179.1070  140.1610 C   0  0  2  0  0  3  0  0  0  0  0  0
  179.9540  178.4130  136.3980 O   0  0  0  0  0  0  0  0  0  0  0  0
  179.0010  176.4670  137.1390 O   0  0  0  0  0  1  0  0  0  0  0  0
  180.0600  177.3670  137.0900 C   0  0  0  0  0  0  0  0  0  0  0  0
  190.6140  174.8250  135.3130 C   0  0  0  0  0  1  0  0  0  0  0  0
  190.1550  175.0930  136.7360 C   0  0  0  0  0  2  0  0  0  0  0  0
  188.7270  177.7220  136.4770 C   0  0  0  0  0  2  0  0  0  0  0  0
  188.7140  179.8970  137.4840 O   0  0  0  0  0  1  0  0  0  0  0  0
  189.3540  178.6560  137.5060 C   0  0  1  0  0  3  0  0  0  0  0  0
  190.4120  177.2440  139.4160 C   0  0  0  0  0  2  0  0  0  0  0  0
  189.3700  177.4900  141.6720 C   0  0  1  0  0  3  0  0  0  0  0  0
  188.2180  178.4200  139.6500 C   0  0  0  0  0  3  0  0  0  0  0  0
  189.2500  178.0530  138.8700 C   0  0  0  0  0  0  0  0  0  0  0  0
  190.0850  176.5300  140.7260 C   0  0  0  0  0  2  0  0  0  0  0  0
  188.0370  177.9070  141.0530 C   0  0  0  0  0  2  0  0  0  0  0  0
  189.1760  176.8710  143.0230 C   0  0  0  0  0  3  0  0  0  0  0  0
  189.0270  177.6050  144.1310 C   0  0  0  0  0  3  0  0  0  0  0  0
  188.8120  176.9510  145.4580 C   0  0  0  0  0  2  0  0  0  0  0  0
  187.6430  177.5580  146.1570 C   0  0  0  0  0  0  0  0  0  0  0  0
  187.8650  178.2450  147.6280 S   0  0  0  0  0  0  0  0  0  0  0  0
  186.3930  177.6590  145.4630 N   0  0  0  0  0  2  0  0  0  0  0  0
  185.2250  178.3590  145.9810 C   0  0  0  0  0  2  0  0  0  0  0  0
  184.5300  179.1300  144.8690 C   0  0  0  0  0  2  0  0  0  0  0  0
  184.4050  178.2960  142.5410 C   0  0  0  0  0  1  0  0  0  0  0  0
  185.2890  178.9790  143.5640 C   0  0  0  0  0  2  0  0  0  0  0  0
  1 39  1  6  0  0  0
  2  7  1  0  0  0  0
  3  9  1  0  0  0  0
  3  7  1  0  0  0  0
  4 10  1  0  0  0  0
  5 10  1  0  0  0  0
  5  1  1  0  0  0  0
  5  6  1  1  0  0  0
  7 11  2  0  0  0  0
  8  2  1  1  0  0  0
  8  9  1  0  0  0  0
  8  1  1  0  0  0  0
  9  4  1  6  0  0  0
 10 12  1  6  0  0  0
 12 13  1  6  0  0  0
 12 15  1  0  0  0  0
 12 14  1  0  0  0  0
 15 16  1  6  0  0  0
 15 25  1  0  0  0  0
 16 17  1  6  0  0  0
 18 22  1  0  0  0  0
 19 16  1  6  0  0  0
 19 18  1  0  0  0  0
 20 21  1  0  0  0  0
 22 23  1  6  0  0  0
 22 21  1  0  0  0  0
 24 20  1  0  0  0  0
 24 19  1  0  0  0  0
 25 36  1  6  0  0  0
 25 29  1  0  0  0  0
 27 28  1  0  0  0  0
 28 30  1  1  0  0  0
 29 26  1  1  0  0  0
 29 27  1  0  0  0  0
 29 28  1  0  0  0  0
 33 31  1  1  0  0  0
 33 28  1  0  0  0  0
 33 32  1  0  0  0  0
 34 36  2  0  0  0  0
 36 35  1  0  0  0  0
 37 38  1  0  0  0  0
 38  2  1  0  0  0  0
 39 41  1  0  0  0  0
 41 40  1  1  0  0  0
 41 45  1  0  0  0  0
 42 46  1  0  0  0  0
 43 48  1  1  0  0  0
 44 47  1  0  0  0  0
 45 42  1  0  0  0  0
 45 44  2  0  0  0  0
 46 43  1  0  0  0  0
 47 43  1  0  0  0  0
 48 49  2  0  0  0  0
 49 50  1  0  0  0  0
 50 51  1  0  0  0  0
 51 52  2  0  0  0  0
 53 54  1  0  0  0  0
 53 51  1  0  0  0  0
 55 54  1  0  0  0  0
 56 57  1  0  0  0  0
 57 55  1  0  0  0  0
M  END
>  <MODEL>
1

>  <REMARK>
 VINA RESULT:      -6.3      0.000      0.000
  Name = 
  19 active torsions:
  status: ('A' for Active; 'I' for Inactive)
    1  A    between atoms: C_3  and  C_6
    2  A    between atoms: C_4  and  C_23
    3  A    between atoms: C_6  and  C_30
    4  A    between atoms: C_7  and  C_24
    5  A    between atoms: C_9  and  C_18
    6  A    between atoms: C_9  and  C_53
    7  A    between atoms: N_10  and  C_28
    8  A    between atoms: C_17  and  C_52
    9  A    between atoms: C_18  and  C_24
   10  A    between atoms: C_18  and  C_32
   11  A    between atoms: C_20  and  C_30
   12  A    between atoms: C_22  and  C_31
   13  A    between atoms: C_22  and  C_43
   14  A    between atoms: C_31  and  N_40
   15  A    between atoms: C_32  and  C_33
   16  A    between atoms: C_32  and  C_46
   17  A    between atoms: C_34  and  C_35
   18  A    between atoms: C_34  and  N_40
   19  A    between atoms: C_35  and  C_50
                            x       y       z     vdW  Elec       q    Type
                         _______ _______ _______ _____ _____    ______ ____

>  <TORSDO>
F 19

$$$$
=
 OpenBabel11062416423D

 57 61  0  0  1  0  0  0  0  0999 V2000
  186.4470  178.4320  142.4440 C   0  0  1  0  0  3  0  0  0  0  0  0
  185.4760  178.1570  144.7600 N   0  0  0  0  0  0  0  0  0  0  0  0
  182.8600  178.7630  144.3420 S   0  0  0  0  0  0  0  0  0  0  0  0
  183.5990  178.7360  141.6280 C   0  0  0  0  0  2  0  0  0  0  0  0
  186.0330  178.4210  140.9530 C   0  0  2  0  0  3  0  0  0  0  0  0
  187.0720  178.9350  140.1770 O   0  0  0  0  0  1  0  0  0  0  0  0
  184.2700  178.5390  145.4140 C   0  0  0  0  0  0  0  0  0  0  0  0
  185.2530  178.0320  143.3250 C   0  0  1  0  0  3  0  0  0  0  0  0
  184.0970  178.9720  143.0320 C   0  0  2  0  0  3  0  0  0  0  0  0
  184.7120  179.1940  140.6740 C   0  0  1  0  0  3  0  0  0  0  0  0
  184.2190  178.7760  146.6500 O   0  0  0  0  0  0  0  0  0  0  0  0
  184.2760  179.1650  139.1840 C   0  0  2  0  0  0  0  0  0  0  0  0
  185.2530  178.3480  138.3400 C   0  0  0  0  0  1  0  0  0  0  0  0
  184.2540  180.4730  138.6840 O   0  0  0  0  0  1  0  0  0  0  0  0
  182.8730  178.5290  139.0740 C   0  0  2  0  0  3  0  0  0  0  0  0
  182.8840  176.9900  139.1510 C   0  0  2  0  0  3  0  0  0  0  0  0
  183.7970  176.3970  138.2750 O   0  0  0  0  0  1  0  0  0  0  0  0
  180.9410  176.1110  140.4560 C   0  0  0  0  0  2  0  0  0  0  0  0
  181.4740  176.4120  139.0500 C   0  0  2  0  0  3  0  0  0  0  0  0
  179.9050  174.7410  137.9670 C   0  0  0  0  0  2  0  0  0  0  0  0
  178.9740  175.2010  139.1010 C   0  0  0  0  0  2  0  0  0  0  0  0
  179.6790  175.2340  140.4600 C   0  0  1  0  0  3  0  0  0  0  0  0
  180.0090  173.9400  140.8660 O   0  0  0  0  0  1  0  0  0  0  0  0
  181.3650  175.1790  138.1510 C   0  0  0  0  0  2  0  0  0  0  0  0
  181.8840  179.2210  138.1050 C   0  0  2  0  0  3  0  0  0  0  0  0
  179.4400  178.8850  139.0600 C   0  0  0  0  0  1  0  0  0  0  0  0
  180.8710  180.8520  139.8250 C   0  0  0  0  0  2  0  0  0  0  0  0
  180.2840  181.2670  138.4890 C   0  0  1  0  0  0  0  0  0  0  0  0
  180.6160  179.8000  138.7480 C   0  0  1  0  0  0  0  0  0  0  0  0
  178.9310  181.5970  138.5670 O   0  0  0  0  0  1  0  0  0  0  0  0
  182.1740  182.7200  138.3110 F   0  0  0  0  0  0  0  0  0  0  0  0
  180.4160  183.1380  136.9330 O   0  0  0  0  0  1  0  0  0  0  0  0
  181.1540  182.1430  137.5790 C   0  0  2  0  0  3  0  0  0  0  0  0
  182.6200  178.2000  136.0780 O   0  0  0  0  0  0  0  0  0  0  0  0
  180.3490  178.2310  136.3710 O   0  0  0  0  0  1  0  0  0  0  0  0
  181.6400  178.5200  136.7990 C   0  0  0  0  0  0  0  0  0  0  0  0
  187.1080  178.4870  146.5500 C   0  0  0  0  0  1  0  0  0  0  0  0
  186.5860  177.5410  145.4820 C   0  0  0  0  0  2  0  0  0  0  0  0
  187.5860  177.4400  142.6520 C   0  0  0  0  0  2  0  0  0  0  0  0
  189.4600  177.9600  144.0510 O   0  0  0  0  0  1  0  0  0  0  0  0
  188.9330  178.1430  142.7710 C   0  0  1  0  0  3  0  0  0  0  0  0
  189.3410  177.1260  140.4140 C   0  0  0  0  0  2  0  0  0  0  0  0
  191.6850  177.2280  139.5620 C   0  0  1  0  0  3  0  0  0  0  0  0
  191.2000  177.7510  141.9640 C   0  0  0  0  0  3  0  0  0  0  0  0
  189.8810  177.6030  141.7490 C   0  0  0  0  0  0  0  0  0  0  0  0
  190.3910  176.4210  139.5570 C   0  0  0  0  0  2  0  0  0  0  0  0
  192.2410  177.2810  140.9840 C   0  0  0  0  0  2  0  0  0  0  0  0
  192.6850  176.6500  138.6060 C   0  0  0  0  0  3  0  0  0  0  0  0
  192.3440  175.7710  137.6590 C   0  0  0  0  0  3  0  0  0  0  0  0
  193.3660  175.2350  136.7090 C   0  0  0  0  0  2  0  0  0  0  0  0
  193.5920  173.7810  136.9470 C   0  0  0  0  0  0  0  0  0  0  0  0
  192.8820  172.6920  135.9490 S   0  0  0  0  0  0  0  0  0  0  0  0
  194.5390  173.3780  137.9440 N   0  0  0  0  0  2  0  0  0  0  0  0
  195.5770  174.2470  138.4840 C   0  0  0  0  0  2  0  0  0  0  0  0
  196.9550  173.6680  138.2050 C   0  0  0  0  0  2  0  0  0  0  0  0
  197.2380  173.4350  135.7560 C   0  0  0  0  0  1  0  0  0  0  0  0
  197.5540  174.2970  136.9610 C   0  0  0  0  0  2  0  0  0  0  0  0
  1 39  1  6  0  0  0
  1  8  1  0  0  0  0
  2  7  1  0  0  0  0
  2 38  1  0  0  0  0
  3  7  1  0  0  0  0
  5  6  1  6  0  0  0
  5  1  1  0  0  0  0
  7 11  2  0  0  0  0
  8  2  1  1  0  0  0
  9  4  1  6  0  0  0
  9  8  1  0  0  0  0
  9  3  1  0  0  0  0
 10 12  1  6  0  0  0
 10  5  1  0  0  0  0
 10  4  1  0  0  0  0
 12 13  1  6  0  0  0
 14 12  1  0  0  0  0
 15 25  1  6  0  0  0
 15 16  1  0  0  0  0
 15 12  1  0  0  0  0
 16 17  1  6  0  0  0
 18 22  1  0  0  0  0
 19 16  1  1  0  0  0
 19 18  1  0  0  0  0
 20 24  1  0  0  0  0
 20 21  1  0  0  0  0
 21 22  1  0  0  0  0
 22 23  1  6  0  0  0
 24 19  1  0  0  0  0
 25 36  1  6  0  0  0
 25 29  1  0  0  0  0
 28 30  1  1  0  0  0
 28 29  1  0  0  0  0
 28 27  1  0  0  0  0
 29 26  1  1  0  0  0
 29 27  1  0  0  0  0
 33 32  1  1  0  0  0
 33 31  1  0  0  0  0
 33 28  1  0  0  0  0
 34 36  2  0  0  0  0
 35 36  1  0  0  0  0
 38 37  1  0  0  0  0
 39 41  1  0  0  0  0
 41 40  1  1  0  0  0
 42 45  1  0  0  0  0
 43 48  1  6  0  0  0
 43 47  1  0  0  0  0
 45 44  2  0  0  0  0
 45 41  1  0  0  0  0
 46 43  1  0  0  0  0
 46 42  1  0  0  0  0
 47 44  1  0  0  0  0
 49 48  2  0  0  0  0
 50 51  1  0  0  0  0
 50 49  1  0  0  0  0
 51 53  1  0  0  0  0
 52 51  2  0  0  0  0
 53 54  1  0  0  0  0
 55 54  1  0  0  0  0
 56 57  1  0  0  0  0
 57 55  1  0  0  0  0
M  END
>  <MODEL>
2

>  <REMARK>
 VINA RESULT:      -6.1      3.273      7.253
  Name = 
  19 active torsions:
  status: ('A' for Active; 'I' for Inactive)
    1  A    between atoms: C_3  and  C_6
    2  A    between atoms: C_4  and  C_23
    3  A    between atoms: C_6  and  C_30
    4  A    between atoms: C_7  and  C_24
    5  A    between atoms: C_9  and  C_18
    6  A    between atoms: C_9  and  C_53
    7  A    between atoms: N_10  and  C_28
    8  A    between atoms: C_17  and  C_52
    9  A    between atoms: C_18  and  C_24
   10  A    between atoms: C_18  and  C_32
   11  A    between atoms: C_20  and  C_30
   12  A    between atoms: C_22  and  C_31
   13  A    between atoms: C_22  and  C_43
   14  A    between atoms: C_31  and  N_40
   15  A    between atoms: C_32  and  C_33
   16  A    between atoms: C_32  and  C_46
   17  A    between atoms: C_34  and  C_35
   18  A    between atoms: C_34  and  N_40
   19  A    between atoms: C_35  and  C_50
                            x       y       z     vdW  Elec       q    Type
                         _______ _______ _______ _____ _____    ______ ____

>  <TORSDO>
F 19

$$$$
=
 OpenBabel11062416423D

 57 61  0  0  1  0  0  0  0  0999 V2000
  183.0370  179.1910  140.8240 C   0  0  1  0  0  3  0  0  0  0  0  0
  180.6960  179.9850  140.3010 N   0  0  0  0  0  0  0  0  0  0  0  0
  180.7810  180.2180  137.5940 S   0  0  0  0  0  0  0  0  0  0  0  0
  183.2830  178.9620  137.8640 C   0  0  0  0  0  2  0  0  0  0  0  0
  184.2410  178.4690  140.1710 C   0  0  2  0  0  3  0  0  0  0  0  0
  185.3650  178.6060  140.9870 O   0  0  0  0  0  1  0  0  0  0  0  0
  180.0450  180.5770  139.1810 C   0  0  0  0  0  0  0  0  0  0  0  0
  181.8410  179.1980  139.8590 C   0  0  1  0  0  3  0  0  0  0  0  0
  182.2730  179.8440  138.5550 C   0  0  2  0  0  3  0  0  0  0  0  0
  184.5520  178.9690  138.7300 C   0  0  1  0  0  3  0  0  0  0  0  0
  179.0670  181.3600  139.3070 O   0  0  0  0  0  0  0  0  0  0  0  0
  185.7410  178.2320  138.0590 C   0  0  2  0  0  0  0  0  0  0  0  0
  186.7620  177.7730  139.0990 C   0  0  0  0  0  1  0  0  0  0  0  0
  186.3830  179.1040  137.1710 O   0  0  0  0  0  1  0  0  0  0  0  0
  185.2140  176.9930  137.3010 C   0  0  2  0  0  3  0  0  0  0  0  0
  183.8050  176.5520  137.7430 C   0  0  2  0  0  3  0  0  0  0  0  0
  183.7950  175.8530  138.9520 O   0  0  0  0  0  1  0  0  0  0  0  0
  182.3010  176.8660  135.7690 C   0  0  0  0  0  2  0  0  0  0  0  0
  183.0620  175.8370  136.6160 C   0  0  2  0  0  3  0  0  0  0  0  0
  181.5300  173.9450  135.9080 C   0  0  0  0  0  2  0  0  0  0  0  0
  181.5030  174.7410  134.5940 C   0  0  0  0  0  2  0  0  0  0  0  0
  181.2680  176.2370  134.8200 C   0  0  1  0  0  3  0  0  0  0  0  0
  179.9820  176.4570  135.3160 O   0  0  0  0  0  1  0  0  0  0  0  0
  182.1260  174.7240  137.0910 C   0  0  0  0  0  2  0  0  0  0  0  0
  186.2620  175.9080  136.9540 C   0  0  2  0  0  3  0  0  0  0  0  0
  186.8620  176.9720  134.6080 C   0  0  0  0  0  1  0  0  0  0  0  0
  188.6000  176.8820  136.4730 C   0  0  0  0  0  2  0  0  0  0  0  0
  188.6050  175.5030  135.8400 C   0  0  1  0  0  0  0  0  0  0  0  0
  187.3070  176.3030  135.9010 C   0  0  1  0  0  0  0  0  0  0  0  0
  189.2340  175.4760  134.5950 O   0  0  0  0  0  1  0  0  0  0  0  0
  189.5520  174.7130  137.8880 F   0  0  0  0  0  0  0  0  0  0  0  0
  189.5590  173.2780  136.1260 O   0  0  0  0  0  1  0  0  0  0  0  0
  188.8590  174.3050  136.7650 C   0  0  2  0  0  3  0  0  0  0  0  0
  185.3280  174.1280  135.6690 O   0  0  0  0  0  0  0  0  0  0  0  0
  185.6820  173.6380  137.8780 O   0  0  0  0  0  1  0  0  0  0  0  0
  185.7370  174.5100  136.7960 C   0  0  0  0  0  0  0  0  0  0  0  0
  179.0350  178.6750  141.5240 C   0  0  0  0  0  1  0  0  0  0  0  0
  180.0280  179.8230  141.5880 C   0  0  0  0  0  2  0  0  0  0  0  0
  182.6530  178.4580  142.1030 C   0  0  0  0  0  2  0  0  0  0  0  0
  181.6580  179.3900  144.0750 O   0  0  0  0  0  1  0  0  0  0  0  0
  182.8420  179.3340  143.3360 C   0  0  1  0  0  3  0  0  0  0  0  0
  185.2720  178.4320  143.5390 C   0  0  0  0  0  2  0  0  0  0  0  0
  186.2500  178.4120  145.8360 C   0  0  1  0  0  3  0  0  0  0  0  0
  183.7990  178.8250  145.5200 C   0  0  0  0  0  3  0  0  0  0  0  0
  183.9460  178.7870  144.1840 C   0  0  0  0  0  0  0  0  0  0  0  0
  186.2260  177.7050  144.4850 C   0  0  0  0  0  2  0  0  0  0  0  0
  184.8610  178.3380  146.4680 C   0  0  0  0  0  2  0  0  0  0  0  0
  187.2920  177.8200  146.7360 C   0  0  0  0  0  3  0  0  0  0  0  0
  188.6010  177.9730  146.5130 C   0  0  0  0  0  3  0  0  0  0  0  0
  189.6100  177.3870  147.4470 C   0  0  0  0  0  2  0  0  0  0  0  0
  190.7100  176.7290  146.6850 C   0  0  0  0  0  0  0  0  0  0  0  0
  191.9190  175.9910  147.5100 S   0  0  0  0  0  0  0  0  0  0  0  0
  190.6050  176.6280  145.2590 N   0  0  0  0  0  2  0  0  0  0  0  0
  191.5270  177.2610  144.3240 C   0  0  0  0  0  2  0  0  0  0  0  0
  191.3770  176.6570  142.9370 C   0  0  0  0  0  2  0  0  0  0  0  0
  189.3570  177.9610  142.3430 C   0  0  0  0  0  1  0  0  0  0  0  0
  190.7990  177.6760  141.9740 C   0  0  0  0  0  2  0  0  0  0  0  0
  1 39  1  1  0  0  0
  2 38  1  0  0  0  0
  3  9  1  0  0  0  0
  3  7  1  0  0  0  0
  4 10  1  0  0  0  0
  5  1  1  0  0  0  0
  5  6  1  1  0  0  0
  7 11  2  0  0  0  0
  7  2  1  0  0  0  0
  8  2  1  1  0  0  0
  8  1  1  0  0  0  0
  9  4  1  6  0  0  0
  9  8  1  0  0  0  0
 10 12  1  6  0  0  0
 10  5  1  0  0  0  0
 12 13  1  1  0  0  0
 14 12  1  0  0  0  0
 15 25  1  1  0  0  0
 15 16  1  0  0  0  0
 15 12  1  0  0  0  0
 16 17  1  1  0  0  0
 18 19  1  0  0  0  0
 19 24  1  0  0  0  0
 19 16  1  1  0  0  0
 20 24  1  0  0  0  0
 21 22  1  0  0  0  0
 21 20  1  0  0  0  0
 22 23  1  1  0  0  0
 22 18  1  0  0  0  0
 25 36  1  6  0  0  0
 28 30  1  6  0  0  0
 28 29  1  0  0  0  0
 28 27  1  0  0  0  0
 28 33  1  0  0  0  0
 29 26  1  6  0  0  0
 29 27  1  0  0  0  0
 29 25  1  0  0  0  0
 33 32  1  6  0  0  0
 33 31  1  0  0  0  0
 34 36  2  0  0  0  0
 36 35  1  0  0  0  0
 37 38  1  0  0  0  0
 39 41  1  0  0  0  0
 41 40  1  1  0  0  0
 41 45  1  0  0  0  0
 42 45  1  0  0  0  0
 42 46  1  0  0  0  0
 43 47  1  0  0  0  0
 43 48  1  1  0  0  0
 44 47  1  0  0  0  0
 45 44  2  0  0  0  0
 46 43  1  0  0  0  0
 49 48  2  0  0  0  0
 49 50  1  0  0  0  0
 51 50  1  0  0  0  0
 51 52  2  0  0  0  0
 53 51  1  0  0  0  0
 54 53  1  0  0  0  0
 55 54  1  0  0  0  0
 57 56  1  0  0  0  0
 57 55  1  0  0  0  0
M  END
>  <MODEL>
3

>  <REMARK>
 VINA RESULT:      -5.0      2.918      7.079
  Name = 
  19 active torsions:
  status: ('A' for Active; 'I' for Inactive)
    1  A    between atoms: C_3  and  C_6
    2  A    between atoms: C_4  and  C_23
    3  A    between atoms: C_6  and  C_30
    4  A    between atoms: C_7  and  C_24
    5  A    between atoms: C_9  and  C_18
    6  A    between atoms: C_9  and  C_53
    7  A    between atoms: N_10  and  C_28
    8  A    between atoms: C_17  and  C_52
    9  A    between atoms: C_18  and  C_24
   10  A    between atoms: C_18  and  C_32
   11  A    between atoms: C_20  and  C_30
   12  A    between atoms: C_22  and  C_31
   13  A    between atoms: C_22  and  C_43
   14  A    between atoms: C_31  and  N_40
   15  A    between atoms: C_32  and  C_33
   16  A    between atoms: C_32  and  C_46
   17  A    between atoms: C_34  and  C_35
   18  A    between atoms: C_34  and  N_40
   19  A    between atoms: C_35  and  C_50
                            x       y       z     vdW  Elec       q    Type
                         _______ _______ _______ _____ _____    ______ ____

>  <TORSDO>
F 19

$$$$
=
 OpenBabel11062416423D

 57 61  0  0  1  0  0  0  0  0999 V2000
  186.6860  176.0440  136.2970 C   0  0  1  0  0  3  0  0  0  0  0  0
  187.4480  173.7290  135.6320 N   0  0  0  0  0  0  0  0  0  0  0  0
  185.0910  172.5240  135.0140 S   0  0  0  0  0  0  0  0  0  0  0  0
  184.0360  175.1160  135.3020 C   0  0  0  0  0  2  0  0  0  0  0  0
  185.5120  177.0320  136.0940 C   0  0  2  0  0  3  0  0  0  0  0  0
  185.6210  178.0780  137.0120 O   0  0  0  0  0  1  0  0  0  0  0  0
  186.8230  172.4630  135.4440 C   0  0  0  0  0  0  0  0  0  0  0  0
  186.4860  174.8020  135.4140 C   0  0  1  0  0  3  0  0  0  0  0  0
  185.1390  174.1850  135.7420 C   0  0  2  0  0  3  0  0  0  0  0  0
  184.1140  176.3590  136.2010 C   0  0  1  0  0  3  0  0  0  0  0  0
  187.4290  171.3760  135.6410 O   0  0  0  0  0  0  0  0  0  0  0  0
  182.9320  177.3390  135.9740 C   0  0  2  0  0  0  0  0  0  0  0  0
  182.1080  176.9340  134.7530 C   0  0  0  0  0  1  0  0  0  0  0  0
  183.4360  178.6270  135.7540 O   0  0  0  0  0  1  0  0  0  0  0  0
  182.0140  177.3310  137.2170 C   0  0  2  0  0  3  0  0  0  0  0  0
  180.5520  176.9600  136.9030 C   0  0  2  0  0  3  0  0  0  0  0  0
  179.6210  177.8020  137.5170 O   0  0  0  0  0  1  0  0  0  0  0  0
  179.1030  175.3140  138.1060 C   0  0  0  0  0  2  0  0  0  0  0  0
  180.2870  175.4750  137.1430 C   0  0  2  0  0  3  0  0  0  0  0  0
  181.2160  173.1870  137.7160 C   0  0  0  0  0  2  0  0  0  0  0  0
  179.7240  172.8480  137.8520 C   0  0  0  0  0  2  0  0  0  0  0  0
  178.9580  173.8920  138.6700 C   0  0  1  0  0  3  0  0  0  0  0  0
  179.3800  173.8710  140.0000 O   0  0  0  0  0  1  0  0  0  0  0  0
  181.5040  174.6940  137.6430 C   0  0  0  0  0  2  0  0  0  0  0  0
  182.2970  178.4200  138.2800 C   0  0  2  0  0  3  0  0  0  0  0  0
  180.6360  177.9110  140.2750 C   0  0  0  0  0  1  0  0  0  0  0  0
  182.9740  176.8910  140.2430 C   0  0  0  0  0  2  0  0  0  0  0  0
  183.1510  178.3070  140.7610 C   0  0  1  0  0  0  0  0  0  0  0  0
  182.0580  178.0050  139.7390 C   0  0  1  0  0  0  0  0  0  0  0  0
  182.7130  178.4640  142.0760 O   0  0  0  0  0  1  0  0  0  0  0  0
  185.2490  178.2140  139.6210 F   0  0  0  0  0  0  0  0  0  0  0  0
  185.1420  179.5100  141.4850 O   0  0  0  0  0  1  0  0  0  0  0  0
  184.4390  179.0440  140.3720 C   0  0  2  0  0  3  0  0  0  0  0  0
  180.8580  179.9480  137.1460 O   0  0  0  0  0  0  0  0  0  0  0  0
  182.4120  180.9250  138.5160 O   0  0  0  0  0  1  0  0  0  0  0  0
  181.8130  179.8030  137.9530 C   0  0  0  0  0  0  0  0  0  0  0  0
  189.5780  172.5350  135.5150 C   0  0  0  0  0  1  0  0  0  0  0  0
  188.8970  173.8920  135.5760 C   0  0  0  0  0  2  0  0  0  0  0  0
  187.9890  176.7350  135.9130 C   0  0  0  0  0  2  0  0  0  0  0  0
  190.3350  176.2590  135.7900 O   0  0  0  0  0  1  0  0  0  0  0  0
  189.1940  176.0760  136.5750 C   0  0  1  0  0  3  0  0  0  0  0  0
  188.2190  177.1580  138.7280 C   0  0  0  0  0  2  0  0  0  0  0  0
  189.6970  177.1310  140.7400 C   0  0  1  0  0  3  0  0  0  0  0  0
  190.6290  176.5410  138.4900 C   0  0  0  0  0  3  0  0  0  0  0  0
  189.4120  176.6630  137.9330 C   0  0  0  0  0  0  0  0  0  0  0  0
  188.6130  177.9070  140.0000 C   0  0  0  0  0  2  0  0  0  0  0  0
  190.9490  177.0580  139.8670 C   0  0  0  0  0  2  0  0  0  0  0  0
  189.9950  177.7540  142.0700 C   0  0  0  0  0  3  0  0  0  0  0  0
  191.2420  177.9040  142.5270 C   0  0  0  0  0  3  0  0  0  0  0  0
  191.5000  178.5520  143.8490 C   0  0  0  0  0  2  0  0  0  0  0  0
  190.8820  177.7590  144.9510 C   0  0  0  0  0  0  0  0  0  0  0  0
  191.6740  176.4460  145.5280 S   0  0  0  0  0  0  0  0  0  0  0  0
  189.6880  178.2500  145.5760 N   0  0  0  0  0  2  0  0  0  0  0  0
  188.7350  177.4110  146.2900 C   0  0  0  0  0  2  0  0  0  0  0  0
  188.8800  177.6020  147.7920 C   0  0  0  0  0  2  0  0  0  0  0  0
  186.5750  178.3530  147.2850 C   0  0  0  0  0  1  0  0  0  0  0  0
  187.5760  178.0950  148.3920 C   0  0  0  0  0  2  0  0  0  0  0  0
  1 39  1  6  0  0  0
  3  7  1  0  0  0  0
  3  9  1  0  0  0  0
  4 10  1  0  0  0  0
  5 10  1  0  0  0  0
  5  1  1  0  0  0  0
  5  6  1  1  0  0  0
  7  2  1  0  0  0  0
  7 11  2  0  0  0  0
  8  2  1  1  0  0  0
  8  9  1  0  0  0  0
  8  1  1  0  0  0  0
  9  4  1  6  0  0  0
 10 12  1  6  0  0  0
 12 13  1  6  0  0  0
 12 15  1  0  0  0  0
 14 12  1  0  0  0  0
 15 16  1  6  0  0  0
 15 25  1  0  0  0  0
 16 17  1  1  0  0  0
 18 22  1  0  0  0  0
 19 16  1  1  0  0  0
 19 24  1  0  0  0  0
 19 18  1  0  0  0  0
 20 21  1  0  0  0  0
 21 22  1  0  0  0  0
 22 23  1  1  0  0  0
 24 20  1  0  0  0  0
 25 36  1  6  0  0  0
 25 29  1  0  0  0  0
 27 28  1  0  0  0  0
 28 30  1  1  0  0  0
 29 27  1  0  0  0  0
 29 26  1  1  0  0  0
 29 28  1  0  0  0  0
 33 31  1  1  0  0  0
 33 28  1  0  0  0  0
 33 32  1  0  0  0  0
 34 36  2  0  0  0  0
 36 35  1  0  0  0  0
 37 38  1  0  0  0  0
 38  2  1  0  0  0  0
 39 41  1  0  0  0  0
 41 40  1  6  0  0  0
 41 45  1  0  0  0  0
 42 46  1  0  0  0  0
 43 48  1  1  0  0  0
 44 47  1  0  0  0  0
 45 44  2  0  0  0  0
 45 42  1  0  0  0  0
 46 43  1  0  0  0  0
 47 43  1  0  0  0  0
 48 49  2  0  0  0  0
 49 50  1  0  0  0  0
 50 51  1  0  0  0  0
 51 52  2  0  0  0  0
 51 53  1  0  0  0  0
 53 54  1  0  0  0  0
 54 55  1  0  0  0  0
 55 57  1  0  0  0  0
 56 57  1  0  0  0  0
M  END
>  <MODEL>
4

>  <REMARK>
 VINA RESULT:      -4.0      2.068      2.990
  Name = 
  19 active torsions:
  status: ('A' for Active; 'I' for Inactive)
    1  A    between atoms: C_3  and  C_6
    2  A    between atoms: C_4  and  C_23
    3  A    between atoms: C_6  and  C_30
    4  A    between atoms: C_7  and  C_24
    5  A    between atoms: C_9  and  C_18
    6  A    between atoms: C_9  and  C_53
    7  A    between atoms: N_10  and  C_28
    8  A    between atoms: C_17  and  C_52
    9  A    between atoms: C_18  and  C_24
   10  A    between atoms: C_18  and  C_32
   11  A    between atoms: C_20  and  C_30
   12  A    between atoms: C_22  and  C_31
   13  A    between atoms: C_22  and  C_43
   14  A    between atoms: C_31  and  N_40
   15  A    between atoms: C_32  and  C_33
   16  A    between atoms: C_32  and  C_46
   17  A    between atoms: C_34  and  C_35
   18  A    between atoms: C_34  and  N_40
   19  A    between atoms: C_35  and  C_50
                            x       y       z     vdW  Elec       q    Type
                         _______ _______ _______ _____ _____    ______ ____

>  <TORSDO>
F 19

$$$$
=
 OpenBabel11062416423D

 57 61  0  0  1  0  0  0  0  0999 V2000
  189.8600  176.0230  138.3370 C   0  0  1  0  0  3  0  0  0  0  0  0
  191.9280  175.8520  136.8960 N   0  0  0  0  0  0  0  0  0  0  0  0
  191.1000  177.0360  134.5940 S   0  0  0  0  0  0  0  0  0  0  0  0
  188.8310  177.7150  136.1120 C   0  0  0  0  0  2  0  0  0  0  0  0
  188.5620  176.8520  138.4920 C   0  0  2  0  0  3  0  0  0  0  0  0
  187.6970  176.2030  139.3740 O   0  0  0  0  0  1  0  0  0  0  0  0
  192.2190  175.9890  135.5080 C   0  0  0  0  0  0  0  0  0  0  0  0
  190.7470  176.6340  137.2410 C   0  0  1  0  0  3  0  0  0  0  0  0
  189.9450  176.7100  135.9540 C   0  0  2  0  0  3  0  0  0  0  0  0
  187.8470  177.1360  137.1390 C   0  0  1  0  0  3  0  0  0  0  0  0
  193.1550  175.3550  134.9510 O   0  0  0  0  0  0  0  0  0  0  0  0
  186.5580  177.9880  137.2830 C   0  0  2  0  0  0  0  0  0  0  0  0
  186.4970  179.0780  136.2140 C   0  0  0  0  0  1  0  0  0  0  0  0
  186.5520  178.6070  138.5390 O   0  0  0  0  0  1  0  0  0  0  0  0
  185.3210  177.0750  137.1320 C   0  0  2  0  0  3  0  0  0  0  0  0
  185.4420  176.0550  135.9830 C   0  0  2  0  0  3  0  0  0  0  0  0
  185.0190  176.5570  134.7500 O   0  0  0  0  0  1  0  0  0  0  0  0
  185.8910  173.7490  136.8390 C   0  0  0  0  0  2  0  0  0  0  0  0
  184.8050  174.7170  136.3520 C   0  0  2  0  0  3  0  0  0  0  0  0
  183.2410  172.8280  135.7100 C   0  0  0  0  0  2  0  0  0  0  0  0
  183.8940  172.1570  136.9280 C   0  0  0  0  0  2  0  0  0  0  0  0
  185.4190  172.2880  136.9220 C   0  0  1  0  0  3  0  0  0  0  0  0
  185.9650  171.5590  135.8650 O   0  0  0  0  0  1  0  0  0  0  0  0
  183.9780  174.0870  135.2300 C   0  0  0  0  0  2  0  0  0  0  0  0
  183.9470  177.7370  137.4040 C   0  0  2  0  0  3  0  0  0  0  0  0
  183.0980  176.0850  139.2870 C   0  0  0  0  0  1  0  0  0  0  0  0
  183.9170  178.4250  139.8880 C   0  0  0  0  0  2  0  0  0  0  0  0
  182.4880  178.6010  139.4080 C   0  0  1  0  0  0  0  0  0  0  0  0
  183.3610  177.5050  138.8030 C   0  0  1  0  0  0  0  0  0  0  0  0
  181.5430  178.1680  140.3380 O   0  0  0  0  0  1  0  0  0  0  0  0
  183.2890  180.6650  138.5080 F   0  0  0  0  0  0  0  0  0  0  0  0
  181.1410  180.6250  139.2490 O   0  0  0  0  0  1  0  0  0  0  0  0
  182.1560  179.8850  138.6380 C   0  0  2  0  0  3  0  0  0  0  0  0
  183.0050  178.4410  135.3280 O   0  0  0  0  0  0  0  0  0  0  0  0
  181.9250  176.6870  136.3300 O   0  0  0  0  0  1  0  0  0  0  0  0
  182.9380  177.6390  136.2960 C   0  0  0  0  0  0  0  0  0  0  0  0
  193.2760  173.9400  137.6030 C   0  0  0  0  0  1  0  0  0  0  0  0
  192.9290  175.3970  137.8560 C   0  0  0  0  0  2  0  0  0  0  0  0
  190.6140  176.0300  139.6620 C   0  0  0  0  0  2  0  0  0  0  0  0
  189.9460  178.3290  139.5640 O   0  0  0  0  0  1  0  0  0  0  0  0
  190.8350  177.4460  140.1800 C   0  0  1  0  0  3  0  0  0  0  0  0
  189.4240  176.8120  142.2700 C   0  0  0  0  0  2  0  0  0  0  0  0
  190.6000  176.9310  144.4690 C   0  0  1  0  0  3  0  0  0  0  0  0
  191.6590  177.9210  142.4250 C   0  0  0  0  0  3  0  0  0  0  0  0
  190.6430  177.4810  141.6620 C   0  0  0  0  0  0  0  0  0  0  0  0
  189.2600  177.1000  143.7610 C   0  0  0  0  0  2  0  0  0  0  0  0
  191.5890  177.9630  143.9270 C   0  0  0  0  0  2  0  0  0  0  0  0
  190.4440  177.0510  145.9540 C   0  0  0  0  0  3  0  0  0  0  0  0
  189.4880  177.7980  146.5160 C   0  0  0  0  0  3  0  0  0  0  0  0
  189.3500  177.8740  148.0030 C   0  0  0  0  0  2  0  0  0  0  0  0
  187.9130  177.8300  148.3980 C   0  0  0  0  0  0  0  0  0  0  0  0
  187.5160  178.0330  149.9750 S   0  0  0  0  0  0  0  0  0  0  0  0
  186.9120  177.7610  147.3750 N   0  0  0  0  0  2  0  0  0  0  0  0
  186.0680  178.8820  146.9820 C   0  0  0  0  0  2  0  0  0  0  0  0
  184.7650  178.3810  146.3780 C   0  0  0  0  0  2  0  0  0  0  0  0
  185.3000  178.4040  143.9600 C   0  0  0  0  0  1  0  0  0  0  0  0
  184.4930  179.0720  145.0550 C   0  0  0  0  0  2  0  0  0  0  0  0
  1  5  1  0  0  0  0
  1 39  1  1  0  0  0
  2 38  1  0  0  0  0
  3  7  1  0  0  0  0
  3  9  1  0  0  0  0
  4 10  1  0  0  0  0
  5  6  1  1  0  0  0
  7  2  1  0  0  0  0
  8  2  1  6  0  0  0
  8  1  1  0  0  0  0
  9  4  1  1  0  0  0
  9  8  1  0  0  0  0
 10 12  1  1  0  0  0
 10  5  1  0  0  0  0
 11  7  2  0  0  0  0
 12 13  1  6  0  0  0
 12 14  1  0  0  0  0
 15 16  1  6  0  0  0
 15 12  1  0  0  0  0
 15 25  1  0  0  0  0
 16 17  1  6  0  0  0
 18 22  1  0  0  0  0
 19 16  1  6  0  0  0
 19 18  1  0  0  0  0
 20 21  1  0  0  0  0
 22 23  1  6  0  0  0
 22 21  1  0  0  0  0
 24 20  1  0  0  0  0
 24 19  1  0  0  0  0
 25 36  1  6  0  0  0
 25 29  1  0  0  0  0
 28 27  1  0  0  0  0
 28 30  1  1  0  0  0
 29 26  1  1  0  0  0
 29 28  1  0  0  0  0
 29 27  1  0  0  0  0
 33 31  1  1  0  0  0
 33 32  1  0  0  0  0
 33 28  1  0  0  0  0
 34 36  2  0  0  0  0
 36 35  1  0  0  0  0
 37 38  1  0  0  0  0
 39 41  1  0  0  0  0
 41 40  1  6  0  0  0
 41 45  1  0  0  0  0
 42 46  1  0  0  0  0
 43 48  1  1  0  0  0
 44 47  1  0  0  0  0
 45 42  1  0  0  0  0
 45 44  2  0  0  0  0
 46 43  1  0  0  0  0
 47 43  1  0  0  0  0
 48 49  2  0  0  0  0
 49 50  1  0  0  0  0
 50 51  1  0  0  0  0
 51 52  2  0  0  0  0
 53 51  1  0  0  0  0
 54 53  1  0  0  0  0
 55 54  1  0  0  0  0
 56 57  1  0  0  0  0
 57 55  1  0  0  0  0
M  END
>  <MODEL>
5

>  <REMARK>
 VINA RESULT:      -4.0      2.221      3.277
  Name = 
  19 active torsions:
  status: ('A' for Active; 'I' for Inactive)
    1  A    between atoms: C_3  and  C_6
    2  A    between atoms: C_4  and  C_23
    3  A    between atoms: C_6  and  C_30
    4  A    between atoms: C_7  and  C_24
    5  A    between atoms: C_9  and  C_18
    6  A    between atoms: C_9  and  C_53
    7  A    between atoms: N_10  and  C_28
    8  A    between atoms: C_17  and  C_52
    9  A    between atoms: C_18  and  C_24
   10  A    between atoms: C_18  and  C_32
   11  A    between atoms: C_20  and  C_30
   12  A    between atoms: C_22  and  C_31
   13  A    between atoms: C_22  and  C_43
   14  A    between atoms: C_31  and  N_40
   15  A    between atoms: C_32  and  C_33
   16  A    between atoms: C_32  and  C_46
   17  A    between atoms: C_34  and  C_35
   18  A    between atoms: C_34  and  N_40
   19  A    between atoms: C_35  and  C_50
                            x       y       z     vdW  Elec       q    Type
                         _______ _______ _______ _____ _____    ______ ____

>  <TORSDO>
F 19

$$$$
=
 OpenBabel11062416423D

 57 61  0  0  1  0  0  0  0  0999 V2000
  186.0930  175.8490  135.9540 C   0  0  1  0  0  3  0  0  0  0  0  0
  187.1420  173.5670  135.6830 N   0  0  0  0  0  0  0  0  0  0  0  0
  185.0690  171.9240  136.3090 S   0  0  0  0  0  0  0  0  0  0  0  0
  183.5680  174.3030  136.2800 C   0  0  0  0  0  2  0  0  0  0  0  0
  184.7130  176.5520  135.9460 C   0  0  2  0  0  3  0  0  0  0  0  0
  184.8470  177.8450  136.4540 O   0  0  0  0  0  1  0  0  0  0  0  0
  186.8110  172.2380  136.0730 C   0  0  0  0  0  0  0  0  0  0  0  0
  185.9330  174.3720  135.5620 C   0  0  1  0  0  3  0  0  0  0  0  0
  184.9410  173.7220  136.5100 C   0  0  2  0  0  3  0  0  0  0  0  0
  183.6200  175.7710  136.7300 C   0  0  1  0  0  3  0  0  0  0  0  0
  187.6890  171.3670  136.3100 O   0  0  0  0  0  0  0  0  0  0  0  0
  182.2270  176.4560  136.7060 C   0  0  2  0  0  0  0  0  0  0  0  0
  181.1040  175.4200  136.7140 C   0  0  0  0  0  1  0  0  0  0  0  0
  182.1100  177.2200  135.5380 O   0  0  0  0  0  1  0  0  0  0  0  0
  182.0790  177.3580  137.9510 C   0  0  2  0  0  3  0  0  0  0  0  0
  182.3080  176.6170  139.2820 C   0  0  2  0  0  3  0  0  0  0  0  0
  181.1590  176.5240  140.0710 O   0  0  0  0  0  1  0  0  0  0  0  0
  183.1400  177.4510  141.4880 C   0  0  0  0  0  2  0  0  0  0  0  0
  183.5210  177.1680  140.0290 C   0  0  2  0  0  3  0  0  0  0  0  0
  185.4490  178.8140  140.0880 C   0  0  0  0  0  2  0  0  0  0  0  0
  185.5390  178.3310  141.5440 C   0  0  0  0  0  2  0  0  0  0  0  0
  184.1750  178.3050  142.2390 C   0  0  1  0  0  3  0  0  0  0  0  0
  183.6860  179.6030  142.3960 O   0  0  0  0  0  1  0  0  0  0  0  0
  184.1480  178.4030  139.3810 C   0  0  0  0  0  2  0  0  0  0  0  0
  180.9770  178.4440  137.8800 C   0  0  2  0  0  3  0  0  0  0  0  0
  180.8830  179.7800  140.1610 C   0  0  0  0  0  1  0  0  0  0  0  0
  182.5720  180.4120  138.3570 C   0  0  0  0  0  2  0  0  0  0  0  0
  181.2630  181.0530  137.9360 C   0  0  1  0  0  0  0  0  0  0  0  0
  181.2490  179.7230  138.6840 C   0  0  1  0  0  0  0  0  0  0  0  0
  180.9330  182.1730  138.7010 O   0  0  0  0  0  1  0  0  0  0  0  0
  181.0980  182.4420  135.9980 F   0  0  0  0  0  0  0  0  0  0  0  0
  179.7010  180.6540  136.1090 O   0  0  0  0  0  1  0  0  0  0  0  0
  180.9710  181.1370  136.4320 C   0  0  2  0  0  3  0  0  0  0  0  0
  178.9320  177.6750  136.9200 O   0  0  0  0  0  0  0  0  0  0  0  0
  178.9310  177.8150  139.2070 O   0  0  0  0  0  1  0  0  0  0  0  0
  179.5610  177.9530  137.9750 C   0  0  0  0  0  0  0  0  0  0  0  0
  189.4870  172.9040  135.4920 C   0  0  0  0  0  1  0  0  0  0  0  0
  188.4200  173.8940  135.0590 C   0  0  0  0  0  2  0  0  0  0  0  0
  187.0090  176.5430  134.9530 C   0  0  0  0  0  2  0  0  0  0  0  0
  189.2440  177.3320  134.5990 O   0  0  0  0  0  1  0  0  0  0  0  0
  188.4710  176.4720  135.3810 C   0  0  1  0  0  3  0  0  0  0  0  0
  189.5080  176.0310  137.7230 C   0  0  0  0  0  2  0  0  0  0  0  0
  189.3870  177.9170  139.3540 C   0  0  1  0  0  3  0  0  0  0  0  0
  188.0620  178.0080  137.2290 C   0  0  0  0  0  3  0  0  0  0  0  0
  188.5970  176.8430  136.8240 C   0  0  0  0  0  0  0  0  0  0  0  0
  189.3820  176.4000  139.2000 C   0  0  0  0  0  2  0  0  0  0  0  0
  188.1630  178.5000  138.6480 C   0  0  0  0  0  2  0  0  0  0  0  0
  189.4240  178.3130  140.7990 C   0  0  0  0  0  3  0  0  0  0  0  0
  190.3160  177.8080  141.6570 C   0  0  0  0  0  3  0  0  0  0  0  0
  190.3360  178.2460  143.0860 C   0  0  0  0  0  2  0  0  0  0  0  0
  190.4260  177.0660  143.9940 C   0  0  0  0  0  0  0  0  0  0  0  0
  191.6760  176.0220  143.8210 S   0  0  0  0  0  0  0  0  0  0  0  0
  189.5050  176.9590  145.0880 N   0  0  0  0  0  2  0  0  0  0  0  0
  188.1440  177.4810  145.0640 C   0  0  0  0  0  2  0  0  0  0  0  0
  187.5460  177.4700  146.4620 C   0  0  0  0  0  2  0  0  0  0  0  0
  188.1950  178.2040  148.7360 C   0  0  0  0  0  1  0  0  0  0  0  0
  188.6430  177.4360  147.5090 C   0  0  0  0  0  2  0  0  0  0  0  0
  1 39  1  6  0  0  0
  2  7  1  0  0  0  0
  3  9  1  0  0  0  0
  4 10  1  0  0  0  0
  5  1  1  0  0  0  0
  5  6  1  1  0  0  0
  5 10  1  0  0  0  0
  7  3  1  0  0  0  0
  7 11  2  0  0  0  0
  8  2  1  1  0  0  0
  8  1  1  0  0  0  0
  8  9  1  0  0  0  0
  9  4  1  6  0  0  0
 10 12  1  6  0  0  0
 12 13  1  1  0  0  0
 12 15  1  0  0  0  0
 14 12  1  0  0  0  0
 15 25  1  1  0  0  0
 15 16  1  0  0  0  0
 16 17  1  1  0  0  0
 18 22  1  0  0  0  0
 19 16  1  6  0  0  0
 19 18  1  0  0  0  0
 20 21  1  0  0  0  0
 21 22  1  0  0  0  0
 22 23  1  6  0  0  0
 24 19  1  0  0  0  0
 24 20  1  0  0  0  0
 25 36  1  1  0  0  0
 25 29  1  0  0  0  0
 27 29  1  0  0  0  0
 28 27  1  0  0  0  0
 28 29  1  0  0  0  0
 28 30  1  1  0  0  0
 29 26  1  1  0  0  0
 32 33  1  0  0  0  0
 33 31  1  1  0  0  0
 33 28  1  0  0  0  0
 34 36  2  0  0  0  0
 36 35  1  0  0  0  0
 38 37  1  0  0  0  0
 38  2  1  0  0  0  0
 39 41  1  0  0  0  0
 41 40  1  6  0  0  0
 41 45  1  0  0  0  0
 42 46  1  0  0  0  0
 43 48  1  1  0  0  0
 44 47  1  0  0  0  0
 45 44  2  0  0  0  0
 45 42  1  0  0  0  0
 46 43  1  0  0  0  0
 47 43  1  0  0  0  0
 48 49  2  0  0  0  0
 49 50  1  0  0  0  0
 50 51  1  0  0  0  0
 51 53  1  0  0  0  0
 52 51  2  0  0  0  0
 54 53  1  0  0  0  0
 54 55  1  0  0  0  0
 55 57  1  0  0  0  0
 57 56  1  0  0  0  0
M  END
>  <MODEL>
6

>  <REMARK>
 VINA RESULT:      -3.8      2.222      4.257
  Name = 
  19 active torsions:
  status: ('A' for Active; 'I' for Inactive)
    1  A    between atoms: C_3  and  C_6
    2  A    between atoms: C_4  and  C_23
    3  A    between atoms: C_6  and  C_30
    4  A    between atoms: C_7  and  C_24
    5  A    between atoms: C_9  and  C_18
    6  A    between atoms: C_9  and  C_53
    7  A    between atoms: N_10  and  C_28
    8  A    between atoms: C_17  and  C_52
    9  A    between atoms: C_18  and  C_24
   10  A    between atoms: C_18  and  C_32
   11  A    between atoms: C_20  and  C_30
   12  A    between atoms: C_22  and  C_31
   13  A    between atoms: C_22  and  C_43
   14  A    between atoms: C_31  and  N_40
   15  A    between atoms: C_32  and  C_33
   16  A    between atoms: C_32  and  C_46
   17  A    between atoms: C_34  and  C_35
   18  A    between atoms: C_34  and  N_40
   19  A    between atoms: C_35  and  C_50
                            x       y       z     vdW  Elec       q    Type
                         _______ _______ _______ _____ _____    ______ ____

>  <TORSDO>
F 19

$$$$
=
 OpenBabel11062416423D

 57 61  0  0  1  0  0  0  0  0999 V2000
  185.7570  178.5530  142.2780 C   0  0  1  0  0  3  0  0  0  0  0  0
  186.1330  178.7700  144.7670 N   0  0  0  0  0  0  0  0  0  0  0  0
  183.5860  178.9190  145.7030 S   0  0  0  0  0  0  0  0  0  0  0  0
  182.8930  178.2810  143.0520 C   0  0  0  0  0  2  0  0  0  0  0  0
  184.6860  178.1040  141.2540 C   0  0  2  0  0  3  0  0  0  0  0  0
  185.0590  178.5240  139.9760 O   0  0  0  0  0  1  0  0  0  0  0  0
  185.3450  179.1570  145.8890 C   0  0  0  0  0  0  0  0  0  0  0  0
  185.2780  178.2510  143.7060 C   0  0  1  0  0  3  0  0  0  0  0  0
  183.9390  178.9320  143.9240 C   0  0  2  0  0  3  0  0  0  0  0  0
  183.2550  178.6090  141.5960 C   0  0  1  0  0  3  0  0  0  0  0  0
  185.8470  179.6980  146.9090 O   0  0  0  0  0  0  0  0  0  0  0  0
  182.1720  178.1410  140.5880 C   0  0  2  0  0  0  0  0  0  0  0  0
  180.8000  178.0520  141.2550 C   0  0  0  0  0  1  0  0  0  0  0  0
  182.5080  176.8700  140.1070 O   0  0  0  0  0  1  0  0  0  0  0  0
  182.0910  179.1490  139.4200 C   0  0  2  0  0  3  0  0  0  0  0  0
  181.4290  180.4870  139.8020 C   0  0  2  0  0  3  0  0  0  0  0  0
  180.3290  180.3390  140.6500 O   0  0  0  0  0  1  0  0  0  0  0  0
  182.3240  182.2900  138.3180 C   0  0  0  0  0  2  0  0  0  0  0  0
  181.1430  181.3440  138.5710 C   0  0  2  0  0  3  0  0  0  0  0  0
  179.5230  182.8370  137.3170 C   0  0  0  0  0  2  0  0  0  0  0  0
  180.7710  183.1160  136.4640 C   0  0  0  0  0  2  0  0  0  0  0  0
  182.0090  183.4110  137.3150 C   0  0  1  0  0  3  0  0  0  0  0  0
  181.8510  184.6190  137.9970 O   0  0  0  0  0  1  0  0  0  0  0  0
  179.8280  182.1210  138.6410 C   0  0  0  0  0  2  0  0  0  0  0  0
  181.8110  178.5490  138.0200 C   0  0  2  0  0  3  0  0  0  0  0  0
  180.2760  176.5030  138.6910 C   0  0  0  0  0  1  0  0  0  0  0  0
  179.2470  178.6460  137.7670 C   0  0  0  0  0  2  0  0  0  0  0  0
  179.7380  177.8710  136.5570 C   0  0  1  0  0  0  0  0  0  0  0  0
  180.4950  177.7720  137.8790 C   0  0  1  0  0  0  0  0  0  0  0  0
  178.9310  176.7770  136.2460 O   0  0  0  0  0  1  0  0  0  0  0  0
  181.1600  179.6490  135.8290 F   0  0  0  0  0  0  0  0  0  0  0  0
  179.2660  179.2820  134.6270 O   0  0  0  0  0  1  0  0  0  0  0  0
  180.2830  178.6830  135.3750 C   0  0  2  0  0  3  0  0  0  0  0  0
  184.1420  178.3210  137.5660 O   0  0  0  0  0  1  0  0  0  0  0  0
  182.7940  176.8510  136.4410 O   0  0  0  0  0  0  0  0  0  0  0  0
  182.9790  177.9000  137.3350 C   0  0  0  0  0  0  0  0  0  0  0  0
  187.8610  177.7680  146.1750 C   0  0  0  0  0  1  0  0  0  0  0  0
  187.5640  178.5050  144.8800 C   0  0  0  0  0  2  0  0  0  0  0  0
  187.0520  177.7980  142.0070 C   0  0  0  0  0  2  0  0  0  0  0  0
  189.0300  179.1050  142.3530 O   0  0  0  0  0  1  0  0  0  0  0  0
  188.1120  178.6980  141.3830 C   0  0  1  0  0  3  0  0  0  0  0  0
  188.3730  178.1660  138.8510 C   0  0  0  0  0  2  0  0  0  0  0  0
  190.5480  177.1560  138.1570 C   0  0  1  0  0  3  0  0  0  0  0  0
  189.9590  177.3200  140.5880 C   0  0  0  0  0  3  0  0  0  0  0  0
  188.8190  177.9670  140.2870 C   0  0  0  0  0  0  0  0  0  0  0  0
  189.0510  177.2100  137.8720 C   0  0  0  0  0  2  0  0  0  0  0  0
  190.7730  176.5850  139.5570 C   0  0  0  0  0  2  0  0  0  0  0  0
  191.2670  176.3520  137.1170 C   0  0  0  0  0  3  0  0  0  0  0  0
  191.7910  175.1500  137.3780 C   0  0  0  0  0  3  0  0  0  0  0  0
  192.4810  174.3670  136.3070 C   0  0  0  0  0  2  0  0  0  0  0  0
  193.6690  173.6570  136.8610 C   0  0  0  0  0  0  0  0  0  0  0  0
  194.0980  172.2090  136.2240 S   0  0  0  0  0  0  0  0  0  0  0  0
  194.4910  174.3240  137.8280 N   0  0  0  0  0  2  0  0  0  0  0  0
  195.4610  173.6490  138.6800 C   0  0  0  0  0  2  0  0  0  0  0  0
  196.3240  174.6650  139.4120 C   0  0  0  0  0  2  0  0  0  0  0  0
  198.7310  174.9210  139.9330 C   0  0  0  0  0  1  0  0  0  0  0  0
  197.7230  174.6960  138.8250 C   0  0  0  0  0  2  0  0  0  0  0  0
  1 39  1  6  0  0  0
  1  8  1  0  0  0  0
  2 38  1  0  0  0  0
  2  7  1  0  0  0  0
  3  7  1  0  0  0  0
  5  6  1  6  0  0  0
  5 10  1  0  0  0  0
  5  1  1  0  0  0  0
  7 11  2  0  0  0  0
  8  9  1  0  0  0  0
  8  2  1  1  0  0  0
  9  4  1  6  0  0  0
  9  3  1  0  0  0  0
 10 12  1  6  0  0  0
 10  4  1  0  0  0  0
 12 13  1  1  0  0  0
 14 12  1  0  0  0  0
 15 25  1  6  0  0  0
 15 16  1  0  0  0  0
 15 12  1  0  0  0  0
 16 17  1  6  0  0  0
 18 19  1  0  0  0  0
 19 24  1  0  0  0  0
 19 16  1  1  0  0  0
 20 24  1  0  0  0  0
 21 22  1  0  0  0  0
 21 20  1  0  0  0  0
 22 23  1  1  0  0  0
 22 18  1  0  0  0  0
 25 36  1  1  0  0  0
 27 29  1  0  0  0  0
 28 30  1  6  0  0  0
 28 27  1  0  0  0  0
 28 29  1  0  0  0  0
 29 25  1  0  0  0  0
 29 26  1  1  0  0  0
 33 32  1  1  0  0  0
 33 31  1  0  0  0  0
 33 28  1  0  0  0  0
 35 36  2  0  0  0  0
 36 34  1  0  0  0  0
 38 37  1  0  0  0  0
 41 39  1  0  0  0  0
 41 40  1  1  0  0  0
 42 45  1  0  0  0  0
 43 48  1  6  0  0  0
 43 47  1  0  0  0  0
 45 44  2  0  0  0  0
 45 41  1  0  0  0  0
 46 43  1  0  0  0  0
 46 42  1  0  0  0  0
 47 44  1  0  0  0  0
 48 49  2  0  0  0  0
 50 51  1  0  0  0  0
 50 49  1  0  0  0  0
 51 53  1  0  0  0  0
 52 51  2  0  0  0  0
 53 54  1  0  0  0  0
 54 55  1  0  0  0  0
 57 55  1  0  0  0  0
 57 56  1  0  0  0  0
M  END
>  <MODEL>
7

>  <REMARK>
 VINA RESULT:      -3.7      3.445      8.122
  Name = 
  19 active torsions:
  status: ('A' for Active; 'I' for Inactive)
    1  A    between atoms: C_3  and  C_6
    2  A    between atoms: C_4  and  C_23
    3  A    between atoms: C_6  and  C_30
    4  A    between atoms: C_7  and  C_24
    5  A    between atoms: C_9  and  C_18
    6  A    between atoms: C_9  and  C_53
    7  A    between atoms: N_10  and  C_28
    8  A    between atoms: C_17  and  C_52
    9  A    between atoms: C_18  and  C_24
   10  A    between atoms: C_18  and  C_32
   11  A    between atoms: C_20  and  C_30
   12  A    between atoms: C_22  and  C_31
   13  A    between atoms: C_22  and  C_43
   14  A    between atoms: C_31  and  N_40
   15  A    between atoms: C_32  and  C_33
   16  A    between atoms: C_32  and  C_46
   17  A    between atoms: C_34  and  C_35
   18  A    between atoms: C_34  and  N_40
   19  A    between atoms: C_35  and  C_50
                            x       y       z     vdW  Elec       q    Type
                         _______ _______ _______ _____ _____    ______ ____

>  <TORSDO>
F 19

$$$$
=
 OpenBabel11062416423D

 57 61  0  0  1  0  0  0  0  0999 V2000
  186.0390  178.2700  138.6730 C   0  0  1  0  0  3  0  0  0  0  0  0
  186.2530  178.8330  141.1270 N   0  0  0  0  0  0  0  0  0  0  0  0
  183.6530  178.8500  141.9210 S   0  0  0  0  0  0  0  0  0  0  0  0
  183.1730  177.8210  139.3480 C   0  0  0  0  0  2  0  0  0  0  0  0
  185.0730  177.5950  137.6700 C   0  0  2  0  0  3  0  0  0  0  0  0
  185.4780  177.8850  136.3660 O   0  0  0  0  0  1  0  0  0  0  0  0
  185.3710  179.2790  142.1530 C   0  0  0  0  0  0  0  0  0  0  0  0
  185.5090  178.1050  140.1060 C   0  0  1  0  0  3  0  0  0  0  0  0
  184.1040  178.6750  140.1730 C   0  0  2  0  0  3  0  0  0  0  0  0
  183.5850  177.9980  137.8790 C   0  0  1  0  0  3  0  0  0  0  0  0
  185.7630  179.9900  143.1160 O   0  0  0  0  0  0  0  0  0  0  0  0
  182.6080  177.3050  136.8930 C   0  0  2  0  0  0  0  0  0  0  0  0
  182.6640  175.7850  137.0390 C   0  0  0  0  0  1  0  0  0  0  0  0
  182.9680  177.6320  135.5800 O   0  0  0  0  0  1  0  0  0  0  0  0
  181.1660  177.7780  137.1840 C   0  0  2  0  0  3  0  0  0  0  0  0
  180.0830  176.8030  136.6840 C   0  0  2  0  0  3  0  0  0  0  0  0
  179.0540  177.4310  135.9770 O   0  0  0  0  0  1  0  0  0  0  0  0
  180.1640  176.3670  139.1450 C   0  0  0  0  0  2  0  0  0  0  0  0
  179.5880  175.8920  137.8050 C   0  0  2  0  0  3  0  0  0  0  0  0
  179.2280  173.5330  138.6610 C   0  0  0  0  0  2  0  0  0  0  0  0
  178.9460  174.2790  139.9740 C   0  0  0  0  0  2  0  0  0  0  0  0
  180.0020  175.3440  140.2810 C   0  0  1  0  0  3  0  0  0  0  0  0
  181.2330  174.7440  140.5490 O   0  0  0  0  0  1  0  0  0  0  0  0
  179.8830  174.4080  137.5810 C   0  0  0  0  0  2  0  0  0  0  0  0
  180.9120  179.3010  137.0680 C   0  0  2  0  0  3  0  0  0  0  0  0
  178.9760  179.3110  138.8700 C   0  0  0  0  0  1  0  0  0  0  0  0
  181.1700  180.5300  139.3200 C   0  0  0  0  0  2  0  0  0  0  0  0
  180.3530  181.4650  138.4470 C   0  0  1  0  0  0  0  0  0  0  0  0
  180.2190  179.9540  138.2720 C   0  0  1  0  0  0  0  0  0  0  0  0
  179.3090  182.0820  139.1370 O   0  0  0  0  0  1  0  0  0  0  0  0
  182.0000  183.1600  138.0940 F   0  0  0  0  0  0  0  0  0  0  0  0
  180.2590  183.0920  136.6360 O   0  0  0  0  0  1  0  0  0  0  0  0
  181.1150  182.3300  137.4350 C   0  0  2  0  0  3  0  0  0  0  0  0
  179.1750  179.9590  135.5710 O   0  0  0  0  0  1  0  0  0  0  0  0
  181.2880  180.0360  134.6890 O   0  0  0  0  0  0  0  0  0  0  0  0
  180.4110  179.7870  135.7390 C   0  0  0  0  0  0  0  0  0  0  0  0
  188.0010  177.5740  142.2820 C   0  0  0  0  0  1  0  0  0  0  0  0
  187.6930  178.7230  141.3380 C   0  0  0  0  0  2  0  0  0  0  0  0
  187.4110  177.6160  138.5610 C   0  0  0  0  0  2  0  0  0  0  0  0
  188.9260  179.1390  137.4990 O   0  0  0  0  0  1  0  0  0  0  0  0
  188.1250  178.0170  137.2760 C   0  0  1  0  0  3  0  0  0  0  0  0
  188.3040  175.7290  136.0540 C   0  0  0  0  0  2  0  0  0  0  0  0
  190.5800  175.0820  135.2570 C   0  0  1  0  0  3  0  0  0  0  0  0
  190.3030  177.0180  136.8240 C   0  0  0  0  0  3  0  0  0  0  0  0
  188.9660  176.8810  136.7850 C   0  0  0  0  0  0  0  0  0  0  0  0
  189.2520  174.5590  135.7930 C   0  0  0  0  0  2  0  0  0  0  0  0
  191.2430  175.9560  136.3210 C   0  0  0  0  0  2  0  0  0  0  0  0
  191.4760  173.9550  134.8410 C   0  0  0  0  0  3  0  0  0  0  0  0
  191.7940  172.9520  135.6660 C   0  0  0  0  0  3  0  0  0  0  0  0
  192.6720  171.8330  135.2060 C   0  0  0  0  0  2  0  0  0  0  0  0
  193.6660  171.4790  136.2600 C   0  0  0  0  0  0  0  0  0  0  0  0
  194.0520  169.9040  136.4930 S   0  0  0  0  0  0  0  0  0  0  0  0
  194.3660  172.5310  136.9360 N   0  0  0  0  0  2  0  0  0  0  0  0
  195.5590  172.3280  137.7490 C   0  0  0  0  0  2  0  0  0  0  0  0
  196.2830  173.6460  137.9720 C   0  0  0  0  0  2  0  0  0  0  0  0
  198.5920  174.5170  138.1650 C   0  0  0  0  0  1  0  0  0  0  0  0
  197.6820  173.5900  137.3880 C   0  0  0  0  0  2  0  0  0  0  0  0
  1 39  1  1  0  0  0
  1  8  1  0  0  0  0
  2 38  1  0  0  0  0
  2  7  1  0  0  0  0
  3  7  1  0  0  0  0
  5  6  1  6  0  0  0
  5 10  1  0  0  0  0
  5  1  1  0  0  0  0
  7 11  2  0  0  0  0
  8  9  1  0  0  0  0
  8  2  1  1  0  0  0
  9  4  1  6  0  0  0
  9  3  1  0  0  0  0
 10 12  1  6  0  0  0
 10  4  1  0  0  0  0
 12 13  1  1  0  0  0
 12 15  1  0  0  0  0
 14 12  1  0  0  0  0
 15 16  1  6  0  0  0
 16 17  1  1  0  0  0
 18 22  1  0  0  0  0
 19 16  1  6  0  0  0
 19 18  1  0  0  0  0
 20 21  1  0  0  0  0
 21 22  1  0  0  0  0
 22 23  1  6  0  0  0
 24 19  1  0  0  0  0
 24 20  1  0  0  0  0
 25 36  1  6  0  0  0
 25 15  1  0  0  0  0
 25 29  1  0  0  0  0
 28 30  1  1  0  0  0
 28 27  1  0  0  0  0
 29 28  1  0  0  0  0
 29 26  1  1  0  0  0
 29 27  1  0  0  0  0
 33 32  1  1  0  0  0
 33 31  1  0  0  0  0
 33 28  1  0  0  0  0
 34 36  1  0  0  0  0
 35 36  2  0  0  0  0
 38 37  1  0  0  0  0
 41 40  1  1  0  0  0
 41 39  1  0  0  0  0
 42 45  1  0  0  0  0
 43 48  1  1  0  0  0
 43 46  1  0  0  0  0
 43 47  1  0  0  0  0
 45 44  2  0  0  0  0
 45 41  1  0  0  0  0
 46 42  1  0  0  0  0
 47 44  1  0  0  0  0
 48 49  2  0  0  0  0
 50 49  1  0  0  0  0
 50 51  1  0  0  0  0
 51 52  2  0  0  0  0
 51 53  1  0  0  0  0
 53 54  1  0  0  0  0
 54 55  1  0  0  0  0
 57 55  1  0  0  0  0
 57 56  1  0  0  0  0
M  END
>  <MODEL>
8

>  <REMARK>
 VINA RESULT:      -3.6      3.348      6.968
  Name = 
  19 active torsions:
  status: ('A' for Active; 'I' for Inactive)
    1  A    between atoms: C_3  and  C_6
    2  A    between atoms: C_4  and  C_23
    3  A    between atoms: C_6  and  C_30
    4  A    between atoms: C_7  and  C_24
    5  A    between atoms: C_9  and  C_18
    6  A    between atoms: C_9  and  C_53
    7  A    between atoms: N_10  and  C_28
    8  A    between atoms: C_17  and  C_52
    9  A    between atoms: C_18  and  C_24
   10  A    between atoms: C_18  and  C_32
   11  A    between atoms: C_20  and  C_30
   12  A    between atoms: C_22  and  C_31
   13  A    between atoms: C_22  and  C_43
   14  A    between atoms: C_31  and  N_40
   15  A    between atoms: C_32  and  C_33
   16  A    between atoms: C_32  and  C_46
   17  A    between atoms: C_34  and  C_35
   18  A    between atoms: C_34  and  N_40
   19  A    between atoms: C_35  and  C_50
                            x       y       z     vdW  Elec       q    Type
                         _______ _______ _______ _____ _____    ______ ____

>  <TORSDO>
F 19

$$$$
=
 OpenBabel11062416423D

 57 61  0  0  1  0  0  0  0  0999 V2000
  185.4750  178.5460  142.2160 C   0  0  1  0  0  3  0  0  0  0  0  0
  186.0650  178.7410  144.6650 N   0  0  0  0  0  0  0  0  0  0  0  0
  183.6080  178.8750  145.8190 S   0  0  0  0  0  0  0  0  0  0  0  0
  182.6890  178.2590  143.2330 C   0  0  0  0  0  2  0  0  0  0  0  0
  184.3200  178.1030  141.2840 C   0  0  2  0  0  3  0  0  0  0  0  0
  184.5800  178.5360  139.9830 O   0  0  0  0  0  1  0  0  0  0  0  0
  185.3770  179.1150  145.8540 C   0  0  0  0  0  0  0  0  0  0  0  0
  185.1220  178.2300  143.6770 C   0  0  1  0  0  3  0  0  0  0  0  0
  183.8050  178.9060  144.0170 C   0  0  2  0  0  3  0  0  0  0  0  0
  182.9230  178.6020  141.7540 C   0  0  1  0  0  3  0  0  0  0  0  0
  185.9640  179.6490  146.8320 O   0  0  0  0  0  0  0  0  0  0  0  0
  181.7570  178.1410  140.8390 C   0  0  2  0  0  0  0  0  0  0  0  0
  180.4150  178.2530  141.5590 C   0  0  0  0  0  1  0  0  0  0  0  0
  181.9530  176.8000  140.4840 O   0  0  0  0  0  1  0  0  0  0  0  0
  181.7180  179.0270  139.5740 C   0  0  2  0  0  3  0  0  0  0  0  0
  181.3100  180.4860  139.8550 C   0  0  2  0  0  3  0  0  0  0  0  0
  180.3670  180.6120  140.8780 O   0  0  0  0  0  1  0  0  0  0  0  0
  181.9150  182.3580  138.3100 C   0  0  0  0  0  2  0  0  0  0  0  0
  180.9230  181.2170  138.5710 C   0  0  2  0  0  3  0  0  0  0  0  0
  179.1080  182.3200  137.1850 C   0  0  0  0  0  2  0  0  0  0  0  0
  180.3170  182.7900  136.3630 C   0  0  0  0  0  2  0  0  0  0  0  0
  181.4400  183.3530  137.2400 C   0  0  1  0  0  3  0  0  0  0  0  0
  181.0290  184.5380  137.8520 O   0  0  0  0  0  1  0  0  0  0  0  0
  179.4830  181.7350  138.5550 C   0  0  0  0  0  2  0  0  0  0  0  0
  181.2130  178.3450  138.2790 C   0  0  2  0  0  3  0  0  0  0  0  0
  181.5920  179.6810  136.0270 C   0  0  0  0  0  1  0  0  0  0  0  0
  183.5560  178.5840  137.2300 C   0  0  0  0  0  2  0  0  0  0  0  0
  182.8800  177.4720  136.4480 C   0  0  1  0  0  0  0  0  0  0  0  0
  182.0440  178.6150  137.0170 C   0  0  1  0  0  0  0  0  0  0  0  0
  183.1320  177.5390  135.0770 O   0  0  0  0  0  1  0  0  0  0  0  0
  181.6420  175.8270  137.6610 F   0  0  0  0  0  0  0  0  0  0  0  0
  183.8840  175.9090  138.0250 O   0  0  0  0  0  1  0  0  0  0  0  0
  182.8700  176.0740  137.0780 C   0  0  2  0  0  3  0  0  0  0  0  0
  178.9510  178.2990  139.0370 O   0  0  0  0  0  1  0  0  0  0  0  0
  179.2020  178.4870  136.7680 O   0  0  0  0  0  0  0  0  0  0  0  0
  179.7290  178.3800  138.0510 C   0  0  0  0  0  0  0  0  0  0  0  0
  187.8030  177.1720  145.3650 C   0  0  0  0  0  1  0  0  0  0  0  0
  187.5000  178.4780  144.6510 C   0  0  0  0  0  2  0  0  0  0  0  0
  186.7430  177.7960  141.8260 C   0  0  0  0  0  2  0  0  0  0  0  0
  188.8090  178.9770  142.1030 O   0  0  0  0  0  1  0  0  0  0  0  0
  187.7770  178.7220  141.1980 C   0  0  1  0  0  3  0  0  0  0  0  0
  189.7190  177.4870  139.9880 C   0  0  0  0  0  2  0  0  0  0  0  0
  189.1260  176.3220  137.8610 C   0  0  1  0  0  3  0  0  0  0  0  0
  187.5020  177.9130  138.9150 C   0  0  0  0  0  3  0  0  0  0  0  0
  188.3310  178.0980  139.9570 C   0  0  0  0  0  0  0  0  0  0  0  0
  190.2250  177.0710  138.6070 C   0  0  0  0  0  2  0  0  0  0  0  0
  187.9420  177.2600  137.6320 C   0  0  0  0  0  2  0  0  0  0  0  0
  189.6370  175.7620  136.5680 C   0  0  0  0  0  3  0  0  0  0  0  0
  190.8740  176.0050  136.1220 C   0  0  0  0  0  3  0  0  0  0  0  0
  191.3550  175.4090  134.8390 C   0  0  0  0  0  2  0  0  0  0  0  0
  192.8160  175.1200  134.9110 C   0  0  0  0  0  0  0  0  0  0  0  0
  193.8810  176.3500  134.7150 S   0  0  0  0  0  0  0  0  0  0  0  0
  193.2480  173.8080  135.2980 N   0  0  0  0  0  2  0  0  0  0  0  0
  194.5830  173.5010  135.7940 C   0  0  0  0  0  2  0  0  0  0  0  0
  194.5530  173.2720  137.2970 C   0  0  0  0  0  2  0  0  0  0  0  0
  196.9360  173.4660  137.9400 C   0  0  0  0  0  1  0  0  0  0  0  0
  195.5820  174.1450  137.9880 C   0  0  0  0  0  2  0  0  0  0  0  0
  1 39  1  6  0  0  0
  1  8  1  0  0  0  0
  2  7  1  0  0  0  0
  3  7  1  0  0  0  0
  5  6  1  6  0  0  0
  5 10  1  0  0  0  0
  5  1  1  0  0  0  0
  7 11  2  0  0  0  0
  8  9  1  0  0  0  0
  8  2  1  1  0  0  0
  9  4  1  6  0  0  0
  9  3  1  0  0  0  0
 10 12  1  6  0  0  0
 10  4  1  0  0  0  0
 12 13  1  1  0  0  0
 14 12  1  0  0  0  0
 15 25  1  6  0  0  0
 15 16  1  0  0  0  0
 15 12  1  0  0  0  0
 16 17  1  1  0  0  0
 18 19  1  0  0  0  0
 19 16  1  1  0  0  0
 20 24  1  0  0  0  0
 21 20  1  0  0  0  0
 21 22  1  0  0  0  0
 22 23  1  1  0  0  0
 22 18  1  0  0  0  0
 24 19  1  0  0  0  0
 25 36  1  6  0  0  0
 28 30  1  6  0  0  0
 28 29  1  0  0  0  0
 28 33  1  0  0  0  0
 28 27  1  0  0  0  0
 29 26  1  6  0  0  0
 29 27  1  0  0  0  0
 29 25  1  0  0  0  0
 33 31  1  1  0  0  0
 33 32  1  0  0  0  0
 35 36  2  0  0  0  0
 36 34  1  0  0  0  0
 38  2  1  0  0  0  0
 38 37  1  0  0  0  0
 41 39  1  0  0  0  0
 41 40  1  1  0  0  0
 43 48  1  6  0  0  0
 43 46  1  0  0  0  0
 44 45  2  0  0  0  0
 45 42  1  0  0  0  0
 45 41  1  0  0  0  0
 46 42  1  0  0  0  0
 47 43  1  0  0  0  0
 47 44  1  0  0  0  0
 49 48  2  0  0  0  0
 50 51  1  0  0  0  0
 50 49  1  0  0  0  0
 51 53  1  0  0  0  0
 52 51  2  0  0  0  0
 53 54  1  0  0  0  0
 54 55  1  0  0  0  0
 55 57  1  0  0  0  0
 56 57  1  0  0  0  0
M  END
>  <MODEL>
9

>  <REMARK>
 VINA RESULT:      -3.5      3.187      8.175
  Name = 
  19 active torsions:
  status: ('A' for Active; 'I' for Inactive)
    1  A    between atoms: C_3  and  C_6
    2  A    between atoms: C_4  and  C_23
    3  A    between atoms: C_6  and  C_30
    4  A    between atoms: C_7  and  C_24
    5  A    between atoms: C_9  and  C_18
    6  A    between atoms: C_9  and  C_53
    7  A    between atoms: N_10  and  C_28
    8  A    between atoms: C_17  and  C_52
    9  A    between atoms: C_18  and  C_24
   10  A    between atoms: C_18  and  C_32
   11  A    between atoms: C_20  and  C_30
   12  A    between atoms: C_22  and  C_31
   13  A    between atoms: C_22  and  C_43
   14  A    between atoms: C_31  and  N_40
   15  A    between atoms: C_32  and  C_33
   16  A    between atoms: C_32  and  C_46
   17  A    between atoms: C_34  and  C_35
   18  A    between atoms: C_34  and  N_40
   19  A    between atoms: C_35  and  C_50
                            x       y       z     vdW  Elec       q    Type
                         _______ _______ _______ _____ _____    ______ ____

>  <TORSDO>
F 19

$$$$
