=
 OpenBabel11062416203D

 29 32  0  0  1  0  0  0  0  0999 V2000
  184.4460  178.1170  141.8250 C   0  0  0  0  0  3  0  0  0  0  0  0
  181.9940  178.5600  142.1490 C   0  0  1  0  0  3  0  0  0  0  0  0
  181.4800  179.1250  144.3890 O   0  0  0  0  0  0  0  0  0  0  0  0
  186.1250  178.0250  145.0110 N   0  0  0  0  0  0  0  0  0  0  0  0
  182.3610  178.9870  143.5530 C   0  0  0  0  0  0  0  0  0  0  0  0
  185.9800  177.9260  143.7230 C   0  0  0  0  0  0  0  0  0  0  0  0
  180.9590  179.3630  141.6660 O   0  0  0  0  0  1  0  0  0  0  0  0
  183.1920  178.6460  141.1910 C   0  0  2  0  0  3  0  0  0  0  0  0
  185.1070  178.5780  145.8550 C   0  0  0  0  0  3  0  0  0  0  0  0
  187.0080  177.3310  142.9220 N   0  0  0  0  0  2  0  0  0  0  0  0
  184.0320  179.1130  145.3540 N   0  0  0  0  0  0  0  0  0  0  0  0
  183.8020  179.2690  143.9130 C   0  0  1  0  0  3  0  0  0  0  0  0
  184.7390  178.4110  143.0950 C   0  0  0  0  0  0  0  0  0  0  0  0
  191.1810  175.4450  143.5790 O   0  0  0  0  0  1  0  0  0  0  0  0
  190.6290  179.0660  143.9610 C   0  0  0  0  0  1  0  0  0  0  0  0
  191.5370  177.3730  145.4990 C   0  0  0  0  0  1  0  0  0  0  0  0
  189.3210  176.5220  142.5050 C   0  0  2  0  0  3  0  0  0  0  0  0
  188.2630  176.8440  143.4750 C   0  0  1  0  0  0  0  0  0  0  0  0
  188.8330  177.3820  145.1070 S   0  0  0  0  0  0  0  0  0  0  0  0
  188.5470  175.5150  143.1430 O   0  0  0  0  0  0  0  0  0  0  0  0
  190.6660  176.6950  143.2110 C   0  0  1  0  0  3  0  0  0  0  0  0
  190.4960  177.6250  144.4210 C   0  0  0  0  0  0  0  0  0  0  0  0
  182.8920  177.8860  139.9010 C   0  0  0  0  0  2  0  0  0  0  0  0
  182.3120  178.3790  137.5070 C   0  0  0  0  0  1  0  0  0  0  0  0
  183.2620  180.1250  138.9370 C   0  0  0  0  0  1  0  0  0  0  0  0
  183.3070  178.6400  138.6310 C   0  0  0  0  0  0  0  0  0  0  0  0
  184.7090  178.2610  138.2260 C   0  0  0  0  0  0  0  0  0  0  0  0
  184.9200  177.1660  137.3920 O   0  0  0  0  0  0  0  0  0  0  0  0
  185.6950  178.9630  138.5760 O   0  0  0  0  0  1  0  0  0  0  0  0
  1 13  2  0  0  0  0
  2  7  1  6  0  0  0
  2  5  1  0  0  0  0
  4  9  1  0  0  0  0
  5 12  1  0  0  0  0
  5  3  2  0  0  0  0
  6  4  2  0  0  0  0
  8 23  1  6  0  0  0
  8  1  1  0  0  0  0
  8  2  1  0  0  0  0
 10  6  1  0  0  0  0
 11  9  2  0  0  0  0
 12 13  1  6  0  0  0
 12 11  1  0  0  0  0
 13  6  1  0  0  0  0
 15 22  1  0  0  0  0
 17 20  1  1  0  0  0
 17 21  1  0  0  0  0
 17 18  1  0  0  0  0
 18 10  1  6  0  0  0
 18 19  1  0  0  0  0
 20 18  1  0  0  0  0
 21 14  1  1  0  0  0
 21 22  1  0  0  0  0
 22 19  1  0  0  0  0
 22 16  1  0  0  0  0
 24 26  1  0  0  0  0
 26 25  1  0  0  0  0
 26 23  1  0  0  0  0
 27 29  1  0  0  0  0
 27 26  1  0  0  0  0
 28 27  2  0  0  0  0
M  END
>  <MODEL>
1

>  <REMARK>
 VINA RESULT:      -8.8      0.000      0.000
  Name = 
  4 active torsions:
  status: ('A' for Active; 'I' for Inactive)
    1  A    between atoms: C_2  and  C_28
    2  A    between atoms: C_15  and  N_20
    3  A    between atoms: C_17  and  C_18
    4  A    between atoms: C_18  and  C_28
                            x       y       z     vdW  Elec       q    Type
                         _______ _______ _______ _____ _____    ______ ____

>  <TORSDO>
F 4

$$$$
=
 OpenBabel11062416203D

 29 32  0  0  1  0  0  0  0  0999 V2000
  187.6160  177.9120  143.8380 C   0  0  0  0  0  3  0  0  0  0  0  0
  188.5500  178.1880  146.1550 C   0  0  1  0  0  3  0  0  0  0  0  0
  186.8510  178.5460  147.7620 O   0  0  0  0  0  0  0  0  0  0  0  0
  184.0960  178.6740  143.8160 N   0  0  0  0  0  0  0  0  0  0  0  0
  187.1120  178.1860  146.6240 C   0  0  0  0  0  0  0  0  0  0  0  0
  185.2650  178.3660  143.3370 C   0  0  0  0  0  0  0  0  0  0  0  0
  189.3540  177.5350  147.0910 O   0  0  0  0  0  1  0  0  0  0  0  0
  188.7090  177.5090  144.7870 C   0  0  2  0  0  3  0  0  0  0  0  0
  183.8270  178.6920  145.2250 C   0  0  0  0  0  3  0  0  0  0  0  0
  185.4990  178.4000  141.9240 N   0  0  0  0  0  2  0  0  0  0  0  0
  184.7140  178.2860  146.0860 N   0  0  0  0  0  0  0  0  0  0  0  0
  186.0090  177.7120  145.7040 C   0  0  1  0  0  3  0  0  0  0  0  0
  186.3530  178.0020  144.2600 C   0  0  0  0  0  0  0  0  0  0  0  0
  183.1240  179.5070  138.1120 O   0  0  0  0  0  1  0  0  0  0  0  0
  182.6710  176.2550  139.7790 C   0  0  0  0  0  1  0  0  0  0  0  0
  181.0760  178.0350  139.1930 C   0  0  0  0  0  1  0  0  0  0  0  0
  184.8370  178.6110  139.5380 C   0  0  2  0  0  3  0  0  0  0  0  0
  184.4670  178.7380  140.9560 C   0  0  1  0  0  0  0  0  0  0  0  0
  182.7150  178.4810  141.3340 S   0  0  0  0  0  0  0  0  0  0  0  0
  184.7600  179.8720  140.1910 O   0  0  0  0  0  0  0  0  0  0  0  0
  183.5590  178.3370  138.7470 C   0  0  1  0  0  3  0  0  0  0  0  0
  182.4880  177.7590  139.6840 C   0  0  0  0  0  0  0  0  0  0  0  0
  190.0750  177.8380  144.1880 C   0  0  0  0  0  2  0  0  0  0  0  0
  189.7340  175.6710  142.9650 C   0  0  0  0  0  1  0  0  0  0  0  0
  191.5860  177.1560  142.3650 C   0  0  0  0  0  1  0  0  0  0  0  0
  190.7660  176.6380  143.5310 C   0  0  0  0  0  0  0  0  0  0  0  0
  191.6830  175.9530  144.5140 C   0  0  0  0  0  0  0  0  0  0  0  0
  191.9290  176.5330  145.7550 O   0  0  0  0  0  1  0  0  0  0  0  0
  192.1800  174.8240  144.2550 O   0  0  0  0  0  0  0  0  0  0  0  0
  1 13  2  0  0  0  0
  1  8  1  0  0  0  0
  2  5  1  0  0  0  0
  2  7  1  1  0  0  0
  4  9  1  0  0  0  0
  5  3  2  0  0  0  0
  6  4  2  0  0  0  0
  6 13  1  0  0  0  0
  8 23  1  6  0  0  0
  8  2  1  0  0  0  0
  9 11  2  0  0  0  0
 10  6  1  0  0  0  0
 12 13  1  6  0  0  0
 12 11  1  0  0  0  0
 12  5  1  0  0  0  0
 16 22  1  0  0  0  0
 17 20  1  6  0  0  0
 17 18  1  0  0  0  0
 18 19  1  0  0  0  0
 18 10  1  1  0  0  0
 20 18  1  0  0  0  0
 21 14  1  1  0  0  0
 21 17  1  0  0  0  0
 21 22  1  0  0  0  0
 22 15  1  0  0  0  0
 22 19  1  0  0  0  0
 24 26  1  0  0  0  0
 25 26  1  0  0  0  0
 26 23  1  0  0  0  0
 26 27  1  0  0  0  0
 27 28  1  0  0  0  0
 29 27  2  0  0  0  0
M  END
>  <MODEL>
2

>  <REMARK>
 VINA RESULT:      -8.6      2.450      7.488
  Name = 
  4 active torsions:
  status: ('A' for Active; 'I' for Inactive)
    1  A    between atoms: C_2  and  C_28
    2  A    between atoms: C_15  and  N_20
    3  A    between atoms: C_17  and  C_18
    4  A    between atoms: C_18  and  C_28
                            x       y       z     vdW  Elec       q    Type
                         _______ _______ _______ _____ _____    ______ ____

>  <TORSDO>
F 4

$$$$
=
 OpenBabel11062416203D

 29 32  0  0  1  0  0  0  0  0999 V2000
  187.5780  177.8040  143.9010 C   0  0  0  0  0  3  0  0  0  0  0  0
  188.5510  178.1050  146.1980 C   0  0  1  0  0  3  0  0  0  0  0  0
  186.8930  178.6190  147.8060 O   0  0  0  0  0  0  0  0  0  0  0  0
  184.1090  178.7740  143.8820 N   0  0  0  0  0  0  0  0  0  0  0  0
  187.1210  178.2040  146.6800 C   0  0  0  0  0  0  0  0  0  0  0  0
  185.2520  178.3800  143.4040 C   0  0  0  0  0  0  0  0  0  0  0  0
  189.3250  177.4380  147.1500 O   0  0  0  0  0  1  0  0  0  0  0  0
  188.6550  177.3700  144.8530 C   0  0  2  0  0  3  0  0  0  0  0  0
  183.8570  178.8560  145.2910 C   0  0  0  0  0  3  0  0  0  0  0  0
  185.4730  178.3510  141.9890 N   0  0  0  0  0  2  0  0  0  0  0  0
  184.7270  178.4280  146.1580 N   0  0  0  0  0  0  0  0  0  0  0  0
  185.9820  177.7660  145.7860 C   0  0  1  0  0  3  0  0  0  0  0  0
  186.3270  177.9840  144.3300 C   0  0  0  0  0  0  0  0  0  0  0  0
  183.1440  179.5590  138.1800 O   0  0  0  0  0  1  0  0  0  0  0  0
  182.6650  176.2670  139.7590 C   0  0  0  0  0  1  0  0  0  0  0  0
  181.0800  178.0660  139.2010 C   0  0  0  0  0  1  0  0  0  0  0  0
  184.8390  178.6230  139.6010 C   0  0  2  0  0  3  0  0  0  0  0  0
  184.4530  178.7150  141.0180 C   0  0  1  0  0  0  0  0  0  0  0  0
  182.6970  178.4530  141.3700 S   0  0  0  0  0  0  0  0  0  0  0  0
  184.7570  179.8670  140.2850 O   0  0  0  0  0  0  0  0  0  0  0  0
  183.5690  178.3720  138.7890 C   0  0  1  0  0  3  0  0  0  0  0  0
  182.4860  177.7740  139.7000 C   0  0  0  0  0  0  0  0  0  0  0  0
  190.0320  177.5970  144.2320 C   0  0  0  0  0  2  0  0  0  0  0  0
  191.6210  175.7070  143.7700 C   0  0  0  0  0  1  0  0  0  0  0  0
  189.2770  175.5530  143.0800 C   0  0  0  0  0  1  0  0  0  0  0  0
  190.4430  176.5100  143.2320 C   0  0  0  0  0  0  0  0  0  0  0  0
  190.7600  177.1210  141.8890 C   0  0  0  0  0  0  0  0  0  0  0  0
  189.7310  177.4090  140.9970 O   0  0  0  0  0  0  0  0  0  0  0  0
  191.9410  177.4380  141.5860 O   0  0  0  0  0  1  0  0  0  0  0  0
  1 13  2  0  0  0  0
  1  8  1  0  0  0  0
  2  5  1  0  0  0  0
  2  7  1  1  0  0  0
  4  9  1  0  0  0  0
  5  3  2  0  0  0  0
  6  4  2  0  0  0  0
  6 13  1  0  0  0  0
  8 23  1  6  0  0  0
  8  2  1  0  0  0  0
  9 11  2  0  0  0  0
 10  6  1  0  0  0  0
 12 13  1  6  0  0  0
 12 11  1  0  0  0  0
 12  5  1  0  0  0  0
 16 22  1  0  0  0  0
 17 20  1  6  0  0  0
 17 18  1  0  0  0  0
 18 19  1  0  0  0  0
 18 10  1  1  0  0  0
 20 18  1  0  0  0  0
 21 14  1  1  0  0  0
 21 17  1  0  0  0  0
 21 22  1  0  0  0  0
 22 15  1  0  0  0  0
 22 19  1  0  0  0  0
 25 26  1  0  0  0  0
 26 24  1  0  0  0  0
 26 23  1  0  0  0  0
 27 26  1  0  0  0  0
 28 27  2  0  0  0  0
 29 27  1  0  0  0  0
M  END
>  <MODEL>
3

>  <REMARK>
 VINA RESULT:      -8.4      2.497      7.137
  Name = 
  4 active torsions:
  status: ('A' for Active; 'I' for Inactive)
    1  A    between atoms: C_2  and  C_28
    2  A    between atoms: C_15  and  N_20
    3  A    between atoms: C_17  and  C_18
    4  A    between atoms: C_18  and  C_28
                            x       y       z     vdW  Elec       q    Type
                         _______ _______ _______ _____ _____    ______ ____

>  <TORSDO>
F 4

$$$$
=
 OpenBabel11062416203D

 29 32  0  0  1  0  0  0  0  0999 V2000
  188.0240  177.6300  143.6310 C   0  0  0  0  0  3  0  0  0  0  0  0
  188.9270  177.0320  145.8990 C   0  0  1  0  0  3  0  0  0  0  0  0
  191.2890  176.8730  145.9030 O   0  0  0  0  0  0  0  0  0  0  0  0
  190.6540  177.5100  141.1740 N   0  0  0  0  0  0  0  0  0  0  0  0
  190.2980  177.2590  145.3000 C   0  0  0  0  0  0  0  0  0  0  0  0
  189.4480  177.6370  141.6420 C   0  0  0  0  0  0  0  0  0  0  0  0
  188.9140  177.4650  147.2260 O   0  0  0  0  0  1  0  0  0  0  0  0
  187.8290  177.7650  145.1140 C   0  0  2  0  0  3  0  0  0  0  0  0
  191.8040  177.4440  142.0290 C   0  0  0  0  0  3  0  0  0  0  0  0
  188.3260  177.6600  140.7520 N   0  0  0  0  0  2  0  0  0  0  0  0
  191.7000  177.6250  143.3130 N   0  0  0  0  0  0  0  0  0  0  0  0
  190.4440  177.9830  143.9810 C   0  0  1  0  0  3  0  0  0  0  0  0
  189.2430  177.7370  143.0960 C   0  0  0  0  0  0  0  0  0  0  0  0
  188.7930  178.5640  136.2390 O   0  0  0  0  0  1  0  0  0  0  0  0
  191.4230  176.8100  138.1280 C   0  0  0  0  0  1  0  0  0  0  0  0
  190.1670  176.1920  136.1030 C   0  0  0  0  0  1  0  0  0  0  0  0
  188.9460  178.7890  138.6260 C   0  0  2  0  0  3  0  0  0  0  0  0
  188.4570  177.5790  139.3050 C   0  0  1  0  0  0  0  0  0  0  0  0
  188.8530  176.0110  138.4930 S   0  0  0  0  0  0  0  0  0  0  0  0
  187.5750  178.4140  138.6110 O   0  0  0  0  0  0  0  0  0  0  0  0
  189.6380  178.3500  137.3360 C   0  0  1  0  0  3  0  0  0  0  0  0
  190.0640  176.8790  137.4550 C   0  0  0  0  0  0  0  0  0  0  0  0
  186.4520  177.2400  145.5160 C   0  0  0  0  0  2  0  0  0  0  0  0
  184.7950  177.9090  147.2800 C   0  0  0  0  0  1  0  0  0  0  0  0
  186.3110  179.5690  146.3100 C   0  0  0  0  0  1  0  0  0  0  0  0
  185.4900  178.3340  145.9920 C   0  0  0  0  0  0  0  0  0  0  0  0
  184.4920  178.6680  144.9120 C   0  0  0  0  0  0  0  0  0  0  0  0
  184.6820  178.1900  143.6190 O   0  0  0  0  0  0  0  0  0  0  0  0
  183.4470  179.3210  145.1760 O   0  0  0  0  0  1  0  0  0  0  0  0
  1  8  1  0  0  0  0
  2  7  1  1  0  0  0
  4  6  2  0  0  0  0
  4  9  1  0  0  0  0
  5  2  1  0  0  0  0
  5  3  2  0  0  0  0
  6 13  1  0  0  0  0
  8 23  1  1  0  0  0
  8  2  1  0  0  0  0
  9 11  2  0  0  0  0
 10  6  1  0  0  0  0
 11 12  1  0  0  0  0
 12 13  1  6  0  0  0
 12  5  1  0  0  0  0
 13  1  2  0  0  0  0
 16 22  1  0  0  0  0
 17 20  1  6  0  0  0
 17 18  1  0  0  0  0
 18 10  1  1  0  0  0
 19 18  1  0  0  0  0
 20 18  1  0  0  0  0
 21 14  1  6  0  0  0
 21 22  1  0  0  0  0
 21 17  1  0  0  0  0
 22 15  1  0  0  0  0
 22 19  1  0  0  0  0
 23 26  1  0  0  0  0
 26 25  1  0  0  0  0
 26 24  1  0  0  0  0
 27 29  1  0  0  0  0
 27 26  1  0  0  0  0
 28 27  2  0  0  0  0
M  END
>  <MODEL>
4

>  <REMARK>
 VINA RESULT:      -8.3      3.662      7.059
  Name = 
  4 active torsions:
  status: ('A' for Active; 'I' for Inactive)
    1  A    between atoms: C_2  and  C_28
    2  A    between atoms: C_15  and  N_20
    3  A    between atoms: C_17  and  C_18
    4  A    between atoms: C_18  and  C_28
                            x       y       z     vdW  Elec       q    Type
                         _______ _______ _______ _____ _____    ______ ____

>  <TORSDO>
F 4

$$$$
=
 OpenBabel11062416203D

 29 32  0  0  1  0  0  0  0  0999 V2000
  187.6480  177.8160  142.5430 C   0  0  0  0  0  3  0  0  0  0  0  0
  188.0260  177.5700  145.0150 C   0  0  1  0  0  3  0  0  0  0  0  0
  190.3260  177.4350  145.5540 O   0  0  0  0  0  0  0  0  0  0  0  0
  190.7440  177.3580  140.7590 N   0  0  0  0  0  0  0  0  0  0  0  0
  189.4980  177.7180  144.7010 C   0  0  0  0  0  0  0  0  0  0  0  0
  189.4690  177.5420  140.9300 C   0  0  0  0  0  0  0  0  0  0  0  0
  187.7360  178.1950  146.2290 O   0  0  0  0  0  1  0  0  0  0  0  0
  187.1410  178.1680  143.9120 C   0  0  2  0  0  3  0  0  0  0  0  0
  191.6800  177.4300  141.8440 C   0  0  0  0  0  3  0  0  0  0  0  0
  188.5660  177.4220  139.8250 N   0  0  0  0  0  2  0  0  0  0  0  0
  191.3050  177.7980  143.0340 N   0  0  0  0  0  0  0  0  0  0  0  0
  189.9430  178.2400  143.3530 C   0  0  1  0  0  3  0  0  0  0  0  0
  188.9560  177.8540  142.2750 C   0  0  0  0  0  0  0  0  0  0  0  0
  189.5670  175.4240  135.7740 O   0  0  0  0  0  1  0  0  0  0  0  0
  187.0130  178.0650  136.0330 C   0  0  0  0  0  1  0  0  0  0  0  0
  189.0440  177.8750  134.6560 C   0  0  0  0  0  1  0  0  0  0  0  0
  188.4900  175.8870  137.8710 C   0  0  2  0  0  3  0  0  0  0  0  0
  189.0040  177.1280  138.4690 C   0  0  1  0  0  0  0  0  0  0  0  0
  189.3800  178.4620  137.3030 S   0  0  0  0  0  0  0  0  0  0  0  0
  189.8160  175.9930  138.3710 O   0  0  0  0  0  0  0  0  0  0  0  0
  188.4710  176.0750  136.3540 C   0  0  1  0  0  3  0  0  0  0  0  0
  188.4500  177.5740  136.0220 C   0  0  0  0  0  0  0  0  0  0  0  0
  185.6980  177.6950  144.0770 C   0  0  0  0  0  2  0  0  0  0  0  0
  185.3070  180.1280  143.5890 C   0  0  0  0  0  1  0  0  0  0  0  0
  184.0970  178.4030  142.3420 C   0  0  0  0  0  1  0  0  0  0  0  0
  184.6550  178.7560  143.7070 C   0  0  0  0  0  0  0  0  0  0  0  0
  183.5310  178.7650  144.7130 C   0  0  0  0  0  0  0  0  0  0  0  0
  183.8030  179.0030  146.0570 O   0  0  0  0  0  1  0  0  0  0  0  0
  182.3330  178.6270  144.3450 O   0  0  0  0  0  0  0  0  0  0  0  0
  1  8  1  0  0  0  0
  2  7  1  1  0  0  0
  4  6  2  0  0  0  0
  4  9  1  0  0  0  0
  5  2  1  0  0  0  0
  5  3  2  0  0  0  0
  6 13  1  0  0  0  0
  8 23  1  1  0  0  0
  8  2  1  0  0  0  0
  9 11  2  0  0  0  0
 10  6  1  0  0  0  0
 11 12  1  0  0  0  0
 12 13  1  6  0  0  0
 12  5  1  0  0  0  0
 13  1  2  0  0  0  0
 16 22  1  0  0  0  0
 17 20  1  6  0  0  0
 17 18  1  0  0  0  0
 18 10  1  1  0  0  0
 19 18  1  0  0  0  0
 20 18  1  0  0  0  0
 21 14  1  6  0  0  0
 21 17  1  0  0  0  0
 22 15  1  0  0  0  0
 22 21  1  0  0  0  0
 22 19  1  0  0  0  0
 24 26  1  0  0  0  0
 25 26  1  0  0  0  0
 26 23  1  0  0  0  0
 26 27  1  0  0  0  0
 27 28  1  0  0  0  0
 29 27  2  0  0  0  0
M  END
>  <MODEL>
5

>  <REMARK>
 VINA RESULT:      -8.2      3.450      6.814
  Name = 
  4 active torsions:
  status: ('A' for Active; 'I' for Inactive)
    1  A    between atoms: C_2  and  C_28
    2  A    between atoms: C_15  and  N_20
    3  A    between atoms: C_17  and  C_18
    4  A    between atoms: C_18  and  C_28
                            x       y       z     vdW  Elec       q    Type
                         _______ _______ _______ _____ _____    ______ ____

>  <TORSDO>
F 4

$$$$
=
 OpenBabel11062416203D

 29 32  0  0  1  0  0  0  0  0999 V2000
  188.0800  177.7860  143.6250 C   0  0  0  0  0  3  0  0  0  0  0  0
  187.0610  178.3730  145.8460 C   0  0  1  0  0  3  0  0  0  0  0  0
  184.7900  179.0040  145.6440 O   0  0  0  0  0  0  0  0  0  0  0  0
  185.8130  178.6260  140.9560 N   0  0  0  0  0  0  0  0  0  0  0  0
  185.7490  178.4750  145.1020 C   0  0  0  0  0  0  0  0  0  0  0  0
  186.9120  178.2220  141.5200 C   0  0  0  0  0  0  0  0  0  0  0  0
  186.8430  177.8430  147.1200 O   0  0  0  0  0  1  0  0  0  0  0  0
  188.0790  177.4980  145.0990 C   0  0  2  0  0  3  0  0  0  0  0  0
  184.6100  178.8550  141.7010 C   0  0  0  0  0  3  0  0  0  0  0  0
  188.1010  178.0440  140.7420 N   0  0  0  0  0  2  0  0  0  0  0  0
  184.5330  178.5570  142.9660 N   0  0  0  0  0  0  0  0  0  0  0  0
  185.6140  177.9010  143.7090 C   0  0  1  0  0  3  0  0  0  0  0  0
  186.9310  177.9690  142.9700 C   0  0  0  0  0  0  0  0  0  0  0  0
  189.4050  178.7850  136.3660 O   0  0  0  0  0  1  0  0  0  0  0  0
  187.8380  175.6140  137.3910 C   0  0  0  0  0  1  0  0  0  0  0  0
  187.2350  177.2600  135.6630 C   0  0  0  0  0  1  0  0  0  0  0  0
  189.4600  178.0760  138.6600 C   0  0  2  0  0  3  0  0  0  0  0  0
  188.1510  178.2630  139.3040 C   0  0  1  0  0  0  0  0  0  0  0  0
  186.7090  177.9250  138.2610 S   0  0  0  0  0  0  0  0  0  0  0  0
  188.9240  179.3660  138.9270 O   0  0  0  0  0  0  0  0  0  0  0  0
  189.2100  177.6810  137.2050 C   0  0  1  0  0  3  0  0  0  0  0  0
  187.7960  177.0970  137.0660 C   0  0  0  0  0  0  0  0  0  0  0  0
  189.4770  177.7010  145.6780 C   0  0  0  0  0  2  0  0  0  0  0  0
  191.6800  176.4940  145.6780 C   0  0  0  0  0  1  0  0  0  0  0  0
  189.9980  176.0050  143.9680 C   0  0  0  0  0  1  0  0  0  0  0  0
  190.5960  177.1180  144.8080 C   0  0  0  0  0  0  0  0  0  0  0  0
  191.1630  178.1760  143.8950 C   0  0  0  0  0  0  0  0  0  0  0  0
  191.6790  177.8190  142.6530 O   0  0  0  0  0  0  0  0  0  0  0  0
  191.1140  179.3950  144.2110 O   0  0  0  0  0  1  0  0  0  0  0  0
  1  8  1  0  0  0  0
  2  7  1  1  0  0  0
  4  6  2  0  0  0  0
  4  9  1  0  0  0  0
  5  3  2  0  0  0  0
  5  2  1  0  0  0  0
  6 13  1  0  0  0  0
  8 23  1  1  0  0  0
  8  2  1  0  0  0  0
  9 11  2  0  0  0  0
 10  6  1  0  0  0  0
 12 11  1  6  0  0  0
 12  5  1  0  0  0  0
 13  1  2  0  0  0  0
 13 12  1  0  0  0  0
 16 22  1  0  0  0  0
 17 20  1  6  0  0  0
 17 18  1  0  0  0  0
 18 10  1  1  0  0  0
 19 18  1  0  0  0  0
 20 18  1  0  0  0  0
 21 14  1  6  0  0  0
 21 17  1  0  0  0  0
 22 21  1  0  0  0  0
 22 15  1  0  0  0  0
 22 19  1  0  0  0  0
 25 26  1  0  0  0  0
 26 23  1  0  0  0  0
 26 24  1  0  0  0  0
 27 29  1  0  0  0  0
 27 26  1  0  0  0  0
 28 27  2  0  0  0  0
M  END
>  <MODEL>
6

>  <REMARK>
 VINA RESULT:      -7.7      3.102      6.809
  Name = 
  4 active torsions:
  status: ('A' for Active; 'I' for Inactive)
    1  A    between atoms: C_2  and  C_28
    2  A    between atoms: C_15  and  N_20
    3  A    between atoms: C_17  and  C_18
    4  A    between atoms: C_18  and  C_28
                            x       y       z     vdW  Elec       q    Type
                         _______ _______ _______ _____ _____    ______ ____

>  <TORSDO>
F 4

$$$$
=
 OpenBabel11062416203D

 29 32  0  0  1  0  0  0  0  0999 V2000
  188.1920  177.8310  141.3800 C   0  0  0  0  0  3  0  0  0  0  0  0
  190.5090  176.9770  140.9180 C   0  0  1  0  0  3  0  0  0  0  0  0
  191.0700  177.1210  138.6230 O   0  0  0  0  0  0  0  0  0  0  0  0
  186.4600  178.4660  138.2860 N   0  0  0  0  0  0  0  0  0  0  0  0
  190.3010  177.4740  139.5050 C   0  0  0  0  0  0  0  0  0  0  0  0
  186.6310  178.3580  139.5700 C   0  0  0  0  0  0  0  0  0  0  0  0
  191.8390  177.1730  141.2970 O   0  0  0  0  0  1  0  0  0  0  0  0
  189.5860  177.6870  141.9190 C   0  0  2  0  0  3  0  0  0  0  0  0
  187.5530  178.4020  137.3600 C   0  0  0  0  0  3  0  0  0  0  0  0
  185.5050  178.3880  140.4550 N   0  0  0  0  0  2  0  0  0  0  0  0
  188.7860  178.3480  137.7750 N   0  0  0  0  0  0  0  0  0  0  0  0
  189.1670  178.4250  139.1900 C   0  0  1  0  0  3  0  0  0  0  0  0
  187.9910  178.1820  140.1070 C   0  0  0  0  0  0  0  0  0  0  0  0
  181.5250  180.0580  138.7920 O   0  0  0  0  0  1  0  0  0  0  0  0
  183.4310  177.4810  136.9790 C   0  0  0  0  0  1  0  0  0  0  0  0
  181.1080  177.5370  137.7900 C   0  0  0  0  0  1  0  0  0  0  0  0
  183.8770  179.7710  139.1840 C   0  0  2  0  0  3  0  0  0  0  0  0
  184.1370  178.5710  139.9940 C   0  0  1  0  0  0  0  0  0  0  0  0
  183.0720  177.1480  139.6510 S   0  0  0  0  0  0  0  0  0  0  0  0
  183.4980  179.6840  140.5510 O   0  0  0  0  0  0  0  0  0  0  0  0
  182.6860  179.4690  138.2750 C   0  0  1  0  0  3  0  0  0  0  0  0
  182.5360  177.9490  138.1120 C   0  0  0  0  0  0  0  0  0  0  0  0
  189.5630  176.9300  143.2460 C   0  0  0  0  0  2  0  0  0  0  0  0
  190.7700  179.0280  143.9170 C   0  0  0  0  0  1  0  0  0  0  0  0
  189.2270  177.9340  145.4710 C   0  0  0  0  0  1  0  0  0  0  0  0
  190.2590  177.6730  144.3910 C   0  0  0  0  0  0  0  0  0  0  0  0
  191.3730  176.8340  144.9660 C   0  0  0  0  0  0  0  0  0  0  0  0
  191.8600  177.1030  146.2410 O   0  0  0  0  0  1  0  0  0  0  0  0
  191.8280  175.8430  144.3320 O   0  0  0  0  0  0  0  0  0  0  0  0
  1  8  1  0  0  0  0
  2  7  1  1  0  0  0
  2  8  1  0  0  0  0
  3  5  2  0  0  0  0
  4  6  2  0  0  0  0
  5  2  1  0  0  0  0
  6 13  1  0  0  0  0
  6 10  1  0  0  0  0
  8 23  1  1  0  0  0
  9 11  2  0  0  0  0
  9  4  1  0  0  0  0
 12 11  1  6  0  0  0
 12  5  1  0  0  0  0
 12 13  1  0  0  0  0
 13  1  2  0  0  0  0
 15 22  1  0  0  0  0
 16 22  1  0  0  0  0
 17 18  1  0  0  0  0
 17 20  1  1  0  0  0
 18 10  1  1  0  0  0
 18 20  1  0  0  0  0
 19 18  1  0  0  0  0
 21 14  1  1  0  0  0
 21 17  1  0  0  0  0
 22 21  1  0  0  0  0
 22 19  1  0  0  0  0
 23 26  1  0  0  0  0
 24 26  1  0  0  0  0
 26 27  1  0  0  0  0
 26 25  1  0  0  0  0
 27 28  1  0  0  0  0
 29 27  2  0  0  0  0
M  END
>  <MODEL>
7

>  <REMARK>
 VINA RESULT:      -7.7      3.140      8.726
  Name = 
  4 active torsions:
  status: ('A' for Active; 'I' for Inactive)
    1  A    between atoms: C_2  and  C_28
    2  A    between atoms: C_15  and  N_20
    3  A    between atoms: C_17  and  C_18
    4  A    between atoms: C_18  and  C_28
                            x       y       z     vdW  Elec       q    Type
                         _______ _______ _______ _____ _____    ______ ____

>  <TORSDO>
F 4

$$$$
=
 OpenBabel11062416203D

 29 32  0  0  1  0  0  0  0  0999 V2000
  188.0630  177.6800  143.2130 C   0  0  0  0  0  3  0  0  0  0  0  0
  189.0520  177.0770  145.4430 C   0  0  1  0  0  3  0  0  0  0  0  0
  191.4050  176.8490  145.3410 O   0  0  0  0  0  0  0  0  0  0  0  0
  190.5730  177.4620  140.6400 N   0  0  0  0  0  0  0  0  0  0  0  0
  190.3990  177.2580  144.7810 C   0  0  0  0  0  0  0  0  0  0  0  0
  189.3940  177.6290  141.1610 C   0  0  0  0  0  0  0  0  0  0  0  0
  189.1120  177.5220  146.7660 O   0  0  0  0  0  1  0  0  0  0  0  0
  187.9410  177.8340  144.7020 C   0  0  2  0  0  3  0  0  0  0  0  0
  191.7590  177.3700  141.4420 C   0  0  0  0  0  3  0  0  0  0  0  0
  188.2330  177.6760  140.3230 N   0  0  0  0  0  2  0  0  0  0  0  0
  191.7190  177.5650  142.7280 N   0  0  0  0  0  0  0  0  0  0  0  0
  190.5060  177.9660  143.4480 C   0  0  1  0  0  3  0  0  0  0  0  0
  189.2590  177.7470  142.6220 C   0  0  0  0  0  0  0  0  0  0  0  0
  188.5440  178.5220  135.7860 O   0  0  0  0  0  1  0  0  0  0  0  0
  191.1630  176.6490  137.5730 C   0  0  0  0  0  1  0  0  0  0  0  0
  189.7890  176.0830  135.6110 C   0  0  0  0  0  1  0  0  0  0  0  0
  188.8150  178.7560  138.1610 C   0  0  2  0  0  3  0  0  0  0  0  0
  188.2960  177.5780  138.8730 C   0  0  1  0  0  0  0  0  0  0  0  0
  188.5750  175.9860  138.0580 S   0  0  0  0  0  0  0  0  0  0  0  0
  187.4270  178.4520  138.2100 O   0  0  0  0  0  0  0  0  0  0  0  0
  189.4250  178.2730  136.8460 C   0  0  1  0  0  3  0  0  0  0  0  0
  189.7810  176.7830  136.9600 C   0  0  0  0  0  0  0  0  0  0  0  0
  186.5690  177.3530  145.1710 C   0  0  0  0  0  2  0  0  0  0  0  0
  185.6940  179.6580  144.6930 C   0  0  0  0  0  1  0  0  0  0  0  0
  184.2310  177.9540  145.6670 C   0  0  0  0  0  1  0  0  0  0  0  0
  185.6530  178.4810  145.6590 C   0  0  0  0  0  0  0  0  0  0  0  0
  186.0320  178.9020  147.0570 C   0  0  0  0  0  0  0  0  0  0  0  0
  186.5780  177.9750  147.9380 O   0  0  0  0  0  1  0  0  0  0  0  0
  185.9230  180.1040  147.4220 O   0  0  0  0  0  0  0  0  0  0  0  0
  1  8  1  0  0  0  0
  2  7  1  1  0  0  0
  4  6  2  0  0  0  0
  4  9  1  0  0  0  0
  5  3  2  0  0  0  0
  5  2  1  0  0  0  0
  6 13  1  0  0  0  0
  8 23  1  1  0  0  0
  8  2  1  0  0  0  0
  9 11  2  0  0  0  0
 10  6  1  0  0  0  0
 11 12  1  0  0  0  0
 12 13  1  6  0  0  0
 12  5  1  0  0  0  0
 13  1  2  0  0  0  0
 16 22  1  0  0  0  0
 17 20  1  6  0  0  0
 17 18  1  0  0  0  0
 18 10  1  1  0  0  0
 19 18  1  0  0  0  0
 20 18  1  0  0  0  0
 21 14  1  6  0  0  0
 21 22  1  0  0  0  0
 21 17  1  0  0  0  0
 22 15  1  0  0  0  0
 22 19  1  0  0  0  0
 23 26  1  0  0  0  0
 24 26  1  0  0  0  0
 26 25  1  0  0  0  0
 26 27  1  0  0  0  0
 27 29  2  0  0  0  0
 27 28  1  0  0  0  0
M  END
>  <MODEL>
8

>  <REMARK>
 VINA RESULT:      -7.7      4.013      7.421
  Name = 
  4 active torsions:
  status: ('A' for Active; 'I' for Inactive)
    1  A    between atoms: C_2  and  C_28
    2  A    between atoms: C_15  and  N_20
    3  A    between atoms: C_17  and  C_18
    4  A    between atoms: C_18  and  C_28
                            x       y       z     vdW  Elec       q    Type
                         _______ _______ _______ _____ _____    ______ ____

>  <TORSDO>
F 4

$$$$
=
 OpenBabel11062416203D

 29 32  0  0  1  0  0  0  0  0999 V2000
  190.3950  176.7920  139.9840 C   0  0  0  0  0  3  0  0  0  0  0  0
  188.5080  178.3600  140.5280 C   0  0  1  0  0  3  0  0  0  0  0  0
  187.0770  178.7060  138.6750 O   0  0  0  0  0  0  0  0  0  0  0  0
  190.4540  176.0920  136.4520 N   0  0  0  0  0  0  0  0  0  0  0  0
  187.9660  178.0210  139.1570 C   0  0  0  0  0  0  0  0  0  0  0  0
  190.8480  176.0710  137.6910 C   0  0  0  0  0  0  0  0  0  0  0  0
  187.4510  178.5240  141.4260 O   0  0  0  0  0  1  0  0  0  0  0  0
  189.4590  177.2760  141.0550 C   0  0  2  0  0  3  0  0  0  0  0  0
  189.1730  176.6080  136.0650 C   0  0  0  0  0  3  0  0  0  0  0  0
  192.1510  175.5820  138.0270 N   0  0  0  0  0  2  0  0  0  0  0  0
  188.2970  176.9750  136.9550 N   0  0  0  0  0  0  0  0  0  0  0  0
  188.5000  176.8250  138.4000 C   0  0  1  0  0  3  0  0  0  0  0  0
  189.9510  176.5740  138.7440 C   0  0  0  0  0  0  0  0  0  0  0  0
  195.7170  174.8760  135.1660 O   0  0  0  0  0  1  0  0  0  0  0  0
  195.0680  172.6330  138.0130 C   0  0  0  0  0  1  0  0  0  0  0  0
  195.2870  172.2010  135.6000 C   0  0  0  0  0  1  0  0  0  0  0  0
  194.4380  175.6310  137.0540 C   0  0  2  0  0  3  0  0  0  0  0  0
  193.0830  175.0600  137.0390 C   0  0  1  0  0  0  0  0  0  0  0  0
  192.9600  173.3490  136.4570 S   0  0  0  0  0  0  0  0  0  0  0  0
  193.4730  175.9980  136.0770 O   0  0  0  0  0  0  0  0  0  0  0  0
  195.3930  174.5760  136.4950 C   0  0  1  0  0  3  0  0  0  0  0  0
  194.7590  173.1840  136.6320 C   0  0  0  0  0  0  0  0  0  0  0  0
  190.2500  177.8020  142.2500 C   0  0  0  0  0  2  0  0  0  0  0  0
  189.1880  178.0090  144.5170 C   0  0  0  0  0  1  0  0  0  0  0  0
  189.0070  175.9220  143.2490 C   0  0  0  0  0  1  0  0  0  0  0  0
  189.9330  177.0810  143.5660 C   0  0  0  0  0  0  0  0  0  0  0  0
  191.1960  176.5470  144.1940 C   0  0  0  0  0  0  0  0  0  0  0  0
  191.6860  177.1200  145.3630 O   0  0  0  0  0  1  0  0  0  0  0  0
  191.7820  175.5410  143.7110 O   0  0  0  0  0  0  0  0  0  0  0  0
  1  8  1  0  0  0  0
  2  8  1  0  0  0  0
  2  7  1  1  0  0  0
  3  5  2  0  0  0  0
  4  6  2  0  0  0  0
  5  2  1  0  0  0  0
  6 10  1  0  0  0  0
  6 13  1  0  0  0  0
  8 23  1  1  0  0  0
  9  4  1  0  0  0  0
  9 11  2  0  0  0  0
 12 11  1  6  0  0  0
 12 13  1  0  0  0  0
 12  5  1  0  0  0  0
 13  1  2  0  0  0  0
 16 22  1  0  0  0  0
 17 20  1  6  0  0  0
 18 17  1  0  0  0  0
 18 10  1  1  0  0  0
 19 22  1  0  0  0  0
 19 18  1  0  0  0  0
 20 18  1  0  0  0  0
 21 14  1  6  0  0  0
 21 22  1  0  0  0  0
 21 17  1  0  0  0  0
 22 15  1  0  0  0  0
 23 26  1  0  0  0  0
 25 26  1  0  0  0  0
 26 27  1  0  0  0  0
 26 24  1  0  0  0  0
 27 28  1  0  0  0  0
 29 27  2  0  0  0  0
M  END
>  <MODEL>
9

>  <REMARK>
 VINA RESULT:      -7.6      5.738      8.673
  Name = 
  4 active torsions:
  status: ('A' for Active; 'I' for Inactive)
    1  A    between atoms: C_2  and  C_28
    2  A    between atoms: C_15  and  N_20
    3  A    between atoms: C_17  and  C_18
    4  A    between atoms: C_18  and  C_28
                            x       y       z     vdW  Elec       q    Type
                         _______ _______ _______ _____ _____    ______ ____

>  <TORSDO>
F 4

$$$$
