=
 OpenBabel11062416453D

 28 29  0  0  1  0  0  0  0  0999 V2000
  186.2540  178.2290  142.5980 C   0  0  0  0  0  0  0  0  0  0  0  0
  184.4360  179.0590  144.9350 C   0  0  0  0  0  3  0  0  0  0  0  0
  183.4840  178.9170  143.8180 C   0  0  0  0  0  3  0  0  0  0  0  0
  183.8010  178.7460  142.5280 C   0  0  0  0  0  3  0  0  0  0  0  0
  185.1640  178.6750  141.9650 C   0  0  0  0  0  3  0  0  0  0  0  0
  185.6410  178.4940  144.9880 C   0  0  0  0  0  3  0  0  0  0  0  0
  186.1460  177.5520  143.9420 C   0  0  2  0  0  3  0  0  0  0  0  0
  187.5560  178.2760  141.8610 C   0  0  0  0  0  2  0  0  0  0  0  0
  187.3180  178.5910  140.3920 C   0  0  0  0  0  2  0  0  0  0  0  0
  188.1920  177.7150  139.5140 C   0  0  0  0  0  2  0  0  0  0  0  0
  189.5670  178.3370  139.3480 C   0  0  0  0  0  2  0  0  0  0  0  0
  191.9710  177.7760  140.3960 O   0  0  0  0  0  0  0  0  0  0  0  0
  190.2630  176.0180  140.5110 O   0  0  0  0  0  0  0  0  0  0  0  0
  190.8310  177.1240  139.6650 S   0  0  0  0  0  0  0  0  0  0  0  0
  191.4230  176.4570  138.1120 C   0  0  2  0  0  3  0  0  0  0  0  0
  191.0750  174.1270  137.7740 O   0  0  0  0  0  1  0  0  0  0  0  0
  190.5960  175.2870  137.6920 C   0  0  0  0  0  0  0  0  0  0  0  0
  189.3080  175.4700  137.1990 O   0  0  0  0  0  0  0  0  0  0  0  0
  193.6840  176.9630  137.5210 O   0  0  0  0  0  1  0  0  0  0  0  0
  192.8860  176.0520  138.2130 C   0  0  0  0  0  2  0  0  0  0  0  0
  187.4580  176.9190  144.4030 C   0  0  0  0  0  2  0  0  0  0  0  0
  187.9020  177.4760  145.7510 C   0  0  0  0  0  2  0  0  0  0  0  0
  191.1460  176.8090  147.5720 C   0  0  0  0  0  3  0  0  0  0  0  0
  189.3410  177.1870  146.0200 C   0  0  0  0  0  0  0  0  0  0  0  0
  189.7950  177.0700  147.3360 C   0  0  0  0  0  3  0  0  0  0  0  0
  191.5860  176.7840  145.2370 C   0  0  0  0  0  3  0  0  0  0  0  0
  192.0080  176.6740  146.5260 N   0  0  0  0  0  0  0  0  0  0  0  0
  190.2420  177.0440  144.9600 C   0  0  0  0  0  3  0  0  0  0  0  0
  1  7  1  0  0  0  0
  2  6  2  0  0  0  0
  3  2  1  0  0  0  0
  4  3  2  0  0  0  0
  5  4  1  0  0  0  0
  5  1  2  0  0  0  0
  7 21  1  1  0  0  0
  7  6  1  0  0  0  0
  8  1  1  0  0  0  0
  9  8  1  0  0  0  0
 10  9  1  0  0  0  0
 11 10  1  0  0  0  0
 11 14  1  0  0  0  0
 14 12  2  0  0  0  0
 14 13  2  0  0  0  0
 15 20  1  1  0  0  0
 15 14  1  0  0  0  0
 17 16  1  0  0  0  0
 17 15  1  0  0  0  0
 18 17  2  0  0  0  0
 19 20  1  0  0  0  0
 21 22  1  0  0  0  0
 22 24  1  0  0  0  0
 24 25  2  0  0  0  0
 25 23  1  0  0  0  0
 26 27  1  0  0  0  0
 27 23  2  0  0  0  0
 28 26  2  0  0  0  0
 28 24  1  0  0  0  0
M  END
>  <MODEL>
1

>  <REMARK>
 VINA RESULT:      -8.0      0.000      0.000
  Name = 
  11 active torsions:
  status: ('A' for Active; 'I' for Inactive)
    1  A    between atoms: C_2  and  C_22
    2  A    between atoms: C_3  and  C_4
    3  A    between atoms: C_3  and  C_7
    4  A    between atoms: C_4  and  C_12
    5  A    between atoms: C_10  and  C_24
    6  A    between atoms: C_12  and  C_20
    7  A    between atoms: C_20  and  S_27
    8  A    between atoms: C_22  and  C_26
    9  A    between atoms: C_24  and  C_25
   10  A    between atoms: C_24  and  S_27
   11  A    between atoms: C_26  and  C_28
                            x       y       z     vdW  Elec       q    Type
                         _______ _______ _______ _____ _____    ______ ____

>  <TORSDO>
F 11

$$$$
=
 OpenBabel11062416453D

 28 29  0  0  1  0  0  0  0  0999 V2000
  186.2520  177.8740  143.1410 C   0  0  0  0  0  0  0  0  0  0  0  0
  184.2830  179.4990  144.8560 C   0  0  0  0  0  3  0  0  0  0  0  0
  183.4860  179.1860  143.6560 C   0  0  0  0  0  3  0  0  0  0  0  0
  183.9480  178.6470  142.5200 C   0  0  0  0  0  3  0  0  0  0  0  0
  185.3460  178.2670  142.2380 C   0  0  0  0  0  3  0  0  0  0  0  0
  185.3630  178.8260  145.2520 C   0  0  0  0  0  3  0  0  0  0  0  0
  185.8490  177.5900  144.5670 C   0  0  2  0  0  3  0  0  0  0  0  0
  187.6330  177.5690  142.6530 C   0  0  0  0  0  2  0  0  0  0  0  0
  187.9340  178.3610  141.3900 C   0  0  0  0  0  2  0  0  0  0  0  0
  188.6480  177.4880  140.3750 C   0  0  0  0  0  2  0  0  0  0  0  0
  189.4660  178.3430  139.4240 C   0  0  0  0  0  2  0  0  0  0  0  0
  188.5520  179.6190  137.2490 O   0  0  0  0  0  0  0  0  0  0  0  0
  189.7890  177.5320  136.8840 O   0  0  0  0  0  0  0  0  0  0  0  0
  188.8020  178.2330  137.7750 S   0  0  0  0  0  0  0  0  0  0  0  0
  187.2610  177.3230  137.8110 C   0  0  2  0  0  3  0  0  0  0  0  0
  187.6750  175.0630  137.1870 O   0  0  0  0  0  1  0  0  0  0  0  0
  187.2880  176.2030  136.8230 C   0  0  0  0  0  0  0  0  0  0  0  0
  186.9000  176.4130  135.5040 O   0  0  0  0  0  0  0  0  0  0  0  0
  185.6360  178.8260  138.7150 O   0  0  0  0  0  1  0  0  0  0  0  0
  186.0790  178.2380  137.5300 C   0  0  0  0  0  2  0  0  0  0  0  0
  186.9660  176.9460  145.3880 C   0  0  0  0  0  2  0  0  0  0  0  0
  187.7960  177.9950  146.1200 C   0  0  0  0  0  2  0  0  0  0  0  0
  191.4260  177.4400  145.2250 C   0  0  0  0  0  3  0  0  0  0  0  0
  189.2310  177.5990  146.2100 C   0  0  0  0  0  0  0  0  0  0  0  0
  190.0870  177.8250  145.1290 C   0  0  0  0  0  3  0  0  0  0  0  0
  191.0690  176.6220  147.4260 C   0  0  0  0  0  3  0  0  0  0  0  0
  191.8860  176.8500  146.3620 N   0  0  0  0  0  0  0  0  0  0  0  0
  189.7240  176.9920  147.3700 C   0  0  0  0  0  3  0  0  0  0  0  0
  1  7  1  0  0  0  0
  2  6  2  0  0  0  0
  3  2  1  0  0  0  0
  4  3  2  0  0  0  0
  5  4  1  0  0  0  0
  5  1  2  0  0  0  0
  7  6  1  0  0  0  0
  7 21  1  1  0  0  0
  8  1  1  0  0  0  0
  9  8  1  0  0  0  0
 10  9  1  0  0  0  0
 11 10  1  0  0  0  0
 12 14  2  0  0  0  0
 13 14  2  0  0  0  0
 14 15  1  0  0  0  0
 14 11  1  0  0  0  0
 15 20  1  6  0  0  0
 17 16  1  0  0  0  0
 17 15  1  0  0  0  0
 18 17  2  0  0  0  0
 20 19  1  0  0  0  0
 21 22  1  0  0  0  0
 22 24  1  0  0  0  0
 23 27  1  0  0  0  0
 24 28  2  0  0  0  0
 25 23  2  0  0  0  0
 25 24  1  0  0  0  0
 27 26  2  0  0  0  0
 28 26  1  0  0  0  0
M  END
>  <MODEL>
2

>  <REMARK>
 VINA RESULT:      -7.9      2.079      3.011
  Name = 
  11 active torsions:
  status: ('A' for Active; 'I' for Inactive)
    1  A    between atoms: C_2  and  C_22
    2  A    between atoms: C_3  and  C_4
    3  A    between atoms: C_3  and  C_7
    4  A    between atoms: C_4  and  C_12
    5  A    between atoms: C_10  and  C_24
    6  A    between atoms: C_12  and  C_20
    7  A    between atoms: C_20  and  S_27
    8  A    between atoms: C_22  and  C_26
    9  A    between atoms: C_24  and  C_25
   10  A    between atoms: C_24  and  S_27
   11  A    between atoms: C_26  and  C_28
                            x       y       z     vdW  Elec       q    Type
                         _______ _______ _______ _____ _____    ______ ____

>  <TORSDO>
F 11

$$$$
=
 OpenBabel11062416453D

 28 29  0  0  1  0  0  0  0  0999 V2000
  188.0190  177.1200  144.7390 C   0  0  0  0  0  0  0  0  0  0  0  0
  187.0110  177.8680  147.5470 C   0  0  0  0  0  3  0  0  0  0  0  0
  188.4640  178.0980  147.6520 C   0  0  0  0  0  3  0  0  0  0  0  0
  189.3860  177.7440  146.7470 C   0  0  0  0  0  3  0  0  0  0  0  0
  189.1360  177.0450  145.4710 C   0  0  0  0  0  3  0  0  0  0  0  0
  186.3240  177.8310  146.4050 C   0  0  0  0  0  3  0  0  0  0  0  0
  186.9410  178.1200  145.0740 C   0  0  2  0  0  3  0  0  0  0  0  0
  187.9500  176.3000  143.4890 C   0  0  0  0  0  2  0  0  0  0  0  0
  189.1410  176.6020  142.5930 C   0  0  0  0  0  2  0  0  0  0  0  0
  188.8670  177.8300  141.7450 C   0  0  0  0  0  2  0  0  0  0  0  0
  189.6040  177.7340  140.4210 C   0  0  0  0  0  2  0  0  0  0  0  0
  187.1470  178.4600  139.6300 O   0  0  0  0  0  0  0  0  0  0  0  0
  189.0390  179.2880  138.3050 O   0  0  0  0  0  0  0  0  0  0  0  0
  188.5010  178.1150  139.0760 S   0  0  0  0  0  0  0  0  0  0  0  0
  188.3590  176.6920  137.9990 C   0  0  2  0  0  3  0  0  0  0  0  0
  190.2880  176.8360  136.6100 O   0  0  0  0  0  0  0  0  0  0  0  0
  189.7080  176.2340  137.5510 C   0  0  0  0  0  0  0  0  0  0  0  0
  190.3230  175.1430  138.1560 O   0  0  0  0  0  1  0  0  0  0  0  0
  187.1750  175.8310  136.1090 O   0  0  0  0  0  1  0  0  0  0  0  0
  187.4880  177.0060  136.7920 C   0  0  0  0  0  2  0  0  0  0  0  0
  185.8520  178.2080  144.0060 C   0  0  0  0  0  2  0  0  0  0  0  0
  184.5620  178.7930  144.5710 C   0  0  0  0  0  2  0  0  0  0  0  0
  181.1190  178.9210  143.0170 C   0  0  0  0  0  3  0  0  0  0  0  0
  183.4630  178.7840  143.5620 C   0  0  0  0  0  0  0  0  0  0  0  0
  182.1370  178.9410  143.9730 C   0  0  0  0  0  3  0  0  0  0  0  0
  182.7060  178.5940  141.2800 C   0  0  0  0  0  3  0  0  0  0  0  0
  181.4220  178.7480  141.7010 N   0  0  0  0  0  0  0  0  0  0  0  0
  183.7530  178.6080  142.2050 C   0  0  0  0  0  3  0  0  0  0  0  0
  1  7  1  0  0  0  0
  1  5  2  0  0  0  0
  2  3  1  0  0  0  0
  4  3  2  0  0  0  0
  5  4  1  0  0  0  0
  6  2  2  0  0  0  0
  7 21  1  6  0  0  0
  7  6  1  0  0  0  0
  8  1  1  0  0  0  0
  9  8  1  0  0  0  0
 10  9  1  0  0  0  0
 11 10  1  0  0  0  0
 13 14  2  0  0  0  0
 14 12  2  0  0  0  0
 14 11  1  0  0  0  0
 15 20  1  6  0  0  0
 15 14  1  0  0  0  0
 16 17  2  0  0  0  0
 17 15  1  0  0  0  0
 17 18  1  0  0  0  0
 19 20  1  0  0  0  0
 21 22  1  0  0  0  0
 23 25  1  0  0  0  0
 24 25  2  0  0  0  0
 24 22  1  0  0  0  0
 26 27  1  0  0  0  0
 26 28  2  0  0  0  0
 27 23  2  0  0  0  0
 28 24  1  0  0  0  0
M  END
>  <MODEL>
3

>  <REMARK>
 VINA RESULT:      -7.9      2.918      5.589
  Name = 
  11 active torsions:
  status: ('A' for Active; 'I' for Inactive)
    1  A    between atoms: C_2  and  C_22
    2  A    between atoms: C_3  and  C_4
    3  A    between atoms: C_3  and  C_7
    4  A    between atoms: C_4  and  C_12
    5  A    between atoms: C_10  and  C_24
    6  A    between atoms: C_12  and  C_20
    7  A    between atoms: C_20  and  S_27
    8  A    between atoms: C_22  and  C_26
    9  A    between atoms: C_24  and  C_25
   10  A    between atoms: C_24  and  S_27
   11  A    between atoms: C_26  and  C_28
                            x       y       z     vdW  Elec       q    Type
                         _______ _______ _______ _____ _____    ______ ____

>  <TORSDO>
F 11

$$$$
=
 OpenBabel11062416453D

 28 29  0  0  1  0  0  0  0  0999 V2000
  188.4410  177.0290  144.4460 C   0  0  0  0  0  0  0  0  0  0  0  0
  187.4750  177.5010  147.3270 C   0  0  0  0  0  3  0  0  0  0  0  0
  188.9200  177.7830  147.4190 C   0  0  0  0  0  3  0  0  0  0  0  0
  189.8320  177.5440  146.4680 C   0  0  0  0  0  3  0  0  0  0  0  0
  189.5790  176.9420  145.1440 C   0  0  0  0  0  3  0  0  0  0  0  0
  186.7620  177.5290  146.2020 C   0  0  0  0  0  3  0  0  0  0  0  0
  187.3320  177.9510  144.8860 C   0  0  2  0  0  3  0  0  0  0  0  0
  188.3740  176.3110  143.1340 C   0  0  0  0  0  2  0  0  0  0  0  0
  189.7560  176.2330  142.5040 C   0  0  0  0  0  2  0  0  0  0  0  0
  189.9540  177.3700  141.5190 C   0  0  0  0  0  2  0  0  0  0  0  0
  188.6560  177.6740  140.7940 C   0  0  0  0  0  2  0  0  0  0  0  0
  189.0660  179.2440  138.6580 O   0  0  0  0  0  0  0  0  0  0  0  0
  190.2250  177.0810  138.6960 O   0  0  0  0  0  0  0  0  0  0  0  0
  188.9470  177.7950  139.0410 S   0  0  0  0  0  0  0  0  0  0  0  0
  187.5790  177.0560  138.1560 C   0  0  2  0  0  3  0  0  0  0  0  0
  188.4430  176.9170  135.9420 O   0  0  0  0  0  0  0  0  0  0  0  0
  188.0690  176.2940  136.9690 C   0  0  0  0  0  0  0  0  0  0  0  0
  188.1040  174.9030  136.9840 O   0  0  0  0  0  1  0  0  0  0  0  0
  185.9310  178.6500  138.8320 O   0  0  0  0  0  1  0  0  0  0  0  0
  186.5760  178.1130  137.7190 C   0  0  0  0  0  2  0  0  0  0  0  0
  186.2140  178.0800  143.8530 C   0  0  0  0  0  2  0  0  0  0  0  0
  184.9140  178.5550  144.4930 C   0  0  0  0  0  2  0  0  0  0  0  0
  183.0170  178.4920  141.2250 C   0  0  0  0  0  3  0  0  0  0  0  0
  183.8050  178.6320  143.4990 C   0  0  0  0  0  0  0  0  0  0  0  0
  184.0640  178.4070  142.1450 C   0  0  0  0  0  3  0  0  0  0  0  0
  181.4850  179.0160  142.9640 C   0  0  0  0  0  3  0  0  0  0  0  0
  181.7590  178.7930  141.6500 N   0  0  0  0  0  0  0  0  0  0  0  0
  182.5050  178.9390  143.9150 C   0  0  0  0  0  3  0  0  0  0  0  0
  1  7  1  0  0  0  0
  1  5  2  0  0  0  0
  2  3  1  0  0  0  0
  4  3  2  0  0  0  0
  5  4  1  0  0  0  0
  6  2  2  0  0  0  0
  7 21  1  6  0  0  0
  7  6  1  0  0  0  0
  8  1  1  0  0  0  0
  9  8  1  0  0  0  0
 10  9  1  0  0  0  0
 11 10  1  0  0  0  0
 12 14  2  0  0  0  0
 13 14  2  0  0  0  0
 14 11  1  0  0  0  0
 15 20  1  6  0  0  0
 15 14  1  0  0  0  0
 16 17  2  0  0  0  0
 17 18  1  0  0  0  0
 17 15  1  0  0  0  0
 20 19  1  0  0  0  0
 21 22  1  0  0  0  0
 23 27  2  0  0  0  0
 23 25  1  0  0  0  0
 24 28  1  0  0  0  0
 24 22  1  0  0  0  0
 25 24  2  0  0  0  0
 26 28  2  0  0  0  0
 27 26  1  0  0  0  0
M  END
>  <MODEL>
4

>  <REMARK>
 VINA RESULT:      -7.8      2.948      5.684
  Name = 
  11 active torsions:
  status: ('A' for Active; 'I' for Inactive)
    1  A    between atoms: C_2  and  C_22
    2  A    between atoms: C_3  and  C_4
    3  A    between atoms: C_3  and  C_7
    4  A    between atoms: C_4  and  C_12
    5  A    between atoms: C_10  and  C_24
    6  A    between atoms: C_12  and  C_20
    7  A    between atoms: C_20  and  S_27
    8  A    between atoms: C_22  and  C_26
    9  A    between atoms: C_24  and  C_25
   10  A    between atoms: C_24  and  S_27
   11  A    between atoms: C_26  and  C_28
                            x       y       z     vdW  Elec       q    Type
                         _______ _______ _______ _____ _____    ______ ____

>  <TORSDO>
F 11

$$$$
=
 OpenBabel11062416453D

 28 29  0  0  1  0  0  0  0  0999 V2000
  189.8280  176.6490  144.2650 C   0  0  0  0  0  0  0  0  0  0  0  0
  189.6570  176.8920  147.3260 C   0  0  0  0  0  3  0  0  0  0  0  0
  191.1110  176.8920  147.0810 C   0  0  0  0  0  3  0  0  0  0  0  0
  191.7160  176.6230  145.9160 C   0  0  0  0  0  3  0  0  0  0  0  0
  191.0500  176.2630  144.6490 C   0  0  0  0  0  3  0  0  0  0  0  0
  188.7300  177.2020  146.4200 C   0  0  0  0  0  3  0  0  0  0  0  0
  189.0640  177.6890  145.0470 C   0  0  2  0  0  3  0  0  0  0  0  0
  189.3180  176.1410  142.9530 C   0  0  0  0  0  2  0  0  0  0  0  0
  190.3470  176.3790  141.8590 C   0  0  0  0  0  2  0  0  0  0  0  0
  190.1730  177.7630  141.2610 C   0  0  0  0  0  2  0  0  0  0  0  0
  188.8150  177.8840  140.5930 C   0  0  0  0  0  2  0  0  0  0  0  0
  189.0660  179.3870  138.3850 O   0  0  0  0  0  0  0  0  0  0  0  0
  190.2810  177.2560  138.4310 O   0  0  0  0  0  0  0  0  0  0  0  0
  189.0060  177.9500  138.8230 S   0  0  0  0  0  0  0  0  0  0  0  0
  187.6110  177.1470  138.0410 C   0  0  2  0  0  3  0  0  0  0  0  0
  188.1170  175.0720  136.9900 O   0  0  0  0  0  1  0  0  0  0  0  0
  188.0600  176.3230  136.8800 C   0  0  0  0  0  0  0  0  0  0  0  0
  188.4270  176.9290  135.6820 O   0  0  0  0  0  0  0  0  0  0  0  0
  185.8250  178.6020  138.6800 O   0  0  0  0  0  1  0  0  0  0  0  0
  186.5760  178.1660  137.5890 C   0  0  0  0  0  2  0  0  0  0  0  0
  187.7940  178.1580  144.3390 C   0  0  0  0  0  2  0  0  0  0  0  0
  186.5620  177.9620  145.2160 C   0  0  0  0  0  2  0  0  0  0  0  0
  184.0700  178.4620  142.4180 C   0  0  0  0  0  3  0  0  0  0  0  0
  185.3050  178.2860  144.4810 C   0  0  0  0  0  0  0  0  0  0  0  0
  185.2520  178.1460  143.0920 C   0  0  0  0  0  3  0  0  0  0  0  0
  183.0160  179.0450  144.4660 C   0  0  0  0  0  3  0  0  0  0  0  0
  182.9860  178.9030  143.1130 N   0  0  0  0  0  0  0  0  0  0  0  0
  184.1790  178.7390  145.1770 C   0  0  0  0  0  3  0  0  0  0  0  0
  1  5  2  0  0  0  0
  1  7  1  0  0  0  0
  3  2  1  0  0  0  0
  4  3  2  0  0  0  0
  5  4  1  0  0  0  0
  6  2  2  0  0  0  0
  7 21  1  6  0  0  0
  7  6  1  0  0  0  0
  8  1  1  0  0  0  0
  9  8  1  0  0  0  0
 10  9  1  0  0  0  0
 11 10  1  0  0  0  0
 12 14  2  0  0  0  0
 13 14  2  0  0  0  0
 14 11  1  0  0  0  0
 15 20  1  6  0  0  0
 15 14  1  0  0  0  0
 17 16  1  0  0  0  0
 17 15  1  0  0  0  0
 18 17  2  0  0  0  0
 20 19  1  0  0  0  0
 21 22  1  0  0  0  0
 23 25  2  0  0  0  0
 23 27  1  0  0  0  0
 24 28  2  0  0  0  0
 24 22  1  0  0  0  0
 25 24  1  0  0  0  0
 26 28  1  0  0  0  0
 27 26  2  0  0  0  0
M  END
>  <MODEL>
5

>  <REMARK>
 VINA RESULT:      -7.7      2.696      5.500
  Name = 
  11 active torsions:
  status: ('A' for Active; 'I' for Inactive)
    1  A    between atoms: C_2  and  C_22
    2  A    between atoms: C_3  and  C_4
    3  A    between atoms: C_3  and  C_7
    4  A    between atoms: C_4  and  C_12
    5  A    between atoms: C_10  and  C_24
    6  A    between atoms: C_12  and  C_20
    7  A    between atoms: C_20  and  S_27
    8  A    between atoms: C_22  and  C_26
    9  A    between atoms: C_24  and  C_25
   10  A    between atoms: C_24  and  S_27
   11  A    between atoms: C_26  and  C_28
                            x       y       z     vdW  Elec       q    Type
                         _______ _______ _______ _____ _____    ______ ____

>  <TORSDO>
F 11

$$$$
=
 OpenBabel11062416453D

 28 29  0  0  1  0  0  0  0  0999 V2000
  185.5010  178.4640  143.1130 C   0  0  0  0  0  0  0  0  0  0  0  0
  184.2330  178.9980  145.8630 C   0  0  0  0  0  3  0  0  0  0  0  0
  183.0590  178.7330  145.0100 C   0  0  0  0  0  3  0  0  0  0  0  0
  183.0620  178.6240  143.6750 C   0  0  0  0  0  3  0  0  0  0  0  0
  184.2360  178.7560  142.7900 C   0  0  0  0  0  3  0  0  0  0  0  0
  185.4790  178.6110  145.5890 C   0  0  0  0  0  3  0  0  0  0  0  0
  185.8270  177.7630  144.4080 C   0  0  2  0  0  3  0  0  0  0  0  0
  186.5560  178.7060  142.0790 C   0  0  0  0  0  2  0  0  0  0  0  0
  185.9160  179.0090  140.7330 C   0  0  0  0  0  2  0  0  0  0  0  0
  186.5990  178.2190  139.6320 C   0  0  0  0  0  2  0  0  0  0  0  0
  188.1070  178.2590  139.8090 C   0  0  0  0  0  2  0  0  0  0  0  0
  188.0770  177.0540  137.4130 O   0  0  0  0  0  0  0  0  0  0  0  0
  189.0750  179.2930  137.5270 O   0  0  0  0  0  0  0  0  0  0  0  0
  188.9150  177.9820  138.2470 S   0  0  0  0  0  0  0  0  0  0  0  0
  190.5210  177.2430  138.5280 C   0  0  2  0  0  3  0  0  0  0  0  0
  191.1040  176.3750  136.3890 O   0  0  0  0  0  0  0  0  0  0  0  0
  190.7600  176.1210  137.5720 C   0  0  0  0  0  0  0  0  0  0  0  0
  190.5930  174.8000  137.9750 O   0  0  0  0  0  1  0  0  0  0  0  0
  191.5970  177.5030  140.6470 O   0  0  0  0  0  1  0  0  0  0  0  0
  190.6500  176.7450  139.9600 C   0  0  0  0  0  2  0  0  0  0  0  0
  187.2870  177.3210  144.4990 C   0  0  0  0  0  2  0  0  0  0  0  0
  187.9630  177.8820  145.7450 C   0  0  0  0  0  2  0  0  0  0  0  0
  191.4530  176.6990  144.9060 C   0  0  0  0  0  3  0  0  0  0  0  0
  189.3600  177.3780  145.8900 C   0  0  0  0  0  0  0  0  0  0  0  0
  190.1510  177.1800  144.7550 C   0  0  0  0  0  3  0  0  0  0  0  0
  191.1860  176.6120  147.2650 C   0  0  0  0  0  3  0  0  0  0  0  0
  191.9400  176.4260  146.1480 N   0  0  0  0  0  0  0  0  0  0  0  0
  189.8790  177.0920  147.1570 C   0  0  0  0  0  3  0  0  0  0  0  0
  1  7  1  0  0  0  0
  3  2  1  0  0  0  0
  4  3  2  0  0  0  0
  5  1  2  0  0  0  0
  5  4  1  0  0  0  0
  6  2  2  0  0  0  0
  7 21  1  6  0  0  0
  7  6  1  0  0  0  0
  8  1  1  0  0  0  0
  9  8  1  0  0  0  0
 10 11  1  0  0  0  0
 10  9  1  0  0  0  0
 12 14  2  0  0  0  0
 13 14  2  0  0  0  0
 14 15  1  0  0  0  0
 14 11  1  0  0  0  0
 15 20  1  1  0  0  0
 16 17  2  0  0  0  0
 17 18  1  0  0  0  0
 17 15  1  0  0  0  0
 20 19  1  0  0  0  0
 21 22  1  0  0  0  0
 22 24  1  0  0  0  0
 23 27  1  0  0  0  0
 24 28  2  0  0  0  0
 25 23  2  0  0  0  0
 25 24  1  0  0  0  0
 27 26  2  0  0  0  0
 28 26  1  0  0  0  0
M  END
>  <MODEL>
6

>  <REMARK>
 VINA RESULT:      -7.7      1.303      2.131
  Name = 
  11 active torsions:
  status: ('A' for Active; 'I' for Inactive)
    1  A    between atoms: C_2  and  C_22
    2  A    between atoms: C_3  and  C_4
    3  A    between atoms: C_3  and  C_7
    4  A    between atoms: C_4  and  C_12
    5  A    between atoms: C_10  and  C_24
    6  A    between atoms: C_12  and  C_20
    7  A    between atoms: C_20  and  S_27
    8  A    between atoms: C_22  and  C_26
    9  A    between atoms: C_24  and  C_25
   10  A    between atoms: C_24  and  S_27
   11  A    between atoms: C_26  and  C_28
                            x       y       z     vdW  Elec       q    Type
                         _______ _______ _______ _____ _____    ______ ____

>  <TORSDO>
F 11

$$$$
=
 OpenBabel11062416453D

 28 29  0  0  1  0  0  0  0  0999 V2000
  186.7720  177.8600  145.2400 C   0  0  0  0  0  0  0  0  0  0  0  0
  189.4740  177.8680  146.7070 C   0  0  0  0  0  3  0  0  0  0  0  0
  188.5030  177.8370  147.8160 C   0  0  0  0  0  3  0  0  0  0  0  0
  187.1780  178.0060  147.7100 C   0  0  0  0  0  3  0  0  0  0  0  0
  186.4270  178.2670  146.4660 C   0  0  0  0  0  3  0  0  0  0  0  0
  189.2160  177.4930  145.4550 C   0  0  0  0  0  3  0  0  0  0  0  0
  187.9120  176.8930  145.0370 C   0  0  2  0  0  3  0  0  0  0  0  0
  185.8910  178.2640  144.0990 C   0  0  0  0  0  2  0  0  0  0  0  0
  184.5090  178.6420  144.6090 C   0  0  0  0  0  2  0  0  0  0  0  0
  183.5100  178.6610  143.4670 C   0  0  0  0  0  2  0  0  0  0  0  0
  184.1820  178.2510  142.1690 C   0  0  0  0  0  2  0  0  0  0  0  0
  182.6840  176.9160  140.3890 O   0  0  0  0  0  0  0  0  0  0  0  0
  181.7600  179.0040  141.2870 O   0  0  0  0  0  0  0  0  0  0  0  0
  183.0140  178.3160  140.8260 S   0  0  0  0  0  0  0  0  0  0  0  0
  183.7320  179.2140  139.4540 C   0  0  2  0  0  3  0  0  0  0  0  0
  181.9880  179.1500  137.8350 O   0  0  0  0  0  0  0  0  0  0  0  0
  182.6650  179.8540  138.6280 C   0  0  0  0  0  0  0  0  0  0  0  0
  182.4220  181.2200  138.7180 O   0  0  0  0  0  1  0  0  0  0  0  0
  185.6770  179.0020  138.0820 O   0  0  0  0  0  1  0  0  0  0  0  0
  184.5840  178.2990  138.5880 C   0  0  0  0  0  2  0  0  0  0  0  0
  188.0140  176.3790  143.6020 C   0  0  0  0  0  2  0  0  0  0  0  0
  189.4300  176.5250  143.0560 C   0  0  0  0  0  2  0  0  0  0  0  0
  190.5220  177.4750  139.5640 C   0  0  0  0  0  3  0  0  0  0  0  0
  189.4350  177.1150  141.6850 C   0  0  0  0  0  0  0  0  0  0  0  0
  190.5280  176.9080  140.8410 C   0  0  0  0  0  3  0  0  0  0  0  0
  188.3850  178.4330  139.9610 C   0  0  0  0  0  3  0  0  0  0  0  0
  189.4600  178.2200  139.1540 N   0  0  0  0  0  0  0  0  0  0  0  0
  188.3530  177.8830  141.2440 C   0  0  0  0  0  3  0  0  0  0  0  0
  1  5  2  0  0  0  0
  2  3  1  0  0  0  0
  4  3  2  0  0  0  0
  5  4  1  0  0  0  0
  6  2  2  0  0  0  0
  7 21  1  6  0  0  0
  7  1  1  0  0  0  0
  7  6  1  0  0  0  0
  8  9  1  0  0  0  0
  8  1  1  0  0  0  0
 10  9  1  0  0  0  0
 11 10  1  0  0  0  0
 12 14  2  0  0  0  0
 14 13  2  0  0  0  0
 14 11  1  0  0  0  0
 15 20  1  6  0  0  0
 15 14  1  0  0  0  0
 16 17  2  0  0  0  0
 17 18  1  0  0  0  0
 17 15  1  0  0  0  0
 19 20  1  0  0  0  0
 22 21  1  0  0  0  0
 23 25  1  0  0  0  0
 24 22  1  0  0  0  0
 25 24  2  0  0  0  0
 26 28  2  0  0  0  0
 27 23  2  0  0  0  0
 27 26  1  0  0  0  0
 28 24  1  0  0  0  0
M  END
>  <MODEL>
7

>  <REMARK>
 VINA RESULT:      -7.6      4.284      6.675
  Name = 
  11 active torsions:
  status: ('A' for Active; 'I' for Inactive)
    1  A    between atoms: C_2  and  C_22
    2  A    between atoms: C_3  and  C_4
    3  A    between atoms: C_3  and  C_7
    4  A    between atoms: C_4  and  C_12
    5  A    between atoms: C_10  and  C_24
    6  A    between atoms: C_12  and  C_20
    7  A    between atoms: C_20  and  S_27
    8  A    between atoms: C_22  and  C_26
    9  A    between atoms: C_24  and  C_25
   10  A    between atoms: C_24  and  S_27
   11  A    between atoms: C_26  and  C_28
                            x       y       z     vdW  Elec       q    Type
                         _______ _______ _______ _____ _____    ______ ____

>  <TORSDO>
F 11

$$$$
=
 OpenBabel11062416453D

 28 29  0  0  1  0  0  0  0  0999 V2000
  186.1450  178.0580  144.2560 C   0  0  0  0  0  0  0  0  0  0  0  0
  187.7680  178.1930  146.8640 C   0  0  0  0  0  3  0  0  0  0  0  0
  186.3760  178.2880  147.3430 C   0  0  0  0  0  3  0  0  0  0  0  0
  185.2890  178.4590  146.5790 C   0  0  0  0  0  3  0  0  0  0  0  0
  185.2660  178.5950  145.1090 C   0  0  0  0  0  3  0  0  0  0  0  0
  188.1380  177.6910  145.6870 C   0  0  0  0  0  3  0  0  0  0  0  0
  187.1750  177.0640  144.7300 C   0  0  2  0  0  3  0  0  0  0  0  0
  185.9660  178.3490  142.7990 C   0  0  0  0  0  2  0  0  0  0  0  0
  184.5810  178.9210  142.5410 C   0  0  0  0  0  2  0  0  0  0  0  0
  183.8270  178.0580  141.5470 C   0  0  0  0  0  2  0  0  0  0  0  0
  182.8210  178.8940  140.7760 C   0  0  0  0  0  2  0  0  0  0  0  0
  182.2340  179.2970  138.1900 O   0  0  0  0  0  0  0  0  0  0  0  0
  184.1930  180.4700  139.0880 O   0  0  0  0  0  0  0  0  0  0  0  0
  183.4090  179.1870  139.1200 S   0  0  0  0  0  0  0  0  0  0  0  0
  184.4510  177.8250  138.6070 C   0  0  2  0  0  3  0  0  0  0  0  0
  186.3010  178.3680  137.2100 O   0  0  0  0  0  0  0  0  0  0  0  0
  185.8520  178.2890  138.3820 C   0  0  0  0  0  0  0  0  0  0  0  0
  186.6690  178.6220  139.4580 O   0  0  0  0  0  1  0  0  0  0  0  0
  184.0620  175.7860  137.4210 O   0  0  0  0  0  1  0  0  0  0  0  0
  183.9100  177.1700  137.3440 C   0  0  0  0  0  2  0  0  0  0  0  0
  187.9390  176.4000  143.5850 C   0  0  0  0  0  2  0  0  0  0  0  0
  189.4400  176.6430  143.7010 C   0  0  0  0  0  2  0  0  0  0  0  0
  191.9870  177.4660  141.0330 C   0  0  0  0  0  3  0  0  0  0  0  0
  190.0550  176.9390  142.3740 C   0  0  0  0  0  0  0  0  0  0  0  0
  191.4280  177.1810  142.2800 C   0  0  0  0  0  3  0  0  0  0  0  0
  189.8590  177.2750  139.9950 C   0  0  0  0  0  3  0  0  0  0  0  0
  191.1980  177.5080  139.9240 N   0  0  0  0  0  0  0  0  0  0  0  0
  189.2610  176.9860  141.2240 C   0  0  0  0  0  3  0  0  0  0  0  0
  1  7  1  0  0  0  0
  1  5  2  0  0  0  0
  2  3  1  0  0  0  0
  4  3  2  0  0  0  0
  5  4  1  0  0  0  0
  6  2  2  0  0  0  0
  7 21  1  6  0  0  0
  7  6  1  0  0  0  0
  8  1  1  0  0  0  0
  9  8  1  0  0  0  0
 10  9  1  0  0  0  0
 11 10  1  0  0  0  0
 12 14  2  0  0  0  0
 13 14  2  0  0  0  0
 14 11  1  0  0  0  0
 15 20  1  6  0  0  0
 15 14  1  0  0  0  0
 16 17  2  0  0  0  0
 17 15  1  0  0  0  0
 17 18  1  0  0  0  0
 20 19  1  0  0  0  0
 21 22  1  0  0  0  0
 23 25  1  0  0  0  0
 24 22  1  0  0  0  0
 25 24  2  0  0  0  0
 26 28  2  0  0  0  0
 27 26  1  0  0  0  0
 27 23  2  0  0  0  0
 28 24  1  0  0  0  0
M  END
>  <MODEL>
8

>  <REMARK>
 VINA RESULT:      -7.6      3.702      5.644
  Name = 
  11 active torsions:
  status: ('A' for Active; 'I' for Inactive)
    1  A    between atoms: C_2  and  C_22
    2  A    between atoms: C_3  and  C_4
    3  A    between atoms: C_3  and  C_7
    4  A    between atoms: C_4  and  C_12
    5  A    between atoms: C_10  and  C_24
    6  A    between atoms: C_12  and  C_20
    7  A    between atoms: C_20  and  S_27
    8  A    between atoms: C_22  and  C_26
    9  A    between atoms: C_24  and  C_25
   10  A    between atoms: C_24  and  S_27
   11  A    between atoms: C_26  and  C_28
                            x       y       z     vdW  Elec       q    Type
                         _______ _______ _______ _____ _____    ______ ____

>  <TORSDO>
F 11

$$$$
=
 OpenBabel11062416453D

 28 29  0  0  1  0  0  0  0  0999 V2000
  188.5330  177.0690  144.5240 C   0  0  0  0  0  0  0  0  0  0  0  0
  187.5740  177.4970  147.4140 C   0  0  0  0  0  3  0  0  0  0  0  0
  189.0030  177.8560  147.4900 C   0  0  0  0  0  3  0  0  0  0  0  0
  189.9170  177.6640  146.5300 C   0  0  0  0  0  3  0  0  0  0  0  0
  189.6810  177.0450  145.2100 C   0  0  0  0  0  3  0  0  0  0  0  0
  186.8480  177.4830  146.2970 C   0  0  0  0  0  3  0  0  0  0  0  0
  187.3810  177.9320  144.9740 C   0  0  2  0  0  3  0  0  0  0  0  0
  188.4900  176.3450  143.2150 C   0  0  0  0  0  2  0  0  0  0  0  0
  189.6180  176.8190  142.3120 C   0  0  0  0  0  2  0  0  0  0  0  0
  189.0790  177.7210  141.2180 C   0  0  0  0  0  2  0  0  0  0  0  0
  189.2850  177.0810  139.8560 C   0  0  0  0  0  2  0  0  0  0  0  0
  186.9840  178.2520  139.1290 O   0  0  0  0  0  0  0  0  0  0  0  0
  189.0620  179.2710  138.3170 O   0  0  0  0  0  0  0  0  0  0  0  0
  188.3680  177.9710  138.6160 S   0  0  0  0  0  0  0  0  0  0  0  0
  188.2620  176.9830  137.1270 C   0  0  2  0  0  3  0  0  0  0  0  0
  187.1830  178.5860  135.7370 O   0  0  0  0  0  1  0  0  0  0  0  0
  188.1910  177.8560  135.9180 C   0  0  0  0  0  0  0  0  0  0  0  0
  189.2240  177.8610  134.9860 O   0  0  0  0  0  0  0  0  0  0  0  0
  187.4710  174.7280  137.0640 O   0  0  0  0  0  1  0  0  0  0  0  0
  187.0570  176.0550  137.1720 C   0  0  0  0  0  2  0  0  0  0  0  0
  186.2460  177.9970  143.9530 C   0  0  0  0  0  2  0  0  0  0  0  0
  185.0090  178.6720  144.5360 C   0  0  0  0  0  2  0  0  0  0  0  0
  181.5490  179.0010  143.0510 C   0  0  0  0  0  3  0  0  0  0  0  0
  183.8910  178.7220  143.5500 C   0  0  0  0  0  0  0  0  0  0  0  0
  182.5860  178.9660  143.9860 C   0  0  0  0  0  3  0  0  0  0  0  0
  183.0770  178.5600  141.2860 C   0  0  0  0  0  3  0  0  0  0  0  0
  181.8130  178.7980  141.7310 N   0  0  0  0  0  0  0  0  0  0  0  0
  184.1410  178.5180  142.1890 C   0  0  0  0  0  3  0  0  0  0  0  0
  1  7  1  0  0  0  0
  1  5  2  0  0  0  0
  2  3  1  0  0  0  0
  4  3  2  0  0  0  0
  5  4  1  0  0  0  0
  6  2  2  0  0  0  0
  7 21  1  6  0  0  0
  7  6  1  0  0  0  0
  8  1  1  0  0  0  0
  9  8  1  0  0  0  0
 10  9  1  0  0  0  0
 11 10  1  0  0  0  0
 13 14  2  0  0  0  0
 14 12  2  0  0  0  0
 14 11  1  0  0  0  0
 15 20  1  1  0  0  0
 15 14  1  0  0  0  0
 16 17  1  0  0  0  0
 17 15  1  0  0  0  0
 18 17  2  0  0  0  0
 19 20  1  0  0  0  0
 21 22  1  0  0  0  0
 23 25  1  0  0  0  0
 24 25  2  0  0  0  0
 24 22  1  0  0  0  0
 26 27  1  0  0  0  0
 26 28  2  0  0  0  0
 27 23  2  0  0  0  0
 28 24  1  0  0  0  0
M  END
>  <MODEL>
9

>  <REMARK>
 VINA RESULT:      -7.6      3.147      5.688
  Name = 
  11 active torsions:
  status: ('A' for Active; 'I' for Inactive)
    1  A    between atoms: C_2  and  C_22
    2  A    between atoms: C_3  and  C_4
    3  A    between atoms: C_3  and  C_7
    4  A    between atoms: C_4  and  C_12
    5  A    between atoms: C_10  and  C_24
    6  A    between atoms: C_12  and  C_20
    7  A    between atoms: C_20  and  S_27
    8  A    between atoms: C_22  and  C_26
    9  A    between atoms: C_24  and  C_25
   10  A    between atoms: C_24  and  S_27
   11  A    between atoms: C_26  and  C_28
                            x       y       z     vdW  Elec       q    Type
                         _______ _______ _______ _____ _____    ______ ____

>  <TORSDO>
F 11

$$$$
