=
 OpenBabel11062412433D

 32 34  0  0  1  0  0  0  0  0999 V2000
  187.5600  177.6720  143.9360 C   0  0  1  0  0  3  0  0  0  0  0  0
  185.2630  178.1740  143.0300 C   0  0  0  0  0  3  0  0  0  0  0  0
  183.5140  178.8830  144.4930 N   0  0  0  0  0  0  0  0  0  0  0  0
  185.6750  178.4170  145.4010 C   0  0  0  0  0  3  0  0  0  0  0  0
  184.3460  178.8140  145.5690 C   0  0  0  0  0  3  0  0  0  0  0  0
  183.9420  178.5730  143.2400 C   0  0  0  0  0  3  0  0  0  0  0  0
  186.1340  178.0890  144.1230 C   0  0  0  0  0  0  0  0  0  0  0  0
  187.9830  176.8900  145.0280 O   0  0  0  0  0  0  0  0  0  0  0  0
  188.6730  177.7100  145.9540 C   0  0  1  0  0  3  0  0  0  0  0  0
  187.7630  177.7890  148.2610 C   0  0  0  0  0  2  0  0  0  0  0  0
  189.2280  178.1680  148.3280 C   0  0  0  0  0  2  0  0  0  0  0  0
  188.7640  177.1050  147.3540 C   0  0  0  0  0  3  0  0  0  0  0  0
  190.0290  178.1960  145.4430 C   0  0  0  0  0  2  0  0  0  0  0  0
  190.9320  176.2670  144.3870 O   0  0  0  0  0  0  0  0  0  0  0  0
  190.9890  177.0630  145.3630 C   0  0  0  0  0  0  0  0  0  0  0  0
  191.9660  176.9170  146.3510 O   0  0  0  0  0  0  0  0  0  0  0  0
  192.0930  175.7340  147.1300 C   0  0  0  0  0  2  0  0  0  0  0  0
  193.0010  175.9460  148.1680 O   0  0  0  0  0  1  0  0  0  0  0  0
  187.7070  176.9090  142.7020 N   0  0  0  0  0  2  0  0  0  0  0  0
  188.6020  177.6510  141.8290 C   0  0  2  0  0  3  0  0  0  0  0  0
  189.2920  178.6090  142.5720 O   0  0  0  0  0  1  0  0  0  0  0  0
  187.8100  178.3310  140.7290 C   0  0  0  0  0  2  0  0  0  0  0  0
  189.1340  179.2800  138.5510 O   0  0  0  0  0  0  0  0  0  0  0  0
  188.5850  177.9930  139.1240 P   0  0  1  0  0  0  0  0  0  0  0  0
  189.8510  176.8870  139.3320 O   0  0  0  0  0  1  0  0  0  0  0  0
  184.7280  176.8470  136.0840 C   0  0  0  0  0  2  0  0  0  0  0  0
  187.3610  177.3090  138.0060 C   0  0  0  0  0  0  0  0  0  0  0  0
  186.0140  176.2590  135.4950 C   0  0  0  0  0  2  0  0  0  0  0  0
  186.1500  178.1560  137.6940 C   0  0  0  0  0  2  0  0  0  0  0  0
  187.6280  176.1230  137.4220 C   0  0  0  0  0  3  0  0  0  0  0  0
  186.7210  175.3550  136.4970 C   0  0  0  0  0  2  0  0  0  0  0  0
  184.8810  177.3330  137.5280 C   0  0  0  0  0  2  0  0  0  0  0  0
  1 19  1  6  0  0  0
  1  7  1  0  0  0  0
  1  8  1  0  0  0  0
  2  6  2  0  0  0  0
  2  7  1  0  0  0  0
  3  5  2  0  0  0  0
  4  5  1  0  0  0  0
  6  3  1  0  0  0  0
  7  4  2  0  0  0  0
  8  9  1  0  0  0  0
  9 13  1  6  0  0  0
  9 12  1  0  0  0  0
 10 11  1  0  0  0  0
 12 10  1  0  0  0  0
 12 11  1  0  0  0  0
 14 15  2  0  0  0  0
 15 13  1  0  0  0  0
 15 16  1  0  0  0  0
 16 17  1  0  0  0  0
 17 18  1  0  0  0  0
 20 21  1  1  0  0  0
 20 19  1  0  0  0  0
 22 20  1  0  0  0  0
 24 23  2  6  0  0  0
 24 25  1  0  0  0  0
 24 22  1  0  0  0  0
 26 32  1  0  0  0  0
 27 24  1  0  0  0  0
 28 26  1  0  0  0  0
 28 31  1  0  0  0  0
 29 27  1  0  0  0  0
 30 27  2  0  0  0  0
 31 30  1  0  0  0  0
 32 29  1  0  0  0  0
M  END
>  <MODEL>
1

>  <REMARK>
 VINA RESULT:      -8.0      0.000      0.000
  Name = 
  13 active torsions:
  status: ('A' for Active; 'I' for Inactive)
    1  A    between atoms: C_1  and  C_7
    2  A    between atoms: C_1  and  O_11
    3  A    between atoms: C_1  and  C_18
    4  A    between atoms: C_5  and  C_12
    5  A    between atoms: C_5  and  N_23
    6  A    between atoms: C_7  and  C_28
    7  A    between atoms: C_9  and  O_22
    8  A    between atoms: C_10  and  O_11
    9  A    between atoms: C_10  and  C_21
   10  A    between atoms: C_10  and  N_23
   11  A    between atoms: C_12  and  P_29
   12  A    between atoms: C_17  and  P_29
   13  A    between atoms: O_22  and  C_28
                            x       y       z     vdW  Elec       q    Type
                         _______ _______ _______ _____ _____    ______ ____

>  <TORSDO>
F 13

$$$$
=
 OpenBabel11062412433D

 32 34  0  0  1  0  0  0  0  0999 V2000
  187.2700  177.9840  143.7880 C   0  0  1  0  0  3  0  0  0  0  0  0
  184.9310  178.2400  142.8870 C   0  0  0  0  0  3  0  0  0  0  0  0
  183.1350  178.8470  144.3380 N   0  0  0  0  0  0  0  0  0  0  0  0
  185.3350  178.6150  145.2420 C   0  0  0  0  0  3  0  0  0  0  0  0
  183.9770  178.8970  145.4070 C   0  0  0  0  0  3  0  0  0  0  0  0
  183.5810  178.5270  143.0940 C   0  0  0  0  0  3  0  0  0  0  0  0
  185.8140  178.2770  143.9730 C   0  0  0  0  0  0  0  0  0  0  0  0
  187.7200  177.1110  144.7980 O   0  0  0  0  0  0  0  0  0  0  0  0
  188.5220  177.8300  145.7170 C   0  0  1  0  0  3  0  0  0  0  0  0
  187.6640  177.7230  148.0430 C   0  0  0  0  0  2  0  0  0  0  0  0
  189.1160  178.1490  148.1040 C   0  0  0  0  0  2  0  0  0  0  0  0
  188.6670  177.1370  147.0710 C   0  0  0  0  0  3  0  0  0  0  0  0
  189.8700  178.2620  145.1400 C   0  0  0  0  0  2  0  0  0  0  0  0
  190.4950  176.2210  144.0930 O   0  0  0  0  0  0  0  0  0  0  0  0
  190.7630  177.0840  144.9710 C   0  0  0  0  0  0  0  0  0  0  0  0
  191.9080  176.9690  145.7640 O   0  0  0  0  0  0  0  0  0  0  0  0
  192.0440  175.9710  146.7670 C   0  0  0  0  0  2  0  0  0  0  0  0
  192.2990  176.5710  148.0010 O   0  0  0  0  0  1  0  0  0  0  0  0
  187.5030  177.3810  142.4810 N   0  0  0  0  0  2  0  0  0  0  0  0
  188.3220  178.3020  141.7100 C   0  0  2  0  0  3  0  0  0  0  0  0
  187.5280  178.9580  140.7700 O   0  0  0  0  0  1  0  0  0  0  0  0
  189.4300  177.5450  141.0030 C   0  0  0  0  0  2  0  0  0  0  0  0
  187.7650  176.9690  138.9300 O   0  0  0  0  0  1  0  0  0  0  0  0
  189.1290  177.5570  139.2150 P   0  0  1  0  0  0  0  0  0  0  0  0
  189.1810  179.1520  138.6450 O   0  0  0  0  0  0  0  0  0  0  0  0
  193.2200  175.1430  137.5200 C   0  0  0  0  0  2  0  0  0  0  0  0
  190.3890  176.5800  138.3930 C   0  0  0  0  0  0  0  0  0  0  0  0
  192.0070  174.2150  137.3890 C   0  0  0  0  0  2  0  0  0  0  0  0
  191.8010  176.6770  138.9200 C   0  0  0  0  0  2  0  0  0  0  0  0
  190.0000  175.7340  137.4180 C   0  0  0  0  0  3  0  0  0  0  0  0
  190.8960  174.8660  136.5740 C   0  0  0  0  0  2  0  0  0  0  0  0
  192.8490  176.5980  137.8200 C   0  0  0  0  0  2  0  0  0  0  0  0
  1 19  1  6  0  0  0
  1  7  1  0  0  0  0
  1  8  1  0  0  0  0
  2  6  2  0  0  0  0
  2  7  1  0  0  0  0
  3  5  2  0  0  0  0
  4  5  1  0  0  0  0
  6  3  1  0  0  0  0
  7  4  2  0  0  0  0
  8  9  1  0  0  0  0
  9 13  1  6  0  0  0
  9 12  1  0  0  0  0
 10 11  1  0  0  0  0
 12 10  1  0  0  0  0
 12 11  1  0  0  0  0
 14 15  2  0  0  0  0
 15 13  1  0  0  0  0
 15 16  1  0  0  0  0
 16 17  1  0  0  0  0
 17 18  1  0  0  0  0
 20 21  1  6  0  0  0
 20 19  1  0  0  0  0
 22 20  1  0  0  0  0
 23 24  1  0  0  0  0
 24 25  2  6  0  0  0
 24 22  1  0  0  0  0
 26 32  1  0  0  0  0
 27 29  1  0  0  0  0
 27 24  1  0  0  0  0
 28 26  1  0  0  0  0
 30 27  2  0  0  0  0
 31 28  1  0  0  0  0
 31 30  1  0  0  0  0
 32 29  1  0  0  0  0
M  END
>  <MODEL>
2

>  <REMARK>
 VINA RESULT:      -7.6      2.145      2.969
  Name = 
  13 active torsions:
  status: ('A' for Active; 'I' for Inactive)
    1  A    between atoms: C_1  and  C_7
    2  A    between atoms: C_1  and  O_11
    3  A    between atoms: C_1  and  C_18
    4  A    between atoms: C_5  and  C_12
    5  A    between atoms: C_5  and  N_23
    6  A    between atoms: C_7  and  C_28
    7  A    between atoms: C_9  and  O_22
    8  A    between atoms: C_10  and  O_11
    9  A    between atoms: C_10  and  C_21
   10  A    between atoms: C_10  and  N_23
   11  A    between atoms: C_12  and  P_29
   12  A    between atoms: C_17  and  P_29
   13  A    between atoms: O_22  and  C_28
                            x       y       z     vdW  Elec       q    Type
                         _______ _______ _______ _____ _____    ______ ____

>  <TORSDO>
F 13

$$$$
=
 OpenBabel11062412433D

 32 34  0  0  1  0  0  0  0  0999 V2000
  187.6010  177.8180  143.5890 C   0  0  1  0  0  3  0  0  0  0  0  0
  185.2300  178.6460  143.7790 C   0  0  0  0  0  3  0  0  0  0  0  0
  184.1850  178.8440  145.9170 N   0  0  0  0  0  0  0  0  0  0  0  0
  186.4360  178.0520  145.7890 C   0  0  0  0  0  3  0  0  0  0  0  0
  185.3090  178.3930  146.5410 C   0  0  0  0  0  3  0  0  0  0  0  0
  184.1230  178.9760  144.5650 C   0  0  0  0  0  3  0  0  0  0  0  0
  186.3930  178.1730  144.3980 C   0  0  0  0  0  0  0  0  0  0  0  0
  188.3500  176.8240  144.2490 O   0  0  0  0  0  0  0  0  0  0  0  0
  189.6070  177.3560  144.6250 C   0  0  1  0  0  3  0  0  0  0  0  0
  191.5650  177.6500  143.1290 C   0  0  0  0  0  2  0  0  0  0  0  0
  191.5330  178.8240  144.0850 C   0  0  0  0  0  2  0  0  0  0  0  0
  190.2380  178.2440  143.5540 C   0  0  0  0  0  3  0  0  0  0  0  0
  189.5990  178.0230  146.0000 C   0  0  0  0  0  2  0  0  0  0  0  0
  189.2820  176.3440  147.6530 O   0  0  0  0  0  0  0  0  0  0  0  0
  190.0980  177.0800  147.0370 C   0  0  0  0  0  0  0  0  0  0  0  0
  191.4700  176.9970  147.2880 O   0  0  0  0  0  0  0  0  0  0  0  0
  192.1990  175.7840  147.1430 C   0  0  0  0  0  2  0  0  0  0  0  0
  193.0230  175.5920  148.2530 O   0  0  0  0  0  1  0  0  0  0  0  0
  187.2050  177.3370  142.2710 N   0  0  0  0  0  2  0  0  0  0  0  0
  187.8780  178.1610  141.2800 C   0  0  2  0  0  3  0  0  0  0  0  0
  186.9420  178.6670  140.3790 O   0  0  0  0  0  1  0  0  0  0  0  0
  188.9100  177.3360  140.5350 C   0  0  0  0  0  2  0  0  0  0  0  0
  187.5130  177.2840  138.2010 O   0  0  0  0  0  0  0  0  0  0  0  0
  188.8420  177.7330  138.7660 P   0  0  1  0  0  0  0  0  0  0  0  0
  189.0030  179.4060  138.5570 O   0  0  0  0  0  1  0  0  0  0  0  0
  192.9020  175.1910  137.1900 C   0  0  0  0  0  2  0  0  0  0  0  0
  190.1740  176.8860  137.9150 C   0  0  0  0  0  0  0  0  0  0  0  0
  191.7170  174.8420  136.2830 C   0  0  0  0  0  2  0  0  0  0  0  0
  191.2800  176.2990  138.7610 C   0  0  0  0  0  2  0  0  0  0  0  0
  190.0750  176.7270  136.5800 C   0  0  0  0  0  3  0  0  0  0  0  0
  191.0980  176.0940  135.6740 C   0  0  0  0  0  2  0  0  0  0  0  0
  192.6460  176.3970  138.0980 C   0  0  0  0  0  2  0  0  0  0  0  0
  1 19  1  6  0  0  0
  1  8  1  0  0  0  0
  1  7  1  0  0  0  0
  2  7  2  0  0  0  0
  2  6  1  0  0  0  0
  3  5  1  0  0  0  0
  4  5  2  0  0  0  0
  6  3  2  0  0  0  0
  7  4  1  0  0  0  0
  8  9  1  0  0  0  0
  9 13  1  1  0  0  0
 10 12  1  0  0  0  0
 10 11  1  0  0  0  0
 12 11  1  0  0  0  0
 12  9  1  0  0  0  0
 13 15  1  0  0  0  0
 15 16  1  0  0  0  0
 15 14  2  0  0  0  0
 17 16  1  0  0  0  0
 17 18  1  0  0  0  0
 20 21  1  6  0  0  0
 20 19  1  0  0  0  0
 22 20  1  0  0  0  0
 24 23  2  6  0  0  0
 24 22  1  0  0  0  0
 25 24  1  0  0  0  0
 26 32  1  0  0  0  0
 27 29  1  0  0  0  0
 27 24  1  0  0  0  0
 28 26  1  0  0  0  0
 30 27  2  0  0  0  0
 31 28  1  0  0  0  0
 31 30  1  0  0  0  0
 32 29  1  0  0  0  0
M  END
>  <MODEL>
3

>  <REMARK>
 VINA RESULT:      -7.3      2.323      3.428
  Name = 
  13 active torsions:
  status: ('A' for Active; 'I' for Inactive)
    1  A    between atoms: C_1  and  C_7
    2  A    between atoms: C_1  and  O_11
    3  A    between atoms: C_1  and  C_18
    4  A    between atoms: C_5  and  C_12
    5  A    between atoms: C_5  and  N_23
    6  A    between atoms: C_7  and  C_28
    7  A    between atoms: C_9  and  O_22
    8  A    between atoms: C_10  and  O_11
    9  A    between atoms: C_10  and  C_21
   10  A    between atoms: C_10  and  N_23
   11  A    between atoms: C_12  and  P_29
   12  A    between atoms: C_17  and  P_29
   13  A    between atoms: O_22  and  C_28
                            x       y       z     vdW  Elec       q    Type
                         _______ _______ _______ _____ _____    ______ ____

>  <TORSDO>
F 13

$$$$
=
 OpenBabel11062412433D

 32 34  0  0  1  0  0  0  0  0999 V2000
  187.2980  177.8410  143.5070 C   0  0  1  0  0  3  0  0  0  0  0  0
  187.3000  177.9650  146.0230 C   0  0  0  0  0  3  0  0  0  0  0  0
  185.3230  178.5920  147.2060 N   0  0  0  0  0  0  0  0  0  0  0  0
  185.2700  178.4910  144.8190 C   0  0  0  0  0  3  0  0  0  0  0  0
  184.6350  178.7330  146.0390 C   0  0  0  0  0  3  0  0  0  0  0  0
  186.6300  178.2170  147.2220 C   0  0  0  0  0  3  0  0  0  0  0  0
  186.6150  178.1110  144.8110 C   0  0  0  0  0  0  0  0  0  0  0  0
  188.2160  176.7840  143.6510 O   0  0  0  0  0  0  0  0  0  0  0  0
  189.4960  177.2110  143.2230 C   0  0  1  0  0  3  0  0  0  0  0  0
  190.7920  179.0390  144.2900 C   0  0  0  0  0  2  0  0  0  0  0  0
  191.7760  177.9930  143.8100 C   0  0  0  0  0  2  0  0  0  0  0  0
  190.4350  177.5690  144.3740 C   0  0  0  0  0  3  0  0  0  0  0  0
  190.1490  176.2640  142.2160 C   0  0  0  0  0  2  0  0  0  0  0  0
  191.3830  177.3470  140.4960 O   0  0  0  0  0  0  0  0  0  0  0  0
  190.2630  176.9210  140.8850 C   0  0  0  0  0  0  0  0  0  0  0  0
  189.1330  177.0230  140.0700 O   0  0  0  0  0  0  0  0  0  0  0  0
  189.1790  177.6040  138.7720 C   0  0  0  0  0  2  0  0  0  0  0  0
  188.9480  178.9780  138.8610 O   0  0  0  0  0  1  0  0  0  0  0  0
  186.3170  177.5010  142.4830 N   0  0  0  0  0  2  0  0  0  0  0  0
  186.4340  178.4840  141.4180 C   0  0  2  0  0  3  0  0  0  0  0  0
  187.4890  179.3520  141.6950 O   0  0  0  0  0  1  0  0  0  0  0  0
  185.1430  179.2720  141.2950 C   0  0  0  0  0  2  0  0  0  0  0  0
  184.1420  180.3690  139.0160 O   0  0  0  0  0  1  0  0  0  0  0  0
  184.4360  179.0250  139.6430 P   0  0  1  0  0  0  0  0  0  0  0  0
  185.5430  178.1850  138.6750 O   0  0  0  0  0  0  0  0  0  0  0  0
  179.7860  177.1570  140.2140 C   0  0  0  0  0  2  0  0  0  0  0  0
  182.9170  178.0810  139.7820 C   0  0  0  0  0  0  0  0  0  0  0  0
  180.4840  176.4080  139.0740 C   0  0  0  0  0  2  0  0  0  0  0  0
  181.6620  178.8310  140.1640 C   0  0  0  0  0  2  0  0  0  0  0  0
  182.9470  176.7770  139.4430 C   0  0  0  0  0  3  0  0  0  0  0  0
  181.8030  175.8000  139.5340 C   0  0  0  0  0  2  0  0  0  0  0  0
  180.7350  178.0170  141.0540 C   0  0  0  0  0  2  0  0  0  0  0  0
  1 19  1  6  0  0  0
  1  8  1  0  0  0  0
  1  7  1  0  0  0  0
  2  6  1  0  0  0  0
  3  6  2  0  0  0  0
  4  5  2  0  0  0  0
  5  3  1  0  0  0  0
  7  4  1  0  0  0  0
  7  2  2  0  0  0  0
  9 13  1  1  0  0  0
  9  8  1  0  0  0  0
  9 12  1  0  0  0  0
 10 12  1  0  0  0  0
 11 10  1  0  0  0  0
 11 12  1  0  0  0  0
 14 15  2  0  0  0  0
 15 13  1  0  0  0  0
 16 15  1  0  0  0  0
 17 18  1  0  0  0  0
 17 16  1  0  0  0  0
 20 21  1  1  0  0  0
 20 19  1  0  0  0  0
 22 20  1  0  0  0  0
 23 24  1  0  0  0  0
 24 25  2  6  0  0  0
 24 27  1  0  0  0  0
 24 22  1  0  0  0  0
 26 32  1  0  0  0  0
 27 29  1  0  0  0  0
 28 31  1  0  0  0  0
 28 26  1  0  0  0  0
 29 32  1  0  0  0  0
 30 31  1  0  0  0  0
 30 27  2  0  0  0  0
M  END
>  <MODEL>
4

>  <REMARK>
 VINA RESULT:      -7.3      2.760      4.773
  Name = 
  13 active torsions:
  status: ('A' for Active; 'I' for Inactive)
    1  A    between atoms: C_1  and  C_7
    2  A    between atoms: C_1  and  O_11
    3  A    between atoms: C_1  and  C_18
    4  A    between atoms: C_5  and  C_12
    5  A    between atoms: C_5  and  N_23
    6  A    between atoms: C_7  and  C_28
    7  A    between atoms: C_9  and  O_22
    8  A    between atoms: C_10  and  O_11
    9  A    between atoms: C_10  and  C_21
   10  A    between atoms: C_10  and  N_23
   11  A    between atoms: C_12  and  P_29
   12  A    between atoms: C_17  and  P_29
   13  A    between atoms: O_22  and  C_28
                            x       y       z     vdW  Elec       q    Type
                         _______ _______ _______ _____ _____    ______ ____

>  <TORSDO>
F 13

$$$$
=
 OpenBabel11062412433D

 32 34  0  0  1  0  0  0  0  0999 V2000
  190.5710  176.1510  138.2440 C   0  0  1  0  0  3  0  0  0  0  0  0
  191.5930  174.1670  137.0760 C   0  0  0  0  0  3  0  0  0  0  0  0
  193.9380  174.1000  136.6300 N   0  0  0  0  0  0  0  0  0  0  0  0
  193.0160  176.0060  137.7380 C   0  0  0  0  0  3  0  0  0  0  0  0
  194.1120  175.3220  137.2060 C   0  0  0  0  0  3  0  0  0  0  0  0
  192.7130  173.5150  136.5550 C   0  0  0  0  0  3  0  0  0  0  0  0
  191.7470  175.4270  137.6670 C   0  0  0  0  0  0  0  0  0  0  0  0
  189.3740  175.6110  137.7370 O   0  0  0  0  0  0  0  0  0  0  0  0
  188.6880  176.6030  136.9940 C   0  0  1  0  0  3  0  0  0  0  0  0
  189.4480  177.2720  134.7280 C   0  0  0  0  0  2  0  0  0  0  0  0
  187.9460  177.4570  134.7870 C   0  0  0  0  0  2  0  0  0  0  0  0
  188.5930  176.2890  135.5020 C   0  0  0  0  0  3  0  0  0  0  0  0
  187.3350  176.9860  137.5930 C   0  0  0  0  0  2  0  0  0  0  0  0
  188.4100  179.0330  138.1480 O   0  0  0  0  0  0  0  0  0  0  0  0
  187.4520  178.2460  138.3760 C   0  0  0  0  0  0  0  0  0  0  0  0
  186.4780  178.5580  139.3270 O   0  0  0  0  0  0  0  0  0  0  0  0
  185.0940  178.6200  139.0090 C   0  0  0  0  0  2  0  0  0  0  0  0
  184.6130  179.9090  139.2370 O   0  0  0  0  0  1  0  0  0  0  0  0
  190.5770  176.0480  139.6980 N   0  0  0  0  0  2  0  0  0  0  0  0
  190.6720  177.3960  140.2350 C   0  0  2  0  0  3  0  0  0  0  0  0
  191.9490  177.6030  140.7550 O   0  0  0  0  0  1  0  0  0  0  0  0
  189.6380  177.5940  141.3270 C   0  0  0  0  0  2  0  0  0  0  0  0
  190.4370  175.3770  142.6870 O   0  0  0  0  0  0  0  0  0  0  0  0
  190.2410  176.8650  142.8750 P   0  0  1  0  0  0  0  0  0  0  0  0
  191.7210  177.5750  143.2930 O   0  0  0  0  0  1  0  0  0  0  0  0
  187.5660  177.9580  147.0070 C   0  0  0  0  0  2  0  0  0  0  0  0
  189.0420  177.1550  144.1750 C   0  0  0  0  0  0  0  0  0  0  0  0
  186.7440  178.3370  145.7710 C   0  0  0  0  0  2  0  0  0  0  0  0
  189.5580  177.6620  145.5010 C   0  0  0  0  0  2  0  0  0  0  0  0
  187.7350  177.0040  143.8780 C   0  0  0  0  0  3  0  0  0  0  0  0
  186.5770  177.1490  144.8310 C   0  0  0  0  0  2  0  0  0  0  0  0
  188.7920  177.0990  146.6890 C   0  0  0  0  0  2  0  0  0  0  0  0
  1  8  1  6  0  0  0
  1 19  1  0  0  0  0
  2  7  1  0  0  0  0
  3  5  2  0  0  0  0
  5  4  1  0  0  0  0
  6  3  1  0  0  0  0
  6  2  2  0  0  0  0
  7  4  2  0  0  0  0
  7  1  1  0  0  0  0
  9 13  1  1  0  0  0
  9  8  1  0  0  0  0
 10 11  1  0  0  0  0
 10 12  1  0  0  0  0
 11 12  1  0  0  0  0
 12  9  1  0  0  0  0
 13 15  1  0  0  0  0
 14 15  2  0  0  0  0
 15 16  1  0  0  0  0
 17 18  1  0  0  0  0
 17 16  1  0  0  0  0
 19 20  1  0  0  0  0
 20 21  1  1  0  0  0
 20 22  1  0  0  0  0
 22 24  1  0  0  0  0
 24 23  2  6  0  0  0
 24 25  1  0  0  0  0
 24 27  1  0  0  0  0
 27 29  1  0  0  0  0
 28 26  1  0  0  0  0
 29 32  1  0  0  0  0
 30 27  2  0  0  0  0
 30 31  1  0  0  0  0
 31 28  1  0  0  0  0
 32 26  1  0  0  0  0
M  END
>  <MODEL>
5

>  <REMARK>
 VINA RESULT:      -7.3      3.379      9.253
  Name = 
  13 active torsions:
  status: ('A' for Active; 'I' for Inactive)
    1  A    between atoms: C_1  and  C_7
    2  A    between atoms: C_1  and  O_11
    3  A    between atoms: C_1  and  C_18
    4  A    between atoms: C_5  and  C_12
    5  A    between atoms: C_5  and  N_23
    6  A    between atoms: C_7  and  C_28
    7  A    between atoms: C_9  and  O_22
    8  A    between atoms: C_10  and  O_11
    9  A    between atoms: C_10  and  C_21
   10  A    between atoms: C_10  and  N_23
   11  A    between atoms: C_12  and  P_29
   12  A    between atoms: C_17  and  P_29
   13  A    between atoms: O_22  and  C_28
                            x       y       z     vdW  Elec       q    Type
                         _______ _______ _______ _____ _____    ______ ____

>  <TORSDO>
F 13

$$$$
=
 OpenBabel11062412433D

 32 34  0  0  1  0  0  0  0  0999 V2000
  185.4680  178.3010  139.7040 C   0  0  1  0  0  3  0  0  0  0  0  0
  183.1090  177.6170  140.2680 C   0  0  0  0  0  3  0  0  0  0  0  0
  181.2650  178.9990  139.6390 N   0  0  0  0  0  0  0  0  0  0  0  0
  183.4840  179.6920  139.0830 C   0  0  0  0  0  3  0  0  0  0  0  0
  182.1040  179.9070  139.0680 C   0  0  0  0  0  3  0  0  0  0  0  0
  181.7360  177.8690  140.2330 C   0  0  0  0  0  3  0  0  0  0  0  0
  183.9900  178.5410  139.6940 C   0  0  0  0  0  0  0  0  0  0  0  0
  186.0280  178.6760  138.4680 O   0  0  0  0  0  0  0  0  0  0  0  0
  186.4580  177.5190  137.7760 C   0  0  1  0  0  3  0  0  0  0  0  0
  184.6860  175.9310  137.0690 C   0  0  0  0  0  2  0  0  0  0  0  0
  185.8870  175.7140  136.1720 C   0  0  0  0  0  2  0  0  0  0  0  0
  185.5290  177.1120  136.6330 C   0  0  0  0  0  3  0  0  0  0  0  0
  187.9220  177.5790  137.3390 C   0  0  0  0  0  2  0  0  0  0  0  0
  189.0410  179.3630  138.4440 O   0  0  0  0  0  0  0  0  0  0  0  0
  188.7660  178.1330  138.4320 C   0  0  0  0  0  0  0  0  0  0  0  0
  189.2120  177.2890  139.4520 O   0  0  0  0  0  0  0  0  0  0  0  0
  190.5520  176.8160  139.5180 C   0  0  0  0  0  2  0  0  0  0  0  0
  190.6780  175.6470  138.7670 O   0  0  0  0  0  1  0  0  0  0  0  0
  186.0970  179.0610  140.7780 N   0  0  0  0  0  2  0  0  0  0  0  0
  186.5840  178.1100  141.7640 C   0  0  2  0  0  3  0  0  0  0  0  0
  185.5930  177.8750  142.7160 O   0  0  0  0  0  1  0  0  0  0  0  0
  187.8250  178.6570  142.4420 C   0  0  0  0  0  2  0  0  0  0  0  0
  188.1250  175.9850  142.8610 O   0  0  0  0  0  0  0  0  0  0  0  0
  188.6800  177.3160  143.3160 P   0  0  1  0  0  0  0  0  0  0  0  0
  190.3360  177.3810  142.9640 O   0  0  0  0  0  1  0  0  0  0  0  0
  188.8610  177.8110  148.3310 C   0  0  0  0  0  2  0  0  0  0  0  0
  188.4290  177.5020  145.0810 C   0  0  0  0  0  0  0  0  0  0  0  0
  187.7280  178.6890  147.7870 C   0  0  0  0  0  2  0  0  0  0  0  0
  189.6540  177.4970  145.9650 C   0  0  0  0  0  2  0  0  0  0  0  0
  187.1770  177.7370  145.5230 C   0  0  0  0  0  3  0  0  0  0  0  0
  186.7430  177.8730  146.9590 C   0  0  0  0  0  2  0  0  0  0  0  0
  189.4140  176.8180  147.3050 C   0  0  0  0  0  2  0  0  0  0  0  0
  1  8  1  6  0  0  0
  1 19  1  0  0  0  0
  3  6  2  0  0  0  0
  4  7  1  0  0  0  0
  5  4  2  0  0  0  0
  5  3  1  0  0  0  0
  6  2  1  0  0  0  0
  7  1  1  0  0  0  0
  7  2  2  0  0  0  0
  9 13  1  6  0  0  0
  9  8  1  0  0  0  0
 11 12  1  0  0  0  0
 11 10  1  0  0  0  0
 12 10  1  0  0  0  0
 12  9  1  0  0  0  0
 13 15  1  0  0  0  0
 15 14  2  0  0  0  0
 15 16  1  0  0  0  0
 16 17  1  0  0  0  0
 18 17  1  0  0  0  0
 19 20  1  0  0  0  0
 20 22  1  0  0  0  0
 20 21  1  1  0  0  0
 22 24  1  0  0  0  0
 24 23  2  6  0  0  0
 24 27  1  0  0  0  0
 25 24  1  0  0  0  0
 27 30  2  0  0  0  0
 27 29  1  0  0  0  0
 28 26  1  0  0  0  0
 29 32  1  0  0  0  0
 30 31  1  0  0  0  0
 31 28  1  0  0  0  0
 32 26  1  0  0  0  0
M  END
>  <MODEL>
6

>  <REMARK>
 VINA RESULT:      -7.0      2.404      7.881
  Name = 
  13 active torsions:
  status: ('A' for Active; 'I' for Inactive)
    1  A    between atoms: C_1  and  C_7
    2  A    between atoms: C_1  and  O_11
    3  A    between atoms: C_1  and  C_18
    4  A    between atoms: C_5  and  C_12
    5  A    between atoms: C_5  and  N_23
    6  A    between atoms: C_7  and  C_28
    7  A    between atoms: C_9  and  O_22
    8  A    between atoms: C_10  and  O_11
    9  A    between atoms: C_10  and  C_21
   10  A    between atoms: C_10  and  N_23
   11  A    between atoms: C_12  and  P_29
   12  A    between atoms: C_17  and  P_29
   13  A    between atoms: O_22  and  C_28
                            x       y       z     vdW  Elec       q    Type
                         _______ _______ _______ _____ _____    ______ ____

>  <TORSDO>
F 13

$$$$
=
 OpenBabel11062412433D

 32 34  0  0  1  0  0  0  0  0999 V2000
  189.6040  177.1190  138.7480 C   0  0  1  0  0  3  0  0  0  0  0  0
  188.2520  178.4630  137.1000 C   0  0  0  0  0  3  0  0  0  0  0  0
  186.1690  177.6310  136.2810 N   0  0  0  0  0  0  0  0  0  0  0  0
  187.4150  176.3180  137.8410 C   0  0  0  0  0  3  0  0  0  0  0  0
  186.2930  176.5000  137.0290 C   0  0  0  0  0  3  0  0  0  0  0  0
  187.1170  178.6070  136.3000 C   0  0  0  0  0  3  0  0  0  0  0  0
  188.4040  177.3050  137.8720 C   0  0  0  0  0  0  0  0  0  0  0  0
  190.7800  177.1810  137.9770 O   0  0  0  0  0  0  0  0  0  0  0  0
  191.0560  175.9020  137.4360 C   0  0  1  0  0  3  0  0  0  0  0  0
  189.8340  174.9330  135.5060 C   0  0  0  0  0  2  0  0  0  0  0  0
  191.2660  174.4450  135.4400 C   0  0  0  0  0  2  0  0  0  0  0  0
  190.9670  175.8530  135.9120 C   0  0  0  0  0  3  0  0  0  0  0  0
  192.3520  175.2850  137.9620 C   0  0  0  0  0  2  0  0  0  0  0  0
  193.7130  176.8220  139.1610 O   0  0  0  0  0  0  0  0  0  0  0  0
  193.4210  176.3180  138.0440 C   0  0  0  0  0  0  0  0  0  0  0  0
  194.1120  176.6870  136.8880 O   0  0  0  0  0  0  0  0  0  0  0  0
  194.7410  175.7350  136.0390 C   0  0  0  0  0  2  0  0  0  0  0  0
  196.0870  175.6090  136.3860 O   0  0  0  0  0  1  0  0  0  0  0  0
  189.6410  178.1490  139.7800 N   0  0  0  0  0  2  0  0  0  0  0  0
  189.1400  177.5570  141.0100 C   0  0  2  0  0  3  0  0  0  0  0  0
  187.8070  177.9220  141.1960 O   0  0  0  0  0  1  0  0  0  0  0  0
  189.9690  178.0320  142.1890 C   0  0  0  0  0  2  0  0  0  0  0  0
  189.6480  175.4070  142.8270 O   0  0  0  0  0  0  0  0  0  0  0  0
  190.0310  176.7300  143.4510 P   0  0  1  0  0  0  0  0  0  0  0  0
  191.6030  176.6220  144.0720 O   0  0  0  0  0  1  0  0  0  0  0  0
  187.5380  178.0340  147.6360 C   0  0  0  0  0  2  0  0  0  0  0  0
  188.8850  177.1270  144.7710 C   0  0  0  0  0  0  0  0  0  0  0  0
  186.7520  178.5290  146.4170 C   0  0  0  0  0  2  0  0  0  0  0  0
  189.4690  177.5450  146.1000 C   0  0  0  0  0  2  0  0  0  0  0  0
  187.5670  177.1320  144.4870 C   0  0  0  0  0  3  0  0  0  0  0  0
  186.4420  177.3880  145.4560 C   0  0  0  0  0  2  0  0  0  0  0  0
  188.6550  177.0480  147.2860 C   0  0  0  0  0  2  0  0  0  0  0  0
  1  8  1  6  0  0  0
  1 19  1  0  0  0  0
  2  7  1  0  0  0  0
  3  6  1  0  0  0  0
  3  5  2  0  0  0  0
  4  7  2  0  0  0  0
  5  4  1  0  0  0  0
  6  2  2  0  0  0  0
  7  1  1  0  0  0  0
  9 13  1  6  0  0  0
  9  8  1  0  0  0  0
 10 12  1  0  0  0  0
 11 10  1  0  0  0  0
 11 12  1  0  0  0  0
 12  9  1  0  0  0  0
 13 15  1  0  0  0  0
 15 14  2  0  0  0  0
 16 15  1  0  0  0  0
 17 18  1  0  0  0  0
 17 16  1  0  0  0  0
 19 20  1  0  0  0  0
 20 21  1  1  0  0  0
 20 22  1  0  0  0  0
 22 24  1  0  0  0  0
 24 23  2  6  0  0  0
 24 25  1  0  0  0  0
 24 27  1  0  0  0  0
 27 29  1  0  0  0  0
 28 26  1  0  0  0  0
 29 32  1  0  0  0  0
 30 27  2  0  0  0  0
 30 31  1  0  0  0  0
 31 28  1  0  0  0  0
 32 26  1  0  0  0  0
M  END
>  <MODEL>
7

>  <REMARK>
 VINA RESULT:      -7.0      3.409      8.525
  Name = 
  13 active torsions:
  status: ('A' for Active; 'I' for Inactive)
    1  A    between atoms: C_1  and  C_7
    2  A    between atoms: C_1  and  O_11
    3  A    between atoms: C_1  and  C_18
    4  A    between atoms: C_5  and  C_12
    5  A    between atoms: C_5  and  N_23
    6  A    between atoms: C_7  and  C_28
    7  A    between atoms: C_9  and  O_22
    8  A    between atoms: C_10  and  O_11
    9  A    between atoms: C_10  and  C_21
   10  A    between atoms: C_10  and  N_23
   11  A    between atoms: C_12  and  P_29
   12  A    between atoms: C_17  and  P_29
   13  A    between atoms: O_22  and  C_28
                            x       y       z     vdW  Elec       q    Type
                         _______ _______ _______ _____ _____    ______ ____

>  <TORSDO>
F 13

$$$$
=
 OpenBabel11062412433D

 32 34  0  0  1  0  0  0  0  0999 V2000
  187.1300  177.8740  143.5220 C   0  0  1  0  0  3  0  0  0  0  0  0
  185.7800  178.6340  145.5090 C   0  0  0  0  0  3  0  0  0  0  0  0
  186.5700  178.2430  147.7290 N   0  0  0  0  0  0  0  0  0  0  0  0
  187.8860  177.5020  145.8770 C   0  0  0  0  0  3  0  0  0  0  0  0
  187.6900  177.6310  147.2530 C   0  0  0  0  0  3  0  0  0  0  0  0
  185.6210  178.7420  146.8920 C   0  0  0  0  0  3  0  0  0  0  0  0
  186.9200  178.0010  144.9980 C   0  0  0  0  0  0  0  0  0  0  0  0
  188.0320  176.8280  143.2500 O   0  0  0  0  0  0  0  0  0  0  0  0
  189.2300  177.3660  142.7220 C   0  0  1  0  0  3  0  0  0  0  0  0
  190.8040  178.8840  143.8950 C   0  0  0  0  0  2  0  0  0  0  0  0
  191.6230  177.9290  143.0530 C   0  0  0  0  0  2  0  0  0  0  0  0
  190.3650  177.4420  143.7420 C   0  0  0  0  0  3  0  0  0  0  0  0
  189.6700  176.7060  141.4140 C   0  0  0  0  0  2  0  0  0  0  0  0
  188.8940  178.6910  140.3610 O   0  0  0  0  0  0  0  0  0  0  0  0
  189.1360  177.4600  140.2480 C   0  0  0  0  0  0  0  0  0  0  0  0
  188.9440  176.8000  139.0320 O   0  0  0  0  0  0  0  0  0  0  0  0
  190.0080  176.5640  138.1170 C   0  0  0  0  0  2  0  0  0  0  0  0
  190.5570  175.3020  138.3450 O   0  0  0  0  0  1  0  0  0  0  0  0
  185.8620  177.6130  142.8510 N   0  0  0  0  0  2  0  0  0  0  0  0
  185.7730  178.5120  141.7120 C   0  0  2  0  0  3  0  0  0  0  0  0
  186.0780  179.8110  142.1160 O   0  0  0  0  0  1  0  0  0  0  0  0
  184.3730  178.4740  141.1280 C   0  0  0  0  0  2  0  0  0  0  0  0
  184.0410  180.2530  139.0970 O   0  0  0  0  0  1  0  0  0  0  0  0
  184.4470  178.8180  139.3490 P   0  0  1  0  0  0  0  0  0  0  0  0
  186.0290  178.5780  138.7930 O   0  0  0  0  0  0  0  0  0  0  0  0
  181.4120  175.1820  137.6170 C   0  0  0  0  0  2  0  0  0  0  0  0
  183.3280  177.7160  138.4840 C   0  0  0  0  0  0  0  0  0  0  0  0
  180.8150  176.5440  137.2460 C   0  0  0  0  0  2  0  0  0  0  0  0
  183.0240  176.3830  139.1280 C   0  0  0  0  0  2  0  0  0  0  0  0
  182.7370  178.1670  137.3590 C   0  0  0  0  0  3  0  0  0  0  0  0
  181.8090  177.3900  136.4600 C   0  0  0  0  0  2  0  0  0  0  0  0
  182.8580  175.2610  138.1140 C   0  0  0  0  0  2  0  0  0  0  0  0
  1 19  1  6  0  0  0
  1  7  1  0  0  0  0
  2  6  1  0  0  0  0
  4  5  2  0  0  0  0
  5  3  1  0  0  0  0
  6  3  2  0  0  0  0
  7  2  2  0  0  0  0
  7  4  1  0  0  0  0
  8  1  1  0  0  0  0
  9 13  1  6  0  0  0
  9  8  1  0  0  0  0
  9 12  1  0  0  0  0
 11 12  1  0  0  0  0
 11 10  1  0  0  0  0
 12 10  1  0  0  0  0
 15 14  2  0  0  0  0
 15 13  1  0  0  0  0
 16 15  1  0  0  0  0
 17 18  1  0  0  0  0
 17 16  1  0  0  0  0
 20 21  1  1  0  0  0
 20 19  1  0  0  0  0
 22 20  1  0  0  0  0
 23 24  1  0  0  0  0
 24 25  2  6  0  0  0
 24 22  1  0  0  0  0
 26 32  1  0  0  0  0
 27 29  1  0  0  0  0
 27 24  1  0  0  0  0
 28 26  1  0  0  0  0
 30 27  2  0  0  0  0
 31 28  1  0  0  0  0
 31 30  1  0  0  0  0
 32 29  1  0  0  0  0
M  END
>  <MODEL>
8

>  <REMARK>
 VINA RESULT:      -6.9      2.745      4.770
  Name = 
  13 active torsions:
  status: ('A' for Active; 'I' for Inactive)
    1  A    between atoms: C_1  and  C_7
    2  A    between atoms: C_1  and  O_11
    3  A    between atoms: C_1  and  C_18
    4  A    between atoms: C_5  and  C_12
    5  A    between atoms: C_5  and  N_23
    6  A    between atoms: C_7  and  C_28
    7  A    between atoms: C_9  and  O_22
    8  A    between atoms: C_10  and  O_11
    9  A    between atoms: C_10  and  C_21
   10  A    between atoms: C_10  and  N_23
   11  A    between atoms: C_12  and  P_29
   12  A    between atoms: C_17  and  P_29
   13  A    between atoms: O_22  and  C_28
                            x       y       z     vdW  Elec       q    Type
                         _______ _______ _______ _____ _____    ______ ____

>  <TORSDO>
F 13

$$$$
=
 OpenBabel11062412433D

 32 34  0  0  1  0  0  0  0  0999 V2000
  185.1300  178.4720  139.6760 C   0  0  1  0  0  3  0  0  0  0  0  0
  183.0440  177.0590  139.6830 C   0  0  0  0  0  3  0  0  0  0  0  0
  181.0180  177.8860  138.7270 N   0  0  0  0  0  0  0  0  0  0  0  0
  182.9690  179.2660  138.6970 C   0  0  0  0  0  3  0  0  0  0  0  0
  181.6220  179.0600  138.3910 C   0  0  0  0  0  3  0  0  0  0  0  0
  181.6960  176.8920  139.3610 C   0  0  0  0  0  3  0  0  0  0  0  0
  183.6840  178.2600  139.3540 C   0  0  0  0  0  0  0  0  0  0  0  0
  185.8440  178.7930  138.5050 O   0  0  0  0  0  0  0  0  0  0  0  0
  186.1600  177.6020  137.8070 C   0  0  1  0  0  3  0  0  0  0  0  0
  184.5400  176.5600  136.2420 C   0  0  0  0  0  2  0  0  0  0  0  0
  185.9350  176.2340  135.7500 C   0  0  0  0  0  2  0  0  0  0  0  0
  185.6470  177.5860  136.3670 C   0  0  0  0  0  3  0  0  0  0  0  0
  187.6360  177.2150  137.9000 C   0  0  0  0  0  2  0  0  0  0  0  0
  188.3130  179.3640  137.1420 O   0  0  0  0  0  0  0  0  0  0  0  0
  188.4870  178.4320  137.9730 C   0  0  0  0  0  0  0  0  0  0  0  0
  189.4440  178.5430  138.9850 O   0  0  0  0  0  0  0  0  0  0  0  0
  190.2040  177.4300  139.4400 C   0  0  0  0  0  2  0  0  0  0  0  0
  190.3290  177.4800  140.8290 O   0  0  0  0  0  1  0  0  0  0  0  0
  185.2800  179.5460  140.6500 N   0  0  0  0  0  2  0  0  0  0  0  0
  186.0380  179.0210  141.7730 C   0  0  2  0  0  3  0  0  0  0  0  0
  187.1450  178.3160  141.3010 O   0  0  0  0  0  1  0  0  0  0  0  0
  185.1640  178.1010  142.6050 C   0  0  0  0  0  2  0  0  0  0  0  0
  184.7220  180.4010  143.9880 O   0  0  0  0  0  0  0  0  0  0  0  0
  184.7690  178.9020  144.1830 P   0  0  1  0  0  0  0  0  0  0  0  0
  183.2600  178.3610  144.7280 O   0  0  0  0  0  1  0  0  0  0  0  0
  187.6900  177.9360  148.1790 C   0  0  0  0  0  2  0  0  0  0  0  0
  186.0310  178.4920  145.3900 C   0  0  0  0  0  0  0  0  0  0  0  0
  188.0110  176.9230  147.0750 C   0  0  0  0  0  2  0  0  0  0  0  0
  185.6720  178.6350  146.8500 C   0  0  0  0  0  2  0  0  0  0  0  0
  187.1960  177.9830  144.9410 C   0  0  0  0  0  3  0  0  0  0  0  0
  188.3970  177.6210  145.7770 C   0  0  0  0  0  2  0  0  0  0  0  0
  186.8390  179.1150  147.7010 C   0  0  0  0  0  2  0  0  0  0  0  0
  1  8  1  6  0  0  0
  1 19  1  0  0  0  0
  3  6  2  0  0  0  0
  4  7  1  0  0  0  0
  5  4  2  0  0  0  0
  5  3  1  0  0  0  0
  6  2  1  0  0  0  0
  7  1  1  0  0  0  0
  7  2  2  0  0  0  0
  9 13  1  6  0  0  0
  9  8  1  0  0  0  0
 10 12  1  0  0  0  0
 11 10  1  0  0  0  0
 11 12  1  0  0  0  0
 12  9  1  0  0  0  0
 13 15  1  0  0  0  0
 14 15  2  0  0  0  0
 15 16  1  0  0  0  0
 16 17  1  0  0  0  0
 17 18  1  0  0  0  0
 19 20  1  0  0  0  0
 20 21  1  6  0  0  0
 20 22  1  0  0  0  0
 22 24  1  0  0  0  0
 24 23  2  6  0  0  0
 24 25  1  0  0  0  0
 24 27  1  0  0  0  0
 27 29  1  0  0  0  0
 28 26  1  0  0  0  0
 29 32  1  0  0  0  0
 30 27  2  0  0  0  0
 30 31  1  0  0  0  0
 31 28  1  0  0  0  0
 32 26  1  0  0  0  0
M  END
>  <MODEL>
9

>  <REMARK>
 VINA RESULT:      -6.9      2.917      8.153
  Name = 
  13 active torsions:
  status: ('A' for Active; 'I' for Inactive)
    1  A    between atoms: C_1  and  C_7
    2  A    between atoms: C_1  and  O_11
    3  A    between atoms: C_1  and  C_18
    4  A    between atoms: C_5  and  C_12
    5  A    between atoms: C_5  and  N_23
    6  A    between atoms: C_7  and  C_28
    7  A    between atoms: C_9  and  O_22
    8  A    between atoms: C_10  and  O_11
    9  A    between atoms: C_10  and  C_21
   10  A    between atoms: C_10  and  N_23
   11  A    between atoms: C_12  and  P_29
   12  A    between atoms: C_17  and  P_29
   13  A    between atoms: O_22  and  C_28
                            x       y       z     vdW  Elec       q    Type
                         _______ _______ _______ _____ _____    ______ ____

>  <TORSDO>
F 13

$$$$
