=
 OpenBabel11062414543D

 56 61  0  0  1  0  0  0  0  0999 V2000
  191.8110  177.7120  144.1980 C   0  0  0  0  0  2  0  0  0  0  0  0
  190.5000  176.7030  142.2360 C   0  0  0  0  0  2  0  0  0  0  0  0
  188.0920  177.5470  141.9630 C   0  0  0  0  0  0  0  0  0  0  0  0
  191.1660  176.6090  144.8990 N   0  0  0  0  0  2  0  0  0  0  0  0
  189.1980  177.2170  142.7760 C   0  0  0  0  0  0  0  0  0  0  0  0
  187.3090  177.7750  144.3300 S   0  0  0  0  0  0  0  0  0  0  0  0
  191.6990  177.5440  142.6810 C   0  0  0  0  0  2  0  0  0  0  0  0
  189.8360  177.0530  145.3070 C   0  0  0  0  0  2  0  0  0  0  0  0
  188.9080  177.2880  144.1440 C   0  0  0  0  0  0  0  0  0  0  0  0
  186.9560  177.8740  142.6890 C   0  0  0  0  0  0  0  0  0  0  0  0
  185.6380  178.2670  142.0960 C   0  0  1  0  0  3  0  0  0  0  0  0
  184.5140  178.0080  143.0860 C   0  0  1  0  0  3  0  0  0  0  0  0
  183.9760  179.1900  143.5510 C   0  0  0  0  0  2  0  0  0  0  0  0
  183.2280  178.4650  142.4830 N   0  0  0  0  0  0  0  0  0  0  0  0
  180.0880  179.1630  140.6130 C   0  0  0  0  0  0  0  0  0  0  0  0
  182.0890  177.2110  140.7240 C   0  0  0  0  0  3  0  0  0  0  0  0
  181.1520  179.2930  141.5060 C   0  0  0  0  0  3  0  0  0  0  0  0
  179.1050  180.1440  140.6130 O   0  0  0  0  0  1  0  0  0  0  0  0
  180.0250  178.0480  139.7440 C   0  0  0  0  0  0  0  0  0  0  0  0
  182.1510  178.3230  141.5630 C   0  0  0  0  0  0  0  0  0  0  0  0
  181.0310  177.0670  139.8120 C   0  0  0  0  0  0  0  0  0  0  0  0
  180.9610  175.9580  138.9600 O   0  0  0  0  0  0  0  0  0  0  0  0
  180.0290  174.9010  139.1450 C   0  0  0  0  0  1  0  0  0  0  0  0
  178.9600  177.8640  138.7960 N   0  0  0  0  0  2  0  0  0  0  0  0
  178.9320  178.3640  137.4290 C   0  0  0  0  0  3  0  0  0  0  0  0
  179.1020  177.2060  136.4680 C   0  0  0  0  0  1  0  0  0  0  0  0
  180.0670  179.3490  137.2230 C   0  0  0  0  0  1  0  0  0  0  0  0
  185.1600  179.6580  140.4380 C   0  0  0  0  0  1  0  0  0  0  0  0
  185.6570  179.6190  141.7400 O   0  0  0  0  0  0  0  0  0  0  0  0
  188.0830  177.5500  140.5630 O   0  0  0  0  0  0  0  0  0  0  0  0
  189.2540  177.7290  139.7780 C   0  0  0  0  0  2  0  0  0  0  0  0
  187.4460  176.5690  138.5320 O   0  0  0  0  0  0  0  0  0  0  0  0
  189.6980  174.9050  136.1550 C   0  0  0  0  0  2  0  0  0  0  0  0
  192.2650  175.2390  136.4050 C   0  0  2  0  0  0  0  0  0  0  0  0
  186.8150  177.0840  136.2590 C   0  0  1  0  0  3  0  0  0  0  0  0
  191.5160  176.3280  138.6740 C   0  0  0  0  0  2  0  0  0  0  0  0
  186.6750  177.4400  137.7420 C   0  0  0  0  0  2  0  0  0  0  0  0
  192.3470  173.9650  137.2510 C   0  0  0  0  0  1  0  0  0  0  0  0
  188.8890  176.1740  136.4360 C   0  0  1  0  0  3  0  0  0  0  0  0
  190.9640  176.2570  134.5940 O   0  0  0  0  0  1  0  0  0  0  0  0
  187.5420  175.8930  136.1230 O   0  0  0  0  0  0  0  0  0  0  0  0
  189.5980  178.4390  137.3980 C   0  0  0  0  0  1  0  0  0  0  0  0
  192.1770  176.4920  137.2990 C   0  0  0  0  0  2  0  0  0  0  0  0
  191.0400  175.1610  135.4610 C   0  0  2  0  0  3  0  0  0  0  0  0
  189.0880  176.8690  138.1670 P   0  0  0  0  0  0  0  0  0  0  0  0
  190.2570  175.7020  138.6130 O   0  0  0  0  0  0  0  0  0  0  0  0
  184.3920  176.7810  135.1840 C   0  0  0  0  0  0  0  0  0  0  0  0
  185.4860  176.9210  135.6700 C   0  0  0  0  0  0  0  0  0  0  0  0
  183.0660  176.6060  134.5940 C   0  0  0  0  0  3  0  0  0  0  0  0
  182.2830  177.8970  134.7170 C   0  0  0  0  0  1  0  0  0  0  0  0
  182.3320  175.5010  135.3230 C   0  0  0  0  0  1  0  0  0  0  0  0
  194.0050  174.0870  135.1270 O   0  0  0  0  0  1  0  0  0  0  0  0
  193.5820  175.3350  135.5950 C   0  0  2  0  0  3  0  0  0  0  0  0
  194.9620  177.2260  136.0820 O   0  0  0  0  0  0  0  0  0  0  0  0
  194.7060  176.0170  136.3210 C   0  0  0  0  0  0  0  0  0  0  0  0
  195.4600  175.3280  137.2610 O   0  0  0  0  0  1  0  0  0  0  0  0
  1  4  1  0  0  0  0
  2  7  1  0  0  0  0
  2  5  1  0  0  0  0
  3 10  2  0  0  0  0
  3  5  1  0  0  0  0
  4  8  1  0  0  0  0
  5  9  2  0  0  0  0
  7  1  1  0  0  0  0
  9  6  1  0  0  0  0
  9  8  1  0  0  0  0
 10  6  1  0  0  0  0
 11 29  1  1  0  0  0
 11 10  1  0  0  0  0
 12 11  1  6  0  0  0
 12 13  1  0  0  0  0
 14 12  1  0  0  0  0
 14 13  1  0  0  0  0
 15 17  1  0  0  0  0
 16 20  1  0  0  0  0
 17 20  2  0  0  0  0
 18 15  1  0  0  0  0
 19 21  1  0  0  0  0
 19 15  2  0  0  0  0
 20 14  1  0  0  0  0
 21 16  2  0  0  0  0
 22 23  1  0  0  0  0
 22 21  1  0  0  0  0
 24 19  1  0  0  0  0
 25 24  1  0  0  0  0
 26 25  1  0  0  0  0
 27 25  1  0  0  0  0
 28 29  1  0  0  0  0
 30  3  1  0  0  0  0
 31 30  1  0  0  0  0
 34 38  1  1  0  0  0
 34 43  1  0  0  0  0
 35 48  1  1  0  0  0
 35 37  1  0  0  0  0
 37 32  1  0  0  0  0
 39 33  1  1  0  0  0
 39 45  1  0  0  0  0
 41 35  1  0  0  0  0
 41 39  1  0  0  0  0
 42 45  1  0  0  0  0
 43 36  1  0  0  0  0
 44 40  1  1  0  0  0
 44 33  1  0  0  0  0
 44 34  1  0  0  0  0
 45 32  1  0  0  0  0
 45 46  1  0  0  0  0
 45 31  1  0  0  0  0
 46 36  1  0  0  0  0
 47 48  3  0  0  0  0
 49 50  1  0  0  0  0
 49 47  1  0  0  0  0
 49 51  1  0  0  0  0
 53 52  1  1  0  0  0
 53 55  1  0  0  0  0
 53 34  1  0  0  0  0
 54 55  2  0  0  0  0
 55 56  1  0  0  0  0
M  END
>  <MODEL>
1

>  <REMARK>
 VINA RESULT:      -6.7      0.000      0.000
  Name = 
  14 active torsions:
  status: ('A' for Active; 'I' for Inactive)
    1  A    between atoms: C_1  and  C_18
    2  A    between atoms: C_2  and  O_33
    3  A    between atoms: C_2  and  P_47
    4  A    between atoms: C_5  and  O_33
    5  A    between atoms: C_6  and  N_7
    6  A    between atoms: N_7  and  C_37
    7  A    between atoms: C_12  and  C_23
    8  A    between atoms: C_13  and  C_20
    9  A    between atoms: C_15  and  C_54
   10  A    between atoms: C_18  and  C_51
   11  A    between atoms: C_18  and  O_52
   12  A    between atoms: C_23  and  C_43
   13  A    between atoms: N_34  and  C_40
   14  A    between atoms: O_35  and  C_41
                            x       y       z     vdW  Elec       q    Type
                         _______ _______ _______ _____ _____    ______ ____

>  <TORSDO>
F 14

$$$$
=
 OpenBabel11062414543D

 56 61  0  0  1  0  0  0  0  0999 V2000
  191.7210  177.6710  144.8080 C   0  0  0  0  0  2  0  0  0  0  0  0
  190.5200  176.5420  142.8410 C   0  0  0  0  0  2  0  0  0  0  0  0
  188.1500  177.3960  142.3530 C   0  0  0  0  0  0  0  0  0  0  0  0
  191.0120  176.6280  145.5410 N   0  0  0  0  0  2  0  0  0  0  0  0
  189.1960  177.1110  143.2570 C   0  0  0  0  0  0  0  0  0  0  0  0
  187.2220  177.8030  144.6420 S   0  0  0  0  0  0  0  0  0  0  0  0
  191.7030  177.3970  143.3030 C   0  0  0  0  0  2  0  0  0  0  0  0
  189.6670  177.1180  145.8300 C   0  0  0  0  0  2  0  0  0  0  0  0
  188.8190  177.2820  144.5950 C   0  0  0  0  0  0  0  0  0  0  0  0
  186.9760  177.7890  142.9780 C   0  0  0  0  0  0  0  0  0  0  0  0
  185.7060  178.1570  142.2750 C   0  0  1  0  0  3  0  0  0  0  0  0
  184.5340  178.1200  143.2430 C   0  0  1  0  0  3  0  0  0  0  0  0
  184.1220  179.3940  143.5760 C   0  0  0  0  0  2  0  0  0  0  0  0
  183.3240  178.6550  142.5530 N   0  0  0  0  0  0  0  0  0  0  0  0
  181.3320  177.5220  139.6220 C   0  0  0  0  0  0  0  0  0  0  0  0
  181.1290  179.3450  141.7350 C   0  0  0  0  0  3  0  0  0  0  0  0
  182.3620  177.6380  140.5560 C   0  0  0  0  0  3  0  0  0  0  0  0
  181.4890  176.6240  138.5750 O   0  0  0  0  0  1  0  0  0  0  0  0
  180.1680  178.3170  139.7500 C   0  0  0  0  0  0  0  0  0  0  0  0
  182.2630  178.5440  141.6110 C   0  0  0  0  0  0  0  0  0  0  0  0
  180.0780  179.2380  140.8100 C   0  0  0  0  0  0  0  0  0  0  0  0
  178.9310  180.0320  140.9290 O   0  0  0  0  0  0  0  0  0  0  0  0
  178.9840  181.4460  141.0720 C   0  0  0  0  0  1  0  0  0  0  0  0
  179.0690  178.2380  138.8260 N   0  0  0  0  0  2  0  0  0  0  0  0
  178.9560  178.9560  137.5650 C   0  0  0  0  0  3  0  0  0  0  0  0
  179.0150  177.9670  136.4180 C   0  0  0  0  0  1  0  0  0  0  0  0
  180.1060  179.9370  137.4310 C   0  0  0  0  0  1  0  0  0  0  0  0
  185.3820  179.2910  140.3980 C   0  0  0  0  0  1  0  0  0  0  0  0
  185.8210  179.4330  141.7140 O   0  0  0  0  0  0  0  0  0  0  0  0
  188.2310  177.3000  140.9590 O   0  0  0  0  0  0  0  0  0  0  0  0
  188.9150  178.2490  140.1510 C   0  0  0  0  0  2  0  0  0  0  0  0
  191.0370  177.9310  138.9020 O   0  0  0  0  0  0  0  0  0  0  0  0
  189.4200  177.1140  135.7060 C   0  0  0  0  0  2  0  0  0  0  0  0
  186.8250  177.1650  135.5580 C   0  0  2  0  0  0  0  0  0  0  0  0
  191.8190  175.8020  138.0730 C   0  0  1  0  0  3  0  0  0  0  0  0
  187.0930  178.2810  137.9190 C   0  0  0  0  0  2  0  0  0  0  0  0
  191.7190  176.7560  139.2660 C   0  0  0  0  0  2  0  0  0  0  0  0
  186.8830  178.6140  135.0660 C   0  0  0  0  0  1  0  0  0  0  0  0
  189.9430  176.5440  137.0280 C   0  0  1  0  0  3  0  0  0  0  0  0
  188.1140  175.0810  135.5370 O   0  0  0  0  0  1  0  0  0  0  0  0
  191.3450  176.4370  136.9160 O   0  0  0  0  0  0  0  0  0  0  0  0
  188.7210  175.9400  139.1950 C   0  0  0  0  0  1  0  0  0  0  0  0
  186.5760  177.1070  137.0780 C   0  0  0  0  0  2  0  0  0  0  0  0
  188.1430  176.4380  135.1970 C   0  0  2  0  0  3  0  0  0  0  0  0
  189.4210  177.4950  138.5590 P   0  0  0  0  0  0  0  0  0  0  0  0
  188.4450  178.5870  137.6740 O   0  0  0  0  0  0  0  0  0  0  0  0
  194.3610  175.0730  137.7230 C   0  0  0  0  0  0  0  0  0  0  0  0
  193.2140  175.4050  137.8820 C   0  0  0  0  0  0  0  0  0  0  0  0
  195.7520  174.6650  137.5270 C   0  0  0  0  0  3  0  0  0  0  0  0
  195.8910  173.9680  136.1900 C   0  0  0  0  0  1  0  0  0  0  0  0
  196.1590  173.7170  138.6340 C   0  0  0  0  0  1  0  0  0  0  0  0
  184.5880  177.4070  134.5940 O   0  0  0  0  0  1  0  0  0  0  0  0
  185.6150  176.4950  134.8600 C   0  0  2  0  0  3  0  0  0  0  0  0
  185.5190  174.1560  135.3430 O   0  0  0  0  0  0  0  0  0  0  0  0
  185.0640  175.3030  135.5890 C   0  0  0  0  0  0  0  0  0  0  0  0
  184.0610  175.4560  136.5370 O   0  0  0  0  0  1  0  0  0  0  0  0
  1  4  1  0  0  0  0
  2  5  1  0  0  0  0
  2  7  1  0  0  0  0
  3 10  2  0  0  0  0
  3  5  1  0  0  0  0
  4  8  1  0  0  0  0
  5  9  2  0  0  0  0
  7  1  1  0  0  0  0
  9  6  1  0  0  0  0
  9  8  1  0  0  0  0
 10  6  1  0  0  0  0
 11 29  1  1  0  0  0
 11 10  1  0  0  0  0
 12 11  1  6  0  0  0
 12 13  1  0  0  0  0
 14 12  1  0  0  0  0
 14 13  1  0  0  0  0
 15 19  2  0  0  0  0
 15 17  1  0  0  0  0
 17 20  2  0  0  0  0
 18 15  1  0  0  0  0
 19 21  1  0  0  0  0
 20 16  1  0  0  0  0
 20 14  1  0  0  0  0
 21 22  1  0  0  0  0
 21 16  2  0  0  0  0
 22 23  1  0  0  0  0
 24 19  1  0  0  0  0
 25 24  1  0  0  0  0
 26 25  1  0  0  0  0
 27 25  1  0  0  0  0
 28 29  1  0  0  0  0
 30  3  1  0  0  0  0
 31 30  1  0  0  0  0
 32 37  1  0  0  0  0
 34 38  1  6  0  0  0
 34 43  1  0  0  0  0
 35 48  1  6  0  0  0
 35 37  1  0  0  0  0
 39 33  1  6  0  0  0
 39 45  1  0  0  0  0
 41 39  1  0  0  0  0
 41 35  1  0  0  0  0
 43 36  1  0  0  0  0
 44 40  1  1  0  0  0
 44 34  1  0  0  0  0
 44 33  1  0  0  0  0
 45 32  1  0  0  0  0
 45 42  1  0  0  0  0
 45 31  1  0  0  0  0
 46 36  1  0  0  0  0
 46 45  1  0  0  0  0
 47 48  3  0  0  0  0
 49 47  1  0  0  0  0
 49 51  1  0  0  0  0
 50 49  1  0  0  0  0
 53 52  1  1  0  0  0
 53 34  1  0  0  0  0
 53 55  1  0  0  0  0
 54 55  2  0  0  0  0
 55 56  1  0  0  0  0
M  END
>  <MODEL>
2

>  <REMARK>
 VINA RESULT:      -6.4      1.605      5.436
  Name = 
  14 active torsions:
  status: ('A' for Active; 'I' for Inactive)
    1  A    between atoms: C_1  and  C_18
    2  A    between atoms: C_2  and  O_33
    3  A    between atoms: C_2  and  P_47
    4  A    between atoms: C_5  and  O_33
    5  A    between atoms: C_6  and  N_7
    6  A    between atoms: N_7  and  C_37
    7  A    between atoms: C_12  and  C_23
    8  A    between atoms: C_13  and  C_20
    9  A    between atoms: C_15  and  C_54
   10  A    between atoms: C_18  and  C_51
   11  A    between atoms: C_18  and  O_52
   12  A    between atoms: C_23  and  C_43
   13  A    between atoms: N_34  and  C_40
   14  A    between atoms: O_35  and  C_41
                            x       y       z     vdW  Elec       q    Type
                         _______ _______ _______ _____ _____    ______ ____

>  <TORSDO>
F 14

$$$$
=
 OpenBabel11062414543D

 56 61  0  0  1  0  0  0  0  0999 V2000
  191.6880  177.5880  144.8990 C   0  0  0  0  0  2  0  0  0  0  0  0
  190.4420  176.4960  142.9400 C   0  0  0  0  0  2  0  0  0  0  0  0
  188.0860  177.4040  142.4810 C   0  0  0  0  0  0  0  0  0  0  0  0
  190.9640  176.5580  145.6350 N   0  0  0  0  0  2  0  0  0  0  0  0
  189.1350  177.0910  143.3730 C   0  0  0  0  0  0  0  0  0  0  0  0
  187.1920  177.8200  144.7820 S   0  0  0  0  0  0  0  0  0  0  0  0
  191.6480  177.3220  143.3920 C   0  0  0  0  0  2  0  0  0  0  0  0
  189.6340  177.0760  145.9400 C   0  0  0  0  0  2  0  0  0  0  0  0
  188.7770  177.2650  144.7150 C   0  0  0  0  0  0  0  0  0  0  0  0
  186.9280  177.8190  143.1210 C   0  0  0  0  0  0  0  0  0  0  0  0
  185.6590  178.2180  142.4330 C   0  0  1  0  0  3  0  0  0  0  0  0
  184.4890  178.1580  143.4020 C   0  0  1  0  0  3  0  0  0  0  0  0
  184.0670  179.4240  143.7540 C   0  0  0  0  0  2  0  0  0  0  0  0
  183.2740  178.6930  142.7220 N   0  0  0  0  0  0  0  0  0  0  0  0
  180.1100  179.4070  140.8980 C   0  0  0  0  0  0  0  0  0  0  0  0
  182.2140  177.5630  140.8350 C   0  0  0  0  0  3  0  0  0  0  0  0
  181.1610  179.5020  141.8110 C   0  0  0  0  0  3  0  0  0  0  0  0
  179.0750  180.3280  140.9860 O   0  0  0  0  0  1  0  0  0  0  0  0
  180.1130  178.3830  139.9210 C   0  0  0  0  0  0  0  0  0  0  0  0
  182.2120  178.5870  141.7810 C   0  0  0  0  0  0  0  0  0  0  0  0
  181.1700  177.4550  139.9020 C   0  0  0  0  0  0  0  0  0  0  0  0
  181.1660  176.4350  138.9420 O   0  0  0  0  0  0  0  0  0  0  0  0
  180.5530  175.1720  139.1620 C   0  0  0  0  0  1  0  0  0  0  0  0
  179.0640  178.2380  138.9480 N   0  0  0  0  0  2  0  0  0  0  0  0
  179.0130  178.8760  137.6410 C   0  0  0  0  0  3  0  0  0  0  0  0
  179.4280  177.8780  136.5790 C   0  0  0  0  0  1  0  0  0  0  0  0
  179.9670  180.0560  137.6110 C   0  0  0  0  0  1  0  0  0  0  0  0
  185.4620  179.3900  140.5620 C   0  0  0  0  0  1  0  0  0  0  0  0
  185.7810  179.5110  141.9130 O   0  0  0  0  0  0  0  0  0  0  0  0
  188.1500  177.3130  141.0860 O   0  0  0  0  0  0  0  0  0  0  0  0
  188.8050  178.2760  140.2710 C   0  0  0  0  0  2  0  0  0  0  0  0
  190.9120  177.9690  138.9940 O   0  0  0  0  0  0  0  0  0  0  0  0
  189.2580  177.1880  135.8090 C   0  0  0  0  0  2  0  0  0  0  0  0
  186.6610  177.2420  135.6920 C   0  0  2  0  0  0  0  0  0  0  0  0
  191.6830  175.8490  138.1330 C   0  0  1  0  0  3  0  0  0  0  0  0
  186.9570  178.3330  138.0620 C   0  0  0  0  0  2  0  0  0  0  0  0
  191.5980  176.7900  139.3380 C   0  0  0  0  0  2  0  0  0  0  0  0
  186.7140  178.6960  135.2150 C   0  0  0  0  0  1  0  0  0  0  0  0
  189.7960  176.6030  137.1190 C   0  0  1  0  0  3  0  0  0  0  0  0
  187.9480  175.1570  135.6340 O   0  0  0  0  0  1  0  0  0  0  0  0
  191.1960  176.4970  136.9890 O   0  0  0  0  0  0  0  0  0  0  0  0
  188.5980  175.9770  139.2940 C   0  0  0  0  0  1  0  0  0  0  0  0
  186.4300  177.1670  137.2140 C   0  0  0  0  0  2  0  0  0  0  0  0
  187.9740  176.5180  135.3080 C   0  0  2  0  0  3  0  0  0  0  0  0
  189.2920  177.5390  138.6650 P   0  0  0  0  0  0  0  0  0  0  0  0
  188.3060  178.6400  137.8030 O   0  0  0  0  0  0  0  0  0  0  0  0
  194.2240  175.1320  137.7500 C   0  0  0  0  0  0  0  0  0  0  0  0
  193.0750  175.4540  137.9220 C   0  0  0  0  0  0  0  0  0  0  0  0
  195.6190  174.7470  137.5450 C   0  0  0  0  0  3  0  0  0  0  0  0
  195.6830  173.5530  136.6150 C   0  0  0  0  0  1  0  0  0  0  0  0
  196.2420  174.3820  138.8750 C   0  0  0  0  0  1  0  0  0  0  0  0
  184.4910  177.5210  134.5950 O   0  0  0  0  0  1  0  0  0  0  0  0
  185.4420  176.5800  135.0020 C   0  0  2  0  0  3  0  0  0  0  0  0
  185.0460  174.2950  135.5830 O   0  0  0  0  0  0  0  0  0  0  0  0
  184.7810  175.5030  135.8140 C   0  0  0  0  0  0  0  0  0  0  0  0
  183.8850  175.8300  136.8230 O   0  0  0  0  0  1  0  0  0  0  0  0
  1  4  1  0  0  0  0
  2  5  1  0  0  0  0
  2  7  1  0  0  0  0
  3 10  2  0  0  0  0
  3  5  1  0  0  0  0
  4  8  1  0  0  0  0
  5  9  2  0  0  0  0
  7  1  1  0  0  0  0
  9  6  1  0  0  0  0
  9  8  1  0  0  0  0
 10  6  1  0  0  0  0
 11 29  1  1  0  0  0
 11 10  1  0  0  0  0
 12 11  1  6  0  0  0
 12 13  1  0  0  0  0
 14 12  1  0  0  0  0
 14 13  1  0  0  0  0
 15 18  1  0  0  0  0
 15 17  1  0  0  0  0
 16 20  1  0  0  0  0
 19 15  2  0  0  0  0
 20 17  2  0  0  0  0
 20 14  1  0  0  0  0
 21 19  1  0  0  0  0
 21 16  2  0  0  0  0
 22 23  1  0  0  0  0
 22 21  1  0  0  0  0
 24 19  1  0  0  0  0
 25 24  1  0  0  0  0
 26 25  1  0  0  0  0
 27 25  1  0  0  0  0
 28 29  1  0  0  0  0
 30  3  1  0  0  0  0
 31 30  1  0  0  0  0
 32 37  1  0  0  0  0
 34 38  1  6  0  0  0
 34 43  1  0  0  0  0
 35 48  1  6  0  0  0
 35 37  1  0  0  0  0
 39 33  1  6  0  0  0
 39 45  1  0  0  0  0
 41 39  1  0  0  0  0
 41 35  1  0  0  0  0
 43 36  1  0  0  0  0
 44 40  1  1  0  0  0
 44 34  1  0  0  0  0
 44 33  1  0  0  0  0
 45 32  1  0  0  0  0
 45 42  1  0  0  0  0
 45 31  1  0  0  0  0
 46 36  1  0  0  0  0
 46 45  1  0  0  0  0
 47 48  3  0  0  0  0
 49 47  1  0  0  0  0
 49 51  1  0  0  0  0
 50 49  1  0  0  0  0
 53 52  1  1  0  0  0
 53 34  1  0  0  0  0
 53 55  1  0  0  0  0
 54 55  2  0  0  0  0
 55 56  1  0  0  0  0
M  END
>  <MODEL>
3

>  <REMARK>
 VINA RESULT:      -6.3      1.560      5.282
  Name = 
  14 active torsions:
  status: ('A' for Active; 'I' for Inactive)
    1  A    between atoms: C_1  and  C_18
    2  A    between atoms: C_2  and  O_33
    3  A    between atoms: C_2  and  P_47
    4  A    between atoms: C_5  and  O_33
    5  A    between atoms: C_6  and  N_7
    6  A    between atoms: N_7  and  C_37
    7  A    between atoms: C_12  and  C_23
    8  A    between atoms: C_13  and  C_20
    9  A    between atoms: C_15  and  C_54
   10  A    between atoms: C_18  and  C_51
   11  A    between atoms: C_18  and  O_52
   12  A    between atoms: C_23  and  C_43
   13  A    between atoms: N_34  and  C_40
   14  A    between atoms: O_35  and  C_41
                            x       y       z     vdW  Elec       q    Type
                         _______ _______ _______ _____ _____    ______ ____

>  <TORSDO>
F 14

$$$$
=
 OpenBabel11062414543D

 56 61  0  0  1  0  0  0  0  0999 V2000
  184.4350  179.5530  144.4920 C   0  0  0  0  0  2  0  0  0  0  0  0
  184.8690  177.8850  142.5910 C   0  0  0  0  0  2  0  0  0  0  0  0
  183.5670  178.3130  140.4220 C   0  0  0  0  0  0  0  0  0  0  0  0
  183.3500  178.6170  144.7580 N   0  0  0  0  0  2  0  0  0  0  0  0
  183.6690  178.3630  141.8290 C   0  0  0  0  0  0  0  0  0  0  0  0
  181.3380  179.0910  141.2540 S   0  0  0  0  0  0  0  0  0  0  0  0
  185.4510  178.9580  143.5140 C   0  0  0  0  0  2  0  0  0  0  0  0
  182.2180  178.9890  143.9140 C   0  0  0  0  0  2  0  0  0  0  0  0
  182.4800  178.7740  142.4450 C   0  0  0  0  0  0  0  0  0  0  0  0
  182.3180  178.6850  139.9490 C   0  0  0  0  0  0  0  0  0  0  0  0
  181.9210  178.7320  138.5050 C   0  0  1  0  0  3  0  0  0  0  0  0
  180.6760  177.8920  138.2700 C   0  0  1  0  0  3  0  0  0  0  0  0
  180.1200  178.1570  137.0360 C   0  0  0  0  0  2  0  0  0  0  0  0
  180.9500  176.9240  137.1690 N   0  0  0  0  0  0  0  0  0  0  0  0
  183.4870  174.6700  135.6430 C   0  0  0  0  0  0  0  0  0  0  0  0
  180.8720  174.5430  136.6320 C   0  0  0  0  0  3  0  0  0  0  0  0
  182.8700  175.8110  136.1580 C   0  0  0  0  0  3  0  0  0  0  0  0
  184.7750  174.7880  135.1400 O   0  0  0  0  0  1  0  0  0  0  0  0
  182.7960  173.4350  135.6360 C   0  0  0  0  0  0  0  0  0  0  0  0
  181.5680  175.7500  136.6530 C   0  0  0  0  0  0  0  0  0  0  0  0
  181.4790  173.3810  136.1260 C   0  0  0  0  0  0  0  0  0  0  0  0
  180.7920  172.1610  136.1060 O   0  0  0  0  0  0  0  0  0  0  0  0
  179.9130  171.7550  137.1480 C   0  0  0  0  0  1  0  0  0  0  0  0
  183.3810  172.2230  135.1280 N   0  0  0  0  0  2  0  0  0  0  0  0
  184.2830  171.3380  135.8500 C   0  0  0  0  0  3  0  0  0  0  0  0
  185.6000  171.2510  135.1070 C   0  0  0  0  0  1  0  0  0  0  0  0
  183.6730  169.9510  135.9400 C   0  0  0  0  0  1  0  0  0  0  0  0
  182.7310  180.7880  138.6710 C   0  0  0  0  0  1  0  0  0  0  0  0
  181.6850  180.0540  138.1150 O   0  0  0  0  0  0  0  0  0  0  0  0
  184.5880  177.9270  139.5460 O   0  0  0  0  0  0  0  0  0  0  0  0
  185.5060  178.8440  138.9660 C   0  0  0  0  0  2  0  0  0  0  0  0
  187.4950  179.1240  140.4260 O   0  0  0  0  0  0  0  0  0  0  0  0
  189.8600  177.6140  138.0570 C   0  0  0  0  0  2  0  0  0  0  0  0
  188.9910  176.8320  135.7340 C   0  0  2  0  0  0  0  0  0  0  0  0
  188.6880  177.2980  141.4620 C   0  0  1  0  0  3  0  0  0  0  0  0
  186.8540  178.1400  136.5190 C   0  0  0  0  0  2  0  0  0  0  0  0
  187.4940  178.2540  141.5310 C   0  0  0  0  0  2  0  0  0  0  0  0
  189.3800  178.1860  135.1340 C   0  0  0  0  0  1  0  0  0  0  0  0
  188.8800  177.3340  139.1990 C   0  0  1  0  0  3  0  0  0  0  0  0
  189.6330  175.2650  137.5070 O   0  0  0  0  0  1  0  0  0  0  0  0
  189.5320  177.6680  140.4050 O   0  0  0  0  0  0  0  0  0  0  0  0
  186.4490  176.5290  139.1650 C   0  0  0  0  0  1  0  0  0  0  0  0
  187.5000  176.8060  136.1220 C   0  0  0  0  0  2  0  0  0  0  0  0
  189.8760  176.5350  136.9690 C   0  0  2  0  0  3  0  0  0  0  0  0
  187.2130  178.1780  139.0330 P   0  0  0  0  0  0  0  0  0  0  0  0
  187.5840  178.8390  137.4990 O   0  0  0  0  0  0  0  0  0  0  0  0
  190.0340  177.3980  143.7630 C   0  0  0  0  0  0  0  0  0  0  0  0
  189.4260  177.3500  142.7240 C   0  0  0  0  0  0  0  0  0  0  0  0
  190.7710  177.4610  145.0250 C   0  0  0  0  0  3  0  0  0  0  0  0
  191.6680  176.2480  145.1480 C   0  0  0  0  0  1  0  0  0  0  0  0
  189.7920  177.4840  146.1790 C   0  0  0  0  0  1  0  0  0  0  0  0
  188.1750  174.8200  134.6030 O   0  0  0  0  0  1  0  0  0  0  0  0
  189.2060  175.7660  134.6300 C   0  0  2  0  0  3  0  0  0  0  0  0
  190.5830  173.8210  134.8210 O   0  0  0  0  0  1  0  0  0  0  0  0
  190.5360  175.0720  134.6920 C   0  0  0  0  0  0  0  0  0  0  0  0
  191.7160  175.7980  134.6010 O   0  0  0  0  0  0  0  0  0  0  0  0
  1  4  1  0  0  0  0
  2  7  1  0  0  0  0
  3  5  1  0  0  0  0
  5  9  2  0  0  0  0
  5  2  1  0  0  0  0
  6  9  1  0  0  0  0
  7  1  1  0  0  0  0
  8  4  1  0  0  0  0
  9  8  1  0  0  0  0
 10  3  2  0  0  0  0
 10  6  1  0  0  0  0
 11 29  1  1  0  0  0
 11 10  1  0  0  0  0
 12 11  1  6  0  0  0
 13 14  1  0  0  0  0
 13 12  1  0  0  0  0
 14 12  1  0  0  0  0
 15 17  1  0  0  0  0
 16 20  1  0  0  0  0
 17 20  2  0  0  0  0
 18 15  1  0  0  0  0
 19 15  2  0  0  0  0
 19 21  1  0  0  0  0
 20 14  1  0  0  0  0
 21 16  2  0  0  0  0
 22 21  1  0  0  0  0
 22 23  1  0  0  0  0
 24 19  1  0  0  0  0
 24 25  1  0  0  0  0
 25 27  1  0  0  0  0
 26 25  1  0  0  0  0
 29 28  1  0  0  0  0
 30  3  1  0  0  0  0
 31 45  1  0  0  0  0
 31 30  1  0  0  0  0
 32 37  1  0  0  0  0
 34 38  1  6  0  0  0
 34 43  1  0  0  0  0
 34 44  1  0  0  0  0
 35 37  1  0  0  0  0
 35 48  1  1  0  0  0
 36 46  1  0  0  0  0
 39 33  1  6  0  0  0
 39 41  1  0  0  0  0
 41 35  1  0  0  0  0
 43 36  1  0  0  0  0
 44 40  1  1  0  0  0
 44 33  1  0  0  0  0
 45 42  1  0  0  0  0
 45 39  1  0  0  0  0
 45 32  1  0  0  0  0
 46 45  1  0  0  0  0
 47 49  1  0  0  0  0
 48 47  3  0  0  0  0
 49 50  1  0  0  0  0
 49 51  1  0  0  0  0
 53 52  1  1  0  0  0
 53 55  1  0  0  0  0
 53 34  1  0  0  0  0
 55 54  1  0  0  0  0
 56 55  2  0  0  0  0
M  END
>  <MODEL>
4

>  <REMARK>
 VINA RESULT:      -4.6      2.645      6.625
  Name = 
  14 active torsions:
  status: ('A' for Active; 'I' for Inactive)
    1  A    between atoms: C_1  and  C_18
    2  A    between atoms: C_2  and  O_33
    3  A    between atoms: C_2  and  P_47
    4  A    between atoms: C_5  and  O_33
    5  A    between atoms: C_6  and  N_7
    6  A    between atoms: N_7  and  C_37
    7  A    between atoms: C_12  and  C_23
    8  A    between atoms: C_13  and  C_20
    9  A    between atoms: C_15  and  C_54
   10  A    between atoms: C_18  and  C_51
   11  A    between atoms: C_18  and  O_52
   12  A    between atoms: C_23  and  C_43
   13  A    between atoms: N_34  and  C_40
   14  A    between atoms: O_35  and  C_41
                            x       y       z     vdW  Elec       q    Type
                         _______ _______ _______ _____ _____    ______ ____

>  <TORSDO>
F 14

$$$$
=
 OpenBabel11062414543D

 56 61  0  0  1  0  0  0  0  0999 V2000
  189.9720  176.8280  142.9970 C   0  0  0  0  0  2  0  0  0  0  0  0
  188.4700  177.5020  141.0280 C   0  0  0  0  0  2  0  0  0  0  0  0
  189.2080  176.6410  138.7260 C   0  0  0  0  0  0  0  0  0  0  0  0
  190.6710  178.0380  142.5800 N   0  0  0  0  0  2  0  0  0  0  0  0
  189.5110  177.0950  140.0280 C   0  0  0  0  0  0  0  0  0  0  0  0
  191.7030  176.8190  138.8380 S   0  0  0  0  0  0  0  0  0  0  0  0
  188.5870  176.7400  142.3500 C   0  0  0  0  0  2  0  0  0  0  0  0
  191.5900  177.6780  141.5050 C   0  0  0  0  0  2  0  0  0  0  0  0
  190.8860  177.2570  140.2410 C   0  0  0  0  0  0  0  0  0  0  0  0
  190.3320  176.4490  137.9370 C   0  0  0  0  0  0  0  0  0  0  0  0
  190.3170  175.9710  136.5180 C   0  0  1  0  0  3  0  0  0  0  0  0
  190.2340  174.4530  136.4700 C   0  0  1  0  0  3  0  0  0  0  0  0
  190.0580  174.0030  135.1780 C   0  0  0  0  0  2  0  0  0  0  0  0
  191.4330  173.9280  135.7540 N   0  0  0  0  0  0  0  0  0  0  0  0
  194.6560  172.0930  136.0570 C   0  0  0  0  0  0  0  0  0  0  0  0
  193.7160  174.5810  135.1860 C   0  0  0  0  0  3  0  0  0  0  0  0
  193.2950  172.3950  136.1170 C   0  0  0  0  0  3  0  0  0  0  0  0
  195.0780  170.8570  136.5260 O   0  0  0  0  0  1  0  0  0  0  0  0
  195.5680  173.0420  135.5370 C   0  0  0  0  0  0  0  0  0  0  0  0
  192.8230  173.6330  135.6820 C   0  0  0  0  0  0  0  0  0  0  0  0
  195.0890  174.2940  135.1100 C   0  0  0  0  0  0  0  0  0  0  0  0
  195.9940  175.2360  134.6060 O   0  0  0  0  0  0  0  0  0  0  0  0
  195.9680  176.6070  134.9810 C   0  0  0  0  0  1  0  0  0  0  0  0
  196.9800  172.7870  135.4410 N   0  0  0  0  0  2  0  0  0  0  0  0
  197.9760  173.0850  136.4600 C   0  0  0  0  0  3  0  0  0  0  0  0
  197.2770  173.4200  137.7610 C   0  0  0  0  0  1  0  0  0  0  0  0
  198.8100  174.2770  136.0250 C   0  0  0  0  0  1  0  0  0  0  0  0
  189.7990  177.3220  134.8390 C   0  0  0  0  0  1  0  0  0  0  0  0
  189.2320  176.5290  135.8350 O   0  0  0  0  0  0  0  0  0  0  0  0
  187.9230  176.4030  138.2260 O   0  0  0  0  0  0  0  0  0  0  0  0
  187.0880  177.4280  137.7040 C   0  0  0  0  0  2  0  0  0  0  0  0
  184.9190  177.8450  138.8380 O   0  0  0  0  0  0  0  0  0  0  0  0
  183.2450  174.8840  137.4500 C   0  0  0  0  0  2  0  0  0  0  0  0
  184.5970  173.2730  135.9220 C   0  0  2  0  0  0  0  0  0  0  0  0
  182.8870  178.4740  137.6960 C   0  0  1  0  0  3  0  0  0  0  0  0
  186.5950  174.7410  136.7880 C   0  0  0  0  0  2  0  0  0  0  0  0
  184.2160  178.9360  138.2980 C   0  0  0  0  0  2  0  0  0  0  0  0
  184.9410  172.4090  137.1380 C   0  0  0  0  0  1  0  0  0  0  0  0
  183.5740  176.3620  137.2190 C   0  0  1  0  0  3  0  0  0  0  0  0
  182.8560  174.7680  135.0620 O   0  0  0  0  0  1  0  0  0  0  0  0
  182.6740  177.1200  137.9960 O   0  0  0  0  0  0  0  0  0  0  0  0
  185.4190  177.4740  135.8340 C   0  0  0  0  0  1  0  0  0  0  0  0
  185.7350  174.2650  135.6090 C   0  0  0  0  0  2  0  0  0  0  0  0
  183.2730  174.0320  136.1770 C   0  0  2  0  0  3  0  0  0  0  0  0
  185.3620  176.8310  137.5370 P   0  0  0  0  0  0  0  0  0  0  0  0
  185.8340  175.2210  137.8710 O   0  0  0  0  0  0  0  0  0  0  0  0
  180.8970  179.9450  138.6940 C   0  0  0  0  0  0  0  0  0  0  0  0
  181.7960  179.2790  138.2460 C   0  0  0  0  0  0  0  0  0  0  0  0
  179.8060  180.7560  139.2330 C   0  0  0  0  0  3  0  0  0  0  0  0
  179.9790  182.1940  138.7910 C   0  0  0  0  0  1  0  0  0  0  0  0
  179.8280  180.6880  140.7450 C   0  0  0  0  0  1  0  0  0  0  0  0
  183.1980  171.7270  134.6400 O   0  0  0  0  0  1  0  0  0  0  0  0
  184.4640  172.3190  134.7080 C   0  0  2  0  0  3  0  0  0  0  0  0
  185.2020  170.0490  134.5940 O   0  0  0  0  0  0  0  0  0  0  0  0
  185.5280  171.2630  134.6320 C   0  0  0  0  0  0  0  0  0  0  0  0
  186.8710  171.6160  134.5960 O   0  0  0  0  0  1  0  0  0  0  0  0
  2  7  1  0  0  0  0
  3  5  1  0  0  0  0
  4  1  1  0  0  0  0
  5  9  2  0  0  0  0
  5  2  1  0  0  0  0
  6  9  1  0  0  0  0
  7  1  1  0  0  0  0
  8  4  1  0  0  0  0
  9  8  1  0  0  0  0
 10  3  2  0  0  0  0
 10  6  1  0  0  0  0
 11 29  1  6  0  0  0
 11 10  1  0  0  0  0
 12 11  1  6  0  0  0
 13 14  1  0  0  0  0
 13 12  1  0  0  0  0
 14 12  1  0  0  0  0
 15 17  1  0  0  0  0
 15 18  1  0  0  0  0
 16 20  1  0  0  0  0
 19 15  2  0  0  0  0
 20 14  1  0  0  0  0
 20 17  2  0  0  0  0
 21 16  2  0  0  0  0
 21 19  1  0  0  0  0
 22 23  1  0  0  0  0
 22 21  1  0  0  0  0
 24 19  1  0  0  0  0
 24 25  1  0  0  0  0
 25 26  1  0  0  0  0
 27 25  1  0  0  0  0
 28 29  1  0  0  0  0
 30  3  1  0  0  0  0
 31 30  1  0  0  0  0
 34 44  1  0  0  0  0
 34 38  1  1  0  0  0
 35 41  1  0  0  0  0
 35 48  1  1  0  0  0
 35 37  1  0  0  0  0
 36 46  1  0  0  0  0
 37 32  1  0  0  0  0
 39 33  1  1  0  0  0
 39 45  1  0  0  0  0
 39 41  1  0  0  0  0
 42 45  1  0  0  0  0
 43 34  1  0  0  0  0
 43 36  1  0  0  0  0
 44 40  1  6  0  0  0
 44 33  1  0  0  0  0
 45 31  1  0  0  0  0
 45 46  1  0  0  0  0
 45 32  1  0  0  0  0
 47 49  1  0  0  0  0
 48 47  3  0  0  0  0
 49 51  1  0  0  0  0
 50 49  1  0  0  0  0
 53 52  1  1  0  0  0
 53 34  1  0  0  0  0
 54 55  2  0  0  0  0
 55 53  1  0  0  0  0
 56 55  1  0  0  0  0
M  END
>  <MODEL>
5

>  <REMARK>
 VINA RESULT:      -4.6      3.575     10.126
  Name = 
  14 active torsions:
  status: ('A' for Active; 'I' for Inactive)
    1  A    between atoms: C_1  and  C_18
    2  A    between atoms: C_2  and  O_33
    3  A    between atoms: C_2  and  P_47
    4  A    between atoms: C_5  and  O_33
    5  A    between atoms: C_6  and  N_7
    6  A    between atoms: N_7  and  C_37
    7  A    between atoms: C_12  and  C_23
    8  A    between atoms: C_13  and  C_20
    9  A    between atoms: C_15  and  C_54
   10  A    between atoms: C_18  and  C_51
   11  A    between atoms: C_18  and  O_52
   12  A    between atoms: C_23  and  C_43
   13  A    between atoms: N_34  and  C_40
   14  A    between atoms: O_35  and  C_41
                            x       y       z     vdW  Elec       q    Type
                         _______ _______ _______ _____ _____    ______ ____

>  <TORSDO>
F 14

$$$$
=
 OpenBabel11062414543D

 56 61  0  0  1  0  0  0  0  0999 V2000
  190.1300  177.2300  142.3700 C   0  0  0  0  0  2  0  0  0  0  0  0
  189.1670  178.8430  140.6230 C   0  0  0  0  0  2  0  0  0  0  0  0
  188.2010  177.7440  138.5140 C   0  0  0  0  0  0  0  0  0  0  0  0
  191.3150  177.3970  141.5360 N   0  0  0  0  0  2  0  0  0  0  0  0
  189.1310  177.7690  139.5770 C   0  0  0  0  0  0  0  0  0  0  0  0
  189.7870  175.8530  138.0960 S   0  0  0  0  0  0  0  0  0  0  0  0
  189.0730  178.2880  142.0460 C   0  0  0  0  0  2  0  0  0  0  0  0
  191.2210  176.4480  140.4300 C   0  0  0  0  0  2  0  0  0  0  0  0
  190.1010  176.7640  139.4730 C   0  0  0  0  0  0  0  0  0  0  0  0
  188.4420  176.7310  137.5980 C   0  0  0  0  0  0  0  0  0  0  0  0
  187.6200  176.4620  136.3760 C   0  0  1  0  0  3  0  0  0  0  0  0
  188.2900  177.0530  135.1460 C   0  0  1  0  0  3  0  0  0  0  0  0
  189.1870  178.0420  135.4920 C   0  0  0  0  0  2  0  0  0  0  0  0
  189.7380  176.6930  135.1670 N   0  0  0  0  0  0  0  0  0  0  0  0
  191.5580  173.4690  134.8000 C   0  0  0  0  0  0  0  0  0  0  0  0
  192.1230  176.2030  134.9850 C   0  0  0  0  0  3  0  0  0  0  0  0
  190.5250  174.3960  134.9340 C   0  0  0  0  0  3  0  0  0  0  0  0
  191.2310  172.1210  134.7400 O   0  0  0  0  0  1  0  0  0  0  0  0
  192.9010  173.9110  134.7400 C   0  0  0  0  0  0  0  0  0  0  0  0
  190.8020  175.7590  135.0250 C   0  0  0  0  0  0  0  0  0  0  0  0
  193.1770  175.2860  134.8430 C   0  0  0  0  0  0  0  0  0  0  0  0
  194.5080  175.7210  134.7940 O   0  0  0  0  0  0  0  0  0  0  0  0
  195.0790  176.5640  135.7860 C   0  0  0  0  0  1  0  0  0  0  0  0
  194.0090  173.0050  134.5940 N   0  0  0  0  0  2  0  0  0  0  0  0
  194.8820  172.5390  135.6610 C   0  0  0  0  0  3  0  0  0  0  0  0
  196.2610  172.2670  135.0960 C   0  0  0  0  0  1  0  0  0  0  0  0
  194.3270  171.2570  136.2510 C   0  0  0  0  0  1  0  0  0  0  0  0
  186.3390  174.7600  136.9890 C   0  0  0  0  0  1  0  0  0  0  0  0
  187.4480  175.0840  136.2080 O   0  0  0  0  0  0  0  0  0  0  0  0
  187.1330  178.6330  138.3480 O   0  0  0  0  0  0  0  0  0  0  0  0
  185.9150  178.2750  137.7080 C   0  0  0  0  0  2  0  0  0  0  0  0
  185.7940  177.5820  140.0890 O   0  0  0  0  0  0  0  0  0  0  0  0
  182.2040  176.8100  140.0270 C   0  0  0  0  0  2  0  0  0  0  0  0
  180.9000  177.0580  137.7910 C   0  0  2  0  0  0  0  0  0  0  0  0
  184.6290  178.8160  141.8060 C   0  0  1  0  0  3  0  0  0  0  0  0
  183.3340  177.3310  136.8440 C   0  0  0  0  0  2  0  0  0  0  0  0
  185.9110  178.6610  140.9830 C   0  0  0  0  0  2  0  0  0  0  0  0
  181.1410  175.5760  137.4880 C   0  0  0  0  0  1  0  0  0  0  0  0
  183.2450  177.9100  140.2490 C   0  0  1  0  0  3  0  0  0  0  0  0
  180.6220  178.6090  139.6680 O   0  0  0  0  0  1  0  0  0  0  0  0
  183.7660  177.7410  141.5490 O   0  0  0  0  0  0  0  0  0  0  0  0
  184.1210  179.7340  138.6790 C   0  0  0  0  0  1  0  0  0  0  0  0
  181.9490  177.9440  137.0910 C   0  0  0  0  0  2  0  0  0  0  0  0
  180.9310  177.2890  139.3210 C   0  0  2  0  0  3  0  0  0  0  0  0
  184.5930  177.9950  138.9470 P   0  0  0  0  0  0  0  0  0  0  0  0
  183.8980  176.7530  137.9970 O   0  0  0  0  0  0  0  0  0  0  0  0
  185.2470  178.8750  144.4010 C   0  0  0  0  0  0  0  0  0  0  0  0
  184.9650  178.8500  143.2290 C   0  0  0  0  0  0  0  0  0  0  0  0
  185.5950  178.9050  145.8210 C   0  0  0  0  0  3  0  0  0  0  0  0
  186.8920  178.1560  146.0400 C   0  0  0  0  0  1  0  0  0  0  0  0
  184.4920  178.2470  146.6230 C   0  0  0  0  0  1  0  0  0  0  0  0
  178.9730  176.3820  136.4420 O   0  0  0  0  0  1  0  0  0  0  0  0
  179.5130  177.4230  137.2040 C   0  0  2  0  0  3  0  0  0  0  0  0
  179.8720  178.6990  135.2140 O   0  0  0  0  0  0  0  0  0  0  0  0
  179.4940  178.7000  136.4140 C   0  0  0  0  0  0  0  0  0  0  0  0
  179.0560  179.8830  136.9950 O   0  0  0  0  0  1  0  0  0  0  0  0
  2  7  1  0  0  0  0
  3  5  1  0  0  0  0
  4  1  1  0  0  0  0
  5  2  1  0  0  0  0
  6  9  1  0  0  0  0
  7  1  1  0  0  0  0
  8  4  1  0  0  0  0
  9  5  2  0  0  0  0
  9  8  1  0  0  0  0
 10  6  1  0  0  0  0
 10  3  2  0  0  0  0
 11 29  1  6  0  0  0
 11 10  1  0  0  0  0
 12 14  1  0  0  0  0
 12 13  1  0  0  0  0
 12 11  1  1  0  0  0
 14 13  1  0  0  0  0
 15 17  1  0  0  0  0
 16 20  1  0  0  0  0
 17 20  2  0  0  0  0
 18 15  1  0  0  0  0
 19 15  2  0  0  0  0
 19 21  1  0  0  0  0
 20 14  1  0  0  0  0
 21 16  2  0  0  0  0
 22 21  1  0  0  0  0
 22 23  1  0  0  0  0
 24 19  1  0  0  0  0
 24 25  1  0  0  0  0
 25 27  1  0  0  0  0
 26 25  1  0  0  0  0
 29 28  1  0  0  0  0
 30  3  1  0  0  0  0
 31 30  1  0  0  0  0
 31 45  1  0  0  0  0
 32 37  1  0  0  0  0
 34 38  1  6  0  0  0
 34 44  1  0  0  0  0
 35 48  1  1  0  0  0
 36 43  1  0  0  0  0
 36 46  1  0  0  0  0
 37 35  1  0  0  0  0
 39 33  1  6  0  0  0
 39 41  1  0  0  0  0
 41 35  1  0  0  0  0
 42 45  1  0  0  0  0
 43 34  1  0  0  0  0
 44 40  1  6  0  0  0
 44 33  1  0  0  0  0
 45 32  1  0  0  0  0
 45 39  1  0  0  0  0
 46 45  1  0  0  0  0
 47 49  1  0  0  0  0
 48 47  3  0  0  0  0
 49 50  1  0  0  0  0
 49 51  1  0  0  0  0
 53 52  1  6  0  0  0
 53 34  1  0  0  0  0
 54 55  2  0  0  0  0
 55 56  1  0  0  0  0
 55 53  1  0  0  0  0
M  END
>  <MODEL>
6

>  <REMARK>
 VINA RESULT:      -4.4      3.110     10.560
  Name = 
  14 active torsions:
  status: ('A' for Active; 'I' for Inactive)
    1  A    between atoms: C_1  and  C_18
    2  A    between atoms: C_2  and  O_33
    3  A    between atoms: C_2  and  P_47
    4  A    between atoms: C_5  and  O_33
    5  A    between atoms: C_6  and  N_7
    6  A    between atoms: N_7  and  C_37
    7  A    between atoms: C_12  and  C_23
    8  A    between atoms: C_13  and  C_20
    9  A    between atoms: C_15  and  C_54
   10  A    between atoms: C_18  and  C_51
   11  A    between atoms: C_18  and  O_52
   12  A    between atoms: C_23  and  C_43
   13  A    between atoms: N_34  and  C_40
   14  A    between atoms: O_35  and  C_41
                            x       y       z     vdW  Elec       q    Type
                         _______ _______ _______ _____ _____    ______ ____

>  <TORSDO>
F 14

$$$$
=
 OpenBabel11062414543D

 56 61  0  0  1  0  0  0  0  0999 V2000
  183.9950  179.7270  145.2390 C   0  0  0  0  0  2  0  0  0  0  0  0
  185.2110  178.0390  143.7370 C   0  0  0  0  0  2  0  0  0  0  0  0
  184.6250  178.1540  141.2410 C   0  0  0  0  0  0  0  0  0  0  0  0
  183.0040  178.6580  145.2490 N   0  0  0  0  0  2  0  0  0  0  0  0
  184.2670  178.2940  142.6000 C   0  0  0  0  0  0  0  0  0  0  0  0
  182.1690  178.6410  141.2670 S   0  0  0  0  0  0  0  0  0  0  0  0
  185.3340  179.2350  144.6840 C   0  0  0  0  0  2  0  0  0  0  0  0
  182.1640  178.8130  144.0660 C   0  0  0  0  0  2  0  0  0  0  0  0
  182.9030  178.5600  142.7770 C   0  0  0  0  0  0  0  0  0  0  0  0
  183.5550  178.3130  140.3730 C   0  0  0  0  0  0  0  0  0  0  0  0
  183.6360  178.2220  138.8800 C   0  0  1  0  0  3  0  0  0  0  0  0
  182.9580  176.9530  138.3890 C   0  0  1  0  0  3  0  0  0  0  0  0
  182.3630  177.1490  137.1590 C   0  0  0  0  0  2  0  0  0  0  0  0
  183.6850  176.4560  137.1840 N   0  0  0  0  0  0  0  0  0  0  0  0
  185.7980  173.8970  135.5000 C   0  0  0  0  0  0  0  0  0  0  0  0
  185.9970  176.5390  136.4020 C   0  0  0  0  0  3  0  0  0  0  0  0
  184.7080  174.5190  136.1100 C   0  0  0  0  0  3  0  0  0  0  0  0
  185.6610  172.5770  135.0940 O   0  0  0  0  0  1  0  0  0  0  0  0
  187.0080  174.6090  135.3190 C   0  0  0  0  0  0  0  0  0  0  0  0
  184.8030  175.8360  136.5590 C   0  0  0  0  0  0  0  0  0  0  0  0
  187.1020  175.9330  135.7830 C   0  0  0  0  0  0  0  0  0  0  0  0
  188.3040  176.6320  135.6140 O   0  0  0  0  0  0  0  0  0  0  0  0
  188.4240  177.7630  134.7610 C   0  0  0  0  0  1  0  0  0  0  0  0
  188.1620  174.0260  134.6900 N   0  0  0  0  0  2  0  0  0  0  0  0
  189.1810  173.2200  135.3470 C   0  0  0  0  0  3  0  0  0  0  0  0
  188.9990  171.7680  134.9560 C   0  0  0  0  0  1  0  0  0  0  0  0
  189.0420  173.3490  136.8520 C   0  0  0  0  0  1  0  0  0  0  0  0
  183.7920  180.4280  138.7250 C   0  0  0  0  0  1  0  0  0  0  0  0
  183.0310  179.3410  138.2980 O   0  0  0  0  0  0  0  0  0  0  0  0
  185.9100  177.8740  140.7630 O   0  0  0  0  0  0  0  0  0  0  0  0
  187.0200  178.7410  140.9580 C   0  0  0  0  0  2  0  0  0  0  0  0
  188.2180  177.0070  139.6460 O   0  0  0  0  0  0  0  0  0  0  0  0
  190.4280  175.9820  142.3950 C   0  0  0  0  0  2  0  0  0  0  0  0
  190.1500  177.1080  144.7220 C   0  0  2  0  0  0  0  0  0  0  0  0
  190.5330  177.1650  138.9800 C   0  0  1  0  0  3  0  0  0  0  0  0
  187.9770  178.0450  143.5840 C   0  0  0  0  0  2  0  0  0  0  0  0
  189.0820  177.5480  138.6780 C   0  0  0  0  0  2  0  0  0  0  0  0
  189.2170  175.9750  145.1580 C   0  0  0  0  0  1  0  0  0  0  0  0
  190.2520  176.9530  141.2240 C   0  0  1  0  0  3  0  0  0  0  0  0
  192.0530  177.5640  143.2470 O   0  0  0  0  0  1  0  0  0  0  0  0
  190.5720  176.2510  140.0430 O   0  0  0  0  0  0  0  0  0  0  0  0
  189.4350  179.3800  141.1640 C   0  0  0  0  0  1  0  0  0  0  0  0
  189.3470  178.3230  144.2170 C   0  0  0  0  0  2  0  0  0  0  0  0
  191.1110  176.5990  143.6200 C   0  0  2  0  0  3  0  0  0  0  0  0
  188.5690  177.7780  141.1290 P   0  0  0  0  0  0  0  0  0  0  0  0
  188.0200  177.0580  142.5820 O   0  0  0  0  0  0  0  0  0  0  0  0
  191.6290  176.0730  136.8070 C   0  0  0  0  0  0  0  0  0  0  0  0
  191.1370  176.5650  137.7910 C   0  0  0  0  0  0  0  0  0  0  0  0
  192.2240  175.4770  135.6110 C   0  0  0  0  0  3  0  0  0  0  0  0
  192.6200  174.0450  135.9020 C   0  0  0  0  0  1  0  0  0  0  0  0
  193.4510  176.2680  135.2120 C   0  0  0  0  0  1  0  0  0  0  0  0
  192.0560  176.7510  146.2170 O   0  0  0  0  0  1  0  0  0  0  0  0
  190.9380  177.5580  145.9780 C   0  0  2  0  0  3  0  0  0  0  0  0
  190.6450  177.5040  148.3500 O   0  0  0  0  0  1  0  0  0  0  0  0
  190.1060  177.6620  147.2250 C   0  0  0  0  0  0  0  0  0  0  0  0
  188.7480  177.9390  147.1450 O   0  0  0  0  0  0  0  0  0  0  0  0
  1  4  1  0  0  0  0
  2  7  1  0  0  0  0
  3  5  1  0  0  0  0
  5  9  2  0  0  0  0
  5  2  1  0  0  0  0
  6  9  1  0  0  0  0
  7  1  1  0  0  0  0
  8  4  1  0  0  0  0
  9  8  1  0  0  0  0
 10  3  2  0  0  0  0
 10  6  1  0  0  0  0
 11 29  1  6  0  0  0
 11 10  1  0  0  0  0
 12 11  1  6  0  0  0
 13 14  1  0  0  0  0
 13 12  1  0  0  0  0
 14 12  1  0  0  0  0
 15 17  1  0  0  0  0
 16 20  1  0  0  0  0
 17 20  2  0  0  0  0
 18 15  1  0  0  0  0
 19 15  2  0  0  0  0
 19 21  1  0  0  0  0
 20 14  1  0  0  0  0
 21 16  2  0  0  0  0
 22 21  1  0  0  0  0
 23 22  1  0  0  0  0
 24 19  1  0  0  0  0
 24 25  1  0  0  0  0
 25 27  1  0  0  0  0
 26 25  1  0  0  0  0
 29 28  1  0  0  0  0
 30 31  1  0  0  0  0
 30  3  1  0  0  0  0
 31 45  1  0  0  0  0
 32 45  1  0  0  0  0
 33 44  1  0  0  0  0
 34 38  1  1  0  0  0
 34 53  1  0  0  0  0
 35 48  1  6  0  0  0
 35 41  1  0  0  0  0
 36 43  1  0  0  0  0
 37 35  1  0  0  0  0
 37 32  1  0  0  0  0
 39 33  1  1  0  0  0
 41 39  1  0  0  0  0
 43 34  1  0  0  0  0
 44 40  1  6  0  0  0
 44 34  1  0  0  0  0
 45 42  1  0  0  0  0
 45 39  1  0  0  0  0
 45 46  1  0  0  0  0
 46 36  1  0  0  0  0
 47 48  3  0  0  0  0
 49 50  1  0  0  0  0
 49 47  1  0  0  0  0
 51 49  1  0  0  0  0
 53 52  1  1  0  0  0
 53 55  1  0  0  0  0
 55 54  1  0  0  0  0
 56 55  2  0  0  0  0
M  END
>  <MODEL>
7

>  <REMARK>
 VINA RESULT:      -4.4      3.095      7.823
  Name = 
  14 active torsions:
  status: ('A' for Active; 'I' for Inactive)
    1  A    between atoms: C_1  and  C_18
    2  A    between atoms: C_2  and  O_33
    3  A    between atoms: C_2  and  P_47
    4  A    between atoms: C_5  and  O_33
    5  A    between atoms: C_6  and  N_7
    6  A    between atoms: N_7  and  C_37
    7  A    between atoms: C_12  and  C_23
    8  A    between atoms: C_13  and  C_20
    9  A    between atoms: C_15  and  C_54
   10  A    between atoms: C_18  and  C_51
   11  A    between atoms: C_18  and  O_52
   12  A    between atoms: C_23  and  C_43
   13  A    between atoms: N_34  and  C_40
   14  A    between atoms: O_35  and  C_41
                            x       y       z     vdW  Elec       q    Type
                         _______ _______ _______ _____ _____    ______ ____

>  <TORSDO>
F 14

$$$$
=
 OpenBabel11062414543D

 56 61  0  0  1  0  0  0  0  0999 V2000
  185.7890  174.4300  135.5380 C   0  0  0  0  0  2  0  0  0  0  0  0
  186.6620  176.2540  137.1180 C   0  0  0  0  0  2  0  0  0  0  0  0
  184.8650  177.7020  138.2390 C   0  0  0  0  0  0  0  0  0  0  0  0
  185.8520  175.5380  134.5940 N   0  0  0  0  0  2  0  0  0  0  0  0
  185.3290  176.9400  137.1450 C   0  0  0  0  0  0  0  0  0  0  0  0
  183.1610  177.9780  136.4260 S   0  0  0  0  0  0  0  0  0  0  0  0
  186.5520  174.7560  136.8250 C   0  0  0  0  0  2  0  0  0  0  0  0
  184.6120  176.3000  134.7120 C   0  0  0  0  0  2  0  0  0  0  0  0
  184.4760  177.0070  136.0360 C   0  0  0  0  0  0  0  0  0  0  0  0
  183.6650  178.3500  137.9870 C   0  0  0  0  0  0  0  0  0  0  0  0
  182.9360  179.2230  138.9610 C   0  0  1  0  0  3  0  0  0  0  0  0
  182.6750  178.4700  140.2560 C   0  0  1  0  0  3  0  0  0  0  0  0
  181.4910  178.8730  140.8380 C   0  0  0  0  0  2  0  0  0  0  0  0
  181.4820  177.5930  140.0700 N   0  0  0  0  0  0  0  0  0  0  0  0
  179.9510  175.2460  137.6230 C   0  0  0  0  0  0  0  0  0  0  0  0
  180.4590  175.3960  140.3700 C   0  0  0  0  0  3  0  0  0  0  0  0
  180.5840  176.3650  138.1640 C   0  0  0  0  0  3  0  0  0  0  0  0
  179.6960  175.2290  136.2580 O   0  0  0  0  0  1  0  0  0  0  0  0
  179.5780  174.1700  138.4620 C   0  0  0  0  0  0  0  0  0  0  0  0
  180.8410  176.4420  139.5320 C   0  0  0  0  0  0  0  0  0  0  0  0
  179.8280  174.2570  139.8440 C   0  0  0  0  0  0  0  0  0  0  0  0
  179.4470  173.1970  140.6750 O   0  0  0  0  0  0  0  0  0  0  0  0
  179.2600  173.3450  142.0760 C   0  0  0  0  0  1  0  0  0  0  0  0
  178.9310  172.9860  137.9630 N   0  0  0  0  0  2  0  0  0  0  0  0
  179.5950  171.7920  137.4620 C   0  0  0  0  0  3  0  0  0  0  0  0
  181.0540  172.1060  137.1980 C   0  0  0  0  0  1  0  0  0  0  0  0
  178.9410  171.3510  136.1660 C   0  0  0  0  0  1  0  0  0  0  0  0
  182.9320  181.4220  138.6850 C   0  0  0  0  0  1  0  0  0  0  0  0
  183.6810  180.3770  139.2230 O   0  0  0  0  0  0  0  0  0  0  0  0
  185.5140  177.8330  139.4730 O   0  0  0  0  0  0  0  0  0  0  0  0
  186.6080  178.7150  139.6880 C   0  0  0  0  0  2  0  0  0  0  0  0
  188.2490  176.9420  139.1180 O   0  0  0  0  0  0  0  0  0  0  0  0
  189.2140  176.2550  142.5950 C   0  0  0  0  0  2  0  0  0  0  0  0
  188.0280  177.5520  144.5110 C   0  0  2  0  0  0  0  0  0  0  0  0
  190.6380  177.1610  139.3970 C   0  0  1  0  0  3  0  0  0  0  0  0
  186.4650  178.2840  142.5320 C   0  0  0  0  0  2  0  0  0  0  0  0
  189.4170  177.4450  138.5180 C   0  0  0  0  0  2  0  0  0  0  0  0
  187.0140  176.4130  144.6530 C   0  0  0  0  0  1  0  0  0  0  0  0
  189.4990  177.1180  141.3620 C   0  0  1  0  0  3  0  0  0  0  0  0
  190.3510  177.9810  143.8600 O   0  0  0  0  0  1  0  0  0  0  0  0
  190.2680  176.3390  140.4720 O   0  0  0  0  0  0  0  0  0  0  0  0
  188.7380  179.4880  140.7600 C   0  0  0  0  0  1  0  0  0  0  0  0
  187.4710  178.6800  143.6210 C   0  0  0  0  0  2  0  0  0  0  0  0
  189.3510  177.0030  143.9250 C   0  0  2  0  0  3  0  0  0  0  0  0
  187.9780  177.8470  140.5410 P   0  0  0  0  0  0  0  0  0  0  0  0
  186.9120  177.2210  141.7250 O   0  0  0  0  0  0  0  0  0  0  0  0
  192.5210  175.9480  137.9480 C   0  0  0  0  0  0  0  0  0  0  0  0
  191.6680  176.4960  138.6000 C   0  0  0  0  0  0  0  0  0  0  0  0
  193.5570  175.2800  137.1610 C   0  0  0  0  0  3  0  0  0  0  0  0
  194.6230  174.7350  138.0890 C   0  0  0  0  0  1  0  0  0  0  0  0
  194.1810  176.2730  136.2050 C   0  0  0  0  0  1  0  0  0  0  0  0
  189.2040  177.4190  146.6540 O   0  0  0  0  0  1  0  0  0  0  0  0
  188.2520  178.1410  145.9270 C   0  0  2  0  0  3  0  0  0  0  0  0
  186.0570  179.0120  146.3050 O   0  0  0  0  0  0  0  0  0  0  0  0
  186.9970  178.2950  146.7380 C   0  0  0  0  0  0  0  0  0  0  0  0
  186.8620  177.6480  147.9590 O   0  0  0  0  0  1  0  0  0  0  0  0
  1  7  1  0  0  0  0
  2  5  1  0  0  0  0
  3 30  1  0  0  0  0
  4  8  1  0  0  0  0
  4  1  1  0  0  0  0
  5  3  1  0  0  0  0
  6 10  1  0  0  0  0
  7  2  1  0  0  0  0
  8  9  1  0  0  0  0
  9  6  1  0  0  0  0
  9  5  2  0  0  0  0
 10  3  2  0  0  0  0
 10 11  1  0  0  0  0
 11 29  1  1  0  0  0
 12 11  1  6  0  0  0
 12 13  1  0  0  0  0
 14 12  1  0  0  0  0
 14 13  1  0  0  0  0
 15 17  2  0  0  0  0
 15 19  1  0  0  0  0
 17 20  1  0  0  0  0
 18 15  1  0  0  0  0
 19 21  2  0  0  0  0
 20 14  1  0  0  0  0
 20 16  2  0  0  0  0
 21 16  1  0  0  0  0
 21 22  1  0  0  0  0
 22 23  1  0  0  0  0
 24 19  1  0  0  0  0
 25 24  1  0  0  0  0
 26 25  1  0  0  0  0
 27 25  1  0  0  0  0
 28 29  1  0  0  0  0
 30 31  1  0  0  0  0
 31 45  1  0  0  0  0
 32 45  1  0  0  0  0
 33 44  1  0  0  0  0
 34 38  1  1  0  0  0
 34 53  1  0  0  0  0
 35 48  1  6  0  0  0
 35 41  1  0  0  0  0
 36 43  1  0  0  0  0
 37 32  1  0  0  0  0
 37 35  1  0  0  0  0
 39 33  1  1  0  0  0
 41 39  1  0  0  0  0
 43 34  1  0  0  0  0
 44 40  1  6  0  0  0
 44 34  1  0  0  0  0
 45 42  1  0  0  0  0
 45 39  1  0  0  0  0
 45 46  1  0  0  0  0
 46 36  1  0  0  0  0
 47 48  3  0  0  0  0
 49 47  1  0  0  0  0
 49 50  1  0  0  0  0
 51 49  1  0  0  0  0
 53 52  1  1  0  0  0
 53 55  1  0  0  0  0
 54 55  2  0  0  0  0
 55 56  1  0  0  0  0
M  END
>  <MODEL>
8

>  <REMARK>
 VINA RESULT:      -4.4      3.184      7.601
  Name = 
  14 active torsions:
  status: ('A' for Active; 'I' for Inactive)
    1  A    between atoms: C_1  and  C_18
    2  A    between atoms: C_2  and  O_33
    3  A    between atoms: C_2  and  P_47
    4  A    between atoms: C_5  and  O_33
    5  A    between atoms: C_6  and  N_7
    6  A    between atoms: N_7  and  C_37
    7  A    between atoms: C_12  and  C_23
    8  A    between atoms: C_13  and  C_20
    9  A    between atoms: C_15  and  C_54
   10  A    between atoms: C_18  and  C_51
   11  A    between atoms: C_18  and  O_52
   12  A    between atoms: C_23  and  C_43
   13  A    between atoms: N_34  and  C_40
   14  A    between atoms: O_35  and  C_41
                            x       y       z     vdW  Elec       q    Type
                         _______ _______ _______ _____ _____    ______ ____

>  <TORSDO>
F 14

$$$$
=
 OpenBabel11062414543D

 56 61  0  0  1  0  0  0  0  0999 V2000
  191.6730  177.2250  143.2790 C   0  0  0  0  0  2  0  0  0  0  0  0
  190.4570  176.8830  141.0450 C   0  0  0  0  0  2  0  0  0  0  0  0
  188.1080  177.9040  140.8940 C   0  0  0  0  0  0  0  0  0  0  0  0
  190.9390  176.0080  143.6030 N   0  0  0  0  0  2  0  0  0  0  0  0
  189.1440  177.2970  141.6380 C   0  0  0  0  0  0  0  0  0  0  0  0
  187.1780  177.5030  143.1840 S   0  0  0  0  0  0  0  0  0  0  0  0
  191.6560  177.4960  141.7720 C   0  0  0  0  0  2  0  0  0  0  0  0
  189.6040  176.3940  144.0490 C   0  0  0  0  0  2  0  0  0  0  0  0
  188.7650  176.9980  142.9520 C   0  0  0  0  0  0  0  0  0  0  0  0
  186.9400  178.0770  141.6210 C   0  0  0  0  0  0  0  0  0  0  0  0
  185.6810  178.6950  141.0950 C   0  0  1  0  0  3  0  0  0  0  0  0
  184.4740  177.8630  141.4990 C   0  0  1  0  0  3  0  0  0  0  0  0
  183.5940  178.6000  142.2650 C   0  0  0  0  0  2  0  0  0  0  0  0
  183.2630  178.4130  140.8210 N   0  0  0  0  0  0  0  0  0  0  0  0
  181.1740  177.7200  137.8220 C   0  0  0  0  0  0  0  0  0  0  0  0
  182.1630  179.9170  139.2440 C   0  0  0  0  0  3  0  0  0  0  0  0
  181.9620  177.5300  138.9570 C   0  0  0  0  0  3  0  0  0  0  0  0
  180.7280  176.6000  137.1330 O   0  0  0  0  0  1  0  0  0  0  0  0
  180.8550  179.0310  137.3940 C   0  0  0  0  0  0  0  0  0  0  0  0
  182.4550  178.6220  139.6690 C   0  0  0  0  0  0  0  0  0  0  0  0
  181.3640  180.1300  138.1090 C   0  0  0  0  0  0  0  0  0  0  0  0
  181.0580  181.4270  137.6770 O   0  0  0  0  0  0  0  0  0  0  0  0
  180.0900  182.2450  138.3210 C   0  0  0  0  0  1  0  0  0  0  0  0
  180.0400  179.2920  136.2380 N   0  0  0  0  0  2  0  0  0  0  0  0
  180.5190  179.4810  134.8760 C   0  0  0  0  0  3  0  0  0  0  0  0
  181.7910  178.6820  134.6780 C   0  0  0  0  0  1  0  0  0  0  0  0
  180.8140  180.9500  134.6380 C   0  0  0  0  0  1  0  0  0  0  0  0
  185.7030  179.8870  142.9640 C   0  0  0  0  0  1  0  0  0  0  0  0
  185.5460  179.9980  141.5830 O   0  0  0  0  0  0  0  0  0  0  0  0
  188.1930  178.3000  139.5540 O   0  0  0  0  0  0  0  0  0  0  0  0
  187.1040  178.2140  138.6460 C   0  0  0  0  0  2  0  0  0  0  0  0
  188.8750  178.0370  136.9150 O   0  0  0  0  0  0  0  0  0  0  0  0
  187.0410  175.6530  134.8070 C   0  0  0  0  0  2  0  0  0  0  0  0
  184.6450  174.9300  135.5130 C   0  0  2  0  0  0  0  0  0  0  0  0
  190.1980  176.0560  136.5220 C   0  0  1  0  0  3  0  0  0  0  0  0
  184.9730  176.8910  137.2300 C   0  0  0  0  0  2  0  0  0  0  0  0
  190.0060  177.3260  137.3550 C   0  0  0  0  0  2  0  0  0  0  0  0
  184.0540  176.0370  134.6360 C   0  0  0  0  0  1  0  0  0  0  0  0
  188.0060  175.7980  135.9870 C   0  0  1  0  0  3  0  0  0  0  0  0
  186.5820  173.4360  135.6690 O   0  0  0  0  0  1  0  0  0  0  0  0
  189.2880  176.0450  135.4550 O   0  0  0  0  0  0  0  0  0  0  0  0
  187.5860  175.7570  138.5130 C   0  0  0  0  0  1  0  0  0  0  0  0
  184.7640  175.3910  136.9800 C   0  0  0  0  0  2  0  0  0  0  0  0
  186.0310  174.5120  134.9640 C   0  0  2  0  0  3  0  0  0  0  0  0
  187.5050  177.0790  137.2630 P   0  0  0  0  0  0  0  0  0  0  0  0
  186.0280  177.4370  136.4750 O   0  0  0  0  0  0  0  0  0  0  0  0
  192.6920  175.9750  135.5790 C   0  0  0  0  0  0  0  0  0  0  0  0
  191.5660  176.0150  136.0050 C   0  0  0  0  0  0  0  0  0  0  0  0
  194.0590  175.9220  135.0610 C   0  0  0  0  0  3  0  0  0  0  0  0
  194.7200  174.6360  135.5100 C   0  0  0  0  0  1  0  0  0  0  0  0
  194.8440  177.1040  135.5890 C   0  0  0  0  0  1  0  0  0  0  0  0
  182.4770  174.0560  134.7890 O   0  0  0  0  0  1  0  0  0  0  0  0
  183.6530  173.7400  135.4770 C   0  0  2  0  0  3  0  0  0  0  0  0
  182.2460  173.4980  137.3950 O   0  0  0  0  0  0  0  0  0  0  0  0
  183.3200  173.1720  136.8270 C   0  0  0  0  0  0  0  0  0  0  0  0
  184.1860  172.2840  137.4510 O   0  0  0  0  0  1  0  0  0  0  0  0
  1  4  1  0  0  0  0
  2  5  1  0  0  0  0
  2  7  1  0  0  0  0
  3 10  2  0  0  0  0
  3  5  1  0  0  0  0
  4  8  1  0  0  0  0
  5  9  2  0  0  0  0
  7  1  1  0  0  0  0
  9  6  1  0  0  0  0
  9  8  1  0  0  0  0
 10  6  1  0  0  0  0
 11 29  1  1  0  0  0
 11 10  1  0  0  0  0
 12 11  1  6  0  0  0
 12 13  1  0  0  0  0
 14 12  1  0  0  0  0
 14 13  1  0  0  0  0
 15 17  1  0  0  0  0
 16 20  1  0  0  0  0
 17 20  2  0  0  0  0
 18 15  1  0  0  0  0
 19 15  2  0  0  0  0
 19 21  1  0  0  0  0
 20 14  1  0  0  0  0
 21 16  2  0  0  0  0
 22 21  1  0  0  0  0
 22 23  1  0  0  0  0
 24 19  1  0  0  0  0
 25 24  1  0  0  0  0
 26 25  1  0  0  0  0
 27 25  1  0  0  0  0
 29 28  1  0  0  0  0
 30  3  1  0  0  0  0
 31 30  1  0  0  0  0
 32 45  1  0  0  0  0
 32 37  1  0  0  0  0
 33 44  1  0  0  0  0
 34 38  1  6  0  0  0
 34 43  1  0  0  0  0
 35 48  1  6  0  0  0
 35 37  1  0  0  0  0
 39 33  1  6  0  0  0
 39 45  1  0  0  0  0
 41 39  1  0  0  0  0
 41 35  1  0  0  0  0
 43 36  1  0  0  0  0
 44 34  1  0  0  0  0
 44 40  1  1  0  0  0
 45 42  1  0  0  0  0
 45 31  1  0  0  0  0
 46 36  1  0  0  0  0
 46 45  1  0  0  0  0
 47 48  3  0  0  0  0
 49 50  1  0  0  0  0
 49 47  1  0  0  0  0
 49 51  1  0  0  0  0
 53 52  1  1  0  0  0
 53 34  1  0  0  0  0
 53 55  1  0  0  0  0
 55 54  2  0  0  0  0
 55 56  1  0  0  0  0
M  END
>  <MODEL>
9

>  <REMARK>
 VINA RESULT:      -4.2      2.177      5.776
  Name = 
  14 active torsions:
  status: ('A' for Active; 'I' for Inactive)
    1  A    between atoms: C_1  and  C_18
    2  A    between atoms: C_2  and  O_33
    3  A    between atoms: C_2  and  P_47
    4  A    between atoms: C_5  and  O_33
    5  A    between atoms: C_6  and  N_7
    6  A    between atoms: N_7  and  C_37
    7  A    between atoms: C_12  and  C_23
    8  A    between atoms: C_13  and  C_20
    9  A    between atoms: C_15  and  C_54
   10  A    between atoms: C_18  and  C_51
   11  A    between atoms: C_18  and  O_52
   12  A    between atoms: C_23  and  C_43
   13  A    between atoms: N_34  and  C_40
   14  A    between atoms: O_35  and  C_41
                            x       y       z     vdW  Elec       q    Type
                         _______ _______ _______ _____ _____    ______ ____

>  <TORSDO>
F 14

$$$$
