=
 OpenBabel11062413063D

 40 45  0  0  1  0  0  0  0  0999 V2000
  189.1950  178.3910  138.2100 C   0  0  0  0  0  3  0  0  0  0  0  0
  187.2230  178.4640  139.7850 C   0  0  0  0  0  0  0  0  0  0  0  0
  188.3940  178.6610  136.9860 C   0  0  0  0  0  2  0  0  0  0  0  0
  186.3900  177.3910  137.6730 C   0  0  0  0  0  3  0  0  0  0  0  0
  187.3720  177.5980  136.7990 C   0  0  0  0  0  3  0  0  0  0  0  0
  188.6620  178.3310  139.4300 C   0  0  0  0  0  3  0  0  0  0  0  0
  186.1960  178.1240  138.9490 C   0  0  0  0  0  0  0  0  0  0  0  0
  187.7430  177.2440  145.0600 C   0  0  0  0  0  0  0  0  0  0  0  0
  189.1430  176.4600  143.0300 C   0  0  0  0  0  0  0  0  0  0  0  0
  187.7400  177.7000  146.3840 C   0  0  0  0  0  3  0  0  0  0  0  0
  190.1340  177.4160  146.5270 C   0  0  0  0  0  3  0  0  0  0  0  0
  189.7230  175.3730  142.7730 O   0  0  0  0  0  0  0  0  0  0  0  0
  188.7750  177.3220  141.9440 N   0  0  0  0  0  2  0  0  0  0  0  0
  188.9260  177.7910  147.1130 C   0  0  0  0  0  3  0  0  0  0  0  0
  184.4870  178.3160  143.4360 C   0  0  0  0  0  1  0  0  0  0  0  0
  186.3920  177.0740  144.4180 C   0  0  0  0  0  2  0  0  0  0  0  0
  186.9610  179.0000  141.1790 C   0  0  1  0  0  3  0  0  0  0  0  0
  188.9830  176.8810  144.4490 C   0  0  0  0  0  0  0  0  0  0  0  0
  190.1590  176.9660  145.2080 C   0  0  0  0  0  3  0  0  0  0  0  0
  186.5560  177.9090  142.1600 C   0  0  1  0  0  3  0  0  0  0  0  0
  187.9460  178.4770  142.2290 C   0  0  1  0  0  3  0  0  0  0  0  0
  185.9970  178.2460  143.5170 C   0  0  1  0  0  3  0  0  0  0  0  0
  184.7810  178.3590  139.3120 C   0  0  0  0  0  0  0  0  0  0  0  0
  182.7680  177.5360  140.2110 N   0  0  0  0  0  0  0  0  0  0  0  0
  184.0550  177.3710  139.9040 N   0  0  0  0  0  0  0  0  0  0  0  0
  182.1170  178.6950  139.9350 C   0  0  0  0  0  3  0  0  0  0  0  0
  182.8000  179.7420  139.3100 C   0  0  0  0  0  0  0  0  0  0  0  0
  184.1440  179.5630  138.9930 C   0  0  0  0  0  3  0  0  0  0  0  0
  181.3390  181.3120  137.8920 C   0  0  0  0  0  0  0  0  0  0  0  0
  180.6810  182.6290  137.8420 C   0  0  0  0  0  3  0  0  0  0  0  0
  182.1770  180.9990  139.0130 N   0  0  0  0  0  2  0  0  0  0  0  0
  179.6950  182.8560  136.9700 C   0  0  0  0  0  0  0  0  0  0  0  0
  181.1310  180.4470  136.9410 N   0  0  0  0  0  0  0  0  0  0  0  0
  179.2040  181.7300  136.0910 C   0  0  0  0  0  2  0  0  0  0  0  0
  180.3500  180.7760  135.7470 C   0  0  0  0  0  2  0  0  0  0  0  0
  179.1030  184.1230  136.9400 O   0  0  0  0  0  0  0  0  0  0  0  0
  180.8530  185.2720  135.9800 F   0  0  0  0  0  0  0  0  0  0  0  0
  179.8430  185.3420  136.9230 C   0  0  0  0  0  0  0  0  0  0  0  0
  180.3890  185.5810  138.1730 F   0  0  0  0  0  0  0  0  0  0  0  0
  178.9930  186.3810  136.5970 F   0  0  0  0  0  0  0  0  0  0  0  0
  1  6  2  0  0  0  0
  3  1  1  0  0  0  0
  4  7  1  0  0  0  0
  5  3  1  0  0  0  0
  5  4  2  0  0  0  0
  6  2  1  0  0  0  0
  7 23  1  0  0  0  0
  7  2  2  0  0  0  0
  8 10  1  0  0  0  0
  9 18  1  0  0  0  0
 10 14  2  0  0  0  0
 11 14  1  0  0  0  0
 12  9  2  0  0  0  0
 13 21  1  0  0  0  0
 13  9  1  0  0  0  0
 15 22  1  0  0  0  0
 16  8  1  0  0  0  0
 17  2  1  6  0  0  0
 17 20  1  0  0  0  0
 17 21  1  0  0  0  0
 18  8  2  0  0  0  0
 18 19  1  0  0  0  0
 19 11  2  0  0  0  0
 20 21  1  0  0  0  0
 20 22  1  0  0  0  0
 22 16  1  0  0  0  0
 23 25  1  0  0  0  0
 25 24  2  0  0  0  0
 26 24  1  0  0  0  0
 27 26  2  0  0  0  0
 28 27  1  0  0  0  0
 28 23  2  0  0  0  0
 29 31  1  0  0  0  0
 30 29  1  0  0  0  0
 31 27  1  0  0  0  0
 32 30  2  0  0  0  0
 33 29  2  0  0  0  0
 34 32  1  0  0  0  0
 35 34  1  0  0  0  0
 35 33  1  0  0  0  0
 36 32  1  0  0  0  0
 37 38  1  0  0  0  0
 38 36  1  0  0  0  0
 38 39  1  0  0  0  0
 40 38  1  0  0  0  0
M  END
>  <MODEL>
1

>  <REMARK>
 VINA RESULT:     -10.0      0.000      0.000
  Name = 
  5 active torsions:
  status: ('A' for Active; 'I' for Inactive)
    1  A    between atoms: C_3  and  C_30
    2  A    between atoms: C_4  and  C_35
    3  A    between atoms: C_13  and  O_23
    4  A    between atoms: N_19  and  C_37
    5  A    between atoms: O_23  and  C_26
                            x       y       z     vdW  Elec       q    Type
                         _______ _______ _______ _____ _____    ______ ____

>  <TORSDO>
F 5

$$$$
=
 OpenBabel11062413063D

 40 45  0  0  1  0  0  0  0  0999 V2000
  181.4540  179.0030  142.9910 C   0  0  0  0  0  3  0  0  0  0  0  0
  183.2820  178.3950  141.3590 C   0  0  0  0  0  0  0  0  0  0  0  0
  182.3480  179.7500  143.9150 C   0  0  0  0  0  2  0  0  0  0  0  0
  184.3210  178.2900  143.6410 C   0  0  0  0  0  3  0  0  0  0  0  0
  183.4110  178.8520  144.4350 C   0  0  0  0  0  3  0  0  0  0  0  0
  181.8830  178.4360  141.8630 C   0  0  0  0  0  3  0  0  0  0  0  0
  184.3850  178.4240  142.1650 C   0  0  0  0  0  0  0  0  0  0  0  0
  180.7590  179.6770  136.7140 C   0  0  0  0  0  0  0  0  0  0  0  0
  180.6520  180.8230  139.0310 C   0  0  0  0  0  0  0  0  0  0  0  0
  180.8480  179.8330  135.3250 C   0  0  0  0  0  3  0  0  0  0  0  0
  180.7270  182.2350  135.5480 C   0  0  0  0  0  3  0  0  0  0  0  0
  179.7200  181.4100  139.6400 O   0  0  0  0  0  0  0  0  0  0  0  0
  181.7380  180.2740  139.7900 N   0  0  0  0  0  2  0  0  0  0  0  0
  180.8370  181.1010  134.7440 C   0  0  0  0  0  3  0  0  0  0  0  0
  181.9600  176.1870  137.5880 C   0  0  0  0  0  1  0  0  0  0  0  0
  180.6580  178.2600  137.2130 C   0  0  0  0  0  2  0  0  0  0  0  0
  183.4090  178.3000  139.8500 C   0  0  1  0  0  3  0  0  0  0  0  0
  180.6690  180.8380  137.5430 C   0  0  0  0  0  0  0  0  0  0  0  0
  180.6440  182.1010  136.9340 C   0  0  0  0  0  3  0  0  0  0  0  0
  182.0700  178.0800  139.1620 C   0  0  1  0  0  3  0  0  0  0  0  0
  182.7070  179.4400  139.1060 C   0  0  1  0  0  3  0  0  0  0  0  0
  181.9910  177.6950  137.7080 C   0  0  1  0  0  3  0  0  0  0  0  0
  185.7580  178.4730  141.6130 C   0  0  0  0  0  0  0  0  0  0  0  0
  187.1690  178.6720  139.7400 N   0  0  0  0  0  0  0  0  0  0  0  0
  185.9490  178.6590  140.2780 N   0  0  0  0  0  0  0  0  0  0  0  0
  188.2790  178.4860  140.5000 C   0  0  0  0  0  3  0  0  0  0  0  0
  188.1500  178.2710  141.8750 C   0  0  0  0  0  0  0  0  0  0  0  0
  186.8730  178.2590  142.4290 C   0  0  0  0  0  3  0  0  0  0  0  0
  189.2740  177.9090  144.1600 C   0  0  0  0  0  0  0  0  0  0  0  0
  190.5420  177.6030  144.8440 C   0  0  0  0  0  3  0  0  0  0  0  0
  189.2830  178.0930  142.7370 N   0  0  0  0  0  2  0  0  0  0  0  0
  190.5370  177.1640  146.1050 C   0  0  0  0  0  0  0  0  0  0  0  0
  188.1690  177.9810  144.8440 N   0  0  0  0  0  0  0  0  0  0  0  0
  189.2200  176.9060  146.7980 C   0  0  0  0  0  2  0  0  0  0  0  0
  188.1500  177.8820  146.3050 C   0  0  0  0  0  2  0  0  0  0  0  0
  191.7600  176.8980  146.7300 O   0  0  0  0  0  0  0  0  0  0  0  0
  193.4040  175.6470  147.7500 F   0  0  0  0  0  0  0  0  0  0  0  0
  192.2300  175.5830  147.0210 C   0  0  0  0  0  0  0  0  0  0  0  0
  192.4480  174.8870  145.8450 F   0  0  0  0  0  0  0  0  0  0  0  0
  191.2740  174.9180  147.7650 F   0  0  0  0  0  0  0  0  0  0  0  0
  1  3  1  0  0  0  0
  2  6  1  0  0  0  0
  2  7  2  0  0  0  0
  3  5  1  0  0  0  0
  4  5  2  0  0  0  0
  6  1  2  0  0  0  0
  7  4  1  0  0  0  0
  8 16  1  0  0  0  0
  8 18  1  0  0  0  0
  9 12  2  0  0  0  0
  9 13  1  0  0  0  0
 10  8  2  0  0  0  0
 11 19  1  0  0  0  0
 14 10  1  0  0  0  0
 14 11  2  0  0  0  0
 15 22  1  0  0  0  0
 16 22  1  0  0  0  0
 17  2  1  1  0  0  0
 18  9  1  0  0  0  0
 19 18  2  0  0  0  0
 20 17  1  0  0  0  0
 21 20  1  0  0  0  0
 21 13  1  0  0  0  0
 21 17  1  0  0  0  0
 22 20  1  0  0  0  0
 23  7  1  0  0  0  0
 23 28  1  0  0  0  0
 24 25  1  0  0  0  0
 24 26  2  0  0  0  0
 25 23  2  0  0  0  0
 26 27  1  0  0  0  0
 27 28  2  0  0  0  0
 27 31  1  0  0  0  0
 29 30  1  0  0  0  0
 29 33  2  0  0  0  0
 30 32  2  0  0  0  0
 31 29  1  0  0  0  0
 32 36  1  0  0  0  0
 32 34  1  0  0  0  0
 33 35  1  0  0  0  0
 35 34  1  0  0  0  0
 36 38  1  0  0  0  0
 38 37  1  0  0  0  0
 38 40  1  0  0  0  0
 39 38  1  0  0  0  0
M  END
>  <MODEL>
2

>  <REMARK>
 VINA RESULT:      -9.9      5.521     11.245
  Name = 
  5 active torsions:
  status: ('A' for Active; 'I' for Inactive)
    1  A    between atoms: C_3  and  C_30
    2  A    between atoms: C_4  and  C_35
    3  A    between atoms: C_13  and  O_23
    4  A    between atoms: N_19  and  C_37
    5  A    between atoms: O_23  and  C_26
                            x       y       z     vdW  Elec       q    Type
                         _______ _______ _______ _____ _____    ______ ____

>  <TORSDO>
F 5

$$$$
=
 OpenBabel11062413063D

 40 45  0  0  1  0  0  0  0  0999 V2000
  190.9840  176.3870  145.8850 C   0  0  0  0  0  3  0  0  0  0  0  0
  188.8560  177.1900  144.7900 C   0  0  0  0  0  0  0  0  0  0  0  0
  190.4060  176.3100  147.2530 C   0  0  0  0  0  2  0  0  0  0  0  0
  188.9340  178.2830  147.0490 C   0  0  0  0  0  3  0  0  0  0  0  0
  189.9210  177.6490  147.6780 C   0  0  0  0  0  3  0  0  0  0  0  0
  190.2780  176.7540  144.8160 C   0  0  0  0  0  3  0  0  0  0  0  0
  188.2250  177.7990  145.8390 C   0  0  0  0  0  0  0  0  0  0  0  0
  189.3980  177.5750  139.3920 C   0  0  0  0  0  0  0  0  0  0  0  0
  191.2010  177.2810  141.2240 C   0  0  0  0  0  0  0  0  0  0  0  0
  188.9300  177.1960  138.1270 C   0  0  0  0  0  3  0  0  0  0  0  0
  190.8680  175.7950  137.7870 C   0  0  0  0  0  3  0  0  0  0  0  0
  192.3820  177.7060  141.3220 O   0  0  0  0  0  0  0  0  0  0  0  0
  190.4920  176.9240  142.4180 N   0  0  0  0  0  2  0  0  0  0  0  0
  189.6550  176.3090  137.3310 C   0  0  0  0  0  3  0  0  0  0  0  0
  186.4840  179.0190  141.3440 C   0  0  0  0  0  1  0  0  0  0  0  0
  188.5930  178.6280  140.1050 C   0  0  0  0  0  2  0  0  0  0  0  0
  188.1340  176.9240  143.4830 C   0  0  1  0  0  3  0  0  0  0  0  0
  190.6300  177.0310  139.8730 C   0  0  0  0  0  0  0  0  0  0  0  0
  191.3470  176.1540  139.0470 C   0  0  0  0  0  3  0  0  0  0  0  0
  188.4380  177.9720  142.4220 C   0  0  1  0  0  3  0  0  0  0  0  0
  189.0790  176.6160  142.3170 C   0  0  1  0  0  3  0  0  0  0  0  0
  187.6350  178.0540  141.1510 C   0  0  1  0  0  3  0  0  0  0  0  0
  186.7830  178.1330  145.7990 C   0  0  0  0  0  0  0  0  0  0  0  0
  184.7970  178.6280  146.9600 N   0  0  0  0  0  0  0  0  0  0  0  0
  186.1040  178.3610  146.9560 N   0  0  0  0  0  0  0  0  0  0  0  0
  184.0810  178.6710  145.8070 C   0  0  0  0  0  3  0  0  0  0  0  0
  184.7150  178.4260  144.5860 C   0  0  0  0  0  0  0  0  0  0  0  0
  186.0800  178.1490  144.5900 C   0  0  0  0  0  3  0  0  0  0  0  0
  182.6080  178.6240  143.1260 C   0  0  0  0  0  0  0  0  0  0  0  0
  182.1050  178.7990  141.7520 C   0  0  0  0  0  3  0  0  0  0  0  0
  184.0200  178.4810  143.3330 N   0  0  0  0  0  2  0  0  0  0  0  0
  180.8490  179.2000  141.5410 C   0  0  0  0  0  0  0  0  0  0  0  0
  181.7750  178.6280  144.1270 N   0  0  0  0  0  0  0  0  0  0  0  0
  179.9720  179.5510  142.7200 C   0  0  0  0  0  2  0  0  0  0  0  0
  180.3240  178.6860  143.9310 C   0  0  0  0  0  2  0  0  0  0  0  0
  180.4000  179.3410  140.2240 O   0  0  0  0  0  0  0  0  0  0  0  0
  181.8280  180.7660  139.1120 F   0  0  0  0  0  0  0  0  0  0  0  0
  180.5110  180.5500  139.4760 C   0  0  0  0  0  0  0  0  0  0  0  0
  180.0550  181.6180  140.2310 F   0  0  0  0  0  0  0  0  0  0  0  0
  179.7390  180.4460  138.3340 F   0  0  0  0  0  0  0  0  0  0  0  0
  1  3  1  0  0  0  0
  2  6  1  0  0  0  0
  2  7  2  0  0  0  0
  3  5  1  0  0  0  0
  4  5  2  0  0  0  0
  6  1  2  0  0  0  0
  7  4  1  0  0  0  0
  8 18  1  0  0  0  0
  8 16  1  0  0  0  0
  9 12  2  0  0  0  0
  9 13  1  0  0  0  0
 10  8  2  0  0  0  0
 11 19  1  0  0  0  0
 14 11  2  0  0  0  0
 14 10  1  0  0  0  0
 16 22  1  0  0  0  0
 17  2  1  1  0  0  0
 18  9  1  0  0  0  0
 19 18  2  0  0  0  0
 20 17  1  0  0  0  0
 21 13  1  0  0  0  0
 21 20  1  0  0  0  0
 21 17  1  0  0  0  0
 22 15  1  0  0  0  0
 22 20  1  0  0  0  0
 23  7  1  0  0  0  0
 23 25  1  0  0  0  0
 25 24  2  0  0  0  0
 26 24  1  0  0  0  0
 27 28  1  0  0  0  0
 27 26  2  0  0  0  0
 28 23  2  0  0  0  0
 29 31  1  0  0  0  0
 29 33  2  0  0  0  0
 30 29  1  0  0  0  0
 31 27  1  0  0  0  0
 32 30  2  0  0  0  0
 32 34  1  0  0  0  0
 34 35  1  0  0  0  0
 35 33  1  0  0  0  0
 36 32  1  0  0  0  0
 37 38  1  0  0  0  0
 38 36  1  0  0  0  0
 38 39  1  0  0  0  0
 40 38  1  0  0  0  0
M  END
>  <MODEL>
3

>  <REMARK>
 VINA RESULT:      -9.2      3.134      6.472
  Name = 
  5 active torsions:
  status: ('A' for Active; 'I' for Inactive)
    1  A    between atoms: C_3  and  C_30
    2  A    between atoms: C_4  and  C_35
    3  A    between atoms: C_13  and  O_23
    4  A    between atoms: N_19  and  C_37
    5  A    between atoms: O_23  and  C_26
                            x       y       z     vdW  Elec       q    Type
                         _______ _______ _______ _____ _____    ______ ____

>  <TORSDO>
F 5

$$$$
=
 OpenBabel11062413063D

 40 45  0  0  1  0  0  0  0  0999 V2000
  190.0520  177.9330  138.1670 C   0  0  0  0  0  3  0  0  0  0  0  0
  187.9450  178.2000  139.5310 C   0  0  0  0  0  0  0  0  0  0  0  0
  189.4000  178.2210  136.8620 C   0  0  0  0  0  2  0  0  0  0  0  0
  187.2470  177.1240  137.3730 C   0  0  0  0  0  3  0  0  0  0  0  0
  188.3240  177.2300  136.5980 C   0  0  0  0  0  3  0  0  0  0  0  0
  189.3970  177.9510  139.3280 C   0  0  0  0  0  3  0  0  0  0  0  0
  186.9840  177.9100  138.6040 C   0  0  0  0  0  0  0  0  0  0  0  0
  188.0210  177.1890  144.8750 C   0  0  0  0  0  0  0  0  0  0  0  0
  189.5570  176.2950  142.9950 C   0  0  0  0  0  0  0  0  0  0  0  0
  187.9250  177.6990  146.1760 C   0  0  0  0  0  3  0  0  0  0  0  0
  190.2930  177.3740  146.5200 C   0  0  0  0  0  3  0  0  0  0  0  0
  190.1300  175.1860  142.8290 O   0  0  0  0  0  0  0  0  0  0  0  0
  189.2960  177.1180  141.8510 N   0  0  0  0  0  2  0  0  0  0  0  0
  189.0520  177.7970  146.9920 C   0  0  0  0  0  3  0  0  0  0  0  0
  184.9280  178.2580  142.9580 C   0  0  0  0  0  1  0  0  0  0  0  0
  186.7210  177.0210  144.1350 C   0  0  0  0  0  2  0  0  0  0  0  0
  187.5870  178.7990  140.8780 C   0  0  1  0  0  3  0  0  0  0  0  0
  189.2960  176.7760  144.3790 C   0  0  0  0  0  0  0  0  0  0  0  0
  190.4110  176.8690  145.2250 C   0  0  0  0  0  3  0  0  0  0  0  0
  187.0810  177.7580  141.8660 C   0  0  1  0  0  3  0  0  0  0  0  0
  188.4740  178.3000  142.0220 C   0  0  1  0  0  3  0  0  0  0  0  0
  186.4250  178.1620  143.1600 C   0  0  1  0  0  3  0  0  0  0  0  0
  185.5610  178.2600  138.8150 C   0  0  0  0  0  0  0  0  0  0  0  0
  183.9510  179.8560  139.4500 N   0  0  0  0  0  0  0  0  0  0  0  0
  185.2200  179.5160  139.2140 N   0  0  0  0  0  0  0  0  0  0  0  0
  182.9420  178.9580  139.3150 C   0  0  0  0  0  3  0  0  0  0  0  0
  183.2270  177.6460  138.9260 C   0  0  0  0  0  0  0  0  0  0  0  0
  184.5540  177.2990  138.6820 C   0  0  0  0  0  3  0  0  0  0  0  0
  181.9060  175.9270  137.5440 C   0  0  0  0  0  0  0  0  0  0  0  0
  180.9020  174.8500  137.6010 C   0  0  0  0  0  3  0  0  0  0  0  0
  182.2050  176.6570  138.7430 N   0  0  0  0  0  2  0  0  0  0  0  0
  180.7910  173.9800  136.5930 C   0  0  0  0  0  0  0  0  0  0  0  0
  182.5220  176.1810  136.4260 N   0  0  0  0  0  0  0  0  0  0  0  0
  181.7550  174.0580  135.4330 C   0  0  0  0  0  2  0  0  0  0  0  0
  182.1710  175.5070  135.1740 C   0  0  0  0  0  2  0  0  0  0  0  0
  179.8170  172.9790  136.6730 O   0  0  0  0  0  0  0  0  0  0  0  0
  178.9310  170.8890  137.0610 F   0  0  0  0  0  0  0  0  0  0  0  0
  180.1030  171.6220  137.0040 C   0  0  0  0  0  0  0  0  0  0  0  0
  180.7520  171.5590  138.2250 F   0  0  0  0  0  0  0  0  0  0  0  0
  180.9230  171.0840  136.0310 F   0  0  0  0  0  0  0  0  0  0  0  0
  1  6  2  0  0  0  0
  3  1  1  0  0  0  0
  4  7  1  0  0  0  0
  5  3  1  0  0  0  0
  5  4  2  0  0  0  0
  6  2  1  0  0  0  0
  7 23  1  0  0  0  0
  7  2  2  0  0  0  0
  8 10  1  0  0  0  0
  9 18  1  0  0  0  0
 10 14  2  0  0  0  0
 11 14  1  0  0  0  0
 12  9  2  0  0  0  0
 13 21  1  0  0  0  0
 13  9  1  0  0  0  0
 15 22  1  0  0  0  0
 16  8  1  0  0  0  0
 17  2  1  6  0  0  0
 17 20  1  0  0  0  0
 17 21  1  0  0  0  0
 18  8  2  0  0  0  0
 18 19  1  0  0  0  0
 19 11  2  0  0  0  0
 20 21  1  0  0  0  0
 20 22  1  0  0  0  0
 22 16  1  0  0  0  0
 23 25  1  0  0  0  0
 25 24  2  0  0  0  0
 26 24  1  0  0  0  0
 27 26  2  0  0  0  0
 28 23  2  0  0  0  0
 28 27  1  0  0  0  0
 29 30  1  0  0  0  0
 29 31  1  0  0  0  0
 31 27  1  0  0  0  0
 32 36  1  0  0  0  0
 32 30  2  0  0  0  0
 33 29  2  0  0  0  0
 34 32  1  0  0  0  0
 35 34  1  0  0  0  0
 35 33  1  0  0  0  0
 36 38  1  0  0  0  0
 38 37  1  0  0  0  0
 38 39  1  0  0  0  0
 40 38  1  0  0  0  0
M  END
>  <MODEL>
4

>  <REMARK>
 VINA RESULT:      -9.2      4.935      5.705
  Name = 
  5 active torsions:
  status: ('A' for Active; 'I' for Inactive)
    1  A    between atoms: C_3  and  C_30
    2  A    between atoms: C_4  and  C_35
    3  A    between atoms: C_13  and  O_23
    4  A    between atoms: N_19  and  C_37
    5  A    between atoms: O_23  and  C_26
                            x       y       z     vdW  Elec       q    Type
                         _______ _______ _______ _____ _____    ______ ____

>  <TORSDO>
F 5

$$$$
=
 OpenBabel11062413063D

 40 45  0  0  1  0  0  0  0  0999 V2000
  184.9000  173.7790  135.3920 C   0  0  0  0  0  3  0  0  0  0  0  0
  185.5140  176.1580  135.9710 C   0  0  0  0  0  0  0  0  0  0  0  0
  185.8570  173.1610  136.3480 C   0  0  0  0  0  2  0  0  0  0  0  0
  187.6480  174.8410  136.0810 C   0  0  0  0  0  3  0  0  0  0  0  0
  187.2460  173.5730  136.0180 C   0  0  0  0  0  3  0  0  0  0  0  0
  184.7510  175.0970  135.2600 C   0  0  0  0  0  3  0  0  0  0  0  0
  186.7940  176.0050  136.4240 C   0  0  0  0  0  0  0  0  0  0  0  0
  181.2050  178.3670  138.4490 C   0  0  0  0  0  0  0  0  0  0  0  0
  182.6480  176.3310  139.1320 C   0  0  0  0  0  0  0  0  0  0  0  0
  180.5450  179.5330  138.8570 C   0  0  0  0  0  3  0  0  0  0  0  0
  181.0990  179.0880  141.1650 C   0  0  0  0  0  3  0  0  0  0  0  0
  182.3640  175.2500  139.7100 O   0  0  0  0  0  0  0  0  0  0  0  0
  183.8200  176.3870  138.3060 N   0  0  0  0  0  2  0  0  0  0  0  0
  180.4950  179.8960  140.2030 C   0  0  0  0  0  3  0  0  0  0  0  0
  181.8850  178.6340  134.7270 C   0  0  0  0  0  1  0  0  0  0  0  0
  181.0870  178.0180  136.9900 C   0  0  0  0  0  2  0  0  0  0  0  0
  184.7640  177.4650  136.1520 C   0  0  1  0  0  3  0  0  0  0  0  0
  181.8450  177.5480  139.4300 C   0  0  0  0  0  0  0  0  0  0  0  0
  181.7670  177.9250  140.7790 C   0  0  0  0  0  3  0  0  0  0  0  0
  183.2580  177.2660  136.2500 C   0  0  1  0  0  3  0  0  0  0  0  0
  184.0400  177.5700  137.4980 C   0  0  1  0  0  3  0  0  0  0  0  0
  182.3090  178.4320  136.1670 C   0  0  1  0  0  3  0  0  0  0  0  0
  187.4800  177.0590  137.2060 C   0  0  0  0  0  0  0  0  0  0  0  0
  188.7800  179.0200  137.2380 N   0  0  0  0  0  0  0  0  0  0  0  0
  188.1210  178.0740  136.5660 N   0  0  0  0  0  0  0  0  0  0  0  0
  188.8510  179.0050  138.5930 C   0  0  0  0  0  3  0  0  0  0  0  0
  188.2290  177.9790  139.3100 C   0  0  0  0  0  0  0  0  0  0  0  0
  187.5440  176.9950  138.6020 C   0  0  0  0  0  3  0  0  0  0  0  0
  187.1770  178.2450  141.6410 C   0  0  0  0  0  0  0  0  0  0  0  0
  187.3520  177.9830  143.0790 C   0  0  0  0  0  3  0  0  0  0  0  0
  188.2470  177.9190  140.7430 N   0  0  0  0  0  2  0  0  0  0  0  0
  186.3010  178.0170  143.9030 C   0  0  0  0  0  0  0  0  0  0  0  0
  186.0540  178.7390  141.2030 N   0  0  0  0  0  0  0  0  0  0  0  0
  184.9190  178.2460  143.3370 C   0  0  0  0  0  2  0  0  0  0  0  0
  184.9830  179.1590  142.1110 C   0  0  0  0  0  2  0  0  0  0  0  0
  186.5060  177.7780  145.2660 O   0  0  0  0  0  0  0  0  0  0  0  0
  184.7390  177.9880  146.7280 F   0  0  0  0  0  0  0  0  0  0  0  0
  185.9220  178.5640  146.3030 C   0  0  0  0  0  0  0  0  0  0  0  0
  185.6770  179.8470  145.8440 F   0  0  0  0  0  0  0  0  0  0  0  0
  186.8000  178.6290  147.3680 F   0  0  0  0  0  0  0  0  0  0  0  0
  1  3  1  0  0  0  0
  2  7  2  0  0  0  0
  4  7  1  0  0  0  0
  5  4  2  0  0  0  0
  5  3  1  0  0  0  0
  6  1  2  0  0  0  0
  6  2  1  0  0  0  0
  7 23  1  0  0  0  0
  8 10  2  0  0  0  0
  8 18  1  0  0  0  0
  9 18  1  0  0  0  0
  9 12  2  0  0  0  0
 10 14  1  0  0  0  0
 13  9  1  0  0  0  0
 14 11  2  0  0  0  0
 15 22  1  0  0  0  0
 16  8  1  0  0  0  0
 17  2  1  1  0  0  0
 17 20  1  0  0  0  0
 17 21  1  0  0  0  0
 18 19  2  0  0  0  0
 19 11  1  0  0  0  0
 20 21  1  0  0  0  0
 21 13  1  0  0  0  0
 22 20  1  0  0  0  0
 22 16  1  0  0  0  0
 23 28  1  0  0  0  0
 24 26  2  0  0  0  0
 25 23  2  0  0  0  0
 25 24  1  0  0  0  0
 26 27  1  0  0  0  0
 27 31  1  0  0  0  0
 28 27  2  0  0  0  0
 29 30  1  0  0  0  0
 30 32  2  0  0  0  0
 31 29  1  0  0  0  0
 32 36  1  0  0  0  0
 33 29  2  0  0  0  0
 33 35  1  0  0  0  0
 34 32  1  0  0  0  0
 35 34  1  0  0  0  0
 36 38  1  0  0  0  0
 38 37  1  0  0  0  0
 38 40  1  0  0  0  0
 39 38  1  0  0  0  0
M  END
>  <MODEL>
5

>  <REMARK>
 VINA RESULT:      -9.1      4.497      8.499
  Name = 
  5 active torsions:
  status: ('A' for Active; 'I' for Inactive)
    1  A    between atoms: C_3  and  C_30
    2  A    between atoms: C_4  and  C_35
    3  A    between atoms: C_13  and  O_23
    4  A    between atoms: N_19  and  C_37
    5  A    between atoms: O_23  and  C_26
                            x       y       z     vdW  Elec       q    Type
                         _______ _______ _______ _____ _____    ______ ____

>  <TORSDO>
F 5

$$$$
=
 OpenBabel11062413063D

 40 45  0  0  1  0  0  0  0  0999 V2000
  192.1410  177.1450  140.0250 C   0  0  0  0  0  3  0  0  0  0  0  0
  189.7190  177.6330  139.5060 C   0  0  0  0  0  0  0  0  0  0  0  0
  192.5260  176.8750  138.6140 C   0  0  0  0  0  2  0  0  0  0  0  0
  190.4100  175.7890  137.9480 C   0  0  0  0  0  3  0  0  0  0  0  0
  191.7340  175.7380  138.0780 C   0  0  0  0  0  3  0  0  0  0  0  0
  190.9090  177.4980  140.3890 C   0  0  0  0  0  3  0  0  0  0  0  0
  189.5420  176.9240  138.3510 C   0  0  0  0  0  0  0  0  0  0  0  0
  185.6440  178.2410  143.0550 C   0  0  0  0  0  0  0  0  0  0  0  0
  187.7430  176.7340  143.1820 C   0  0  0  0  0  0  0  0  0  0  0  0
  184.7800  179.1170  143.7240 C   0  0  0  0  0  3  0  0  0  0  0  0
  185.9590  178.7550  145.8010 C   0  0  0  0  0  3  0  0  0  0  0  0
  187.9330  175.5910  143.6740 O   0  0  0  0  0  0  0  0  0  0  0  0
  188.6210  177.1990  142.1470 N   0  0  0  0  0  2  0  0  0  0  0  0
  184.9370  179.3780  145.0860 C   0  0  0  0  0  3  0  0  0  0  0  0
  185.3350  178.8950  139.3320 C   0  0  0  0  0  1  0  0  0  0  0  0
  185.3010  177.9460  141.6190 C   0  0  0  0  0  2  0  0  0  0  0  0
  188.6790  178.6250  139.9900 C   0  0  1  0  0  3  0  0  0  0  0  0
  186.7060  177.6190  143.7810 C   0  0  0  0  0  0  0  0  0  0  0  0
  186.8330  177.8840  145.1520 C   0  0  0  0  0  3  0  0  0  0  0  0
  187.3650  177.9560  140.3690 C   0  0  1  0  0  3  0  0  0  0  0  0
  188.2870  178.4290  141.4580 C   0  0  1  0  0  3  0  0  0  0  0  0
  186.1200  178.7650  140.6200 C   0  0  1  0  0  3  0  0  0  0  0  0
  188.3860  177.1580  137.4570 C   0  0  0  0  0  0  0  0  0  0  0  0
  187.1690  178.6300  136.0810 N   0  0  0  0  0  0  0  0  0  0  0  0
  188.2190  178.3710  136.8620 N   0  0  0  0  0  0  0  0  0  0  0  0
  186.2100  177.6960  135.8540 C   0  0  0  0  0  3  0  0  0  0  0  0
  186.3120  176.4370  136.4500 C   0  0  0  0  0  0  0  0  0  0  0  0
  187.4110  176.1740  137.2650 C   0  0  0  0  0  3  0  0  0  0  0  0
  184.1260  175.1800  136.9540 C   0  0  0  0  0  0  0  0  0  0  0  0
  183.1980  174.1380  136.4810 C   0  0  0  0  0  3  0  0  0  0  0  0
  185.3460  175.4000  136.2310 N   0  0  0  0  0  2  0  0  0  0  0  0
  181.9490  174.0840  136.9530 C   0  0  0  0  0  0  0  0  0  0  0  0
  183.8180  175.8990  137.9950 N   0  0  0  0  0  0  0  0  0  0  0  0
  181.4710  175.1470  137.9140 C   0  0  0  0  0  2  0  0  0  0  0  0
  182.6210  175.6340  138.7970 C   0  0  0  0  0  2  0  0  0  0  0  0
  181.1000  173.0720  136.4940 O   0  0  0  0  0  0  0  0  0  0  0  0
  180.4280  171.8770  138.3450 F   0  0  0  0  0  0  0  0  0  0  0  0
  181.0110  171.7810  137.0940 C   0  0  0  0  0  0  0  0  0  0  0  0
  182.2740  171.2250  137.2090 F   0  0  0  0  0  0  0  0  0  0  0  0
  180.2330  170.9660  136.2950 F   0  0  0  0  0  0  0  0  0  0  0  0
  1  6  2  0  0  0  0
  2  6  1  0  0  0  0
  3  1  1  0  0  0  0
  4  5  2  0  0  0  0
  4  7  1  0  0  0  0
  5  3  1  0  0  0  0
  7  2  2  0  0  0  0
  8 10  2  0  0  0  0
  8 18  1  0  0  0  0
  9 12  2  0  0  0  0
  9 18  1  0  0  0  0
 10 14  1  0  0  0  0
 13  9  1  0  0  0  0
 14 11  2  0  0  0  0
 15 22  1  0  0  0  0
 16  8  1  0  0  0  0
 17  2  1  1  0  0  0
 17 20  1  0  0  0  0
 17 21  1  0  0  0  0
 18 19  2  0  0  0  0
 19 11  1  0  0  0  0
 20 22  1  0  0  0  0
 20 21  1  0  0  0  0
 21 13  1  0  0  0  0
 22 16  1  0  0  0  0
 23  7  1  0  0  0  0
 24 25  1  0  0  0  0
 25 23  2  0  0  0  0
 26 24  2  0  0  0  0
 26 27  1  0  0  0  0
 27 28  2  0  0  0  0
 28 23  1  0  0  0  0
 29 33  2  0  0  0  0
 30 32  2  0  0  0  0
 30 29  1  0  0  0  0
 31 27  1  0  0  0  0
 31 29  1  0  0  0  0
 32 34  1  0  0  0  0
 33 35  1  0  0  0  0
 34 35  1  0  0  0  0
 36 32  1  0  0  0  0
 36 38  1  0  0  0  0
 38 39  1  0  0  0  0
 38 37  1  0  0  0  0
 40 38  1  0  0  0  0
M  END
>  <MODEL>
6

>  <REMARK>
 VINA RESULT:      -9.1      5.365      6.606
  Name = 
  5 active torsions:
  status: ('A' for Active; 'I' for Inactive)
    1  A    between atoms: C_3  and  C_30
    2  A    between atoms: C_4  and  C_35
    3  A    between atoms: C_13  and  O_23
    4  A    between atoms: N_19  and  C_37
    5  A    between atoms: O_23  and  C_26
                            x       y       z     vdW  Elec       q    Type
                         _______ _______ _______ _____ _____    ______ ____

>  <TORSDO>
F 5

$$$$
=
 OpenBabel11062413063D

 40 45  0  0  1  0  0  0  0  0999 V2000
  184.7960  173.4420  136.1930 C   0  0  0  0  0  3  0  0  0  0  0  0
  185.4980  175.8620  136.3510 C   0  0  0  0  0  0  0  0  0  0  0  0
  185.7830  172.9540  137.1930 C   0  0  0  0  0  2  0  0  0  0  0  0
  187.6010  174.5090  136.5790 C   0  0  0  0  0  3  0  0  0  0  0  0
  187.1640  173.2620  136.7410 C   0  0  0  0  0  3  0  0  0  0  0  0
  184.6750  174.7260  135.8550 C   0  0  0  0  0  3  0  0  0  0  0  0
  186.7950  175.7410  136.7660 C   0  0  0  0  0  0  0  0  0  0  0  0
  181.1050  178.4410  138.2570 C   0  0  0  0  0  0  0  0  0  0  0  0
  182.4040  176.4300  139.2370 C   0  0  0  0  0  0  0  0  0  0  0  0
  180.4650  179.6620  138.5010 C   0  0  0  0  0  3  0  0  0  0  0  0
  180.8180  179.4170  140.8770 C   0  0  0  0  0  3  0  0  0  0  0  0
  182.0300  175.4180  139.8870 O   0  0  0  0  0  0  0  0  0  0  0  0
  183.6380  176.3680  138.5090 N   0  0  0  0  0  2  0  0  0  0  0  0
  180.3250  180.1510  139.8000 C   0  0  0  0  0  3  0  0  0  0  0  0
  182.0850  178.3340  134.5940 C   0  0  0  0  0  1  0  0  0  0  0  0
  181.0880  177.9600  136.8300 C   0  0  0  0  0  2  0  0  0  0  0  0
  184.7920  177.2040  136.3500 C   0  0  1  0  0  3  0  0  0  0  0  0
  181.6320  177.6960  139.3570 C   0  0  0  0  0  0  0  0  0  0  0  0
  181.4640  178.2010  140.6550 C   0  0  0  0  0  3  0  0  0  0  0  0
  183.2760  177.0680  136.3420 C   0  0  1  0  0  3  0  0  0  0  0  0
  183.9700  177.4610  137.6170 C   0  0  1  0  0  3  0  0  0  0  0  0
  182.3860  178.2530  136.0760 C   0  0  1  0  0  3  0  0  0  0  0  0
  187.5450  176.8830  137.3360 C   0  0  0  0  0  0  0  0  0  0  0  0
  188.9980  178.7050  137.0070 N   0  0  0  0  0  0  0  0  0  0  0  0
  188.2810  177.6890  136.5230 N   0  0  0  0  0  0  0  0  0  0  0  0
  189.0360  178.9730  138.3370 C   0  0  0  0  0  3  0  0  0  0  0  0
  188.3160  178.1720  139.2280 C   0  0  0  0  0  0  0  0  0  0  0  0
  187.5700  177.1140  138.7150 C   0  0  0  0  0  3  0  0  0  0  0  0
  189.0680  177.7540  141.6510 C   0  0  0  0  0  0  0  0  0  0  0  0
  189.0020  178.2520  143.0360 C   0  0  0  0  0  3  0  0  0  0  0  0
  188.2940  178.4180  140.6410 N   0  0  0  0  0  2  0  0  0  0  0  0
  189.8960  177.8440  143.9410 C   0  0  0  0  0  0  0  0  0  0  0  0
  189.8400  176.7470  141.3590 N   0  0  0  0  0  0  0  0  0  0  0  0
  191.0240  176.9340  143.5150 C   0  0  0  0  0  2  0  0  0  0  0  0
  190.5700  176.0040  142.3880 C   0  0  0  0  0  2  0  0  0  0  0  0
  189.7940  178.3240  145.2510 O   0  0  0  0  0  0  0  0  0  0  0  0
  190.3080  176.7520  146.8530 F   0  0  0  0  0  0  0  0  0  0  0  0
  189.3000  177.5490  146.3410 C   0  0  0  0  0  0  0  0  0  0  0  0
  188.2470  176.7550  145.9180 F   0  0  0  0  0  0  0  0  0  0  0  0
  188.8510  178.4000  147.3320 F   0  0  0  0  0  0  0  0  0  0  0  0
  1  3  1  0  0  0  0
  2  7  2  0  0  0  0
  4  5  2  0  0  0  0
  4  7  1  0  0  0  0
  5  3  1  0  0  0  0
  6  1  2  0  0  0  0
  6  2  1  0  0  0  0
  7 23  1  0  0  0  0
  8 10  2  0  0  0  0
  8 18  1  0  0  0  0
  9 18  1  0  0  0  0
  9 12  2  0  0  0  0
 10 14  1  0  0  0  0
 13  9  1  0  0  0  0
 14 11  2  0  0  0  0
 15 22  1  0  0  0  0
 16  8  1  0  0  0  0
 17  2  1  1  0  0  0
 17 21  1  0  0  0  0
 18 19  2  0  0  0  0
 19 11  1  0  0  0  0
 20 17  1  0  0  0  0
 20 21  1  0  0  0  0
 21 13  1  0  0  0  0
 22 20  1  0  0  0  0
 22 16  1  0  0  0  0
 23 28  1  0  0  0  0
 24 26  2  0  0  0  0
 25 24  1  0  0  0  0
 25 23  2  0  0  0  0
 26 27  1  0  0  0  0
 27 31  1  0  0  0  0
 28 27  2  0  0  0  0
 29 30  1  0  0  0  0
 30 32  2  0  0  0  0
 31 29  1  0  0  0  0
 32 36  1  0  0  0  0
 33 29  2  0  0  0  0
 33 35  1  0  0  0  0
 34 32  1  0  0  0  0
 35 34  1  0  0  0  0
 36 38  1  0  0  0  0
 38 37  1  0  0  0  0
 38 40  1  0  0  0  0
 39 38  1  0  0  0  0
M  END
>  <MODEL>
7

>  <REMARK>
 VINA RESULT:      -9.0      5.083      9.601
  Name = 
  5 active torsions:
  status: ('A' for Active; 'I' for Inactive)
    1  A    between atoms: C_3  and  C_30
    2  A    between atoms: C_4  and  C_35
    3  A    between atoms: C_13  and  O_23
    4  A    between atoms: N_19  and  C_37
    5  A    between atoms: O_23  and  C_26
                            x       y       z     vdW  Elec       q    Type
                         _______ _______ _______ _____ _____    ______ ____

>  <TORSDO>
F 5

$$$$
=
 OpenBabel11062413063D

 40 45  0  0  1  0  0  0  0  0999 V2000
  190.4420  173.9530  135.2500 C   0  0  0  0  0  3  0  0  0  0  0  0
  190.0610  175.9200  136.7850 C   0  0  0  0  0  0  0  0  0  0  0  0
  191.1160  173.1140  136.2760 C   0  0  0  0  0  2  0  0  0  0  0  0
  192.2910  174.9600  137.4220 C   0  0  0  0  0  3  0  0  0  0  0  0
  192.3380  173.7980  136.7740 C   0  0  0  0  0  3  0  0  0  0  0  0
  189.9680  175.1730  135.5020 C   0  0  0  0  0  3  0  0  0  0  0  0
  191.0670  175.7520  137.6960 C   0  0  0  0  0  0  0  0  0  0  0  0
  184.6690  176.5470  136.4480 C   0  0  0  0  0  0  0  0  0  0  0  0
  186.0700  174.4050  136.8290 C   0  0  0  0  0  0  0  0  0  0  0  0
  183.5410  177.2960  136.8060 C   0  0  0  0  0  3  0  0  0  0  0  0
  182.8090  175.5520  138.3070 C   0  0  0  0  0  3  0  0  0  0  0  0
  185.9030  173.2110  136.4660 O   0  0  0  0  0  0  0  0  0  0  0  0
  187.3940  174.8550  137.1440 N   0  0  0  0  0  2  0  0  0  0  0  0
  182.6200  176.8080  137.7320 C   0  0  0  0  0  3  0  0  0  0  0  0
  187.1850  178.8900  134.8480 C   0  0  0  0  0  1  0  0  0  0  0  0
  185.5240  177.1240  135.3520 C   0  0  0  0  0  2  0  0  0  0  0  0
  188.9450  176.9210  137.0180 C   0  0  1  0  0  3  0  0  0  0  0  0
  184.8780  175.2690  137.0530 C   0  0  0  0  0  0  0  0  0  0  0  0
  183.9290  174.7930  137.9690 C   0  0  0  0  0  3  0  0  0  0  0  0
  187.8290  176.8030  135.9910 C   0  0  1  0  0  3  0  0  0  0  0  0
  187.6070  176.2690  137.3780 C   0  0  1  0  0  3  0  0  0  0  0  0
  186.7610  177.8580  135.8710 C   0  0  1  0  0  3  0  0  0  0  0  0
  191.0680  176.4520  139.0000 C   0  0  0  0  0  0  0  0  0  0  0  0
  192.2260  177.7370  140.5960 N   0  0  0  0  0  0  0  0  0  0  0  0
  192.1770  177.1260  139.4110 N   0  0  0  0  0  0  0  0  0  0  0  0
  191.1730  177.7040  141.4530 C   0  0  0  0  0  3  0  0  0  0  0  0
  190.0110  177.0130  141.0980 C   0  0  0  0  0  0  0  0  0  0  0  0
  189.9680  176.3770  139.8600 C   0  0  0  0  0  3  0  0  0  0  0  0
  188.8250  177.0510  143.3800 C   0  0  0  0  0  0  0  0  0  0  0  0
  187.5190  177.1160  144.0580 C   0  0  0  0  0  3  0  0  0  0  0  0
  188.8570  176.9600  141.9480 N   0  0  0  0  0  2  0  0  0  0  0  0
  187.4460  177.4680  145.3450 C   0  0  0  0  0  0  0  0  0  0  0  0
  189.9230  177.1030  144.0790 N   0  0  0  0  0  0  0  0  0  0  0  0
  188.7020  177.8770  146.0770 C   0  0  0  0  0  2  0  0  0  0  0  0
  189.9120  177.1090  145.5430 C   0  0  0  0  0  2  0  0  0  0  0  0
  186.1910  177.5040  145.9620 O   0  0  0  0  0  0  0  0  0  0  0  0
  184.1810  178.4300  146.6000 F   0  0  0  0  0  0  0  0  0  0  0  0
  185.4950  178.7100  146.2680 C   0  0  0  0  0  0  0  0  0  0  0  0
  185.5290  179.5660  145.1800 F   0  0  0  0  0  0  0  0  0  0  0  0
  186.1100  179.3250  147.3410 F   0  0  0  0  0  0  0  0  0  0  0  0
  1  6  2  0  0  0  0
  1  3  1  0  0  0  0
  2  7  2  0  0  0  0
  3  5  1  0  0  0  0
  4  7  1  0  0  0  0
  5  4  2  0  0  0  0
  6  2  1  0  0  0  0
  7 23  1  0  0  0  0
  8 10  2  0  0  0  0
  8 18  1  0  0  0  0
  9 18  1  0  0  0  0
  9 13  1  0  0  0  0
 10 14  1  0  0  0  0
 12  9  2  0  0  0  0
 13 21  1  0  0  0  0
 14 11  2  0  0  0  0
 15 22  1  0  0  0  0
 16 22  1  0  0  0  0
 16  8  1  0  0  0  0
 17  2  1  6  0  0  0
 17 21  1  0  0  0  0
 18 19  2  0  0  0  0
 19 11  1  0  0  0  0
 20 17  1  0  0  0  0
 20 21  1  0  0  0  0
 22 20  1  0  0  0  0
 23 25  2  0  0  0  0
 23 28  1  0  0  0  0
 24 26  2  0  0  0  0
 25 24  1  0  0  0  0
 27 26  1  0  0  0  0
 27 31  1  0  0  0  0
 28 27  2  0  0  0  0
 29 30  1  0  0  0  0
 29 33  2  0  0  0  0
 30 32  2  0  0  0  0
 31 29  1  0  0  0  0
 32 36  1  0  0  0  0
 32 34  1  0  0  0  0
 33 35  1  0  0  0  0
 35 34  1  0  0  0  0
 36 38  1  0  0  0  0
 38 37  1  0  0  0  0
 38 40  1  0  0  0  0
 39 38  1  0  0  0  0
M  END
>  <MODEL>
8

>  <REMARK>
 VINA RESULT:      -8.9      5.409      9.395
  Name = 
  5 active torsions:
  status: ('A' for Active; 'I' for Inactive)
    1  A    between atoms: C_3  and  C_30
    2  A    between atoms: C_4  and  C_35
    3  A    between atoms: C_13  and  O_23
    4  A    between atoms: N_19  and  C_37
    5  A    between atoms: O_23  and  C_26
                            x       y       z     vdW  Elec       q    Type
                         _______ _______ _______ _____ _____    ______ ____

>  <TORSDO>
F 5

$$$$
=
 OpenBabel11062413063D

 40 45  0  0  1  0  0  0  0  0999 V2000
  182.7120  175.8650  136.0660 C   0  0  0  0  0  3  0  0  0  0  0  0
  184.0240  177.7060  137.1890 C   0  0  0  0  0  0  0  0  0  0  0  0
  183.7770  174.8370  136.2110 C   0  0  0  0  0  2  0  0  0  0  0  0
  185.6890  176.3650  135.8730 C   0  0  0  0  0  3  0  0  0  0  0  0
  185.0110  175.2790  135.5090 C   0  0  0  0  0  3  0  0  0  0  0  0
  182.8340  177.1110  136.5230 C   0  0  0  0  0  3  0  0  0  0  0  0
  185.3090  177.3000  136.9600 C   0  0  0  0  0  0  0  0  0  0  0  0
  180.3800  179.3750  140.8650 C   0  0  0  0  0  0  0  0  0  0  0  0
  181.0090  176.9780  140.1230 C   0  0  0  0  0  0  0  0  0  0  0  0
  180.0820  180.2400  141.9260 C   0  0  0  0  0  3  0  0  0  0  0  0
  180.1870  178.4110  143.4990 C   0  0  0  0  0  3  0  0  0  0  0  0
  180.3280  175.9260  140.0000 O   0  0  0  0  0  0  0  0  0  0  0  0
  182.2260  177.1060  139.3760 N   0  0  0  0  0  2  0  0  0  0  0  0
  179.9900  179.7650  143.2340 C   0  0  0  0  0  3  0  0  0  0  0  0
  181.5460  181.4690  137.9260 C   0  0  0  0  0  1  0  0  0  0  0  0
  180.3310  179.9790  139.4880 C   0  0  0  0  0  2  0  0  0  0  0  0
  183.7130  178.8340  138.1540 C   0  0  1  0  0  3  0  0  0  0  0  0
  180.6050  177.9900  141.1370 C   0  0  0  0  0  0  0  0  0  0  0  0
  180.4910  177.5340  142.4580 C   0  0  0  0  0  3  0  0  0  0  0  0
  182.2220  179.1220  138.2570 C   0  0  1  0  0  3  0  0  0  0  0  0
  182.9060  178.3860  139.3760 C   0  0  1  0  0  3  0  0  0  0  0  0
  181.7090  180.3600  138.9440 C   0  0  1  0  0  3  0  0  0  0  0  0
  186.4530  177.8600  137.7150 C   0  0  0  0  0  0  0  0  0  0  0  0
  188.5080  179.0060  137.7000 N   0  0  0  0  0  0  0  0  0  0  0  0
  187.4450  178.5210  137.0580 N   0  0  0  0  0  0  0  0  0  0  0  0
  188.6560  178.8520  139.0410 C   0  0  0  0  0  3  0  0  0  0  0  0
  187.6810  178.1670  139.7720 C   0  0  0  0  0  0  0  0  0  0  0  0
  186.5740  177.6630  139.0940 C   0  0  0  0  0  3  0  0  0  0  0  0
  186.7640  178.3080  142.1700 C   0  0  0  0  0  0  0  0  0  0  0  0
  186.9930  177.9200  143.5730 C   0  0  0  0  0  3  0  0  0  0  0  0
  187.7660  177.9910  141.1930 N   0  0  0  0  0  2  0  0  0  0  0  0
  185.9880  177.9510  144.4520 C   0  0  0  0  0  0  0  0  0  0  0  0
  185.6560  178.9020  141.8340 N   0  0  0  0  0  0  0  0  0  0  0  0
  184.5980  178.3080  143.9810 C   0  0  0  0  0  2  0  0  0  0  0  0
  184.6600  179.3110  142.8280 C   0  0  0  0  0  2  0  0  0  0  0  0
  186.2440  177.5910  145.7800 O   0  0  0  0  0  0  0  0  0  0  0  0
  184.7160  178.1520  147.4090 F   0  0  0  0  0  0  0  0  0  0  0  0
  185.9690  178.4360  146.8950 C   0  0  0  0  0  0  0  0  0  0  0  0
  186.0240  179.7640  146.5080 F   0  0  0  0  0  0  0  0  0  0  0  0
  186.9190  178.2140  147.8730 F   0  0  0  0  0  0  0  0  0  0  0  0
  1  3  1  0  0  0  0
  1  6  2  0  0  0  0
  4  7  1  0  0  0  0
  5  4  2  0  0  0  0
  5  3  1  0  0  0  0
  6  2  1  0  0  0  0
  7  2  2  0  0  0  0
  7 23  1  0  0  0  0
  8 18  2  0  0  0  0
  8 10  1  0  0  0  0
  9 18  1  0  0  0  0
 10 14  2  0  0  0  0
 12  9  2  0  0  0  0
 13  9  1  0  0  0  0
 14 11  1  0  0  0  0
 15 22  1  0  0  0  0
 16  8  1  0  0  0  0
 17  2  1  6  0  0  0
 17 20  1  0  0  0  0
 17 21  1  0  0  0  0
 18 19  1  0  0  0  0
 19 11  2  0  0  0  0
 20 22  1  0  0  0  0
 20 21  1  0  0  0  0
 21 13  1  0  0  0  0
 22 16  1  0  0  0  0
 23 28  1  0  0  0  0
 24 26  2  0  0  0  0
 25 24  1  0  0  0  0
 25 23  2  0  0  0  0
 26 27  1  0  0  0  0
 27 31  1  0  0  0  0
 28 27  2  0  0  0  0
 29 30  1  0  0  0  0
 30 32  2  0  0  0  0
 31 29  1  0  0  0  0
 32 36  1  0  0  0  0
 33 29  2  0  0  0  0
 33 35  1  0  0  0  0
 34 32  1  0  0  0  0
 35 34  1  0  0  0  0
 36 38  1  0  0  0  0
 38 37  1  0  0  0  0
 38 40  1  0  0  0  0
 39 38  1  0  0  0  0
M  END
>  <MODEL>
9

>  <REMARK>
 VINA RESULT:      -8.9      4.473      8.408
  Name = 
  5 active torsions:
  status: ('A' for Active; 'I' for Inactive)
    1  A    between atoms: C_3  and  C_30
    2  A    between atoms: C_4  and  C_35
    3  A    between atoms: C_13  and  O_23
    4  A    between atoms: N_19  and  C_37
    5  A    between atoms: O_23  and  C_26
                            x       y       z     vdW  Elec       q    Type
                         _______ _______ _______ _____ _____    ______ ____

>  <TORSDO>
F 5

$$$$
