=
 OpenBabel11062415453D

 27 32  0  0  1  0  0  0  0  0999 V2000
  189.3360  177.0910  145.4430 C   0  0  1  0  0  3  0  0  0  0  0  0
  189.8200  176.3270  142.0740 C   0  0  0  0  0  0  0  0  0  0  0  0
  187.5870  178.1520  146.6540 C   0  0  0  0  0  3  0  0  0  0  0  0
  191.3910  176.8490  143.9100 C   0  0  0  0  0  2  0  0  0  0  0  0
  190.4370  176.1870  140.7890 N   0  0  0  0  0  2  0  0  0  0  0  0
  186.1470  178.1120  144.4610 C   0  0  0  0  0  0  0  0  0  0  0  0
  190.5330  177.7040  144.7840 C   0  0  0  0  0  0  0  0  0  0  0  0
  184.9650  178.8110  144.6900 C   0  0  0  0  0  3  0  0  0  0  0  0
  184.5370  178.6650  142.2810 C   0  0  0  0  0  3  0  0  0  0  0  0
  189.0100  177.7560  146.7260 N   0  0  0  0  0  0  0  0  0  0  0  0
  187.8040  177.1600  143.3010 C   0  0  0  0  0  0  0  0  0  0  0  0
  185.7520  177.9870  142.0760 C   0  0  0  0  0  3  0  0  0  0  0  0
  187.1860  177.7730  145.2940 C   0  0  0  0  0  0  0  0  0  0  0  0
  188.6420  176.8810  142.1640 N   0  0  0  0  0  0  0  0  0  0  0  0
  190.7940  178.8880  144.9250 O   0  0  0  0  0  0  0  0  0  0  0  0
  184.1470  179.0740  143.5770 C   0  0  0  0  0  3  0  0  0  0  0  0
  190.5510  175.7650  143.2450 C   0  0  0  0  0  2  0  0  0  0  0  0
  188.1620  177.2150  144.6110 N   0  0  0  0  0  0  0  0  0  0  0  0
  186.5350  177.7140  143.1960 C   0  0  0  0  0  0  0  0  0  0  0  0
  189.0650  178.7080  138.5980 C   0  0  0  0  0  0  0  0  0  0  0  0
  190.0350  177.0020  137.0310 C   0  0  0  0  0  3  0  0  0  0  0  0
  188.7100  179.3870  137.4230 C   0  0  0  0  0  2  0  0  0  0  0  0
  190.9700  175.1360  138.1770 F   0  0  0  0  0  0  0  0  0  0  0  0
  190.0670  176.9060  139.6050 C   0  0  0  0  0  0  0  0  0  0  0  0
  189.3880  178.1660  137.2870 C   0  0  0  0  0  0  0  0  0  0  0  0
  190.3760  176.3510  138.2690 C   0  0  0  0  0  0  0  0  0  0  0  0
  189.3560  178.1440  139.7970 C   0  0  0  0  0  3  0  0  0  0  0  0
  1  7  1  6  0  0  0
  1 10  1  0  0  0  0
  2 14  2  0  0  0  0
  2 17  1  0  0  0  0
  3 10  2  0  0  0  0
  4  7  1  0  0  0  0
  5  2  1  0  0  0  0
  6  8  1  0  0  0  0
  6 13  2  0  0  0  0
  7 15  2  0  0  0  0
  9 16  1  0  0  0  0
 11 18  1  0  0  0  0
 12  9  2  0  0  0  0
 12 19  1  0  0  0  0
 13  3  1  0  0  0  0
 14 11  1  0  0  0  0
 16  8  2  0  0  0  0
 17  4  1  0  0  0  0
 18 13  1  0  0  0  0
 18  1  1  0  0  0  0
 19 11  2  0  0  0  0
 19  6  1  0  0  0  0
 20 27  1  0  0  0  0
 21 25  1  0  0  0  0
 21 26  2  0  0  0  0
 22 20  1  0  0  0  0
 23 26  1  0  0  0  0
 24 27  2  0  0  0  0
 24  5  1  0  0  0  0
 25 22  1  0  0  0  0
 25 20  2  0  0  0  0
 26 24  1  0  0  0  0
M  END
>  <MODEL>
1

>  <REMARK>
 VINA RESULT:     -10.2      0.000      0.000
  Name = 
  1 active torsions:
  status: ('A' for Active; 'I' for Inactive)
    1  A    between atoms: N_9  and  C_19
                            x       y       z     vdW  Elec       q    Type
                         _______ _______ _______ _____ _____    ______ ____

>  <TORSDO>
F 1

$$$$
=
 OpenBabel11062415453D

 27 32  0  0  1  0  0  0  0  0999 V2000
  183.1570  179.0950  141.5760 C   0  0  1  0  0  3  0  0  0  0  0  0
  185.6820  178.9050  139.1770 C   0  0  0  0  0  0  0  0  0  0  0  0
  183.0630  178.6280  143.9050 C   0  0  0  0  0  3  0  0  0  0  0  0
  183.2270  178.6540  139.0400 C   0  0  0  0  0  2  0  0  0  0  0  0
  186.3740  178.6280  137.9550 N   0  0  0  0  0  2  0  0  0  0  0  0
  185.6670  178.3090  143.8700 C   0  0  0  0  0  0  0  0  0  0  0  0
  182.9120  178.1760  140.4200 C   0  0  0  0  0  0  0  0  0  0  0  0
  186.0800  177.8620  145.1210 C   0  0  0  0  0  3  0  0  0  0  0  0
  188.2830  177.4490  144.1300 C   0  0  0  0  0  3  0  0  0  0  0  0
  182.2310  178.8290  142.7010 N   0  0  0  0  0  0  0  0  0  0  0  0
  185.7600  178.6970  141.6700 C   0  0  0  0  0  0  0  0  0  0  0  0
  187.8300  177.8780  142.8690 C   0  0  0  0  0  3  0  0  0  0  0  0
  184.4390  178.7010  143.3970 C   0  0  0  0  0  0  0  0  0  0  0  0
  186.2220  178.5600  140.3130 N   0  0  0  0  0  0  0  0  0  0  0  0
  182.4940  177.0420  140.5930 O   0  0  0  0  0  0  0  0  0  0  0  0
  187.4160  177.4400  145.2460 C   0  0  0  0  0  3  0  0  0  0  0  0
  184.3880  179.6390  139.0760 C   0  0  0  0  0  2  0  0  0  0  0  0
  184.4920  178.9270  142.1020 N   0  0  0  0  0  0  0  0  0  0  0  0
  186.5100  178.3160  142.7750 C   0  0  0  0  0  0  0  0  0  0  0  0
  188.2040  175.6030  137.2190 C   0  0  0  0  0  0  0  0  0  0  0  0
  189.9600  177.1860  138.0660 C   0  0  0  0  0  3  0  0  0  0  0  0
  189.2720  174.7040  137.0840 C   0  0  0  0  0  2  0  0  0  0  0  0
  189.0550  179.2890  138.7220 F   0  0  0  0  0  0  0  0  0  0  0  0
  187.4470  177.6900  137.8000 C   0  0  0  0  0  0  0  0  0  0  0  0
  189.5610  175.9840  137.5790 C   0  0  0  0  0  0  0  0  0  0  0  0
  188.8260  178.0660  138.1820 C   0  0  0  0  0  0  0  0  0  0  0  0
  187.0970  176.3830  137.3060 C   0  0  0  0  0  3  0  0  0  0  0  0
  1  7  1  6  0  0  0
  1 18  1  0  0  0  0
  1 10  1  0  0  0  0
  2 14  2  0  0  0  0
  4 17  1  0  0  0  0
  4  7  1  0  0  0  0
  5  2  1  0  0  0  0
  6  8  1  0  0  0  0
  7 15  2  0  0  0  0
  8 16  2  0  0  0  0
  9 16  1  0  0  0  0
 10  3  2  0  0  0  0
 11 18  1  0  0  0  0
 11 19  2  0  0  0  0
 12  9  2  0  0  0  0
 13  6  2  0  0  0  0
 13  3  1  0  0  0  0
 14 11  1  0  0  0  0
 17  2  1  0  0  0  0
 18 13  1  0  0  0  0
 19 12  1  0  0  0  0
 19  6  1  0  0  0  0
 20 27  2  0  0  0  0
 20 25  1  0  0  0  0
 21 26  1  0  0  0  0
 22 20  1  0  0  0  0
 22 25  1  0  0  0  0
 24  5  1  0  0  0  0
 24 26  2  0  0  0  0
 25 21  2  0  0  0  0
 26 23  1  0  0  0  0
 27 24  1  0  0  0  0
M  END
>  <MODEL>
2

>  <REMARK>
 VINA RESULT:      -9.0      3.260      5.220
  Name = 
  1 active torsions:
  status: ('A' for Active; 'I' for Inactive)
    1  A    between atoms: N_9  and  C_19
                            x       y       z     vdW  Elec       q    Type
                         _______ _______ _______ _____ _____    ______ ____

>  <TORSDO>
F 1

$$$$
=
 OpenBabel11062415453D

 27 32  0  0  1  0  0  0  0  0999 V2000
  182.3200  178.4820  140.2990 C   0  0  1  0  0  3  0  0  0  0  0  0
  185.7120  178.7130  139.5200 C   0  0  0  0  0  0  0  0  0  0  0  0
  181.1050  178.3700  142.3390 C   0  0  0  0  0  3  0  0  0  0  0  0
  183.7920  177.7020  138.3350 C   0  0  0  0  0  2  0  0  0  0  0  0
  186.9800  178.4780  138.8980 N   0  0  0  0  0  2  0  0  0  0  0  0
  183.3450  178.8640  143.6130 C   0  0  0  0  0  0  0  0  0  0  0  0
  182.8950  177.3670  139.4810 C   0  0  0  0  0  0  0  0  0  0  0  0
  183.1130  178.7610  144.9810 C   0  0  0  0  0  3  0  0  0  0  0  0
  185.5400  178.8990  145.2950 C   0  0  0  0  0  3  0  0  0  0  0  0
  181.0090  178.1190  140.8860 N   0  0  0  0  0  0  0  0  0  0  0  0
  184.5050  178.9210  141.7020 C   0  0  0  0  0  0  0  0  0  0  0  0
  185.7460  178.9700  143.9050 C   0  0  0  0  0  3  0  0  0  0  0  0
  182.5000  178.7830  142.5330 C   0  0  0  0  0  0  0  0  0  0  0  0
  185.6280  178.7280  140.8210 N   0  0  0  0  0  0  0  0  0  0  0  0
  182.6670  176.2000  139.7580 O   0  0  0  0  0  0  0  0  0  0  0  0
  184.2360  178.7940  145.8280 C   0  0  0  0  0  3  0  0  0  0  0  0
  184.5540  178.9900  138.6220 C   0  0  0  0  0  2  0  0  0  0  0  0
  183.1830  178.8140  141.4080 N   0  0  0  0  0  0  0  0  0  0  0  0
  184.6190  178.9620  143.0860 C   0  0  0  0  0  0  0  0  0  0  0  0
  189.4220  177.5930  141.4050 C   0  0  0  0  0  0  0  0  0  0  0  0
  190.2700  176.4900  139.3140 C   0  0  0  0  0  3  0  0  0  0  0  0
  190.5570  177.0240  142.0040 C   0  0  0  0  0  2  0  0  0  0  0  0
  188.9000  176.9470  137.4210 F   0  0  0  0  0  0  0  0  0  0  0  0
  188.1270  177.9030  139.5370 C   0  0  0  0  0  0  0  0  0  0  0  0
  190.3570  176.7860  140.6360 C   0  0  0  0  0  0  0  0  0  0  0  0
  189.0900  177.0970  138.7550 C   0  0  0  0  0  0  0  0  0  0  0  0
  188.2990  178.1920  140.9380 C   0  0  0  0  0  3  0  0  0  0  0  0
  1  7  1  1  0  0  0
  1 10  1  0  0  0  0
  1 18  1  0  0  0  0
  2 14  2  0  0  0  0
  3 13  1  0  0  0  0
  4 17  1  0  0  0  0
  4  7  1  0  0  0  0
  5  2  1  0  0  0  0
  5 24  1  0  0  0  0
  6  8  1  0  0  0  0
  7 15  2  0  0  0  0
  8 16  2  0  0  0  0
  9 16  1  0  0  0  0
 10  3  2  0  0  0  0
 11 19  2  0  0  0  0
 12  9  2  0  0  0  0
 13  6  2  0  0  0  0
 14 11  1  0  0  0  0
 17  2  1  0  0  0  0
 18 11  1  0  0  0  0
 18 13  1  0  0  0  0
 19  6  1  0  0  0  0
 19 12  1  0  0  0  0
 20 22  1  0  0  0  0
 21 25  1  0  0  0  0
 23 26  1  0  0  0  0
 24 27  2  0  0  0  0
 25 20  2  0  0  0  0
 25 22  1  0  0  0  0
 26 21  2  0  0  0  0
 26 24  1  0  0  0  0
 27 20  1  0  0  0  0
M  END
>  <MODEL>
3

>  <REMARK>
 VINA RESULT:      -8.9      3.479      5.589
  Name = 
  1 active torsions:
  status: ('A' for Active; 'I' for Inactive)
    1  A    between atoms: N_9  and  C_19
                            x       y       z     vdW  Elec       q    Type
                         _______ _______ _______ _____ _____    ______ ____

>  <TORSDO>
F 1

$$$$
=
 OpenBabel11062415453D

 27 32  0  0  1  0  0  0  0  0999 V2000
  182.0910  178.4330  138.5040 C   0  0  1  0  0  3  0  0  0  0  0  0
  184.8410  178.9150  140.5950 C   0  0  0  0  0  0  0  0  0  0  0  0
  179.7600  178.1630  138.8890 C   0  0  0  0  0  3  0  0  0  0  0  0
  184.5910  177.8260  138.3890 C   0  0  0  0  0  2  0  0  0  0  0  0
  186.1460  178.7870  141.1730 N   0  0  0  0  0  2  0  0  0  0  0  0
  180.1850  178.7540  141.4100 C   0  0  0  0  0  0  0  0  0  0  0  0
  183.1640  177.3900  138.4480 C   0  0  0  0  0  0  0  0  0  0  0  0
  178.9970  178.5840  142.1140 C   0  0  0  0  0  3  0  0  0  0  0  0
  180.3000  178.8680  144.1710 C   0  0  0  0  0  3  0  0  0  0  0  0
  180.8290  177.9630  137.8870 N   0  0  0  0  0  0  0  0  0  0  0  0
  182.3850  178.9600  141.0690 C   0  0  0  0  0  0  0  0  0  0  0  0
  181.4900  179.0060  143.4340 C   0  0  0  0  0  3  0  0  0  0  0  0
  180.4760  178.6590  140.0710 C   0  0  0  0  0  0  0  0  0  0  0  0
  183.7910  178.8740  141.3670 N   0  0  0  0  0  0  0  0  0  0  0  0
  182.8900  176.2000  138.4820 O   0  0  0  0  0  0  0  0  0  0  0  0
  179.0650  178.6580  143.5170 C   0  0  0  0  0  3  0  0  0  0  0  0
  184.7680  179.1490  139.1240 C   0  0  0  0  0  2  0  0  0  0  0  0
  181.7710  178.7780  139.8700 N   0  0  0  0  0  0  0  0  0  0  0  0
  181.3960  178.9550  142.0440 C   0  0  0  0  0  0  0  0  0  0  0  0
  185.9380  178.0990  144.7110 C   0  0  0  0  0  0  0  0  0  0  0  0
  187.9790  176.8410  143.9650 C   0  0  0  0  0  3  0  0  0  0  0  0
  186.2450  177.5790  145.9770 C   0  0  0  0  0  2  0  0  0  0  0  0
  188.4490  177.1510  141.6510 F   0  0  0  0  0  0  0  0  0  0  0  0
  186.4310  178.2640  142.4760 C   0  0  0  0  0  0  0  0  0  0  0  0
  187.0920  177.2370  144.9120 C   0  0  0  0  0  0  0  0  0  0  0  0
  187.6140  177.4020  142.6900 C   0  0  0  0  0  0  0  0  0  0  0  0
  185.5440  178.6590  143.5400 C   0  0  0  0  0  3  0  0  0  0  0  0
  1 10  1  1  0  0  0
  1 18  1  0  0  0  0
  2  5  1  0  0  0  0
  2 14  2  0  0  0  0
  3 13  1  0  0  0  0
  4  7  1  0  0  0  0
  4 17  1  0  0  0  0
  5 24  1  0  0  0  0
  6 19  1  0  0  0  0
  6  8  1  0  0  0  0
  7 15  2  0  0  0  0
  7  1  1  0  0  0  0
  8 16  2  0  0  0  0
 10  3  2  0  0  0  0
 11 14  1  0  0  0  0
 11 19  2  0  0  0  0
 12  9  2  0  0  0  0
 13  6  2  0  0  0  0
 16  9  1  0  0  0  0
 17  2  1  0  0  0  0
 18 13  1  0  0  0  0
 18 11  1  0  0  0  0
 19 12  1  0  0  0  0
 20 25  1  0  0  0  0
 20 22  1  0  0  0  0
 21 25  2  0  0  0  0
 23 26  1  0  0  0  0
 24 26  2  0  0  0  0
 24 27  1  0  0  0  0
 25 22  1  0  0  0  0
 26 21  1  0  0  0  0
 27 20  2  0  0  0  0
M  END
>  <MODEL>
4

>  <REMARK>
 VINA RESULT:      -8.3      4.514      7.486
  Name = 
  1 active torsions:
  status: ('A' for Active; 'I' for Inactive)
    1  A    between atoms: N_9  and  C_19
                            x       y       z     vdW  Elec       q    Type
                         _______ _______ _______ _____ _____    ______ ____

>  <TORSDO>
F 1

$$$$
=
 OpenBabel11062415453D

 27 32  0  0  1  0  0  0  0  0999 V2000
  190.8860  177.2450  145.0000 C   0  0  1  0  0  3  0  0  0  0  0  0
  189.2380  176.7920  141.9590 C   0  0  0  0  0  0  0  0  0  0  0  0
  190.1780  177.9060  147.1710 C   0  0  0  0  0  3  0  0  0  0  0  0
  191.5500  177.4620  142.5210 C   0  0  0  0  0  2  0  0  0  0  0  0
  188.9310  176.8440  140.5610 N   0  0  0  0  0  2  0  0  0  0  0  0
  187.6990  177.7550  146.3270 C   0  0  0  0  0  0  0  0  0  0  0  0
  191.3450  178.0970  143.8580 C   0  0  0  0  0  0  0  0  0  0  0  0
  186.8560  178.2210  147.3310 C   0  0  0  0  0  3  0  0  0  0  0  0
  185.0370  178.1570  145.6890 C   0  0  0  0  0  3  0  0  0  0  0  0
  191.3660  177.7590  146.3030 N   0  0  0  0  0  0  0  0  0  0  0  0
  188.3550  177.1820  144.2680 C   0  0  0  0  0  0  0  0  0  0  0  0
  185.9190  177.7150  144.6850 C   0  0  0  0  0  3  0  0  0  0  0  0
  189.0560  177.5500  146.2940 C   0  0  0  0  0  0  0  0  0  0  0  0
  188.3260  177.1260  142.8290 N   0  0  0  0  0  0  0  0  0  0  0  0
  191.5210  179.2970  143.9970 O   0  0  0  0  0  0  0  0  0  0  0  0
  185.5020  178.4090  146.9990 C   0  0  0  0  0  3  0  0  0  0  0  0
  190.5900  176.2930  142.3410 C   0  0  0  0  0  2  0  0  0  0  0  0
  189.4440  177.2150  145.0810 N   0  0  0  0  0  0  0  0  0  0  0  0
  187.2510  177.5120  145.0420 C   0  0  0  0  0  0  0  0  0  0  0  0
  185.8960  178.7650  140.1940 C   0  0  0  0  0  0  0  0  0  0  0  0
  186.6430  178.3510  137.8330 C   0  0  0  0  0  3  0  0  0  0  0  0
  184.8320  179.4550  139.5940 C   0  0  0  0  0  2  0  0  0  0  0  0
  188.6150  177.0220  137.7180 F   0  0  0  0  0  0  0  0  0  0  0  0
  187.8370  177.5620  139.9750 C   0  0  0  0  0  0  0  0  0  0  0  0
  185.7870  178.8720  138.7480 C   0  0  0  0  0  0  0  0  0  0  0  0
  187.7120  177.6580  138.5040 C   0  0  0  0  0  0  0  0  0  0  0  0
  186.8730  178.1260  140.8850 C   0  0  0  0  0  3  0  0  0  0  0  0
  1  7  1  6  0  0  0
  1 18  1  0  0  0  0
  1 10  1  0  0  0  0
  2 17  1  0  0  0  0
  2 14  2  0  0  0  0
  4  7  1  0  0  0  0
  5  2  1  0  0  0  0
  6  8  1  0  0  0  0
  7 15  2  0  0  0  0
  9 16  1  0  0  0  0
 10  3  2  0  0  0  0
 11 19  2  0  0  0  0
 11 18  1  0  0  0  0
 12 19  1  0  0  0  0
 12  9  2  0  0  0  0
 13  6  2  0  0  0  0
 13  3  1  0  0  0  0
 14 11  1  0  0  0  0
 16  8  2  0  0  0  0
 17  4  1  0  0  0  0
 18 13  1  0  0  0  0
 19  6  1  0  0  0  0
 20 27  1  0  0  0  0
 21 26  2  0  0  0  0
 21 25  1  0  0  0  0
 22 20  1  0  0  0  0
 23 26  1  0  0  0  0
 24  5  1  0  0  0  0
 24 27  2  0  0  0  0
 25 22  1  0  0  0  0
 25 20  2  0  0  0  0
 26 24  1  0  0  0  0
M  END
>  <MODEL>
5

>  <REMARK>
 VINA RESULT:      -8.3      1.749      2.585
  Name = 
  1 active torsions:
  status: ('A' for Active; 'I' for Inactive)
    1  A    between atoms: N_9  and  C_19
                            x       y       z     vdW  Elec       q    Type
                         _______ _______ _______ _____ _____    ______ ____

>  <TORSDO>
F 1

$$$$
=
 OpenBabel11062415453D

 27 32  0  0  1  0  0  0  0  0999 V2000
  188.8810  177.8960  142.6580 C   0  0  1  0  0  3  0  0  0  0  0  0
  185.7430  178.8640  141.4820 C   0  0  0  0  0  0  0  0  0  0  0  0
  190.8510  177.0810  141.6060 C   0  0  0  0  0  3  0  0  0  0  0  0
  186.4930  177.8810  143.6220 C   0  0  0  0  0  2  0  0  0  0  0  0
  184.3230  179.0030  141.3600 N   0  0  0  0  0  2  0  0  0  0  0  0
  189.7390  177.6020  139.2880 C   0  0  0  0  0  0  0  0  0  0  0  0
  187.7050  177.1290  143.1810 C   0  0  0  0  0  0  0  0  0  0  0  0
  190.5680  177.1240  138.2780 C   0  0  0  0  0  3  0  0  0  0  0  0
  188.7390  177.5740  136.7090 C   0  0  0  0  0  3  0  0  0  0  0  0
  190.1580  177.1890  142.9080 N   0  0  0  0  0  0  0  0  0  0  0  0
  187.8620  178.3220  140.2660 C   0  0  0  0  0  0  0  0  0  0  0  0
  187.9120  178.0220  137.7550 C   0  0  0  0  0  3  0  0  0  0  0  0
  189.8960  177.6560  140.6510 C   0  0  0  0  0  0  0  0  0  0  0  0
  186.4480  178.5400  140.4340 N   0  0  0  0  0  0  0  0  0  0  0  0
  187.7150  175.9090  143.2190 O   0  0  0  0  0  0  0  0  0  0  0  0
  190.0550  177.1280  136.9680 C   0  0  0  0  0  3  0  0  0  0  0  0
  186.3450  179.1630  142.8130 C   0  0  0  0  0  2  0  0  0  0  0  0
  188.7910  178.0770  141.2270 N   0  0  0  0  0  0  0  0  0  0  0  0
  188.4500  178.0340  139.0410 C   0  0  0  0  0  0  0  0  0  0  0  0
  182.3240  176.7670  139.3490 C   0  0  0  0  0  0  0  0  0  0  0  0
  182.4710  178.8600  137.9690 C   0  0  0  0  0  3  0  0  0  0  0  0
  181.5520  176.2800  138.2840 C   0  0  0  0  0  2  0  0  0  0  0  0
  183.8090  180.5400  138.9970 F   0  0  0  0  0  0  0  0  0  0  0  0
  183.5240  178.4810  140.2900 C   0  0  0  0  0  0  0  0  0  0  0  0
  182.0470  177.5880  138.1810 C   0  0  0  0  0  0  0  0  0  0  0  0
  183.2550  179.3060  139.0910 C   0  0  0  0  0  0  0  0  0  0  0  0
  183.0550  177.1270  140.4340 C   0  0  0  0  0  3  0  0  0  0  0  0
  1 10  1  6  0  0  0
  1  7  1  0  0  0  0
  2 17  1  0  0  0  0
  3 10  2  0  0  0  0
  5  2  1  0  0  0  0
  6 13  2  0  0  0  0
  7 15  2  0  0  0  0
  7  4  1  0  0  0  0
  8  6  1  0  0  0  0
  9 16  1  0  0  0  0
  9 12  2  0  0  0  0
 11 14  1  0  0  0  0
 11 18  1  0  0  0  0
 12 19  1  0  0  0  0
 13 18  1  0  0  0  0
 13  3  1  0  0  0  0
 14  2  2  0  0  0  0
 16  8  2  0  0  0  0
 17  4  1  0  0  0  0
 18  1  1  0  0  0  0
 19  6  1  0  0  0  0
 19 11  2  0  0  0  0
 20 27  1  0  0  0  0
 21 25  1  0  0  0  0
 21 26  2  0  0  0  0
 22 20  1  0  0  0  0
 23 26  1  0  0  0  0
 24 27  2  0  0  0  0
 24  5  1  0  0  0  0
 25 22  1  0  0  0  0
 25 20  2  0  0  0  0
 26 24  1  0  0  0  0
M  END
>  <MODEL>
6

>  <REMARK>
 VINA RESULT:      -8.2      3.216      6.172
  Name = 
  1 active torsions:
  status: ('A' for Active; 'I' for Inactive)
    1  A    between atoms: N_9  and  C_19
                            x       y       z     vdW  Elec       q    Type
                         _______ _______ _______ _____ _____    ______ ____

>  <TORSDO>
F 1

$$$$
=
 OpenBabel11062415453D

 27 32  0  0  1  0  0  0  0  0999 V2000
  186.4800  177.8190  137.3660 C   0  0  1  0  0  3  0  0  0  0  0  0
  188.8200  178.3400  139.9000 C   0  0  0  0  0  0  0  0  0  0  0  0
  184.1060  177.7020  137.3190 C   0  0  0  0  0  3  0  0  0  0  0  0
  188.9120  177.0800  137.7750 C   0  0  0  0  0  2  0  0  0  0  0  0
  189.9830  178.1970  140.7230 N   0  0  0  0  0  2  0  0  0  0  0  0
  184.0930  178.4850  139.8230 C   0  0  0  0  0  0  0  0  0  0  0  0
  187.4740  176.7220  137.5930 C   0  0  0  0  0  0  0  0  0  0  0  0
  182.7860  178.4370  140.2990 C   0  0  0  0  0  3  0  0  0  0  0  0
  183.7000  178.8310  142.5390 C   0  0  0  0  0  3  0  0  0  0  0  0
  185.3260  177.3620  136.5570 N   0  0  0  0  0  0  0  0  0  0  0  0
  186.3260  178.5500  139.8930 C   0  0  0  0  0  0  0  0  0  0  0  0
  185.0130  178.8440  142.0340 C   0  0  0  0  0  3  0  0  0  0  0  0
  184.6210  178.2610  138.5750 C   0  0  0  0  0  0  0  0  0  0  0  0
  187.6440  178.4190  140.4580 N   0  0  0  0  0  0  0  0  0  0  0  0
  187.1210  175.5560  137.6640 O   0  0  0  0  0  0  0  0  0  0  0  0
  182.5970  178.6280  141.6800 C   0  0  0  0  0  3  0  0  0  0  0  0
  189.0360  178.4500  138.4290 C   0  0  0  0  0  2  0  0  0  0  0  0
  185.9350  178.2970  138.6160 N   0  0  0  0  0  0  0  0  0  0  0  0
  185.1760  178.6790  140.6590 C   0  0  0  0  0  0  0  0  0  0  0  0
  188.9200  177.5430  144.1110 C   0  0  0  0  0  0  0  0  0  0  0  0
  191.3070  176.7620  144.0600 C   0  0  0  0  0  3  0  0  0  0  0  0
  188.9540  177.1270  145.4510 C   0  0  0  0  0  2  0  0  0  0  0  0
  192.3430  177.1280  141.9480 F   0  0  0  0  0  0  0  0  0  0  0  0
  189.9870  177.7750  142.0930 C   0  0  0  0  0  0  0  0  0  0  0  0
  190.1230  176.9660  144.6910 C   0  0  0  0  0  0  0  0  0  0  0  0
  191.2130  177.2040  142.6930 C   0  0  0  0  0  0  0  0  0  0  0  0
  188.7700  177.9790  142.8350 C   0  0  0  0  0  3  0  0  0  0  0  0
  1 10  1  6  0  0  0
  1  7  1  0  0  0  0
  1 18  1  0  0  0  0
  2 14  2  0  0  0  0
  2  5  1  0  0  0  0
  3 13  1  0  0  0  0
  4 17  1  0  0  0  0
  5 24  1  0  0  0  0
  6  8  1  0  0  0  0
  6 19  1  0  0  0  0
  7 15  2  0  0  0  0
  7  4  1  0  0  0  0
  8 16  2  0  0  0  0
 10  3  2  0  0  0  0
 11 14  1  0  0  0  0
 11 19  2  0  0  0  0
 12  9  2  0  0  0  0
 13 18  1  0  0  0  0
 13  6  2  0  0  0  0
 16  9  1  0  0  0  0
 17  2  1  0  0  0  0
 18 11  1  0  0  0  0
 19 12  1  0  0  0  0
 20 25  1  0  0  0  0
 20 22  1  0  0  0  0
 21 25  2  0  0  0  0
 23 26  1  0  0  0  0
 24 26  2  0  0  0  0
 24 27  1  0  0  0  0
 25 22  1  0  0  0  0
 26 21  1  0  0  0  0
 27 20  2  0  0  0  0
M  END
>  <MODEL>
7

>  <REMARK>
 VINA RESULT:      -8.2      3.108      5.997
  Name = 
  1 active torsions:
  status: ('A' for Active; 'I' for Inactive)
    1  A    between atoms: N_9  and  C_19
                            x       y       z     vdW  Elec       q    Type
                         _______ _______ _______ _____ _____    ______ ____

>  <TORSDO>
F 1

$$$$
=
 OpenBabel11062415453D

 27 32  0  0  1  0  0  0  0  0999 V2000
  189.7120  176.1090  136.2920 C   0  0  1  0  0  3  0  0  0  0  0  0
  189.3750  177.6010  139.4260 C   0  0  0  0  0  0  0  0  0  0  0  0
  188.1700  175.4840  134.5940 C   0  0  0  0  0  3  0  0  0  0  0  0
  191.0170  175.9970  138.5090 C   0  0  0  0  0  2  0  0  0  0  0  0
  189.5310  177.8730  140.8240 N   0  0  0  0  0  2  0  0  0  0  0  0
  186.2940  176.7230  135.9460 C   0  0  0  0  0  0  0  0  0  0  0  0
  190.1950  175.3140  137.4650 C   0  0  0  0  0  0  0  0  0  0  0  0
  185.0700  176.4920  135.3250 C   0  0  0  0  0  3  0  0  0  0  0  0
  184.0050  177.5030  137.2880 C   0  0  0  0  0  3  0  0  0  0  0  0
  189.5480  175.2680  135.0830 N   0  0  0  0  0  0  0  0  0  0  0  0
  187.7260  177.2720  137.5730 C   0  0  0  0  0  0  0  0  0  0  0  0
  185.2550  177.6950  137.9050 C   0  0  0  0  0  3  0  0  0  0  0  0
  187.5760  176.3750  135.5980 C   0  0  0  0  0  0  0  0  0  0  0  0
  188.1770  177.5370  138.9150 N   0  0  0  0  0  0  0  0  0  0  0  0
  189.9010  174.1360  137.5940 O   0  0  0  0  0  0  0  0  0  0  0  0
  183.9130  176.9060  136.0100 C   0  0  0  0  0  3  0  0  0  0  0  0
  190.6190  177.4640  138.6160 C   0  0  0  0  0  2  0  0  0  0  0  0
  188.4190  176.6960  136.5560 N   0  0  0  0  0  0  0  0  0  0  0  0
  186.3890  177.3020  137.1970 C   0  0  0  0  0  0  0  0  0  0  0  0
  186.4990  178.3940  142.7140 C   0  0  0  0  0  0  0  0  0  0  0  0
  187.6810  176.5580  143.9540 C   0  0  0  0  0  3  0  0  0  0  0  0
  185.5150  178.2450  143.7030 C   0  0  0  0  0  2  0  0  0  0  0  0
  189.7900  176.0150  142.9910 F   0  0  0  0  0  0  0  0  0  0  0  0
  188.5060  177.7380  141.8180 C   0  0  0  0  0  0  0  0  0  0  0  0
  186.6420  177.4130  143.7780 C   0  0  0  0  0  0  0  0  0  0  0  0
  188.6550  176.7530  142.9120 C   0  0  0  0  0  0  0  0  0  0  0  0
  187.3790  178.6280  141.7090 C   0  0  0  0  0  3  0  0  0  0  0  0
  1 10  1  6  0  0  0
  1 18  1  0  0  0  0
  1  7  1  0  0  0  0
  2  5  1  0  0  0  0
  3 10  2  0  0  0  0
  3 13  1  0  0  0  0
  4 17  1  0  0  0  0
  5 24  1  0  0  0  0
  6 19  1  0  0  0  0
  7 15  2  0  0  0  0
  7  4  1  0  0  0  0
  8  6  1  0  0  0  0
  8 16  2  0  0  0  0
  9 12  2  0  0  0  0
 11 14  1  0  0  0  0
 13  6  2  0  0  0  0
 13 18  1  0  0  0  0
 14  2  2  0  0  0  0
 16  9  1  0  0  0  0
 17  2  1  0  0  0  0
 18 11  1  0  0  0  0
 19 11  2  0  0  0  0
 19 12  1  0  0  0  0
 20 22  1  0  0  0  0
 20 25  1  0  0  0  0
 22 25  1  0  0  0  0
 24 26  2  0  0  0  0
 25 21  2  0  0  0  0
 26 23  1  0  0  0  0
 26 21  1  0  0  0  0
 27 24  1  0  0  0  0
 27 20  2  0  0  0  0
M  END
>  <MODEL>
8

>  <REMARK>
 VINA RESULT:      -8.2      3.512      7.052
  Name = 
  1 active torsions:
  status: ('A' for Active; 'I' for Inactive)
    1  A    between atoms: N_9  and  C_19
                            x       y       z     vdW  Elec       q    Type
                         _______ _______ _______ _____ _____    ______ ____

>  <TORSDO>
F 1

$$$$
=
 OpenBabel11062415453D

 27 32  0  0  1  0  0  0  0  0999 V2000
  187.2870  177.3660  136.8330 C   0  0  1  0  0  3  0  0  0  0  0  0
  188.5660  178.3050  139.9390 C   0  0  0  0  0  0  0  0  0  0  0  0
  185.0870  177.1100  135.9690 C   0  0  0  0  0  3  0  0  0  0  0  0
  189.4240  176.8170  138.1610 C   0  0  0  0  0  2  0  0  0  0  0  0
  189.3620  178.3230  141.1300 N   0  0  0  0  0  2  0  0  0  0  0  0
  184.1740  178.1730  138.1880 C   0  0  0  0  0  0  0  0  0  0  0  0
  188.1490  176.3600  137.5320 C   0  0  0  0  0  0  0  0  0  0  0  0
  182.7840  178.1060  138.1760 C   0  0  0  0  0  3  0  0  0  0  0  0
  182.8370  178.8050  140.5250 C   0  0  0  0  0  3  0  0  0  0  0  0
  186.5030  176.7550  135.7350 N   0  0  0  0  0  0  0  0  0  0  0  0
  186.2360  178.3710  139.0290 C   0  0  0  0  0  0  0  0  0  0  0  0
  184.2440  178.8340  140.5160 C   0  0  0  0  0  3  0  0  0  0  0  0
  185.1150  177.8380  137.2440 C   0  0  0  0  0  0  0  0  0  0  0  0
  187.2680  178.3810  140.0340 N   0  0  0  0  0  0  0  0  0  0  0  0
  187.8080  175.1910  137.6210 O   0  0  0  0  0  0  0  0  0  0  0  0
  182.1140  178.4430  139.3660 C   0  0  0  0  0  3  0  0  0  0  0  0
  189.2900  178.2580  138.6370 C   0  0  0  0  0  2  0  0  0  0  0  0
  186.3280  177.9520  137.7400 N   0  0  0  0  0  0  0  0  0  0  0  0
  184.8860  178.5220  139.3190 C   0  0  0  0  0  0  0  0  0  0  0  0
  187.1850  177.4740  143.8820 C   0  0  0  0  0  0  0  0  0  0  0  0
  189.3820  177.9930  144.9820 C   0  0  0  0  0  3  0  0  0  0  0  0
  186.7410  177.2310  145.1910 C   0  0  0  0  0  2  0  0  0  0  0  0
  191.0470  178.6730  143.4220 F   0  0  0  0  0  0  0  0  0  0  0  0
  188.8830  178.0610  142.4550 C   0  0  0  0  0  0  0  0  0  0  0  0
  188.0780  177.6210  145.0210 C   0  0  0  0  0  0  0  0  0  0  0  0
  189.7820  178.2270  143.6190 C   0  0  0  0  0  0  0  0  0  0  0  0
  187.4990  177.6810  142.5790 C   0  0  0  0  0  3  0  0  0  0  0  0
  1 10  1  6  0  0  0
  1  7  1  0  0  0  0
  1 18  1  0  0  0  0
  2 14  2  0  0  0  0
  2  5  1  0  0  0  0
  3 13  1  0  0  0  0
  4 17  1  0  0  0  0
  5 24  1  0  0  0  0
  6 19  1  0  0  0  0
  7 15  2  0  0  0  0
  7  4  1  0  0  0  0
  8  6  1  0  0  0  0
  8 16  2  0  0  0  0
 10  3  2  0  0  0  0
 11 19  2  0  0  0  0
 11 14  1  0  0  0  0
 12  9  2  0  0  0  0
 13 18  1  0  0  0  0
 13  6  2  0  0  0  0
 16  9  1  0  0  0  0
 17  2  1  0  0  0  0
 18 11  1  0  0  0  0
 19 12  1  0  0  0  0
 20 25  1  0  0  0  0
 20 22  1  0  0  0  0
 21 25  2  0  0  0  0
 23 26  1  0  0  0  0
 24 27  1  0  0  0  0
 24 26  2  0  0  0  0
 25 22  1  0  0  0  0
 26 21  1  0  0  0  0
 27 20  2  0  0  0  0
M  END
>  <MODEL>
9

>  <REMARK>
 VINA RESULT:      -8.1      3.496      6.563
  Name = 
  1 active torsions:
  status: ('A' for Active; 'I' for Inactive)
    1  A    between atoms: N_9  and  C_19
                            x       y       z     vdW  Elec       q    Type
                         _______ _______ _______ _____ _____    ______ ____

>  <TORSDO>
F 1

$$$$
