=
 OpenBabel11062417163D

 26 29  0  0  1  0  0  0  0  0999 V2000
  186.7950  178.2780  142.1070 C   0  0  0  0  0  3  0  0  0  0  0  0
  185.0050  178.8710  140.5440 C   0  0  0  0  0  0  0  0  0  0  0  0
  186.3460  178.5150  140.7960 C   0  0  0  0  0  3  0  0  0  0  0  0
  183.8500  178.8030  144.1770 C   0  0  0  0  0  0  0  0  0  0  0  0
  182.6360  179.0850  144.3590 O   0  0  0  0  0  0  0  0  0  0  0  0
  184.6870  178.3680  146.5840 C   0  0  0  0  0  3  0  0  0  0  0  0
  184.8310  178.4620  145.2030 C   0  0  0  0  0  0  0  0  0  0  0  0
  186.0460  178.2210  144.5820 C   0  0  0  0  0  0  0  0  0  0  0  0
  187.0640  177.7670  146.7090 C   0  0  0  0  0  0  0  0  0  0  0  0
  185.8190  178.0170  147.3380 C   0  0  0  0  0  3  0  0  0  0  0  0
  185.8730  178.4040  143.1430 C   0  0  0  0  0  0  0  0  0  0  0  0
  184.0900  178.9920  141.6100 C   0  0  0  0  0  3  0  0  0  0  0  0
  187.1800  177.8740  145.3120 C   0  0  0  0  0  3  0  0  0  0  0  0
  184.5550  178.7530  142.9010 C   0  0  0  0  0  0  0  0  0  0  0  0
  188.4700  178.3360  148.7040 C   0  0  0  0  0  1  0  0  0  0  0  0
  188.2790  177.4120  147.5100 C   0  0  2  0  0  3  0  0  0  0  0  0
  190.7870  177.9430  144.6890 C   0  0  0  0  0  3  0  0  0  0  0  0
  191.8240  177.0960  145.0940 C   0  0  0  0  0  3  0  0  0  0  0  0
  189.5120  177.3250  146.6620 C   0  0  0  0  0  0  0  0  0  0  0  0
  191.7050  176.3620  146.2770 C   0  0  0  0  0  3  0  0  0  0  0  0
  190.5520  176.4750  147.0580 C   0  0  0  0  0  3  0  0  0  0  0  0
  189.6330  178.0560  145.4690 C   0  0  0  0  0  3  0  0  0  0  0  0
  184.5680  179.1140  139.1370 C   0  0  2  0  0  3  0  0  0  0  0  0
  185.6130  178.8370  138.2550 O   0  0  0  0  0  1  0  0  0  0  0  0
  182.8400  180.3560  138.6780 N   0  0  0  0  0  1  0  0  0  0  0  0
  184.1560  180.4380  138.9800 O   0  0  0  0  0  0  0  0  0  0  0  0
  1 11  1  0  0  0  0
  2  3  1  0  0  0  0
  2 12  2  0  0  0  0
  3  1  2  0  0  0  0
  4  5  2  0  0  0  0
  4  7  1  0  0  0  0
  6 10  1  0  0  0  0
  7  6  2  0  0  0  0
  8  7  1  0  0  0  0
  8 13  2  0  0  0  0
  9 10  2  0  0  0  0
  9 16  1  0  0  0  0
 11  8  1  0  0  0  0
 12 14  1  0  0  0  0
 13  9  1  0  0  0  0
 14 11  2  0  0  0  0
 14  4  1  0  0  0  0
 16 15  1  1  0  0  0
 17 18  2  0  0  0  0
 17 22  1  0  0  0  0
 18 20  1  0  0  0  0
 19 21  1  0  0  0  0
 19 16  1  0  0  0  0
 20 21  2  0  0  0  0
 22 19  2  0  0  0  0
 23 24  1  6  0  0  0
 23  2  1  0  0  0  0
 25 26  1  0  0  0  0
 26 23  1  0  0  0  0
M  END
>  <MODEL>
1

>  <REMARK>
 VINA RESULT:     -10.8      0.000      0.000
  Name = 
  4 active torsions:
  status: ('A' for Active; 'I' for Inactive)
    1  A    between atoms: C_4  and  C_20
    2  A    between atoms: C_8  and  C_17
    3  A    between atoms: C_15  and  C_17
    4  A    between atoms: C_20  and  O_22
                            x       y       z     vdW  Elec       q    Type
                         _______ _______ _______ _____ _____    ______ ____

>  <TORSDO>
F 4

$$$$
=
 OpenBabel11062417163D

 26 29  0  0  1  0  0  0  0  0999 V2000
  187.8860  177.2380  143.7990 C   0  0  0  0  0  3  0  0  0  0  0  0
  188.7870  177.2380  146.0760 C   0  0  0  0  0  0  0  0  0  0  0  0
  188.9360  176.9810  144.6980 C   0  0  0  0  0  3  0  0  0  0  0  0
  185.2080  178.5420  145.8880 C   0  0  0  0  0  0  0  0  0  0  0  0
  184.7070  178.8900  146.9900 O   0  0  0  0  0  0  0  0  0  0  0  0
  183.2840  179.0080  144.2260 C   0  0  0  0  0  3  0  0  0  0  0  0
  184.5640  178.5890  144.5790 C   0  0  0  0  0  0  0  0  0  0  0  0
  185.4590  178.1180  143.6340 C   0  0  0  0  0  0  0  0  0  0  0  0
  183.8370  178.4630  141.8970 C   0  0  0  0  0  0  0  0  0  0  0  0
  182.9240  178.9410  142.8700 C   0  0  0  0  0  3  0  0  0  0  0  0
  186.7000  177.7560  144.3140 C   0  0  0  0  0  0  0  0  0  0  0  0
  187.5760  177.7630  146.5740 C   0  0  0  0  0  3  0  0  0  0  0  0
  185.1210  178.0420  142.2850 C   0  0  0  0  0  3  0  0  0  0  0  0
  186.5490  178.0110  145.6660 C   0  0  0  0  0  0  0  0  0  0  0  0
  184.1340  179.4360  139.6070 C   0  0  0  0  0  1  0  0  0  0  0  0
  183.4510  178.3700  140.4530 C   0  0  2  0  0  3  0  0  0  0  0  0
  179.8430  177.1910  140.1110 C   0  0  0  0  0  3  0  0  0  0  0  0
  179.1920  178.4010  139.8570 C   0  0  0  0  0  3  0  0  0  0  0  0
  181.9650  178.3640  140.2600 C   0  0  0  0  0  0  0  0  0  0  0  0
  179.9240  179.5900  139.8000 C   0  0  0  0  0  3  0  0  0  0  0  0
  181.3070  179.5710  140.0000 C   0  0  0  0  0  3  0  0  0  0  0  0
  181.2260  177.1710  140.3100 C   0  0  0  0  0  3  0  0  0  0  0  0
  189.9260  176.9520  146.9980 C   0  0  2  0  0  3  0  0  0  0  0  0
  189.8340  177.7520  148.1380 O   0  0  0  0  0  1  0  0  0  0  0  0
  192.0490  176.4770  147.0600 N   0  0  0  0  0  1  0  0  0  0  0  0
  191.1410  177.1880  146.3530 O   0  0  0  0  0  0  0  0  0  0  0  0
  1 11  2  0  0  0  0
  1  3  1  0  0  0  0
  2 12  1  0  0  0  0
  2 23  1  0  0  0  0
  3  2  2  0  0  0  0
  4  5  2  0  0  0  0
  6  7  1  0  0  0  0
  7  4  1  0  0  0  0
  8 11  1  0  0  0  0
  8  7  2  0  0  0  0
  9 13  2  0  0  0  0
  9 10  1  0  0  0  0
 10  6  2  0  0  0  0
 11 14  1  0  0  0  0
 13  8  1  0  0  0  0
 14  4  1  0  0  0  0
 14 12  2  0  0  0  0
 16 15  1  6  0  0  0
 16  9  1  0  0  0  0
 17 22  1  0  0  0  0
 18 17  2  0  0  0  0
 19 22  2  0  0  0  0
 19 16  1  0  0  0  0
 20 18  1  0  0  0  0
 20 21  2  0  0  0  0
 21 19  1  0  0  0  0
 23 24  1  1  0  0  0
 26 23  1  0  0  0  0
 26 25  1  0  0  0  0
M  END
>  <MODEL>
2

>  <REMARK>
 VINA RESULT:     -10.7      4.155      8.246
  Name = 
  4 active torsions:
  status: ('A' for Active; 'I' for Inactive)
    1  A    between atoms: C_4  and  C_20
    2  A    between atoms: C_8  and  C_17
    3  A    between atoms: C_15  and  C_17
    4  A    between atoms: C_20  and  O_22
                            x       y       z     vdW  Elec       q    Type
                         _______ _______ _______ _____ _____    ______ ____

>  <TORSDO>
F 4

$$$$
=
 OpenBabel11062417163D

 26 29  0  0  1  0  0  0  0  0999 V2000
  185.0540  178.0170  142.6980 C   0  0  0  0  0  3  0  0  0  0  0  0
  182.9340  178.9580  143.4870 C   0  0  0  0  0  0  0  0  0  0  0  0
  183.7360  178.4390  142.4480 C   0  0  0  0  0  3  0  0  0  0  0  0
  185.5370  178.6210  146.2530 C   0  0  0  0  0  0  0  0  0  0  0  0
  185.1620  179.0070  147.3910 O   0  0  0  0  0  0  0  0  0  0  0  0
  187.9630  177.8440  146.6980 C   0  0  0  0  0  3  0  0  0  0  0  0
  186.8430  178.0710  145.9020 C   0  0  0  0  0  0  0  0  0  0  0  0
  186.8430  177.7730  144.5500 C   0  0  0  0  0  0  0  0  0  0  0  0
  189.1080  176.9890  144.7030 C   0  0  0  0  0  0  0  0  0  0  0  0
  189.1030  177.2990  146.0860 C   0  0  0  0  0  3  0  0  0  0  0  0
  185.5370  178.1260  144.0000 C   0  0  0  0  0  0  0  0  0  0  0  0
  183.4460  179.0590  144.7970 C   0  0  0  0  0  3  0  0  0  0  0  0
  187.9640  177.2330  143.9230 C   0  0  0  0  0  3  0  0  0  0  0  0
  184.7540  178.6350  145.0220 C   0  0  0  0  0  0  0  0  0  0  0  0
  191.6000  176.7480  144.8090 C   0  0  0  0  0  1  0  0  0  0  0  0
  190.3280  176.4260  144.0400 C   0  0  2  0  0  3  0  0  0  0  0  0
  189.4330  177.1190  140.4000 C   0  0  0  0  0  3  0  0  0  0  0  0
  190.6680  177.5420  139.9000 C   0  0  0  0  0  3  0  0  0  0  0  0
  190.4240  176.8230  142.5980 C   0  0  0  0  0  0  0  0  0  0  0  0
  191.7800  177.6030  140.7440 C   0  0  0  0  0  3  0  0  0  0  0  0
  191.6590  177.2430  142.0890 C   0  0  0  0  0  3  0  0  0  0  0  0
  189.3110  176.7580  141.7450 C   0  0  0  0  0  3  0  0  0  0  0  0
  181.5400  179.3950  143.1810 C   0  0  2  0  0  3  0  0  0  0  0  0
  180.6270  178.6370  143.9160 O   0  0  0  0  0  1  0  0  0  0  0  0
  180.3580  180.2090  141.5440 N   0  0  0  0  0  1  0  0  0  0  0  0
  181.2780  179.2550  141.8170 O   0  0  0  0  0  0  0  0  0  0  0  0
  1 11  1  0  0  0  0
  2 12  2  0  0  0  0
  3  1  2  0  0  0  0
  3  2  1  0  0  0  0
  4  5  2  0  0  0  0
  7  4  1  0  0  0  0
  7  6  2  0  0  0  0
  8  7  1  0  0  0  0
  9 10  2  0  0  0  0
 10  6  1  0  0  0  0
 11  8  1  0  0  0  0
 11 14  2  0  0  0  0
 12 14  1  0  0  0  0
 13  8  2  0  0  0  0
 13  9  1  0  0  0  0
 14  4  1  0  0  0  0
 16  9  1  0  0  0  0
 16 15  1  1  0  0  0
 17 22  1  0  0  0  0
 18 17  2  0  0  0  0
 18 20  1  0  0  0  0
 19 16  1  0  0  0  0
 20 21  2  0  0  0  0
 21 19  1  0  0  0  0
 22 19  2  0  0  0  0
 23  2  1  0  0  0  0
 23 24  1  1  0  0  0
 25 26  1  0  0  0  0
 26 23  1  0  0  0  0
M  END
>  <MODEL>
3

>  <REMARK>
 VINA RESULT:     -10.7      2.289      3.955
  Name = 
  4 active torsions:
  status: ('A' for Active; 'I' for Inactive)
    1  A    between atoms: C_4  and  C_20
    2  A    between atoms: C_8  and  C_17
    3  A    between atoms: C_15  and  C_17
    4  A    between atoms: C_20  and  O_22
                            x       y       z     vdW  Elec       q    Type
                         _______ _______ _______ _____ _____    ______ ____

>  <TORSDO>
F 4

$$$$
=
 OpenBabel11062417163D

 26 29  0  0  1  0  0  0  0  0999 V2000
  187.4400  177.5590  143.0150 C   0  0  0  0  0  3  0  0  0  0  0  0
  188.9830  177.4650  144.9150 C   0  0  0  0  0  0  0  0  0  0  0  0
  188.7210  177.3090  143.5370 C   0  0  0  0  0  3  0  0  0  0  0  0
  185.4640  178.5490  145.9050 C   0  0  0  0  0  0  0  0  0  0  0  0
  185.3040  178.7920  147.1300 O   0  0  0  0  0  0  0  0  0  0  0  0
  183.1120  179.0030  144.9330 C   0  0  0  0  0  3  0  0  0  0  0  0
  184.4550  178.6430  144.8550 C   0  0  0  0  0  0  0  0  0  0  0  0
  185.0420  178.2930  143.6510 C   0  0  0  0  0  0  0  0  0  0  0  0
  182.9600  178.6490  142.5090 C   0  0  0  0  0  0  0  0  0  0  0  0
  182.3640  179.0030  143.7450 C   0  0  0  0  0  3  0  0  0  0  0  0
  186.4440  177.9650  143.9000 C   0  0  0  0  0  0  0  0  0  0  0  0
  187.9580  177.8780  145.7910 C   0  0  0  0  0  3  0  0  0  0  0  0
  184.3180  178.2840  142.4620 C   0  0  0  0  0  3  0  0  0  0  0  0
  186.6970  178.1200  145.2520 C   0  0  0  0  0  0  0  0  0  0  0  0
  180.8130  177.9480  141.4230 C   0  0  0  0  0  1  0  0  0  0  0  0
  182.1620  178.6270  141.2410 C   0  0  2  0  0  3  0  0  0  0  0  0
  184.5830  178.2520  138.3210 C   0  0  0  0  0  3  0  0  0  0  0  0
  184.3250  176.9350  137.9310 C   0  0  0  0  0  3  0  0  0  0  0  0
  182.9350  178.0500  140.0930 C   0  0  0  0  0  0  0  0  0  0  0  0
  183.3720  176.1770  138.6160 C   0  0  0  0  0  3  0  0  0  0  0  0
  182.6780  176.7340  139.6940 C   0  0  0  0  0  3  0  0  0  0  0  0
  183.8890  178.8100  139.3980 C   0  0  0  0  0  3  0  0  0  0  0  0
  190.3580  177.1900  145.4300 C   0  0  2  0  0  3  0  0  0  0  0  0
  191.0270  176.3180  144.5710 O   0  0  0  0  0  1  0  0  0  0  0  0
  191.5480  176.7530  147.1990 N   0  0  0  0  0  1  0  0  0  0  0  0
  190.2920  176.6350  146.7090 O   0  0  0  0  0  0  0  0  0  0  0  0
  1  3  2  0  0  0  0
  1 11  1  0  0  0  0
  2 23  1  0  0  0  0
  2 12  2  0  0  0  0
  3  2  1  0  0  0  0
  4  5  2  0  0  0  0
  7  6  1  0  0  0  0
  7  4  1  0  0  0  0
  8 11  1  0  0  0  0
  8  7  2  0  0  0  0
  9 10  1  0  0  0  0
 10  6  2  0  0  0  0
 11 14  2  0  0  0  0
 13  9  2  0  0  0  0
 13  8  1  0  0  0  0
 14 12  1  0  0  0  0
 14  4  1  0  0  0  0
 16 15  1  1  0  0  0
 16  9  1  0  0  0  0
 17 22  1  0  0  0  0
 18 17  2  0  0  0  0
 18 20  1  0  0  0  0
 19 16  1  0  0  0  0
 20 21  2  0  0  0  0
 21 19  1  0  0  0  0
 22 19  2  0  0  0  0
 23 24  1  6  0  0  0
 23 26  1  0  0  0  0
 26 25  1  0  0  0  0
M  END
>  <MODEL>
4

>  <REMARK>
 VINA RESULT:     -10.4      3.873      7.360
  Name = 
  4 active torsions:
  status: ('A' for Active; 'I' for Inactive)
    1  A    between atoms: C_4  and  C_20
    2  A    between atoms: C_8  and  C_17
    3  A    between atoms: C_15  and  C_17
    4  A    between atoms: C_20  and  O_22
                            x       y       z     vdW  Elec       q    Type
                         _______ _______ _______ _____ _____    ______ ____

>  <TORSDO>
F 4

$$$$
=
 OpenBabel11062417163D

 26 29  0  0  1  0  0  0  0  0999 V2000
  186.1380  178.3570  141.4940 C   0  0  0  0  0  3  0  0  0  0  0  0
  184.0030  179.0450  140.5090 C   0  0  0  0  0  0  0  0  0  0  0  0
  185.3570  178.6730  140.3690 C   0  0  0  0  0  3  0  0  0  0  0  0
  183.8700  178.7650  144.3100 C   0  0  0  0  0  0  0  0  0  0  0  0
  182.7550  179.0380  144.8280 O   0  0  0  0  0  0  0  0  0  0  0  0
  185.3180  178.1860  146.3720 C   0  0  0  0  0  3  0  0  0  0  0  0
  185.0850  178.3610  145.0110 C   0  0  0  0  0  0  0  0  0  0  0  0
  186.0830  178.1560  144.0730 C   0  0  0  0  0  0  0  0  0  0  0  0
  187.6290  177.5740  145.8160 C   0  0  0  0  0  0  0  0  0  0  0  0
  186.6040  177.7900  146.7720 C   0  0  0  0  0  3  0  0  0  0  0  0
  185.5320  178.4240  142.7470 C   0  0  0  0  0  0  0  0  0  0  0  0
  183.4120  179.1050  141.7880 C   0  0  0  0  0  3  0  0  0  0  0  0
  187.3660  177.7640  144.4480 C   0  0  0  0  0  3  0  0  0  0  0  0
  184.2040  178.7890  142.8900 C   0  0  0  0  0  0  0  0  0  0  0  0
  189.4100  177.7960  147.5660 C   0  0  0  0  0  1  0  0  0  0  0  0
  189.0090  177.1710  146.2370 C   0  0  2  0  0  3  0  0  0  0  0  0
  191.3520  178.9330  143.8030 C   0  0  0  0  0  3  0  0  0  0  0  0
  191.9050  177.8400  143.1290 C   0  0  0  0  0  3  0  0  0  0  0  0
  190.0260  177.4230  145.1660 C   0  0  0  0  0  0  0  0  0  0  0  0
  191.5170  176.5410  143.4680 C   0  0  0  0  0  3  0  0  0  0  0  0
  190.5790  176.3330  144.4830 C   0  0  0  0  0  3  0  0  0  0  0  0
  190.4140  178.7260  144.8170 C   0  0  0  0  0  3  0  0  0  0  0  0
  183.2070  179.3720  139.2890 C   0  0  2  0  0  3  0  0  0  0  0  0
  183.5090  180.6620  138.8510 O   0  0  0  0  0  1  0  0  0  0  0  0
  181.2690  180.2320  138.7990 N   0  0  0  0  0  1  0  0  0  0  0  0
  181.8420  179.2730  139.5620 O   0  0  0  0  0  0  0  0  0  0  0  0
  1 11  1  0  0  0  0
  2 12  2  0  0  0  0
  3  2  1  0  0  0  0
  3  1  2  0  0  0  0
  4  5  2  0  0  0  0
  4  7  1  0  0  0  0
  6 10  1  0  0  0  0
  7  6  2  0  0  0  0
  8 13  2  0  0  0  0
  8  7  1  0  0  0  0
  9 16  1  0  0  0  0
  9 10  2  0  0  0  0
 11 14  2  0  0  0  0
 11  8  1  0  0  0  0
 12 14  1  0  0  0  0
 13  9  1  0  0  0  0
 14  4  1  0  0  0  0
 16 15  1  1  0  0  0
 17 22  1  0  0  0  0
 18 20  1  0  0  0  0
 18 17  2  0  0  0  0
 19 16  1  0  0  0  0
 20 21  2  0  0  0  0
 21 19  1  0  0  0  0
 22 19  2  0  0  0  0
 23 24  1  1  0  0  0
 23 26  1  0  0  0  0
 23  2  1  0  0  0  0
 25 26  1  0  0  0  0
M  END
>  <MODEL>
5

>  <REMARK>
 VINA RESULT:     -10.4      1.151      1.485
  Name = 
  4 active torsions:
  status: ('A' for Active; 'I' for Inactive)
    1  A    between atoms: C_4  and  C_20
    2  A    between atoms: C_8  and  C_17
    3  A    between atoms: C_15  and  C_17
    4  A    between atoms: C_20  and  O_22
                            x       y       z     vdW  Elec       q    Type
                         _______ _______ _______ _____ _____    ______ ____

>  <TORSDO>
F 4

$$$$
=
 OpenBabel11062417163D

 26 29  0  0  1  0  0  0  0  0999 V2000
  185.5110  178.4100  146.5630 C   0  0  0  0  0  3  0  0  0  0  0  0
  187.8820  177.8170  146.7300 C   0  0  0  0  0  0  0  0  0  0  0  0
  186.6610  178.1770  147.3380 C   0  0  0  0  0  3  0  0  0  0  0  0
  186.6040  177.8580  143.1370 C   0  0  0  0  0  0  0  0  0  0  0  0
  187.4610  177.5690  142.2610 O   0  0  0  0  0  0  0  0  0  0  0  0
  184.4830  178.2920  141.7230 C   0  0  0  0  0  3  0  0  0  0  0  0
  185.2020  178.1980  142.9120 C   0  0  0  0  0  0  0  0  0  0  0  0
  184.6100  178.4460  144.1390 C   0  0  0  0  0  0  0  0  0  0  0  0
  182.5140  178.8990  143.0570 C   0  0  0  0  0  0  0  0  0  0  0  0
  183.1270  178.6470  141.8040 C   0  0  0  0  0  3  0  0  0  0  0  0
  185.6180  178.2720  145.1810 C   0  0  0  0  0  0  0  0  0  0  0  0
  187.9650  177.6830  145.3280 C   0  0  0  0  0  3  0  0  0  0  0  0
  183.2670  178.8010  144.2410 C   0  0  0  0  0  3  0  0  0  0  0  0
  186.8140  177.9190  144.5800 C   0  0  0  0  0  0  0  0  0  0  0  0
  180.3650  178.6280  144.3170 C   0  0  0  0  0  1  0  0  0  0  0  0
  181.0730  179.2980  143.1480 C   0  0  2  0  0  3  0  0  0  0  0  0
  179.3890  179.9490  139.7920 C   0  0  0  0  0  3  0  0  0  0  0  0
  178.9440  178.6650  139.4650 C   0  0  0  0  0  3  0  0  0  0  0  0
  180.3440  179.0940  141.8550 C   0  0  0  0  0  0  0  0  0  0  0  0
  179.1930  177.5970  140.3320 C   0  0  0  0  0  3  0  0  0  0  0  0
  179.8900  177.8120  141.5240 C   0  0  0  0  0  3  0  0  0  0  0  0
  180.0860  180.1650  140.9840 C   0  0  0  0  0  3  0  0  0  0  0  0
  189.0800  177.5780  147.5880 C   0  0  2  0  0  3  0  0  0  0  0  0
  189.2370  178.6250  148.4970 O   0  0  0  0  0  1  0  0  0  0  0  0
  190.9140  176.4320  147.3390 N   0  0  0  0  0  1  0  0  0  0  0  0
  190.2250  177.4630  146.7980 O   0  0  0  0  0  0  0  0  0  0  0  0
  1  3  1  0  0  0  0
  2  3  2  0  0  0  0
  2 23  1  0  0  0  0
  4 14  1  0  0  0  0
  5  4  2  0  0  0  0
  6 10  2  0  0  0  0
  6  7  1  0  0  0  0
  7  4  1  0  0  0  0
  7  8  2  0  0  0  0
  8 13  1  0  0  0  0
  8 11  1  0  0  0  0
  9 16  1  0  0  0  0
  9 13  2  0  0  0  0
 10  9  1  0  0  0  0
 11  1  2  0  0  0  0
 12  2  1  0  0  0  0
 14 11  1  0  0  0  0
 14 12  2  0  0  0  0
 16 15  1  1  0  0  0
 17 22  1  0  0  0  0
 18 17  2  0  0  0  0
 18 20  1  0  0  0  0
 19 16  1  0  0  0  0
 20 21  2  0  0  0  0
 21 19  1  0  0  0  0
 22 19  2  0  0  0  0
 23 24  1  1  0  0  0
 26 25  1  0  0  0  0
 26 23  1  0  0  0  0
M  END
>  <MODEL>
6

>  <REMARK>
 VINA RESULT:     -10.3      4.264      8.492
  Name = 
  4 active torsions:
  status: ('A' for Active; 'I' for Inactive)
    1  A    between atoms: C_4  and  C_20
    2  A    between atoms: C_8  and  C_17
    3  A    between atoms: C_15  and  C_17
    4  A    between atoms: C_20  and  O_22
                            x       y       z     vdW  Elec       q    Type
                         _______ _______ _______ _____ _____    ______ ____

>  <TORSDO>
F 4

$$$$
=
 OpenBabel11062417163D

 26 29  0  0  1  0  0  0  0  0999 V2000
  187.1460  177.5750  143.0370 C   0  0  0  0  0  3  0  0  0  0  0  0
  188.4510  177.3850  145.1020 C   0  0  0  0  0  0  0  0  0  0  0  0
  188.3530  177.2880  143.6980 C   0  0  0  0  0  3  0  0  0  0  0  0
  184.8470  178.4730  145.7100 C   0  0  0  0  0  0  0  0  0  0  0  0
  184.5430  178.6680  146.9160 O   0  0  0  0  0  0  0  0  0  0  0  0
  182.6310  178.9950  144.4840 C   0  0  0  0  0  3  0  0  0  0  0  0
  183.9710  178.6210  144.5520 C   0  0  0  0  0  0  0  0  0  0  0  0
  184.6950  178.3130  143.4130 C   0  0  0  0  0  0  0  0  0  0  0  0
  182.7670  178.7400  142.0470 C   0  0  0  0  0  0  0  0  0  0  0  0
  182.0300  179.0520  143.2160 C   0  0  0  0  0  3  0  0  0  0  0  0
  186.0550  177.9580  143.8130 C   0  0  0  0  0  0  0  0  0  0  0  0
  187.3310  177.7750  145.8660 C   0  0  0  0  0  3  0  0  0  0  0  0
  184.1180  178.3610  142.1460 C   0  0  0  0  0  3  0  0  0  0  0  0
  186.1450  178.0550  145.1910 C   0  0  0  0  0  0  0  0  0  0  0  0
  181.0150  179.8160  140.6140 C   0  0  0  0  0  1  0  0  0  0  0  0
  182.1260  178.7800  140.6930 C   0  0  2  0  0  3  0  0  0  0  0  0
  182.0440  175.3370  139.0610 C   0  0  0  0  0  3  0  0  0  0  0  0
  180.7520  174.9180  139.3900 C   0  0  0  0  0  3  0  0  0  0  0  0
  181.6690  177.4260  140.2410 C   0  0  0  0  0  0  0  0  0  0  0  0
  179.9170  175.7520  140.1400 C   0  0  0  0  0  3  0  0  0  0  0  0
  180.3750  177.0030  140.5630 C   0  0  0  0  0  3  0  0  0  0  0  0
  182.5020  176.5880  139.4830 C   0  0  0  0  0  3  0  0  0  0  0  0
  189.7510  177.0730  145.7650 C   0  0  2  0  0  3  0  0  0  0  0  0
  189.7150  177.4680  147.1030 O   0  0  0  0  0  1  0  0  0  0  0  0
  191.6900  176.7470  144.8320 N   0  0  0  0  0  1  0  0  0  0  0  0
  190.7970  177.7240  145.1090 O   0  0  0  0  0  0  0  0  0  0  0  0
  1  3  2  0  0  0  0
  1 11  1  0  0  0  0
  2 23  1  0  0  0  0
  2 12  2  0  0  0  0
  3  2  1  0  0  0  0
  4  5  2  0  0  0  0
  6  7  1  0  0  0  0
  7  4  1  0  0  0  0
  8 11  1  0  0  0  0
  8  7  2  0  0  0  0
  9 13  2  0  0  0  0
  9 10  1  0  0  0  0
 10  6  2  0  0  0  0
 11 14  2  0  0  0  0
 13  8  1  0  0  0  0
 14  4  1  0  0  0  0
 14 12  1  0  0  0  0
 16 15  1  1  0  0  0
 16  9  1  0  0  0  0
 17 18  2  0  0  0  0
 17 22  1  0  0  0  0
 18 20  1  0  0  0  0
 19 21  1  0  0  0  0
 19 16  1  0  0  0  0
 20 21  2  0  0  0  0
 22 19  2  0  0  0  0
 23 24  1  1  0  0  0
 25 26  1  0  0  0  0
 26 23  1  0  0  0  0
M  END
>  <MODEL>
7

>  <REMARK>
 VINA RESULT:     -10.2      4.053      7.842
  Name = 
  4 active torsions:
  status: ('A' for Active; 'I' for Inactive)
    1  A    between atoms: C_4  and  C_20
    2  A    between atoms: C_8  and  C_17
    3  A    between atoms: C_15  and  C_17
    4  A    between atoms: C_20  and  O_22
                            x       y       z     vdW  Elec       q    Type
                         _______ _______ _______ _____ _____    ______ ____

>  <TORSDO>
F 4

$$$$
=
 OpenBabel11062417163D

 26 29  0  0  1  0  0  0  0  0999 V2000
  189.2390  177.1940  141.5270 C   0  0  0  0  0  3  0  0  0  0  0  0
  189.4090  177.6140  139.1200 C   0  0  0  0  0  0  0  0  0  0  0  0
  189.9550  177.1130  140.3200 C   0  0  0  0  0  3  0  0  0  0  0  0
  186.1170  178.8260  140.6150 C   0  0  0  0  0  0  0  0  0  0  0  0
  185.3230  179.3620  139.7970 O   0  0  0  0  0  0  0  0  0  0  0  0
  184.8100  178.9730  142.8400 C   0  0  0  0  0  3  0  0  0  0  0  0
  185.9000  178.6290  142.0450 C   0  0  0  0  0  0  0  0  0  0  0  0
  187.0150  178.0030  142.5740 C   0  0  0  0  0  0  0  0  0  0  0  0
  186.0120  178.0170  144.7560 C   0  0  0  0  0  0  0  0  0  0  0  0
  184.8740  178.6610  144.2080 C   0  0  0  0  0  3  0  0  0  0  0  0
  187.9770  177.7830  141.4960 C   0  0  0  0  0  0  0  0  0  0  0  0
  188.1290  178.2060  139.1140 C   0  0  0  0  0  3  0  0  0  0  0  0
  187.1000  177.6870  143.9280 C   0  0  0  0  0  3  0  0  0  0  0  0
  187.4370  178.2770  140.3210 C   0  0  0  0  0  0  0  0  0  0  0  0
  185.1920  178.5980  147.0520 C   0  0  0  0  0  1  0  0  0  0  0  0
  186.0950  177.7000  146.2180 C   0  0  2  0  0  3  0  0  0  0  0  0
  189.8530  177.1230  146.4690 C   0  0  0  0  0  3  0  0  0  0  0  0
  190.1250  177.6850  147.7190 C   0  0  0  0  0  3  0  0  0  0  0  0
  187.5070  177.6980  146.7190 C   0  0  0  0  0  0  0  0  0  0  0  0
  189.0910  178.2500  148.4710 C   0  0  0  0  0  3  0  0  0  0  0  0
  187.7850  178.2540  147.9730 C   0  0  0  0  0  3  0  0  0  0  0  0
  188.5480  177.1260  145.9700 C   0  0  0  0  0  3  0  0  0  0  0  0
  190.2020  177.5080  137.8590 C   0  0  2  0  0  3  0  0  0  0  0  0
  189.3630  177.1910  136.7900 O   0  0  0  0  0  1  0  0  0  0  0  0
  191.0680  175.7680  136.8790 N   0  0  0  0  0  1  0  0  0  0  0  0
  191.1890  176.5300  137.9900 O   0  0  0  0  0  0  0  0  0  0  0  0
  2  3  1  0  0  0  0
  3  1  2  0  0  0  0
  4  7  1  0  0  0  0
  5  4  2  0  0  0  0
  6 10  1  0  0  0  0
  7  8  1  0  0  0  0
  7  6  2  0  0  0  0
  8 13  2  0  0  0  0
  9 16  1  0  0  0  0
 10  9  2  0  0  0  0
 11  1  1  0  0  0  0
 11  8  1  0  0  0  0
 12  2  2  0  0  0  0
 12 14  1  0  0  0  0
 13  9  1  0  0  0  0
 14  4  1  0  0  0  0
 14 11  2  0  0  0  0
 16 19  1  0  0  0  0
 16 15  1  1  0  0  0
 17 18  1  0  0  0  0
 18 20  2  0  0  0  0
 19 21  2  0  0  0  0
 21 20  1  0  0  0  0
 22 17  2  0  0  0  0
 22 19  1  0  0  0  0
 23 24  1  6  0  0  0
 23 26  1  0  0  0  0
 23  2  1  0  0  0  0
 25 26  1  0  0  0  0
M  END
>  <MODEL>
8

>  <REMARK>
 VINA RESULT:     -10.0      2.977      4.238
  Name = 
  4 active torsions:
  status: ('A' for Active; 'I' for Inactive)
    1  A    between atoms: C_4  and  C_20
    2  A    between atoms: C_8  and  C_17
    3  A    between atoms: C_15  and  C_17
    4  A    between atoms: C_20  and  O_22
                            x       y       z     vdW  Elec       q    Type
                         _______ _______ _______ _____ _____    ______ ____

>  <TORSDO>
F 4

$$$$
=
 OpenBabel11062417163D

 26 29  0  0  1  0  0  0  0  0999 V2000
  187.6730  177.4230  146.4820 C   0  0  0  0  0  3  0  0  0  0  0  0
  190.0340  176.8290  146.7510 C   0  0  0  0  0  0  0  0  0  0  0  0
  188.7460  177.0170  147.2950 C   0  0  0  0  0  3  0  0  0  0  0  0
  189.1240  177.7410  143.1620 C   0  0  0  0  0  0  0  0  0  0  0  0
  190.0750  177.6840  142.3380 O   0  0  0  0  0  0  0  0  0  0  0  0
  187.1440  178.4910  141.6780 C   0  0  0  0  0  3  0  0  0  0  0  0
  187.7420  178.1140  142.8780 C   0  0  0  0  0  0  0  0  0  0  0  0
  187.0210  178.0470  144.0580 C   0  0  0  0  0  0  0  0  0  0  0  0
  185.0300  178.7330  142.9020 C   0  0  0  0  0  0  0  0  0  0  0  0
  185.7750  178.8030  141.6990 C   0  0  0  0  0  3  0  0  0  0  0  0
  187.9240  177.6300  145.1280 C   0  0  0  0  0  0  0  0  0  0  0  0
  190.2630  177.0450  145.3760 C   0  0  0  0  0  3  0  0  0  0  0  0
  185.6630  178.3540  144.1000 C   0  0  0  0  0  3  0  0  0  0  0  0
  189.1860  177.4470  144.5890 C   0  0  0  0  0  0  0  0  0  0  0  0
  182.9610  178.8640  144.3090 C   0  0  0  0  0  1  0  0  0  0  0  0
  183.5740  179.0840  142.9340 C   0  0  2  0  0  3  0  0  0  0  0  0
  182.6830  176.9060  139.9360 C   0  0  0  0  0  3  0  0  0  0  0  0
  181.3110  177.1520  139.8280 C   0  0  0  0  0  3  0  0  0  0  0  0
  182.7990  178.3920  141.8530 C   0  0  0  0  0  0  0  0  0  0  0  0
  180.6840  178.0190  140.7270 C   0  0  0  0  0  3  0  0  0  0  0  0
  181.4270  178.6380  141.7360 C   0  0  0  0  0  3  0  0  0  0  0  0
  183.4260  177.5250  140.9440 C   0  0  0  0  0  3  0  0  0  0  0  0
  191.1470  176.3960  147.6470 C   0  0  2  0  0  3  0  0  0  0  0  0
  191.7500  177.5090  148.2340 O   0  0  0  0  0  1  0  0  0  0  0  0
  193.1810  175.6280  147.7300 N   0  0  0  0  0  1  0  0  0  0  0  0
  192.0960  175.6710  146.9240 O   0  0  0  0  0  0  0  0  0  0  0  0
  1  3  1  0  0  0  0
  2  3  2  0  0  0  0
  2 23  1  0  0  0  0
  4 14  1  0  0  0  0
  5  4  2  0  0  0  0
  6 10  2  0  0  0  0
  6  7  1  0  0  0  0
  7  4  1  0  0  0  0
  7  8  2  0  0  0  0
  8 13  1  0  0  0  0
  8 11  1  0  0  0  0
  9 16  1  0  0  0  0
  9 13  2  0  0  0  0
 10  9  1  0  0  0  0
 11  1  2  0  0  0  0
 12  2  1  0  0  0  0
 14 11  1  0  0  0  0
 14 12  2  0  0  0  0
 16 15  1  1  0  0  0
 17 22  1  0  0  0  0
 18 17  2  0  0  0  0
 18 20  1  0  0  0  0
 19 16  1  0  0  0  0
 20 21  2  0  0  0  0
 21 19  1  0  0  0  0
 22 19  2  0  0  0  0
 23 24  1  6  0  0  0
 26 23  1  0  0  0  0
 26 25  1  0  0  0  0
M  END
>  <MODEL>
9

>  <REMARK>
 VINA RESULT:      -9.9      4.489      8.246
  Name = 
  4 active torsions:
  status: ('A' for Active; 'I' for Inactive)
    1  A    between atoms: C_4  and  C_20
    2  A    between atoms: C_8  and  C_17
    3  A    between atoms: C_15  and  C_17
    4  A    between atoms: C_20  and  O_22
                            x       y       z     vdW  Elec       q    Type
                         _______ _______ _______ _____ _____    ______ ____

>  <TORSDO>
F 4

$$$$
