=
 OpenBabel11062414493D

 33 38  0  0  1  0  0  0  0  0999 V2000
  179.3460  179.4580  141.4910 C   0  0  0  0  0  3  0  0  0  0  0  0
  179.8310  175.8960  140.6520 C   0  0  0  0  0  0  0  0  0  0  0  0
  181.0010  179.3340  139.7080 C   0  0  0  0  0  0  0  0  0  0  0  0
  184.2240  177.3970  134.5940 O   0  0  0  0  0  1  0  0  0  0  0  0
  180.2270  180.0760  140.6130 C   0  0  0  0  0  3  0  0  0  0  0  0
  181.6660  177.0450  138.8490 C   0  0  0  0  0  0  0  0  0  0  0  0
  181.5040  175.6570  138.9360 C   0  0  0  0  0  3  0  0  0  0  0  0
  183.3530  179.6880  138.9480 C   0  0  0  0  0  0  0  0  0  0  0  0
  180.7910  177.7170  136.1960 C   0  0  0  0  0  1  0  0  0  0  0  0
  182.2440  178.0410  136.5120 C   0  0  2  0  0  3  0  0  0  0  0  0
  185.7200  176.9670  137.9740 C   0  0  0  0  0  2  0  0  0  0  0  0
  183.0270  176.7350  136.6090 C   0  0  2  0  0  3  0  0  0  0  0  0
  185.5450  177.5540  136.5890 C   0  0  0  0  0  2  0  0  0  0  0  0
  180.5940  175.0890  139.8180 C   0  0  0  0  0  3  0  0  0  0  0  0
  182.7190  177.5500  137.8830 C   0  0  2  0  0  0  0  0  0  0  0  0
  183.7580  178.4000  138.4700 N   0  0  0  0  0  0  0  0  0  0  0  0
  180.8940  177.9030  139.7000 C   0  0  0  0  0  0  0  0  0  0  0  0
  178.9310  175.2990  141.5280 O   0  0  0  0  0  1  0  0  0  0  0  0
  184.3850  176.8700  135.8780 C   0  0  2  0  0  3  0  0  0  0  0  0
  179.2190  178.0770  141.4850 C   0  0  0  0  0  3  0  0  0  0  0  0
  181.9170  180.0930  138.7730 C   0  0  2  0  0  3  0  0  0  0  0  0
  179.9760  177.2920  140.6100 C   0  0  0  0  0  0  0  0  0  0  0  0
  184.9890  177.8160  139.0040 C   0  0  0  0  0  2  0  0  0  0  0  0
  184.1620  180.4220  139.5780 O   0  0  0  0  0  0  0  0  0  0  0  0
  182.8240  182.3450  138.5420 O   0  0  0  0  0  1  0  0  0  0  0  0
  181.6370  181.6050  138.6150 C   0  0  1  0  0  3  0  0  0  0  0  0
  179.2210  181.9630  137.9910 C   0  0  0  0  0  1  0  0  0  0  0  0
  181.0180  183.3610  136.9310 C   0  0  0  0  0  2  0  0  0  0  0  0
  180.0220  181.2940  135.1080 C   0  0  0  0  0  2  0  0  0  0  0  0
  180.4560  182.6630  134.5970 C   0  0  0  0  0  2  0  0  0  0  0  0
  180.8140  180.9240  136.3620 C   0  0  0  0  0  2  0  0  0  0  0  0
  180.2230  183.7130  135.6750 C   0  0  0  0  0  2  0  0  0  0  0  0
  180.6610  181.9690  137.4800 C   0  0  0  0  0  0  0  0  0  0  0  0
  2 18  1  0  0  0  0
  3  5  1  0  0  0  0
  4 19  1  0  0  0  0
  5  1  2  0  0  0  0
  6  7  2  0  0  0  0
  6 17  1  0  0  0  0
  7 14  1  0  0  0  0
  8 24  2  0  0  0  0
 10  9  1  1  0  0  0
 10 12  1  0  0  0  0
 10 15  1  0  0  0  0
 11 23  1  0  0  0  0
 12 15  1  0  0  0  0
 13 11  1  0  0  0  0
 14  2  2  0  0  0  0
 15 16  1  0  0  0  0
 15  6  1  0  0  0  0
 16  8  1  0  0  0  0
 16 23  1  0  0  0  0
 17  3  2  0  0  0  0
 17 22  1  0  0  0  0
 19 13  1  0  0  0  0
 19 12  1  0  0  0  0
 20  1  1  0  0  0  0
 21  8  1  0  0  0  0
 21  3  1  0  0  0  0
 22  2  1  0  0  0  0
 22 20  2  0  0  0  0
 25 26  1  0  0  0  0
 26 21  1  0  0  0  0
 28 33  1  0  0  0  0
 29 31  1  0  0  0  0
 30 29  1  0  0  0  0
 30 32  1  0  0  0  0
 31 33  1  0  0  0  0
 32 28  1  0  0  0  0
 33 27  1  0  0  0  0
 33 26  1  0  0  0  0
M  END
>  <MODEL>
1

>  <REMARK>
 VINA RESULT:      -6.1      0.000      0.000
  Name = 
  2 active torsions:
  status: ('A' for Active; 'I' for Inactive)
    1  A    between atoms: C_3  and  C_27
    2  A    between atoms: C_3  and  C_33
                            x       y       z     vdW  Elec       q    Type
                         _______ _______ _______ _____ _____    ______ ____

>  <TORSDO>
F 2

$$$$
=
 OpenBabel11062414493D

 33 38  0  0  1  0  0  0  0  0999 V2000
  184.0640  179.0030  142.4310 C   0  0  0  0  0  3  0  0  0  0  0  0
  185.2600  178.3740  145.8670 C   0  0  0  0  0  0  0  0  0  0  0  0
  186.4050  178.3420  142.2940 C   0  0  0  0  0  0  0  0  0  0  0  0
  191.9760  175.5770  143.5620 O   0  0  0  0  0  1  0  0  0  0  0  0
  185.2070  178.7440  141.6850 C   0  0  0  0  0  3  0  0  0  0  0  0
  187.6380  177.8500  144.4520 C   0  0  0  0  0  0  0  0  0  0  0  0
  187.5920  177.7740  145.8490 C   0  0  0  0  0  3  0  0  0  0  0  0
  188.7640  178.9390  141.7330 C   0  0  0  0  0  0  0  0  0  0  0  0
  188.1960  175.1650  143.5930 C   0  0  0  0  0  1  0  0  0  0  0  0
  189.2390  176.2080  143.2140 C   0  0  2  0  0  3  0  0  0  0  0  0
  191.5480  179.2170  144.2090 C   0  0  0  0  0  2  0  0  0  0  0  0
  189.9830  176.6380  144.4750 C   0  0  2  0  0  3  0  0  0  0  0  0
  192.0560  177.9730  143.5100 C   0  0  0  0  0  2  0  0  0  0  0  0
  186.4180  178.0240  146.5480 C   0  0  0  0  0  3  0  0  0  0  0  0
  188.9830  177.6010  143.8000 C   0  0  2  0  0  0  0  0  0  0  0  0
  189.4820  178.6830  142.9460 N   0  0  0  0  0  0  0  0  0  0  0  0
  186.4580  178.2120  143.7220 C   0  0  0  0  0  0  0  0  0  0  0  0
  184.1000  178.6220  146.5930 O   0  0  0  0  0  1  0  0  0  0  0  0
  191.5030  176.7300  144.1930 C   0  0  2  0  0  3  0  0  0  0  0  0
  184.0950  178.8670  143.8110 C   0  0  0  0  0  3  0  0  0  0  0  0
  187.5920  178.0590  141.4000 C   0  0  2  0  0  3  0  0  0  0  0  0
  185.2680  178.4800  144.4670 C   0  0  0  0  0  0  0  0  0  0  0  0
  190.3110  179.7530  143.5030 C   0  0  0  0  0  2  0  0  0  0  0  0
  189.0560  179.9320  141.0130 O   0  0  0  0  0  0  0  0  0  0  0  0
  186.5260  178.9030  139.3750 O   0  0  0  0  0  1  0  0  0  0  0  0
  187.2870  177.8500  139.8990 C   0  0  1  0  0  3  0  0  0  0  0  0
  189.0510  178.8170  138.3800 C   0  0  0  0  0  1  0  0  0  0  0  0
  189.6080  176.8940  139.8970 C   0  0  0  0  0  2  0  0  0  0  0  0
  189.2770  176.0330  137.1160 C   0  0  0  0  0  2  0  0  0  0  0  0
  190.2960  175.3730  138.0360 C   0  0  0  0  0  2  0  0  0  0  0  0
  188.0890  176.5500  137.9280 C   0  0  0  0  0  2  0  0  0  0  0  0
  190.7850  176.3780  139.0700 C   0  0  0  0  0  2  0  0  0  0  0  0
  188.5170  177.5390  139.0250 C   0  0  0  0  0  0  0  0  0  0  0  0
  1 20  1  0  0  0  0
  2 14  2  0  0  0  0
  2 18  1  0  0  0  0
  3 17  2  0  0  0  0
  4 19  1  0  0  0  0
  5  3  1  0  0  0  0
  5  1  2  0  0  0  0
  6  7  2  0  0  0  0
  7 14  1  0  0  0  0
  8 16  1  0  0  0  0
 10  9  1  1  0  0  0
 10 15  1  0  0  0  0
 10 12  1  0  0  0  0
 13 19  1  0  0  0  0
 13 11  1  0  0  0  0
 15  6  1  0  0  0  0
 15 12  1  0  0  0  0
 16 23  1  0  0  0  0
 16 15  1  0  0  0  0
 17  6  1  0  0  0  0
 17 22  1  0  0  0  0
 19 12  1  0  0  0  0
 20 22  2  0  0  0  0
 21  8  1  0  0  0  0
 21  3  1  0  0  0  0
 22  2  1  0  0  0  0
 23 11  1  0  0  0  0
 24  8  2  0  0  0  0
 25 26  1  0  0  0  0
 26 21  1  0  0  0  0
 27 33  1  0  0  0  0
 29 31  1  0  0  0  0
 29 30  1  0  0  0  0
 30 32  1  0  0  0  0
 31 33  1  0  0  0  0
 32 28  1  0  0  0  0
 33 28  1  0  0  0  0
 33 26  1  0  0  0  0
M  END
>  <MODEL>
2

>  <REMARK>
 VINA RESULT:      -5.6      5.885      8.776
  Name = 
  2 active torsions:
  status: ('A' for Active; 'I' for Inactive)
    1  A    between atoms: C_3  and  C_27
    2  A    between atoms: C_3  and  C_33
                            x       y       z     vdW  Elec       q    Type
                         _______ _______ _______ _____ _____    ______ ____

>  <TORSDO>
F 2

$$$$
=
 OpenBabel11062414493D

 33 38  0  0  1  0  0  0  0  0999 V2000
  181.0880  174.1510  138.2650 C   0  0  0  0  0  3  0  0  0  0  0  0
  179.4970  176.2380  140.8620 C   0  0  0  0  0  0  0  0  0  0  0  0
  181.5740  176.4810  137.7460 C   0  0  0  0  0  0  0  0  0  0  0  0
  182.7450  182.6860  138.3900 O   0  0  0  0  0  1  0  0  0  0  0  0
  181.6750  175.1130  137.4530 C   0  0  0  0  0  3  0  0  0  0  0  0
  180.6260  178.2700  139.2710 C   0  0  0  0  0  0  0  0  0  0  0  0
  179.8630  178.5730  140.4050 C   0  0  0  0  0  3  0  0  0  0  0  0
  181.2970  178.4300  136.2100 C   0  0  0  0  0  0  0  0  0  0  0  0
  183.2630  179.2300  139.8860 C   0  0  0  0  0  1  0  0  0  0  0  0
  182.5920  179.8750  138.6820 C   0  0  2  0  0  3  0  0  0  0  0  0
  179.4570  181.5720  137.0480 C   0  0  0  0  0  2  0  0  0  0  0  0
  181.4600  180.7720  139.1750 C   0  0  2  0  0  3  0  0  0  0  0  0
  180.8440  182.1800  137.0180 C   0  0  0  0  0  2  0  0  0  0  0  0
  179.3130  177.5730  141.1950 C   0  0  0  0  0  3  0  0  0  0  0  0
  181.1390  179.4420  138.4590 C   0  0  2  0  0  0  0  0  0  0  0  0
  180.7470  179.4540  137.0480 N   0  0  0  0  0  0  0  0  0  0  0  0
  180.8310  176.8990  138.9000 C   0  0  0  0  0  0  0  0  0  0  0  0
  178.9310  175.2570  141.6700 O   0  0  0  0  0  1  0  0  0  0  0  0
  181.4700  182.1160  138.4050 C   0  0  2  0  0  3  0  0  0  0  0  0
  180.3800  174.5380  139.3940 C   0  0  0  0  0  3  0  0  0  0  0  0
  182.2660  177.4560  136.8190 C   0  0  2  0  0  3  0  0  0  0  0  0
  180.2400  175.8900  139.7220 C   0  0  0  0  0  0  0  0  0  0  0  0
  179.5110  180.1120  136.6200 C   0  0  0  0  0  2  0  0  0  0  0  0
  180.9070  178.2990  135.0180 O   0  0  0  0  0  0  0  0  0  0  0  0
  183.2870  177.4480  134.6050 O   0  0  0  0  0  1  0  0  0  0  0  0
  183.3380  176.8640  135.8760 C   0  0  1  0  0  3  0  0  0  0  0  0
  185.1030  175.4800  137.0290 C   0  0  0  0  0  1  0  0  0  0  0  0
  185.7640  177.2080  135.3290 C   0  0  0  0  0  2  0  0  0  0  0  0
  186.2770  178.1150  138.0680 C   0  0  0  0  0  2  0  0  0  0  0  0
  187.1960  178.5030  136.9170 C   0  0  0  0  0  2  0  0  0  0  0  0
  184.8490  177.9140  137.5590 C   0  0  0  0  0  2  0  0  0  0  0  0
  187.1840  177.4110  135.8560 C   0  0  0  0  0  2  0  0  0  0  0  0
  184.7690  176.8540  136.4480 C   0  0  0  0  0  0  0  0  0  0  0  0
  1 20  1  0  0  0  0
  2 14  2  0  0  0  0
  2 18  1  0  0  0  0
  3 17  2  0  0  0  0
  4 19  1  0  0  0  0
  5  3  1  0  0  0  0
  5  1  2  0  0  0  0
  6  7  2  0  0  0  0
  7 14  1  0  0  0  0
  8 21  1  0  0  0  0
  8 16  1  0  0  0  0
 10 12  1  0  0  0  0
 10  9  1  1  0  0  0
 13 11  1  0  0  0  0
 13 19  1  0  0  0  0
 15 10  1  0  0  0  0
 15 12  1  0  0  0  0
 15  6  1  0  0  0  0
 16 15  1  0  0  0  0
 17  6  1  0  0  0  0
 17 22  1  0  0  0  0
 19 12  1  0  0  0  0
 20 22  2  0  0  0  0
 21  3  1  0  0  0  0
 22  2  1  0  0  0  0
 23 16  1  0  0  0  0
 23 11  1  0  0  0  0
 24  8  2  0  0  0  0
 25 26  1  0  0  0  0
 26 33  1  0  0  0  0
 26 21  1  0  0  0  0
 28 32  1  0  0  0  0
 28 33  1  0  0  0  0
 30 29  1  0  0  0  0
 31 29  1  0  0  0  0
 32 30  1  0  0  0  0
 33 27  1  0  0  0  0
 33 31  1  0  0  0  0
M  END
>  <MODEL>
3

>  <REMARK>
 VINA RESULT:      -5.5      1.378      5.518
  Name = 
  2 active torsions:
  status: ('A' for Active; 'I' for Inactive)
    1  A    between atoms: C_3  and  C_27
    2  A    between atoms: C_3  and  C_33
                            x       y       z     vdW  Elec       q    Type
                         _______ _______ _______ _____ _____    ______ ____

>  <TORSDO>
F 2

$$$$
=
 OpenBabel11062414493D

 33 38  0  0  1  0  0  0  0  0999 V2000
  180.1540  182.2850  138.7780 C   0  0  0  0  0  3  0  0  0  0  0  0
  180.3980  181.0550  135.3060 C   0  0  0  0  0  0  0  0  0  0  0  0
  180.7170  179.9160  138.8670 C   0  0  0  0  0  0  0  0  0  0  0  0
  183.0910  174.2210  137.3780 O   0  0  0  0  0  1  0  0  0  0  0  0
  180.4290  181.1330  139.5040 C   0  0  0  0  0  3  0  0  0  0  0  0
  180.9440  178.6570  136.6800 C   0  0  0  0  0  0  0  0  0  0  0  0
  180.8890  178.6980  135.2820 C   0  0  0  0  0  3  0  0  0  0  0  0
  180.0690  177.5890  139.4970 C   0  0  0  0  0  0  0  0  0  0  0  0
  183.6700  177.9780  137.2830 C   0  0  0  0  0  1  0  0  0  0  0  0
  182.6220  176.9850  137.7670 C   0  0  2  0  0  3  0  0  0  0  0  0
  179.4290  174.8160  137.0770 C   0  0  0  0  0  2  0  0  0  0  0  0
  182.0400  176.2590  136.5570 C   0  0  2  0  0  3  0  0  0  0  0  0
  180.7090  174.2520  137.6580 C   0  0  0  0  0  2  0  0  0  0  0  0
  180.6280  179.8800  134.6020 C   0  0  0  0  0  3  0  0  0  0  0  0
  181.1930  177.3030  137.3140 C   0  0  2  0  0  0  0  0  0  0  0  0
  180.1750  176.8570  138.2700 N   0  0  0  0  0  0  0  0  0  0  0  0
  180.7080  179.8540  137.4340 C   0  0  0  0  0  0  0  0  0  0  0  0
  180.1350  182.2240  134.5990 O   0  0  0  0  0  1  0  0  0  0  0  0
  181.9060  174.7460  136.8560 C   0  0  2  0  0  3  0  0  0  0  0  0
  180.1560  182.2450  137.3910 C   0  0  0  0  0  3  0  0  0  0  0  0
  181.0290  178.7190  139.7380 C   0  0  2  0  0  3  0  0  0  0  0  0
  180.4250  181.0540  136.7100 C   0  0  0  0  0  0  0  0  0  0  0  0
  179.0200  176.0770  137.8230 C   0  0  0  0  0  2  0  0  0  0  0  0
  179.1360  177.3450  140.3100 O   0  0  0  0  0  0  0  0  0  0  0  0
  180.4020  178.5640  142.0900 O   0  0  0  0  0  1  0  0  0  0  0  0
  181.3930  179.0180  141.2100 C   0  0  1  0  0  3  0  0  0  0  0  0
  182.9860  177.0670  141.3260 C   0  0  0  0  0  1  0  0  0  0  0  0
  183.8560  179.3830  140.8910 C   0  0  0  0  0  2  0  0  0  0  0  0
  184.3650  178.5220  143.6460 C   0  0  0  0  0  2  0  0  0  0  0  0
  185.3520  179.4070  142.8950 C   0  0  0  0  0  2  0  0  0  0  0  0
  182.9420  178.7810  143.1510 C   0  0  0  0  0  2  0  0  0  0  0  0
  185.2720  179.1170  141.4020 C   0  0  0  0  0  2  0  0  0  0  0  0
  182.7990  178.5510  141.6370 C   0  0  0  0  0  0  0  0  0  0  0  0
  1  5  1  0  0  0  0
  2 22  1  0  0  0  0
  3  5  2  0  0  0  0
  3 21  1  0  0  0  0
  6 15  1  0  0  0  0
  6 17  1  0  0  0  0
  7  6  2  0  0  0  0
  8 21  1  0  0  0  0
  8 24  2  0  0  0  0
 10  9  1  6  0  0  0
 11 13  1  0  0  0  0
 11 23  1  0  0  0  0
 12 19  1  0  0  0  0
 12 15  1  0  0  0  0
 12 10  1  0  0  0  0
 14  7  1  0  0  0  0
 14  2  2  0  0  0  0
 15 10  1  0  0  0  0
 15 16  1  0  0  0  0
 16  8  1  0  0  0  0
 17  3  1  0  0  0  0
 18  2  1  0  0  0  0
 19  4  1  0  0  0  0
 19 13  1  0  0  0  0
 20  1  2  0  0  0  0
 21 26  1  0  0  0  0
 22 20  1  0  0  0  0
 22 17  2  0  0  0  0
 23 16  1  0  0  0  0
 26 33  1  0  0  0  0
 26 25  1  0  0  0  0
 27 33  1  0  0  0  0
 28 32  1  0  0  0  0
 28 33  1  0  0  0  0
 30 29  1  0  0  0  0
 31 29  1  0  0  0  0
 32 30  1  0  0  0  0
 33 31  1  0  0  0  0
M  END
>  <MODEL>
4

>  <REMARK>
 VINA RESULT:      -5.4      2.500      5.695
  Name = 
  2 active torsions:
  status: ('A' for Active; 'I' for Inactive)
    1  A    between atoms: C_3  and  C_27
    2  A    between atoms: C_3  and  C_33
                            x       y       z     vdW  Elec       q    Type
                         _______ _______ _______ _____ _____    ______ ____

>  <TORSDO>
F 2

$$$$
=
 OpenBabel11062414493D

 33 38  0  0  1  0  0  0  0  0999 V2000
  183.9880  172.2360  136.2920 C   0  0  0  0  0  3  0  0  0  0  0  0
  180.5600  172.7790  137.5510 C   0  0  0  0  0  0  0  0  0  0  0  0
  183.7070  174.6250  136.6770 C   0  0  0  0  0  0  0  0  0  0  0  0
  181.7530  180.1550  139.1040 O   0  0  0  0  0  1  0  0  0  0  0  0
  184.4860  173.5320  136.2670 C   0  0  0  0  0  3  0  0  0  0  0  0
  181.4610  175.4470  137.5150 C   0  0  0  0  0  0  0  0  0  0  0  0
  180.1560  175.1260  137.9040 C   0  0  0  0  0  3  0  0  0  0  0  0
  183.5800  176.9380  135.7450 C   0  0  0  0  0  0  0  0  0  0  0  0
  182.6760  176.5480  139.8750 C   0  0  0  0  0  1  0  0  0  0  0  0
  182.5930  177.4860  138.6790 C   0  0  2  0  0  3  0  0  0  0  0  0
  180.5230  179.0860  135.7570 C   0  0  0  0  0  2  0  0  0  0  0  0
  181.1350  177.8860  138.4700 C   0  0  2  0  0  3  0  0  0  0  0  0
  181.3160  179.8990  136.7590 C   0  0  0  0  0  2  0  0  0  0  0  0
  179.7110  173.8110  137.9300 C   0  0  0  0  0  3  0  0  0  0  0  0
  181.8210  176.9190  137.4820 C   0  0  2  0  0  0  0  0  0  0  0  0
  182.3080  177.4210  136.1950 N   0  0  0  0  0  0  0  0  0  0  0  0
  182.3590  174.4020  137.1160 C   0  0  0  0  0  0  0  0  0  0  0  0
  180.0860  171.4710  137.5840 O   0  0  0  0  0  1  0  0  0  0  0  0
  181.0350  179.4020  138.1710 C   0  0  2  0  0  3  0  0  0  0  0  0
  182.6910  172.0020  136.7280 C   0  0  0  0  0  3  0  0  0  0  0  0
  184.3410  175.9980  136.6380 C   0  0  2  0  0  3  0  0  0  0  0  0
  181.8710  173.0590  137.1360 C   0  0  0  0  0  0  0  0  0  0  0  0
  181.3770  177.9560  135.2000 C   0  0  0  0  0  2  0  0  0  0  0  0
  184.0050  177.2260  134.5940 O   0  0  0  0  0  0  0  0  0  0  0  0
  186.3180  175.8610  135.2180 O   0  0  0  0  0  1  0  0  0  0  0  0
  185.8820  176.0400  136.5370 C   0  0  1  0  0  3  0  0  0  0  0  0
  185.5320  178.0100  138.0700 C   0  0  0  0  0  1  0  0  0  0  0  0
  187.7330  176.7990  138.0540 C   0  0  0  0  0  2  0  0  0  0  0  0
  187.8810  179.3580  136.6330 C   0  0  0  0  0  2  0  0  0  0  0  0
  189.0620  178.8230  137.4320 C   0  0  0  0  0  2  0  0  0  0  0  0
  187.0470  178.1990  136.0860 C   0  0  0  0  0  2  0  0  0  0  0  0
  188.5590  177.9690  138.5880 C   0  0  0  0  0  2  0  0  0  0  0  0
  186.5420  177.2660  137.1990 C   0  0  0  0  0  0  0  0  0  0  0  0
  1 20  1  0  0  0  0
  2 18  1  0  0  0  0
  2 14  2  0  0  0  0
  3 17  2  0  0  0  0
  5  1  2  0  0  0  0
  5  3  1  0  0  0  0
  6  7  2  0  0  0  0
  7 14  1  0  0  0  0
  8 16  1  0  0  0  0
  8 21  1  0  0  0  0
 10  9  1  1  0  0  0
 11 13  1  0  0  0  0
 12 10  1  0  0  0  0
 13 19  1  0  0  0  0
 15  6  1  0  0  0  0
 15 12  1  0  0  0  0
 15 10  1  0  0  0  0
 16 15  1  0  0  0  0
 17 22  1  0  0  0  0
 17  6  1  0  0  0  0
 19 12  1  0  0  0  0
 19  4  1  0  0  0  0
 20 22  2  0  0  0  0
 21  3  1  0  0  0  0
 22  2  1  0  0  0  0
 23 11  1  0  0  0  0
 23 16  1  0  0  0  0
 24  8  2  0  0  0  0
 25 26  1  0  0  0  0
 26 21  1  0  0  0  0
 26 33  1  0  0  0  0
 28 32  1  0  0  0  0
 29 30  1  0  0  0  0
 30 32  1  0  0  0  0
 31 29  1  0  0  0  0
 31 33  1  0  0  0  0
 33 28  1  0  0  0  0
 33 27  1  0  0  0  0
M  END
>  <MODEL>
5

>  <REMARK>
 VINA RESULT:      -5.3      2.502      6.321
  Name = 
  2 active torsions:
  status: ('A' for Active; 'I' for Inactive)
    1  A    between atoms: C_3  and  C_27
    2  A    between atoms: C_3  and  C_33
                            x       y       z     vdW  Elec       q    Type
                         _______ _______ _______ _____ _____    ______ ____

>  <TORSDO>
F 2

$$$$
=
 OpenBabel11062414493D

 33 38  0  0  1  0  0  0  0  0999 V2000
  184.2230  173.0720  137.3740 C   0  0  0  0  0  3  0  0  0  0  0  0
  180.5870  172.5820  136.9680 C   0  0  0  0  0  0  0  0  0  0  0  0
  183.1690  175.2680  137.4110 C   0  0  0  0  0  0  0  0  0  0  0  0
  178.9360  179.9120  138.3060 O   0  0  0  0  0  1  0  0  0  0  0  0
  184.3110  174.4550  137.4670 C   0  0  0  0  0  3  0  0  0  0  0  0
  180.6550  175.3940  137.1210 C   0  0  0  0  0  0  0  0  0  0  0  0
  179.4520  174.7050  136.9250 C   0  0  0  0  0  3  0  0  0  0  0  0
  182.8450  177.5000  136.3400 C   0  0  0  0  0  0  0  0  0  0  0  0
  180.3610  176.6660  139.6800 C   0  0  0  0  0  1  0  0  0  0  0  0
  180.5620  177.6040  138.4980 C   0  0  2  0  0  3  0  0  0  0  0  0
  179.6410  178.7160  134.8520 C   0  0  0  0  0  2  0  0  0  0  0  0
  179.2970  177.5960  137.6450 C   0  0  2  0  0  3  0  0  0  0  0  0
  179.6600  179.6650  136.0330 C   0  0  0  0  0  2  0  0  0  0  0  0
  179.4150  173.3190  136.8580 C   0  0  0  0  0  3  0  0  0  0  0  0
  180.5800  176.9070  137.1330 C   0  0  2  0  0  0  0  0  0  0  0  0
  181.4280  177.5900  136.1510 N   0  0  0  0  0  0  0  0  0  0  0  0
  181.8810  174.6600  137.2340 C   0  0  0  0  0  0  0  0  0  0  0  0
  180.5200  171.1940  136.8930 O   0  0  0  0  0  1  0  0  0  0  0  0
  178.9340  179.0380  137.2150 C   0  0  2  0  0  3  0  0  0  0  0  0
  182.9840  172.4670  137.2190 C   0  0  0  0  0  3  0  0  0  0  0  0
  183.3580  176.7630  137.5450 C   0  0  2  0  0  3  0  0  0  0  0  0
  181.8170  173.2340  137.1450 C   0  0  0  0  0  0  0  0  0  0  0  0
  180.9230  177.8970  134.8120 C   0  0  0  0  0  2  0  0  0  0  0  0
  183.6380  177.9520  135.4700 O   0  0  0  0  0  0  0  0  0  0  0  0
  185.5300  177.7910  137.1310 O   0  0  0  0  0  1  0  0  0  0  0  0
  184.7120  177.2340  138.1220 C   0  0  1  0  0  3  0  0  0  0  0  0
  184.1040  179.5330  138.9610 C   0  0  0  0  0  1  0  0  0  0  0  0
  183.6430  177.5100  140.3770 C   0  0  0  0  0  2  0  0  0  0  0  0
  185.9790  179.0030  141.3280 C   0  0  0  0  0  2  0  0  0  0  0  0
  185.0390  178.2960  142.2960 C   0  0  0  0  0  2  0  0  0  0  0  0
  186.0050  178.2680  139.9870 C   0  0  0  0  0  2  0  0  0  0  0  0
  183.6330  178.2530  141.7130 C   0  0  0  0  0  2  0  0  0  0  0  0
  184.6070  178.1460  139.3600 C   0  0  0  0  0  0  0  0  0  0  0  0
  1  5  1  0  0  0  0
  2 22  1  0  0  0  0
  3  5  2  0  0  0  0
  3 21  1  0  0  0  0
  6 15  1  0  0  0  0
  6 17  1  0  0  0  0
  7  6  2  0  0  0  0
  8 21  1  0  0  0  0
 10  9  1  1  0  0  0
 11 13  1  0  0  0  0
 12 10  1  0  0  0  0
 13 19  1  0  0  0  0
 14  7  1  0  0  0  0
 14  2  2  0  0  0  0
 15 12  1  0  0  0  0
 15 10  1  0  0  0  0
 16  8  1  0  0  0  0
 16 15  1  0  0  0  0
 17  3  1  0  0  0  0
 18  2  1  0  0  0  0
 19 12  1  0  0  0  0
 19  4  1  0  0  0  0
 20  1  2  0  0  0  0
 21 26  1  0  0  0  0
 22 20  1  0  0  0  0
 22 17  2  0  0  0  0
 23 11  1  0  0  0  0
 23 16  1  0  0  0  0
 24  8  2  0  0  0  0
 25 26  1  0  0  0  0
 26 33  1  0  0  0  0
 27 33  1  0  0  0  0
 28 32  1  0  0  0  0
 29 30  1  0  0  0  0
 31 29  1  0  0  0  0
 32 30  1  0  0  0  0
 33 31  1  0  0  0  0
 33 28  1  0  0  0  0
M  END
>  <MODEL>
6

>  <REMARK>
 VINA RESULT:      -4.9      2.699      5.942
  Name = 
  2 active torsions:
  status: ('A' for Active; 'I' for Inactive)
    1  A    between atoms: C_3  and  C_27
    2  A    between atoms: C_3  and  C_33
                            x       y       z     vdW  Elec       q    Type
                         _______ _______ _______ _____ _____    ______ ____

>  <TORSDO>
F 2

$$$$
=
 OpenBabel11062414493D

 33 38  0  0  1  0  0  0  0  0999 V2000
  182.0970  181.6120  138.4680 C   0  0  0  0  0  3  0  0  0  0  0  0
  179.7320  180.2510  135.9810 C   0  0  0  0  0  0  0  0  0  0  0  0
  182.7240  179.2980  138.0350 C   0  0  0  0  0  0  0  0  0  0  0  0
  183.6080  173.7350  135.1100 O   0  0  0  0  0  1  0  0  0  0  0  0
  182.9190  180.5170  138.7020 C   0  0  0  0  0  3  0  0  0  0  0  0
  181.3220  177.9640  136.4000 C   0  0  0  0  0  0  0  0  0  0  0  0
  180.2260  177.9380  135.5290 C   0  0  0  0  0  3  0  0  0  0  0  0
  182.9700  176.9590  138.8740 C   0  0  0  0  0  0  0  0  0  0  0  0
  183.6050  177.5160  134.7130 C   0  0  0  0  0  1  0  0  0  0  0  0
  183.3700  176.4710  135.7950 C   0  0  2  0  0  3  0  0  0  0  0  0
  180.9530  174.0420  137.7000 C   0  0  0  0  0  2  0  0  0  0  0  0
  182.1380  175.6500  135.4240 C   0  0  2  0  0  3  0  0  0  0  0  0
  182.2700  173.6010  137.0960 C   0  0  0  0  0  2  0  0  0  0  0  0
  179.4460  179.0660  135.3150 C   0  0  0  0  0  3  0  0  0  0  0  0
  182.0740  176.6610  136.5890 C   0  0  2  0  0  0  0  0  0  0  0  0
  182.1720  176.1840  137.9710 N   0  0  0  0  0  0  0  0  0  0  0  0
  181.6400  179.1720  137.1040 C   0  0  0  0  0  0  0  0  0  0  0  0
  178.9310  181.3640  135.7500 O   0  0  0  0  0  1  0  0  0  0  0  0
  182.4010  174.1460  135.6800 C   0  0  2  0  0  3  0  0  0  0  0  0
  181.0540  181.5110  137.5590 C   0  0  0  0  0  3  0  0  0  0  0  0
  183.6830  178.1670  138.3350 C   0  0  2  0  0  3  0  0  0  0  0  0
  180.8110  180.3140  136.8770 C   0  0  0  0  0  0  0  0  0  0  0  0
  181.1480  175.3010  138.5310 C   0  0  0  0  0  2  0  0  0  0  0  0
  182.9980  176.6830  140.1030 O   0  0  0  0  0  0  0  0  0  0  0  0
  184.9950  178.2250  140.3900 O   0  0  0  0  0  1  0  0  0  0  0  0
  185.0080  178.5570  139.0290 C   0  0  1  0  0  3  0  0  0  0  0  0
  186.1230  176.5840  137.9250 C   0  0  0  0  0  1  0  0  0  0  0  0
  186.5480  178.9100  137.0790 C   0  0  0  0  0  2  0  0  0  0  0  0
  188.8040  177.8860  138.6430 C   0  0  0  0  0  2  0  0  0  0  0  0
  189.0190  178.8000  137.4440 C   0  0  0  0  0  2  0  0  0  0  0  0
  187.4600  178.1900  139.3050 C   0  0  0  0  0  2  0  0  0  0  0  0
  187.8980  178.5980  136.4330 C   0  0  0  0  0  2  0  0  0  0  0  0
  186.2820  178.0490  138.3260 C   0  0  0  0  0  0  0  0  0  0  0  0
  1  5  1  0  0  0  0
  2 22  1  0  0  0  0
  3 21  1  0  0  0  0
  3  5  2  0  0  0  0
  4 19  1  0  0  0  0
  6 15  1  0  0  0  0
  6 17  1  0  0  0  0
  7  6  2  0  0  0  0
  8 24  2  0  0  0  0
 10  9  1  6  0  0  0
 10 15  1  0  0  0  0
 11 23  1  0  0  0  0
 12 19  1  0  0  0  0
 12 10  1  0  0  0  0
 12 15  1  0  0  0  0
 13 11  1  0  0  0  0
 14  7  1  0  0  0  0
 14  2  2  0  0  0  0
 15 16  1  0  0  0  0
 16 23  1  0  0  0  0
 16  8  1  0  0  0  0
 17  3  1  0  0  0  0
 18  2  1  0  0  0  0
 19 13  1  0  0  0  0
 20  1  2  0  0  0  0
 21  8  1  0  0  0  0
 21 26  1  0  0  0  0
 22 17  2  0  0  0  0
 22 20  1  0  0  0  0
 26 25  1  0  0  0  0
 27 33  1  0  0  0  0
 28 33  1  0  0  0  0
 29 31  1  0  0  0  0
 30 29  1  0  0  0  0
 32 28  1  0  0  0  0
 32 30  1  0  0  0  0
 33 26  1  0  0  0  0
 33 31  1  0  0  0  0
M  END
>  <MODEL>
7

>  <REMARK>
 VINA RESULT:      -4.8      2.432      5.512
  Name = 
  2 active torsions:
  status: ('A' for Active; 'I' for Inactive)
    1  A    between atoms: C_3  and  C_27
    2  A    between atoms: C_3  and  C_33
                            x       y       z     vdW  Elec       q    Type
                         _______ _______ _______ _____ _____    ______ ____

>  <TORSDO>
F 2

$$$$
=
 OpenBabel11062414493D

 33 38  0  0  1  0  0  0  0  0999 V2000
  186.7110  178.4400  137.9080 C   0  0  0  0  0  3  0  0  0  0  0  0
  186.3250  175.4280  135.8090 C   0  0  0  0  0  0  0  0  0  0  0  0
  184.3410  177.8810  137.8390 C   0  0  0  0  0  0  0  0  0  0  0  0
  178.9310  174.5810  137.4940 O   0  0  0  0  0  1  0  0  0  0  0  0
  185.3960  178.7010  138.2690 C   0  0  0  0  0  3  0  0  0  0  0  0
  183.6230  175.8800  136.4610 C   0  0  0  0  0  0  0  0  0  0  0  0
  184.0020  174.8260  135.6220 C   0  0  0  0  0  3  0  0  0  0  0  0
  182.0210  178.4910  137.1450 C   0  0  0  0  0  0  0  0  0  0  0  0
  182.5080  174.6040  138.7810 C   0  0  0  0  0  1  0  0  0  0  0  0
  181.5570  175.5030  138.0040 C   0  0  2  0  0  3  0  0  0  0  0  0
  179.9990  176.6560  134.5950 C   0  0  0  0  0  2  0  0  0  0  0  0
  181.2130  174.8250  136.6810 C   0  0  2  0  0  3  0  0  0  0  0  0
  179.1690  176.2600  135.7980 C   0  0  0  0  0  2  0  0  0  0  0  0
  185.3340  174.5960  135.3060 C   0  0  0  0  0  3  0  0  0  0  0  0
  182.1370  176.0620  136.7000 C   0  0  2  0  0  0  0  0  0  0  0  0
  181.5970  177.3780  136.3490 N   0  0  0  0  0  0  0  0  0  0  0  0
  184.6240  176.7580  136.9920 C   0  0  0  0  0  0  0  0  0  0  0  0
  187.6510  175.1760  135.4720 O   0  0  0  0  0  1  0  0  0  0  0  0
  179.6980  174.9600  136.3900 C   0  0  2  0  0  3  0  0  0  0  0  0
  187.0030  177.3490  137.1020 C   0  0  0  0  0  3  0  0  0  0  0  0
  182.9430  178.2270  138.3020 C   0  0  2  0  0  3  0  0  0  0  0  0
  185.9870  176.5090  136.6380 C   0  0  0  0  0  0  0  0  0  0  0  0
  181.0850  177.6410  135.0030 C   0  0  0  0  0  2  0  0  0  0  0  0
  181.7010  179.6670  136.8250 O   0  0  0  0  0  0  0  0  0  0  0  0
  181.7120  180.0190  139.4070 O   0  0  0  0  0  1  0  0  0  0  0  0
  182.8370  179.1920  139.5060 C   0  0  1  0  0  3  0  0  0  0  0  0
  182.7550  177.0050  140.7580 C   0  0  0  0  0  1  0  0  0  0  0  0
  184.3090  178.8310  141.5070 C   0  0  0  0  0  2  0  0  0  0  0  0
  181.9510  178.6250  143.2340 C   0  0  0  0  0  2  0  0  0  0  0  0
  183.3160  179.0040  143.7940 C   0  0  0  0  0  2  0  0  0  0  0  0
  181.8280  179.0930  141.7840 C   0  0  0  0  0  2  0  0  0  0  0  0
  184.4140  178.3620  142.9580 C   0  0  0  0  0  2  0  0  0  0  0  0
  182.9370  178.5170  140.8870 C   0  0  0  0  0  0  0  0  0  0  0  0
  1  5  1  0  0  0  0
  2 22  1  0  0  0  0
  3  5  2  0  0  0  0
  3 21  1  0  0  0  0
  6 15  1  0  0  0  0
  6 17  1  0  0  0  0
  7  6  2  0  0  0  0
  8 21  1  0  0  0  0
 10  9  1  1  0  0  0
 11 23  1  0  0  0  0
 11 13  1  0  0  0  0
 12 15  1  0  0  0  0
 12 10  1  0  0  0  0
 13 19  1  0  0  0  0
 14  7  1  0  0  0  0
 14  2  2  0  0  0  0
 15 10  1  0  0  0  0
 16 15  1  0  0  0  0
 16  8  1  0  0  0  0
 17  3  1  0  0  0  0
 18  2  1  0  0  0  0
 19 12  1  0  0  0  0
 19  4  1  0  0  0  0
 20  1  2  0  0  0  0
 21 26  1  0  0  0  0
 22 17  2  0  0  0  0
 22 20  1  0  0  0  0
 23 16  1  0  0  0  0
 24  8  2  0  0  0  0
 25 26  1  0  0  0  0
 26 33  1  0  0  0  0
 27 33  1  0  0  0  0
 28 32  1  0  0  0  0
 29 30  1  0  0  0  0
 31 29  1  0  0  0  0
 32 30  1  0  0  0  0
 33 28  1  0  0  0  0
 33 31  1  0  0  0  0
M  END
>  <MODEL>
8

>  <REMARK>
 VINA RESULT:      -4.7      2.875      6.144
  Name = 
  2 active torsions:
  status: ('A' for Active; 'I' for Inactive)
    1  A    between atoms: C_3  and  C_27
    2  A    between atoms: C_3  and  C_33
                            x       y       z     vdW  Elec       q    Type
                         _______ _______ _______ _____ _____    ______ ____

>  <TORSDO>
F 2

$$$$
=
 OpenBabel11062414493D

 33 38  0  0  1  0  0  0  0  0999 V2000
  185.4920  177.2220  134.7710 C   0  0  0  0  0  3  0  0  0  0  0  0
  186.0250  174.1710  136.7800 C   0  0  0  0  0  0  0  0  0  0  0  0
  183.3890  176.6840  135.8770 C   0  0  0  0  0  0  0  0  0  0  0  0
  179.1820  174.5720  140.1340 O   0  0  0  0  0  1  0  0  0  0  0  0
  184.1540  177.4940  135.0240 C   0  0  0  0  0  3  0  0  0  0  0  0
  183.3010  174.6180  137.3410 C   0  0  0  0  0  0  0  0  0  0  0  0
  183.9800  173.5140  137.8690 C   0  0  0  0  0  3  0  0  0  0  0  0
  181.0000  175.9790  135.6990 C   0  0  0  0  0  0  0  0  0  0  0  0
  182.5830  176.1960  139.6320 C   0  0  0  0  0  1  0  0  0  0  0  0
  181.4190  175.6780  138.7990 C   0  0  2  0  0  3  0  0  0  0  0  0
  179.6300  172.7300  136.9310 C   0  0  0  0  0  2  0  0  0  0  0  0
  181.3020  174.1700  139.0060 C   0  0  2  0  0  3  0  0  0  0  0  0
  178.9380  173.6130  137.9500 C   0  0  0  0  0  2  0  0  0  0  0  0
  185.3250  173.2960  137.6000 C   0  0  0  0  0  3  0  0  0  0  0  0
  181.8250  174.7300  137.6650 C   0  0  2  0  0  0  0  0  0  0  0  0
  180.9280  174.8000  136.5090 N   0  0  0  0  0  0  0  0  0  0  0  0
  183.9970  175.5370  136.4880 C   0  0  0  0  0  0  0  0  0  0  0  0
  187.3700  173.9250  136.5250 O   0  0  0  0  0  1  0  0  0  0  0  0
  179.8170  173.7690  139.1840 C   0  0  2  0  0  3  0  0  0  0  0  0
  186.0990  176.1250  135.3660 C   0  0  0  0  0  3  0  0  0  0  0  0
  181.9460  177.0710  136.1140 C   0  0  2  0  0  3  0  0  0  0  0  0
  185.3770  175.2800  136.2150 C   0  0  0  0  0  0  0  0  0  0  0  0
  180.3760  173.5820  135.9150 C   0  0  0  0  0  2  0  0  0  0  0  0
  180.3530  176.0570  134.6190 O   0  0  0  0  0  0  0  0  0  0  0  0
  180.6380  178.5340  134.6660 O   0  0  0  0  0  1  0  0  0  0  0  0
  181.5500  178.5150  135.7280 C   0  0  1  0  0  3  0  0  0  0  0  0
  180.7640  180.8080  136.4190 C   0  0  0  0  0  1  0  0  0  0  0  0
  179.8360  178.7630  137.5450 C   0  0  0  0  0  2  0  0  0  0  0  0
  181.7900  180.1490  139.2320 C   0  0  0  0  0  2  0  0  0  0  0  0
  180.5780  179.4470  139.8320 C   0  0  0  0  0  2  0  0  0  0  0  0
  182.2180  179.4510  137.9410 C   0  0  0  0  0  2  0  0  0  0  0  0
  179.4250  179.4680  138.8370 C   0  0  0  0  0  2  0  0  0  0  0  0
  181.0840  179.3950  136.9040 C   0  0  0  0  0  0  0  0  0  0  0  0
  1  5  2  0  0  0  0
  1 20  1  0  0  0  0
  2 14  2  0  0  0  0
  3 21  1  0  0  0  0
  3 17  2  0  0  0  0
  5  3  1  0  0  0  0
  6 15  1  0  0  0  0
  6  7  2  0  0  0  0
  8 21  1  0  0  0  0
  8 16  1  0  0  0  0
 10 12  1  0  0  0  0
 10  9  1  1  0  0  0
 11 13  1  0  0  0  0
 12 19  1  0  0  0  0
 13 19  1  0  0  0  0
 14  7  1  0  0  0  0
 15 10  1  0  0  0  0
 15 12  1  0  0  0  0
 16 15  1  0  0  0  0
 17  6  1  0  0  0  0
 18  2  1  0  0  0  0
 19  4  1  0  0  0  0
 20 22  2  0  0  0  0
 22 17  1  0  0  0  0
 22  2  1  0  0  0  0
 23 16  1  0  0  0  0
 23 11  1  0  0  0  0
 24  8  2  0  0  0  0
 25 26  1  0  0  0  0
 26 21  1  0  0  0  0
 26 33  1  0  0  0  0
 27 33  1  0  0  0  0
 28 32  1  0  0  0  0
 29 30  1  0  0  0  0
 31 29  1  0  0  0  0
 32 30  1  0  0  0  0
 33 28  1  0  0  0  0
 33 31  1  0  0  0  0
M  END
>  <MODEL>
9

>  <REMARK>
 VINA RESULT:      -4.6      2.534      5.978
  Name = 
  2 active torsions:
  status: ('A' for Active; 'I' for Inactive)
    1  A    between atoms: C_3  and  C_27
    2  A    between atoms: C_3  and  C_33
                            x       y       z     vdW  Elec       q    Type
                         _______ _______ _______ _____ _____    ______ ____

>  <TORSDO>
F 2

$$$$
