=
 OpenBabel11062411053D

 64 70  0  0  1  0  0  0  0  0999 V2000
  184.0880  176.5820  136.6300 C   0  0  0  0  0  0  0  0  0  0  0  0
  184.0000  177.7210  137.3640 C   0  0  0  0  0  0  0  0  0  0  0  0
  182.7680  178.4920  137.7300 C   0  0  0  0  0  0  0  0  0  0  0  0
  181.5490  179.7510  139.5640 C   0  0  0  0  0  3  0  0  0  0  0  0
  185.2660  178.0720  137.8450 O   0  0  0  0  0  0  0  0  0  0  0  0
  182.1620  178.2720  134.9680 S   0  0  0  0  0  0  0  0  0  0  0  0
  182.9880  175.8380  135.9600 C   0  0  0  0  0  0  0  0  0  0  0  0
  181.6580  178.7290  136.6830 C   0  0  2  0  0  3  0  0  0  0  0  0
  186.2470  177.1200  137.4910 C   0  0  1  0  0  3  0  0  0  0  0  0
  180.6850  180.9120  137.5400 C   0  0  0  0  0  0  0  0  0  0  0  0
  185.4890  176.0540  136.7040 C   0  0  0  0  0  2  0  0  0  0  0  0
  181.1440  180.1400  136.5640 C   0  0  0  0  0  3  0  0  0  0  0  0
  180.0440  182.0990  137.1660 O   0  0  0  0  0  1  0  0  0  0  0  0
  180.6750  180.5940  138.9840 C   0  0  0  0  0  0  0  0  0  0  0  0
  182.0780  176.4880  135.2530 C   0  0  0  0  0  3  0  0  0  0  0  0
  182.6500  178.9060  139.0410 C   0  0  0  0  0  0  0  0  0  0  0  0
  179.6310  181.4850  140.0630 Cl  0  0  0  0  0  0  0  0  0  0  0  0
  183.5720  178.3420  140.1540 C   0  0  1  0  0  3  0  0  0  0  0  0
  184.5310  179.3090  140.5130 O   0  0  0  0  0  1  0  0  0  0  0  0
  182.8470  177.8480  141.4460 C   0  0  0  0  0  2  0  0  0  0  0  0
  182.5930  178.9430  142.2790 O   0  0  0  0  0  1  0  0  0  0  0  0
  182.9450  174.3200  135.9980 C   0  0  2  0  0  3  0  0  0  0  0  0
  183.4350  173.8470  134.7990 O   0  0  0  0  0  1  0  0  0  0  0  0
  180.9590  174.5410  137.3610 O   0  0  0  0  0  0  0  0  0  0  0  0
  179.8100  172.1520  135.6720 C   0  0  0  0  0  1  0  0  0  0  0  0
  181.5350  173.8080  136.3080 C   0  0  2  0  0  3  0  0  0  0  0  0
  180.3580  173.5620  138.1740 C   0  0  0  0  0  2  0  0  0  0  0  0
  180.8160  172.2650  137.8390 O   0  0  0  0  0  0  0  0  0  0  0  0
  181.1040  172.3580  136.4820 C   0  0  1  0  0  0  0  0  0  0  0  0
  182.0400  171.2240  135.9950 C   0  0  1  0  0  3  0  0  0  0  0  0
  182.2090  171.2270  134.5940 O   0  0  0  0  0  1  0  0  0  0  0  0
  184.2250  171.7740  136.9500 F   0  0  0  0  0  0  0  0  0  0  0  0
  183.2810  170.7510  136.8370 C   0  0  0  0  0  3  0  0  0  0  0  0
  183.8710  169.6360  136.2660 F   0  0  0  0  0  0  0  0  0  0  0  0
  187.4550  177.7060  136.6730 C   0  0  1  0  0  0  0  0  0  0  0  0
  187.2840  177.5590  135.2880 F   0  0  0  0  0  0  0  0  0  0  0  0
  186.7880  179.9750  136.0150 F   0  0  0  0  0  0  0  0  0  0  0  0
  187.5510  179.2220  136.8920 C   0  0  0  0  0  2  0  0  0  0  0  0
  188.6590  177.0800  137.0990 O   0  0  0  0  0  0  0  0  0  0  0  0
  190.4230  177.2870  140.2420 C   0  0  0  0  0  2  0  0  0  0  0  0
  188.1070  178.3190  138.9950 O   0  0  0  0  0  0  0  0  0  0  0  0
  189.1610  176.5240  142.3480 C   0  0  2  0  0  3  0  0  0  0  0  0
  190.1950  177.1540  138.9290 C   0  0  0  0  0  2  0  0  0  0  0  0
  187.8630  179.4820  140.9580 O   0  0  0  0  0  1  0  0  0  0  0  0
  189.1830  177.3750  141.0880 C   0  0  1  0  0  0  0  0  0  0  0  0
  188.7490  177.1610  138.4930 C   0  0  2  0  0  3  0  0  0  0  0  0
  188.0180  178.1990  140.4050 C   0  0  2  0  0  3  0  0  0  0  0  0
  188.6320  176.0790  141.1390 O   0  0  0  0  0  0  0  0  0  0  0  0
  186.0480  178.2830  147.1270 O   0  0  0  0  0  0  0  0  0  0  0  0
  187.7130  177.1720  145.9190 N   0  0  0  0  0  2  0  0  0  0  0  0
  187.3120  178.0180  143.0140 O   0  0  0  0  0  0  0  0  0  0  0  0
  186.5470  178.0140  145.9820 C   0  0  0  0  0  0  0  0  0  0  0  0
  188.6930  177.1400  144.8010 C   0  0  1  0  0  3  0  0  0  0  0  0
  186.0550  177.9120  143.6010 C   0  0  0  0  0  2  0  0  0  0  0  0
  186.0480  178.8250  144.8090 C   0  0  1  0  0  3  0  0  0  0  0  0
  188.0420  176.8840  143.4000 C   0  0  2  0  0  3  0  0  0  0  0  0
  184.7770  179.3590  145.0200 F   0  0  0  0  0  0  0  0  0  0  0  0
  189.5080  178.4360  144.8430 C   0  0  0  0  0  2  0  0  0  0  0  0
  190.7810  178.2690  145.6590 C   0  0  0  0  0  2  0  0  0  0  0  0
  191.5310  177.0820  145.1070 C   0  0  0  0  0  2  0  0  0  0  0  0
  191.1090  176.0740  147.4280 C   0  0  0  0  0  1  0  0  0  0  0  0
  192.0520  176.1780  146.2330 C   0  0  1  0  0  3  0  0  0  0  0  0
  191.9850  175.0240  144.3240 C   0  0  0  0  0  1  0  0  0  0  0  0
  192.2130  174.8910  145.6980 O   0  0  0  0  0  0  0  0  0  0  0  0
  1 11  1  0  0  0  0
  1  2  2  0  0  0  0
  2  3  1  0  0  0  0
  2  5  1  0  0  0  0
  3 16  2  0  0  0  0
  6 15  1  0  0  0  0
  6  8  1  0  0  0  0
  7 22  1  0  0  0  0
  7  1  1  0  0  0  0
  8 12  1  6  0  0  0
  8  3  1  0  0  0  0
  9 35  1  6  0  0  0
  9  5  1  0  0  0  0
 10 14  1  0  0  0  0
 11  9  1  0  0  0  0
 12 10  2  0  0  0  0
 13 10  1  0  0  0  0
 14  4  2  0  0  0  0
 14 17  1  0  0  0  0
 15  7  2  0  0  0  0
 16  4  1  0  0  0  0
 16 18  1  0  0  0  0
 18 19  1  1  0  0  0
 18 20  1  0  0  0  0
 20 21  1  0  0  0  0
 22 23  1  6  0  0  0
 24 27  1  0  0  0  0
 26 22  1  1  0  0  0
 26 29  1  0  0  0  0
 26 24  1  0  0  0  0
 28 27  1  0  0  0  0
 29 25  1  6  0  0  0
 29 28  1  0  0  0  0
 30 31  1  6  0  0  0
 30 29  1  0  0  0  0
 30 33  1  0  0  0  0
 33 32  1  0  0  0  0
 34 33  1  0  0  0  0
 35 36  1  6  0  0  0
 35 38  1  0  0  0  0
 35 39  1  0  0  0  0
 37 38  1  0  0  0  0
 41 47  1  0  0  0  0
 42 48  1  6  0  0  0
 42 56  1  0  0  0  0
 43 40  1  0  0  0  0
 45 40  1  6  0  0  0
 45 48  1  0  0  0  0
 45 42  1  0  0  0  0
 46 39  1  6  0  0  0
 46 43  1  0  0  0  0
 46 41  1  0  0  0  0
 47 44  1  1  0  0  0
 47 45  1  0  0  0  0
 50 52  1  0  0  0  0
 51 54  1  0  0  0  0
 52 49  2  0  0  0  0
 53 58  1  6  0  0  0
 53 50  1  0  0  0  0
 54 55  1  0  0  0  0
 55 57  1  1  0  0  0
 55 52  1  0  0  0  0
 56 51  1  6  0  0  0
 56 53  1  0  0  0  0
 58 59  1  0  0  0  0
 60 59  1  0  0  0  0
 60 62  1  0  0  0  0
 62 61  1  1  0  0  0
 63 64  1  0  0  0  0
 64 62  1  0  0  0  0
M  END
>  <MODEL>
1

>  <REMARK>
 VINA RESULT:      -6.9      0.000      0.000
  Name = 
  16 active torsions:
  status: ('A' for Active; 'I' for Inactive)
    1  A    between atoms: C_8  and  C_57
    2  A    between atoms: C_8  and  C_58
    3  A    between atoms: C_12  and  C_31
    4  A    between atoms: C_12  and  O_42
    5  A    between atoms: O_16  and  C_38
    6  A    between atoms: O_16  and  C_41
    7  A    between atoms: C_17  and  C_49
    8  A    between atoms: C_19  and  C_24
    9  A    between atoms: C_19  and  C_55
   10  A    between atoms: C_20  and  C_46
   11  A    between atoms: C_26  and  C_38
   12  A    between atoms: C_29  and  C_60
   13  A    between atoms: C_30  and  C_46
   14  A    between atoms: C_31  and  C_54
   15  A    between atoms: C_34  and  C_38
   16  A    between atoms: C_54  and  C_60
                            x       y       z     vdW  Elec       q    Type
                         _______ _______ _______ _____ _____    ______ ____

>  <TORSDO>
F 16

$$$$
=
 OpenBabel11062411053D

 64 70  0  0  1  0  0  0  0  0999 V2000
  181.6120  178.8790  139.5960 C   0  0  0  0  0  0  0  0  0  0  0  0
  181.9300  177.7600  138.8960 C   0  0  0  0  0  0  0  0  0  0  0  0
  181.0010  176.7390  138.3120 C   0  0  0  0  0  0  0  0  0  0  0  0
  180.4920  175.2690  136.3090 C   0  0  0  0  0  3  0  0  0  0  0  0
  183.3130  177.7070  138.6920 O   0  0  0  0  0  0  0  0  0  0  0  0
  179.8090  176.7770  140.8860 S   0  0  0  0  0  0  0  0  0  0  0  0
  180.2620  179.3490  140.0060 C   0  0  0  0  0  0  0  0  0  0  0  0
  179.7810  176.2450  139.1190 C   0  0  2  0  0  3  0  0  0  0  0  0
  183.9660  178.8480  139.2090 C   0  0  1  0  0  3  0  0  0  0  0  0
  179.5110  173.9140  138.1500 C   0  0  0  0  0  0  0  0  0  0  0  0
  182.8460  179.7060  139.7920 C   0  0  0  0  0  2  0  0  0  0  0  0
  179.5780  174.7530  139.1750 C   0  0  0  0  0  3  0  0  0  0  0  0
  179.0860  172.6080  138.4230 O   0  0  0  0  0  1  0  0  0  0  0  0
  179.7270  174.2440  136.7250 C   0  0  0  0  0  0  0  0  0  0  0  0
  179.3930  178.5020  140.5340 C   0  0  0  0  0  3  0  0  0  0  0  0
  181.2480  176.3300  137.0180 C   0  0  0  0  0  0  0  0  0  0  0  0
  179.1490  173.1590  135.4850 Cl  0  0  0  0  0  0  0  0  0  0  0  0
  182.2300  177.1020  136.0970 C   0  0  1  0  0  3  0  0  0  0  0  0
  183.2500  176.2350  135.6570 O   0  0  0  0  0  1  0  0  0  0  0  0
  181.5880  177.7960  134.8550 C   0  0  0  0  0  2  0  0  0  0  0  0
  182.2560  179.0000  134.6040 O   0  0  0  0  0  1  0  0  0  0  0  0
  179.8930  180.8190  139.9130 C   0  0  2  0  0  3  0  0  0  0  0  0
  178.9690  181.0930  140.8990 O   0  0  0  0  0  1  0  0  0  0  0  0
  179.0500  180.0260  137.7890 O   0  0  0  0  0  0  0  0  0  0  0  0
  178.9310  183.0570  136.9630 C   0  0  0  0  0  1  0  0  0  0  0  0
  179.3930  181.1830  138.5110 C   0  0  2  0  0  3  0  0  0  0  0  0
  179.5940  180.2460  136.5090 C   0  0  0  0  0  2  0  0  0  0  0  0
  180.5150  181.3210  136.5210 O   0  0  0  0  0  0  0  0  0  0  0  0
  180.0400  182.1510  137.5310 C   0  0  1  0  0  0  0  0  0  0  0  0
  181.1150  183.1420  138.0390 C   0  0  1  0  0  3  0  0  0  0  0  0
  182.3320  182.5020  138.3620 O   0  0  0  0  0  1  0  0  0  0  0  0
  182.5540  185.0580  137.5440 F   0  0  0  0  0  0  0  0  0  0  0  0
  181.2370  184.6030  137.4690 C   0  0  0  0  0  3  0  0  0  0  0  0
  180.4050  185.4730  138.1550 F   0  0  0  0  0  0  0  0  0  0  0  0
  185.0800  178.5340  140.2730 C   0  0  1  0  0  0  0  0  0  0  0  0
  184.9320  177.2590  140.8400 F   0  0  0  0  0  0  0  0  0  0  0  0
  187.4980  178.9380  140.3970 F   0  0  0  0  0  0  0  0  0  0  0  0
  186.4570  178.4980  139.5960 C   0  0  0  0  0  2  0  0  0  0  0  0
  185.0640  179.5370  141.2810 O   0  0  0  0  0  0  0  0  0  0  0  0
  184.8670  178.6000  144.7610 C   0  0  0  0  0  2  0  0  0  0  0  0
  185.9210  177.6370  142.3230 O   0  0  0  0  0  0  0  0  0  0  0  0
  187.0850  178.3280  146.0310 C   0  0  2  0  0  3  0  0  0  0  0  0
  184.5390  179.1320  143.5770 C   0  0  0  0  0  2  0  0  0  0  0  0
  186.5760  175.8430  143.5960 O   0  0  0  0  0  1  0  0  0  0  0  0
  186.2380  177.9860  144.8150 C   0  0  1  0  0  0  0  0  0  0  0  0
  185.5600  178.9970  142.4730 C   0  0  2  0  0  3  0  0  0  0  0  0
  186.6420  177.2410  143.4790 C   0  0  2  0  0  3  0  0  0  0  0  0
  187.1600  179.0530  144.8440 O   0  0  0  0  0  0  0  0  0  0  0  0
  192.3630  175.5570  145.7390 O   0  0  0  0  0  0  0  0  0  0  0  0
  190.3180  176.3990  144.9830 N   0  0  0  0  0  2  0  0  0  0  0  0
  189.0870  177.8250  147.3850 O   0  0  0  0  0  0  0  0  0  0  0  0
  191.2740  176.1570  146.0310 C   0  0  0  0  0  0  0  0  0  0  0  0
  189.2740  177.4580  144.9970 C   0  0  1  0  0  3  0  0  0  0  0  0
  189.7630  176.7040  147.8580 C   0  0  0  0  0  2  0  0  0  0  0  0
  191.1980  176.8170  147.3890 C   0  0  1  0  0  3  0  0  0  0  0  0
  188.3520  177.4170  146.2620 C   0  0  2  0  0  3  0  0  0  0  0  0
  192.0700  176.2490  148.3170 F   0  0  0  0  0  0  0  0  0  0  0  0
  189.9640  178.8130  144.8160 C   0  0  0  0  0  2  0  0  0  0  0  0
  190.9810  178.7750  143.6860 C   0  0  0  0  0  2  0  0  0  0  0  0
  190.2330  178.5180  142.4000 C   0  0  0  0  0  2  0  0  0  0  0  0
  190.0980  176.9780  140.3530 C   0  0  0  0  0  1  0  0  0  0  0  0
  190.6980  177.2140  141.7360 C   0  0  1  0  0  3  0  0  0  0  0  0
  192.3190  177.5190  140.2330 C   0  0  0  0  0  1  0  0  0  0  0  0
  192.0920  177.2880  141.5950 O   0  0  0  0  0  0  0  0  0  0  0  0
  1 11  1  0  0  0  0
  1  7  1  0  0  0  0
  2  1  2  0  0  0  0
  3  2  1  0  0  0  0
  3  8  1  0  0  0  0
  4 14  2  0  0  0  0
  4 16  1  0  0  0  0
  5  2  1  0  0  0  0
  5  9  1  0  0  0  0
  7 15  2  0  0  0  0
  8 12  1  1  0  0  0
  8  6  1  0  0  0  0
  9 11  1  0  0  0  0
  9 35  1  1  0  0  0
 10 13  1  0  0  0  0
 10 12  2  0  0  0  0
 14 10  1  0  0  0  0
 15  6  1  0  0  0  0
 16  3  2  0  0  0  0
 17 14  1  0  0  0  0
 18 19  1  6  0  0  0
 18 16  1  0  0  0  0
 20 18  1  0  0  0  0
 21 20  1  0  0  0  0
 22  7  1  0  0  0  0
 22 23  1  1  0  0  0
 24 26  1  0  0  0  0
 26 22  1  1  0  0  0
 27 28  1  0  0  0  0
 27 24  1  0  0  0  0
 28 29  1  0  0  0  0
 29 25  1  6  0  0  0
 29 30  1  0  0  0  0
 29 26  1  0  0  0  0
 30 31  1  6  0  0  0
 33 32  1  0  0  0  0
 33 30  1  0  0  0  0
 33 34  1  0  0  0  0
 35 36  1  1  0  0  0
 35 39  1  0  0  0  0
 38 35  1  0  0  0  0
 38 37  1  0  0  0  0
 41 46  1  0  0  0  0
 41 47  1  0  0  0  0
 42 48  1  6  0  0  0
 42 56  1  0  0  0  0
 43 40  1  0  0  0  0
 45 40  1  1  0  0  0
 45 48  1  0  0  0  0
 45 42  1  0  0  0  0
 46 39  1  6  0  0  0
 46 43  1  0  0  0  0
 47 44  1  1  0  0  0
 47 45  1  0  0  0  0
 49 52  2  0  0  0  0
 50 53  1  0  0  0  0
 50 52  1  0  0  0  0
 51 54  1  0  0  0  0
 52 55  1  0  0  0  0
 53 58  1  1  0  0  0
 53 56  1  0  0  0  0
 55 54  1  0  0  0  0
 55 57  1  1  0  0  0
 56 51  1  1  0  0  0
 59 58  1  0  0  0  0
 60 59  1  0  0  0  0
 62 61  1  6  0  0  0
 62 60  1  0  0  0  0
 63 64  1  0  0  0  0
 64 62  1  0  0  0  0
M  END
>  <MODEL>
2

>  <REMARK>
 VINA RESULT:      -5.7      3.151      6.923
  Name = 
  16 active torsions:
  status: ('A' for Active; 'I' for Inactive)
    1  A    between atoms: C_8  and  C_57
    2  A    between atoms: C_8  and  C_58
    3  A    between atoms: C_12  and  C_31
    4  A    between atoms: C_12  and  O_42
    5  A    between atoms: O_16  and  C_38
    6  A    between atoms: O_16  and  C_41
    7  A    between atoms: C_17  and  C_49
    8  A    between atoms: C_19  and  C_24
    9  A    between atoms: C_19  and  C_55
   10  A    between atoms: C_20  and  C_46
   11  A    between atoms: C_26  and  C_38
   12  A    between atoms: C_29  and  C_60
   13  A    between atoms: C_30  and  C_46
   14  A    between atoms: C_31  and  C_54
   15  A    between atoms: C_34  and  C_38
   16  A    between atoms: C_54  and  C_60
                            x       y       z     vdW  Elec       q    Type
                         _______ _______ _______ _____ _____    ______ ____

>  <TORSDO>
F 16

$$$$
=
 OpenBabel11062411053D

 64 70  0  0  1  0  0  0  0  0999 V2000
  189.3830  176.9170  139.0810 C   0  0  0  0  0  0  0  0  0  0  0  0
  189.6830  176.2860  137.9170 C   0  0  0  0  0  0  0  0  0  0  0  0
  190.8160  175.3430  137.6420 C   0  0  0  0  0  0  0  0  0  0  0  0
  191.5190  173.1830  136.5150 C   0  0  0  0  0  3  0  0  0  0  0  0
  188.7020  176.5660  136.9610 O   0  0  0  0  0  0  0  0  0  0  0  0
  192.4000  177.3460  138.8770 S   0  0  0  0  0  0  0  0  0  0  0  0
  190.1310  176.8720  140.3660 C   0  0  0  0  0  0  0  0  0  0  0  0
  192.2290  175.6420  138.1890 C   0  0  2  0  0  3  0  0  0  0  0  0
  187.6610  177.3600  137.4910 C   0  0  1  0  0  3  0  0  0  0  0  0
  193.6480  174.4670  136.4430 C   0  0  0  0  0  0  0  0  0  0  0  0
  188.0490  177.5860  138.9500 C   0  0  0  0  0  2  0  0  0  0  0  0
  193.3650  175.5130  137.2080 C   0  0  0  0  0  3  0  0  0  0  0  0
  194.8820  174.4780  135.7810 O   0  0  0  0  0  1  0  0  0  0  0  0
  192.8470  173.2320  136.3060 C   0  0  0  0  0  0  0  0  0  0  0  0
  191.4480  177.0040  140.3760 C   0  0  0  0  0  3  0  0  0  0  0  0
  190.5180  174.1860  136.9520 C   0  0  0  0  0  0  0  0  0  0  0  0
  193.5780  171.7910  135.6440 Cl  0  0  0  0  0  0  0  0  0  0  0  0
  189.0530  173.7190  136.7460 C   0  0  1  0  0  3  0  0  0  0  0  0
  188.6070  174.1040  135.4670 O   0  0  0  0  0  1  0  0  0  0  0  0
  188.7980  172.1900  136.9310 C   0  0  0  0  0  2  0  0  0  0  0  0
  187.4250  171.9670  137.0820 O   0  0  0  0  0  1  0  0  0  0  0  0
  189.3920  176.7690  141.6890 C   0  0  2  0  0  3  0  0  0  0  0  0
  188.2520  177.5400  141.6040 O   0  0  0  0  0  1  0  0  0  0  0  0
  191.4740  176.4040  142.8650 O   0  0  0  0  0  0  0  0  0  0  0  0
  190.4990  178.6610  144.8240 C   0  0  0  0  0  1  0  0  0  0  0  0
  190.2920  177.1650  142.8640 C   0  0  2  0  0  3  0  0  0  0  0  0
  191.6500  176.0440  144.2140 C   0  0  0  0  0  2  0  0  0  0  0  0
  190.4720  176.2740  144.9650 O   0  0  0  0  0  0  0  0  0  0  0  0
  189.8730  177.3480  144.3170 C   0  0  1  0  0  0  0  0  0  0  0  0
  188.3700  177.4870  144.6630 C   0  0  1  0  0  3  0  0  0  0  0  0
  187.5960  176.4250  144.1470 O   0  0  0  0  0  1  0  0  0  0  0  0
  188.2640  177.2760  147.0980 F   0  0  0  0  0  0  0  0  0  0  0  0
  187.8840  178.0920  146.0310 C   0  0  0  0  0  3  0  0  0  0  0  0
  186.5090  178.2560  146.0380 F   0  0  0  0  0  0  0  0  0  0  0  0
  187.4240  178.7150  136.7290 C   0  0  1  0  0  0  0  0  0  0  0  0
  188.5360  179.5680  136.7990 F   0  0  0  0  0  0  0  0  0  0  0  0
  187.2160  177.1050  134.8880 F   0  0  0  0  0  0  0  0  0  0  0  0
  187.2360  178.4480  135.2300 C   0  0  0  0  0  2  0  0  0  0  0  0
  186.2660  179.3540  137.2540 O   0  0  0  0  0  0  0  0  0  0  0  0
  183.0800  178.1710  138.4710 C   0  0  0  0  0  2  0  0  0  0  0  0
  184.7390  177.9470  136.1950 O   0  0  0  0  0  0  0  0  0  0  0  0
  182.7920  175.6300  138.7280 C   0  0  2  0  0  3  0  0  0  0  0  0
  184.1400  178.9670  138.2740 C   0  0  0  0  0  2  0  0  0  0  0  0
  183.0260  176.6590  135.3740 O   0  0  0  0  0  1  0  0  0  0  0  0
  183.1960  176.8060  137.8530 C   0  0  1  0  0  0  0  0  0  0  0  0
  185.2580  178.4000  137.4320 C   0  0  2  0  0  3  0  0  0  0  0  0
  183.9200  176.8170  136.4460 C   0  0  2  0  0  3  0  0  0  0  0  0
  184.1080  176.0780  138.6440 O   0  0  0  0  0  0  0  0  0  0  0  0
  180.6530  170.9840  135.6520 O   0  0  0  0  0  0  0  0  0  0  0  0
  180.7000  172.6680  137.2730 N   0  0  0  0  0  2  0  0  0  0  0  0
  183.2870  174.2080  136.7720 O   0  0  0  0  0  0  0  0  0  0  0  0
  181.3040  171.9440  136.1860 C   0  0  0  0  0  0  0  0  0  0  0  0
  181.0470  174.0540  137.6850 C   0  0  1  0  0  3  0  0  0  0  0  0
  183.5340  172.8660  136.5030 C   0  0  0  0  0  2  0  0  0  0  0  0
  182.5350  172.4280  135.4530 C   0  0  1  0  0  3  0  0  0  0  0  0
  182.5710  174.2600  137.9770 C   0  0  2  0  0  3  0  0  0  0  0  0
  183.0860  171.4570  134.6180 F   0  0  0  0  0  0  0  0  0  0  0  0
  180.5170  175.0170  136.6170 C   0  0  0  0  0  2  0  0  0  0  0  0
  179.3200  175.8070  137.1230 C   0  0  0  0  0  2  0  0  0  0  0  0
  179.1240  175.4660  138.5800 C   0  0  0  0  0  2  0  0  0  0  0  0
  179.3470  176.5620  140.8890 C   0  0  0  0  0  1  0  0  0  0  0  0
  178.9390  176.7320  139.4280 C   0  0  1  0  0  3  0  0  0  0  0  0
  179.5070  178.8810  139.6350 C   0  0  0  0  0  1  0  0  0  0  0  0
  179.7470  177.7340  138.8690 O   0  0  0  0  0  0  0  0  0  0  0  0
  1  7  1  0  0  0  0
  2  1  2  0  0  0  0
  3  2  1  0  0  0  0
  3  8  1  0  0  0  0
  4 16  1  0  0  0  0
  5  9  1  0  0  0  0
  5  2  1  0  0  0  0
  6 15  1  0  0  0  0
  7 15  2  0  0  0  0
  7 22  1  0  0  0  0
  8 12  1  6  0  0  0
  8  6  1  0  0  0  0
  9 35  1  6  0  0  0
  9 11  1  0  0  0  0
 10 12  2  0  0  0  0
 11  1  1  0  0  0  0
 13 10  1  0  0  0  0
 14 10  1  0  0  0  0
 14  4  2  0  0  0  0
 16  3  2  0  0  0  0
 17 14  1  0  0  0  0
 18 19  1  6  0  0  0
 18 20  1  0  0  0  0
 18 16  1  0  0  0  0
 20 21  1  0  0  0  0
 22 23  1  6  0  0  0
 24 27  1  0  0  0  0
 26 22  1  6  0  0  0
 26 24  1  0  0  0  0
 26 29  1  0  0  0  0
 27 28  1  0  0  0  0
 29 30  1  0  0  0  0
 29 25  1  1  0  0  0
 29 28  1  0  0  0  0
 30 31  1  1  0  0  0
 30 33  1  0  0  0  0
 33 34  1  0  0  0  0
 33 32  1  0  0  0  0
 35 36  1  1  0  0  0
 35 39  1  0  0  0  0
 37 38  1  0  0  0  0
 38 35  1  0  0  0  0
 41 47  1  0  0  0  0
 41 46  1  0  0  0  0
 42 48  1  1  0  0  0
 43 40  1  0  0  0  0
 45 40  1  1  0  0  0
 45 48  1  0  0  0  0
 45 42  1  0  0  0  0
 46 39  1  6  0  0  0
 46 43  1  0  0  0  0
 47 44  1  6  0  0  0
 47 45  1  0  0  0  0
 49 52  2  0  0  0  0
 50 53  1  0  0  0  0
 52 50  1  0  0  0  0
 53 58  1  6  0  0  0
 53 56  1  0  0  0  0
 54 51  1  0  0  0  0
 55 57  1  1  0  0  0
 55 52  1  0  0  0  0
 55 54  1  0  0  0  0
 56 51  1  6  0  0  0
 56 42  1  0  0  0  0
 58 59  1  0  0  0  0
 59 60  1  0  0  0  0
 60 62  1  0  0  0  0
 62 61  1  1  0  0  0
 64 62  1  0  0  0  0
 64 63  1  0  0  0  0
M  END
>  <MODEL>
3

>  <REMARK>
 VINA RESULT:      -5.3      3.967     10.633
  Name = 
  16 active torsions:
  status: ('A' for Active; 'I' for Inactive)
    1  A    between atoms: C_8  and  C_57
    2  A    between atoms: C_8  and  C_58
    3  A    between atoms: C_12  and  C_31
    4  A    between atoms: C_12  and  O_42
    5  A    between atoms: O_16  and  C_38
    6  A    between atoms: O_16  and  C_41
    7  A    between atoms: C_17  and  C_49
    8  A    between atoms: C_19  and  C_24
    9  A    between atoms: C_19  and  C_55
   10  A    between atoms: C_20  and  C_46
   11  A    between atoms: C_26  and  C_38
   12  A    between atoms: C_29  and  C_60
   13  A    between atoms: C_30  and  C_46
   14  A    between atoms: C_31  and  C_54
   15  A    between atoms: C_34  and  C_38
   16  A    between atoms: C_54  and  C_60
                            x       y       z     vdW  Elec       q    Type
                         _______ _______ _______ _____ _____    ______ ____

>  <TORSDO>
F 16

$$$$
=
 OpenBabel11062411053D

 64 70  0  0  1  0  0  0  0  0999 V2000
  183.9590  176.8460  136.2690 C   0  0  0  0  0  0  0  0  0  0  0  0
  183.8330  178.0310  136.9190 C   0  0  0  0  0  0  0  0  0  0  0  0
  182.5750  178.7120  137.3660 C   0  0  0  0  0  0  0  0  0  0  0  0
  181.4370  180.0040  139.2280 C   0  0  0  0  0  3  0  0  0  0  0  0
  185.1000  178.5400  137.2230 O   0  0  0  0  0  0  0  0  0  0  0  0
  181.7000  178.1950  134.7170 S   0  0  0  0  0  0  0  0  0  0  0  0
  182.8770  175.9460  135.7890 C   0  0  0  0  0  0  0  0  0  0  0  0
  181.3400  178.7500  136.4400 C   0  0  2  0  0  3  0  0  0  0  0  0
  186.1310  177.6580  136.8290 C   0  0  1  0  0  3  0  0  0  0  0  0
  180.2440  180.8980  137.2360 C   0  0  0  0  0  0  0  0  0  0  0  0
  185.4070  176.4610  136.2190 C   0  0  0  0  0  2  0  0  0  0  0  0
  180.6720  180.0910  136.2740 C   0  0  0  0  0  3  0  0  0  0  0  0
  179.4470  181.9820  136.8500 O   0  0  0  0  0  1  0  0  0  0  0  0
  180.4230  180.7070  138.6910 C   0  0  0  0  0  0  0  0  0  0  0  0
  181.8330  176.4430  135.1450 C   0  0  0  0  0  3  0  0  0  0  0  0
  182.5570  179.2250  138.6470 C   0  0  0  0  0  0  0  0  0  0  0  0
  179.4150  181.5860  139.8130 Cl  0  0  0  0  0  0  0  0  0  0  0  0
  183.6460  178.8490  139.6850 C   0  0  1  0  0  3  0  0  0  0  0  0
  184.6880  179.7960  139.6440 O   0  0  0  0  0  1  0  0  0  0  0  0
  183.1540  178.7060  141.1600 C   0  0  0  0  0  2  0  0  0  0  0  0
  182.4320  177.5140  141.2900 O   0  0  0  0  0  1  0  0  0  0  0  0
  182.9960  174.4400  135.9470 C   0  0  2  0  0  3  0  0  0  0  0  0
  183.5390  173.9290  134.7870 O   0  0  0  0  0  1  0  0  0  0  0  0
  181.0280  173.2780  135.1540 O   0  0  0  0  0  0  0  0  0  0  0  0
  180.0710  173.3260  138.1480 C   0  0  0  0  0  1  0  0  0  0  0  0
  181.6460  173.8060  136.3010 C   0  0  2  0  0  3  0  0  0  0  0  0
  179.6840  173.6780  135.2710 C   0  0  0  0  0  2  0  0  0  0  0  0
  179.5330  174.6850  136.2550 O   0  0  0  0  0  0  0  0  0  0  0  0
  180.5490  174.4120  137.1650 C   0  0  1  0  0  0  0  0  0  0  0  0
  180.8760  175.6250  138.0700 C   0  0  1  0  0  3  0  0  0  0  0  0
  179.8090  176.5460  138.1470 O   0  0  0  0  0  1  0  0  0  0  0  0
  183.0790  175.1730  139.0350 F   0  0  0  0  0  0  0  0  0  0  0  0
  181.7580  175.4820  139.3650 C   0  0  0  0  0  3  0  0  0  0  0  0
  181.2480  174.5070  140.2050 F   0  0  0  0  0  0  0  0  0  0  0  0
  187.1770  178.2830  135.8350 C   0  0  1  0  0  0  0  0  0  0  0  0
  186.6060  178.6050  134.5940 F   0  0  0  0  0  0  0  0  0  0  0  0
  188.1230  179.5680  137.7000 F   0  0  0  0  0  0  0  0  0  0  0  0
  187.6900  179.6200  136.3850 C   0  0  0  0  0  2  0  0  0  0  0  0
  188.2640  177.3800  135.6690 O   0  0  0  0  0  0  0  0  0  0  0  0
  189.2390  175.1130  138.3030 C   0  0  0  0  0  2  0  0  0  0  0  0
  190.1230  177.4960  137.0700 O   0  0  0  0  0  0  0  0  0  0  0  0
  189.4000  176.0750  140.6800 C   0  0  2  0  0  3  0  0  0  0  0  0
  188.7160  175.5640  137.1550 C   0  0  0  0  0  2  0  0  0  0  0  0
  191.8890  177.3060  138.5230 O   0  0  0  0  0  1  0  0  0  0  0  0
  189.7770  176.1820  139.2110 C   0  0  1  0  0  0  0  0  0  0  0  0
  188.7860  177.0550  136.9250 C   0  0  2  0  0  3  0  0  0  0  0  0
  190.4880  177.3630  138.4340 C   0  0  2  0  0  3  0  0  0  0  0  0
  188.6620  176.8350  139.7760 O   0  0  0  0  0  0  0  0  0  0  0  0
  191.3200  180.0790  144.6680 O   0  0  0  0  0  0  0  0  0  0  0  0
  190.2020  179.2710  142.7810 N   0  0  0  0  0  2  0  0  0  0  0  0
  190.6350  176.2500  142.8100 O   0  0  0  0  0  0  0  0  0  0  0  0
  191.0490  179.0740  143.9280 C   0  0  0  0  0  0  0  0  0  0  0  0
  189.4000  178.2140  142.1100 C   0  0  1  0  0  3  0  0  0  0  0  0
  191.7970  176.8490  143.2880 C   0  0  0  0  0  2  0  0  0  0  0  0
  191.4030  177.7080  144.4700 C   0  0  1  0  0  3  0  0  0  0  0  0
  190.2420  176.9680  141.6720 C   0  0  2  0  0  3  0  0  0  0  0  0
  192.4250  177.7490  145.4170 F   0  0  0  0  0  0  0  0  0  0  0  0
  188.2340  177.8410  143.0310 C   0  0  0  0  0  2  0  0  0  0  0  0
  186.8920  178.1010  142.3660 C   0  0  0  0  0  2  0  0  0  0  0  0
  185.8120  177.6030  143.2940 C   0  0  0  0  0  2  0  0  0  0  0  0
  184.6130  179.2980  144.8020 C   0  0  0  0  0  1  0  0  0  0  0  0
  185.8160  178.3760  144.6210 C   0  0  1  0  0  3  0  0  0  0  0  0
  187.0200  177.5740  146.3190 C   0  0  0  0  0  1  0  0  0  0  0  0
  185.7960  177.4320  145.6580 O   0  0  0  0  0  0  0  0  0  0  0  0
  1  2  2  0  0  0  0
  2  5  1  0  0  0  0
  2  3  1  0  0  0  0
  3 16  2  0  0  0  0
  6 15  1  0  0  0  0
  6  8  1  0  0  0  0
  7 22  1  0  0  0  0
  7  1  1  0  0  0  0
  8 12  1  6  0  0  0
  8  3  1  0  0  0  0
  9 35  1  6  0  0  0
  9  5  1  0  0  0  0
 10 14  1  0  0  0  0
 11  1  1  0  0  0  0
 11  9  1  0  0  0  0
 12 10  2  0  0  0  0
 13 10  1  0  0  0  0
 14  4  2  0  0  0  0
 14 17  1  0  0  0  0
 15  7  2  0  0  0  0
 16  4  1  0  0  0  0
 16 18  1  0  0  0  0
 18 19  1  1  0  0  0
 18 20  1  0  0  0  0
 20 21  1  0  0  0  0
 22 23  1  6  0  0  0
 24 27  1  0  0  0  0
 24 26  1  0  0  0  0
 26 22  1  6  0  0  0
 26 29  1  0  0  0  0
 27 28  1  0  0  0  0
 28 29  1  0  0  0  0
 29 30  1  0  0  0  0
 29 25  1  1  0  0  0
 30 31  1  1  0  0  0
 30 33  1  0  0  0  0
 32 33  1  0  0  0  0
 33 34  1  0  0  0  0
 35 36  1  6  0  0  0
 35 38  1  0  0  0  0
 38 37  1  0  0  0  0
 39 35  1  0  0  0  0
 41 47  1  0  0  0  0
 42 48  1  6  0  0  0
 42 56  1  0  0  0  0
 43 40  1  0  0  0  0
 45 40  1  6  0  0  0
 45 48  1  0  0  0  0
 45 42  1  0  0  0  0
 46 39  1  6  0  0  0
 46 41  1  0  0  0  0
 46 43  1  0  0  0  0
 47 44  1  6  0  0  0
 47 45  1  0  0  0  0
 50 52  1  0  0  0  0
 51 54  1  0  0  0  0
 52 55  1  0  0  0  0
 52 49  2  0  0  0  0
 53 50  1  0  0  0  0
 53 58  1  1  0  0  0
 54 55  1  0  0  0  0
 55 57  1  1  0  0  0
 56 53  1  0  0  0  0
 56 51  1  1  0  0  0
 59 58  1  0  0  0  0
 59 60  1  0  0  0  0
 60 62  1  0  0  0  0
 62 61  1  6  0  0  0
 62 64  1  0  0  0  0
 64 63  1  0  0  0  0
M  END
>  <MODEL>
4

>  <REMARK>
 VINA RESULT:      -5.2      2.100      3.531
  Name = 
  16 active torsions:
  status: ('A' for Active; 'I' for Inactive)
    1  A    between atoms: C_8  and  C_57
    2  A    between atoms: C_8  and  C_58
    3  A    between atoms: C_12  and  C_31
    4  A    between atoms: C_12  and  O_42
    5  A    between atoms: O_16  and  C_38
    6  A    between atoms: O_16  and  C_41
    7  A    between atoms: C_17  and  C_49
    8  A    between atoms: C_19  and  C_24
    9  A    between atoms: C_19  and  C_55
   10  A    between atoms: C_20  and  C_46
   11  A    between atoms: C_26  and  C_38
   12  A    between atoms: C_29  and  C_60
   13  A    between atoms: C_30  and  C_46
   14  A    between atoms: C_31  and  C_54
   15  A    between atoms: C_34  and  C_38
   16  A    between atoms: C_54  and  C_60
                            x       y       z     vdW  Elec       q    Type
                         _______ _______ _______ _____ _____    ______ ____

>  <TORSDO>
F 16

$$$$
=
 OpenBabel11062411053D

 64 70  0  0  1  0  0  0  0  0999 V2000
  183.6360  178.4670  140.3600 C   0  0  0  0  0  0  0  0  0  0  0  0
  182.3570  178.2300  139.9700 C   0  0  0  0  0  0  0  0  0  0  0  0
  181.8040  178.2070  138.5780 C   0  0  0  0  0  0  0  0  0  0  0  0
  180.2620  177.0160  136.9530 C   0  0  0  0  0  3  0  0  0  0  0  0
  181.5770  177.9040  141.0840 O   0  0  0  0  0  0  0  0  0  0  0  0
  183.1680  180.6790  138.3050 S   0  0  0  0  0  0  0  0  0  0  0  0
  184.8030  178.8140  139.5060 C   0  0  0  0  0  0  0  0  0  0  0  0
  182.2310  179.2790  137.5520 C   0  0  2  0  0  3  0  0  0  0  0  0
  182.3450  177.8510  142.2690 C   0  0  1  0  0  3  0  0  0  0  0  0
  180.1660  179.3420  136.0760 C   0  0  0  0  0  0  0  0  0  0  0  0
  183.7680  178.1770  141.8240 C   0  0  0  0  0  2  0  0  0  0  0  0
  181.1200  179.9400  136.7760 C   0  0  0  0  0  3  0  0  0  0  0  0
  179.3800  180.1530  135.2480 O   0  0  0  0  0  1  0  0  0  0  0  0
  179.9160  177.8880  135.9880 C   0  0  0  0  0  0  0  0  0  0  0  0
  184.6870  179.7290  138.5570 C   0  0  0  0  0  3  0  0  0  0  0  0
  180.9700  177.1580  138.2490 C   0  0  0  0  0  0  0  0  0  0  0  0
  178.9470  177.2490  134.6840 Cl  0  0  0  0  0  0  0  0  0  0  0  0
  180.8550  175.9000  139.1510 C   0  0  1  0  0  3  0  0  0  0  0  0
  180.1000  176.2070  140.3000 O   0  0  0  0  0  1  0  0  0  0  0  0
  180.2450  174.6340  138.4700 C   0  0  0  0  0  2  0  0  0  0  0  0
  180.0560  173.6390  139.4350 O   0  0  0  0  0  1  0  0  0  0  0  0
  186.1650  178.1950  139.7680 C   0  0  2  0  0  3  0  0  0  0  0  0
  186.8760  179.0510  140.5820 O   0  0  0  0  0  1  0  0  0  0  0  0
  187.6090  178.9970  138.0010 O   0  0  0  0  0  0  0  0  0  0  0  0
  187.3340  176.1140  136.7780 C   0  0  0  0  0  1  0  0  0  0  0  0
  186.8950  177.8750  138.4590 C   0  0  2  0  0  3  0  0  0  0  0  0
  187.3430  179.0330  136.6190 C   0  0  0  0  0  2  0  0  0  0  0  0
  186.2550  178.1900  136.2840 O   0  0  0  0  0  0  0  0  0  0  0  0
  186.3190  177.1780  137.2350 C   0  0  1  0  0  0  0  0  0  0  0  0
  184.9860  176.3990  137.3620 C   0  0  1  0  0  3  0  0  0  0  0  0
  183.9720  176.9240  136.5310 O   0  0  0  0  0  1  0  0  0  0  0  0
  185.0850  174.1580  136.3860 F   0  0  0  0  0  0  0  0  0  0  0  0
  184.9500  174.8440  137.5940 C   0  0  0  0  0  3  0  0  0  0  0  0
  183.7720  174.4640  138.2140 F   0  0  0  0  0  0  0  0  0  0  0  0
  181.8490  178.8150  143.4080 C   0  0  1  0  0  0  0  0  0  0  0  0
  182.3090  180.1290  143.2330 F   0  0  0  0  0  0  0  0  0  0  0  0
  179.6940  178.6390  144.5700 F   0  0  0  0  0  0  0  0  0  0  0  0
  180.3200  178.9310  143.3690 C   0  0  0  0  0  2  0  0  0  0  0  0
  182.2620  178.3020  144.6690 O   0  0  0  0  0  0  0  0  0  0  0  0
  185.4650  179.9010  144.2080 C   0  0  0  0  0  2  0  0  0  0  0  0
  184.0940  178.3250  146.1100 O   0  0  0  0  0  0  0  0  0  0  0  0
  187.5410  178.3870  144.1880 C   0  0  2  0  0  3  0  0  0  0  0  0
  184.1480  179.6670  144.1310 C   0  0  0  0  0  2  0  0  0  0  0  0
  186.0100  178.5860  147.3470 O   0  0  0  0  0  1  0  0  0  0  0  0
  186.2570  178.8160  144.8800 C   0  0  1  0  0  0  0  0  0  0  0  0
  183.6550  178.3890  144.7660 C   0  0  2  0  0  3  0  0  0  0  0  0
  185.5030  178.1600  146.1070 C   0  0  2  0  0  3  0  0  0  0  0  0
  186.3260  177.7400  143.9720 O   0  0  0  0  0  0  0  0  0  0  0  0
  192.2210  175.4340  146.4250 O   0  0  0  0  0  0  0  0  0  0  0  0
  190.6540  176.1140  144.8280 N   0  0  0  0  0  2  0  0  0  0  0  0
  188.9210  178.2010  146.2260 O   0  0  0  0  0  0  0  0  0  0  0  0
  191.1850  176.1360  146.1660 C   0  0  0  0  0  0  0  0  0  0  0  0
  189.8100  177.1750  144.2190 C   0  0  1  0  0  3  0  0  0  0  0  0
  189.2560  177.2310  147.1650 C   0  0  0  0  0  2  0  0  0  0  0  0
  190.7670  177.1500  147.2050 C   0  0  1  0  0  3  0  0  0  0  0  0
  188.5360  177.5260  145.0590 C   0  0  2  0  0  3  0  0  0  0  0  0
  191.2140  176.8300  148.4870 F   0  0  0  0  0  0  0  0  0  0  0  0
  190.6950  178.3980  143.9550 C   0  0  0  0  0  2  0  0  0  0  0  0
  191.8770  178.0490  143.0630 C   0  0  0  0  0  2  0  0  0  0  0  0
  191.4500  178.2510  141.6300 C   0  0  0  0  0  2  0  0  0  0  0  0
  189.6020  176.7680  140.6460 C   0  0  0  0  0  1  0  0  0  0  0  0
  191.0870  176.9170  140.9620 C   0  0  1  0  0  3  0  0  0  0  0  0
  190.8680  177.1760  138.7570 C   0  0  0  0  0  1  0  0  0  0  0  0
  191.7940  176.8470  139.7530 O   0  0  0  0  0  0  0  0  0  0  0  0
  1 11  1  0  0  0  0
  2  1  2  0  0  0  0
  2  5  1  0  0  0  0
  3  2  1  0  0  0  0
  4 16  1  0  0  0  0
  5  9  1  0  0  0  0
  6 15  1  0  0  0  0
  7 22  1  0  0  0  0
  7  1  1  0  0  0  0
  8 12  1  1  0  0  0
  8  6  1  0  0  0  0
  8  3  1  0  0  0  0
  9 35  1  1  0  0  0
 10 12  2  0  0  0  0
 11  9  1  0  0  0  0
 13 10  1  0  0  0  0
 14 10  1  0  0  0  0
 14  4  2  0  0  0  0
 15  7  2  0  0  0  0
 16  3  2  0  0  0  0
 16 18  1  0  0  0  0
 17 14  1  0  0  0  0
 18 19  1  1  0  0  0
 20 18  1  0  0  0  0
 20 21  1  0  0  0  0
 22 23  1  1  0  0  0
 24 26  1  0  0  0  0
 26 22  1  1  0  0  0
 27 24  1  0  0  0  0
 28 27  1  0  0  0  0
 28 29  1  0  0  0  0
 29 25  1  6  0  0  0
 29 30  1  0  0  0  0
 29 26  1  0  0  0  0
 30 31  1  6  0  0  0
 30 33  1  0  0  0  0
 32 33  1  0  0  0  0
 33 34  1  0  0  0  0
 35 36  1  6  0  0  0
 35 39  1  0  0  0  0
 38 35  1  0  0  0  0
 38 37  1  0  0  0  0
 42 48  1  6  0  0  0
 42 45  1  0  0  0  0
 42 56  1  0  0  0  0
 43 40  1  0  0  0  0
 43 46  1  0  0  0  0
 45 40  1  6  0  0  0
 45 47  1  0  0  0  0
 46 39  1  1  0  0  0
 46 41  1  0  0  0  0
 47 41  1  0  0  0  0
 47 44  1  1  0  0  0
 48 45  1  0  0  0  0
 50 52  1  0  0  0  0
 51 54  1  0  0  0  0
 52 49  2  0  0  0  0
 52 55  1  0  0  0  0
 53 58  1  1  0  0  0
 53 50  1  0  0  0  0
 53 56  1  0  0  0  0
 54 55  1  0  0  0  0
 55 57  1  1  0  0  0
 56 51  1  1  0  0  0
 59 58  1  0  0  0  0
 60 59  1  0  0  0  0
 62 61  1  6  0  0  0
 62 60  1  0  0  0  0
 63 64  1  0  0  0  0
 64 62  1  0  0  0  0
M  END
>  <MODEL>
5

>  <REMARK>
 VINA RESULT:      -4.8      2.564      6.006
  Name = 
  16 active torsions:
  status: ('A' for Active; 'I' for Inactive)
    1  A    between atoms: C_8  and  C_57
    2  A    between atoms: C_8  and  C_58
    3  A    between atoms: C_12  and  C_31
    4  A    between atoms: C_12  and  O_42
    5  A    between atoms: O_16  and  C_38
    6  A    between atoms: O_16  and  C_41
    7  A    between atoms: C_17  and  C_49
    8  A    between atoms: C_19  and  C_24
    9  A    between atoms: C_19  and  C_55
   10  A    between atoms: C_20  and  C_46
   11  A    between atoms: C_26  and  C_38
   12  A    between atoms: C_29  and  C_60
   13  A    between atoms: C_30  and  C_46
   14  A    between atoms: C_31  and  C_54
   15  A    between atoms: C_34  and  C_38
   16  A    between atoms: C_54  and  C_60
                            x       y       z     vdW  Elec       q    Type
                         _______ _______ _______ _____ _____    ______ ____

>  <TORSDO>
F 16

$$$$
=
 OpenBabel11062411053D

 64 70  0  0  1  0  0  0  0  0999 V2000
  190.2360  176.7620  140.2500 C   0  0  0  0  0  0  0  0  0  0  0  0
  190.3940  176.4850  138.9300 C   0  0  0  0  0  0  0  0  0  0  0  0
  191.5930  175.9010  138.2450 C   0  0  0  0  0  0  0  0  0  0  0  0
  192.4150  174.2520  136.5030 C   0  0  0  0  0  3  0  0  0  0  0  0
  189.2030  176.7460  138.2460 O   0  0  0  0  0  0  0  0  0  0  0  0
  193.0220  177.8810  139.6880 S   0  0  0  0  0  0  0  0  0  0  0  0
  191.2300  176.6010  141.3440 C   0  0  0  0  0  0  0  0  0  0  0  0
  193.0130  176.3760  138.6200 C   0  0  2  0  0  3  0  0  0  0  0  0
  188.1710  177.1540  139.1210 C   0  0  1  0  0  3  0  0  0  0  0  0
  194.2240  175.9590  136.4280 C   0  0  0  0  0  0  0  0  0  0  0  0
  188.8070  177.1320  140.5090 C   0  0  0  0  0  2  0  0  0  0  0  0
  193.9260  176.7200  137.4720 C   0  0  0  0  0  3  0  0  0  0  0  0
  195.2720  176.3870  135.6050 O   0  0  0  0  0  1  0  0  0  0  0  0
  193.6410  174.6390  136.1060 C   0  0  0  0  0  0  0  0  0  0  0  0
  192.4760  177.0150  141.1790 C   0  0  0  0  0  3  0  0  0  0  0  0
  191.3660  174.8870  137.3370 C   0  0  0  0  0  0  0  0  0  0  0  0
  194.4610  173.5770  134.9880 Cl  0  0  0  0  0  0  0  0  0  0  0  0
  189.9950  174.1660  137.2520 C   0  0  1  0  0  3  0  0  0  0  0  0
  189.0590  175.0000  136.6110 O   0  0  0  0  0  1  0  0  0  0  0  0
  190.0050  172.7770  136.5380 C   0  0  0  0  0  2  0  0  0  0  0  0
  190.1950  172.9670  135.1650 O   0  0  0  0  0  1  0  0  0  0  0  0
  190.8110  176.0490  142.6960 C   0  0  2  0  0  3  0  0  0  0  0  0
  189.4410  175.8910  142.6890 O   0  0  0  0  0  1  0  0  0  0  0  0
  192.0510  176.1950  144.7680 O   0  0  0  0  0  0  0  0  0  0  0  0
  191.3000  179.2470  144.7370 C   0  0  0  0  0  1  0  0  0  0  0  0
  191.3010  176.9410  143.8410 C   0  0  2  0  0  3  0  0  0  0  0  0
  191.5860  176.6370  146.0210 C   0  0  0  0  0  2  0  0  0  0  0  0
  190.3800  177.3670  145.8930 O   0  0  0  0  0  0  0  0  0  0  0  0
  190.4790  177.9480  144.6330 C   0  0  1  0  0  0  0  0  0  0  0  0
  189.1070  178.4090  144.0840 C   0  0  1  0  0  3  0  0  0  0  0  0
  189.2090  179.0090  142.8090 O   0  0  0  0  0  1  0  0  0  0  0  0
  187.0260  177.4770  143.1970 F   0  0  0  0  0  0  0  0  0  0  0  0
  187.7860  177.6030  144.3620 C   0  0  0  0  0  3  0  0  0  0  0  0
  187.0290  178.2170  145.3460 F   0  0  0  0  0  0  0  0  0  0  0  0
  187.5470  178.5570  138.7820 C   0  0  1  0  0  0  0  0  0  0  0  0
  188.5240  179.5090  138.4540 F   0  0  0  0  0  0  0  0  0  0  0  0
  186.9430  177.3500  136.7320 F   0  0  0  0  0  0  0  0  0  0  0  0
  186.6710  178.4520  137.5260 C   0  0  0  0  0  2  0  0  0  0  0  0
  186.7620  179.0000  139.8820 O   0  0  0  0  0  0  0  0  0  0  0  0
  183.3390  178.5090  140.9170 C   0  0  0  0  0  2  0  0  0  0  0  0
  184.8330  179.0240  138.5750 O   0  0  0  0  0  0  0  0  0  0  0  0
  182.0750  176.5230  139.8850 C   0  0  2  0  0  3  0  0  0  0  0  0
  184.6300  178.8660  140.9520 C   0  0  0  0  0  2  0  0  0  0  0  0
  182.7730  179.0700  137.5630 O   0  0  0  0  0  1  0  0  0  0  0  0
  182.9280  177.7650  139.6770 C   0  0  1  0  0  0  0  0  0  0  0  0
  185.4580  178.5160  139.7390 C   0  0  2  0  0  3  0  0  0  0  0  0
  183.6320  178.2990  138.3650 C   0  0  2  0  0  3  0  0  0  0  0  0
  183.4630  176.4650  139.7860 O   0  0  0  0  0  0  0  0  0  0  0  0
  180.6880  174.0650  134.6260 O   0  0  0  0  0  0  0  0  0  0  0  0
  181.8200  175.4410  136.1390 N   0  0  0  0  0  2  0  0  0  0  0  0
  180.6340  174.7910  138.8750 O   0  0  0  0  0  0  0  0  0  0  0  0
  180.7980  174.4770  135.8300 C   0  0  0  0  0  0  0  0  0  0  0  0
  182.4140  175.6670  137.4830 C   0  0  1  0  0  3  0  0  0  0  0  0
  179.6080  174.7150  137.9390 C   0  0  0  0  0  2  0  0  0  0  0  0
  180.0350  173.7130  136.8880 C   0  0  1  0  0  3  0  0  0  0  0  0
  181.3550  175.9620  138.5980 C   0  0  2  0  0  3  0  0  0  0  0  0
  178.9320  173.0300  136.3750 F   0  0  0  0  0  0  0  0  0  0  0  0
  183.3040  174.4670  137.8200 C   0  0  0  0  0  2  0  0  0  0  0  0
  184.5400  174.4220  136.9350 C   0  0  0  0  0  2  0  0  0  0  0  0
  184.8270  172.9750  136.6160 C   0  0  0  0  0  2  0  0  0  0  0  0
  183.3600  171.8000  134.8700 C   0  0  0  0  0  1  0  0  0  0  0  0
  183.5340  172.1990  136.3320 C   0  0  1  0  0  3  0  0  0  0  0  0
  183.9070  170.0030  136.2020 C   0  0  0  0  0  1  0  0  0  0  0  0
  183.5720  171.0240  137.0980 O   0  0  0  0  0  0  0  0  0  0  0  0
  1 11  1  0  0  0  0
  1  7  1  0  0  0  0
  2  1  2  0  0  0  0
  3  8  1  0  0  0  0
  3  2  1  0  0  0  0
  4 16  1  0  0  0  0
  5  2  1  0  0  0  0
  5  9  1  0  0  0  0
  6 15  1  0  0  0  0
  7 22  1  0  0  0  0
  8 12  1  6  0  0  0
  8  6  1  0  0  0  0
  9 35  1  6  0  0  0
  9 11  1  0  0  0  0
 10 12  2  0  0  0  0
 13 10  1  0  0  0  0
 14 10  1  0  0  0  0
 14  4  2  0  0  0  0
 15  7  2  0  0  0  0
 16  3  2  0  0  0  0
 17 14  1  0  0  0  0
 18 19  1  6  0  0  0
 18 16  1  0  0  0  0
 20 18  1  0  0  0  0
 21 20  1  0  0  0  0
 22 23  1  6  0  0  0
 24 27  1  0  0  0  0
 26 22  1  1  0  0  0
 26 29  1  0  0  0  0
 26 24  1  0  0  0  0
 28 27  1  0  0  0  0
 29 25  1  1  0  0  0
 29 28  1  0  0  0  0
 30 31  1  6  0  0  0
 30 33  1  0  0  0  0
 30 29  1  0  0  0  0
 32 33  1  0  0  0  0
 33 34  1  0  0  0  0
 35 36  1  6  0  0  0
 35 39  1  0  0  0  0
 37 38  1  0  0  0  0
 38 35  1  0  0  0  0
 40 43  1  0  0  0  0
 41 46  1  0  0  0  0
 42 48  1  6  0  0  0
 45 48  1  0  0  0  0
 45 42  1  0  0  0  0
 45 40  1  1  0  0  0
 46 39  1  1  0  0  0
 46 43  1  0  0  0  0
 47 44  1  1  0  0  0
 47 41  1  0  0  0  0
 47 45  1  0  0  0  0
 49 52  2  0  0  0  0
 50 53  1  0  0  0  0
 52 50  1  0  0  0  0
 52 55  1  0  0  0  0
 53 58  1  1  0  0  0
 53 56  1  0  0  0  0
 54 51  1  0  0  0  0
 55 57  1  6  0  0  0
 55 54  1  0  0  0  0
 56 51  1  1  0  0  0
 56 42  1  0  0  0  0
 59 58  1  0  0  0  0
 60 59  1  0  0  0  0
 62 61  1  6  0  0  0
 62 60  1  0  0  0  0
 62 64  1  0  0  0  0
 63 64  1  0  0  0  0
M  END
>  <MODEL>
6

>  <REMARK>
 VINA RESULT:      -4.5      3.939     10.589
  Name = 
  16 active torsions:
  status: ('A' for Active; 'I' for Inactive)
    1  A    between atoms: C_8  and  C_57
    2  A    between atoms: C_8  and  C_58
    3  A    between atoms: C_12  and  C_31
    4  A    between atoms: C_12  and  O_42
    5  A    between atoms: O_16  and  C_38
    6  A    between atoms: O_16  and  C_41
    7  A    between atoms: C_17  and  C_49
    8  A    between atoms: C_19  and  C_24
    9  A    between atoms: C_19  and  C_55
   10  A    between atoms: C_20  and  C_46
   11  A    between atoms: C_26  and  C_38
   12  A    between atoms: C_29  and  C_60
   13  A    between atoms: C_30  and  C_46
   14  A    between atoms: C_31  and  C_54
   15  A    between atoms: C_34  and  C_38
   16  A    between atoms: C_54  and  C_60
                            x       y       z     vdW  Elec       q    Type
                         _______ _______ _______ _____ _____    ______ ____

>  <TORSDO>
F 16

$$$$
=
 OpenBabel11062411053D

 64 70  0  0  1  0  0  0  0  0999 V2000
  189.4690  176.4550  137.0840 C   0  0  0  0  0  0  0  0  0  0  0  0
  190.6720  175.9130  137.4050 C   0  0  0  0  0  0  0  0  0  0  0  0
  191.4860  174.9350  136.6130 C   0  0  0  0  0  0  0  0  0  0  0  0
  193.8090  174.2970  135.8200 C   0  0  0  0  0  3  0  0  0  0  0  0
  191.1390  176.4730  138.5990 O   0  0  0  0  0  0  0  0  0  0  0  0
  189.0450  173.5040  136.4170 S   0  0  0  0  0  0  0  0  0  0  0  0
  188.6290  176.1770  135.8890 C   0  0  0  0  0  0  0  0  0  0  0  0
  190.8030  173.7420  135.9100 C   0  0  2  0  0  3  0  0  0  0  0  0
  190.2700  177.4730  139.0870 C   0  0  1  0  0  3  0  0  0  0  0  0
  192.7100  172.0670  135.9040 C   0  0  0  0  0  0  0  0  0  0  0  0
  189.1380  177.5390  138.0650 C   0  0  0  0  0  2  0  0  0  0  0  0
  191.4420  172.3930  136.1140 C   0  0  0  0  0  3  0  0  0  0  0  0
  193.0320  170.7050  135.9360 O   0  0  0  0  0  1  0  0  0  0  0  0
  193.8050  172.9850  135.5240 C   0  0  0  0  0  0  0  0  0  0  0  0
  188.4240  174.9300  135.4940 C   0  0  0  0  0  3  0  0  0  0  0  0
  192.8360  175.1940  136.4890 C   0  0  0  0  0  0  0  0  0  0  0  0
  195.2780  172.3440  134.8390 Cl  0  0  0  0  0  0  0  0  0  0  0  0
  193.4340  176.5750  136.8680 C   0  0  1  0  0  3  0  0  0  0  0  0
  193.9310  176.5310  138.1850 O   0  0  0  0  0  1  0  0  0  0  0  0
  194.5570  177.1070  135.9220 C   0  0  0  0  0  2  0  0  0  0  0  0
  195.7150  176.3440  136.1080 O   0  0  0  0  0  1  0  0  0  0  0  0
  187.9210  177.3060  135.1600 C   0  0  2  0  0  3  0  0  0  0  0  0
  188.8010  178.3610  135.0450 O   0  0  0  0  0  1  0  0  0  0  0  0
  186.8450  178.7010  136.8180 O   0  0  0  0  0  0  0  0  0  0  0  0
  184.1880  177.2380  135.9930 C   0  0  0  0  0  1  0  0  0  0  0  0
  186.6160  177.6930  135.8640 C   0  0  2  0  0  3  0  0  0  0  0  0
  186.1000  178.2890  137.9390 C   0  0  0  0  0  2  0  0  0  0  0  0
  185.7000  176.9360  137.8200 O   0  0  0  0  0  0  0  0  0  0  0  0
  185.5750  176.7480  136.4480 C   0  0  1  0  0  0  0  0  0  0  0  0
  185.5980  175.2520  136.0500 C   0  0  1  0  0  3  0  0  0  0  0  0
  185.4590  174.3940  137.1620 O   0  0  0  0  0  1  0  0  0  0  0  0
  183.6350  175.1390  134.5940 F   0  0  0  0  0  0  0  0  0  0  0  0
  184.9690  174.7410  134.7020 C   0  0  0  0  0  3  0  0  0  0  0  0
  185.0500  173.3610  134.6110 F   0  0  0  0  0  0  0  0  0  0  0  0
  189.7330  177.2140  140.5430 C   0  0  1  0  0  0  0  0  0  0  0  0
  188.6230  176.3560  140.5570 F   0  0  0  0  0  0  0  0  0  0  0  0
  192.0360  177.1020  141.3830 F   0  0  0  0  0  0  0  0  0  0  0  0
  190.7970  176.4820  141.3720 C   0  0  0  0  0  2  0  0  0  0  0  0
  189.4150  178.4580  141.1550 O   0  0  0  0  0  0  0  0  0  0  0  0
  186.7140  177.4590  143.3300 C   0  0  0  0  0  2  0  0  0  0  0  0
  187.6060  179.7260  141.8990 O   0  0  0  0  0  0  0  0  0  0  0  0
  184.3310  177.5740  142.3720 C   0  0  2  0  0  3  0  0  0  0  0  0
  187.9350  177.5280  142.7840 C   0  0  0  0  0  2  0  0  0  0  0  0
  185.7810  180.7420  142.8480 O   0  0  0  0  0  1  0  0  0  0  0  0
  185.6620  178.2660  142.6220 C   0  0  1  0  0  0  0  0  0  0  0  0
  188.0840  178.4310  141.5830 C   0  0  2  0  0  3  0  0  0  0  0  0
  186.2010  179.6490  142.0730 C   0  0  2  0  0  3  0  0  0  0  0  0
  185.3570  177.5780  141.4290 O   0  0  0  0  0  0  0  0  0  0  0  0
  179.7350  180.2770  139.6910 O   0  0  0  0  0  0  0  0  0  0  0  0
  181.8520  179.3080  139.9000 N   0  0  0  0  0  2  0  0  0  0  0  0
  182.0110  178.3100  142.7800 O   0  0  0  0  0  0  0  0  0  0  0  0
  180.5960  179.7300  140.4600 C   0  0  0  0  0  0  0  0  0  0  0  0
  182.7430  178.2630  140.4700 C   0  0  1  0  0  3  0  0  0  0  0  0
  181.2860  179.4980  142.7820 C   0  0  0  0  0  2  0  0  0  0  0  0
  180.1210  179.3130  141.8330 C   0  0  1  0  0  3  0  0  0  0  0  0
  183.1340  178.5170  141.9650 C   0  0  2  0  0  3  0  0  0  0  0  0
  179.0090  180.0350  142.2650 F   0  0  0  0  0  0  0  0  0  0  0  0
  182.0770  176.9000  140.2590 C   0  0  0  0  0  2  0  0  0  0  0  0
  182.4850  176.2790  138.9320 C   0  0  0  0  0  2  0  0  0  0  0  0
  181.3680  175.3670  138.4870 C   0  0  0  0  0  2  0  0  0  0  0  0
  180.8850  174.5560  136.1010 C   0  0  0  0  0  1  0  0  0  0  0  0
  180.8800  175.7290  137.0770 C   0  0  1  0  0  3  0  0  0  0  0  0
  178.9570  175.3580  138.1470 C   0  0  0  0  0  1  0  0  0  0  0  0
  179.5600  176.1870  137.1940 O   0  0  0  0  0  0  0  0  0  0  0  0
  1  2  2  0  0  0  0
  1 11  1  0  0  0  0
  2  5  1  0  0  0  0
  3  2  1  0  0  0  0
  4 16  1  0  0  0  0
  5  9  1  0  0  0  0
  7  1  1  0  0  0  0
  8 12  1  1  0  0  0
  8  6  1  0  0  0  0
  8  3  1  0  0  0  0
  9 35  1  1  0  0  0
 10 13  1  0  0  0  0
 10 12  2  0  0  0  0
 11  9  1  0  0  0  0
 14  4  2  0  0  0  0
 14 10  1  0  0  0  0
 15  7  2  0  0  0  0
 15  6  1  0  0  0  0
 16  3  2  0  0  0  0
 16 18  1  0  0  0  0
 17 14  1  0  0  0  0
 18 19  1  1  0  0  0
 20 21  1  0  0  0  0
 20 18  1  0  0  0  0
 22 23  1  1  0  0  0
 22  7  1  0  0  0  0
 24 27  1  0  0  0  0
 26 22  1  1  0  0  0
 26 29  1  0  0  0  0
 26 24  1  0  0  0  0
 28 27  1  0  0  0  0
 29 25  1  6  0  0  0
 29 28  1  0  0  0  0
 30 29  1  0  0  0  0
 30 31  1  1  0  0  0
 32 33  1  0  0  0  0
 33 30  1  0  0  0  0
 34 33  1  0  0  0  0
 35 36  1  6  0  0  0
 35 39  1  0  0  0  0
 35 38  1  0  0  0  0
 38 37  1  0  0  0  0
 41 47  1  0  0  0  0
 42 48  1  6  0  0  0
 42 45  1  0  0  0  0
 43 40  1  0  0  0  0
 45 40  1  1  0  0  0
 46 39  1  1  0  0  0
 46 41  1  0  0  0  0
 46 43  1  0  0  0  0
 47 45  1  0  0  0  0
 47 44  1  1  0  0  0
 48 45  1  0  0  0  0
 49 52  2  0  0  0  0
 50 52  1  0  0  0  0
 50 53  1  0  0  0  0
 51 54  1  0  0  0  0
 52 55  1  0  0  0  0
 53 58  1  1  0  0  0
 53 56  1  0  0  0  0
 55 57  1  1  0  0  0
 55 54  1  0  0  0  0
 56 42  1  0  0  0  0
 56 51  1  1  0  0  0
 59 58  1  0  0  0  0
 60 59  1  0  0  0  0
 62 61  1  6  0  0  0
 62 64  1  0  0  0  0
 62 60  1  0  0  0  0
 64 63  1  0  0  0  0
M  END
>  <MODEL>
7

>  <REMARK>
 VINA RESULT:      -4.3      4.329      9.004
  Name = 
  16 active torsions:
  status: ('A' for Active; 'I' for Inactive)
    1  A    between atoms: C_8  and  C_57
    2  A    between atoms: C_8  and  C_58
    3  A    between atoms: C_12  and  C_31
    4  A    between atoms: C_12  and  O_42
    5  A    between atoms: O_16  and  C_38
    6  A    between atoms: O_16  and  C_41
    7  A    between atoms: C_17  and  C_49
    8  A    between atoms: C_19  and  C_24
    9  A    between atoms: C_19  and  C_55
   10  A    between atoms: C_20  and  C_46
   11  A    between atoms: C_26  and  C_38
   12  A    between atoms: C_29  and  C_60
   13  A    between atoms: C_30  and  C_46
   14  A    between atoms: C_31  and  C_54
   15  A    between atoms: C_34  and  C_38
   16  A    between atoms: C_54  and  C_60
                            x       y       z     vdW  Elec       q    Type
                         _______ _______ _______ _____ _____    ______ ____

>  <TORSDO>
F 16

$$$$
=
 OpenBabel11062411053D

 64 70  0  0  1  0  0  0  0  0999 V2000
  189.7910  176.8010  139.6400 C   0  0  0  0  0  0  0  0  0  0  0  0
  190.1940  176.3750  138.4160 C   0  0  0  0  0  0  0  0  0  0  0  0
  191.4940  175.7290  138.0430 C   0  0  0  0  0  0  0  0  0  0  0  0
  192.6140  173.8970  136.6920 C   0  0  0  0  0  3  0  0  0  0  0  0
  189.1570  176.5410  137.4930 O   0  0  0  0  0  0  0  0  0  0  0  0
  192.6460  177.8790  139.4910 S   0  0  0  0  0  0  0  0  0  0  0  0
  190.5580  176.7800  140.9140 C   0  0  0  0  0  0  0  0  0  0  0  0
  192.8230  176.2600  138.6230 C   0  0  2  0  0  3  0  0  0  0  0  0
  187.9830  177.0360  138.1030 C   0  0  1  0  0  3  0  0  0  0  0  0
  194.4230  175.6040  136.7640 C   0  0  0  0  0  0  0  0  0  0  0  0
  188.3440  177.1830  139.5790 C   0  0  0  0  0  2  0  0  0  0  0  0
  193.9410  176.4790  137.6360 C   0  0  0  0  0  3  0  0  0  0  0  0
  195.6130  175.9460  136.1100 O   0  0  0  0  0  1  0  0  0  0  0  0
  193.8980  174.2490  136.4920 C   0  0  0  0  0  0  0  0  0  0  0  0
  191.8180  177.1860  140.9420 C   0  0  0  0  0  3  0  0  0  0  0  0
  191.4330  174.6140  137.2320 C   0  0  0  0  0  0  0  0  0  0  0  0
  194.9020  173.0740  135.6810 Cl  0  0  0  0  0  0  0  0  0  0  0  0
  190.0950  173.8730  136.9730 C   0  0  1  0  0  3  0  0  0  0  0  0
  189.2540  174.0060  138.0940 O   0  0  0  0  0  1  0  0  0  0  0  0
  189.3120  174.3180  135.6980 C   0  0  0  0  0  2  0  0  0  0  0  0
  188.5880  173.2290  135.1990 O   0  0  0  0  0  1  0  0  0  0  0  0
  189.8850  176.3840  142.2170 C   0  0  2  0  0  3  0  0  0  0  0  0
  188.6070  175.9540  141.9250 O   0  0  0  0  0  1  0  0  0  0  0  0
  190.1750  178.7550  142.5920 O   0  0  0  0  0  0  0  0  0  0  0  0
  189.6570  178.1080  145.6240 C   0  0  0  0  0  1  0  0  0  0  0  0
  189.9090  177.5320  143.2310 C   0  0  2  0  0  3  0  0  0  0  0  0
  191.1110  179.3870  143.4330 C   0  0  0  0  0  2  0  0  0  0  0  0
  191.6580  178.4750  144.3670 O   0  0  0  0  0  0  0  0  0  0  0  0
  190.6340  177.5560  144.5690 C   0  0  1  0  0  0  0  0  0  0  0  0
  191.1420  176.2280  145.1830 C   0  0  1  0  0  3  0  0  0  0  0  0
  192.0410  175.5480  144.3320 O   0  0  0  0  0  1  0  0  0  0  0  0
  192.4350  175.1610  146.9650 F   0  0  0  0  0  0  0  0  0  0  0  0
  191.4010  176.0690  146.7260 C   0  0  0  0  0  3  0  0  0  0  0  0
  190.2540  175.6500  147.3790 F   0  0  0  0  0  0  0  0  0  0  0  0
  187.4510  178.3830  137.4900 C   0  0  1  0  0  0  0  0  0  0  0  0
  188.4910  179.2320  137.0830 F   0  0  0  0  0  0  0  0  0  0  0  0
  186.7450  176.7910  135.7610 F   0  0  0  0  0  0  0  0  0  0  0  0
  186.6570  178.0990  136.2080 C   0  0  0  0  0  2  0  0  0  0  0  0
  186.6140  179.0330  138.4410 O   0  0  0  0  0  0  0  0  0  0  0  0
  183.0510  178.9530  139.0120 C   0  0  0  0  0  2  0  0  0  0  0  0
  184.9480  178.1230  137.0890 O   0  0  0  0  0  0  0  0  0  0  0  0
  181.9400  176.6410  139.1710 C   0  0  2  0  0  3  0  0  0  0  0  0
  184.3240  179.3710  139.0310 C   0  0  0  0  0  2  0  0  0  0  0  0
  183.1010  177.3930  135.9390 O   0  0  0  0  0  1  0  0  0  0  0  0
  182.8470  177.5920  138.4070 C   0  0  1  0  0  0  0  0  0  0  0  0
  185.3440  178.4480  138.4090 C   0  0  2  0  0  3  0  0  0  0  0  0
  183.7850  177.3140  137.1630 C   0  0  2  0  0  3  0  0  0  0  0  0
  183.3220  176.6540  139.3460 O   0  0  0  0  0  0  0  0  0  0  0  0
  179.0340  171.8400  137.1380 O   0  0  0  0  0  0  0  0  0  0  0  0
  180.0700  173.2430  138.6940 N   0  0  0  0  0  2  0  0  0  0  0  0
  180.9050  175.7240  137.1260 O   0  0  0  0  0  0  0  0  0  0  0  0
  179.6740  172.9250  137.3480 C   0  0  0  0  0  0  0  0  0  0  0  0
  180.3660  174.6070  139.2080 C   0  0  1  0  0  3  0  0  0  0  0  0
  181.0610  174.6230  136.2900 C   0  0  0  0  0  2  0  0  0  0  0  0
  179.7190  173.9250  136.2150 C   0  0  1  0  0  3  0  0  0  0  0  0
  181.4450  175.3740  138.3720 C   0  0  2  0  0  3  0  0  0  0  0  0
  179.5350  173.3370  134.9650 F   0  0  0  0  0  0  0  0  0  0  0  0
  179.0440  175.3760  139.3080 C   0  0  0  0  0  2  0  0  0  0  0  0
  178.9920  176.2330  140.5630 C   0  0  0  0  0  2  0  0  0  0  0  0
  179.2830  177.6580  140.1620 C   0  0  0  0  0  2  0  0  0  0  0  0
  178.9310  179.9430  141.2730 C   0  0  0  0  0  1  0  0  0  0  0  0
  179.5290  178.5450  141.3910 C   0  0  1  0  0  3  0  0  0  0  0  0
  179.2110  178.7310  143.5920 C   0  0  0  0  0  1  0  0  0  0  0  0
  178.9330  177.9120  142.4910 O   0  0  0  0  0  0  0  0  0  0  0  0
  1  7  1  0  0  0  0
  2  1  2  0  0  0  0
  3  2  1  0  0  0  0
  3  8  1  0  0  0  0
  4 16  1  0  0  0  0
  5  9  1  0  0  0  0
  5  2  1  0  0  0  0
  6 15  1  0  0  0  0
  7 15  2  0  0  0  0
  7 22  1  0  0  0  0
  8 12  1  6  0  0  0
  8  6  1  0  0  0  0
  9 35  1  6  0  0  0
  9 11  1  0  0  0  0
 10 12  2  0  0  0  0
 11  1  1  0  0  0  0
 13 10  1  0  0  0  0
 14  4  2  0  0  0  0
 14 10  1  0  0  0  0
 16  3  2  0  0  0  0
 17 14  1  0  0  0  0
 18 16  1  0  0  0  0
 18 19  1  1  0  0  0
 20 18  1  0  0  0  0
 21 20  1  0  0  0  0
 22 23  1  6  0  0  0
 24 26  1  0  0  0  0
 24 27  1  0  0  0  0
 26 22  1  6  0  0  0
 26 29  1  0  0  0  0
 27 28  1  0  0  0  0
 28 29  1  0  0  0  0
 29 30  1  0  0  0  0
 29 25  1  1  0  0  0
 30 31  1  6  0  0  0
 30 33  1  0  0  0  0
 33 32  1  0  0  0  0
 33 34  1  0  0  0  0
 35 36  1  6  0  0  0
 35 39  1  0  0  0  0
 37 38  1  0  0  0  0
 38 35  1  0  0  0  0
 40 43  1  0  0  0  0
 41 47  1  0  0  0  0
 41 46  1  0  0  0  0
 42 48  1  1  0  0  0
 45 40  1  1  0  0  0
 45 42  1  0  0  0  0
 45 48  1  0  0  0  0
 46 39  1  6  0  0  0
 46 43  1  0  0  0  0
 47 44  1  6  0  0  0
 47 45  1  0  0  0  0
 49 52  2  0  0  0  0
 50 53  1  0  0  0  0
 52 50  1  0  0  0  0
 53 58  1  6  0  0  0
 54 51  1  0  0  0  0
 55 57  1  6  0  0  0
 55 54  1  0  0  0  0
 55 52  1  0  0  0  0
 56 51  1  6  0  0  0
 56 42  1  0  0  0  0
 56 53  1  0  0  0  0
 58 59  1  0  0  0  0
 60 59  1  0  0  0  0
 60 62  1  0  0  0  0
 62 61  1  6  0  0  0
 62 64  1  0  0  0  0
 64 63  1  0  0  0  0
M  END
>  <MODEL>
8

>  <REMARK>
 VINA RESULT:      -4.0      4.237     10.788
  Name = 
  16 active torsions:
  status: ('A' for Active; 'I' for Inactive)
    1  A    between atoms: C_8  and  C_57
    2  A    between atoms: C_8  and  C_58
    3  A    between atoms: C_12  and  C_31
    4  A    between atoms: C_12  and  O_42
    5  A    between atoms: O_16  and  C_38
    6  A    between atoms: O_16  and  C_41
    7  A    between atoms: C_17  and  C_49
    8  A    between atoms: C_19  and  C_24
    9  A    between atoms: C_19  and  C_55
   10  A    between atoms: C_20  and  C_46
   11  A    between atoms: C_26  and  C_38
   12  A    between atoms: C_29  and  C_60
   13  A    between atoms: C_30  and  C_46
   14  A    between atoms: C_31  and  C_54
   15  A    between atoms: C_34  and  C_38
   16  A    between atoms: C_54  and  C_60
                            x       y       z     vdW  Elec       q    Type
                         _______ _______ _______ _____ _____    ______ ____

>  <TORSDO>
F 16

$$$$
=
 OpenBabel11062411053D

 64 70  0  0  1  0  0  0  0  0999 V2000
  183.8810  176.3360  137.0040 C   0  0  0  0  0  0  0  0  0  0  0  0
  185.1850  176.7010  137.1100 C   0  0  0  0  0  0  0  0  0  0  0  0
  186.3870  176.0110  136.5400 C   0  0  0  0  0  0  0  0  0  0  0  0
  188.6140  176.3100  135.3620 C   0  0  0  0  0  3  0  0  0  0  0  0
  185.2800  177.9220  137.7850 O   0  0  0  0  0  0  0  0  0  0  0  0
  185.2380  173.6860  137.6870 S   0  0  0  0  0  0  0  0  0  0  0  0
  183.3200  175.1310  136.3370 C   0  0  0  0  0  0  0  0  0  0  0  0
  186.5050  174.4730  136.6010 C   0  0  2  0  0  3  0  0  0  0  0  0
  184.0090  178.4500  138.1010 C   0  0  1  0  0  3  0  0  0  0  0  0
  189.0310  174.2140  136.6350 C   0  0  0  0  0  0  0  0  0  0  0  0
  183.0160  177.4330  137.5450 C   0  0  0  0  0  2  0  0  0  0  0  0
  187.8200  173.9240  137.0920 C   0  0  0  0  0  3  0  0  0  0  0  0
  190.0890  173.4130  137.0820 O   0  0  0  0  0  1  0  0  0  0  0  0
  189.3670  175.2230  135.6080 C   0  0  0  0  0  0  0  0  0  0  0  0
  183.8670  173.9430  136.5360 C   0  0  0  0  0  3  0  0  0  0  0  0
  187.3250  176.8020  135.9060 C   0  0  0  0  0  0  0  0  0  0  0  0
  190.9100  175.1520  134.7940 Cl  0  0  0  0  0  0  0  0  0  0  0  0
  187.0170  178.2720  135.5190 C   0  0  1  0  0  3  0  0  0  0  0  0
  185.6870  178.3750  135.0680 O   0  0  0  0  0  1  0  0  0  0  0  0
  187.2530  179.3310  136.6420 C   0  0  0  0  0  2  0  0  0  0  0  0
  188.4400  179.0280  137.3180 O   0  0  0  0  0  1  0  0  0  0  0  0
  182.0590  175.2290  135.4960 C   0  0  2  0  0  3  0  0  0  0  0  0
  181.8880  176.5470  135.1310 O   0  0  0  0  0  1  0  0  0  0  0  0
  180.7460  175.2060  137.5270 O   0  0  0  0  0  0  0  0  0  0  0  0
  178.9330  173.0960  136.0610 C   0  0  0  0  0  1  0  0  0  0  0  0
  180.8470  174.6550  136.2370 C   0  0  2  0  0  3  0  0  0  0  0  0
  180.4490  174.1030  138.3500 C   0  0  0  0  0  2  0  0  0  0  0  0
  180.6860  172.8810  137.6750 O   0  0  0  0  0  0  0  0  0  0  0  0
  180.4450  173.1900  136.3400 C   0  0  1  0  0  0  0  0  0  0  0  0
  181.0740  172.1600  135.3700 C   0  0  1  0  0  3  0  0  0  0  0  0
  182.1150  172.7140  134.5940 O   0  0  0  0  0  1  0  0  0  0  0  0
  182.4270  170.1250  135.2480 F   0  0  0  0  0  0  0  0  0  0  0  0
  181.2340  170.6440  135.7560 C   0  0  0  0  0  3  0  0  0  0  0  0
  180.1660  169.8980  135.2870 F   0  0  0  0  0  0  0  0  0  0  0  0
  183.7800  178.7190  139.6330 C   0  0  1  0  0  0  0  0  0  0  0  0
  184.5280  179.8100  140.1010 F   0  0  0  0  0  0  0  0  0  0  0  0
  181.9210  180.2710  139.2280 F   0  0  0  0  0  0  0  0  0  0  0  0
  182.3190  179.1170  139.8830 C   0  0  0  0  0  2  0  0  0  0  0  0
  184.0920  177.5420  140.3690 O   0  0  0  0  0  0  0  0  0  0  0  0
  186.8880  179.5010  141.5400 C   0  0  0  0  0  2  0  0  0  0  0  0
  185.1140  177.5060  142.4640 O   0  0  0  0  0  0  0  0  0  0  0  0
  188.9910  178.2210  142.2790 C   0  0  2  0  0  3  0  0  0  0  0  0
  185.7840  179.1550  140.8660 C   0  0  0  0  0  2  0  0  0  0  0  0
  186.2580  177.7460  144.4390 O   0  0  0  0  0  1  0  0  0  0  0  0
  187.4850  178.4020  142.3750 C   0  0  1  0  0  0  0  0  0  0  0  0
  185.2800  177.7470  141.0790 C   0  0  2  0  0  3  0  0  0  0  0  0
  186.3980  177.4830  143.0660 C   0  0  2  0  0  3  0  0  0  0  0  0
  188.1020  177.5030  141.4820 O   0  0  0  0  0  0  0  0  0  0  0  0
  192.4190  174.5460  145.4980 O   0  0  0  0  0  0  0  0  0  0  0  0
  191.1490  175.2790  143.6780 N   0  0  0  0  0  2  0  0  0  0  0  0
  190.2640  178.1120  144.3910 O   0  0  0  0  0  0  0  0  0  0  0  0
  191.6820  175.4630  145.0020 C   0  0  0  0  0  0  0  0  0  0  0  0
  190.7070  176.3680  142.7670 C   0  0  1  0  0  3  0  0  0  0  0  0
  190.2650  177.3610  145.5620 C   0  0  0  0  0  2  0  0  0  0  0  0
  191.6580  176.7900  145.7260 C   0  0  1  0  0  3  0  0  0  0  0  0
  189.6480  177.3300  143.4030 C   0  0  2  0  0  3  0  0  0  0  0  0
  191.9930  176.6780  147.0750 F   0  0  0  0  0  0  0  0  0  0  0  0
  191.9520  177.1100  142.2710 C   0  0  0  0  0  2  0  0  0  0  0  0
  191.6680  177.8860  140.9940 C   0  0  0  0  0  2  0  0  0  0  0  0
  192.6490  177.4240  139.9450 C   0  0  0  0  0  2  0  0  0  0  0  0
  190.5110  176.3630  139.0070 C   0  0  0  0  0  1  0  0  0  0  0  0
  192.0360  176.3430  139.0440 C   0  0  1  0  0  3  0  0  0  0  0  0
  193.7090  175.8670  137.6470 C   0  0  0  0  0  1  0  0  0  0  0  0
  192.5020  176.5680  137.7400 O   0  0  0  0  0  0  0  0  0  0  0  0
  1  2  2  0  0  0  0
  1 11  1  0  0  0  0
  2  5  1  0  0  0  0
  3  8  1  0  0  0  0
  3  2  1  0  0  0  0
  4 14  2  0  0  0  0
  4 16  1  0  0  0  0
  5  9  1  0  0  0  0
  7 15  2  0  0  0  0
  7  1  1  0  0  0  0
  8 12  1  1  0  0  0
  8  6  1  0  0  0  0
  9 35  1  1  0  0  0
 10 13  1  0  0  0  0
 10 12  2  0  0  0  0
 11  9  1  0  0  0  0
 14 10  1  0  0  0  0
 15  6  1  0  0  0  0
 16  3  2  0  0  0  0
 17 14  1  0  0  0  0
 18 19  1  1  0  0  0
 18 16  1  0  0  0  0
 18 20  1  0  0  0  0
 20 21  1  0  0  0  0
 22 23  1  1  0  0  0
 22  7  1  0  0  0  0
 24 27  1  0  0  0  0
 26 22  1  1  0  0  0
 26 29  1  0  0  0  0
 26 24  1  0  0  0  0
 28 27  1  0  0  0  0
 29 25  1  6  0  0  0
 29 28  1  0  0  0  0
 30 31  1  1  0  0  0
 30 33  1  0  0  0  0
 30 29  1  0  0  0  0
 32 33  1  0  0  0  0
 34 33  1  0  0  0  0
 35 38  1  0  0  0  0
 35 36  1  1  0  0  0
 35 39  1  0  0  0  0
 37 38  1  0  0  0  0
 41 47  1  0  0  0  0
 42 48  1  6  0  0  0
 42 45  1  0  0  0  0
 42 56  1  0  0  0  0
 43 46  1  0  0  0  0
 43 40  1  0  0  0  0
 45 40  1  6  0  0  0
 45 47  1  0  0  0  0
 46 39  1  6  0  0  0
 46 41  1  0  0  0  0
 47 44  1  1  0  0  0
 48 45  1  0  0  0  0
 50 52  1  0  0  0  0
 51 54  1  0  0  0  0
 52 49  2  0  0  0  0
 52 55  1  0  0  0  0
 53 58  1  1  0  0  0
 53 56  1  0  0  0  0
 53 50  1  0  0  0  0
 54 55  1  0  0  0  0
 55 57  1  1  0  0  0
 56 51  1  1  0  0  0
 59 58  1  0  0  0  0
 60 59  1  0  0  0  0
 62 61  1  6  0  0  0
 62 60  1  0  0  0  0
 63 64  1  0  0  0  0
 64 62  1  0  0  0  0
M  END
>  <MODEL>
9

>  <REMARK>
 VINA RESULT:      -4.0      3.048      5.586
  Name = 
  16 active torsions:
  status: ('A' for Active; 'I' for Inactive)
    1  A    between atoms: C_8  and  C_57
    2  A    between atoms: C_8  and  C_58
    3  A    between atoms: C_12  and  C_31
    4  A    between atoms: C_12  and  O_42
    5  A    between atoms: O_16  and  C_38
    6  A    between atoms: O_16  and  C_41
    7  A    between atoms: C_17  and  C_49
    8  A    between atoms: C_19  and  C_24
    9  A    between atoms: C_19  and  C_55
   10  A    between atoms: C_20  and  C_46
   11  A    between atoms: C_26  and  C_38
   12  A    between atoms: C_29  and  C_60
   13  A    between atoms: C_30  and  C_46
   14  A    between atoms: C_31  and  C_54
   15  A    between atoms: C_34  and  C_38
   16  A    between atoms: C_54  and  C_60
                            x       y       z     vdW  Elec       q    Type
                         _______ _______ _______ _____ _____    ______ ____

>  <TORSDO>
F 16

$$$$
