=
 OpenBabel11062417583D

 40 45  0  0  1  0  0  0  0  0999 V2000
  187.7480  177.7420  146.7370 N   0  0  0  0  0  2  0  0  0  0  0  0
  184.1720  178.5500  146.1920 C   0  0  0  0  0  2  0  0  0  0  0  0
  185.4150  179.1570  144.1570 C   0  0  2  0  0  3  0  0  0  0  0  0
  186.3330  178.0080  144.6100 C   0  0  0  0  0  2  0  0  0  0  0  0
  185.4620  178.3020  146.8290 N   0  0  0  0  0  0  0  0  0  0  0  0
  186.5010  178.0420  146.0990 C   0  0  0  0  0  0  0  0  0  0  0  0
  184.3250  179.5090  145.0910 N   0  0  0  0  0  2  0  0  0  0  0  0
  189.2950  177.8930  144.8050 C   0  0  0  0  0  3  0  0  0  0  0  0
  189.0070  177.4580  146.1060 C   0  0  0  0  0  0  0  0  0  0  0  0
  191.2110  176.4470  146.2220 C   0  0  0  0  0  0  0  0  0  0  0  0
  189.9740  176.7360  146.8120 C   0  0  0  0  0  3  0  0  0  0  0  0
  191.4800  176.8670  144.9150 C   0  0  0  0  0  3  0  0  0  0  0  0
  190.5180  177.5850  144.1950 C   0  0  0  0  0  0  0  0  0  0  0  0
  190.1690  177.1890  141.7900 N   0  0  2  0  0  0  0  0  0  0  0  0
  189.6710  177.1740  140.4980 C   0  0  0  0  0  2  0  0  0  0  0  0
  190.8250  178.0690  142.8130 C   0  0  2  0  0  3  0  0  0  0  0  0
  190.7950  177.3940  139.8090 C   0  0  0  0  0  2  0  0  0  0  0  0
  192.0430  177.5440  140.7230 C   0  0  0  0  0  2  0  0  0  0  0  0
  191.5850  177.1480  142.1440 C   0  0  2  0  0  3  0  0  0  0  0  0
  192.2250  175.6590  146.9740 C   0  0  0  0  0  2  0  0  0  0  0  0
  192.4720  176.2830  148.3330 C   0  0  0  0  0  1  0  0  0  0  0  0
  183.8520  178.4860  140.2060 C   0  0  0  0  0  0  0  0  0  0  0  0
  185.1490  178.9940  140.3700 C   0  0  0  0  0  3  0  0  0  0  0  0
  184.8880  178.9210  142.7800 C   0  0  0  0  0  0  0  0  0  0  0  0
  185.6680  179.2040  141.6500 C   0  0  0  0  0  3  0  0  0  0  0  0
  183.0760  178.2080  141.3410 C   0  0  0  0  0  3  0  0  0  0  0  0
  183.5930  178.4220  142.6210 C   0  0  0  0  0  3  0  0  0  0  0  0
  182.4110  179.1560  138.2960 C   0  0  0  0  0  0  0  0  0  0  0  0
  182.2460  177.7900  136.2810 C   0  0  0  0  0  0  0  0  0  0  0  0
  183.7470  177.0750  138.0580 C   0  0  1  0  0  3  0  0  0  0  0  0
  185.2520  177.0930  137.8510 C   0  0  0  0  0  1  0  0  0  0  0  0
  181.6670  177.5800  135.0010 N   0  0  0  0  0  1  0  0  0  0  0  0
  181.8950  178.9170  137.0200 O   0  0  0  0  0  0  0  0  0  0  0  0
  183.3040  178.3000  138.8390 C   0  0  0  0  0  0  0  0  0  0  0  0
  183.0880  176.9300  136.7580 N   0  0  0  0  0  0  0  0  0  0  0  0
  181.8950  180.3550  139.0320 C   0  0  0  0  0  2  0  0  0  0  0  0
  180.8820  181.1030  138.1840 C   0  0  0  0  0  2  0  0  0  0  0  0
  181.3540  182.5240  137.9300 C   0  0  0  0  0  2  0  0  0  0  0  0
  181.1760  184.4950  136.4230 C   0  0  0  0  0  1  0  0  0  0  0  0
  180.7550  183.0510  136.6400 C   0  0  0  0  0  2  0  0  0  0  0  0
  2  5  1  0  0  0  0
  3 24  1  6  0  0  0
  3  4  1  0  0  0  0
  3  7  1  0  0  0  0
  4  6  1  0  0  0  0
  6  1  1  0  0  0  0
  6  5  2  0  0  0  0
  7  2  1  0  0  0  0
  8  9  1  0  0  0  0
  9  1  1  0  0  0  0
  9 11  2  0  0  0  0
 10 11  1  0  0  0  0
 10 20  1  0  0  0  0
 12 10  2  0  0  0  0
 13  8  2  0  0  0  0
 13 12  1  0  0  0  0
 14 15  1  6  0  0  0
 14 19  1  0  0  0  0
 14 16  1  0  0  0  0
 16 13  1  1  0  0  0
 17 15  1  0  0  0  0
 17 18  1  0  0  0  0
 19 18  1  6  0  0  0
 19 16  1  0  0  0  0
 20 21  1  0  0  0  0
 22 23  2  0  0  0  0
 22 26  1  0  0  0  0
 23 25  1  0  0  0  0
 25 24  2  0  0  0  0
 26 27  2  0  0  0  0
 27 24  1  0  0  0  0
 28 34  2  0  0  0  0
 28 36  1  0  0  0  0
 29 35  2  0  0  0  0
 29 33  1  0  0  0  0
 30 31  1  6  0  0  0
 30 34  1  0  0  0  0
 32 29  1  0  0  0  0
 33 28  1  0  0  0  0
 34 22  1  0  0  0  0
 35 30  1  0  0  0  0
 37 36  1  0  0  0  0
 38 37  1  0  0  0  0
 39 40  1  0  0  0  0
 40 38  1  0  0  0  0
M  END
>  <MODEL>
1

>  <REMARK>
 VINA RESULT:      -9.7      0.000      0.000
  Name = 
  9 active torsions:
  status: ('A' for Active; 'I' for Inactive)
    1  A    between atoms: C_2  and  C_37
    2  A    between atoms: N_5  and  C_7
    3  A    between atoms: C_6  and  C_10
    4  A    between atoms: C_8  and  C_18
    5  A    between atoms: C_8  and  C_24
    6  A    between atoms: C_9  and  C_12
    7  A    between atoms: C_10  and  C_18
    8  A    between atoms: C_14  and  C_34
    9  A    between atoms: C_16  and  C_21
                            x       y       z     vdW  Elec       q    Type
                         _______ _______ _______ _____ _____    ______ ____

>  <TORSDO>
F 9

$$$$
=
 OpenBabel11062417583D

 40 45  0  0  1  0  0  0  0  0999 V2000
  187.7410  177.7370  146.5440 N   0  0  0  0  0  2  0  0  0  0  0  0
  184.1210  178.5280  146.5060 C   0  0  0  0  0  2  0  0  0  0  0  0
  185.0660  179.1540  144.3220 C   0  0  2  0  0  3  0  0  0  0  0  0
  186.0440  178.0070  144.6360 C   0  0  0  0  0  2  0  0  0  0  0  0
  185.4870  178.2830  146.9560 N   0  0  0  0  0  0  0  0  0  0  0  0
  186.4160  178.0330  146.0880 C   0  0  0  0  0  0  0  0  0  0  0  0
  184.1150  179.4940  145.4000 N   0  0  0  0  0  2  0  0  0  0  0  0
  188.9900  177.8790  144.4070 C   0  0  0  0  0  3  0  0  0  0  0  0
  188.9020  177.4630  145.7430 C   0  0  0  0  0  0  0  0  0  0  0  0
  191.1190  176.4940  145.5560 C   0  0  0  0  0  0  0  0  0  0  0  0
  189.9750  176.7720  146.3140 C   0  0  0  0  0  3  0  0  0  0  0  0
  191.1890  176.8940  144.2170 C   0  0  0  0  0  3  0  0  0  0  0  0
  190.1190  177.5810  143.6320 C   0  0  0  0  0  0  0  0  0  0  0  0
  189.0610  177.5180  141.4100 N   0  0  2  0  0  0  0  0  0  0  0  0
  188.2790  177.7750  140.2960 C   0  0  0  0  0  2  0  0  0  0  0  0
  190.2140  178.0440  142.2130 C   0  0  2  0  0  3  0  0  0  0  0  0
  189.1980  177.6610  139.3320 C   0  0  0  0  0  2  0  0  0  0  0  0
  190.6090  177.3130  139.8810 C   0  0  0  0  0  2  0  0  0  0  0  0
  190.4180  176.9790  141.3780 C   0  0  2  0  0  3  0  0  0  0  0  0
  192.2470  175.7380  146.1670 C   0  0  0  0  0  2  0  0  0  0  0  0
  192.1950  175.8470  147.6780 C   0  0  0  0  0  1  0  0  0  0  0  0
  183.0550  178.4630  140.5830 C   0  0  0  0  0  0  0  0  0  0  0  0
  182.3130  178.5980  141.7640 C   0  0  0  0  0  3  0  0  0  0  0  0
  184.3550  178.9230  143.0300 C   0  0  0  0  0  0  0  0  0  0  0  0
  182.9570  178.8330  142.9810 C   0  0  0  0  0  3  0  0  0  0  0  0
  184.4540  178.5510  140.6390 C   0  0  0  0  0  3  0  0  0  0  0  0
  185.1000  178.7820  141.8560 C   0  0  0  0  0  3  0  0  0  0  0  0
  182.0930  179.1460  138.3960 C   0  0  0  0  0  0  0  0  0  0  0  0
  180.9290  177.5540  136.9600 C   0  0  0  0  0  0  0  0  0  0  0  0
  181.8970  176.7570  139.0460 C   0  0  1  0  0  3  0  0  0  0  0  0
  183.0850  175.8100  139.0330 C   0  0  0  0  0  1  0  0  0  0  0  0
  180.2020  177.3020  135.7660 N   0  0  0  0  0  1  0  0  0  0  0  0
  181.3990  178.8380  137.2240 O   0  0  0  0  0  0  0  0  0  0  0  0
  182.3570  178.1810  139.3040 C   0  0  0  0  0  0  0  0  0  0  0  0
  181.1420  176.5930  137.8020 N   0  0  0  0  0  0  0  0  0  0  0  0
  182.4740  180.5790  138.6120 C   0  0  0  0  0  2  0  0  0  0  0  0
  181.2410  181.4650  138.5940 C   0  0  0  0  0  2  0  0  0  0  0  0
  181.1550  182.2230  137.2810 C   0  0  0  0  0  2  0  0  0  0  0  0
  181.0890  184.5240  136.3360 C   0  0  0  0  0  1  0  0  0  0  0  0
  180.7290  183.6570  137.5310 C   0  0  0  0  0  2  0  0  0  0  0  0
  2  5  1  0  0  0  0
  3 24  1  6  0  0  0
  3  4  1  0  0  0  0
  3  7  1  0  0  0  0
  4  6  1  0  0  0  0
  6  1  1  0  0  0  0
  6  5  2  0  0  0  0
  7  2  1  0  0  0  0
  8  9  1  0  0  0  0
  9 11  2  0  0  0  0
  9  1  1  0  0  0  0
 10 20  1  0  0  0  0
 10 11  1  0  0  0  0
 12 10  2  0  0  0  0
 13 12  1  0  0  0  0
 13  8  2  0  0  0  0
 14 15  1  6  0  0  0
 14 16  1  0  0  0  0
 16 13  1  1  0  0  0
 17 18  1  0  0  0  0
 17 15  1  0  0  0  0
 19 18  1  6  0  0  0
 19 14  1  0  0  0  0
 19 16  1  0  0  0  0
 20 21  1  0  0  0  0
 22 26  2  0  0  0  0
 22 23  1  0  0  0  0
 23 25  2  0  0  0  0
 25 24  1  0  0  0  0
 26 27  1  0  0  0  0
 27 24  2  0  0  0  0
 28 36  1  0  0  0  0
 28 34  2  0  0  0  0
 29 33  1  0  0  0  0
 29 35  2  0  0  0  0
 30 31  1  6  0  0  0
 30 34  1  0  0  0  0
 32 29  1  0  0  0  0
 33 28  1  0  0  0  0
 34 22  1  0  0  0  0
 35 30  1  0  0  0  0
 37 36  1  0  0  0  0
 38 40  1  0  0  0  0
 38 37  1  0  0  0  0
 39 40  1  0  0  0  0
M  END
>  <MODEL>
2

>  <REMARK>
 VINA RESULT:      -9.5      1.010      1.311
  Name = 
  9 active torsions:
  status: ('A' for Active; 'I' for Inactive)
    1  A    between atoms: C_2  and  C_37
    2  A    between atoms: N_5  and  C_7
    3  A    between atoms: C_6  and  C_10
    4  A    between atoms: C_8  and  C_18
    5  A    between atoms: C_8  and  C_24
    6  A    between atoms: C_9  and  C_12
    7  A    between atoms: C_10  and  C_18
    8  A    between atoms: C_14  and  C_34
    9  A    between atoms: C_16  and  C_21
                            x       y       z     vdW  Elec       q    Type
                         _______ _______ _______ _____ _____    ______ ____

>  <TORSDO>
F 9

$$$$
=
 OpenBabel11062417583D

 40 45  0  0  1  0  0  0  0  0999 V2000
  187.6020  177.8130  146.3540 N   0  0  0  0  0  2  0  0  0  0  0  0
  183.9980  178.6260  146.0560 C   0  0  0  0  0  2  0  0  0  0  0  0
  185.0930  179.2040  143.9310 C   0  0  2  0  0  3  0  0  0  0  0  0
  186.0390  178.0570  144.3320 C   0  0  0  0  0  2  0  0  0  0  0  0
  185.3290  178.3810  146.6030 N   0  0  0  0  0  0  0  0  0  0  0  0
  186.3130  178.1090  145.8040 C   0  0  0  0  0  0  0  0  0  0  0  0
  184.0740  179.5700  144.9350 N   0  0  0  0  0  2  0  0  0  0  0  0
  188.9830  177.8850  144.2970 C   0  0  0  0  0  3  0  0  0  0  0  0
  188.8120  177.5170  145.6390 C   0  0  0  0  0  0  0  0  0  0  0  0
  191.0390  176.5530  145.6280 C   0  0  0  0  0  0  0  0  0  0  0  0
  189.8480  176.8520  146.3010 C   0  0  0  0  0  3  0  0  0  0  0  0
  191.1930  176.9050  144.2830 C   0  0  0  0  0  3  0  0  0  0  0  0
  190.1600  177.5650  143.6060 C   0  0  0  0  0  0  0  0  0  0  0  0
  189.1760  177.5320  141.3500 N   0  0  2  0  0  0  0  0  0  0  0  0
  188.4580  177.8250  140.2030 C   0  0  0  0  0  2  0  0  0  0  0  0
  190.3440  177.9780  142.1800 C   0  0  2  0  0  3  0  0  0  0  0  0
  189.3950  177.6030  139.2750 C   0  0  0  0  0  2  0  0  0  0  0  0
  190.7510  177.1480  139.8840 C   0  0  0  0  0  2  0  0  0  0  0  0
  190.4800  176.8760  141.3800 C   0  0  2  0  0  3  0  0  0  0  0  0
  192.1280  175.8250  146.3360 C   0  0  0  0  0  2  0  0  0  0  0  0
  192.0740  176.1180  147.8220 C   0  0  0  0  0  1  0  0  0  0  0  0
  183.2520  178.4950  140.1080 C   0  0  0  0  0  0  0  0  0  0  0  0
  184.6060  178.8530  140.1790 C   0  0  0  0  0  3  0  0  0  0  0  0
  184.4690  178.9520  142.5980 C   0  0  0  0  0  0  0  0  0  0  0  0
  185.2140  179.0730  141.4170 C   0  0  0  0  0  3  0  0  0  0  0  0
  182.5110  178.3800  141.2940 C   0  0  0  0  0  3  0  0  0  0  0  0
  183.1170  178.6040  142.5320 C   0  0  0  0  0  3  0  0  0  0  0  0
  182.5390  177.0840  138.1910 C   0  0  0  0  0  0  0  0  0  0  0  0
  181.4760  178.0510  136.2200 C   0  0  0  0  0  0  0  0  0  0  0  0
  182.0630  179.5190  138.0700 C   0  0  1  0  0  3  0  0  0  0  0  0
  180.9790  180.1790  138.9060 C   0  0  0  0  0  1  0  0  0  0  0  0
  180.9260  177.8660  134.9230 N   0  0  0  0  0  1  0  0  0  0  0  0
  181.9620  176.9540  136.9260 O   0  0  0  0  0  0  0  0  0  0  0  0
  182.6120  178.2970  138.7830 C   0  0  0  0  0  0  0  0  0  0  0  0
  181.5320  179.2380  136.7350 N   0  0  0  0  0  0  0  0  0  0  0  0
  183.1060  175.8470  138.8180 C   0  0  0  0  0  2  0  0  0  0  0  0
  183.1010  174.6980  137.8250 C   0  0  0  0  0  2  0  0  0  0  0  0
  184.4810  174.0730  137.7350 C   0  0  0  0  0  2  0  0  0  0  0  0
  183.4760  171.8880  137.0960 C   0  0  0  0  0  1  0  0  0  0  0  0
  184.4840  172.9570  136.7060 C   0  0  0  0  0  2  0  0  0  0  0  0
  2  5  1  0  0  0  0
  3 24  1  6  0  0  0
  3  4  1  0  0  0  0
  3  7  1  0  0  0  0
  4  6  1  0  0  0  0
  6  1  1  0  0  0  0
  6  5  2  0  0  0  0
  7  2  1  0  0  0  0
  8  9  1  0  0  0  0
  9 11  2  0  0  0  0
  9  1  1  0  0  0  0
 10 11  1  0  0  0  0
 10 20  1  0  0  0  0
 12 10  2  0  0  0  0
 13 12  1  0  0  0  0
 13  8  2  0  0  0  0
 14 15  1  6  0  0  0
 14 19  1  0  0  0  0
 14 16  1  0  0  0  0
 16 13  1  1  0  0  0
 17 18  1  0  0  0  0
 17 15  1  0  0  0  0
 19 18  1  6  0  0  0
 19 16  1  0  0  0  0
 20 21  1  0  0  0  0
 22 23  2  0  0  0  0
 22 26  1  0  0  0  0
 23 25  1  0  0  0  0
 25 24  2  0  0  0  0
 26 27  2  0  0  0  0
 27 24  1  0  0  0  0
 28 34  2  0  0  0  0
 28 36  1  0  0  0  0
 29 35  2  0  0  0  0
 29 33  1  0  0  0  0
 30 34  1  0  0  0  0
 30 31  1  1  0  0  0
 32 29  1  0  0  0  0
 33 28  1  0  0  0  0
 34 22  1  0  0  0  0
 35 30  1  0  0  0  0
 37 36  1  0  0  0  0
 38 37  1  0  0  0  0
 40 39  1  0  0  0  0
 40 38  1  0  0  0  0
M  END
>  <MODEL>
3

>  <REMARK>
 VINA RESULT:      -9.3      1.520      3.541
  Name = 
  9 active torsions:
  status: ('A' for Active; 'I' for Inactive)
    1  A    between atoms: C_2  and  C_37
    2  A    between atoms: N_5  and  C_7
    3  A    between atoms: C_6  and  C_10
    4  A    between atoms: C_8  and  C_18
    5  A    between atoms: C_8  and  C_24
    6  A    between atoms: C_9  and  C_12
    7  A    between atoms: C_10  and  C_18
    8  A    between atoms: C_14  and  C_34
    9  A    between atoms: C_16  and  C_21
                            x       y       z     vdW  Elec       q    Type
                         _______ _______ _______ _____ _____    ______ ____

>  <TORSDO>
F 9

$$$$
=
 OpenBabel11062417583D

 40 45  0  0  1  0  0  0  0  0999 V2000
  186.1900  176.5170  135.9820 N   0  0  0  0  0  2  0  0  0  0  0  0
  189.2270  178.4610  136.8410 C   0  0  0  0  0  2  0  0  0  0  0  0
  187.8170  178.3120  138.8510 C   0  0  2  0  0  3  0  0  0  0  0  0
  187.3820  176.9830  138.2090 C   0  0  0  0  0  2  0  0  0  0  0  0
  188.1230  177.8580  136.1000 N   0  0  0  0  0  0  0  0  0  0  0  0
  187.2360  177.1520  136.7270 C   0  0  0  0  0  0  0  0  0  0  0  0
  188.7230  179.1480  138.0360 N   0  0  0  0  0  2  0  0  0  0  0  0
  183.9640  176.3110  137.0520 C   0  0  0  0  0  3  0  0  0  0  0  0
  185.1080  175.7240  136.4950 C   0  0  0  0  0  0  0  0  0  0  0  0
  184.1550  173.5330  136.9200 C   0  0  0  0  0  0  0  0  0  0  0  0
  185.1960  174.3300  136.4300 C   0  0  0  0  0  3  0  0  0  0  0  0
  183.0250  174.1280  137.4940 C   0  0  0  0  0  3  0  0  0  0  0  0
  182.9280  175.5220  137.5720 C   0  0  0  0  0  0  0  0  0  0  0  0
  182.0080  176.7810  139.4770 N   0  0  2  0  0  0  0  0  0  0  0  0
  181.6080  177.7800  140.3480 C   0  0  0  0  0  2  0  0  0  0  0  0
  181.7020  176.1560  138.1470 C   0  0  2  0  0  3  0  0  0  0  0  0
  180.3860  177.3400  140.6660 C   0  0  0  0  0  2  0  0  0  0  0  0
  180.0230  176.0050  139.9600 C   0  0  0  0  0  2  0  0  0  0  0  0
  181.3220  175.5050  139.2900 C   0  0  2  0  0  3  0  0  0  0  0  0
  184.2680  172.0500  136.8650 C   0  0  0  0  0  2  0  0  0  0  0  0
  182.9080  171.4120  137.0730 C   0  0  0  0  0  1  0  0  0  0  0  0
  189.3710  177.6780  142.8130 C   0  0  0  0  0  0  0  0  0  0  0  0
  190.2120  177.5430  141.6990 C   0  0  0  0  0  3  0  0  0  0  0  0
  188.3720  178.0970  140.2210 C   0  0  0  0  0  0  0  0  0  0  0  0
  189.7180  177.7580  140.4100 C   0  0  0  0  0  3  0  0  0  0  0  0
  188.0230  178.0140  142.6160 C   0  0  0  0  0  3  0  0  0  0  0  0
  187.5270  178.2250  141.3270 C   0  0  0  0  0  3  0  0  0  0  0  0
  189.1420  177.5340  145.2820 C   0  0  0  0  0  0  0  0  0  0  0  0
  191.0450  176.9960  146.7120 C   0  0  0  0  0  0  0  0  0  0  0  0
  191.3680  177.0350  144.3000 C   0  0  1  0  0  3  0  0  0  0  0  0
  191.6530  175.7520  143.5380 C   0  0  0  0  0  1  0  0  0  0  0  0
  191.5670  176.8100  148.0200 N   0  0  0  0  0  1  0  0  0  0  0  0
  189.6990  177.3120  146.5440 O   0  0  0  0  0  0  0  0  0  0  0  0
  189.9040  177.4140  144.1730 C   0  0  0  0  0  0  0  0  0  0  0  0
  191.8240  176.8800  145.6830 N   0  0  0  0  0  0  0  0  0  0  0  0
  187.7050  177.9530  145.2310 C   0  0  0  0  0  2  0  0  0  0  0  0
  187.0580  177.8030  146.5970 C   0  0  0  0  0  2  0  0  0  0  0  0
  185.6220  178.2920  146.5560 C   0  0  0  0  0  2  0  0  0  0  0  0
  183.8650  178.9740  144.9310 C   0  0  0  0  0  1  0  0  0  0  0  0
  185.3510  179.0100  145.2470 C   0  0  0  0  0  2  0  0  0  0  0  0
  1  9  1  0  0  0  0
  1  6  1  0  0  0  0
  2  7  1  0  0  0  0
  3 24  1  1  0  0  0
  4  3  1  0  0  0  0
  5  6  2  0  0  0  0
  5  2  1  0  0  0  0
  6  4  1  0  0  0  0
  7  3  1  0  0  0  0
  8 13  1  0  0  0  0
  9  8  2  0  0  0  0
 10 12  1  0  0  0  0
 11  9  1  0  0  0  0
 11 10  2  0  0  0  0
 12 13  2  0  0  0  0
 14 15  1  6  0  0  0
 15 17  1  0  0  0  0
 16 13  1  1  0  0  0
 16 19  1  0  0  0  0
 16 14  1  0  0  0  0
 18 17  1  0  0  0  0
 19 14  1  0  0  0  0
 19 18  1  6  0  0  0
 20 10  1  0  0  0  0
 20 21  1  0  0  0  0
 22 34  1  0  0  0  0
 23 22  2  0  0  0  0
 24 25  2  0  0  0  0
 24 27  1  0  0  0  0
 25 23  1  0  0  0  0
 26 22  1  0  0  0  0
 27 26  2  0  0  0  0
 28 33  1  0  0  0  0
 29 32  1  0  0  0  0
 30 31  1  6  0  0  0
 30 35  1  0  0  0  0
 33 29  1  0  0  0  0
 34 30  1  0  0  0  0
 34 28  2  0  0  0  0
 35 29  2  0  0  0  0
 36 28  1  0  0  0  0
 36 37  1  0  0  0  0
 38 37  1  0  0  0  0
 39 40  1  0  0  0  0
 40 38  1  0  0  0  0
M  END
>  <MODEL>
4

>  <REMARK>
 VINA RESULT:      -8.9      3.684     10.174
  Name = 
  9 active torsions:
  status: ('A' for Active; 'I' for Inactive)
    1  A    between atoms: C_2  and  C_37
    2  A    between atoms: N_5  and  C_7
    3  A    between atoms: C_6  and  C_10
    4  A    between atoms: C_8  and  C_18
    5  A    between atoms: C_8  and  C_24
    6  A    between atoms: C_9  and  C_12
    7  A    between atoms: C_10  and  C_18
    8  A    between atoms: C_14  and  C_34
    9  A    between atoms: C_16  and  C_21
                            x       y       z     vdW  Elec       q    Type
                         _______ _______ _______ _____ _____    ______ ____

>  <TORSDO>
F 9

$$$$
=
 OpenBabel11062417583D

 40 45  0  0  1  0  0  0  0  0999 V2000
  187.5330  177.7570  146.8140 N   0  0  0  0  0  2  0  0  0  0  0  0
  184.0010  178.5960  146.0670 C   0  0  0  0  0  2  0  0  0  0  0  0
  185.3590  179.1730  144.0990 C   0  0  2  0  0  3  0  0  0  0  0  0
  186.2390  178.0190  144.6110 C   0  0  0  0  0  2  0  0  0  0  0  0
  185.2510  178.3400  146.7750 N   0  0  0  0  0  0  0  0  0  0  0  0
  186.3250  178.0640  146.1060 C   0  0  0  0  0  0  0  0  0  0  0  0
  184.2230  179.5430  144.9680 N   0  0  0  0  0  2  0  0  0  0  0  0
  189.1880  177.8860  144.9730 C   0  0  0  0  0  3  0  0  0  0  0  0
  188.8220  177.4560  146.2550 C   0  0  0  0  0  0  0  0  0  0  0  0
  191.0010  176.4150  146.4960 C   0  0  0  0  0  0  0  0  0  0  0  0
  189.7370  176.7210  147.0150 C   0  0  0  0  0  3  0  0  0  0  0  0
  191.3490  176.8300  145.2060 C   0  0  0  0  0  3  0  0  0  0  0  0
  190.4400  177.5610  144.4330 C   0  0  0  0  0  0  0  0  0  0  0  0
  190.0770  177.2890  142.0130 N   0  0  2  0  0  0  0  0  0  0  0  0
  189.6010  177.3830  140.7160 C   0  0  0  0  0  2  0  0  0  0  0  0
  190.8310  178.0390  143.0710 C   0  0  2  0  0  3  0  0  0  0  0  0
  190.7550  177.4660  140.0470 C   0  0  0  0  0  2  0  0  0  0  0  0
  191.9970  177.4150  140.9780 C   0  0  0  0  0  2  0  0  0  0  0  0
  191.4680  177.0430  142.3810 C   0  0  2  0  0  3  0  0  0  0  0  0
  191.9600  175.6130  147.3050 C   0  0  0  0  0  2  0  0  0  0  0  0
  192.4840  176.4360  148.4640 C   0  0  0  0  0  1  0  0  0  0  0  0
  184.0990  178.4570  140.0480 C   0  0  0  0  0  0  0  0  0  0  0  0
  183.1720  178.3730  141.0960 C   0  0  0  0  0  3  0  0  0  0  0  0
  184.9070  178.9300  142.6960 C   0  0  0  0  0  0  0  0  0  0  0  0
  183.5710  178.6160  142.4130 C   0  0  0  0  0  3  0  0  0  0  0  0
  185.4360  178.7690  140.3390 C   0  0  0  0  0  3  0  0  0  0  0  0
  185.8360  179.0070  141.6560 C   0  0  0  0  0  3  0  0  0  0  0  0
  184.5330  177.7660  137.7010 C   0  0  0  0  0  0  0  0  0  0  0  0
  182.7570  177.7430  136.0290 C   0  0  0  0  0  0  0  0  0  0  0  0
  182.2010  178.3650  138.3150 C   0  0  1  0  0  3  0  0  0  0  0  0
  181.3270  177.4630  139.1700 C   0  0  0  0  0  1  0  0  0  0  0  0
  182.3600  177.5270  134.6820 N   0  0  0  0  0  1  0  0  0  0  0  0
  184.0840  177.5400  136.3980 O   0  0  0  0  0  0  0  0  0  0  0  0
  183.6660  178.1640  138.6590 C   0  0  0  0  0  0  0  0  0  0  0  0
  181.8860  178.1370  136.9030 N   0  0  0  0  0  0  0  0  0  0  0  0
  185.9980  177.5970  137.9610 C   0  0  0  0  0  2  0  0  0  0  0  0
  186.8120  178.2590  136.8630 C   0  0  0  0  0  2  0  0  0  0  0  0
  188.2200  178.5480  137.3520 C   0  0  0  0  0  2  0  0  0  0  0  0
  188.5320  177.3510  135.1930 C   0  0  0  0  0  1  0  0  0  0  0  0
  189.2380  177.9530  136.3960 C   0  0  0  0  0  2  0  0  0  0  0  0
  2  5  1  0  0  0  0
  3 24  1  6  0  0  0
  3  4  1  0  0  0  0
  3  7  1  0  0  0  0
  4  6  1  0  0  0  0
  6  5  2  0  0  0  0
  6  1  1  0  0  0  0
  7  2  1  0  0  0  0
  8  9  1  0  0  0  0
  9  1  1  0  0  0  0
  9 11  2  0  0  0  0
 10 11  1  0  0  0  0
 10 20  1  0  0  0  0
 12 10  2  0  0  0  0
 13  8  2  0  0  0  0
 13 12  1  0  0  0  0
 14 15  1  6  0  0  0
 14 19  1  0  0  0  0
 14 16  1  0  0  0  0
 16 13  1  1  0  0  0
 17 15  1  0  0  0  0
 17 18  1  0  0  0  0
 19 18  1  6  0  0  0
 19 16  1  0  0  0  0
 20 21  1  0  0  0  0
 22 26  2  0  0  0  0
 22 23  1  0  0  0  0
 23 25  2  0  0  0  0
 25 24  1  0  0  0  0
 26 27  1  0  0  0  0
 27 24  2  0  0  0  0
 28 36  1  0  0  0  0
 28 34  2  0  0  0  0
 29 33  1  0  0  0  0
 29 35  2  0  0  0  0
 30 34  1  0  0  0  0
 30 31  1  1  0  0  0
 32 29  1  0  0  0  0
 33 28  1  0  0  0  0
 34 22  1  0  0  0  0
 35 30  1  0  0  0  0
 37 38  1  0  0  0  0
 37 36  1  0  0  0  0
 39 40  1  0  0  0  0
 40 38  1  0  0  0  0
M  END
>  <MODEL>
5

>  <REMARK>
 VINA RESULT:      -8.8      1.708      3.173
  Name = 
  9 active torsions:
  status: ('A' for Active; 'I' for Inactive)
    1  A    between atoms: C_2  and  C_37
    2  A    between atoms: N_5  and  C_7
    3  A    between atoms: C_6  and  C_10
    4  A    between atoms: C_8  and  C_18
    5  A    between atoms: C_8  and  C_24
    6  A    between atoms: C_9  and  C_12
    7  A    between atoms: C_10  and  C_18
    8  A    between atoms: C_14  and  C_34
    9  A    between atoms: C_16  and  C_21
                            x       y       z     vdW  Elec       q    Type
                         _______ _______ _______ _____ _____    ______ ____

>  <TORSDO>
F 9

$$$$
=
 OpenBabel11062417583D

 40 45  0  0  1  0  0  0  0  0999 V2000
  189.1960  177.0650  135.8880 N   0  0  0  0  0  2  0  0  0  0  0  0
  185.7280  177.6230  134.7050 C   0  0  0  0  0  2  0  0  0  0  0  0
  185.6250  176.7930  137.0180 C   0  0  2  0  0  3  0  0  0  0  0  0
  186.9880  177.5000  137.1250 C   0  0  0  0  0  2  0  0  0  0  0  0
  187.1600  177.3440  134.7350 N   0  0  0  0  0  0  0  0  0  0  0  0
  187.7800  177.2810  135.8720 C   0  0  0  0  0  0  0  0  0  0  0  0
  185.0230  176.7710  135.6690 N   0  0  0  0  0  2  0  0  0  0  0  0
  189.6470  177.3780  138.3050 C   0  0  0  0  0  3  0  0  0  0  0  0
  190.0490  176.9380  137.0370 C   0  0  0  0  0  0  0  0  0  0  0  0
  192.1610  176.2160  137.9890 C   0  0  0  0  0  0  0  0  0  0  0  0
  191.3100  176.3540  136.8860 C   0  0  0  0  0  3  0  0  0  0  0  0
  191.7590  176.6770  139.2480 C   0  0  0  0  0  3  0  0  0  0  0  0
  190.5010  177.2700  139.4110 C   0  0  0  0  0  0  0  0  0  0  0  0
  189.6390  176.5510  141.6010 N   0  0  2  0  0  0  0  0  0  0  0  0
  189.5160  176.1110  142.9090 C   0  0  0  0  0  2  0  0  0  0  0  0
  190.0580  177.7240  140.7650 C   0  0  2  0  0  3  0  0  0  0  0  0
  188.5810  176.9560  143.3550 C   0  0  0  0  0  2  0  0  0  0  0  0
  188.1040  177.9580  142.2680 C   0  0  0  0  0  2  0  0  0  0  0  0
  188.7230  177.4740  140.9370 C   0  0  2  0  0  3  0  0  0  0  0  0
  193.5100  175.6130  137.8140 C   0  0  0  0  0  2  0  0  0  0  0  0
  193.5600  174.8020  136.5340 C   0  0  0  0  0  1  0  0  0  0  0  0
  182.8370  178.2580  139.9480 C   0  0  0  0  0  0  0  0  0  0  0  0
  183.9210  179.0540  139.5520 C   0  0  0  0  0  3  0  0  0  0  0  0
  184.6600  177.3180  138.0300 C   0  0  0  0  0  0  0  0  0  0  0  0
  184.8250  178.5900  138.5930 C   0  0  0  0  0  3  0  0  0  0  0  0
  182.6800  176.9840  139.3820 C   0  0  0  0  0  3  0  0  0  0  0  0
  183.5850  176.5180  138.4260 C   0  0  0  0  0  3  0  0  0  0  0  0
  182.2630  178.8550  142.2900 C   0  0  0  0  0  0  0  0  0  0  0  0
  180.0220  179.5980  142.9060 C   0  0  0  0  0  0  0  0  0  0  0  0
  180.4910  179.1120  140.5680 C   0  0  1  0  0  3  0  0  0  0  0  0
  180.5140  180.2280  139.5380 C   0  0  0  0  0  1  0  0  0  0  0  0
  179.1140  180.0060  143.9200 N   0  0  0  0  0  1  0  0  0  0  0  0
  181.3370  179.2900  143.2430 O   0  0  0  0  0  0  0  0  0  0  0  0
  181.9040  178.7530  140.9920 C   0  0  0  0  0  0  0  0  0  0  0  0
  179.6210  179.5060  141.6790 N   0  0  0  0  0  0  0  0  0  0  0  0
  183.6240  178.4690  142.7820 C   0  0  0  0  0  2  0  0  0  0  0  0
  184.1280  179.4790  143.7990 C   0  0  0  0  0  2  0  0  0  0  0  0
  184.1270  178.8710  145.1900 C   0  0  0  0  0  2  0  0  0  0  0  0
  186.2190  177.7660  145.9610 C   0  0  0  0  0  1  0  0  0  0  0  0
  185.4730  179.0860  145.8560 C   0  0  0  0  0  2  0  0  0  0  0  0
  1  9  1  0  0  0  0
  2  5  1  0  0  0  0
  2  7  1  0  0  0  0
  3  4  1  0  0  0  0
  3 24  1  1  0  0  0
  5  6  2  0  0  0  0
  6  1  1  0  0  0  0
  6  4  1  0  0  0  0
  7  3  1  0  0  0  0
  8 13  1  0  0  0  0
  9  8  2  0  0  0  0
 10 12  1  0  0  0  0
 11  9  1  0  0  0  0
 11 10  2  0  0  0  0
 12 13  2  0  0  0  0
 14 15  1  1  0  0  0
 15 17  1  0  0  0  0
 16 13  1  6  0  0  0
 16 19  1  0  0  0  0
 16 14  1  0  0  0  0
 18 17  1  0  0  0  0
 19 14  1  0  0  0  0
 19 18  1  1  0  0  0
 20 10  1  0  0  0  0
 21 20  1  0  0  0  0
 22 34  1  0  0  0  0
 23 22  1  0  0  0  0
 24 27  2  0  0  0  0
 24 25  1  0  0  0  0
 25 23  2  0  0  0  0
 26 22  2  0  0  0  0
 27 26  1  0  0  0  0
 28 36  1  0  0  0  0
 28 33  1  0  0  0  0
 29 33  1  0  0  0  0
 29 32  1  0  0  0  0
 30 31  1  6  0  0  0
 30 34  1  0  0  0  0
 30 35  1  0  0  0  0
 34 28  2  0  0  0  0
 35 29  2  0  0  0  0
 36 37  1  0  0  0  0
 37 38  1  0  0  0  0
 38 40  1  0  0  0  0
 40 39  1  0  0  0  0
M  END
>  <MODEL>
6

>  <REMARK>
 VINA RESULT:      -8.6      3.095      7.338
  Name = 
  9 active torsions:
  status: ('A' for Active; 'I' for Inactive)
    1  A    between atoms: C_2  and  C_37
    2  A    between atoms: N_5  and  C_7
    3  A    between atoms: C_6  and  C_10
    4  A    between atoms: C_8  and  C_18
    5  A    between atoms: C_8  and  C_24
    6  A    between atoms: C_9  and  C_12
    7  A    between atoms: C_10  and  C_18
    8  A    between atoms: C_14  and  C_34
    9  A    between atoms: C_16  and  C_21
                            x       y       z     vdW  Elec       q    Type
                         _______ _______ _______ _____ _____    ______ ____

>  <TORSDO>
F 9

$$$$
=
 OpenBabel11062417583D

 40 45  0  0  1  0  0  0  0  0999 V2000
  181.7510  179.3310  143.1610 N   0  0  0  0  0  2  0  0  0  0  0  0
  184.7890  179.4880  145.2780 C   0  0  0  0  0  2  0  0  0  0  0  0
  185.1890  177.8570  143.4810 C   0  0  2  0  0  3  0  0  0  0  0  0
  184.2130  178.7620  142.7080 C   0  0  0  0  0  2  0  0  0  0  0  0
  183.4020  179.5500  144.8260 N   0  0  0  0  0  0  0  0  0  0  0  0
  183.1050  179.2110  143.6120 C   0  0  0  0  0  0  0  0  0  0  0  0
  185.3890  178.2020  144.9040 N   0  0  0  0  0  2  0  0  0  0  0  0
  180.7640  179.9580  140.9740 C   0  0  0  0  0  3  0  0  0  0  0  0
  181.2230  178.9830  141.8710 C   0  0  0  0  0  0  0  0  0  0  0  0
  180.6660  177.2690  140.2460 C   0  0  0  0  0  0  0  0  0  0  0  0
  181.1730  177.6360  141.4980 C   0  0  0  0  0  3  0  0  0  0  0  0
  180.1910  178.2480  139.3660 C   0  0  0  0  0  3  0  0  0  0  0  0
  180.2290  179.5980  139.7300 C   0  0  0  0  0  0  0  0  0  0  0  0
  180.6950  180.7450  137.6020 N   0  0  2  0  0  0  0  0  0  0  0  0
  180.7620  181.1040  136.2660 C   0  0  0  0  0  2  0  0  0  0  0  0
  179.7590  180.6450  138.7710 C   0  0  2  0  0  3  0  0  0  0  0  0
  180.4990  182.4110  136.3590 C   0  0  0  0  0  2  0  0  0  0  0  0
  180.2640  182.8760  137.8230 C   0  0  0  0  0  2  0  0  0  0  0  0
  180.6530  181.6810  138.7220 C   0  0  2  0  0  3  0  0  0  0  0  0
  180.5980  175.8310  139.8670 C   0  0  0  0  0  2  0  0  0  0  0  0
  179.4850  175.1400  140.6290 C   0  0  0  0  0  1  0  0  0  0  0  0
  188.9530  177.4530  141.4370 C   0  0  0  0  0  0  0  0  0  0  0  0
  188.0540  178.4610  141.0600 C   0  0  0  0  0  3  0  0  0  0  0  0
  186.4960  177.7330  142.7680 C   0  0  0  0  0  0  0  0  0  0  0  0
  186.8350  178.6050  141.7260 C   0  0  0  0  0  3  0  0  0  0  0  0
  188.6050  176.5810  142.4800 C   0  0  0  0  0  3  0  0  0  0  0  0
  187.3850  176.7220  143.1430 C   0  0  0  0  0  3  0  0  0  0  0  0
  191.4220  177.1950  141.3270 C   0  0  0  0  0  0  0  0  0  0  0  0
  192.6010  177.0990  139.1940 C   0  0  0  0  0  0  0  0  0  0  0  0
  190.1740  177.2780  139.1800 C   0  0  1  0  0  3  0  0  0  0  0  0
  189.3180  176.1220  138.6910 C   0  0  0  0  0  1  0  0  0  0  0  0
  193.8320  177.0130  138.4900 N   0  0  0  0  0  1  0  0  0  0  0  0
  192.6010  177.0830  140.5860 O   0  0  0  0  0  0  0  0  0  0  0  0
  190.2300  177.2920  140.6980 C   0  0  0  0  0  0  0  0  0  0  0  0
  191.4890  177.2030  138.5390 N   0  0  0  0  0  0  0  0  0  0  0  0
  191.5510  177.2530  142.8190 C   0  0  0  0  0  2  0  0  0  0  0  0
  191.5760  178.6950  143.2940 C   0  0  0  0  0  2  0  0  0  0  0  0
  190.6470  178.8740  144.4810 C   0  0  0  0  0  2  0  0  0  0  0  0
  189.2860  177.5370  146.0800 C   0  0  0  0  0  1  0  0  0  0  0  0
  190.5860  177.5940  145.2950 C   0  0  0  0  0  2  0  0  0  0  0  0
  1  6  1  0  0  0  0
  3 24  1  6  0  0  0
  3  7  1  0  0  0  0
  4  3  1  0  0  0  0
  4  6  1  0  0  0  0
  5  2  1  0  0  0  0
  6  5  2  0  0  0  0
  7  2  1  0  0  0  0
  8  9  1  0  0  0  0
  9  1  1  0  0  0  0
 10 11  1  0  0  0  0
 11  9  2  0  0  0  0
 12 13  1  0  0  0  0
 12 10  2  0  0  0  0
 13  8  2  0  0  0  0
 14 15  1  6  0  0  0
 14 19  1  0  0  0  0
 14 16  1  0  0  0  0
 15 17  1  0  0  0  0
 16 13  1  1  0  0  0
 17 18  1  0  0  0  0
 19 18  1  6  0  0  0
 19 16  1  0  0  0  0
 20 10  1  0  0  0  0
 20 21  1  0  0  0  0
 22 26  1  0  0  0  0
 23 22  2  0  0  0  0
 23 25  1  0  0  0  0
 24 27  1  0  0  0  0
 25 24  2  0  0  0  0
 26 27  2  0  0  0  0
 28 36  1  0  0  0  0
 29 33  1  0  0  0  0
 30 31  1  1  0  0  0
 30 34  1  0  0  0  0
 32 29  1  0  0  0  0
 33 28  1  0  0  0  0
 34 28  2  0  0  0  0
 34 22  1  0  0  0  0
 35 30  1  0  0  0  0
 35 29  2  0  0  0  0
 36 37  1  0  0  0  0
 37 38  1  0  0  0  0
 38 40  1  0  0  0  0
 40 39  1  0  0  0  0
M  END
>  <MODEL>
7

>  <REMARK>
 VINA RESULT:      -8.4      2.892      9.586
  Name = 
  9 active torsions:
  status: ('A' for Active; 'I' for Inactive)
    1  A    between atoms: C_2  and  C_37
    2  A    between atoms: N_5  and  C_7
    3  A    between atoms: C_6  and  C_10
    4  A    between atoms: C_8  and  C_18
    5  A    between atoms: C_8  and  C_24
    6  A    between atoms: C_9  and  C_12
    7  A    between atoms: C_10  and  C_18
    8  A    between atoms: C_14  and  C_34
    9  A    between atoms: C_16  and  C_21
                            x       y       z     vdW  Elec       q    Type
                         _______ _______ _______ _____ _____    ______ ____

>  <TORSDO>
F 9

$$$$
=
 OpenBabel11062417583D

 40 45  0  0  1  0  0  0  0  0999 V2000
  189.1680  178.0230  138.7730 N   0  0  0  0  0  2  0  0  0  0  0  0
  189.0350  176.6220  135.3440 C   0  0  0  0  0  2  0  0  0  0  0  0
  188.0480  174.9760  136.8840 C   0  0  2  0  0  3  0  0  0  0  0  0
  187.6770  176.2380  137.6830 C   0  0  0  0  0  2  0  0  0  0  0  0
  189.4350  177.3880  136.5200 N   0  0  0  0  0  0  0  0  0  0  0  0
  188.8050  177.2230  137.6410 C   0  0  0  0  0  0  0  0  0  0  0  0
  188.8860  175.2030  135.6880 N   0  0  0  0  0  2  0  0  0  0  0  0
  189.2490  177.2790  141.1370 C   0  0  0  0  0  3  0  0  0  0  0  0
  188.6110  177.9680  140.0970 C   0  0  0  0  0  0  0  0  0  0  0  0
  186.8410  178.5930  141.6350 C   0  0  0  0  0  0  0  0  0  0  0  0
  187.4050  178.6280  140.3550 C   0  0  0  0  0  3  0  0  0  0  0  0
  187.4750  177.8840  142.6620 C   0  0  0  0  0  3  0  0  0  0  0  0
  188.6790  177.2140  142.4150 C   0  0  0  0  0  0  0  0  0  0  0  0
  189.6080  177.4140  144.6860 N   0  0  2  0  0  0  0  0  0  0  0  0
  189.7820  177.4410  146.0600 C   0  0  0  0  0  2  0  0  0  0  0  0
  189.3740  176.4920  143.5250 C   0  0  2  0  0  3  0  0  0  0  0  0
  190.9330  176.7710  146.1660 C   0  0  0  0  0  2  0  0  0  0  0  0
  191.4950  176.3160  144.7900 C   0  0  0  0  0  2  0  0  0  0  0  0
  190.6260  177.0120  143.7190 C   0  0  2  0  0  3  0  0  0  0  0  0
  185.5470  179.2800  141.8940 C   0  0  0  0  0  2  0  0  0  0  0  0
  184.4660  178.2640  142.2040 C   0  0  0  0  0  1  0  0  0  0  0  0
  184.5440  172.6580  135.9620 C   0  0  0  0  0  0  0  0  0  0  0  0
  185.1560  173.4310  134.9650 C   0  0  0  0  0  3  0  0  0  0  0  0
  186.8370  174.1700  136.5480 C   0  0  0  0  0  0  0  0  0  0  0  0
  186.3010  174.1780  135.2540 C   0  0  0  0  0  3  0  0  0  0  0  0
  185.0850  172.6570  137.2560 C   0  0  0  0  0  3  0  0  0  0  0  0
  186.2270  173.4070  137.5470 C   0  0  0  0  0  3  0  0  0  0  0  0
  182.1330  172.5050  135.3800 C   0  0  0  0  0  0  0  0  0  0  0  0
  181.0040  170.3520  135.1710 C   0  0  0  0  0  0  0  0  0  0  0  0
  183.3860  170.3800  135.6700 C   0  0  1  0  0  3  0  0  0  0  0  0
  184.3950  169.8830  134.6480 C   0  0  0  0  0  1  0  0  0  0  0  0
  179.8050  169.6280  134.9350 N   0  0  0  0  0  1  0  0  0  0  0  0
  180.9900  171.7440  135.1270 O   0  0  0  0  0  0  0  0  0  0  0  0
  183.3090  171.8960  135.6470 C   0  0  0  0  0  0  0  0  0  0  0  0
  182.1020  169.7170  135.4340 N   0  0  0  0  0  0  0  0  0  0  0  0
  181.9780  173.9950  135.3910 C   0  0  0  0  0  2  0  0  0  0  0  0
  181.0610  174.4250  136.5230 C   0  0  0  0  0  2  0  0  0  0  0  0
  181.5380  175.7380  137.1170 C   0  0  0  0  0  2  0  0  0  0  0  0
  183.8070  176.3840  137.9100 C   0  0  0  0  0  1  0  0  0  0  0  0
  182.9700  176.0120  136.6970 C   0  0  0  0  0  2  0  0  0  0  0  0
  1  9  1  0  0  0  0
  2  7  1  0  0  0  0
  2  5  1  0  0  0  0
  3 24  1  6  0  0  0
  3  4  1  0  0  0  0
  5  6  2  0  0  0  0
  6  4  1  0  0  0  0
  6  1  1  0  0  0  0
  7  3  1  0  0  0  0
  8 13  1  0  0  0  0
  9 11  1  0  0  0  0
  9  8  2  0  0  0  0
 10 20  1  0  0  0  0
 10 12  1  0  0  0  0
 11 10  2  0  0  0  0
 13 12  2  0  0  0  0
 14 15  1  1  0  0  0
 15 17  1  0  0  0  0
 16 13  1  6  0  0  0
 16 19  1  0  0  0  0
 16 14  1  0  0  0  0
 18 17  1  0  0  0  0
 19 14  1  0  0  0  0
 19 18  1  1  0  0  0
 20 21  1  0  0  0  0
 22 26  1  0  0  0  0
 23 25  1  0  0  0  0
 23 22  2  0  0  0  0
 24 27  1  0  0  0  0
 25 24  2  0  0  0  0
 26 27  2  0  0  0  0
 28 36  1  0  0  0  0
 28 34  2  0  0  0  0
 29 35  2  0  0  0  0
 30 31  1  6  0  0  0
 32 29  1  0  0  0  0
 33 29  1  0  0  0  0
 33 28  1  0  0  0  0
 34 30  1  0  0  0  0
 34 22  1  0  0  0  0
 35 30  1  0  0  0  0
 36 37  1  0  0  0  0
 37 38  1  0  0  0  0
 40 38  1  0  0  0  0
 40 39  1  0  0  0  0
M  END
>  <MODEL>
8

>  <REMARK>
 VINA RESULT:      -8.1      4.232      7.459
  Name = 
  9 active torsions:
  status: ('A' for Active; 'I' for Inactive)
    1  A    between atoms: C_2  and  C_37
    2  A    between atoms: N_5  and  C_7
    3  A    between atoms: C_6  and  C_10
    4  A    between atoms: C_8  and  C_18
    5  A    between atoms: C_8  and  C_24
    6  A    between atoms: C_9  and  C_12
    7  A    between atoms: C_10  and  C_18
    8  A    between atoms: C_14  and  C_34
    9  A    between atoms: C_16  and  C_21
                            x       y       z     vdW  Elec       q    Type
                         _______ _______ _______ _____ _____    ______ ____

>  <TORSDO>
F 9

$$$$
=
 OpenBabel11062417583D

 40 45  0  0  1  0  0  0  0  0999 V2000
  185.7810  176.8910  135.8340 N   0  0  0  0  0  2  0  0  0  0  0  0
  189.3350  177.5690  136.6380 C   0  0  0  0  0  2  0  0  0  0  0  0
  187.9690  178.2520  138.5660 C   0  0  2  0  0  3  0  0  0  0  0  0
  187.0430  177.1330  138.0580 C   0  0  0  0  0  2  0  0  0  0  0  0
  188.0880  177.3620  135.9090 N   0  0  0  0  0  0  0  0  0  0  0  0
  186.9880  177.1520  136.5610 C   0  0  0  0  0  0  0  0  0  0  0  0
  189.1390  178.5480  137.7140 N   0  0  0  0  0  2  0  0  0  0  0  0
  183.7210  175.5270  136.0380 C   0  0  0  0  0  3  0  0  0  0  0  0
  184.4680  176.6650  136.3720 C   0  0  0  0  0  0  0  0  0  0  0  0
  182.6490  177.4040  137.7990 C   0  0  0  0  0  0  0  0  0  0  0  0
  183.9250  177.6000  137.2580 C   0  0  0  0  0  3  0  0  0  0  0  0
  181.9020  176.2750  137.4420 C   0  0  0  0  0  3  0  0  0  0  0  0
  182.4310  175.3350  136.5510 C   0  0  0  0  0  0  0  0  0  0  0  0
  181.0880  173.4740  137.4440 N   0  0  2  0  0  0  0  0  0  0  0  0
  180.0580  172.6760  137.9110 C   0  0  0  0  0  2  0  0  0  0  0  0
  181.6470  174.1090  136.2050 C   0  0  2  0  0  3  0  0  0  0  0  0
  180.3340  171.5350  137.2700 C   0  0  0  0  0  2  0  0  0  0  0  0
  181.5980  171.6390  136.3730 C   0  0  0  0  0  2  0  0  0  0  0  0
  182.2580  172.9940  136.7130 C   0  0  2  0  0  3  0  0  0  0  0  0
  182.0720  178.4160  138.7240 C   0  0  0  0  0  2  0  0  0  0  0  0
  181.2800  179.4480  137.9460 C   0  0  0  0  0  1  0  0  0  0  0  0
  189.2040  177.5650  142.6290 C   0  0  0  0  0  0  0  0  0  0  0  0
  188.0870  178.3700  142.3620 C   0  0  0  0  0  3  0  0  0  0  0  0
  188.3810  178.0150  139.9820 C   0  0  0  0  0  0  0  0  0  0  0  0
  187.6730  178.5880  141.0460 C   0  0  0  0  0  3  0  0  0  0  0  0
  189.9110  176.9970  141.5590 C   0  0  0  0  0  3  0  0  0  0  0  0
  189.5000  177.2190  140.2430 C   0  0  0  0  0  3  0  0  0  0  0  0
  188.7870  177.3600  145.0700 C   0  0  0  0  0  0  0  0  0  0  0  0
  190.6180  177.1010  146.6610 C   0  0  0  0  0  0  0  0  0  0  0  0
  191.1400  177.2170  144.2870 C   0  0  1  0  0  3  0  0  0  0  0  0
  191.6820  176.0000  143.5560 C   0  0  0  0  0  1  0  0  0  0  0  0
  191.0460  176.9820  148.0110 N   0  0  0  0  0  1  0  0  0  0  0  0
  189.2590  177.2110  146.3760 O   0  0  0  0  0  0  0  0  0  0  0  0
  189.6510  177.3700  144.0320 C   0  0  0  0  0  0  0  0  0  0  0  0
  191.4910  177.1170  145.7050 N   0  0  0  0  0  0  0  0  0  0  0  0
  187.3120  177.5560  144.8920 C   0  0  0  0  0  2  0  0  0  0  0  0
  186.6660  177.9510  146.2080 C   0  0  0  0  0  2  0  0  0  0  0  0
  185.2030  178.2960  145.9940 C   0  0  0  0  0  2  0  0  0  0  0  0
  183.4930  179.0000  144.3290 C   0  0  0  0  0  1  0  0  0  0  0  0
  184.9520  178.6280  144.5350 C   0  0  0  0  0  2  0  0  0  0  0  0
  1  9  1  0  0  0  0
  1  6  1  0  0  0  0
  2  7  1  0  0  0  0
  3 24  1  1  0  0  0
  4  3  1  0  0  0  0
  5  6  2  0  0  0  0
  5  2  1  0  0  0  0
  6  4  1  0  0  0  0
  7  3  1  0  0  0  0
  8  9  2  0  0  0  0
  8 13  1  0  0  0  0
  9 11  1  0  0  0  0
 10 20  1  0  0  0  0
 11 10  2  0  0  0  0
 12 10  1  0  0  0  0
 13 12  2  0  0  0  0
 14 15  1  6  0  0  0
 16 13  1  1  0  0  0
 16 19  1  0  0  0  0
 16 14  1  0  0  0  0
 17 15  1  0  0  0  0
 18 17  1  0  0  0  0
 19 18  1  6  0  0  0
 19 14  1  0  0  0  0
 21 20  1  0  0  0  0
 22 34  1  0  0  0  0
 23 22  1  0  0  0  0
 24 27  2  0  0  0  0
 24 25  1  0  0  0  0
 25 23  2  0  0  0  0
 26 22  2  0  0  0  0
 27 26  1  0  0  0  0
 28 33  1  0  0  0  0
 29 32  1  0  0  0  0
 30 31  1  6  0  0  0
 30 35  1  0  0  0  0
 33 29  1  0  0  0  0
 34 30  1  0  0  0  0
 34 28  2  0  0  0  0
 35 29  2  0  0  0  0
 36 28  1  0  0  0  0
 36 37  1  0  0  0  0
 38 37  1  0  0  0  0
 39 40  1  0  0  0  0
 40 38  1  0  0  0  0
M  END
>  <MODEL>
9

>  <REMARK>
 VINA RESULT:      -7.9      3.438     10.424
  Name = 
  9 active torsions:
  status: ('A' for Active; 'I' for Inactive)
    1  A    between atoms: C_2  and  C_37
    2  A    between atoms: N_5  and  C_7
    3  A    between atoms: C_6  and  C_10
    4  A    between atoms: C_8  and  C_18
    5  A    between atoms: C_8  and  C_24
    6  A    between atoms: C_9  and  C_12
    7  A    between atoms: C_10  and  C_18
    8  A    between atoms: C_14  and  C_34
    9  A    between atoms: C_16  and  C_21
                            x       y       z     vdW  Elec       q    Type
                         _______ _______ _______ _____ _____    ______ ____

>  <TORSDO>
F 9

$$$$
