=
 OpenBabel11062416163D

 44 50  0  0  1  0  0  0  0  0999 V2000
  187.2370  177.9410  139.1780 C   0  0  0  0  0  2  0  0  0  0  0  0
  186.3850  178.6250  138.2150 N   0  0  0  0  0  2  0  0  0  0  0  0
  185.0440  178.6820  138.7830 C   0  0  1  0  0  3  0  0  0  0  0  0
  182.2210  177.8040  139.7110 C   0  0  1  0  0  3  0  0  0  0  0  0
  183.2580  180.0800  139.2780 C   0  0  0  0  0  2  0  0  0  0  0  0
  182.2230  178.1880  141.1830 C   0  0  0  0  0  1  0  0  0  0  0  0
  182.3050  178.9840  138.7290 C   0  0  1  0  0  3  0  0  0  0  0  0
  182.9460  178.4280  137.5330 N   0  0  1  0  0  0  0  0  0  0  0  0
  184.5520  180.0100  138.6970 O   0  0  0  0  0  0  0  0  0  0  0  0
  183.4120  176.9330  139.3520 C   0  0  0  0  0  2  0  0  0  0  0  0
  184.0420  177.6500  138.1510 C   0  0  2  0  0  0  0  0  0  0  0  0
  185.2890  174.4040  136.5380 C   0  0  0  0  0  0  0  0  0  0  0  0
  184.7150  176.6880  137.1720 C   0  0  0  0  0  0  0  0  0  0  0  0
  185.8550  176.2510  135.0670 C   0  0  0  0  0  3  0  0  0  0  0  0
  184.7150  175.3080  137.4360 C   0  0  0  0  0  3  0  0  0  0  0  0
  185.8620  174.8840  135.3490 C   0  0  0  0  0  3  0  0  0  0  0  0
  185.2800  177.1480  135.9710 C   0  0  0  0  0  3  0  0  0  0  0  0
  184.1920  172.3610  137.1540 C   0  0  0  0  0  2  0  0  0  0  0  0
  185.2730  173.0070  136.8560 N   0  0  0  0  0  0  0  0  0  0  0  0
  181.9740  177.5830  136.8180 C   0  0  0  0  0  3  0  0  0  0  0  0
  181.9770  177.9390  135.3420 C   0  0  0  0  0  2  0  0  0  0  0  0
  180.8640  178.4420  136.2310 C   0  0  0  0  0  2  0  0  0  0  0  0
  188.3290  177.1640  138.4610 C   0  0  0  0  0  2  0  0  0  0  0  0
  189.5920  177.1290  139.3050 C   0  0  0  0  0  2  0  0  0  0  0  0
  189.2840  176.5710  140.6810 C   0  0  0  0  0  2  0  0  0  0  0  0
  190.3910  176.7280  141.5190 O   0  0  0  0  0  0  0  0  0  0  0  0
  186.4130  178.2090  145.9740 C   0  0  0  0  0  0  0  0  0  0  0  0
  184.6800  178.7970  144.4780 C   0  0  1  0  0  3  0  0  0  0  0  0
  184.1940  177.7360  146.5630 F   0  0  0  0  0  0  0  0  0  0  0  0
  189.8730  176.6510  142.8180 C   0  0  1  0  0  3  0  0  0  0  0  0
  190.9500  176.9590  143.8750 C   0  0  2  0  0  0  0  0  0  0  0  0
  191.4860  178.3770  143.7460 C   0  0  0  0  0  1  0  0  0  0  0  0
  188.7580  178.8930  142.3580 C   0  0  0  0  0  1  0  0  0  0  0  0
  188.1410  177.6070  144.3950 C   0  0  0  0  0  0  0  0  0  0  0  0
  192.0140  176.0720  143.7080 O   0  0  0  0  0  1  0  0  0  0  0  0
  185.8570  178.3770  143.7880 O   0  0  0  0  0  0  0  0  0  0  0  0
  186.8450  178.0460  144.6900 C   0  0  0  0  0  0  0  0  0  0  0  0
  187.2440  177.9460  147.0600 C   0  0  0  0  0  3  0  0  0  0  0  0
  188.5480  177.4970  146.8040 C   0  0  0  0  0  3  0  0  0  0  0  0
  190.3790  176.7500  145.2790 C   0  0  0  0  0  2  0  0  0  0  0  0
  185.0070  178.6900  145.9830 C   0  0  1  0  0  3  0  0  0  0  0  0
  189.0090  177.3340  145.4830 C   0  0  0  0  0  0  0  0  0  0  0  0
  188.5970  177.5040  142.9650 C   0  0  2  0  0  3  0  0  0  0  0  0
  184.3990  180.1240  144.1560 O   0  0  0  0  0  1  0  0  0  0  0  0
  2  1  1  0  0  0  0
  3  2  1  6  0  0  0
  4  6  1  1  0  0  0
  7  5  1  1  0  0  0
  7  4  1  0  0  0  0
  8 20  1  1  0  0  0
  8 11  1  0  0  0  0
  8  7  1  0  0  0  0
  9  3  1  0  0  0  0
  9  5  1  0  0  0  0
 10  4  1  0  0  0  0
 11 13  1  6  0  0  0
 11  3  1  0  0  0  0
 11 10  1  0  0  0  0
 12 19  1  0  0  0  0
 12 15  1  0  0  0  0
 13 15  2  0  0  0  0
 14 16  1  0  0  0  0
 14 17  2  0  0  0  0
 16 12  2  0  0  0  0
 17 13  1  0  0  0  0
 19 18  2  0  0  0  0
 21 22  1  0  0  0  0
 21 20  1  0  0  0  0
 22 20  1  0  0  0  0
 23  1  1  0  0  0  0
 23 24  1  0  0  0  0
 24 25  1  0  0  0  0
 25 26  1  0  0  0  0
 27 41  1  0  0  0  0
 27 38  1  0  0  0  0
 28 44  1  6  0  0  0
 28 41  1  0  0  0  0
 30 26  1  6  0  0  0
 30 43  1  0  0  0  0
 30 31  1  0  0  0  0
 31 32  1  6  0  0  0
 31 40  1  0  0  0  0
 34 37  1  0  0  0  0
 34 42  2  0  0  0  0
 35 31  1  0  0  0  0
 36 28  1  0  0  0  0
 36 37  1  0  0  0  0
 37 27  2  0  0  0  0
 39 38  2  0  0  0  0
 40 42  1  0  0  0  0
 41 29  1  1  0  0  0
 42 39  1  0  0  0  0
 43 33  1  1  0  0  0
 43 34  1  0  0  0  0
M  END
>  <MODEL>
1

>  <REMARK>
 VINA RESULT:      -8.4      0.000      0.000
  Name = 
  10 active torsions:
  status: ('A' for Active; 'I' for Inactive)
    1  A    between atoms: C_1  and  N_18
    2  A    between atoms: C_2  and  N_22
    3  A    between atoms: C_2  and  C_30
    4  A    between atoms: C_3  and  N_21
    5  A    between atoms: C_4  and  O_19
    6  A    between atoms: C_4  and  C_37
    7  A    between atoms: C_5  and  N_22
    8  A    between atoms: C_13  and  O_19
    9  A    between atoms: C_16  and  C_43
   10  A    between atoms: C_30  and  C_37
                            x       y       z     vdW  Elec       q    Type
                         _______ _______ _______ _____ _____    ______ ____

>  <TORSDO>
F 10

$$$$
=
 OpenBabel11062416163D

 44 50  0  0  1  0  0  0  0  0999 V2000
  192.9020  177.0750  139.5660 C   0  0  0  0  0  2  0  0  0  0  0  0
  192.3300  176.1980  138.5540 N   0  0  0  0  0  2  0  0  0  0  0  0
  193.3680  175.9440  137.5610 C   0  0  1  0  0  3  0  0  0  0  0  0
  194.7410  175.4490  134.8280 C   0  0  1  0  0  3  0  0  0  0  0  0
  195.4840  175.0530  137.2230 C   0  0  0  0  0  2  0  0  0  0  0  0
  195.7930  176.5480  134.7830 C   0  0  0  0  0  1  0  0  0  0  0  0
  194.9490  174.3920  135.9240 C   0  0  1  0  0  3  0  0  0  0  0  0
  193.6020  173.8970  136.2260 N   0  0  1  0  0  0  0  0  0  0  0  0
  194.4560  175.2760  138.1770 O   0  0  0  0  0  0  0  0  0  0  0  0
  193.3550  176.0040  135.1030 C   0  0  0  0  0  2  0  0  0  0  0  0
  192.8550  175.1730  136.2920 C   0  0  2  0  0  0  0  0  0  0  0  0
  189.1480  175.6140  135.4240 C   0  0  0  0  0  0  0  0  0  0  0  0
  191.3400  174.9770  136.2840 C   0  0  0  0  0  0  0  0  0  0  0  0
  189.3520  173.7500  136.9660 C   0  0  0  0  0  3  0  0  0  0  0  0
  190.5330  175.7980  135.4790 C   0  0  0  0  0  3  0  0  0  0  0  0
  188.5600  174.5840  136.1750 C   0  0  0  0  0  3  0  0  0  0  0  0
  190.7350  173.9430  137.0170 C   0  0  0  0  0  3  0  0  0  0  0  0
  187.8320  177.5800  135.0270 C   0  0  0  0  0  2  0  0  0  0  0  0
  188.3660  176.4830  134.5960 N   0  0  0  0  0  0  0  0  0  0  0  0
  193.1540  173.0260  135.1250 C   0  0  0  0  0  3  0  0  0  0  0  0
  192.8520  171.6400  135.6640 C   0  0  0  0  0  2  0  0  0  0  0  0
  194.1430  171.8890  134.9220 C   0  0  0  0  0  2  0  0  0  0  0  0
  191.8330  177.5060  140.5570 C   0  0  0  0  0  2  0  0  0  0  0  0
  190.5520  176.7230  140.3250 C   0  0  0  0  0  2  0  0  0  0  0  0
  189.9180  176.3540  141.6520 C   0  0  0  0  0  2  0  0  0  0  0  0
  190.8880  176.3430  142.6580 O   0  0  0  0  0  0  0  0  0  0  0  0
  186.2800  178.3860  146.1870 C   0  0  0  0  0  0  0  0  0  0  0  0
  184.8220  178.7800  144.3690 C   0  0  1  0  0  3  0  0  0  0  0  0
  183.9850  177.9940  146.4640 F   0  0  0  0  0  0  0  0  0  0  0  0
  190.1670  176.4330  143.8550 C   0  0  1  0  0  3  0  0  0  0  0  0
  191.0660  176.8720  145.0250 C   0  0  2  0  0  0  0  0  0  0  0  0
  191.6470  178.2620  144.8080 C   0  0  0  0  0  1  0  0  0  0  0  0
  189.1900  178.6000  142.9420 C   0  0  0  0  0  1  0  0  0  0  0  0
  188.2250  177.5850  144.9980 C   0  0  0  0  0  0  0  0  0  0  0  0
  192.1240  175.9700  145.1460 O   0  0  0  0  0  1  0  0  0  0  0  0
  186.0860  178.2740  143.9370 O   0  0  0  0  0  0  0  0  0  0  0  0
  186.9090  178.0590  145.0210 C   0  0  0  0  0  0  0  0  0  0  0  0
  186.9200  178.2630  147.4180 C   0  0  0  0  0  3  0  0  0  0  0  0
  188.2380  177.7830  147.4350 C   0  0  0  0  0  3  0  0  0  0  0  0
  190.2730  176.8450  146.3330 C   0  0  0  0  0  2  0  0  0  0  0  0
  184.9020  178.8660  145.9080 C   0  0  1  0  0  3  0  0  0  0  0  0
  188.9010  177.4520  146.2370 C   0  0  0  0  0  0  0  0  0  0  0  0
  188.9030  177.3000  143.6850 C   0  0  2  0  0  3  0  0  0  0  0  0
  184.6270  180.0550  143.8400 O   0  0  0  0  0  1  0  0  0  0  0  0
  1 23  1  0  0  0  0
  2  1  1  0  0  0  0
  3  9  1  0  0  0  0
  3  2  1  1  0  0  0
  4  6  1  1  0  0  0
  4 10  1  0  0  0  0
  4  7  1  0  0  0  0
  5  9  1  0  0  0  0
  7  8  1  0  0  0  0
  7  5  1  1  0  0  0
  8 20  1  6  0  0  0
  8 11  1  0  0  0  0
 10 11  1  0  0  0  0
 11 13  1  6  0  0  0
 11  3  1  0  0  0  0
 12 15  2  0  0  0  0
 12 16  1  0  0  0  0
 13 17  2  0  0  0  0
 14 17  1  0  0  0  0
 15 13  1  0  0  0  0
 16 14  2  0  0  0  0
 19 18  2  0  0  0  0
 19 12  1  0  0  0  0
 20 21  1  0  0  0  0
 22 20  1  0  0  0  0
 22 21  1  0  0  0  0
 24 23  1  0  0  0  0
 24 25  1  0  0  0  0
 25 26  1  0  0  0  0
 27 38  1  0  0  0  0
 28 44  1  6  0  0  0
 28 41  1  0  0  0  0
 30 26  1  6  0  0  0
 30 31  1  0  0  0  0
 31 32  1  6  0  0  0
 31 35  1  0  0  0  0
 31 40  1  0  0  0  0
 34 37  1  0  0  0  0
 34 42  2  0  0  0  0
 36 28  1  0  0  0  0
 36 37  1  0  0  0  0
 37 27  2  0  0  0  0
 38 39  2  0  0  0  0
 41 27  1  0  0  0  0
 41 29  1  1  0  0  0
 42 40  1  0  0  0  0
 42 39  1  0  0  0  0
 43 33  1  1  0  0  0
 43 30  1  0  0  0  0
 43 34  1  0  0  0  0
M  END
>  <MODEL>
2

>  <REMARK>
 VINA RESULT:      -8.0      4.067      7.075
  Name = 
  10 active torsions:
  status: ('A' for Active; 'I' for Inactive)
    1  A    between atoms: C_1  and  N_18
    2  A    between atoms: C_2  and  N_22
    3  A    between atoms: C_2  and  C_30
    4  A    between atoms: C_3  and  N_21
    5  A    between atoms: C_4  and  O_19
    6  A    between atoms: C_4  and  C_37
    7  A    between atoms: C_5  and  N_22
    8  A    between atoms: C_13  and  O_19
    9  A    between atoms: C_16  and  C_43
   10  A    between atoms: C_30  and  C_37
                            x       y       z     vdW  Elec       q    Type
                         _______ _______ _______ _____ _____    ______ ____

>  <TORSDO>
F 10

$$$$
=
 OpenBabel11062416163D

 44 50  0  0  1  0  0  0  0  0999 V2000
  184.2350  178.0230  142.2100 C   0  0  0  0  0  2  0  0  0  0  0  0
  183.8820  178.3590  140.8380 N   0  0  0  0  0  2  0  0  0  0  0  0
  182.4890  177.9760  140.6400 C   0  0  1  0  0  3  0  0  0  0  0  0
  179.9950  176.4310  139.6420 C   0  0  1  0  0  3  0  0  0  0  0  0
  180.2970  178.7360  140.6610 C   0  0  0  0  0  2  0  0  0  0  0  0
  179.3000  176.0510  140.9420 C   0  0  0  0  0  1  0  0  0  0  0  0
  180.0540  177.9400  139.3510 C   0  0  1  0  0  3  0  0  0  0  0  0
  181.2520  178.1130  138.5240 N   0  0  1  0  0  0  0  0  0  0  0  0
  181.6570  179.1100  140.8210 O   0  0  0  0  0  0  0  0  0  0  0  0
  181.4480  175.9910  139.6290 C   0  0  0  0  0  2  0  0  0  0  0  0
  182.2150  177.2680  139.2640 C   0  0  2  0  0  0  0  0  0  0  0  0
  184.9160  175.4050  137.2830 C   0  0  0  0  0  0  0  0  0  0  0  0
  183.4920  176.9880  138.4730 C   0  0  0  0  0  0  0  0  0  0  0  0
  185.5070  177.7590  137.3470 C   0  0  0  0  0  3  0  0  0  0  0  0
  183.7750  175.6810  138.0410 C   0  0  0  0  0  3  0  0  0  0  0  0
  185.7840  176.4530  136.9380 C   0  0  0  0  0  3  0  0  0  0  0  0
  184.3650  178.0250  138.1060 C   0  0  0  0  0  3  0  0  0  0  0  0
  185.0890  173.0450  137.6800 C   0  0  0  0  0  2  0  0  0  0  0  0
  185.1670  174.0540  136.8740 N   0  0  0  0  0  0  0  0  0  0  0  0
  180.9730  177.6110  137.1670 C   0  0  0  0  0  3  0  0  0  0  0  0
  181.4570  178.6200  136.1410 C   0  0  0  0  0  2  0  0  0  0  0  0
  179.9850  178.5270  136.4620 C   0  0  0  0  0  2  0  0  0  0  0  0
  184.4320  179.2880  143.0310 C   0  0  0  0  0  2  0  0  0  0  0  0
  184.0930  179.0280  144.4890 C   0  0  0  0  0  2  0  0  0  0  0  0
  185.2680  179.4010  145.3720 C   0  0  0  0  0  2  0  0  0  0  0  0
  185.8190  178.2520  145.9450 O   0  0  0  0  0  0  0  0  0  0  0  0
  191.0430  177.4430  142.7970 C   0  0  0  0  0  0  0  0  0  0  0  0
  189.9670  177.3040  140.6970 C   0  0  1  0  0  3  0  0  0  0  0  0
  192.1060  178.3470  140.9120 F   0  0  0  0  0  0  0  0  0  0  0  0
  187.2000  178.3770  145.7490 C   0  0  1  0  0  3  0  0  0  0  0  0
  187.9950  177.8010  146.9350 C   0  0  2  0  0  0  0  0  0  0  0  0
  187.7540  176.3080  147.1110 C   0  0  0  0  0  1  0  0  0  0  0  0
  187.0010  176.4440  144.1030 C   0  0  0  0  0  1  0  0  0  0  0  0
  189.1210  177.7370  144.2320 C   0  0  0  0  0  0  0  0  0  0  0  0
  187.5950  178.4490  148.1040 O   0  0  0  0  0  1  0  0  0  0  0  0
  189.0340  177.4960  141.7600 O   0  0  0  0  0  0  0  0  0  0  0  0
  189.6950  177.5690  142.9670 C   0  0  0  0  0  0  0  0  0  0  0  0
  191.9190  177.4740  143.8790 C   0  0  0  0  0  3  0  0  0  0  0  0
  191.3810  177.6480  145.1630 C   0  0  0  0  0  3  0  0  0  0  0  0
  189.4890  178.0600  146.7390 C   0  0  0  0  0  2  0  0  0  0  0  0
  191.3620  177.2700  141.3560 C   0  0  1  0  0  3  0  0  0  0  0  0
  189.9910  177.7710  145.3520 C   0  0  0  0  0  0  0  0  0  0  0  0
  187.6260  177.8070  144.3810 C   0  0  2  0  0  3  0  0  0  0  0  0
  189.7170  176.0820  140.0730 O   0  0  0  0  0  1  0  0  0  0  0  0
  1 23  1  0  0  0  0
  2  1  1  0  0  0  0
  3  9  1  0  0  0  0
  3  2  1  6  0  0  0
  4  6  1  1  0  0  0
  5  9  1  0  0  0  0
  7  4  1  0  0  0  0
  7  5  1  1  0  0  0
  8 20  1  6  0  0  0
  8 11  1  0  0  0  0
  8  7  1  0  0  0  0
 10  4  1  0  0  0  0
 11 13  1  6  0  0  0
 11 10  1  0  0  0  0
 11  3  1  0  0  0  0
 12 15  1  0  0  0  0
 14 17  2  0  0  0  0
 15 13  2  0  0  0  0
 16 12  2  0  0  0  0
 16 14  1  0  0  0  0
 17 13  1  0  0  0  0
 19 12  1  0  0  0  0
 19 18  2  0  0  0  0
 21 22  1  0  0  0  0
 21 20  1  0  0  0  0
 22 20  1  0  0  0  0
 23 24  1  0  0  0  0
 24 25  1  0  0  0  0
 25 26  1  0  0  0  0
 27 37  2  0  0  0  0
 27 38  1  0  0  0  0
 28 44  1  1  0  0  0
 28 41  1  0  0  0  0
 28 36  1  0  0  0  0
 30 26  1  1  0  0  0
 30 31  1  0  0  0  0
 31 32  1  1  0  0  0
 31 35  1  0  0  0  0
 34 43  1  0  0  0  0
 34 42  2  0  0  0  0
 36 37  1  0  0  0  0
 37 34  1  0  0  0  0
 38 39  2  0  0  0  0
 39 42  1  0  0  0  0
 40 31  1  0  0  0  0
 41 29  1  6  0  0  0
 41 27  1  0  0  0  0
 42 40  1  0  0  0  0
 43 33  1  1  0  0  0
 43 30  1  0  0  0  0
M  END
>  <MODEL>
3

>  <REMARK>
 VINA RESULT:      -7.5      2.286      4.340
  Name = 
  10 active torsions:
  status: ('A' for Active; 'I' for Inactive)
    1  A    between atoms: C_1  and  N_18
    2  A    between atoms: C_2  and  N_22
    3  A    between atoms: C_2  and  C_30
    4  A    between atoms: C_3  and  N_21
    5  A    between atoms: C_4  and  O_19
    6  A    between atoms: C_4  and  C_37
    7  A    between atoms: C_5  and  N_22
    8  A    between atoms: C_13  and  O_19
    9  A    between atoms: C_16  and  C_43
   10  A    between atoms: C_30  and  C_37
                            x       y       z     vdW  Elec       q    Type
                         _______ _______ _______ _____ _____    ______ ____

>  <TORSDO>
F 10

$$$$
=
 OpenBabel11062416163D

 44 50  0  0  1  0  0  0  0  0999 V2000
  184.6520  178.5960  140.8890 C   0  0  0  0  0  2  0  0  0  0  0  0
  183.8240  179.4440  140.0440 N   0  0  0  0  0  2  0  0  0  0  0  0
  183.4160  178.6460  138.8930 C   0  0  1  0  0  3  0  0  0  0  0  0
  181.6810  177.5080  136.5910 C   0  0  1  0  0  3  0  0  0  0  0  0
  183.7890  176.6720  137.7320 C   0  0  0  0  0  2  0  0  0  0  0  0
  182.5540  177.7530  135.3690 C   0  0  0  0  0  1  0  0  0  0  0  0
  182.2500  176.5050  137.6080 C   0  0  1  0  0  3  0  0  0  0  0  0
  181.6770  176.9130  138.8950 N   0  0  1  0  0  0  0  0  0  0  0  0
  184.1590  177.4390  138.8680 O   0  0  0  0  0  0  0  0  0  0  0  0
  181.4690  178.7780  137.3970 C   0  0  0  0  0  2  0  0  0  0  0  0
  181.8690  178.3790  138.8230 C   0  0  2  0  0  0  0  0  0  0  0  0
  180.5070  179.4490  142.2430 C   0  0  0  0  0  0  0  0  0  0  0  0
  181.0840  179.1350  139.8930 C   0  0  0  0  0  0  0  0  0  0  0  0
  179.6270  180.9660  140.5640 C   0  0  0  0  0  3  0  0  0  0  0  0
  181.1850  178.7490  141.2400 C   0  0  0  0  0  3  0  0  0  0  0  0
  179.7240  180.5620  141.8960 C   0  0  0  0  0  3  0  0  0  0  0  0
  180.3070  180.2600  139.5690 C   0  0  0  0  0  3  0  0  0  0  0  0
  179.6250  178.6480  144.3250 C   0  0  0  0  0  2  0  0  0  0  0  0
  180.6340  179.0100  143.6010 N   0  0  0  0  0  0  0  0  0  0  0  0
  180.2570  176.5220  138.9310 C   0  0  0  0  0  3  0  0  0  0  0  0
  179.9540  175.8230  140.2440 C   0  0  0  0  0  2  0  0  0  0  0  0
  180.1320  175.0070  138.9870 C   0  0  0  0  0  2  0  0  0  0  0  0
  185.1000  179.3580  142.1260 C   0  0  0  0  0  2  0  0  0  0  0  0
  184.3420  178.8700  143.3490 C   0  0  0  0  0  2  0  0  0  0  0  0
  185.0640  179.2940  144.6130 C   0  0  0  0  0  2  0  0  0  0  0  0
  185.6050  178.1760  145.2520 O   0  0  0  0  0  0  0  0  0  0  0  0
  191.1760  177.5080  142.7250 C   0  0  0  0  0  0  0  0  0  0  0  0
  190.3450  177.2160  140.5320 C   0  0  1  0  0  3  0  0  0  0  0  0
  192.3930  178.3820  140.9220 F   0  0  0  0  0  0  0  0  0  0  0  0
  186.9920  178.3660  145.1980 C   0  0  1  0  0  3  0  0  0  0  0  0
  187.6790  177.8880  146.4900 C   0  0  2  0  0  0  0  0  0  0  0  0
  187.4930  176.3940  146.7160 C   0  0  0  0  0  1  0  0  0  0  0  0
  187.0690  176.3530  143.6410 C   0  0  0  0  0  1  0  0  0  0  0  0
  189.0970  177.7630  143.9300 C   0  0  0  0  0  0  0  0  0  0  0  0
  187.1230  178.5660  147.5750 O   0  0  0  0  0  1  0  0  0  0  0  0
  189.2930  177.4050  141.4780 O   0  0  0  0  0  0  0  0  0  0  0  0
  189.8130  177.5690  142.7440 C   0  0  0  0  0  0  0  0  0  0  0  0
  191.9260  177.6360  143.8920 C   0  0  0  0  0  3  0  0  0  0  0  0
  191.2430  177.8390  145.1010 C   0  0  0  0  0  3  0  0  0  0  0  0
  189.1710  178.2190  146.4420 C   0  0  0  0  0  2  0  0  0  0  0  0
  191.6600  177.2880  141.3380 C   0  0  1  0  0  3  0  0  0  0  0  0
  189.8360  177.8940  145.1330 C   0  0  0  0  0  0  0  0  0  0  0  0
  187.5920  177.7580  143.9140 C   0  0  2  0  0  3  0  0  0  0  0  0
  190.2240  175.9550  139.9490 O   0  0  0  0  0  1  0  0  0  0  0  0
  1 23  1  0  0  0  0
  2  1  1  0  0  0  0
  3  2  1  1  0  0  0
  4  6  1  6  0  0  0
  4 10  1  0  0  0  0
  4  7  1  0  0  0  0
  5  9  1  0  0  0  0
  7  5  1  1  0  0  0
  7  8  1  0  0  0  0
  8 20  1  6  0  0  0
  9  3  1  0  0  0  0
 10 11  1  0  0  0  0
 11  3  1  0  0  0  0
 11  8  1  0  0  0  0
 11 13  1  1  0  0  0
 12 19  1  0  0  0  0
 13 15  1  0  0  0  0
 14 16  2  0  0  0  0
 15 12  2  0  0  0  0
 16 12  1  0  0  0  0
 17 13  2  0  0  0  0
 17 14  1  0  0  0  0
 19 18  2  0  0  0  0
 20 22  1  0  0  0  0
 20 21  1  0  0  0  0
 22 21  1  0  0  0  0
 23 24  1  0  0  0  0
 24 25  1  0  0  0  0
 25 26  1  0  0  0  0
 27 37  2  0  0  0  0
 27 38  1  0  0  0  0
 28 44  1  1  0  0  0
 28 41  1  0  0  0  0
 28 36  1  0  0  0  0
 30 26  1  1  0  0  0
 30 31  1  0  0  0  0
 31 32  1  1  0  0  0
 31 35  1  0  0  0  0
 34 42  2  0  0  0  0
 36 37  1  0  0  0  0
 37 34  1  0  0  0  0
 38 39  2  0  0  0  0
 39 42  1  0  0  0  0
 40 31  1  0  0  0  0
 41 29  1  6  0  0  0
 41 27  1  0  0  0  0
 42 40  1  0  0  0  0
 43 33  1  1  0  0  0
 43 34  1  0  0  0  0
 43 30  1  0  0  0  0
M  END
>  <MODEL>
4

>  <REMARK>
 VINA RESULT:      -7.4      2.682      5.780
  Name = 
  10 active torsions:
  status: ('A' for Active; 'I' for Inactive)
    1  A    between atoms: C_1  and  N_18
    2  A    between atoms: C_2  and  N_22
    3  A    between atoms: C_2  and  C_30
    4  A    between atoms: C_3  and  N_21
    5  A    between atoms: C_4  and  O_19
    6  A    between atoms: C_4  and  C_37
    7  A    between atoms: C_5  and  N_22
    8  A    between atoms: C_13  and  O_19
    9  A    between atoms: C_16  and  C_43
   10  A    between atoms: C_30  and  C_37
                            x       y       z     vdW  Elec       q    Type
                         _______ _______ _______ _____ _____    ______ ____

>  <TORSDO>
F 10

$$$$
=
 OpenBabel11062416163D

 44 50  0  0  1  0  0  0  0  0999 V2000
  187.3140  178.1210  138.0170 C   0  0  0  0  0  2  0  0  0  0  0  0
  186.1290  177.3740  137.6210 N   0  0  0  0  0  2  0  0  0  0  0  0
  185.0130  177.8730  138.4160 C   0  0  1  0  0  3  0  0  0  0  0  0
  182.3000  177.9710  139.9110 C   0  0  1  0  0  3  0  0  0  0  0  0
  183.8880  179.7820  139.1070 C   0  0  0  0  0  2  0  0  0  0  0  0
  182.7140  178.3660  141.3210 C   0  0  0  0  0  1  0  0  0  0  0  0
  182.5520  179.0390  138.8340 C   0  0  1  0  0  3  0  0  0  0  0  0
  182.7360  178.2810  137.5930 N   0  0  1  0  0  0  0  0  0  0  0  0
  184.9530  179.2860  138.3100 O   0  0  0  0  0  0  0  0  0  0  0  0
  183.0640  176.7560  139.4170 C   0  0  0  0  0  2  0  0  0  0  0  0
  183.6350  177.2050  138.0650 C   0  0  2  0  0  0  0  0  0  0  0  0
  183.4110  173.7070  136.5130 C   0  0  0  0  0  0  0  0  0  0  0  0
  183.7660  176.0570  137.0660 C   0  0  0  0  0  0  0  0  0  0  0  0
  184.3210  175.2220  134.8480 C   0  0  0  0  0  3  0  0  0  0  0  0
  183.3380  174.7670  137.4220 C   0  0  0  0  0  3  0  0  0  0  0  0
  183.9070  173.9420  135.2200 C   0  0  0  0  0  3  0  0  0  0  0  0
  184.2460  176.2740  135.7640 C   0  0  0  0  0  3  0  0  0  0  0  0
  183.5790  171.3150  136.5900 C   0  0  0  0  0  2  0  0  0  0  0  0
  182.9720  172.4070  136.9260 N   0  0  0  0  0  0  0  0  0  0  0  0
  181.4280  177.7780  137.1400 C   0  0  0  0  0  3  0  0  0  0  0  0
  181.2790  178.0160  135.6480 C   0  0  0  0  0  2  0  0  0  0  0  0
  180.5750  178.9270  136.6240 C   0  0  0  0  0  2  0  0  0  0  0  0
  188.0030  177.4380  139.1880 C   0  0  0  0  0  2  0  0  0  0  0  0
  189.0950  178.3330  139.7510 C   0  0  0  0  0  2  0  0  0  0  0  0
  188.6570  178.9180  141.0790 C   0  0  0  0  0  2  0  0  0  0  0  0
  187.6670  178.1160  141.6520 O   0  0  0  0  0  0  0  0  0  0  0  0
  190.0090  177.0500  147.2420 C   0  0  0  0  0  0  0  0  0  0  0  0
  192.0580  176.2070  146.4200 C   0  0  1  0  0  3  0  0  0  0  0  0
  191.9810  177.5030  148.4250 F   0  0  0  0  0  0  0  0  0  0  0  0
  187.7780  178.3350  143.0300 C   0  0  1  0  0  3  0  0  0  0  0  0
  186.4150  178.2080  143.7350 C   0  0  2  0  0  0  0  0  0  0  0  0
  185.8340  176.8070  143.6030 C   0  0  0  0  0  1  0  0  0  0  0  0
  188.8030  176.0090  143.1790 C   0  0  0  0  0  1  0  0  0  0  0  0
  188.8820  177.5170  145.1550 C   0  0  0  0  0  0  0  0  0  0  0  0
  185.5210  179.1080  143.1560 O   0  0  0  0  0  1  0  0  0  0  0  0
  191.1760  176.5830  145.3620 O   0  0  0  0  0  0  0  0  0  0  0  0
  189.9930  177.0660  145.8770 C   0  0  0  0  0  0  0  0  0  0  0  0
  188.9140  177.4820  147.9870 C   0  0  0  0  0  3  0  0  0  0  0  0
  187.7840  177.9470  147.2980 C   0  0  0  0  0  3  0  0  0  0  0  0
  186.5550  178.5690  145.2150 C   0  0  0  0  0  2  0  0  0  0  0  0
  191.3060  176.5170  147.7310 C   0  0  1  0  0  3  0  0  0  0  0  0
  187.7530  177.9600  145.8900 C   0  0  0  0  0  0  0  0  0  0  0  0
  188.8820  177.4560  143.6520 C   0  0  2  0  0  3  0  0  0  0  0  0
  192.3190  174.8400  146.3430 O   0  0  0  0  0  1  0  0  0  0  0  0
  1 23  1  0  0  0  0
  2  1  1  0  0  0  0
  3  2  1  6  0  0  0
  4  6  1  1  0  0  0
  7  5  1  1  0  0  0
  7  4  1  0  0  0  0
  8 20  1  1  0  0  0
  8 11  1  0  0  0  0
  8  7  1  0  0  0  0
  9  3  1  0  0  0  0
  9  5  1  0  0  0  0
 10  4  1  0  0  0  0
 11 13  1  6  0  0  0
 11  3  1  0  0  0  0
 11 10  1  0  0  0  0
 12 19  1  0  0  0  0
 12 15  1  0  0  0  0
 13 15  2  0  0  0  0
 14 16  1  0  0  0  0
 14 17  2  0  0  0  0
 16 12  2  0  0  0  0
 17 13  1  0  0  0  0
 18 19  2  0  0  0  0
 21 22  1  0  0  0  0
 21 20  1  0  0  0  0
 22 20  1  0  0  0  0
 23 24  1  0  0  0  0
 24 25  1  0  0  0  0
 25 26  1  0  0  0  0
 27 41  1  0  0  0  0
 27 38  1  0  0  0  0
 28 44  1  6  0  0  0
 28 41  1  0  0  0  0
 30 26  1  6  0  0  0
 30 43  1  0  0  0  0
 30 31  1  0  0  0  0
 31 32  1  6  0  0  0
 31 40  1  0  0  0  0
 34 37  1  0  0  0  0
 34 42  2  0  0  0  0
 35 31  1  0  0  0  0
 36 37  1  0  0  0  0
 36 28  1  0  0  0  0
 37 27  2  0  0  0  0
 39 38  2  0  0  0  0
 40 42  1  0  0  0  0
 41 29  1  6  0  0  0
 42 39  1  0  0  0  0
 43 33  1  1  0  0  0
 43 34  1  0  0  0  0
M  END
>  <MODEL>
5

>  <REMARK>
 VINA RESULT:      -7.3      1.829      3.491
  Name = 
  10 active torsions:
  status: ('A' for Active; 'I' for Inactive)
    1  A    between atoms: C_1  and  N_18
    2  A    between atoms: C_2  and  N_22
    3  A    between atoms: C_2  and  C_30
    4  A    between atoms: C_3  and  N_21
    5  A    between atoms: C_4  and  O_19
    6  A    between atoms: C_4  and  C_37
    7  A    between atoms: C_5  and  N_22
    8  A    between atoms: C_13  and  O_19
    9  A    between atoms: C_16  and  C_43
   10  A    between atoms: C_30  and  C_37
                            x       y       z     vdW  Elec       q    Type
                         _______ _______ _______ _____ _____    ______ ____

>  <TORSDO>
F 10

$$$$
=
 OpenBabel11062416163D

 44 50  0  0  1  0  0  0  0  0999 V2000
  189.2450  176.7040  139.3360 C   0  0  0  0  0  2  0  0  0  0  0  0
  188.8760  176.9150  137.9430 N   0  0  0  0  0  2  0  0  0  0  0  0
  189.6040  175.9350  137.1460 C   0  0  1  0  0  3  0  0  0  0  0  0
  190.4650  174.1810  134.7410 C   0  0  1  0  0  3  0  0  0  0  0  0
  190.9130  174.0220  137.2350 C   0  0  0  0  0  2  0  0  0  0  0  0
  191.9400  174.5240  134.5940 C   0  0  0  0  0  1  0  0  0  0  0  0
  190.0910  173.4570  136.0450 C   0  0  1  0  0  3  0  0  0  0  0  0
  188.6920  173.8240  136.2870 N   0  0  1  0  0  0  0  0  0  0  0  0
  190.1760  174.9610  138.0030 O   0  0  0  0  0  0  0  0  0  0  0  0
  189.5930  175.4230  134.7410 C   0  0  0  0  0  2  0  0  0  0  0  0
  188.7420  175.2760  136.0100 C   0  0  2  0  0  0  0  0  0  0  0  0
  185.1130  176.2520  136.7630 C   0  0  0  0  0  0  0  0  0  0  0  0
  187.3560  175.9040  135.8710 C   0  0  0  0  0  0  0  0  0  0  0  0
  185.7970  177.3800  134.7250 C   0  0  0  0  0  3  0  0  0  0  0  0
  186.3760  175.6590  136.8470 C   0  0  0  0  0  3  0  0  0  0  0  0
  184.8270  177.1150  135.6930 C   0  0  0  0  0  3  0  0  0  0  0  0
  187.0560  176.7810  134.8160 C   0  0  0  0  0  3  0  0  0  0  0  0
  183.3180  174.9700  137.7070 C   0  0  0  0  0  2  0  0  0  0  0  0
  184.1430  175.9640  137.7780 N   0  0  0  0  0  0  0  0  0  0  0  0
  187.8340  173.0880  135.3430 C   0  0  0  0  0  3  0  0  0  0  0  0
  186.7720  172.3200  136.1100 C   0  0  0  0  0  2  0  0  0  0  0  0
  187.9750  171.5900  135.5640 C   0  0  0  0  0  2  0  0  0  0  0  0
  190.4270  177.5840  139.7090 C   0  0  0  0  0  2  0  0  0  0  0  0
  191.3030  176.8830  140.7340 C   0  0  0  0  0  2  0  0  0  0  0  0
  190.4550  176.3670  141.8790 C   0  0  0  0  0  2  0  0  0  0  0  0
  191.1640  176.4580  143.0790 O   0  0  0  0  0  0  0  0  0  0  0  0
  185.8040  178.4160  145.3810 C   0  0  0  0  0  0  0  0  0  0  0  0
  184.8000  178.7200  143.2630 C   0  0  1  0  0  3  0  0  0  0  0  0
  183.5200  177.9510  145.1290 F   0  0  0  0  0  0  0  0  0  0  0  0
  190.1820  176.5490  144.0720 C   0  0  1  0  0  3  0  0  0  0  0  0
  190.7710  177.0440  145.4070 C   0  0  2  0  0  0  0  0  0  0  0  0
  191.3470  178.4480  145.2890 C   0  0  0  0  0  1  0  0  0  0  0  0
  189.3830  178.6600  142.8950 C   0  0  0  0  0  1  0  0  0  0  0  0
  187.9950  177.6570  144.6990 C   0  0  0  0  0  0  0  0  0  0  0  0
  191.7970  176.1830  145.7950 O   0  0  0  0  0  1  0  0  0  0  0  0
  186.1430  178.2490  143.1510 O   0  0  0  0  0  0  0  0  0  0  0  0
  186.6970  178.0870  144.4030 C   0  0  0  0  0  0  0  0  0  0  0  0
  186.1430  178.3420  146.7300 C   0  0  0  0  0  3  0  0  0  0  0  0
  187.4340  177.9090  147.0660 C   0  0  0  0  0  3  0  0  0  0  0  0
  189.6960  177.0190  146.4940 C   0  0  0  0  0  2  0  0  0  0  0  0
  184.5160  178.8420  144.7750 C   0  0  1  0  0  3  0  0  0  0  0  0
  188.3670  177.5750  146.0650 C   0  0  0  0  0  0  0  0  0  0  0  0
  188.9680  177.3680  143.5880 C   0  0  2  0  0  3  0  0  0  0  0  0
  184.6960  179.9760  142.6660 O   0  0  0  0  0  1  0  0  0  0  0  0
  1 23  1  0  0  0  0
  2  1  1  0  0  0  0
  3  2  1  1  0  0  0
  3  9  1  0  0  0  0
  4  6  1  1  0  0  0
  4 10  1  0  0  0  0
  4  7  1  0  0  0  0
  5  9  1  0  0  0  0
  7  8  1  0  0  0  0
  7  5  1  1  0  0  0
  8 20  1  6  0  0  0
 10 11  1  0  0  0  0
 11 13  1  6  0  0  0
 11  8  1  0  0  0  0
 11  3  1  0  0  0  0
 12 15  1  0  0  0  0
 12 19  1  0  0  0  0
 13 15  2  0  0  0  0
 14 17  2  0  0  0  0
 14 16  1  0  0  0  0
 16 12  2  0  0  0  0
 17 13  1  0  0  0  0
 18 19  2  0  0  0  0
 20 22  1  0  0  0  0
 20 21  1  0  0  0  0
 22 21  1  0  0  0  0
 23 24  1  0  0  0  0
 24 25  1  0  0  0  0
 25 26  1  0  0  0  0
 27 38  1  0  0  0  0
 28 44  1  6  0  0  0
 28 41  1  0  0  0  0
 30 26  1  6  0  0  0
 30 31  1  0  0  0  0
 31 32  1  6  0  0  0
 31 35  1  0  0  0  0
 31 40  1  0  0  0  0
 34 42  2  0  0  0  0
 36 28  1  0  0  0  0
 36 37  1  0  0  0  0
 37 34  1  0  0  0  0
 37 27  2  0  0  0  0
 38 39  2  0  0  0  0
 41 29  1  1  0  0  0
 41 27  1  0  0  0  0
 42 40  1  0  0  0  0
 42 39  1  0  0  0  0
 43 33  1  1  0  0  0
 43 30  1  0  0  0  0
 43 34  1  0  0  0  0
M  END
>  <MODEL>
6

>  <REMARK>
 VINA RESULT:      -7.2      2.312      4.790
  Name = 
  10 active torsions:
  status: ('A' for Active; 'I' for Inactive)
    1  A    between atoms: C_1  and  N_18
    2  A    between atoms: C_2  and  N_22
    3  A    between atoms: C_2  and  C_30
    4  A    between atoms: C_3  and  N_21
    5  A    between atoms: C_4  and  O_19
    6  A    between atoms: C_4  and  C_37
    7  A    between atoms: C_5  and  N_22
    8  A    between atoms: C_13  and  O_19
    9  A    between atoms: C_16  and  C_43
   10  A    between atoms: C_30  and  C_37
                            x       y       z     vdW  Elec       q    Type
                         _______ _______ _______ _____ _____    ______ ____

>  <TORSDO>
F 10

$$$$
=
 OpenBabel11062416163D

 44 50  0  0  1  0  0  0  0  0999 V2000
  189.6320  177.0410  140.2000 C   0  0  0  0  0  2  0  0  0  0  0  0
  189.0300  176.8530  138.8880 N   0  0  0  0  0  2  0  0  0  0  0  0
  190.0480  176.2730  138.0200 C   0  0  1  0  0  3  0  0  0  0  0  0
  191.5460  175.3900  135.4550 C   0  0  1  0  0  3  0  0  0  0  0  0
  191.7530  174.7050  137.8910 C   0  0  0  0  0  2  0  0  0  0  0  0
  192.9060  176.0510  135.6230 C   0  0  0  0  0  1  0  0  0  0  0  0
  191.2170  174.3020  136.4900 C   0  0  1  0  0  3  0  0  0  0  0  0
  189.7540  174.3050  136.5820 N   0  0  1  0  0  0  0  0  0  0  0  0
  190.7390  175.2520  138.7200 O   0  0  0  0  0  0  0  0  0  0  0  0
  190.4110  176.3890  135.5910 C   0  0  0  0  0  2  0  0  0  0  0  0
  189.4900  175.7600  136.6440 C   0  0  2  0  0  0  0  0  0  0  0  0
  185.6680  175.6790  136.9230 C   0  0  0  0  0  0  0  0  0  0  0  0
  188.0180  176.1080  136.4290 C   0  0  0  0  0  0  0  0  0  0  0  0
  186.2880  177.5410  135.4930 C   0  0  0  0  0  3  0  0  0  0  0  0
  187.0200  175.3580  137.0730 C   0  0  0  0  0  3  0  0  0  0  0  0
  185.3060  176.7770  136.1270 C   0  0  0  0  0  3  0  0  0  0  0  0
  187.6360  177.2110  135.6470 C   0  0  0  0  0  3  0  0  0  0  0  0
  184.6920  173.5850  137.5690 C   0  0  0  0  0  2  0  0  0  0  0  0
  184.6870  174.8790  137.5940 N   0  0  0  0  0  0  0  0  0  0  0  0
  189.1970  173.6710  135.3740 C   0  0  0  0  0  3  0  0  0  0  0  0
  188.3260  172.4930  135.7720 C   0  0  0  0  0  2  0  0  0  0  0  0
  189.7180  172.2480  135.2410 C   0  0  0  0  0  2  0  0  0  0  0  0
  188.6390  177.6890  141.1500 C   0  0  0  0  0  2  0  0  0  0  0  0
  188.8250  177.1480  142.5580 C   0  0  0  0  0  2  0  0  0  0  0  0
  187.4760  176.8870  143.1990 C   0  0  0  0  0  2  0  0  0  0  0  0
  187.0310  178.0350  143.8600 O   0  0  0  0  0  0  0  0  0  0  0  0
  181.5700  178.3520  141.0430 C   0  0  0  0  0  0  0  0  0  0  0  0
  182.4440  177.8670  138.9010 C   0  0  1  0  0  3  0  0  0  0  0  0
  180.2920  177.0630  139.5580 F   0  0  0  0  0  0  0  0  0  0  0  0
  185.6340  177.9580  143.8150 C   0  0  1  0  0  3  0  0  0  0  0  0
  184.9830  178.8750  144.8670 C   0  0  2  0  0  0  0  0  0  0  0  0
  185.3060  180.3420  144.6220 C   0  0  0  0  0  1  0  0  0  0  0  0
  185.7590  179.3780  141.7060 C   0  0  0  0  0  1  0  0  0  0  0  0
  183.6060  178.3100  142.3440 C   0  0  0  0  0  0  0  0  0  0  0  0
  185.4640  178.5280  146.1300 O   0  0  0  0  0  1  0  0  0  0  0  0
  183.4660  177.8940  139.8980 O   0  0  0  0  0  0  0  0  0  0  0  0
  182.9210  178.1820  141.1310 C   0  0  0  0  0  0  0  0  0  0  0  0
  180.8010  178.6620  142.1620 C   0  0  0  0  0  3  0  0  0  0  0  0
  181.4520  178.7920  143.3980 C   0  0  0  0  0  3  0  0  0  0  0  0
  183.4670  178.6760  144.8690 C   0  0  0  0  0  2  0  0  0  0  0  0
  181.1220  178.1650  139.6390 C   0  0  1  0  0  3  0  0  0  0  0  0
  182.8470  178.6280  143.5000 C   0  0  0  0  0  0  0  0  0  0  0  0
  185.1040  178.1800  142.3850 C   0  0  2  0  0  3  0  0  0  0  0  0
  182.6880  178.8640  137.9580 O   0  0  0  0  0  1  0  0  0  0  0  0
  1 23  1  0  0  0  0
  2  1  1  0  0  0  0
  3  9  1  0  0  0  0
  3  2  1  1  0  0  0
  4 10  1  0  0  0  0
  4  6  1  1  0  0  0
  4  7  1  0  0  0  0
  5  9  1  0  0  0  0
  7  8  1  0  0  0  0
  7  5  1  1  0  0  0
  8 20  1  6  0  0  0
  8 11  1  0  0  0  0
 10 11  1  0  0  0  0
 11 13  1  6  0  0  0
 11  3  1  0  0  0  0
 12 15  1  0  0  0  0
 12 19  1  0  0  0  0
 13 15  2  0  0  0  0
 14 17  2  0  0  0  0
 14 16  1  0  0  0  0
 16 12  2  0  0  0  0
 17 13  1  0  0  0  0
 18 19  2  0  0  0  0
 20 21  1  0  0  0  0
 22 20  1  0  0  0  0
 22 21  1  0  0  0  0
 23 24  1  0  0  0  0
 24 25  1  0  0  0  0
 25 26  1  0  0  0  0
 27 37  2  0  0  0  0
 27 38  1  0  0  0  0
 28 44  1  6  0  0  0
 28 41  1  0  0  0  0
 28 36  1  0  0  0  0
 30 26  1  6  0  0  0
 30 31  1  0  0  0  0
 31 32  1  6  0  0  0
 31 40  1  0  0  0  0
 31 35  1  0  0  0  0
 34 43  1  0  0  0  0
 34 42  2  0  0  0  0
 36 37  1  0  0  0  0
 37 34  1  0  0  0  0
 38 39  2  0  0  0  0
 39 42  1  0  0  0  0
 41 29  1  1  0  0  0
 41 27  1  0  0  0  0
 42 40  1  0  0  0  0
 43 33  1  1  0  0  0
 43 30  1  0  0  0  0
M  END
>  <MODEL>
7

>  <REMARK>
 VINA RESULT:      -7.1      2.789      6.421
  Name = 
  10 active torsions:
  status: ('A' for Active; 'I' for Inactive)
    1  A    between atoms: C_1  and  N_18
    2  A    between atoms: C_2  and  N_22
    3  A    between atoms: C_2  and  C_30
    4  A    between atoms: C_3  and  N_21
    5  A    between atoms: C_4  and  O_19
    6  A    between atoms: C_4  and  C_37
    7  A    between atoms: C_5  and  N_22
    8  A    between atoms: C_13  and  O_19
    9  A    between atoms: C_16  and  C_43
   10  A    between atoms: C_30  and  C_37
                            x       y       z     vdW  Elec       q    Type
                         _______ _______ _______ _____ _____    ______ ____

>  <TORSDO>
F 10

$$$$
=
 OpenBabel11062416163D

 44 50  0  0  1  0  0  0  0  0999 V2000
  191.1010  176.7570  139.2330 C   0  0  0  0  0  2  0  0  0  0  0  0
  190.2820  176.6100  138.0380 N   0  0  0  0  0  2  0  0  0  0  0  0
  190.9550  175.6570  137.1630 C   0  0  1  0  0  3  0  0  0  0  0  0
  191.8420  174.1680  134.5950 C   0  0  1  0  0  3  0  0  0  0  0  0
  191.9560  173.5660  137.0580 C   0  0  0  0  0  2  0  0  0  0  0  0
  193.3580  174.2870  134.6510 C   0  0  0  0  0  1  0  0  0  0  0  0
  191.2120  173.3260  135.7170 C   0  0  1  0  0  3  0  0  0  0  0  0
  189.8610  173.8730  135.8790 N   0  0  1  0  0  0  0  0  0  0  0  0
  191.2720  174.4860  137.8960 O   0  0  0  0  0  0  0  0  0  0  0  0
  191.1640  175.5210  134.7170 C   0  0  0  0  0  2  0  0  0  0  0  0
  190.1530  175.3230  135.8540 C   0  0  2  0  0  0  0  0  0  0  0  0
  186.6710  176.8090  136.4590 C   0  0  0  0  0  0  0  0  0  0  0  0
  188.8980  176.1800  135.6870 C   0  0  0  0  0  0  0  0  0  0  0  0
  187.6890  177.9870  134.5960 C   0  0  0  0  0  3  0  0  0  0  0  0
  187.8150  176.0120  136.5660 C   0  0  0  0  0  3  0  0  0  0  0  0
  186.6130  177.8000  135.4660 C   0  0  0  0  0  3  0  0  0  0  0  0
  188.8270  177.1850  134.7090 C   0  0  0  0  0  3  0  0  0  0  0  0
  184.8190  177.5450  137.7940 C   0  0  0  0  0  2  0  0  0  0  0  0
  185.5890  176.5940  137.3730 N   0  0  0  0  0  0  0  0  0  0  0  0
  189.0290  173.4350  134.7450 C   0  0  0  0  0  3  0  0  0  0  0  0
  187.7170  172.8730  135.2640 C   0  0  0  0  0  2  0  0  0  0  0  0
  188.8060  171.9320  134.8090 C   0  0  0  0  0  2  0  0  0  0  0  0
  190.2450  177.1900  140.4120 C   0  0  0  0  0  2  0  0  0  0  0  0
  188.8910  177.6820  139.9270 C   0  0  0  0  0  2  0  0  0  0  0  0
  188.3180  178.6830  140.9110 C   0  0  0  0  0  2  0  0  0  0  0  0
  186.9490  178.4590  141.0780 O   0  0  0  0  0  0  0  0  0  0  0  0
  187.5270  178.0770  147.1920 C   0  0  0  0  0  0  0  0  0  0  0  0
  189.6670  177.0780  147.1070 C   0  0  1  0  0  3  0  0  0  0  0  0
  189.1050  178.6290  148.8360 F   0  0  0  0  0  0  0  0  0  0  0  0
  186.6760  178.8550  142.3930 C   0  0  1  0  0  3  0  0  0  0  0  0
  185.1630  178.8590  142.6810 C   0  0  2  0  0  0  0  0  0  0  0  0
  184.5550  177.4700  142.5520 C   0  0  0  0  0  1  0  0  0  0  0  0
  187.4650  176.5430  143.1070 C   0  0  0  0  0  1  0  0  0  0  0  0
  187.0740  178.2950  144.8280 C   0  0  0  0  0  0  0  0  0  0  0  0
  184.5310  179.6990  141.7640 O   0  0  0  0  0  1  0  0  0  0  0  0
  189.1490  177.3350  145.8020 O   0  0  0  0  0  0  0  0  0  0  0  0
  187.9010  177.9140  145.8900 C   0  0  0  0  0  0  0  0  0  0  0  0
  186.2960  178.6330  147.5300 C   0  0  0  0  0  3  0  0  0  0  0  0
  185.4410  179.0340  146.4920 C   0  0  0  0  0  3  0  0  0  0  0  0
  184.8990  179.4080  144.0830 C   0  0  0  0  0  2  0  0  0  0  0  0
  188.5940  177.5780  148.0970 C   0  0  1  0  0  3  0  0  0  0  0  0
  185.8130  178.8620  145.1440 C   0  0  0  0  0  0  0  0  0  0  0  0
  187.4990  178.0370  143.4080 C   0  0  2  0  0  3  0  0  0  0  0  0
  189.8510  175.7060  147.2730 O   0  0  0  0  0  1  0  0  0  0  0  0
  1 23  1  0  0  0  0
  2  1  1  0  0  0  0
  3  9  1  0  0  0  0
  3  2  1  1  0  0  0
  4  6  1  1  0  0  0
  4 10  1  0  0  0  0
  4  7  1  0  0  0  0
  5  9  1  0  0  0  0
  7  8  1  0  0  0  0
  7  5  1  1  0  0  0
  8 20  1  6  0  0  0
 10 11  1  0  0  0  0
 11 13  1  6  0  0  0
 11  8  1  0  0  0  0
 11  3  1  0  0  0  0
 12 15  1  0  0  0  0
 12 19  1  0  0  0  0
 13 15  2  0  0  0  0
 14 17  2  0  0  0  0
 14 16  1  0  0  0  0
 16 12  2  0  0  0  0
 17 13  1  0  0  0  0
 19 18  2  0  0  0  0
 20 22  1  0  0  0  0
 20 21  1  0  0  0  0
 22 21  1  0  0  0  0
 24 23  1  0  0  0  0
 24 25  1  0  0  0  0
 25 26  1  0  0  0  0
 27 38  1  0  0  0  0
 27 41  1  0  0  0  0
 28 44  1  6  0  0  0
 28 41  1  0  0  0  0
 30 26  1  6  0  0  0
 30 31  1  0  0  0  0
 30 43  1  0  0  0  0
 31 32  1  6  0  0  0
 31 40  1  0  0  0  0
 34 42  2  0  0  0  0
 34 37  1  0  0  0  0
 35 31  1  0  0  0  0
 36 37  1  0  0  0  0
 36 28  1  0  0  0  0
 37 27  2  0  0  0  0
 39 38  2  0  0  0  0
 40 42  1  0  0  0  0
 41 29  1  1  0  0  0
 42 39  1  0  0  0  0
 43 33  1  6  0  0  0
 43 34  1  0  0  0  0
M  END
>  <MODEL>
8

>  <REMARK>
 VINA RESULT:      -7.0      3.126      6.237
  Name = 
  10 active torsions:
  status: ('A' for Active; 'I' for Inactive)
    1  A    between atoms: C_1  and  N_18
    2  A    between atoms: C_2  and  N_22
    3  A    between atoms: C_2  and  C_30
    4  A    between atoms: C_3  and  N_21
    5  A    between atoms: C_4  and  O_19
    6  A    between atoms: C_4  and  C_37
    7  A    between atoms: C_5  and  N_22
    8  A    between atoms: C_13  and  O_19
    9  A    between atoms: C_16  and  C_43
   10  A    between atoms: C_30  and  C_37
                            x       y       z     vdW  Elec       q    Type
                         _______ _______ _______ _____ _____    ______ ____

>  <TORSDO>
F 10

$$$$
=
 OpenBabel11062416163D

 44 50  0  0  1  0  0  0  0  0999 V2000
  185.2400  178.9410  140.7340 C   0  0  0  0  0  2  0  0  0  0  0  0
  184.9470  178.7250  139.3240 N   0  0  0  0  0  2  0  0  0  0  0  0
  186.2120  178.4500  138.6530 C   0  0  1  0  0  3  0  0  0  0  0  0
  188.2500  177.7690  136.4210 C   0  0  1  0  0  3  0  0  0  0  0  0
  188.3920  177.7150  138.9540 C   0  0  0  0  0  2  0  0  0  0  0  0
  189.2150  178.9430  136.4850 C   0  0  0  0  0  1  0  0  0  0  0  0
  188.2370  176.8650  137.6650 C   0  0  1  0  0  3  0  0  0  0  0  0
  186.8880  176.2930  137.6960 N   0  0  1  0  0  0  0  0  0  0  0  0
  187.1480  177.9540  139.5950 O   0  0  0  0  0  0  0  0  0  0  0  0
  186.8100  178.2280  136.2780 C   0  0  0  0  0  2  0  0  0  0  0  0
  186.0770  177.4980  137.4110 C   0  0  2  0  0  0  0  0  0  0  0  0
  182.4340  176.3580  137.7640 C   0  0  0  0  0  0  0  0  0  0  0  0
  184.6260  177.1700  137.0640 C   0  0  0  0  0  0  0  0  0  0  0  0
  182.7560  177.1920  135.5070 C   0  0  0  0  0  3  0  0  0  0  0  0
  183.7760  176.6310  138.0450 C   0  0  0  0  0  3  0  0  0  0  0  0
  181.9270  176.6410  136.4860 C   0  0  0  0  0  3  0  0  0  0  0  0
  184.0960  177.4590  135.7960 C   0  0  0  0  0  3  0  0  0  0  0  0
  181.2500  176.4580  139.8480 C   0  0  0  0  0  2  0  0  0  0  0  0
  181.6100  175.7990  138.7940 N   0  0  0  0  0  0  0  0  0  0  0  0
  186.7790  175.2660  136.6450 C   0  0  0  0  0  3  0  0  0  0  0  0
  186.1380  174.0160  137.2190 C   0  0  0  0  0  2  0  0  0  0  0  0
  187.6310  174.0580  137.0020 C   0  0  0  0  0  2  0  0  0  0  0  0
  184.1950  178.2600  141.6030 C   0  0  0  0  0  2  0  0  0  0  0  0
  183.6240  179.2450  142.6100 C   0  0  0  0  0  2  0  0  0  0  0  0
  184.6880  179.6380  143.6150 C   0  0  0  0  0  2  0  0  0  0  0  0
  184.7040  178.7290  144.6760 O   0  0  0  0  0  0  0  0  0  0  0  0
  190.6890  177.3610  144.2700 C   0  0  0  0  0  0  0  0  0  0  0  0
  190.6820  177.2240  141.9100 C   0  0  1  0  0  3  0  0  0  0  0  0
  192.5730  178.0950  143.0830 F   0  0  0  0  0  0  0  0  0  0  0  0
  186.0270  178.7310  145.1340 C   0  0  1  0  0  3  0  0  0  0  0  0
  186.1360  178.1410  146.5520 C   0  0  2  0  0  0  0  0  0  0  0  0
  185.7040  176.6820  146.5970 C   0  0  0  0  0  1  0  0  0  0  0  0
  186.4230  176.7550  143.5780 C   0  0  0  0  0  1  0  0  0  0  0  0
  188.3600  177.8730  144.6650 C   0  0  0  0  0  0  0  0  0  0  0  0
  185.3090  178.8670  147.4090 O   0  0  0  0  0  1  0  0  0  0  0  0
  189.3890  177.5370  142.4280 O   0  0  0  0  0  0  0  0  0  0  0  0
  189.4300  177.6050  143.8040 C   0  0  0  0  0  0  0  0  0  0  0  0
  190.9730  177.3640  145.6330 C   0  0  0  0  0  3  0  0  0  0  0  0
  189.9280  177.6350  146.5280 C   0  0  0  0  0  3  0  0  0  0  0  0
  187.5720  178.2670  147.0630 C   0  0  0  0  0  2  0  0  0  0  0  0
  191.6130  177.1020  143.1350 C   0  0  1  0  0  3  0  0  0  0  0  0
  188.6220  177.8800  146.0590 C   0  0  0  0  0  0  0  0  0  0  0  0
  186.9750  178.0710  144.1130 C   0  0  2  0  0  3  0  0  0  0  0  0
  190.6320  176.0030  141.2400 O   0  0  0  0  0  1  0  0  0  0  0  0
  1 23  1  0  0  0  0
  2  1  1  0  0  0  0
  3  2  1  1  0  0  0
  3  9  1  0  0  0  0
  4  6  1  1  0  0  0
  4  7  1  0  0  0  0
  5  9  1  0  0  0  0
  7  8  1  0  0  0  0
  7  5  1  1  0  0  0
  8 20  1  6  0  0  0
 10  4  1  0  0  0  0
 10 11  1  0  0  0  0
 11 13  1  6  0  0  0
 11  8  1  0  0  0  0
 11  3  1  0  0  0  0
 12 15  1  0  0  0  0
 12 19  1  0  0  0  0
 13 15  2  0  0  0  0
 14 17  2  0  0  0  0
 14 16  1  0  0  0  0
 16 12  2  0  0  0  0
 17 13  1  0  0  0  0
 19 18  2  0  0  0  0
 20 22  1  0  0  0  0
 20 21  1  0  0  0  0
 22 21  1  0  0  0  0
 23 24  1  0  0  0  0
 24 25  1  0  0  0  0
 25 26  1  0  0  0  0
 27 38  1  0  0  0  0
 28 44  1  1  0  0  0
 28 36  1  0  0  0  0
 28 41  1  0  0  0  0
 30 26  1  6  0  0  0
 30 31  1  0  0  0  0
 31 32  1  6  0  0  0
 31 40  1  0  0  0  0
 31 35  1  0  0  0  0
 34 42  2  0  0  0  0
 36 37  1  0  0  0  0
 37 27  2  0  0  0  0
 37 34  1  0  0  0  0
 38 39  2  0  0  0  0
 41 29  1  6  0  0  0
 41 27  1  0  0  0  0
 42 39  1  0  0  0  0
 42 40  1  0  0  0  0
 43 33  1  1  0  0  0
 43 34  1  0  0  0  0
 43 30  1  0  0  0  0
M  END
>  <MODEL>
9

>  <REMARK>
 VINA RESULT:      -7.0      2.180      5.158
  Name = 
  10 active torsions:
  status: ('A' for Active; 'I' for Inactive)
    1  A    between atoms: C_1  and  N_18
    2  A    between atoms: C_2  and  N_22
    3  A    between atoms: C_2  and  C_30
    4  A    between atoms: C_3  and  N_21
    5  A    between atoms: C_4  and  O_19
    6  A    between atoms: C_4  and  C_37
    7  A    between atoms: C_5  and  N_22
    8  A    between atoms: C_13  and  O_19
    9  A    between atoms: C_16  and  C_43
   10  A    between atoms: C_30  and  C_37
                            x       y       z     vdW  Elec       q    Type
                         _______ _______ _______ _____ _____    ______ ____

>  <TORSDO>
F 10

$$$$
