=
 OpenBabel11062417173D

 26 26  0  0  1  0  0  0  0  0999 V2000
  186.9160  178.1820  142.5510 C   0  0  0  0  0  0  0  0  0  0  0  0
  187.2820  178.6690  141.4020 N   0  0  0  0  0  0  0  0  0  0  0  0
  184.1490  177.8020  141.9970 O   0  0  0  0  0  0  0  0  0  0  0  0
  184.9840  179.9790  143.1810 O   0  0  0  0  0  1  0  0  0  0  0  0
  185.2350  178.4910  143.0980 P   0  0  0  0  0  0  0  0  0  0  0  0
  185.0050  177.7970  144.6230 O   0  0  0  0  0  1  0  0  0  0  0  0
  187.9110  176.1450  143.2930 O   0  0  0  0  0  0  0  0  0  0  0  0
  187.8330  177.3970  143.4150 C   0  0  0  0  0  0  0  0  0  0  0  0
  188.6340  178.0780  144.3920 N   0  0  0  0  0  2  0  0  0  0  0  0
  189.5930  177.4940  145.2830 C   0  0  0  0  0  0  0  0  0  0  0  0
  191.7460  176.4590  145.7320 C   0  0  0  0  0  3  0  0  0  0  0  0
  189.2760  177.3970  146.6420 C   0  0  0  0  0  3  0  0  0  0  0  0
  191.4200  176.3660  147.0880 C   0  0  0  0  0  0  0  0  0  0  0  0
  190.1850  176.8350  147.5420 C   0  0  0  0  0  3  0  0  0  0  0  0
  190.8360  177.0210  144.8330 C   0  0  0  0  0  3  0  0  0  0  0  0
  192.2980  175.8150  147.9610 F   0  0  0  0  0  0  0  0  0  0  0  0
  188.5440  178.4990  140.8790 O   0  0  0  0  0  0  0  0  0  0  0  0
  188.7540  177.6310  139.7760 C   0  0  2  0  0  3  0  0  0  0  0  0
  190.2740  175.7080  138.6890 O   0  0  0  0  0  1  0  0  0  0  0  0
  190.5400  177.0920  139.7030 P   0  0  0  0  0  0  0  0  0  0  0  0
  190.5480  176.1990  141.1930 O   0  0  0  0  0  1  0  0  0  0  0  0
  189.1000  179.1910  137.9980 O   0  0  0  0  0  0  0  0  0  0  0  0
  188.3580  178.3010  138.4960 C   0  0  0  0  0  0  0  0  0  0  0  0
  187.0460  176.7340  137.0360 N   0  0  0  0  0  1  0  0  0  0  0  0
  187.1110  177.9240  137.8170 C   0  0  0  0  0  0  0  0  0  0  0  0
  186.0880  178.6510  137.9240 O   0  0  0  0  0  0  0  0  0  0  0  0
  1  5  1  0  0  0  0
  1  8  1  0  0  0  0
  2  1  2  0  0  0  0
  3  5  2  0  0  0  0
  5  4  1  0  0  0  0
  5  6  1  0  0  0  0
  7  8  2  0  0  0  0
  8  9  1  0  0  0  0
  9 10  1  0  0  0  0
 10 12  1  0  0  0  0
 11 13  2  0  0  0  0
 12 14  2  0  0  0  0
 13 14  1  0  0  0  0
 13 16  1  0  0  0  0
 15 10  2  0  0  0  0
 15 11  1  0  0  0  0
 17  2  1  0  0  0  0
 18 23  1  6  0  0  0
 18 17  1  0  0  0  0
 19 20  1  0  0  0  0
 20 18  1  0  0  0  0
 20 21  1  0  0  0  0
 22 23  2  0  0  0  0
 24 25  1  0  0  0  0
 25 26  2  0  0  0  0
 25 23  1  0  0  0  0
M  END
>  <MODEL>
1

>  <REMARK>
 VINA RESULT:      -7.4      0.000      0.000
  Name = 
  8 active torsions:
  status: ('A' for Active; 'I' for Inactive)
    1  A    between atoms: C_2  and  C_15
    2  A    between atoms: C_3  and  N_5
    3  A    between atoms: C_11  and  P_12
    4  A    between atoms: C_11  and  O_19
    5  A    between atoms: C_11  and  C_26
    6  A    between atoms: C_15  and  P_17
    7  A    between atoms: O_19  and  N_21
    8  A    between atoms: C_24  and  C_26
                            x       y       z     vdW  Elec       q    Type
                         _______ _______ _______ _____ _____    ______ ____

>  <TORSDO>
F 8

$$$$
=
 OpenBabel11062417173D

 26 26  0  0  1  0  0  0  0  0999 V2000
  189.9880  176.8170  142.9420 C   0  0  0  0  0  0  0  0  0  0  0  0
  190.5290  176.7910  141.7600 N   0  0  0  0  0  0  0  0  0  0  0  0
  192.0400  178.2470  144.3020 O   0  0  0  0  0  0  0  0  0  0  0  0
  191.9700  175.6340  144.3670 O   0  0  0  0  0  1  0  0  0  0  0  0
  191.0800  176.8560  144.3660 P   0  0  0  0  0  0  0  0  0  0  0  0
  190.1540  176.8760  145.7810 O   0  0  0  0  0  1  0  0  0  0  0  0
  187.8850  175.7200  143.1990 O   0  0  0  0  0  0  0  0  0  0  0  0
  188.5180  176.8090  143.1480 C   0  0  0  0  0  0  0  0  0  0  0  0
  187.8210  178.0560  143.2920 N   0  0  0  0  0  2  0  0  0  0  0  0
  186.4200  178.2400  143.5310 C   0  0  0  0  0  0  0  0  0  0  0  0
  184.5280  178.5870  145.0180 C   0  0  0  0  0  3  0  0  0  0  0  0
  185.5480  178.2540  142.4370 C   0  0  0  0  0  3  0  0  0  0  0  0
  183.6650  178.6000  143.9190 C   0  0  0  0  0  0  0  0  0  0  0  0
  184.1750  178.4320  142.6290 C   0  0  0  0  0  3  0  0  0  0  0  0
  185.9000  178.4090  144.8240 C   0  0  0  0  0  3  0  0  0  0  0  0
  182.3330  178.7660  144.1030 F   0  0  0  0  0  0  0  0  0  0  0  0
  189.7950  176.7610  140.5950 O   0  0  0  0  0  0  0  0  0  0  0  0
  190.3400  177.2710  139.3880 C   0  0  2  0  0  3  0  0  0  0  0  0
  190.0140  177.5340  136.7410 O   0  0  0  0  0  1  0  0  0  0  0  0
  188.9850  177.5690  138.1390 P   0  0  0  0  0  0  0  0  0  0  0  0
  188.9570  179.3010  138.2730 O   0  0  0  0  0  1  0  0  0  0  0  0
  191.0270  175.1630  138.4960 O   0  0  0  0  0  0  0  0  0  0  0  0
  191.3650  176.3300  138.8340 C   0  0  0  0  0  0  0  0  0  0  0  0
  193.5050  177.2170  139.8050 N   0  0  0  0  0  1  0  0  0  0  0  0
  192.7600  176.7610  138.6790 C   0  0  0  0  0  0  0  0  0  0  0  0
  193.3100  176.7280  137.5460 O   0  0  0  0  0  0  0  0  0  0  0  0
  1  8  1  0  0  0  0
  1  5  1  0  0  0  0
  2  1  2  0  0  0  0
  3  5  2  0  0  0  0
  5  4  1  0  0  0  0
  5  6  1  0  0  0  0
  8  7  2  0  0  0  0
  8  9  1  0  0  0  0
  9 10  1  0  0  0  0
 10 15  1  0  0  0  0
 12 14  1  0  0  0  0
 12 10  2  0  0  0  0
 13 16  1  0  0  0  0
 13 11  1  0  0  0  0
 14 13  2  0  0  0  0
 15 11  2  0  0  0  0
 17  2  1  0  0  0  0
 18 23  1  6  0  0  0
 18 17  1  0  0  0  0
 19 20  1  0  0  0  0
 20 21  1  0  0  0  0
 20 18  1  0  0  0  0
 22 23  2  0  0  0  0
 25 23  1  0  0  0  0
 25 24  1  0  0  0  0
 26 25  2  0  0  0  0
M  END
>  <MODEL>
2

>  <REMARK>
 VINA RESULT:      -7.2      3.838      5.671
  Name = 
  8 active torsions:
  status: ('A' for Active; 'I' for Inactive)
    1  A    between atoms: C_2  and  C_15
    2  A    between atoms: C_3  and  N_5
    3  A    between atoms: C_11  and  P_12
    4  A    between atoms: C_11  and  O_19
    5  A    between atoms: C_11  and  C_26
    6  A    between atoms: C_15  and  P_17
    7  A    between atoms: O_19  and  N_21
    8  A    between atoms: C_24  and  C_26
                            x       y       z     vdW  Elec       q    Type
                         _______ _______ _______ _____ _____    ______ ____

>  <TORSDO>
F 8

$$$$
=
 OpenBabel11062417173D

 26 26  0  0  1  0  0  0  0  0999 V2000
  188.0820  178.0940  140.9850 C   0  0  0  0  0  0  0  0  0  0  0  0
  187.0040  178.8140  140.8890 N   0  0  0  0  0  0  0  0  0  0  0  0
  189.0040  179.2680  138.5610 O   0  0  0  0  0  0  0  0  0  0  0  0
  188.5570  176.6960  138.7090 O   0  0  0  0  0  1  0  0  0  0  0  0
  189.0780  177.8690  139.5090 P   0  0  0  0  0  0  0  0  0  0  0  0
  190.6820  177.5750  139.9540 O   0  0  0  0  0  1  0  0  0  0  0  0
  188.1020  176.2990  142.5570 O   0  0  0  0  0  0  0  0  0  0  0  0
  188.5060  177.4550  142.2570 C   0  0  0  0  0  0  0  0  0  0  0  0
  189.3830  178.1660  143.1420 N   0  0  0  0  0  2  0  0  0  0  0  0
  189.9210  177.6980  144.3860 C   0  0  0  0  0  0  0  0  0  0  0  0
  189.7940  177.3970  146.7950 C   0  0  0  0  0  3  0  0  0  0  0  0
  191.1610  177.0520  144.3820 C   0  0  0  0  0  3  0  0  0  0  0  0
  191.0340  176.7510  146.7810 C   0  0  0  0  0  0  0  0  0  0  0  0
  191.7170  176.5800  145.5740 C   0  0  0  0  0  3  0  0  0  0  0  0
  189.2400  177.8670  145.6020 C   0  0  0  0  0  3  0  0  0  0  0  0
  191.5780  176.3000  147.9360 F   0  0  0  0  0  0  0  0  0  0  0  0
  186.1620  179.0570  141.9520 O   0  0  0  0  0  0  0  0  0  0  0  0
  184.9680  178.3070  142.1090 C   0  0  2  0  0  3  0  0  0  0  0  0
  183.9270  177.4180  139.8050 O   0  0  0  0  0  1  0  0  0  0  0  0
  183.7110  178.8080  140.8220 P   0  0  0  0  0  0  0  0  0  0  0  0
  184.7590  179.8440  139.9030 O   0  0  0  0  0  1  0  0  0  0  0  0
  183.1830  178.7510  143.6360 O   0  0  0  0  0  0  0  0  0  0  0  0
  184.4090  178.4910  143.4860 C   0  0  0  0  0  0  0  0  0  0  0  0
  185.2130  179.3280  145.7130 N   0  0  0  0  0  1  0  0  0  0  0  0
  185.2790  178.3670  144.6630 C   0  0  0  0  0  0  0  0  0  0  0  0
  186.0880  177.4070  144.7520 O   0  0  0  0  0  0  0  0  0  0  0  0
  1  8  1  0  0  0  0
  2  1  2  0  0  0  0
  2 17  1  0  0  0  0
  3  5  2  0  0  0  0
  4  5  1  0  0  0  0
  5  6  1  0  0  0  0
  5  1  1  0  0  0  0
  8  7  2  0  0  0  0
  8  9  1  0  0  0  0
  9 10  1  0  0  0  0
 10 15  1  0  0  0  0
 12 10  2  0  0  0  0
 12 14  1  0  0  0  0
 13 11  1  0  0  0  0
 13 16  1  0  0  0  0
 14 13  2  0  0  0  0
 15 11  2  0  0  0  0
 18 17  1  1  0  0  0
 18 23  1  0  0  0  0
 19 20  1  0  0  0  0
 20 18  1  0  0  0  0
 21 20  1  0  0  0  0
 23 22  2  0  0  0  0
 23 25  1  0  0  0  0
 25 26  2  0  0  0  0
 25 24  1  0  0  0  0
M  END
>  <MODEL>
3

>  <REMARK>
 VINA RESULT:      -7.2      1.869      5.043
  Name = 
  8 active torsions:
  status: ('A' for Active; 'I' for Inactive)
    1  A    between atoms: C_2  and  C_15
    2  A    between atoms: C_3  and  N_5
    3  A    between atoms: C_11  and  P_12
    4  A    between atoms: C_11  and  O_19
    5  A    between atoms: C_11  and  C_26
    6  A    between atoms: C_15  and  P_17
    7  A    between atoms: O_19  and  N_21
    8  A    between atoms: C_24  and  C_26
                            x       y       z     vdW  Elec       q    Type
                         _______ _______ _______ _____ _____    ______ ____

>  <TORSDO>
F 8

$$$$
=
 OpenBabel11062417173D

 26 26  0  0  1  0  0  0  0  0999 V2000
  185.4550  178.7870  140.3350 C   0  0  0  0  0  0  0  0  0  0  0  0
  186.3660  178.5700  139.4320 N   0  0  0  0  0  0  0  0  0  0  0  0
  182.7270  178.7590  141.1480 O   0  0  0  0  0  1  0  0  0  0  0  0
  183.4440  177.7180  138.8600 O   0  0  0  0  0  0  0  0  0  0  0  0
  183.7430  178.8630  139.8000 P   0  0  0  0  0  0  0  0  0  0  0  0
  183.4700  180.3290  139.0020 O   0  0  0  0  0  1  0  0  0  0  0  0
  185.6990  180.1190  142.2990 O   0  0  0  0  0  0  0  0  0  0  0  0
  185.7810  178.9770  141.7700 C   0  0  0  0  0  0  0  0  0  0  0  0
  186.1900  177.8470  142.5540 N   0  0  0  0  0  2  0  0  0  0  0  0
  186.5090  177.8350  143.9520 C   0  0  0  0  0  0  0  0  0  0  0  0
  188.0540  177.4680  145.7930 C   0  0  0  0  0  3  0  0  0  0  0  0
  185.5210  178.2030  144.8700 C   0  0  0  0  0  3  0  0  0  0  0  0
  187.0600  177.8390  146.7030 C   0  0  0  0  0  0  0  0  0  0  0  0
  185.7930  178.2050  146.2410 C   0  0  0  0  0  3  0  0  0  0  0  0
  187.7790  177.4670  144.4230 C   0  0  0  0  0  3  0  0  0  0  0  0
  187.3200  177.8340  148.0320 F   0  0  0  0  0  0  0  0  0  0  0  0
  187.7090  178.4900  139.7220 O   0  0  0  0  0  0  0  0  0  0  0  0
  188.5810  177.7380  138.8910 C   0  0  2  0  0  3  0  0  0  0  0  0
  190.4740  175.8510  139.0880 O   0  0  0  0  0  1  0  0  0  0  0  0
  190.2020  177.4270  139.7630 P   0  0  0  0  0  0  0  0  0  0  0  0
  189.5270  176.8470  141.2550 O   0  0  0  0  0  1  0  0  0  0  0  0
  189.0250  179.6910  137.5870 O   0  0  0  0  0  0  0  0  0  0  0  0
  188.8130  178.4470  137.5930 C   0  0  0  0  0  0  0  0  0  0  0  0
  187.6650  177.7660  135.4660 N   0  0  0  0  0  1  0  0  0  0  0  0
  188.7980  177.7020  136.3280 C   0  0  0  0  0  0  0  0  0  0  0  0
  189.7910  177.0020  135.9940 O   0  0  0  0  0  0  0  0  0  0  0  0
  1  8  1  0  0  0  0
  2 17  1  0  0  0  0
  2  1  2  0  0  0  0
  4  5  2  0  0  0  0
  5  1  1  0  0  0  0
  5  3  1  0  0  0  0
  6  5  1  0  0  0  0
  8  7  2  0  0  0  0
  8  9  1  0  0  0  0
  9 10  1  0  0  0  0
 10 15  2  0  0  0  0
 10 12  1  0  0  0  0
 11 13  2  0  0  0  0
 12 14  2  0  0  0  0
 13 16  1  0  0  0  0
 14 13  1  0  0  0  0
 15 11  1  0  0  0  0
 18 23  1  6  0  0  0
 18 17  1  0  0  0  0
 18 20  1  0  0  0  0
 19 20  1  0  0  0  0
 20 21  1  0  0  0  0
 22 23  2  0  0  0  0
 24 25  1  0  0  0  0
 25 23  1  0  0  0  0
 26 25  2  0  0  0  0
M  END
>  <MODEL>
4

>  <REMARK>
 VINA RESULT:      -7.1      2.408      3.386
  Name = 
  8 active torsions:
  status: ('A' for Active; 'I' for Inactive)
    1  A    between atoms: C_2  and  C_15
    2  A    between atoms: C_3  and  N_5
    3  A    between atoms: C_11  and  P_12
    4  A    between atoms: C_11  and  O_19
    5  A    between atoms: C_11  and  C_26
    6  A    between atoms: C_15  and  P_17
    7  A    between atoms: O_19  and  N_21
    8  A    between atoms: C_24  and  C_26
                            x       y       z     vdW  Elec       q    Type
                         _______ _______ _______ _____ _____    ______ ____

>  <TORSDO>
F 8

$$$$
=
 OpenBabel11062417173D

 26 26  0  0  1  0  0  0  0  0999 V2000
  188.2260  177.9970  140.8660 C   0  0  0  0  0  0  0  0  0  0  0  0
  187.1120  178.6670  140.8600 N   0  0  0  0  0  0  0  0  0  0  0  0
  189.0550  179.3490  138.5020 O   0  0  0  0  0  1  0  0  0  0  0  0
  188.5550  176.7830  138.4620 O   0  0  0  0  0  0  0  0  0  0  0  0
  189.1420  177.8750  139.3280 P   0  0  0  0  0  0  0  0  0  0  0  0
  190.7590  177.5140  139.6660 O   0  0  0  0  0  1  0  0  0  0  0  0
  188.8060  176.0750  142.1560 O   0  0  0  0  0  0  0  0  0  0  0  0
  188.7530  177.3330  142.0850 C   0  0  0  0  0  0  0  0  0  0  0  0
  189.2050  178.1370  143.1840 N   0  0  0  0  0  2  0  0  0  0  0  0
  189.7730  177.6760  144.4170 C   0  0  0  0  0  0  0  0  0  0  0  0
  189.6300  177.2140  146.7990 C   0  0  0  0  0  3  0  0  0  0  0  0
  191.0920  177.2130  144.4180 C   0  0  0  0  0  3  0  0  0  0  0  0
  190.9490  176.7530  146.7900 C   0  0  0  0  0  0  0  0  0  0  0  0
  191.6800  176.7530  145.6000 C   0  0  0  0  0  3  0  0  0  0  0  0
  189.0440  177.6730  145.6170 C   0  0  0  0  0  3  0  0  0  0  0  0
  191.5230  176.3140  147.9370 F   0  0  0  0  0  0  0  0  0  0  0  0
  186.3240  178.8290  141.9780 O   0  0  0  0  0  0  0  0  0  0  0  0
  184.9450  179.1430  141.8470 C   0  0  2  0  0  3  0  0  0  0  0  0
  184.1690  180.1550  144.2040 O   0  0  0  0  0  1  0  0  0  0  0  0
  184.0140  178.6340  143.3830 P   0  0  0  0  0  0  0  0  0  0  0  0
  185.3520  177.8780  144.1950 O   0  0  0  0  0  1  0  0  0  0  0  0
  183.7050  177.4080  140.7680 O   0  0  0  0  0  0  0  0  0  0  0  0
  184.3660  178.4740  140.6390 C   0  0  0  0  0  0  0  0  0  0  0  0
  185.0720  178.2610  138.2380 N   0  0  0  0  0  1  0  0  0  0  0  0
  184.5610  179.0560  139.3040 C   0  0  0  0  0  0  0  0  0  0  0  0
  184.2750  180.2650  139.0940 O   0  0  0  0  0  0  0  0  0  0  0  0
  1  8  1  0  0  0  0
  2  1  2  0  0  0  0
  2 17  1  0  0  0  0
  3  5  1  0  0  0  0
  4  5  2  0  0  0  0
  5  6  1  0  0  0  0
  5  1  1  0  0  0  0
  8  7  2  0  0  0  0
  8  9  1  0  0  0  0
  9 10  1  0  0  0  0
 10 12  2  0  0  0  0
 10 15  1  0  0  0  0
 12 14  1  0  0  0  0
 13 11  1  0  0  0  0
 13 16  1  0  0  0  0
 14 13  2  0  0  0  0
 15 11  2  0  0  0  0
 18 23  1  6  0  0  0
 18 17  1  0  0  0  0
 18 20  1  0  0  0  0
 20 21  1  0  0  0  0
 20 19  1  0  0  0  0
 23 22  2  0  0  0  0
 24 25  1  0  0  0  0
 25 23  1  0  0  0  0
 26 25  2  0  0  0  0
M  END
>  <MODEL>
5

>  <REMARK>
 VINA RESULT:      -7.1      1.680      4.418
  Name = 
  8 active torsions:
  status: ('A' for Active; 'I' for Inactive)
    1  A    between atoms: C_2  and  C_15
    2  A    between atoms: C_3  and  N_5
    3  A    between atoms: C_11  and  P_12
    4  A    between atoms: C_11  and  O_19
    5  A    between atoms: C_11  and  C_26
    6  A    between atoms: C_15  and  P_17
    7  A    between atoms: O_19  and  N_21
    8  A    between atoms: C_24  and  C_26
                            x       y       z     vdW  Elec       q    Type
                         _______ _______ _______ _____ _____    ______ ____

>  <TORSDO>
F 8

$$$$
=
 OpenBabel11062417173D

 26 26  0  0  1  0  0  0  0  0999 V2000
  187.3620  178.1930  141.7230 C   0  0  0  0  0  0  0  0  0  0  0  0
  188.0240  178.3390  140.6130 N   0  0  0  0  0  0  0  0  0  0  0  0
  184.5840  177.5780  141.8250 O   0  0  0  0  0  1  0  0  0  0  0  0
  185.4280  179.7250  140.5950 O   0  0  0  0  0  0  0  0  0  0  0  0
  185.6950  178.8540  141.8010 P   0  0  0  0  0  0  0  0  0  0  0  0
  185.5230  179.7760  143.2080 O   0  0  0  0  0  1  0  0  0  0  0  0
  187.5350  176.3660  143.2480 O   0  0  0  0  0  0  0  0  0  0  0  0
  187.9350  177.5140  142.9120 C   0  0  0  0  0  0  0  0  0  0  0  0
  188.9530  178.1760  143.6770 N   0  0  0  0  0  2  0  0  0  0  0  0
  189.6410  177.6640  144.8270 C   0  0  0  0  0  0  0  0  0  0  0  0
  189.7220  177.0560  147.1790 C   0  0  0  0  0  3  0  0  0  0  0  0
  190.9700  177.2540  144.6860 C   0  0  0  0  0  3  0  0  0  0  0  0
  191.0500  176.6480  147.0290 C   0  0  0  0  0  0  0  0  0  0  0  0
  191.6750  176.7480  145.7830 C   0  0  0  0  0  3  0  0  0  0  0  0
  189.0200  177.5610  146.0810 C   0  0  0  0  0  3  0  0  0  0  0  0
  191.7360  176.1640  148.0920 F   0  0  0  0  0  0  0  0  0  0  0  0
  189.3080  177.8750  140.4350 O   0  0  0  0  0  0  0  0  0  0  0  0
  189.9200  177.9260  139.1550 C   0  0  2  0  0  3  0  0  0  0  0  0
  189.7030  177.5010  136.5180 O   0  0  0  0  0  1  0  0  0  0  0  0
  188.6230  177.9110  137.8130 P   0  0  0  0  0  0  0  0  0  0  0  0
  188.6340  179.6190  137.4960 O   0  0  0  0  0  1  0  0  0  0  0  0
  190.4210  175.6310  138.7160 O   0  0  0  0  0  0  0  0  0  0  0  0
  190.8680  176.7810  138.9790 C   0  0  0  0  0  0  0  0  0  0  0  0
  193.1910  176.6650  138.0300 N   0  0  0  0  0  1  0  0  0  0  0  0
  192.3160  176.9890  139.1080 C   0  0  0  0  0  0  0  0  0  0  0  0
  192.7950  177.4600  140.1730 O   0  0  0  0  0  0  0  0  0  0  0  0
  1  5  1  0  0  0  0
  1  8  1  0  0  0  0
  2  1  2  0  0  0  0
  4  5  2  0  0  0  0
  5  3  1  0  0  0  0
  5  6  1  0  0  0  0
  8  7  2  0  0  0  0
  8  9  1  0  0  0  0
  9 10  1  0  0  0  0
 10 15  1  0  0  0  0
 12 10  2  0  0  0  0
 12 14  1  0  0  0  0
 13 11  1  0  0  0  0
 13 16  1  0  0  0  0
 14 13  2  0  0  0  0
 15 11  2  0  0  0  0
 17  2  1  0  0  0  0
 18 23  1  6  0  0  0
 18 17  1  0  0  0  0
 19 20  1  0  0  0  0
 20 18  1  0  0  0  0
 21 20  1  0  0  0  0
 22 23  2  0  0  0  0
 23 25  1  0  0  0  0
 24 25  1  0  0  0  0
 25 26  2  0  0  0  0
M  END
>  <MODEL>
6

>  <REMARK>
 VINA RESULT:      -7.0      1.937      3.007
  Name = 
  8 active torsions:
  status: ('A' for Active; 'I' for Inactive)
    1  A    between atoms: C_2  and  C_15
    2  A    between atoms: C_3  and  N_5
    3  A    between atoms: C_11  and  P_12
    4  A    between atoms: C_11  and  O_19
    5  A    between atoms: C_11  and  C_26
    6  A    between atoms: C_15  and  P_17
    7  A    between atoms: O_19  and  N_21
    8  A    between atoms: C_24  and  C_26
                            x       y       z     vdW  Elec       q    Type
                         _______ _______ _______ _____ _____    ______ ____

>  <TORSDO>
F 8

$$$$
=
 OpenBabel11062417173D

 26 26  0  0  1  0  0  0  0  0999 V2000
  185.9830  178.6980  140.4770 C   0  0  0  0  0  0  0  0  0  0  0  0
  187.0280  178.4720  139.7370 N   0  0  0  0  0  0  0  0  0  0  0  0
  183.1690  178.4040  140.7960 O   0  0  0  0  0  1  0  0  0  0  0  0
  184.3290  177.7550  138.5440 O   0  0  0  0  0  0  0  0  0  0  0  0
  184.3800  178.7620  139.6700 P   0  0  0  0  0  0  0  0  0  0  0  0
  184.1280  180.3140  139.0470 O   0  0  0  0  0  1  0  0  0  0  0  0
  185.7110  180.0050  142.4540 O   0  0  0  0  0  0  0  0  0  0  0  0
  186.0720  178.9110  141.9430 C   0  0  0  0  0  0  0  0  0  0  0  0
  186.5720  177.8550  142.7770 N   0  0  0  0  0  2  0  0  0  0  0  0
  186.6960  177.8670  144.2050 C   0  0  0  0  0  0  0  0  0  0  0  0
  185.7780  178.2000  146.4310 C   0  0  0  0  0  3  0  0  0  0  0  0
  187.9280  177.5320  144.7760 C   0  0  0  0  0  3  0  0  0  0  0  0
  187.0140  177.8640  146.9920 C   0  0  0  0  0  0  0  0  0  0  0  0
  188.0880  177.5310  146.1640 C   0  0  0  0  0  3  0  0  0  0  0  0
  185.6200  178.2000  145.0430 C   0  0  0  0  0  3  0  0  0  0  0  0
  187.1720  177.8690  148.3380 F   0  0  0  0  0  0  0  0  0  0  0  0
  188.3070  178.4000  140.2420 O   0  0  0  0  0  0  0  0  0  0  0  0
  189.1000  177.2420  140.0300 C   0  0  2  0  0  3  0  0  0  0  0  0
  190.1850  175.8390  142.0400 O   0  0  0  0  0  1  0  0  0  0  0  0
  190.5980  177.2670  141.1450 P   0  0  0  0  0  0  0  0  0  0  0  0
  189.9630  178.3800  142.3190 O   0  0  0  0  0  1  0  0  0  0  0  0
  189.7650  178.1960  137.9420 O   0  0  0  0  0  0  0  0  0  0  0  0
  189.5180  177.1450  138.5960 C   0  0  0  0  0  0  0  0  0  0  0  0
  190.7780  175.0090  138.2020 N   0  0  0  0  0  1  0  0  0  0  0  0
  189.6450  175.8340  137.9470 C   0  0  0  0  0  0  0  0  0  0  0  0
  188.7480  175.4280  137.1600 O   0  0  0  0  0  0  0  0  0  0  0  0
  1  8  1  0  0  0  0
  2 17  1  0  0  0  0
  2  1  2  0  0  0  0
  4  5  2  0  0  0  0
  5  1  1  0  0  0  0
  5  3  1  0  0  0  0
  6  5  1  0  0  0  0
  8  7  2  0  0  0  0
  8  9  1  0  0  0  0
  9 10  1  0  0  0  0
 10 12  2  0  0  0  0
 10 15  1  0  0  0  0
 11 13  1  0  0  0  0
 12 14  1  0  0  0  0
 13 16  1  0  0  0  0
 14 13  2  0  0  0  0
 15 11  2  0  0  0  0
 18 23  1  6  0  0  0
 18 17  1  0  0  0  0
 18 20  1  0  0  0  0
 20 19  1  0  0  0  0
 20 21  1  0  0  0  0
 22 23  2  0  0  0  0
 25 24  1  0  0  0  0
 25 23  1  0  0  0  0
 26 25  2  0  0  0  0
M  END
>  <MODEL>
7

>  <REMARK>
 VINA RESULT:      -7.0      2.479      3.602
  Name = 
  8 active torsions:
  status: ('A' for Active; 'I' for Inactive)
    1  A    between atoms: C_2  and  C_15
    2  A    between atoms: C_3  and  N_5
    3  A    between atoms: C_11  and  P_12
    4  A    between atoms: C_11  and  O_19
    5  A    between atoms: C_11  and  C_26
    6  A    between atoms: C_15  and  P_17
    7  A    between atoms: O_19  and  N_21
    8  A    between atoms: C_24  and  C_26
                            x       y       z     vdW  Elec       q    Type
                         _______ _______ _______ _____ _____    ______ ____

>  <TORSDO>
F 8

$$$$
=
 OpenBabel11062417173D

 26 26  0  0  1  0  0  0  0  0999 V2000
  185.9280  178.6540  140.5640 C   0  0  0  0  0  0  0  0  0  0  0  0
  186.9520  178.3460  139.8240 N   0  0  0  0  0  0  0  0  0  0  0  0
  183.1030  178.5800  140.9080 O   0  0  0  0  0  1  0  0  0  0  0  0
  184.1940  177.7670  138.6760 O   0  0  0  0  0  0  0  0  0  0  0  0
  184.3290  178.8070  139.7650 P   0  0  0  0  0  0  0  0  0  0  0  0
  184.1860  180.3500  139.0870 O   0  0  0  0  0  1  0  0  0  0  0  0
  185.7030  179.9950  142.5250 O   0  0  0  0  0  0  0  0  0  0  0  0
  186.0400  178.8870  142.0260 C   0  0  0  0  0  0  0  0  0  0  0  0
  186.5330  177.8360  142.8700 N   0  0  0  0  0  2  0  0  0  0  0  0
  186.6760  177.8670  144.2960 C   0  0  0  0  0  0  0  0  0  0  0  0
  185.7990  178.2690  146.5270 C   0  0  0  0  0  3  0  0  0  0  0  0
  187.9030  177.4990  144.8570 C   0  0  0  0  0  3  0  0  0  0  0  0
  187.0290  177.8990  147.0780 C   0  0  0  0  0  0  0  0  0  0  0  0
  188.0810  177.5150  146.2430 C   0  0  0  0  0  3  0  0  0  0  0  0
  185.6230  178.2520  145.1410 C   0  0  0  0  0  3  0  0  0  0  0  0
  187.2050  177.9210  148.4220 F   0  0  0  0  0  0  0  0  0  0  0  0
  188.2270  178.2000  140.3240 O   0  0  0  0  0  0  0  0  0  0  0  0
  189.3470  178.2100  139.4520 C   0  0  2  0  0  3  0  0  0  0  0  0
  190.3680  177.5730  137.0570 O   0  0  0  0  0  1  0  0  0  0  0  0
  188.7970  177.9610  137.6850 P   0  0  0  0  0  0  0  0  0  0  0  0
  188.8460  179.6330  137.2160 O   0  0  0  0  0  1  0  0  0  0  0  0
  190.1610  175.9630  139.4630 O   0  0  0  0  0  0  0  0  0  0  0  0
  190.3300  177.1530  139.8470 C   0  0  0  0  0  0  0  0  0  0  0  0
  192.8040  177.4970  140.1160 N   0  0  0  0  0  1  0  0  0  0  0  0
  191.4940  177.4940  140.6760 C   0  0  0  0  0  0  0  0  0  0  0  0
  191.3390  177.7900  141.8910 O   0  0  0  0  0  0  0  0  0  0  0  0
  1  8  1  0  0  0  0
  2 17  1  0  0  0  0
  2  1  2  0  0  0  0
  4  5  2  0  0  0  0
  5  1  1  0  0  0  0
  5  3  1  0  0  0  0
  6  5  1  0  0  0  0
  8  7  2  0  0  0  0
  8  9  1  0  0  0  0
  9 10  1  0  0  0  0
 10 12  2  0  0  0  0
 10 15  1  0  0  0  0
 11 13  1  0  0  0  0
 12 14  1  0  0  0  0
 13 16  1  0  0  0  0
 14 13  2  0  0  0  0
 15 11  2  0  0  0  0
 18 23  1  1  0  0  0
 18 17  1  0  0  0  0
 19 20  1  0  0  0  0
 20 18  1  0  0  0  0
 21 20  1  0  0  0  0
 22 23  2  0  0  0  0
 23 25  1  0  0  0  0
 24 25  1  0  0  0  0
 25 26  2  0  0  0  0
M  END
>  <MODEL>
8

>  <REMARK>
 VINA RESULT:      -6.9      2.552      4.131
  Name = 
  8 active torsions:
  status: ('A' for Active; 'I' for Inactive)
    1  A    between atoms: C_2  and  C_15
    2  A    between atoms: C_3  and  N_5
    3  A    between atoms: C_11  and  P_12
    4  A    between atoms: C_11  and  O_19
    5  A    between atoms: C_11  and  C_26
    6  A    between atoms: C_15  and  P_17
    7  A    between atoms: O_19  and  N_21
    8  A    between atoms: C_24  and  C_26
                            x       y       z     vdW  Elec       q    Type
                         _______ _______ _______ _____ _____    ______ ____

>  <TORSDO>
F 8

$$$$
=
 OpenBabel11062417173D

 26 26  0  0  1  0  0  0  0  0999 V2000
  189.6390  177.1850  141.9270 C   0  0  0  0  0  0  0  0  0  0  0  0
  189.7490  177.1090  140.6340 N   0  0  0  0  0  0  0  0  0  0  0  0
  191.0920  178.8490  143.7240 O   0  0  0  0  0  1  0  0  0  0  0  0
  192.3450  177.3640  141.9750 O   0  0  0  0  0  0  0  0  0  0  0  0
  191.1420  177.3780  142.8890 P   0  0  0  0  0  0  0  0  0  0  0  0
  191.2640  176.1070  143.9980 O   0  0  0  0  0  1  0  0  0  0  0  0
  187.9850  176.0620  143.2290 O   0  0  0  0  0  0  0  0  0  0  0  0
  188.3300  177.1130  142.6240 C   0  0  0  0  0  0  0  0  0  0  0  0
  187.4590  178.2530  142.6040 N   0  0  0  0  0  2  0  0  0  0  0  0
  186.1820  178.3770  143.2450 C   0  0  0  0  0  0  0  0  0  0  0  0
  184.7860  178.4930  145.2320 C   0  0  0  0  0  3  0  0  0  0  0  0
  185.0410  178.5120  142.4490 C   0  0  0  0  0  3  0  0  0  0  0  0
  183.6510  178.6280  144.4270 C   0  0  0  0  0  0  0  0  0  0  0  0
  183.7780  178.6370  143.0360 C   0  0  0  0  0  3  0  0  0  0  0  0
  186.0470  178.3690  144.6420 C   0  0  0  0  0  3  0  0  0  0  0  0
  182.4260  178.7420  144.9950 F   0  0  0  0  0  0  0  0  0  0  0  0
  188.6690  176.9610  139.7930 O   0  0  0  0  0  0  0  0  0  0  0  0
  188.8470  176.9690  138.3850 C   0  0  2  0  0  3  0  0  0  0  0  0
  190.4180  176.6320  136.2390 O   0  0  0  0  0  1  0  0  0  0  0  0
  190.6490  176.7320  137.9570 P   0  0  0  0  0  0  0  0  0  0  0  0
  190.6980  175.0140  138.2120 O   0  0  0  0  0  1  0  0  0  0  0  0
  189.0510  179.2840  137.8260 O   0  0  0  0  0  0  0  0  0  0  0  0
  188.3340  178.2460  137.7960 C   0  0  0  0  0  0  0  0  0  0  0  0
  185.8580  178.6310  137.9640 N   0  0  0  0  0  1  0  0  0  0  0  0
  187.0000  178.2960  137.1820 C   0  0  0  0  0  0  0  0  0  0  0  0
  186.8600  178.0460  135.9550 O   0  0  0  0  0  0  0  0  0  0  0  0
  1  8  1  0  0  0  0
  1  5  1  0  0  0  0
  2  1  2  0  0  0  0
  4  5  2  0  0  0  0
  5  3  1  0  0  0  0
  5  6  1  0  0  0  0
  8  7  2  0  0  0  0
  9  8  1  0  0  0  0
  9 10  1  0  0  0  0
 10 15  1  0  0  0  0
 12 14  1  0  0  0  0
 12 10  2  0  0  0  0
 13 16  1  0  0  0  0
 13 11  1  0  0  0  0
 14 13  2  0  0  0  0
 15 11  2  0  0  0  0
 17  2  1  0  0  0  0
 18 23  1  1  0  0  0
 18 17  1  0  0  0  0
 19 20  1  0  0  0  0
 20 21  1  0  0  0  0
 20 18  1  0  0  0  0
 23 22  2  0  0  0  0
 25 23  1  0  0  0  0
 25 24  1  0  0  0  0
 26 25  2  0  0  0  0
M  END
>  <MODEL>
9

>  <REMARK>
 VINA RESULT:      -6.8      3.695      4.953
  Name = 
  8 active torsions:
  status: ('A' for Active; 'I' for Inactive)
    1  A    between atoms: C_2  and  C_15
    2  A    between atoms: C_3  and  N_5
    3  A    between atoms: C_11  and  P_12
    4  A    between atoms: C_11  and  O_19
    5  A    between atoms: C_11  and  C_26
    6  A    between atoms: C_15  and  P_17
    7  A    between atoms: O_19  and  N_21
    8  A    between atoms: C_24  and  C_26
                            x       y       z     vdW  Elec       q    Type
                         _______ _______ _______ _____ _____    ______ ____

>  <TORSDO>
F 8

$$$$
