=
 OpenBabel11062416333D

 29 32  0  0  1  0  0  0  0  0999 V2000
  181.9030  178.4190  137.5460 C   0  0  2  0  0  3  0  0  0  0  0  0
  182.7790  180.0940  139.0620 C   0  0  0  0  0  2  0  0  0  0  0  0
  186.3320  176.3410  136.7410 C   0  0  1  0  0  3  0  0  0  0  0  0
  184.0020  177.4340  136.9340 C   0  0  0  0  0  2  0  0  0  0  0  0
  188.6670  175.9870  136.3570 O   0  0  0  0  0  0  0  0  0  0  0  0
  183.2150  178.0020  138.0270 N   0  0  1  0  0  0  0  0  0  0  0  0
  185.5150  177.5500  137.2190 C   0  0  1  0  0  3  0  0  0  0  0  0
  185.8310  177.8660  138.7060 C   0  0  1  0  0  3  0  0  0  0  0  0
  187.7900  176.5840  137.0330 C   0  0  0  0  0  0  0  0  0  0  0  0
  187.3010  178.1250  138.8800 C   0  0  0  0  0  3  0  0  0  0  0  0
  183.8550  179.2360  138.4460 C   0  0  2  0  0  3  0  0  0  0  0  0
  181.5540  179.7390  138.2350 C   0  0  2  0  0  3  0  0  0  0  0  0
  185.0190  178.9530  139.3020 N   0  0  0  0  0  0  0  0  0  0  0  0
  180.9270  178.4410  138.7070 C   0  0  0  0  0  2  0  0  0  0  0  0
  188.2040  177.5000  138.1170 C   0  0  0  0  0  3  0  0  0  0  0  0
  184.7460  172.9540  137.5250 N   0  0  0  0  0  2  0  0  0  0  0  0
  185.9080  175.1240  137.4240 N   0  0  0  0  0  2  0  0  0  0  0  0
  184.9680  174.1390  135.5270 O   0  0  0  0  0  0  0  0  0  0  0  0
  185.1940  174.0760  136.7660 C   0  0  0  0  0  0  0  0  0  0  0  0
  184.0120  171.8570  136.9170 C   0  0  0  0  0  1  0  0  0  0  0  0
  186.0040  179.7690  141.8130 O   0  0  0  0  0  0  0  0  0  0  0  0
  184.5450  178.4690  140.5350 N   0  0  0  0  0  2  0  0  0  0  0  0
  185.1030  178.8900  141.7800 C   0  0  0  0  0  0  0  0  0  0  0  0
  184.6110  178.2800  143.0510 C   0  0  0  0  0  2  0  0  0  0  0  0
  185.6070  178.4220  144.2080 C   0  0  2  0  0  3  0  0  0  0  0  0
  186.1730  177.2060  144.5510 F   0  0  0  0  0  0  0  0  0  0  0  0
  185.6460  178.6390  146.7390 C   0  0  0  0  0  1  0  0  0  0  0  0
  185.0630  179.1580  145.4380 C   0  0  2  0  0  3  0  0  0  0  0  0
  183.6700  179.0950  145.4770 O   0  0  0  0  0  1  0  0  0  0  0  0
  1  6  1  0  0  0  0
  1 12  1  0  0  0  0
  1 14  1  1  0  0  0
  3  9  1  0  0  0  0
  3  7  1  0  0  0  0
  3 17  1  1  0  0  0
  5  9  2  0  0  0  0
  6  4  1  6  0  0  0
  6 11  1  0  0  0  0
  7  4  1  1  0  0  0
  7  8  1  0  0  0  0
  8 10  1  6  0  0  0
  8 13  1  0  0  0  0
  9 15  1  0  0  0  0
 11  2  1  1  0  0  0
 11 13  1  0  0  0  0
 12 14  1  1  0  0  0
 12  2  1  0  0  0  0
 13 22  1  0  0  0  0
 15 10  2  0  0  0  0
 18 19  2  0  0  0  0
 19 17  1  0  0  0  0
 19 16  1  0  0  0  0
 20 16  1  0  0  0  0
 22 23  1  0  0  0  0
 23 21  2  0  0  0  0
 23 24  1  0  0  0  0
 24 25  1  0  0  0  0
 25 26  1  1  0  0  0
 25 28  1  0  0  0  0
 28 29  1  0  0  0  0
 28 27  1  1  0  0  0
M  END
>  <MODEL>
1

>  <REMARK>
 VINA RESULT:      -6.5      0.000      0.000
  Name = 
  5 active torsions:
  status: ('A' for Active; 'I' for Inactive)
    1  A    between atoms: C_5  and  N_19
    2  A    between atoms: C_7  and  C_9
    3  A    between atoms: C_9  and  C_14
    4  A    between atoms: N_11  and  N_26
    5  A    between atoms: C_14  and  C_20
                            x       y       z     vdW  Elec       q    Type
                         _______ _______ _______ _____ _____    ______ ____

>  <TORSDO>
F 5

$$$$
=
 OpenBabel11062416333D

 29 32  0  0  1  0  0  0  0  0999 V2000
  180.3380  177.5920  139.5200 C   0  0  2  0  0  3  0  0  0  0  0  0
  181.4690  179.4090  140.6570 C   0  0  0  0  0  2  0  0  0  0  0  0
  184.2160  176.5420  136.6160 C   0  0  1  0  0  3  0  0  0  0  0  0
  182.0700  177.0950  137.9390 C   0  0  0  0  0  2  0  0  0  0  0  0
  186.1360  176.7110  135.1990 O   0  0  0  0  0  0  0  0  0  0  0  0
  181.7770  177.4700  139.3220 N   0  0  1  0  0  0  0  0  0  0  0  0
  183.4920  177.5390  137.5330 C   0  0  1  0  0  3  0  0  0  0  0  0
  184.3850  177.9080  138.7480 C   0  0  1  0  0  3  0  0  0  0  0  0
  185.5680  177.0970  136.2530 C   0  0  0  0  0  0  0  0  0  0  0  0
  185.6910  178.4820  138.2760 C   0  0  0  0  0  3  0  0  0  0  0  0
  182.2870  178.8120  139.5390 C   0  0  2  0  0  3  0  0  0  0  0  0
  180.0950  178.7990  140.4290 C   0  0  2  0  0  3  0  0  0  0  0  0
  183.7430  178.7870  139.7540 N   0  0  0  0  0  0  0  0  0  0  0  0
  180.0160  177.3920  140.9900 C   0  0  0  0  0  2  0  0  0  0  0  0
  186.2470  178.0750  137.1300 C   0  0  0  0  0  3  0  0  0  0  0  0
  184.1720  172.8070  137.4270 N   0  0  0  0  0  2  0  0  0  0  0  0
  184.3940  175.2570  137.2840 N   0  0  0  0  0  2  0  0  0  0  0  0
  183.6240  173.9810  135.4870 O   0  0  0  0  0  0  0  0  0  0  0  0
  184.0410  174.0140  136.6760 C   0  0  0  0  0  0  0  0  0  0  0  0
  183.8280  171.5110  136.8690 C   0  0  0  0  0  1  0  0  0  0  0  0
  185.6260  179.7530  141.6140 O   0  0  0  0  0  0  0  0  0  0  0  0
  183.9880  178.2030  141.0100 N   0  0  0  0  0  2  0  0  0  0  0  0
  184.9800  178.7120  141.9020 C   0  0  0  0  0  0  0  0  0  0  0  0
  185.2480  178.0010  143.1880 C   0  0  0  0  0  2  0  0  0  0  0  0
  184.4920  178.6070  144.3760 C   0  0  2  0  0  3  0  0  0  0  0  0
  183.8250  179.7680  144.0240 F   0  0  0  0  0  0  0  0  0  0  0  0
  186.5470  177.8910  145.6860 C   0  0  0  0  0  1  0  0  0  0  0  0
  185.3340  178.8020  145.6420 C   0  0  2  0  0  3  0  0  0  0  0  0
  184.5570  178.6220  146.7870 O   0  0  0  0  0  1  0  0  0  0  0  0
  1 12  1  0  0  0  0
  1 14  1  1  0  0  0
  3 17  1  1  0  0  0
  3  7  1  0  0  0  0
  5  9  2  0  0  0  0
  6  4  1  6  0  0  0
  6  1  1  0  0  0  0
  6 11  1  0  0  0  0
  7  4  1  1  0  0  0
  7  8  1  0  0  0  0
  8 10  1  6  0  0  0
  8 13  1  0  0  0  0
  9  3  1  0  0  0  0
  9 15  1  0  0  0  0
 11 13  1  0  0  0  0
 11  2  1  1  0  0  0
 12  2  1  1  0  0  0
 12 14  1  0  0  0  0
 13 22  1  0  0  0  0
 15 10  2  0  0  0  0
 18 19  2  0  0  0  0
 19 17  1  0  0  0  0
 19 16  1  0  0  0  0
 20 16  1  0  0  0  0
 21 23  2  0  0  0  0
 22 23  1  0  0  0  0
 23 24  1  0  0  0  0
 24 25  1  0  0  0  0
 25 26  1  6  0  0  0
 25 28  1  0  0  0  0
 28 27  1  6  0  0  0
 28 29  1  0  0  0  0
M  END
>  <MODEL>
2

>  <REMARK>
 VINA RESULT:      -6.4      1.527      1.865
  Name = 
  5 active torsions:
  status: ('A' for Active; 'I' for Inactive)
    1  A    between atoms: C_5  and  N_19
    2  A    between atoms: C_7  and  C_9
    3  A    between atoms: C_9  and  C_14
    4  A    between atoms: N_11  and  N_26
    5  A    between atoms: C_14  and  C_20
                            x       y       z     vdW  Elec       q    Type
                         _______ _______ _______ _____ _____    ______ ____

>  <TORSDO>
F 5

$$$$
=
 OpenBabel11062416333D

 29 32  0  0  1  0  0  0  0  0999 V2000
  183.9470  178.5280  141.0350 C   0  0  2  0  0  3  0  0  0  0  0  0
  185.7260  179.5160  142.3510 C   0  0  0  0  0  2  0  0  0  0  0  0
  186.8720  177.6270  137.1350 C   0  0  1  0  0  3  0  0  0  0  0  0
  185.2060  178.1970  139.0210 C   0  0  0  0  0  2  0  0  0  0  0  0
  188.5330  177.7990  135.4220 O   0  0  0  0  0  0  0  0  0  0  0  0
  185.2380  178.1370  140.4820 N   0  0  1  0  0  0  0  0  0  0  0  0
  186.6230  178.3950  138.4410 C   0  0  1  0  0  3  0  0  0  0  0  0
  187.7480  178.0980  139.4700 C   0  0  1  0  0  3  0  0  0  0  0  0
  188.2640  177.9280  136.6440 C   0  0  0  0  0  0  0  0  0  0  0  0
  189.0860  178.4640  138.8930 C   0  0  0  0  0  3  0  0  0  0  0  0
  186.1570  179.1580  140.9520 C   0  0  2  0  0  3  0  0  0  0  0  0
  184.2140  179.3720  142.2820 C   0  0  2  0  0  3  0  0  0  0  0  0
  187.5520  178.7090  140.8060 N   0  0  0  0  0  0  0  0  0  0  0  0
  183.7900  177.9220  142.4180 C   0  0  0  0  0  2  0  0  0  0  0  0
  189.3240  178.3520  137.5830 C   0  0  0  0  0  3  0  0  0  0  0  0
  185.5580  174.0380  137.1440 N   0  0  0  0  0  2  0  0  0  0  0  0
  186.7430  176.1890  137.3450 N   0  0  0  0  0  2  0  0  0  0  0  0
  184.7860  175.9720  136.0910 O   0  0  0  0  0  0  0  0  0  0  0  0
  185.6520  175.4260  136.8260 C   0  0  0  0  0  0  0  0  0  0  0  0
  184.4730  173.2070  136.6510 C   0  0  0  0  0  1  0  0  0  0  0  0
  189.7350  178.6570  142.5870 O   0  0  0  0  0  0  0  0  0  0  0  0
  187.7820  177.6900  141.7480 N   0  0  0  0  0  2  0  0  0  0  0  0
  188.9240  177.6940  142.6050 C   0  0  0  0  0  0  0  0  0  0  0  0
  189.1550  176.5440  143.5300 C   0  0  0  0  0  2  0  0  0  0  0  0
  188.8260  176.8750  144.9910 C   0  0  2  0  0  3  0  0  0  0  0  0
  187.8190  177.8210  145.0900 F   0  0  0  0  0  0  0  0  0  0  0  0
  191.3420  176.7100  145.2970 C   0  0  0  0  0  1  0  0  0  0  0  0
  190.0370  177.2470  145.8530 C   0  0  2  0  0  3  0  0  0  0  0  0
  189.8610  176.8120  147.1680 O   0  0  0  0  0  1  0  0  0  0  0  0
  1 12  1  0  0  0  0
  1 14  1  1  0  0  0
  3 17  1  1  0  0  0
  3  7  1  0  0  0  0
  5  9  2  0  0  0  0
  6  4  1  6  0  0  0
  6 11  1  0  0  0  0
  6  1  1  0  0  0  0
  7  4  1  1  0  0  0
  7  8  1  0  0  0  0
  8 10  1  6  0  0  0
  8 13  1  0  0  0  0
  9  3  1  0  0  0  0
  9 15  1  0  0  0  0
 11  2  1  1  0  0  0
 12  2  1  6  0  0  0
 12 14  1  0  0  0  0
 13 11  1  0  0  0  0
 13 22  1  0  0  0  0
 15 10  2  0  0  0  0
 18 19  2  0  0  0  0
 19 16  1  0  0  0  0
 19 17  1  0  0  0  0
 20 16  1  0  0  0  0
 21 23  2  0  0  0  0
 22 23  1  0  0  0  0
 23 24  1  0  0  0  0
 24 25  1  0  0  0  0
 25 26  1  6  0  0  0
 25 28  1  0  0  0  0
 28 27  1  6  0  0  0
 28 29  1  0  0  0  0
M  END
>  <MODEL>
3

>  <REMARK>
 VINA RESULT:      -6.2      2.768      3.480
  Name = 
  5 active torsions:
  status: ('A' for Active; 'I' for Inactive)
    1  A    between atoms: C_5  and  N_19
    2  A    between atoms: C_7  and  C_9
    3  A    between atoms: C_9  and  C_14
    4  A    between atoms: N_11  and  N_26
    5  A    between atoms: C_14  and  C_20
                            x       y       z     vdW  Elec       q    Type
                         _______ _______ _______ _____ _____    ______ ____

>  <TORSDO>
F 5

$$$$
=
 OpenBabel11062416333D

 29 32  0  0  1  0  0  0  0  0999 V2000
  183.3320  178.9670  144.7590 C   0  0  2  0  0  3  0  0  0  0  0  0
  185.6530  179.5910  144.4420 C   0  0  0  0  0  2  0  0  0  0  0  0
  182.4700  178.3980  139.9110 C   0  0  1  0  0  3  0  0  0  0  0  0
  182.7350  178.8280  142.4410 C   0  0  0  0  0  2  0  0  0  0  0  0
  182.4460  178.6750  137.5340 O   0  0  0  0  0  0  0  0  0  0  0  0
  183.7730  178.5500  143.4340 N   0  0  1  0  0  0  0  0  0  0  0  0
  183.3420  178.9840  141.0300 C   0  0  1  0  0  3  0  0  0  0  0  0
  184.7930  178.4410  140.9290 C   0  0  1  0  0  3  0  0  0  0  0  0
  183.1390  178.6450  138.5840 C   0  0  0  0  0  0  0  0  0  0  0  0
  185.3760  178.7690  139.5840 C   0  0  0  0  0  3  0  0  0  0  0  0
  184.9090  179.4060  143.1440 C   0  0  2  0  0  3  0  0  0  0  0  0
  184.5330  179.5920  145.4710 C   0  0  2  0  0  3  0  0  0  0  0  0
  185.6970  178.8630  142.0250 N   0  0  0  0  0  0  0  0  0  0  0  0
  184.0930  178.1810  145.8100 C   0  0  0  0  0  2  0  0  0  0  0  0
  184.6020  178.8310  138.4960 C   0  0  0  0  0  3  0  0  0  0  0  0
  180.9430  174.8970  140.0590 N   0  0  0  0  0  2  0  0  0  0  0  0
  182.2870  176.9620  140.0910 N   0  0  0  0  0  2  0  0  0  0  0  0
  180.1080  176.9230  139.2550 O   0  0  0  0  0  0  0  0  0  0  0  0
  181.0660  176.2910  139.7790 C   0  0  0  0  0  0  0  0  0  0  0  0
  179.7270  174.1580  139.7690 C   0  0  0  0  0  1  0  0  0  0  0  0
  188.4950  178.5250  142.0690 O   0  0  0  0  0  0  0  0  0  0  0  0
  186.3490  177.7000  142.4760 N   0  0  0  0  0  2  0  0  0  0  0  0
  187.7700  177.5660  142.4440 C   0  0  0  0  0  0  0  0  0  0  0  0
  188.3980  176.2780  142.8620 C   0  0  0  0  0  2  0  0  0  0  0  0
  189.8830  176.4220  143.2150 C   0  0  2  0  0  3  0  0  0  0  0  0
  190.5650  175.2250  143.0690 F   0  0  0  0  0  0  0  0  0  0  0  0
  191.4850  176.6310  145.1750 C   0  0  0  0  0  1  0  0  0  0  0  0
  190.1600  177.0660  144.5780 C   0  0  2  0  0  3  0  0  0  0  0  0
  189.1210  176.8020  145.4710 O   0  0  0  0  0  1  0  0  0  0  0  0
  1 12  1  0  0  0  0
  1 14  1  1  0  0  0
  3 17  1  1  0  0  0
  3  7  1  0  0  0  0
  5  9  2  0  0  0  0
  6  4  1  6  0  0  0
  6  1  1  0  0  0  0
  7  4  1  1  0  0  0
  8 10  1  6  0  0  0
  8  7  1  0  0  0  0
  8 13  1  0  0  0  0
  9  3  1  0  0  0  0
 11  6  1  0  0  0  0
 11  2  1  1  0  0  0
 12  2  1  6  0  0  0
 12 14  1  0  0  0  0
 13 22  1  0  0  0  0
 13 11  1  0  0  0  0
 15  9  1  0  0  0  0
 15 10  2  0  0  0  0
 18 19  2  0  0  0  0
 19 16  1  0  0  0  0
 19 17  1  0  0  0  0
 20 16  1  0  0  0  0
 21 23  2  0  0  0  0
 23 22  1  0  0  0  0
 23 24  1  0  0  0  0
 24 25  1  0  0  0  0
 25 26  1  1  0  0  0
 25 28  1  0  0  0  0
 28 27  1  1  0  0  0
 28 29  1  0  0  0  0
M  END
>  <MODEL>
4

>  <REMARK>
 VINA RESULT:      -6.0      3.452      5.302
  Name = 
  5 active torsions:
  status: ('A' for Active; 'I' for Inactive)
    1  A    between atoms: C_5  and  N_19
    2  A    between atoms: C_7  and  C_9
    3  A    between atoms: C_9  and  C_14
    4  A    between atoms: N_11  and  N_26
    5  A    between atoms: C_14  and  C_20
                            x       y       z     vdW  Elec       q    Type
                         _______ _______ _______ _____ _____    ______ ____

>  <TORSDO>
F 5

$$$$
=
 OpenBabel11062416333D

 29 32  0  0  1  0  0  0  0  0999 V2000
  187.6480  177.7570  136.2680 C   0  0  2  0  0  3  0  0  0  0  0  0
  189.0740  178.9700  137.8060 C   0  0  0  0  0  2  0  0  0  0  0  0
  190.8280  173.9880  135.7580 C   0  0  1  0  0  3  0  0  0  0  0  0
  189.1660  175.9620  135.7960 C   0  0  0  0  0  2  0  0  0  0  0  0
  192.8140  172.6760  135.5180 O   0  0  0  0  0  0  0  0  0  0  0  0
  188.6390  176.8490  136.8320 N   0  0  1  0  0  0  0  0  0  0  0  0
  190.5720  175.4460  136.1680 C   0  0  1  0  0  3  0  0  0  0  0  0
  190.9220  175.6590  137.6660 C   0  0  1  0  0  3  0  0  0  0  0  0
  192.2380  173.6110  136.1310 C   0  0  0  0  0  0  0  0  0  0  0  0
  192.3550  175.2860  137.9210 C   0  0  0  0  0  3  0  0  0  0  0  0
  189.7180  177.7180  137.2680 C   0  0  2  0  0  3  0  0  0  0  0  0
  187.8530  179.1280  136.9150 C   0  0  2  0  0  3  0  0  0  0  0  0
  190.6140  177.0080  138.1950 N   0  0  0  0  0  0  0  0  0  0  0  0
  186.7170  178.2300  137.3690 C   0  0  0  0  0  2  0  0  0  0  0  0
  192.9470  174.3120  137.2230 C   0  0  0  0  0  3  0  0  0  0  0  0
  187.8300  171.7590  136.5630 N   0  0  0  0  0  2  0  0  0  0  0  0
  189.9010  173.0880  136.4340 N   0  0  0  0  0  2  0  0  0  0  0  0
  188.4890  172.8240  134.5940 O   0  0  0  0  0  0  0  0  0  0  0  0
  188.7270  172.5710  135.8060 C   0  0  0  0  0  0  0  0  0  0  0  0
  186.6170  171.2060  135.9840 C   0  0  0  0  0  1  0  0  0  0  0  0
  191.7310  177.4390  140.7470 O   0  0  0  0  0  0  0  0  0  0  0  0
  189.9240  176.8150  139.4060 N   0  0  0  0  0  2  0  0  0  0  0  0
  190.5480  177.0140  140.6750 C   0  0  0  0  0  0  0  0  0  0  0  0
  189.7870  176.7170  141.9240 C   0  0  0  0  0  2  0  0  0  0  0  0
  190.6790  176.2080  143.0630 C   0  0  2  0  0  3  0  0  0  0  0  0
  190.6330  174.8280  143.1750 F   0  0  0  0  0  0  0  0  0  0  0  0
  189.0950  177.5720  144.5060 C   0  0  0  0  0  1  0  0  0  0  0  0
  190.4490  176.8920  144.4140 C   0  0  2  0  0  3  0  0  0  0  0  0
  191.4660  177.8070  144.6860 O   0  0  0  0  0  1  0  0  0  0  0  0
  1  6  1  0  0  0  0
  1 12  1  0  0  0  0
  1 14  1  1  0  0  0
  3  9  1  0  0  0  0
  3  7  1  0  0  0  0
  3 17  1  1  0  0  0
  5  9  2  0  0  0  0
  6  4  1  6  0  0  0
  6 11  1  0  0  0  0
  7  4  1  1  0  0  0
  7  8  1  0  0  0  0
  8 10  1  6  0  0  0
  8 13  1  0  0  0  0
  9 15  1  0  0  0  0
 11  2  1  1  0  0  0
 11 13  1  0  0  0  0
 12 14  1  1  0  0  0
 12  2  1  0  0  0  0
 13 22  1  0  0  0  0
 15 10  2  0  0  0  0
 18 19  2  0  0  0  0
 19 17  1  0  0  0  0
 19 16  1  0  0  0  0
 20 16  1  0  0  0  0
 22 23  1  0  0  0  0
 23 21  2  0  0  0  0
 23 24  1  0  0  0  0
 24 25  1  0  0  0  0
 25 26  1  1  0  0  0
 25 28  1  0  0  0  0
 28 27  1  6  0  0  0
 28 29  1  0  0  0  0
M  END
>  <MODEL>
5

>  <REMARK>
 VINA RESULT:      -5.9      4.272      5.546
  Name = 
  5 active torsions:
  status: ('A' for Active; 'I' for Inactive)
    1  A    between atoms: C_5  and  N_19
    2  A    between atoms: C_7  and  C_9
    3  A    between atoms: C_9  and  C_14
    4  A    between atoms: N_11  and  N_26
    5  A    between atoms: C_14  and  C_20
                            x       y       z     vdW  Elec       q    Type
                         _______ _______ _______ _____ _____    ______ ____

>  <TORSDO>
F 5

$$$$
=
 OpenBabel11062416333D

 29 32  0  0  1  0  0  0  0  0999 V2000
  189.9180  177.0330  141.4240 C   0  0  2  0  0  3  0  0  0  0  0  0
  192.0970  177.5370  140.4900 C   0  0  0  0  0  2  0  0  0  0  0  0
  187.7050  176.7680  136.9950 C   0  0  1  0  0  3  0  0  0  0  0  0
  188.6920  177.0500  139.3630 C   0  0  0  0  0  2  0  0  0  0  0  0
  187.0410  177.1700  134.7320 O   0  0  0  0  0  0  0  0  0  0  0  0
  189.9420  176.6610  140.0150 N   0  0  1  0  0  0  0  0  0  0  0  0
  188.8930  177.2430  137.8450 C   0  0  1  0  0  3  0  0  0  0  0  0
  190.2170  176.6240  137.3220 C   0  0  1  0  0  3  0  0  0  0  0  0
  187.9950  177.0450  135.5440 C   0  0  0  0  0  0  0  0  0  0  0  0
  190.4250  176.9870  135.8800 C   0  0  0  0  0  3  0  0  0  0  0  0
  191.0110  177.4630  139.4470 C   0  0  2  0  0  3  0  0  0  0  0  0
  191.3110  177.5490  141.7910 C   0  0  2  0  0  3  0  0  0  0  0  0
  191.4170  176.9340  138.1340 N   0  0  0  0  0  0  0  0  0  0  0  0
  190.8840  176.1500  142.1920 C   0  0  0  0  0  2  0  0  0  0  0  0
  189.3860  177.1500  135.0550 C   0  0  0  0  0  3  0  0  0  0  0  0
  186.0390  173.3620  137.4710 N   0  0  0  0  0  2  0  0  0  0  0  0
  187.4800  175.3380  137.1710 N   0  0  0  0  0  2  0  0  0  0  0  0
  185.1540  175.4750  137.0270 O   0  0  0  0  0  0  0  0  0  0  0  0
  186.1740  174.7600  137.2160 C   0  0  0  0  0  0  0  0  0  0  0  0
  184.7400  172.7130  137.5330 C   0  0  0  0  0  1  0  0  0  0  0  0
  193.9510  176.3070  137.0730 O   0  0  0  0  0  0  0  0  0  0  0  0
  192.0850  175.7140  138.3440 N   0  0  0  0  0  2  0  0  0  0  0  0
  193.3540  175.4320  137.7540 C   0  0  0  0  0  0  0  0  0  0  0  0
  193.9750  174.0890  137.9500 C   0  0  0  0  0  2  0  0  0  0  0  0
  195.3230  174.1530  138.6780 C   0  0  2  0  0  3  0  0  0  0  0  0
  195.3460  175.1560  139.6320 F   0  0  0  0  0  0  0  0  0  0  0  0
  197.1970  172.8650  137.5430 C   0  0  0  0  0  1  0  0  0  0  0  0
  196.5480  174.2200  137.7590 C   0  0  2  0  0  3  0  0  0  0  0  0
  197.4860  175.1290  138.2490 O   0  0  0  0  0  1  0  0  0  0  0  0
  1 12  1  0  0  0  0
  1 14  1  1  0  0  0
  3 17  1  6  0  0  0
  3  7  1  0  0  0  0
  5  9  2  0  0  0  0
  6  4  1  6  0  0  0
  6  1  1  0  0  0  0
  7  4  1  1  0  0  0
  8 10  1  6  0  0  0
  8  7  1  0  0  0  0
  8 13  1  0  0  0  0
  9  3  1  0  0  0  0
 11  6  1  0  0  0  0
 11  2  1  1  0  0  0
 12  2  1  6  0  0  0
 12 14  1  0  0  0  0
 13 22  1  0  0  0  0
 13 11  1  0  0  0  0
 15  9  1  0  0  0  0
 15 10  2  0  0  0  0
 16 20  1  0  0  0  0
 17 19  1  0  0  0  0
 18 19  2  0  0  0  0
 19 16  1  0  0  0  0
 21 23  2  0  0  0  0
 23 24  1  0  0  0  0
 23 22  1  0  0  0  0
 24 25  1  0  0  0  0
 25 26  1  1  0  0  0
 28 27  1  1  0  0  0
 28 29  1  0  0  0  0
 28 25  1  0  0  0  0
M  END
>  <MODEL>
6

>  <REMARK>
 VINA RESULT:      -5.8      5.189      8.409
  Name = 
  5 active torsions:
  status: ('A' for Active; 'I' for Inactive)
    1  A    between atoms: C_5  and  N_19
    2  A    between atoms: C_7  and  C_9
    3  A    between atoms: C_9  and  C_14
    4  A    between atoms: N_11  and  N_26
    5  A    between atoms: C_14  and  C_20
                            x       y       z     vdW  Elec       q    Type
                         _______ _______ _______ _____ _____    ______ ____

>  <TORSDO>
F 5

$$$$
=
 OpenBabel11062416333D

 29 32  0  0  1  0  0  0  0  0999 V2000
  186.1910  178.6180  140.5300 C   0  0  2  0  0  3  0  0  0  0  0  0
  188.2790  179.1460  141.6410 C   0  0  0  0  0  2  0  0  0  0  0  0
  188.4050  176.4530  136.6590 C   0  0  1  0  0  3  0  0  0  0  0  0
  187.1350  177.7050  138.5240 C   0  0  0  0  0  2  0  0  0  0  0  0
  189.9060  175.9230  134.8720 O   0  0  0  0  0  0  0  0  0  0  0  0
  187.2590  177.7930  139.9790 N   0  0  1  0  0  0  0  0  0  0  0  0
  188.4980  177.3940  137.8680 C   0  0  1  0  0  3  0  0  0  0  0  0
  189.5560  176.8770  138.8800 C   0  0  1  0  0  3  0  0  0  0  0  0
  189.7810  176.2570  136.0790 C   0  0  0  0  0  0  0  0  0  0  0  0
  190.8950  176.7510  138.2090 C   0  0  0  0  0  3  0  0  0  0  0  0
  188.4750  178.5260  140.2810 C   0  0  2  0  0  3  0  0  0  0  0  0
  186.7930  179.4670  141.6510 C   0  0  2  0  0  3  0  0  0  0  0  0
  189.6550  177.6570  140.1360 N   0  0  0  0  0  0  0  0  0  0  0  0
  185.9650  178.2410  141.9820 C   0  0  0  0  0  2  0  0  0  0  0  0
  190.9880  176.4320  136.9140 C   0  0  0  0  0  3  0  0  0  0  0  0
  186.0480  173.5060  137.2640 N   0  0  0  0  0  2  0  0  0  0  0  0
  187.8660  175.1550  137.0500 N   0  0  0  0  0  2  0  0  0  0  0  0
  185.7610  175.5120  136.1070 O   0  0  0  0  0  0  0  0  0  0  0  0
  186.5200  174.7620  136.7770 C   0  0  0  0  0  0  0  0  0  0  0  0
  184.6900  173.0490  137.0230 C   0  0  0  0  0  1  0  0  0  0  0  0
  191.6050  177.5180  142.1660 O   0  0  0  0  0  0  0  0  0  0  0  0
  189.6400  176.7230  141.1880 N   0  0  0  0  0  2  0  0  0  0  0  0
  190.6720  176.6720  142.1730 C   0  0  0  0  0  0  0  0  0  0  0  0
  190.6410  175.6070  143.2190 C   0  0  0  0  0  2  0  0  0  0  0  0
  191.6530  175.8450  144.3470 C   0  0  2  0  0  3  0  0  0  0  0  0
  192.4330  174.7260  144.5820 F   0  0  0  0  0  0  0  0  0  0  0  0
  190.1200  177.5720  145.4070 C   0  0  0  0  0  1  0  0  0  0  0  0
  191.0510  176.3970  145.6440 C   0  0  2  0  0  3  0  0  0  0  0  0
  192.0560  176.7540  146.5430 O   0  0  0  0  0  1  0  0  0  0  0  0
  1 12  1  0  0  0  0
  1 14  1  1  0  0  0
  3 17  1  1  0  0  0
  3  7  1  0  0  0  0
  5  9  2  0  0  0  0
  6  4  1  6  0  0  0
  6 11  1  0  0  0  0
  6  1  1  0  0  0  0
  7  4  1  1  0  0  0
  7  8  1  0  0  0  0
  8 10  1  6  0  0  0
  8 13  1  0  0  0  0
  9  3  1  0  0  0  0
  9 15  1  0  0  0  0
 11  2  1  1  0  0  0
 12  2  1  6  0  0  0
 12 14  1  0  0  0  0
 13 11  1  0  0  0  0
 13 22  1  0  0  0  0
 15 10  2  0  0  0  0
 18 19  2  0  0  0  0
 19 17  1  0  0  0  0
 19 16  1  0  0  0  0
 20 16  1  0  0  0  0
 21 23  2  0  0  0  0
 22 23  1  0  0  0  0
 23 24  1  0  0  0  0
 24 25  1  0  0  0  0
 25 26  1  1  0  0  0
 25 28  1  0  0  0  0
 28 27  1  6  0  0  0
 28 29  1  0  0  0  0
M  END
>  <MODEL>
7

>  <REMARK>
 VINA RESULT:      -5.7      3.861      4.827
  Name = 
  5 active torsions:
  status: ('A' for Active; 'I' for Inactive)
    1  A    between atoms: C_5  and  N_19
    2  A    between atoms: C_7  and  C_9
    3  A    between atoms: C_9  and  C_14
    4  A    between atoms: N_11  and  N_26
    5  A    between atoms: C_14  and  C_20
                            x       y       z     vdW  Elec       q    Type
                         _______ _______ _______ _____ _____    ______ ____

>  <TORSDO>
F 5

$$$$
=
 OpenBabel11062416333D

 29 32  0  0  1  0  0  0  0  0999 V2000
  186.8380  178.2630  137.1000 C   0  0  2  0  0  3  0  0  0  0  0  0
  185.3710  176.9420  135.6950 C   0  0  0  0  0  2  0  0  0  0  0  0
  183.5010  178.7210  140.7380 C   0  0  1  0  0  3  0  0  0  0  0  0
  185.2630  178.7090  138.8520 C   0  0  0  0  0  2  0  0  0  0  0  0
  181.4700  179.0110  141.9680 O   0  0  0  0  0  0  0  0  0  0  0  0
  185.7590  177.7080  137.9080 N   0  0  1  0  0  0  0  0  0  0  0  0
  183.8060  178.4080  139.2660 C   0  0  1  0  0  3  0  0  0  0  0  0
  183.3590  176.9640  138.9120 C   0  0  1  0  0  3  0  0  0  0  0  0
  182.0490  178.4310  141.0140 C   0  0  0  0  0  0  0  0  0  0  0  0
  181.8930  176.7930  139.1920 C   0  0  0  0  0  3  0  0  0  0  0  0
  184.7000  177.4280  136.9540 C   0  0  2  0  0  3  0  0  0  0  0  0
  186.6610  177.7450  135.6720 C   0  0  2  0  0  3  0  0  0  0  0  0
  183.7000  176.5210  137.5400 N   0  0  0  0  0  0  0  0  0  0  0  0
  187.7090  177.1340  136.5830 C   0  0  0  0  0  2  0  0  0  0  0  0
  181.3010  177.4570  140.1910 C   0  0  0  0  0  3  0  0  0  0  0  0
  185.7940  177.5780  143.5750 N   0  0  0  0  0  2  0  0  0  0  0  0
  184.3250  177.9050  141.6240 N   0  0  0  0  0  2  0  0  0  0  0  0
  184.7200  179.6100  143.1690 O   0  0  0  0  0  0  0  0  0  0  0  0
  184.9380  178.4220  142.8060 C   0  0  0  0  0  0  0  0  0  0  0  0
  186.4490  178.0440  144.7850 C   0  0  0  0  0  1  0  0  0  0  0  0
  182.5010  174.1250  136.6650 O   0  0  0  0  0  0  0  0  0  0  0  0
  184.2870  175.2490  137.6650 N   0  0  0  0  0  2  0  0  0  0  0  0
  183.6210  174.0600  137.2370 C   0  0  0  0  0  0  0  0  0  0  0  0
  184.2630  172.7320  137.4690 C   0  0  0  0  0  2  0  0  0  0  0  0
  184.8000  172.0940  136.1820 C   0  0  2  0  0  3  0  0  0  0  0  0
  184.5830  170.7270  136.1570 F   0  0  0  0  0  0  0  0  0  0  0  0
  187.0940  172.6960  137.0920 C   0  0  0  0  0  1  0  0  0  0  0  0
  186.2560  172.4400  135.8530 C   0  0  2  0  0  3  0  0  0  0  0  0
  186.3230  173.5380  134.9940 O   0  0  0  0  0  1  0  0  0  0  0  0
  1 14  1  1  0  0  0
  1  6  1  0  0  0  0
  3  9  1  0  0  0  0
  3 17  1  1  0  0  0
  6  4  1  1  0  0  0
  7  4  1  1  0  0  0
  7  3  1  0  0  0  0
  8 10  1  6  0  0  0
  8  7  1  0  0  0  0
  9  5  2  0  0  0  0
 10 15  2  0  0  0  0
 11  2  1  6  0  0  0
 11 13  1  0  0  0  0
 11  6  1  0  0  0  0
 12  2  1  1  0  0  0
 12 14  1  0  0  0  0
 12  1  1  0  0  0  0
 13 22  1  0  0  0  0
 13  8  1  0  0  0  0
 15  9  1  0  0  0  0
 16 20  1  0  0  0  0
 17 19  1  0  0  0  0
 19 18  2  0  0  0  0
 19 16  1  0  0  0  0
 21 23  2  0  0  0  0
 23 24  1  0  0  0  0
 23 22  1  0  0  0  0
 25 26  1  1  0  0  0
 25 24  1  0  0  0  0
 28 25  1  0  0  0  0
 28 27  1  1  0  0  0
 29 28  1  0  0  0  0
M  END
>  <MODEL>
8

>  <REMARK>
 VINA RESULT:      -5.5      2.742      7.463
  Name = 
  5 active torsions:
  status: ('A' for Active; 'I' for Inactive)
    1  A    between atoms: C_5  and  N_19
    2  A    between atoms: C_7  and  C_9
    3  A    between atoms: C_9  and  C_14
    4  A    between atoms: N_11  and  N_26
    5  A    between atoms: C_14  and  C_20
                            x       y       z     vdW  Elec       q    Type
                         _______ _______ _______ _____ _____    ______ ____

>  <TORSDO>
F 5

$$$$
=
 OpenBabel11062416333D

 29 32  0  0  1  0  0  0  0  0999 V2000
  183.8240  178.2570  141.7760 C   0  0  2  0  0  3  0  0  0  0  0  0
  185.8590  179.5730  141.7390 C   0  0  0  0  0  2  0  0  0  0  0  0
  184.2210  176.8890  137.0270 C   0  0  1  0  0  3  0  0  0  0  0  0
  183.8020  177.6660  139.4520 C   0  0  0  0  0  2  0  0  0  0  0  0
  184.6180  176.8710  134.6680 O   0  0  0  0  0  0  0  0  0  0  0  0
  184.6400  177.8620  140.6340 N   0  0  1  0  0  0  0  0  0  0  0  0
  184.6170  177.8530  138.1540 C   0  0  1  0  0  3  0  0  0  0  0  0
  186.1520  177.8140  138.3890 C   0  0  1  0  0  3  0  0  0  0  0  0
  185.0490  177.1910  135.8060 C   0  0  0  0  0  0  0  0  0  0  0  0
  186.8790  178.1620  137.1220 C   0  0  0  0  0  3  0  0  0  0  0  0
  185.4990  179.0070  140.3890 C   0  0  2  0  0  3  0  0  0  0  0  0
  184.6010  179.3200  142.5540 C   0  0  2  0  0  3  0  0  0  0  0  0
  186.6320  178.6320  139.5280 N   0  0  0  0  0  0  0  0  0  0  0  0
  184.5470  177.8910  143.0590 C   0  0  0  0  0  2  0  0  0  0  0  0
  186.3710  177.8400  135.9270 C   0  0  0  0  0  3  0  0  0  0  0  0
  183.8600  173.1120  137.4870 N   0  0  0  0  0  2  0  0  0  0  0  0
  184.4480  175.5030  137.4250 N   0  0  0  0  0  2  0  0  0  0  0  0
  182.6820  174.6350  136.1690 O   0  0  0  0  0  0  0  0  0  0  0  0
  183.6170  174.4270  136.9890 C   0  0  0  0  0  0  0  0  0  0  0  0
  183.0490  171.9750  137.0860 C   0  0  0  0  0  1  0  0  0  0  0  0
  189.4440  178.7120  139.3620 O   0  0  0  0  0  0  0  0  0  0  0  0
  187.4940  177.8100  140.2760 N   0  0  0  0  0  2  0  0  0  0  0  0
  188.9130  177.8650  140.1290 C   0  0  0  0  0  0  0  0  0  0  0  0
  189.7710  176.9120  140.8930 C   0  0  0  0  0  2  0  0  0  0  0  0
  189.9780  177.3310  142.3540 C   0  0  2  0  0  3  0  0  0  0  0  0
  191.0750  176.7020  142.9190 F   0  0  0  0  0  0  0  0  0  0  0  0
  188.9730  177.6830  144.6600 C   0  0  0  0  0  1  0  0  0  0  0  0
  188.7350  177.2020  143.2410 C   0  0  2  0  0  3  0  0  0  0  0  0
  188.2670  175.8870  143.2520 O   0  0  0  0  0  1  0  0  0  0  0  0
  1 12  1  0  0  0  0
  1 14  1  1  0  0  0
  3 17  1  1  0  0  0
  3  7  1  0  0  0  0
  5  9  2  0  0  0  0
  6  4  1  6  0  0  0
  6  1  1  0  0  0  0
  7  8  1  0  0  0  0
  7  4  1  1  0  0  0
  8 10  1  6  0  0  0
  8 13  1  0  0  0  0
  9 15  1  0  0  0  0
  9  3  1  0  0  0  0
 11  6  1  0  0  0  0
 11  2  1  1  0  0  0
 12  2  1  6  0  0  0
 12 14  1  0  0  0  0
 13 22  1  0  0  0  0
 13 11  1  0  0  0  0
 15 10  2  0  0  0  0
 18 19  2  0  0  0  0
 19 17  1  0  0  0  0
 19 16  1  0  0  0  0
 20 16  1  0  0  0  0
 21 23  2  0  0  0  0
 23 22  1  0  0  0  0
 23 24  1  0  0  0  0
 24 25  1  0  0  0  0
 25 26  1  1  0  0  0
 25 28  1  0  0  0  0
 28 29  1  0  0  0  0
 28 27  1  1  0  0  0
M  END
>  <MODEL>
9

>  <REMARK>
 VINA RESULT:      -5.4      2.633      3.663
  Name = 
  5 active torsions:
  status: ('A' for Active; 'I' for Inactive)
    1  A    between atoms: C_5  and  N_19
    2  A    between atoms: C_7  and  C_9
    3  A    between atoms: C_9  and  C_14
    4  A    between atoms: N_11  and  N_26
    5  A    between atoms: C_14  and  C_20
                            x       y       z     vdW  Elec       q    Type
                         _______ _______ _______ _____ _____    ______ ____

>  <TORSDO>
F 5

$$$$
