=
 OpenBabel11062417423D

 39 43  0  0  1  0  0  0  0  0999 V2000
  188.6670  177.4480  139.6250 C   0  0  0  0  0  0  0  0  0  0  0  0
  185.8520  175.2650  135.0170 N   0  0  0  0  0  2  0  0  0  0  0  0
  184.4160  177.7420  138.3810 C   0  0  0  0  0  0  0  0  0  0  0  0
  188.0170  176.0170  135.4980 N   0  0  0  0  0  2  0  0  0  0  0  0
  187.2500  177.7310  137.7290 C   0  0  2  0  0  0  0  0  0  0  0  0
  186.7680  176.0000  135.8340 C   0  0  0  0  0  0  0  0  0  0  0  0
  184.9290  176.8730  137.2660 C   0  0  0  0  0  0  0  0  0  0  0  0
  186.6740  178.2530  138.9690 N   0  0  0  0  0  0  0  0  0  0  0  0
  187.5960  178.9200  136.8370 C   0  0  0  0  0  1  0  0  0  0  0  0
  185.2740  178.3620  139.2020 C   0  0  0  0  0  0  0  0  0  0  0  0
  182.6490  178.2240  140.0010 O   0  0  0  0  0  0  0  0  0  0  0  0
  183.6620  174.6120  134.5960 O   0  0  0  0  0  0  0  0  0  0  0  0
  186.2680  176.8240  136.9860 C   0  0  0  0  0  0  0  0  0  0  0  0
  184.4640  175.2680  135.3170 C   0  0  0  0  0  0  0  0  0  0  0  0
  182.9310  177.9300  138.6240 C   0  0  1  0  0  3  0  0  0  0  0  0
  188.5270  176.9770  138.2160 C   0  0  1  0  0  3  0  0  0  0  0  0
  183.5550  178.9050  140.7890 N   0  0  0  0  0  0  0  0  0  0  0  0
  183.9790  176.0280  136.4740 C   0  0  0  0  0  0  0  0  0  0  0  0
  187.5550  178.1530  140.0080 O   0  0  0  0  0  0  0  0  0  0  0  0
  184.7980  179.0160  140.4310 C   0  0  0  0  0  3  0  0  0  0  0  0
  182.7660  175.9280  136.7960 O   0  0  0  0  0  0  0  0  0  0  0  0
  189.6860  177.1780  140.4330 C   0  0  0  0  0  3  0  0  0  0  0  0
  189.6670  177.3220  137.4870 O   0  0  0  0  0  1  0  0  0  0  0  0
  181.2190  178.4120  136.8450 C   0  0  0  0  0  2  0  0  0  0  0  0
  182.3480  178.9980  137.6880 C   0  0  1  0  0  3  0  0  0  0  0  0
  179.7400  181.5860  135.6740 O   0  0  0  0  0  1  0  0  0  0  0  0
  180.7480  179.4280  135.7950 C   0  0  0  0  0  2  0  0  0  0  0  0
  180.7930  180.8930  136.2680 C   0  0  2  0  0  3  0  0  0  0  0  0
  181.9200  180.2820  138.4340 C   0  0  0  0  0  2  0  0  0  0  0  0
  180.7060  180.9750  137.7990 C   0  0  1  0  0  3  0  0  0  0  0  0
  181.7530  183.1310  137.9680 O   0  0  0  0  0  1  0  0  0  0  0  0
  180.6150  182.4000  138.3310 C   0  0  0  0  0  2  0  0  0  0  0  0
  192.2610  177.5020  141.7010 O   0  0  0  0  0  0  0  0  0  0  0  0
  191.1010  177.9250  142.3500 C   0  0  0  0  0  0  0  0  0  0  0  0
  191.1900  178.4200  143.5050 O   0  0  0  0  0  1  0  0  0  0  0  0
  189.8160  177.7670  141.7340 N   0  0  0  0  0  0  0  0  0  0  0  0
  188.6170  177.9530  142.5300 C   0  0  0  0  0  2  0  0  0  0  0  0
  188.3210  176.7290  143.3240 C   0  0  0  0  0  3  0  0  0  0  0  0
  188.3930  176.7460  144.5340 O   0  0  0  0  0  0  0  0  0  0  0  0
  1 19  1  0  0  0  0
  1 22  2  0  0  0  0
  2 14  1  0  0  0  0
  2  6  1  0  0  0  0
  3 10  2  0  0  0  0
  4  6  2  0  0  0  0
  5  9  1  6  0  0  0
  5 16  1  0  0  0  0
  5  8  1  0  0  0  0
  6 13  1  0  0  0  0
  7  3  1  0  0  0  0
  8 10  1  0  0  0  0
  8 19  1  0  0  0  0
 10 20  1  0  0  0  0
 11 17  1  0  0  0  0
 12 14  2  0  0  0  0
 13  7  2  0  0  0  0
 13  5  1  0  0  0  0
 14 18  1  0  0  0  0
 15  3  1  1  0  0  0
 15 11  1  0  0  0  0
 16 23  1  6  0  0  0
 16  1  1  0  0  0  0
 18 21  2  0  0  0  0
 18  7  1  0  0  0  0
 20 17  2  0  0  0  0
 22 36  1  0  0  0  0
 25 24  1  1  0  0  0
 25 29  1  0  0  0  0
 25 15  1  0  0  0  0
 27 28  1  0  0  0  0
 27 24  1  0  0  0  0
 28 26  1  6  0  0  0
 28 30  1  0  0  0  0
 30 32  1  6  0  0  0
 30 29  1  0  0  0  0
 31 32  1  0  0  0  0
 33 34  2  0  0  0  0
 34 35  1  0  0  0  0
 36 34  1  0  0  0  0
 36 37  1  0  0  0  0
 37 38  1  0  0  0  0
 38 39  2  0  0  0  0
M  END
>  <MODEL>
1

>  <REMARK>
 VINA RESULT:      -7.2      0.000      0.000
  Name = 
  5 active torsions:
  status: ('A' for Active; 'I' for Inactive)
    1  A    between atoms: C_8  and  C_25
    2  A    between atoms: C_17  and  C_18
    3  A    between atoms: C_17  and  N_39
    4  A    between atoms: C_19  and  C_37
    5  A    between atoms: C_34  and  N_39
                            x       y       z     vdW  Elec       q    Type
                         _______ _______ _______ _____ _____    ______ ____

>  <TORSDO>
F 5

$$$$
=
 OpenBabel11062417423D

 39 43  0  0  1  0  0  0  0  0999 V2000
  181.8610  178.2590  138.1370 C   0  0  0  0  0  0  0  0  0  0  0  0
  186.9450  177.2280  135.4900 N   0  0  0  0  0  2  0  0  0  0  0  0
  186.0360  178.4770  139.6290 C   0  0  0  0  0  0  0  0  0  0  0  0
  184.7470  176.4360  135.3360 N   0  0  0  0  0  2  0  0  0  0  0  0
  183.9760  177.1620  138.0530 C   0  0  2  0  0  0  0  0  0  0  0  0
  185.6340  177.0630  136.0370 C   0  0  0  0  0  0  0  0  0  0  0  0
  186.3140  178.0830  138.2040 C   0  0  0  0  0  0  0  0  0  0  0  0
  183.7450  177.8850  139.3040 N   0  0  0  0  0  0  0  0  0  0  0  0
  183.9410  175.6680  138.3620 C   0  0  0  0  0  1  0  0  0  0  0  0
  184.7910  178.4050  140.1180 C   0  0  0  0  0  0  0  0  0  0  0  0
  186.6250  179.8560  141.5610 O   0  0  0  0  0  0  0  0  0  0  0  0
  189.1180  178.0090  135.7590 O   0  0  0  0  0  0  0  0  0  0  0  0
  185.3340  177.5090  137.4400 C   0  0  0  0  0  0  0  0  0  0  0  0
  187.9650  177.8600  136.2510 C   0  0  0  0  0  0  0  0  0  0  0  0
  187.1360  178.9800  140.5440 C   0  0  1  0  0  3  0  0  0  0  0  0
  182.7740  177.6000  137.1580 C   0  0  1  0  0  3  0  0  0  0  0  0
  185.3450  179.7080  142.0580 N   0  0  0  0  0  0  0  0  0  0  0  0
  187.6600  178.3450  137.6010 C   0  0  0  0  0  0  0  0  0  0  0  0
  182.4890  178.4200  139.3470 O   0  0  0  0  0  0  0  0  0  0  0  0
  184.4590  179.0070  141.4190 C   0  0  0  0  0  3  0  0  0  0  0  0
  188.5380  179.0050  138.2170 O   0  0  0  0  0  0  0  0  0  0  0  0
  180.6340  178.6950  137.8780 C   0  0  0  0  0  3  0  0  0  0  0  0
  182.1260  176.5170  136.5610 O   0  0  0  0  0  1  0  0  0  0  0  0
  189.3880  177.8700  140.7090 C   0  0  0  0  0  2  0  0  0  0  0  0
  187.9280  177.8130  141.1500 C   0  0  1  0  0  3  0  0  0  0  0  0
  190.7790  175.5260  143.1990 O   0  0  0  0  0  1  0  0  0  0  0  0
  190.1410  176.6170  141.1770 C   0  0  0  0  0  2  0  0  0  0  0  0
  189.6790  176.0750  142.5420 C   0  0  2  0  0  3  0  0  0  0  0  0
  187.7810  177.7210  142.6860 C   0  0  0  0  0  2  0  0  0  0  0  0
  189.0400  177.1880  143.3840 C   0  0  1  0  0  3  0  0  0  0  0  0
  188.7890  177.8320  145.6850 O   0  0  0  0  0  1  0  0  0  0  0  0
  188.6760  176.7530  144.7980 C   0  0  0  0  0  2  0  0  0  0  0  0
  180.8810  181.3960  138.8720 O   0  0  0  0  0  0  0  0  0  0  0  0
  179.8970  180.5480  139.3800 C   0  0  0  0  0  0  0  0  0  0  0  0
  179.1400  180.9680  140.2960 O   0  0  0  0  0  1  0  0  0  0  0  0
  179.7640  179.2050  138.8990 N   0  0  0  0  0  0  0  0  0  0  0  0
  178.9310  178.2660  139.6260 C   0  0  0  0  0  2  0  0  0  0  0  0
  179.5960  177.8460  140.8910 C   0  0  0  0  0  3  0  0  0  0  0  0
  178.9810  177.8280  141.9350 O   0  0  0  0  0  0  0  0  0  0  0  0
  1 19  1  0  0  0  0
  2  6  1  0  0  0  0
  2 14  1  0  0  0  0
  3 10  2  0  0  0  0
  4  6  2  0  0  0  0
  5  9  1  1  0  0  0
  5  8  1  0  0  0  0
  6 13  1  0  0  0  0
  7  3  1  0  0  0  0
  8 19  1  0  0  0  0
  8 10  1  0  0  0  0
 10 20  1  0  0  0  0
 11 17  1  0  0  0  0
 12 14  2  0  0  0  0
 13  5  1  0  0  0  0
 13  7  2  0  0  0  0
 14 18  1  0  0  0  0
 15  3  1  1  0  0  0
 15 25  1  0  0  0  0
 15 11  1  0  0  0  0
 16 23  1  1  0  0  0
 16  5  1  0  0  0  0
 16  1  1  0  0  0  0
 18  7  1  0  0  0  0
 18 21  2  0  0  0  0
 20 17  2  0  0  0  0
 22  1  2  0  0  0  0
 22 36  1  0  0  0  0
 24 27  1  0  0  0  0
 25 24  1  1  0  0  0
 25 29  1  0  0  0  0
 27 28  1  0  0  0  0
 28 26  1  1  0  0  0
 28 30  1  0  0  0  0
 29 30  1  0  0  0  0
 30 32  1  1  0  0  0
 32 31  1  0  0  0  0
 33 34  2  0  0  0  0
 34 35  1  0  0  0  0
 36 34  1  0  0  0  0
 36 37  1  0  0  0  0
 37 38  1  0  0  0  0
 38 39  2  0  0  0  0
M  END
>  <MODEL>
2

>  <REMARK>
 VINA RESULT:      -6.9      2.047      7.878
  Name = 
  5 active torsions:
  status: ('A' for Active; 'I' for Inactive)
    1  A    between atoms: C_8  and  C_25
    2  A    between atoms: C_17  and  C_18
    3  A    between atoms: C_17  and  N_39
    4  A    between atoms: C_19  and  C_37
    5  A    between atoms: C_34  and  N_39
                            x       y       z     vdW  Elec       q    Type
                         _______ _______ _______ _____ _____    ______ ____

>  <TORSDO>
F 5

$$$$
=
 OpenBabel11062417423D

 39 43  0  0  1  0  0  0  0  0999 V2000
  185.9970  175.9260  136.7200 C   0  0  0  0  0  0  0  0  0  0  0  0
  180.5360  173.9930  137.3270 N   0  0  0  0  0  2  0  0  0  0  0  0
  182.6940  177.2630  139.3680 C   0  0  0  0  0  0  0  0  0  0  0  0
  182.1160  174.1390  135.6040 N   0  0  0  0  0  2  0  0  0  0  0  0
  183.6470  176.3210  136.7870 C   0  0  2  0  0  0  0  0  0  0  0  0
  181.7360  174.5410  136.7730 C   0  0  0  0  0  0  0  0  0  0  0  0
  181.9970  176.1220  138.6780 C   0  0  0  0  0  0  0  0  0  0  0  0
  184.4050  177.1710  137.7050 N   0  0  0  0  0  0  0  0  0  0  0  0
  183.1100  177.2060  135.6650 C   0  0  0  0  0  1  0  0  0  0  0  0
  183.8620  177.7210  138.9000 C   0  0  0  0  0  0  0  0  0  0  0  0
  183.1400  178.4830  141.4390 O   0  0  0  0  0  0  0  0  0  0  0  0
  178.9970  173.9550  139.0680 O   0  0  0  0  0  0  0  0  0  0  0  0
  182.4690  175.6400  137.4870 C   0  0  0  0  0  0  0  0  0  0  0  0
  180.0530  174.4480  138.5820 C   0  0  0  0  0  0  0  0  0  0  0  0
  182.1150  177.9130  140.6100 C   0  0  1  0  0  3  0  0  0  0  0  0
  184.7150  175.3090  136.2680 C   0  0  1  0  0  3  0  0  0  0  0  0
  184.3090  178.9790  140.8970 N   0  0  0  0  0  0  0  0  0  0  0  0
  180.7960  175.4840  139.3070 C   0  0  0  0  0  0  0  0  0  0  0  0
  185.7510  176.9760  137.5680 O   0  0  0  0  0  0  0  0  0  0  0  0
  184.6690  178.6640  139.6900 C   0  0  0  0  0  3  0  0  0  0  0  0
  180.4220  175.7950  140.4680 O   0  0  0  0  0  0  0  0  0  0  0  0
  187.2140  175.4950  136.4120 C   0  0  0  0  0  3  0  0  0  0  0  0
  184.7130  175.1890  134.8770 O   0  0  0  0  0  1  0  0  0  0  0  0
  180.6600  179.7770  141.4680 C   0  0  0  0  0  2  0  0  0  0  0  0
  181.0450  178.9490  140.2440 C   0  0  1  0  0  3  0  0  0  0  0  0
  178.9310  182.5290  139.7160 O   0  0  0  0  0  1  0  0  0  0  0  0
  179.4760  180.6990  141.1440 C   0  0  0  0  0  2  0  0  0  0  0  0
  179.4750  181.2460  139.7050 C   0  0  2  0  0  3  0  0  0  0  0  0
  181.4490  179.8310  139.0410 C   0  0  0  0  0  2  0  0  0  0  0  0
  180.8970  181.2620  139.1270 C   0  0  1  0  0  3  0  0  0  0  0  0
  180.9090  180.9410  136.7450 O   0  0  0  0  0  1  0  0  0  0  0  0
  180.9920  181.9120  137.7520 C   0  0  0  0  0  2  0  0  0  0  0  0
  188.3080  177.5770  134.7350 O   0  0  0  0  0  0  0  0  0  0  0  0
  188.9320  177.2430  135.9370 C   0  0  0  0  0  0  0  0  0  0  0  0
  189.9910  177.8410  136.2640 O   0  0  0  0  0  1  0  0  0  0  0  0
  188.4020  176.2100  136.7780 N   0  0  0  0  0  0  0  0  0  0  0  0
  189.2090  175.6950  137.8680 C   0  0  0  0  0  2  0  0  0  0  0  0
  190.2180  174.7250  137.3600 C   0  0  0  0  0  3  0  0  0  0  0  0
  191.2650  174.5600  137.9470 O   0  0  0  0  0  0  0  0  0  0  0  0
  1 19  1  0  0  0  0
  2 14  1  0  0  0  0
  4  6  2  0  0  0  0
  5  9  1  6  0  0  0
  5 13  1  0  0  0  0
  5  8  1  0  0  0  0
  6  2  1  0  0  0  0
  6 13  1  0  0  0  0
  7 18  1  0  0  0  0
  7  3  1  0  0  0  0
  8 10  1  0  0  0  0
 10  3  2  0  0  0  0
 10 20  1  0  0  0  0
 13  7  2  0  0  0  0
 14 12  2  0  0  0  0
 14 18  1  0  0  0  0
 15  3  1  6  0  0  0
 15 11  1  0  0  0  0
 16 23  1  6  0  0  0
 16  1  1  0  0  0  0
 16  5  1  0  0  0  0
 17 11  1  0  0  0  0
 18 21  2  0  0  0  0
 19  8  1  0  0  0  0
 20 17  2  0  0  0  0
 22  1  2  0  0  0  0
 22 36  1  0  0  0  0
 25 29  1  6  0  0  0
 25 15  1  0  0  0  0
 25 24  1  0  0  0  0
 27 24  1  0  0  0  0
 28 26  1  1  0  0  0
 28 27  1  0  0  0  0
 29 30  1  0  0  0  0
 30 32  1  6  0  0  0
 30 28  1  0  0  0  0
 31 32  1  0  0  0  0
 33 34  2  0  0  0  0
 34 35  1  0  0  0  0
 34 36  1  0  0  0  0
 36 37  1  0  0  0  0
 38 37  1  0  0  0  0
 38 39  2  0  0  0  0
M  END
>  <MODEL>
3

>  <REMARK>
 VINA RESULT:      -6.6      2.951      4.639
  Name = 
  5 active torsions:
  status: ('A' for Active; 'I' for Inactive)
    1  A    between atoms: C_8  and  C_25
    2  A    between atoms: C_17  and  C_18
    3  A    between atoms: C_17  and  N_39
    4  A    between atoms: C_19  and  C_37
    5  A    between atoms: C_34  and  N_39
                            x       y       z     vdW  Elec       q    Type
                         _______ _______ _______ _____ _____    ______ ____

>  <TORSDO>
F 5

$$$$
=
 OpenBabel11062417423D

 39 43  0  0  1  0  0  0  0  0999 V2000
  182.6900  176.4840  135.6160 C   0  0  0  0  0  0  0  0  0  0  0  0
  188.5000  176.2020  135.9250 N   0  0  0  0  0  2  0  0  0  0  0  0
  185.5340  177.9440  138.6960 C   0  0  0  0  0  0  0  0  0  0  0  0
  186.7710  174.9020  135.0250 N   0  0  0  0  0  2  0  0  0  0  0  0
  184.6840  175.9160  136.7930 C   0  0  2  0  0  0  0  0  0  0  0  0
  187.1180  175.8380  135.8480 C   0  0  0  0  0  0  0  0  0  0  0  0
  186.5200  177.3700  137.7170 C   0  0  0  0  0  0  0  0  0  0  0  0
  183.7860  176.7830  137.5550 N   0  0  0  0  0  0  0  0  0  0  0  0
  184.6760  174.5390  137.4490 C   0  0  0  0  0  1  0  0  0  0  0  0
  184.2270  177.6740  138.5740 C   0  0  0  0  0  0  0  0  0  0  0  0
  184.9310  179.7540  140.2260 O   0  0  0  0  0  0  0  0  0  0  0  0
  190.1510  177.5050  136.9130 O   0  0  0  0  0  0  0  0  0  0  0  0
  186.1170  176.4520  136.7850 C   0  0  0  0  0  0  0  0  0  0  0  0
  188.9310  177.1840  136.8550 C   0  0  0  0  0  0  0  0  0  0  0  0
  185.9740  178.8500  139.8300 C   0  0  1  0  0  3  0  0  0  0  0  0
  184.0370  175.8880  135.3730 C   0  0  1  0  0  3  0  0  0  0  0  0
  183.5990  179.4050  140.1160 N   0  0  0  0  0  0  0  0  0  0  0  0
  187.9480  177.8240  137.7340 C   0  0  0  0  0  0  0  0  0  0  0  0
  182.6180  177.0070  136.8820 O   0  0  0  0  0  0  0  0  0  0  0  0
  183.2310  178.4100  139.3680 C   0  0  0  0  0  3  0  0  0  0  0  0
  188.3250  178.7730  138.4720 O   0  0  0  0  0  0  0  0  0  0  0  0
  181.7090  176.5650  134.7260 C   0  0  0  0  0  3  0  0  0  0  0  0
  183.8970  174.5930  134.8700 O   0  0  0  0  0  1  0  0  0  0  0  0
  187.9830  178.2920  141.2380 C   0  0  0  0  0  2  0  0  0  0  0  0
  186.4950  178.0330  141.0200 C   0  0  1  0  0  3  0  0  0  0  0  0
  188.2680  176.8880  144.6400 O   0  0  0  0  0  1  0  0  0  0  0  0
  188.5410  177.3550  142.3180 C   0  0  0  0  0  2  0  0  0  0  0  0
  187.5510  177.0410  143.4550 C   0  0  2  0  0  3  0  0  0  0  0  0
  185.6660  178.2510  142.3070 C   0  0  0  0  0  2  0  0  0  0  0  0
  186.5040  178.1550  143.5900 C   0  0  1  0  0  3  0  0  0  0  0  0
  185.8640  178.9110  145.7800 O   0  0  0  0  0  1  0  0  0  0  0  0
  185.5690  177.9750  144.7800 C   0  0  0  0  0  2  0  0  0  0  0  0
  181.1370  179.3820  135.0210 O   0  0  0  0  0  0  0  0  0  0  0  0
  180.1270  178.4370  135.2050 C   0  0  0  0  0  0  0  0  0  0  0  0
  178.9740  178.8290  135.5290 O   0  0  0  0  0  1  0  0  0  0  0  0
  180.3970  177.0360  135.0650 N   0  0  0  0  0  0  0  0  0  0  0  0
  179.4160  176.0730  135.5280 C   0  0  0  0  0  2  0  0  0  0  0  0
  179.4120  176.0030  137.0150 C   0  0  0  0  0  3  0  0  0  0  0  0
  179.9960  175.1120  137.5930 O   0  0  0  0  0  0  0  0  0  0  0  0
  1 19  1  0  0  0  0
  2 14  1  0  0  0  0
  4  6  2  0  0  0  0
  5  9  1  1  0  0  0
  5  8  1  0  0  0  0
  6  2  1  0  0  0  0
  6 13  1  0  0  0  0
  7 18  1  0  0  0  0
  7  3  1  0  0  0  0
  8 10  1  0  0  0  0
 10  3  2  0  0  0  0
 10 20  1  0  0  0  0
 13  5  1  0  0  0  0
 13  7  2  0  0  0  0
 14 12  2  0  0  0  0
 14 18  1  0  0  0  0
 15  3  1  6  0  0  0
 15 11  1  0  0  0  0
 15 25  1  0  0  0  0
 16 23  1  1  0  0  0
 16  1  1  0  0  0  0
 16  5  1  0  0  0  0
 17 11  1  0  0  0  0
 18 21  2  0  0  0  0
 19  8  1  0  0  0  0
 20 17  2  0  0  0  0
 22 36  1  0  0  0  0
 22  1  2  0  0  0  0
 24 27  1  0  0  0  0
 25 24  1  1  0  0  0
 25 29  1  0  0  0  0
 27 28  1  0  0  0  0
 28 30  1  0  0  0  0
 28 26  1  1  0  0  0
 29 30  1  0  0  0  0
 30 32  1  1  0  0  0
 32 31  1  0  0  0  0
 33 34  2  0  0  0  0
 34 35  1  0  0  0  0
 36 34  1  0  0  0  0
 36 37  1  0  0  0  0
 37 38  1  0  0  0  0
 38 39  2  0  0  0  0
M  END
>  <MODEL>
4

>  <REMARK>
 VINA RESULT:      -6.3      2.373      7.758
  Name = 
  5 active torsions:
  status: ('A' for Active; 'I' for Inactive)
    1  A    between atoms: C_8  and  C_25
    2  A    between atoms: C_17  and  C_18
    3  A    between atoms: C_17  and  N_39
    4  A    between atoms: C_19  and  C_37
    5  A    between atoms: C_34  and  N_39
                            x       y       z     vdW  Elec       q    Type
                         _______ _______ _______ _____ _____    ______ ____

>  <TORSDO>
F 5

$$$$
=
 OpenBabel11062417423D

 39 43  0  0  1  0  0  0  0  0999 V2000
  187.0600  175.8480  137.1030 C   0  0  0  0  0  0  0  0  0  0  0  0
  181.7380  173.4820  137.0330 N   0  0  0  0  0  2  0  0  0  0  0  0
  183.1780  177.3220  138.6740 C   0  0  0  0  0  0  0  0  0  0  0  0
  183.6420  173.4470  135.6690 N   0  0  0  0  0  2  0  0  0  0  0  0
  184.7310  175.9830  136.6120 C   0  0  2  0  0  0  0  0  0  0  0  0
  182.9910  174.0350  136.6200 C   0  0  0  0  0  0  0  0  0  0  0  0
  182.7250  175.9930  138.1340 C   0  0  0  0  0  0  0  0  0  0  0  0
  185.2130  177.0820  137.4470 N   0  0  0  0  0  0  0  0  0  0  0  0
  184.3940  176.5530  135.2370 C   0  0  0  0  0  1  0  0  0  0  0  0
  184.3880  177.8020  138.3570 C   0  0  0  0  0  0  0  0  0  0  0  0
  183.0810  178.9840  140.4650 O   0  0  0  0  0  0  0  0  0  0  0  0
  179.8630  173.6300  138.3980 O   0  0  0  0  0  0  0  0  0  0  0  0
  183.4770  175.3330  137.1990 C   0  0  0  0  0  0  0  0  0  0  0  0
  180.9640  174.1280  138.0320 C   0  0  0  0  0  0  0  0  0  0  0  0
  182.3010  178.1450  139.5990 C   0  0  1  0  0  3  0  0  0  0  0  0
  185.9510  175.0110  136.5560 C   0  0  1  0  0  3  0  0  0  0  0  0
  184.3050  179.4850  140.0680 N   0  0  0  0  0  0  0  0  0  0  0  0
  181.4620  175.3670  138.6390 C   0  0  0  0  0  0  0  0  0  0  0  0
  186.5660  177.0160  137.6270 O   0  0  0  0  0  0  0  0  0  0  0  0
  184.9390  178.9720  139.0590 C   0  0  0  0  0  3  0  0  0  0  0  0
  180.8230  175.8660  139.6030 O   0  0  0  0  0  0  0  0  0  0  0  0
  188.3400  175.5010  137.1470 C   0  0  0  0  0  3  0  0  0  0  0  0
  186.2600  174.6090  135.2560 O   0  0  0  0  0  1  0  0  0  0  0  0
  181.2420  180.4050  139.2880 C   0  0  0  0  0  2  0  0  0  0  0  0
  181.2700  178.9570  138.8050 C   0  0  1  0  0  3  0  0  0  0  0  0
  179.4100  181.8720  136.4380 O   0  0  0  0  0  1  0  0  0  0  0  0
  180.1000  181.1760  138.6110 C   0  0  0  0  0  2  0  0  0  0  0  0
  179.8250  180.7530  137.1570 C   0  0  2  0  0  3  0  0  0  0  0  0
  181.4700  178.8510  137.2760 C   0  0  0  0  0  2  0  0  0  0  0  0
  181.0780  180.1310  136.5240 C   0  0  1  0  0  3  0  0  0  0  0  0
  181.5230  178.5780  134.7450 O   0  0  0  0  0  1  0  0  0  0  0  0
  180.9190  179.8070  135.0440 C   0  0  0  0  0  2  0  0  0  0  0  0
  190.9460  174.5580  137.9650 O   0  0  0  0  0  0  0  0  0  0  0  0
  190.6590  175.9230  137.9710 C   0  0  0  0  0  0  0  0  0  0  0  0
  191.5410  176.7320  138.3660 O   0  0  0  0  0  1  0  0  0  0  0  0
  189.3700  176.4060  137.5710 N   0  0  0  0  0  0  0  0  0  0  0  0
  189.0080  177.7830  137.8480 C   0  0  0  0  0  2  0  0  0  0  0  0
  189.1340  178.0750  139.3030 C   0  0  0  0  0  3  0  0  0  0  0  0
  188.2390  178.6310  139.9010 O   0  0  0  0  0  0  0  0  0  0  0  0
  1 22  2  0  0  0  0
  1 19  1  0  0  0  0
  2 14  1  0  0  0  0
  4  6  2  0  0  0  0
  5  9  1  6  0  0  0
  5 13  1  0  0  0  0
  5  8  1  0  0  0  0
  6  2  1  0  0  0  0
  6 13  1  0  0  0  0
  7 18  1  0  0  0  0
  7  3  1  0  0  0  0
  8 19  1  0  0  0  0
  8 10  1  0  0  0  0
 10  3  2  0  0  0  0
 10 20  1  0  0  0  0
 13  7  2  0  0  0  0
 14 12  2  0  0  0  0
 14 18  1  0  0  0  0
 15  3  1  6  0  0  0
 15 11  1  0  0  0  0
 16 23  1  6  0  0  0
 16  5  1  0  0  0  0
 16  1  1  0  0  0  0
 17 11  1  0  0  0  0
 18 21  2  0  0  0  0
 20 17  2  0  0  0  0
 22 36  1  0  0  0  0
 25 29  1  6  0  0  0
 25 24  1  0  0  0  0
 25 15  1  0  0  0  0
 27 24  1  0  0  0  0
 28 26  1  6  0  0  0
 28 27  1  0  0  0  0
 30 32  1  6  0  0  0
 30 28  1  0  0  0  0
 30 29  1  0  0  0  0
 31 32  1  0  0  0  0
 33 34  2  0  0  0  0
 34 35  1  0  0  0  0
 36 37  1  0  0  0  0
 36 34  1  0  0  0  0
 37 38  1  0  0  0  0
 38 39  2  0  0  0  0
M  END
>  <MODEL>
5

>  <REMARK>
 VINA RESULT:      -6.1      2.301      3.647
  Name = 
  5 active torsions:
  status: ('A' for Active; 'I' for Inactive)
    1  A    between atoms: C_8  and  C_25
    2  A    between atoms: C_17  and  C_18
    3  A    between atoms: C_17  and  N_39
    4  A    between atoms: C_19  and  C_37
    5  A    between atoms: C_34  and  N_39
                            x       y       z     vdW  Elec       q    Type
                         _______ _______ _______ _____ _____    ______ ____

>  <TORSDO>
F 5

$$$$
=
 OpenBabel11062417423D

 39 43  0  0  1  0  0  0  0  0999 V2000
  188.4310  177.5000  139.3660 C   0  0  0  0  0  0  0  0  0  0  0  0
  184.4560  175.9060  135.4190 N   0  0  0  0  0  2  0  0  0  0  0  0
  184.0220  178.0110  139.2780 C   0  0  0  0  0  0  0  0  0  0  0  0
  186.7050  176.5580  135.4120 N   0  0  0  0  0  2  0  0  0  0  0  0
  186.6000  178.0220  137.9320 C   0  0  2  0  0  0  0  0  0  0  0  0
  185.5800  176.5260  136.0490 C   0  0  0  0  0  0  0  0  0  0  0  0
  184.2000  177.2640  137.9850 C   0  0  0  0  0  0  0  0  0  0  0  0
  186.3770  178.4110  139.3240 N   0  0  0  0  0  0  0  0  0  0  0  0
  186.7660  179.2980  137.1110 C   0  0  0  0  0  1  0  0  0  0  0  0
  185.0860  178.5180  139.9150 C   0  0  0  0  0  0  0  0  0  0  0  0
  182.7400  178.3380  141.3350 O   0  0  0  0  0  0  0  0  0  0  0  0
  182.2030  175.3430  135.5010 O   0  0  0  0  0  0  0  0  0  0  0  0
  185.4230  177.2230  137.3700 C   0  0  0  0  0  0  0  0  0  0  0  0
  183.1890  175.8990  136.0600 C   0  0  0  0  0  0  0  0  0  0  0  0
  182.6550  178.1970  139.9080 C   0  0  1  0  0  3  0  0  0  0  0  0
  187.9220  177.1950  137.9970 C   0  0  1  0  0  3  0  0  0  0  0  0
  183.8450  178.9090  141.9350 N   0  0  0  0  0  0  0  0  0  0  0  0
  183.0440  176.5320  137.3750 C   0  0  0  0  0  0  0  0  0  0  0  0
  187.4840  178.1780  140.0910 O   0  0  0  0  0  0  0  0  0  0  0  0
  184.9630  179.0370  141.2870 C   0  0  0  0  0  3  0  0  0  0  0  0
  181.9460  176.4180  137.9820 O   0  0  0  0  0  0  0  0  0  0  0  0
  189.6060  177.1220  139.8560 C   0  0  0  0  0  3  0  0  0  0  0  0
  188.8570  177.6000  137.0430 O   0  0  0  0  0  1  0  0  0  0  0  0
  182.8930  180.4250  138.7640 C   0  0  0  0  0  2  0  0  0  0  0  0
  181.9070  179.3740  139.2680 C   0  0  1  0  0  3  0  0  0  0  0  0
  180.5800  182.3170  136.5960 O   0  0  0  0  0  1  0  0  0  0  0  0
  182.1460  181.6730  138.2750 C   0  0  0  0  0  2  0  0  0  0  0  0
  180.7930  181.3780  137.6050 C   0  0  2  0  0  3  0  0  0  0  0  0
  180.9120  178.9290  138.1720 C   0  0  0  0  0  2  0  0  0  0  0  0
  180.7640  179.9520  137.0370 C   0  0  1  0  0  3  0  0  0  0  0  0
  179.1590  178.2830  136.3930 O   0  0  0  0  0  1  0  0  0  0  0  0
  179.5020  179.6330  136.2450 C   0  0  0  0  0  2  0  0  0  0  0  0
  192.4290  177.3460  140.4250 O   0  0  0  0  0  0  0  0  0  0  0  0
  191.4880  177.6670  141.4030 C   0  0  0  0  0  0  0  0  0  0  0  0
  191.8870  178.0260  142.5430 O   0  0  0  0  0  1  0  0  0  0  0  0
  190.0840  177.5580  141.1360 N   0  0  0  0  0  0  0  0  0  0  0  0
  189.1420  177.6270  142.2380 C   0  0  0  0  0  2  0  0  0  0  0  0
  188.8810  176.2680  142.7880 C   0  0  0  0  0  3  0  0  0  0  0  0
  188.0070  176.0930  143.6100 O   0  0  0  0  0  0  0  0  0  0  0  0
  1 22  2  0  0  0  0
  1 19  1  0  0  0  0
  2  6  1  0  0  0  0
  2 14  1  0  0  0  0
  3 10  2  0  0  0  0
  4  6  2  0  0  0  0
  5  9  1  6  0  0  0
  5 16  1  0  0  0  0
  5  8  1  0  0  0  0
  6 13  1  0  0  0  0
  7  3  1  0  0  0  0
  8 10  1  0  0  0  0
  8 19  1  0  0  0  0
 10 20  1  0  0  0  0
 11 17  1  0  0  0  0
 12 14  2  0  0  0  0
 13  5  1  0  0  0  0
 13  7  2  0  0  0  0
 14 18  1  0  0  0  0
 15  3  1  6  0  0  0
 15 11  1  0  0  0  0
 16 23  1  6  0  0  0
 16  1  1  0  0  0  0
 18 21  2  0  0  0  0
 18  7  1  0  0  0  0
 20 17  2  0  0  0  0
 22 36  1  0  0  0  0
 24 25  1  0  0  0  0
 25 29  1  6  0  0  0
 25 15  1  0  0  0  0
 27 24  1  0  0  0  0
 28 26  1  6  0  0  0
 28 27  1  0  0  0  0
 30 32  1  1  0  0  0
 30 28  1  0  0  0  0
 30 29  1  0  0  0  0
 32 31  1  0  0  0  0
 33 34  2  0  0  0  0
 34 35  1  0  0  0  0
 36 34  1  0  0  0  0
 36 37  1  0  0  0  0
 37 38  1  0  0  0  0
 38 39  2  0  0  0  0
M  END
>  <MODEL>
6

>  <REMARK>
 VINA RESULT:      -6.1      1.201      1.742
  Name = 
  5 active torsions:
  status: ('A' for Active; 'I' for Inactive)
    1  A    between atoms: C_8  and  C_25
    2  A    between atoms: C_17  and  C_18
    3  A    between atoms: C_17  and  N_39
    4  A    between atoms: C_19  and  C_37
    5  A    between atoms: C_34  and  N_39
                            x       y       z     vdW  Elec       q    Type
                         _______ _______ _______ _____ _____    ______ ____

>  <TORSDO>
F 5

$$$$
=
 OpenBabel11062417423D

 39 43  0  0  1  0  0  0  0  0999 V2000
  182.9870  178.9560  142.7570 C   0  0  0  0  0  0  0  0  0  0  0  0
  179.0870  181.7250  139.4340 N   0  0  0  0  0  2  0  0  0  0  0  0
  181.9770  178.5300  138.4550 C   0  0  0  0  0  0  0  0  0  0  0  0
  179.2750  181.0910  141.6800 N   0  0  0  0  0  2  0  0  0  0  0  0
  181.1650  178.9180  141.2200 C   0  0  2  0  0  0  0  0  0  0  0  0
  179.6840  180.9320  140.4640 C   0  0  0  0  0  0  0  0  0  0  0  0
  181.0260  179.6400  138.8130 C   0  0  0  0  0  0  0  0  0  0  0  0
  182.3100  178.1180  140.7840 N   0  0  0  0  0  0  0  0  0  0  0  0
  180.0350  177.9580  141.5840 C   0  0  0  0  0  1  0  0  0  0  0  0
  182.6030  177.8420  139.4190 C   0  0  0  0  0  0  0  0  0  0  0  0
  183.5760  177.5900  136.8610 O   0  0  0  0  0  0  0  0  0  0  0  0
  178.9420  182.2510  137.1750 O   0  0  0  0  0  0  0  0  0  0  0  0
  180.6790  179.8600  140.1190 C   0  0  0  0  0  0  0  0  0  0  0  0
  179.4670  181.5420  138.0770 C   0  0  0  0  0  0  0  0  0  0  0  0
  182.2690  178.1680  137.0120 C   0  0  1  0  0  3  0  0  0  0  0  0
  181.7110  179.6740  142.4720 C   0  0  1  0  0  3  0  0  0  0  0  0
  184.1560  176.8540  137.8750 N   0  0  0  0  0  0  0  0  0  0  0  0
  180.4780  180.5340  137.7430 C   0  0  0  0  0  0  0  0  0  0  0  0
  183.2920  178.0940  141.7340 O   0  0  0  0  0  0  0  0  0  0  0  0
  183.7060  176.9250  139.0910 C   0  0  0  0  0  3  0  0  0  0  0  0
  180.8880  180.4610  136.5540 O   0  0  0  0  0  0  0  0  0  0  0  0
  183.7680  179.1550  143.8120 C   0  0  0  0  0  3  0  0  0  0  0  0
  180.8580  179.5790  143.5730 O   0  0  0  0  0  1  0  0  0  0  0  0
  181.7290  176.4230  135.2830 C   0  0  0  0  0  2  0  0  0  0  0  0
  181.1790  177.2530  136.4390 C   0  0  1  0  0  3  0  0  0  0  0  0
  179.0250  173.9150  135.1060 O   0  0  0  0  0  1  0  0  0  0  0  0
  180.6020  175.6310  134.6040 C   0  0  0  0  0  2  0  0  0  0  0  0
  179.5070  175.1390  135.5670 C   0  0  2  0  0  3  0  0  0  0  0  0
  180.4990  176.3800  137.5190 C   0  0  0  0  0  2  0  0  0  0  0  0
  180.0550  175.0070  136.9950 C   0  0  1  0  0  3  0  0  0  0  0  0
  179.5650  174.4630  139.2840 O   0  0  0  0  0  1  0  0  0  0  0  0
  179.0610  174.4000  137.9790 C   0  0  0  0  0  2  0  0  0  0  0  0
  184.9120  178.9910  146.4600 O   0  0  0  0  0  1  0  0  0  0  0  0
  185.4710  178.2660  145.4070 C   0  0  0  0  0  0  0  0  0  0  0  0
  186.4960  177.5650  145.6220 O   0  0  0  0  0  0  0  0  0  0  0  0
  184.9160  178.3400  144.0880 N   0  0  0  0  0  0  0  0  0  0  0  0
  185.6680  177.8070  142.9670 C   0  0  0  0  0  2  0  0  0  0  0  0
  186.5060  178.8710  142.3460 C   0  0  0  0  0  3  0  0  0  0  0  0
  186.3450  179.1830  141.1860 O   0  0  0  0  0  0  0  0  0  0  0  0
  1 22  2  0  0  0  0
  2  6  1  0  0  0  0
  3  7  1  0  0  0  0
  3 10  2  0  0  0  0
  5  9  1  1  0  0  0
  5 16  1  0  0  0  0
  6  4  2  0  0  0  0
  7 13  2  0  0  0  0
  8  5  1  0  0  0  0
  8 19  1  0  0  0  0
 10  8  1  0  0  0  0
 11 17  1  0  0  0  0
 12 14  2  0  0  0  0
 13  6  1  0  0  0  0
 13  5  1  0  0  0  0
 14  2  1  0  0  0  0
 15 11  1  1  0  0  0
 15  3  1  0  0  0  0
 16  1  1  0  0  0  0
 16 23  1  1  0  0  0
 17 20  2  0  0  0  0
 18 14  1  0  0  0  0
 18  7  1  0  0  0  0
 19  1  1  0  0  0  0
 20 10  1  0  0  0  0
 21 18  2  0  0  0  0
 22 36  1  0  0  0  0
 25 24  1  6  0  0  0
 25 15  1  0  0  0  0
 25 29  1  0  0  0  0
 27 24  1  0  0  0  0
 27 28  1  0  0  0  0
 28 26  1  6  0  0  0
 28 30  1  0  0  0  0
 30 29  1  0  0  0  0
 30 32  1  1  0  0  0
 32 31  1  0  0  0  0
 34 35  2  0  0  0  0
 34 33  1  0  0  0  0
 36 34  1  0  0  0  0
 37 36  1  0  0  0  0
 38 37  1  0  0  0  0
 39 38  2  0  0  0  0
M  END
>  <MODEL>
7

>  <REMARK>
 VINA RESULT:      -6.1      3.287      6.580
  Name = 
  5 active torsions:
  status: ('A' for Active; 'I' for Inactive)
    1  A    between atoms: C_8  and  C_25
    2  A    between atoms: C_17  and  C_18
    3  A    between atoms: C_17  and  N_39
    4  A    between atoms: C_19  and  C_37
    5  A    between atoms: C_34  and  N_39
                            x       y       z     vdW  Elec       q    Type
                         _______ _______ _______ _____ _____    ______ ____

>  <TORSDO>
F 5

$$$$
=
 OpenBabel11062417423D

 39 43  0  0  1  0  0  0  0  0999 V2000
  190.2520  177.1420  141.7490 C   0  0  0  0  0  0  0  0  0  0  0  0
  187.1080  178.2800  146.5180 N   0  0  0  0  0  2  0  0  0  0  0  0
  186.0730  178.5590  142.2330 C   0  0  0  0  0  0  0  0  0  0  0  0
  188.8350  176.8170  145.9190 N   0  0  0  0  0  2  0  0  0  0  0  0
  188.2790  176.8540  143.0570 C   0  0  2  0  0  0  0  0  0  0  0  0
  187.8880  177.6050  145.5270 C   0  0  0  0  0  0  0  0  0  0  0  0
  186.4660  178.4840  143.6830 C   0  0  0  0  0  0  0  0  0  0  0  0
  188.0090  177.2740  141.6820 N   0  0  0  0  0  0  0  0  0  0  0  0
  187.8090  175.4090  143.2050 C   0  0  0  0  0  1  0  0  0  0  0  0
  186.8480  178.0010  141.2940 C   0  0  0  0  0  0  0  0  0  0  0  0
  184.9290  179.7750  140.4460 O   0  0  0  0  0  0  0  0  0  0  0  0
  185.3430  179.7090  147.0120 O   0  0  0  0  0  0  0  0  0  0  0  0
  187.5360  177.7230  144.0720 C   0  0  0  0  0  0  0  0  0  0  0  0
  186.0220  179.1100  146.1320 C   0  0  0  0  0  0  0  0  0  0  0  0
  184.8120  179.2750  141.7870 C   0  0  1  0  0  3  0  0  0  0  0  0
  189.8310  176.9760  143.1710 C   0  0  1  0  0  3  0  0  0  0  0  0
  185.7110  179.1330  139.5060 N   0  0  0  0  0  0  0  0  0  0  0  0
  185.7090  179.2700  144.7090 C   0  0  0  0  0  0  0  0  0  0  0  0
  189.1580  177.3380  140.9450 O   0  0  0  0  0  0  0  0  0  0  0  0
  186.6090  178.2680  139.8670 C   0  0  0  0  0  3  0  0  0  0  0  0
  184.8190  180.0970  144.3760 O   0  0  0  0  0  0  0  0  0  0  0  0
  191.5050  177.1660  141.3120 C   0  0  0  0  0  3  0  0  0  0  0  0
  190.4230  175.8310  143.7090 O   0  0  0  0  0  1  0  0  0  0  0  0
  182.4580  179.1270  142.6610 C   0  0  0  0  0  2  0  0  0  0  0  0
  183.5790  178.3750  141.9490 C   0  0  1  0  0  3  0  0  0  0  0  0
  179.6830  176.8370  141.8300 O   0  0  0  0  0  1  0  0  0  0  0  0
  181.2880  178.1820  142.9700 C   0  0  0  0  0  2  0  0  0  0  0  0
  181.0500  177.0990  141.9020 C   0  0  2  0  0  3  0  0  0  0  0  0
  183.1130  177.7490  140.6150 C   0  0  0  0  0  2  0  0  0  0  0  0
  181.5920  177.5500  140.5390 C   0  0  1  0  0  3  0  0  0  0  0  0
  182.2640  175.5930  139.3160 O   0  0  0  0  0  1  0  0  0  0  0  0
  181.2770  176.5820  139.4040 C   0  0  0  0  0  2  0  0  0  0  0  0
  194.2430  177.0810  140.3960 O   0  0  0  0  0  1  0  0  0  0  0  0
  193.1970  177.1570  139.4760 C   0  0  0  0  0  0  0  0  0  0  0  0
  193.4660  177.2170  138.2460 O   0  0  0  0  0  0  0  0  0  0  0  0
  191.8340  177.2030  139.9160 N   0  0  0  0  0  0  0  0  0  0  0  0
  190.7920  177.5580  138.9700 C   0  0  0  0  0  2  0  0  0  0  0  0
  190.4960  176.4150  138.0640 C   0  0  0  0  0  3  0  0  0  0  0  0
  190.5680  175.2740  138.4650 O   0  0  0  0  0  0  0  0  0  0  0  0
  1 16  1  0  0  0  0
  3  7  1  0  0  0  0
  5 16  1  0  0  0  0
  5  9  1  1  0  0  0
  5 13  1  0  0  0  0
  6  4  2  0  0  0  0
  6  2  1  0  0  0  0
  7 13  2  0  0  0  0
  7 18  1  0  0  0  0
  8  5  1  0  0  0  0
 10  8  1  0  0  0  0
 10  3  2  0  0  0  0
 13  6  1  0  0  0  0
 14  2  1  0  0  0  0
 14 12  2  0  0  0  0
 15 11  1  6  0  0  0
 15 25  1  0  0  0  0
 15  3  1  0  0  0  0
 16 23  1  6  0  0  0
 17 20  2  0  0  0  0
 17 11  1  0  0  0  0
 18 14  1  0  0  0  0
 19  8  1  0  0  0  0
 19  1  1  0  0  0  0
 20 10  1  0  0  0  0
 21 18  2  0  0  0  0
 22  1  2  0  0  0  0
 24 27  1  0  0  0  0
 25 29  1  6  0  0  0
 25 24  1  0  0  0  0
 28 26  1  6  0  0  0
 28 27  1  0  0  0  0
 30 32  1  6  0  0  0
 30 29  1  0  0  0  0
 30 28  1  0  0  0  0
 31 32  1  0  0  0  0
 34 36  1  0  0  0  0
 34 33  1  0  0  0  0
 35 34  2  0  0  0  0
 36 22  1  0  0  0  0
 37 36  1  0  0  0  0
 38 39  2  0  0  0  0
 38 37  1  0  0  0  0
M  END
>  <MODEL>
8

>  <REMARK>
 VINA RESULT:      -6.0      3.542      6.524
  Name = 
  5 active torsions:
  status: ('A' for Active; 'I' for Inactive)
    1  A    between atoms: C_8  and  C_25
    2  A    between atoms: C_17  and  C_18
    3  A    between atoms: C_17  and  N_39
    4  A    between atoms: C_19  and  C_37
    5  A    between atoms: C_34  and  N_39
                            x       y       z     vdW  Elec       q    Type
                         _______ _______ _______ _____ _____    ______ ____

>  <TORSDO>
F 5

$$$$
=
 OpenBabel11062417423D

 39 43  0  0  1  0  0  0  0  0999 V2000
  188.8910  176.7150  138.6910 C   0  0  0  0  0  0  0  0  0  0  0  0
  184.8160  174.4910  135.1740 N   0  0  0  0  0  2  0  0  0  0  0  0
  184.5500  177.5700  138.3310 C   0  0  0  0  0  0  0  0  0  0  0  0
  187.1170  174.9180  135.0690 N   0  0  0  0  0  2  0  0  0  0  0  0
  187.1280  176.9990  137.1130 C   0  0  2  0  0  0  0  0  0  0  0  0
  185.9880  175.1550  135.6560 C   0  0  0  0  0  0  0  0  0  0  0  0
  184.6670  176.4960  137.2850 C   0  0  0  0  0  0  0  0  0  0  0  0
  186.9310  177.7590  138.3470 N   0  0  0  0  0  0  0  0  0  0  0  0
  187.4200  177.9930  135.9920 C   0  0  0  0  0  1  0  0  0  0  0  0
  185.6510  178.1320  138.8460 C   0  0  0  0  0  0  0  0  0  0  0  0
  183.2880  178.5400  140.1870 O   0  0  0  0  0  0  0  0  0  0  0  0
  182.5200  174.1710  135.3280 O   0  0  0  0  0  0  0  0  0  0  0  0
  185.8860  176.1870  136.7420 C   0  0  0  0  0  0  0  0  0  0  0  0
  183.5490  174.7660  135.7530 C   0  0  0  0  0  0  0  0  0  0  0  0
  183.2010  178.0350  138.8450 C   0  0  1  0  0  3  0  0  0  0  0  0
  188.3660  176.1060  137.4340 C   0  0  1  0  0  3  0  0  0  0  0  0
  184.4370  179.1500  140.6520 N   0  0  0  0  0  0  0  0  0  0  0  0
  183.4530  175.7330  136.8510 C   0  0  0  0  0  0  0  0  0  0  0  0
  188.0050  177.6410  139.1820 O   0  0  0  0  0  0  0  0  0  0  0  0
  185.5660  179.0030  140.0290 C   0  0  0  0  0  3  0  0  0  0  0  0
  182.3450  175.8810  137.4300 O   0  0  0  0  0  0  0  0  0  0  0  0
  190.0210  176.3780  139.3010 C   0  0  0  0  0  3  0  0  0  0  0  0
  189.3440  176.1600  136.4390 O   0  0  0  0  0  1  0  0  0  0  0  0
  181.4700  178.4150  137.0600 C   0  0  0  0  0  2  0  0  0  0  0  0
  182.5720  179.0620  137.8950 C   0  0  1  0  0  3  0  0  0  0  0  0
  179.8490  181.5020  135.8470 O   0  0  0  0  0  1  0  0  0  0  0  0
  180.9540  179.3950  135.9970 C   0  0  0  0  0  2  0  0  0  0  0  0
  180.9330  180.8660  136.4500 C   0  0  2  0  0  3  0  0  0  0  0  0
  182.0850  180.3360  138.6240 C   0  0  0  0  0  2  0  0  0  0  0  0
  180.8410  180.9640  137.9790 C   0  0  1  0  0  3  0  0  0  0  0  0
  181.6900  183.2130  137.9650 O   0  0  0  0  0  1  0  0  0  0  0  0
  180.6850  182.3910  138.4930 C   0  0  0  0  0  2  0  0  0  0  0  0
  188.4550  176.7130  141.7050 O   0  0  0  0  0  0  0  0  0  0  0  0
  189.7400  177.2480  141.6250 C   0  0  0  0  0  0  0  0  0  0  0  0
  190.1940  177.9020  142.6020 O   0  0  0  0  0  1  0  0  0  0  0  0
  190.5280  177.0930  140.4370 N   0  0  0  0  0  0  0  0  0  0  0  0
  191.7330  177.8840  140.2730 C   0  0  0  0  0  2  0  0  0  0  0  0
  192.7580  177.1250  139.5050 C   0  0  0  0  0  3  0  0  0  0  0  0
  193.9200  177.1360  139.8480 O   0  0  0  0  0  0  0  0  0  0  0  0
  1 19  1  0  0  0  0
  1 22  2  0  0  0  0
  2  6  1  0  0  0  0
  2 14  1  0  0  0  0
  3 10  2  0  0  0  0
  4  6  2  0  0  0  0
  5  9  1  6  0  0  0
  5 16  1  0  0  0  0
  5  8  1  0  0  0  0
  6 13  1  0  0  0  0
  7  3  1  0  0  0  0
  8 10  1  0  0  0  0
  8 19  1  0  0  0  0
 10 20  1  0  0  0  0
 11 17  1  0  0  0  0
 12 14  2  0  0  0  0
 13  5  1  0  0  0  0
 13  7  2  0  0  0  0
 14 18  1  0  0  0  0
 15  3  1  6  0  0  0
 15 11  1  0  0  0  0
 16 23  1  6  0  0  0
 16  1  1  0  0  0  0
 18  7  1  0  0  0  0
 18 21  2  0  0  0  0
 20 17  2  0  0  0  0
 22 36  1  0  0  0  0
 25 24  1  1  0  0  0
 25 29  1  0  0  0  0
 25 15  1  0  0  0  0
 27 28  1  0  0  0  0
 27 24  1  0  0  0  0
 28 26  1  6  0  0  0
 28 30  1  0  0  0  0
 30 32  1  6  0  0  0
 30 29  1  0  0  0  0
 31 32  1  0  0  0  0
 34 33  2  0  0  0  0
 34 35  1  0  0  0  0
 36 34  1  0  0  0  0
 37 36  1  0  0  0  0
 38 39  2  0  0  0  0
 38 37  1  0  0  0  0
M  END
>  <MODEL>
9

>  <REMARK>
 VINA RESULT:      -5.5      1.210      1.962
  Name = 
  5 active torsions:
  status: ('A' for Active; 'I' for Inactive)
    1  A    between atoms: C_8  and  C_25
    2  A    between atoms: C_17  and  C_18
    3  A    between atoms: C_17  and  N_39
    4  A    between atoms: C_19  and  C_37
    5  A    between atoms: C_34  and  N_39
                            x       y       z     vdW  Elec       q    Type
                         _______ _______ _______ _____ _____    ______ ____

>  <TORSDO>
F 5

$$$$
