=
 OpenBabel11062412123D

 55 59  0  0  1  0  0  0  0  0999 V2000
  188.7390  177.5610  144.2920 C   0  0  2  0  0  3  0  0  0  0  0  0
  188.5060  177.7910  145.7570 C   0  0  0  0  0  0  0  0  0  0  0  0
  187.0550  178.2180  147.6340 C   0  0  0  0  0  3  0  0  0  0  0  0
  189.5780  177.6590  146.6450 C   0  0  0  0  0  3  0  0  0  0  0  0
  188.1160  178.0950  148.4770 N   0  0  0  0  0  0  0  0  0  0  0  0
  189.3630  177.8200  148.0130 C   0  0  0  0  0  3  0  0  0  0  0  0
  187.2280  178.0590  146.2600 C   0  0  0  0  0  3  0  0  0  0  0  0
  187.5940  176.7810  143.6310 C   0  0  2  0  0  3  0  0  0  0  0  0
  188.0530  175.5990  143.0400 O   0  0  0  0  0  1  0  0  0  0  0  0
  187.7630  178.3080  141.6460 C   0  0  0  0  0  1  0  0  0  0  0  0
  186.8200  177.6390  142.6310 C   0  0  2  0  0  3  0  0  0  0  0  0
  185.8020  178.5730  143.3090 C   0  0  0  0  0  2  0  0  0  0  0  0
  184.3270  178.2640  143.0720 C   0  0  1  0  0  3  0  0  0  0  0  0
  183.5190  179.3450  143.7770 C   0  0  0  0  0  1  0  0  0  0  0  0
  182.2270  177.9070  139.7260 C   0  0  1  0  0  3  0  0  0  0  0  0
  181.0700  178.7910  139.6900 N   0  0  0  0  0  0  0  0  0  0  0  0
  184.3970  180.6270  138.8610 O   0  0  0  0  0  0  0  0  0  0  0  0
  184.0470  178.2210  141.5590 C   0  0  2  0  0  3  0  0  0  0  0  0
  184.3670  179.4760  140.8860 N   0  0  0  0  0  2  0  0  0  0  0  0
  184.0580  179.5960  139.4980 C   0  0  0  0  0  0  0  0  0  0  0  0
  180.7930  179.1940  140.8810 C   0  0  0  0  0  0  0  0  0  0  0  0
  183.3270  178.4770  138.8110 C   0  0  1  0  0  3  0  0  0  0  0  0
  181.6430  178.6890  141.8960 N   0  0  0  0  0  2  0  0  0  0  0  0
  182.5960  177.8050  141.2380 C   0  0  1  0  0  3  0  0  0  0  0  0
  179.4710  180.3490  141.2170 S   0  0  0  0  0  0  0  0  0  0  0  0
  179.7750  180.2800  143.0050 C   0  0  0  0  0  1  0  0  0  0  0  0
  183.5600  176.3160  137.5710 C   0  0  0  0  0  1  0  0  0  0  0  0
  184.2850  177.3660  138.4000 C   0  0  0  0  0  2  0  0  0  0  0  0
  189.9790  176.9360  144.0980 O   0  0  0  0  0  0  0  0  0  0  0  0
  190.6770  177.7610  143.2080 C   0  0  0  0  0  2  0  0  0  0  0  0
  191.4170  176.9260  142.1750 C   0  0  0  0  0  2  0  0  0  0  0  0
  191.4320  177.5980  140.8880 N   0  0  0  0  0  0  0  0  0  0  0  0
  192.8400  177.6410  140.5070 C   0  0  0  0  0  2  0  0  0  0  0  0
  193.1060  176.6590  139.5660 F   0  0  0  0  0  0  0  0  0  0  0  0
  190.7670  176.6890  139.9660 C   0  0  0  0  0  2  0  0  0  0  0  0
  189.9770  177.4660  138.9200 C   0  0  0  0  0  2  0  0  0  0  0  0
  189.6520  176.5780  137.7260 C   0  0  1  0  0  3  0  0  0  0  0  0
  190.6580  175.4260  137.6530 C   0  0  1  0  0  3  0  0  0  0  0  0
  189.9850  174.2040  137.5800 O   0  0  0  0  0  1  0  0  0  0  0  0
  192.8720  174.9680  136.7120 C   0  0  2  0  0  3  0  0  0  0  0  0
  191.5490  175.5680  136.4300 C   0  0  2  0  0  3  0  0  0  0  0  0
  192.6700  176.3590  136.7470 O   0  0  0  0  0  0  0  0  0  0  0  0
  194.8830  174.5220  135.3220 C   0  0  0  0  0  3  0  0  0  0  0  0
  193.5530  174.6040  135.4320 C   0  0  0  0  0  3  0  0  0  0  0  0
  196.3570  173.5090  136.9440 N   0  0  0  0  0  0  0  0  0  0  0  0
  197.7310  173.7140  137.0400 C   0  0  0  0  0  0  0  0  0  0  0  0
  195.8050  174.7650  136.4740 C   0  0  1  0  0  3  0  0  0  0  0  0
  198.5480  172.8630  137.4820 O   0  0  0  0  0  0  0  0  0  0  0  0
  196.8740  175.6100  136.0650 O   0  0  0  0  0  0  0  0  0  0  0  0
  198.0770  175.0550  136.5730 C   0  0  0  0  0  2  0  0  0  0  0  0
  195.6130  172.4830  137.6580 C   0  0  0  0  0  1  0  0  0  0  0  0
  188.3520  176.0770  137.8630 O   0  0  0  0  0  0  0  0  0  0  0  0
  187.5240  177.0770  137.3420 C   0  0  0  0  0  2  0  0  0  0  0  0
  188.3390  178.0170  136.4780 C   0  0  0  0  0  2  0  0  0  0  0  0
  187.9180  179.3290  136.7010 O   0  0  0  0  0  1  0  0  0  0  0  0
  1 29  1  1  0  0  0
  1  2  1  0  0  0  0
  2  7  2  0  0  0  0
  2  4  1  0  0  0  0
  3  5  2  0  0  0  0
  4  6  2  0  0  0  0
  6  5  1  0  0  0  0
  7  3  1  0  0  0  0
  8  9  1  6  0  0  0
  8  1  1  0  0  0  0
 11 10  1  1  0  0  0
 11 12  1  0  0  0  0
 11  8  1  0  0  0  0
 13 12  1  0  0  0  0
 13 14  1  1  0  0  0
 15 16  1  1  0  0  0
 15 24  1  0  0  0  0
 16 21  2  0  0  0  0
 17 20  2  0  0  0  0
 18 13  1  1  0  0  0
 19 18  1  0  0  0  0
 20 19  1  0  0  0  0
 21 25  1  0  0  0  0
 21 23  1  0  0  0  0
 22 28  1  1  0  0  0
 22 20  1  0  0  0  0
 22 15  1  0  0  0  0
 24 18  1  0  0  0  0
 24 23  1  1  0  0  0
 25 26  1  0  0  0  0
 27 28  1  0  0  0  0
 30 29  1  0  0  0  0
 31 30  1  0  0  0  0
 32 31  1  0  0  0  0
 33 32  1  0  0  0  0
 34 33  1  0  0  0  0
 35 32  1  0  0  0  0
 36 35  1  0  0  0  0
 37 52  1  0  0  0  0
 37 36  1  1  0  0  0
 38 39  1  6  0  0  0
 38 37  1  0  0  0  0
 40 44  1  6  0  0  0
 40 42  1  0  0  0  0
 41 40  1  0  0  0  0
 41 42  1  0  0  0  0
 41 38  1  1  0  0  0
 43 44  2  0  0  0  0
 45 46  1  0  0  0  0
 45 51  1  0  0  0  0
 46 48  2  0  0  0  0
 47 43  1  6  0  0  0
 47 45  1  0  0  0  0
 49 47  1  0  0  0  0
 49 50  1  0  0  0  0
 50 46  1  0  0  0  0
 53 52  1  0  0  0  0
 54 55  1  0  0  0  0
 54 53  1  0  0  0  0
M  END
>  <MODEL>
1

>  <REMARK>
 VINA RESULT:      -7.3      0.000      0.000
  Name = 
  23 active torsions:
  status: ('A' for Active; 'I' for Inactive)
    1  A    between atoms: C_5  and  C_8
    2  A    between atoms: C_5  and  C_34
    3  A    between atoms: C_6  and  C_34
    4  A    between atoms: C_7  and  C_50
    5  A    between atoms: C_8  and  C_14
    6  A    between atoms: C_9  and  C_26
    7  A    between atoms: C_12  and  N_23
    8  A    between atoms: C_12  and  C_38
    9  A    between atoms: C_14  and  C_51
   10  A    between atoms: C_17  and  C_20
   11  A    between atoms: C_19  and  C_40
   12  A    between atoms: C_20  and  C_45
   13  A    between atoms: C_22  and  C_51
   14  A    between atoms: N_23  and  C_30
   15  A    between atoms: N_23  and  C_31
   16  A    between atoms: O_28  and  C_34
   17  A    between atoms: O_28  and  C_46
   18  A    between atoms: C_30  and  C_46
   19  A    between atoms: C_32  and  C_36
   20  A    between atoms: C_32  and  O_54
   21  A    between atoms: S_37  and  C_39
   22  A    between atoms: C_38  and  C_45
   23  A    between atoms: C_45  and  O_54
                            x       y       z     vdW  Elec       q    Type
                         _______ _______ _______ _____ _____    ______ ____

>  <TORSDO>
F 23

$$$$
=
 OpenBabel11062412123D

 55 59  0  0  1  0  0  0  0  0999 V2000
  188.3930  177.0550  138.1880 C   0  0  2  0  0  3  0  0  0  0  0  0
  189.0110  175.8110  137.6180 C   0  0  0  0  0  0  0  0  0  0  0  0
  190.8770  174.3150  137.3140 C   0  0  0  0  0  3  0  0  0  0  0  0
  188.2000  174.9020  136.9330 C   0  0  0  0  0  3  0  0  0  0  0  0
  190.0690  173.4520  136.6410 N   0  0  0  0  0  0  0  0  0  0  0  0
  188.7520  173.7190  136.4430 C   0  0  0  0  0  3  0  0  0  0  0  0
  190.3600  175.5060  137.8240 C   0  0  0  0  0  3  0  0  0  0  0  0
  188.1080  178.1140  137.1140 C   0  0  2  0  0  3  0  0  0  0  0  0
  188.7770  179.3120  137.3840 O   0  0  0  0  0  1  0  0  0  0  0  0
  185.8900  178.3810  138.2580 C   0  0  0  0  0  1  0  0  0  0  0  0
  186.6100  178.3440  136.9210 C   0  0  2  0  0  3  0  0  0  0  0  0
  185.9930  177.4100  135.8650 C   0  0  0  0  0  2  0  0  0  0  0  0
  184.4880  177.1740  135.9550 C   0  0  1  0  0  3  0  0  0  0  0  0
  183.8950  177.5200  134.5960 C   0  0  0  0  0  1  0  0  0  0  0  0
  182.8700  174.1380  137.9270 C   0  0  1  0  0  3  0  0  0  0  0  0
  181.4140  174.1710  137.9150 N   0  0  0  0  0  0  0  0  0  0  0  0
  182.9180  172.8150  134.5940 O   0  0  0  0  0  0  0  0  0  0  0  0
  184.2190  175.7140  136.3550 C   0  0  2  0  0  3  0  0  0  0  0  0
  183.6850  174.9120  135.2580 N   0  0  0  0  0  2  0  0  0  0  0  0
  183.3000  173.5650  135.5300 C   0  0  0  0  0  0  0  0  0  0  0  0
  181.0070  175.3520  137.6020 C   0  0  0  0  0  0  0  0  0  0  0  0
  183.3580  173.0580  136.9430 C   0  0  1  0  0  3  0  0  0  0  0  0
  182.0370  176.2950  137.3640 N   0  0  0  0  0  2  0  0  0  0  0  0
  183.2980  175.5990  137.5890 C   0  0  1  0  0  3  0  0  0  0  0  0
  179.2740  175.7520  137.4230 S   0  0  0  0  0  0  0  0  0  0  0  0
  178.9310  175.3380  139.1560 C   0  0  0  0  0  1  0  0  0  0  0  0
  185.4120  171.8600  136.1630 C   0  0  0  0  0  1  0  0  0  0  0  0
  184.7710  172.6230  137.3120 C   0  0  0  0  0  2  0  0  0  0  0  0
  189.1980  177.5600  139.2190 O   0  0  0  0  0  0  0  0  0  0  0  0
  188.4160  177.4770  140.3770 C   0  0  0  0  0  2  0  0  0  0  0  0
  189.2570  177.7690  141.6110 C   0  0  0  0  0  2  0  0  0  0  0  0
  190.2750  176.7500  141.7900 N   0  0  0  0  0  0  0  0  0  0  0  0
  191.5400  177.4770  141.7460 C   0  0  0  0  0  2  0  0  0  0  0  0
  192.4670  176.8650  142.5740 F   0  0  0  0  0  0  0  0  0  0  0  0
  190.1070  176.2680  143.1530 C   0  0  0  0  0  2  0  0  0  0  0  0
  188.7430  176.6710  143.7010 C   0  0  0  0  0  2  0  0  0  0  0  0
  188.8710  177.1930  145.1260 C   0  0  1  0  0  3  0  0  0  0  0  0
  187.4850  177.2790  145.7700 C   0  0  1  0  0  3  0  0  0  0  0  0
  187.6030  177.3400  147.1610 O   0  0  0  0  0  1  0  0  0  0  0  0
  185.3380  178.1610  144.9890 C   0  0  2  0  0  3  0  0  0  0  0  0
  186.7440  178.5150  145.2870 C   0  0  2  0  0  3  0  0  0  0  0  0
  186.2930  178.3150  143.9680 O   0  0  0  0  0  0  0  0  0  0  0  0
  183.4310  179.5640  144.2340 C   0  0  0  0  0  3  0  0  0  0  0  0
  184.4790  179.3840  145.0440 C   0  0  0  0  0  3  0  0  0  0  0  0
  181.6410  178.7900  142.8100 N   0  0  0  0  0  0  0  0  0  0  0  0
  181.6530  178.7740  141.4170 C   0  0  0  0  0  0  0  0  0  0  0  0
  183.0130  178.5510  143.2160 C   0  0  1  0  0  3  0  0  0  0  0  0
  180.6260  178.8810  140.6960 O   0  0  0  0  0  0  0  0  0  0  0  0
  183.8520  178.6430  142.0710 O   0  0  0  0  0  0  0  0  0  0  0  0
  183.0190  178.6000  140.9240 C   0  0  0  0  0  2  0  0  0  0  0  0
  180.4700  178.5540  143.6380 C   0  0  0  0  0  1  0  0  0  0  0  0
  189.6940  176.3320  145.8620 O   0  0  0  0  0  0  0  0  0  0  0  0
  190.8070  177.1060  146.2080 C   0  0  0  0  0  2  0  0  0  0  0  0
  191.8450  176.2350  146.8860 C   0  0  0  0  0  2  0  0  0  0  0  0
  192.2020  176.8100  148.1070 O   0  0  0  0  0  1  0  0  0  0  0  0
  1 29  1  1  0  0  0
  2  7  1  0  0  0  0
  2  1  1  0  0  0  0
  3  7  2  0  0  0  0
  4  2  2  0  0  0  0
  5  3  1  0  0  0  0
  6  5  2  0  0  0  0
  6  4  1  0  0  0  0
  8  9  1  1  0  0  0
  8  1  1  0  0  0  0
 11  8  1  0  0  0  0
 11 10  1  1  0  0  0
 12 13  1  0  0  0  0
 12 11  1  0  0  0  0
 13 14  1  6  0  0  0
 15 16  1  6  0  0  0
 17 20  2  0  0  0  0
 18 13  1  6  0  0  0
 18 24  1  0  0  0  0
 19 20  1  0  0  0  0
 19 18  1  0  0  0  0
 20 22  1  0  0  0  0
 21 16  2  0  0  0  0
 22 28  1  1  0  0  0
 22 15  1  0  0  0  0
 23 21  1  0  0  0  0
 24 23  1  6  0  0  0
 24 15  1  0  0  0  0
 25 21  1  0  0  0  0
 25 26  1  0  0  0  0
 27 28  1  0  0  0  0
 29 30  1  0  0  0  0
 30 31  1  0  0  0  0
 31 32  1  0  0  0  0
 32 35  1  0  0  0  0
 33 32  1  0  0  0  0
 33 34  1  0  0  0  0
 35 36  1  0  0  0  0
 37 36  1  6  0  0  0
 37 38  1  0  0  0  0
 37 52  1  0  0  0  0
 38 39  1  1  0  0  0
 40 44  1  6  0  0  0
 40 41  1  0  0  0  0
 41 38  1  1  0  0  0
 42 40  1  0  0  0  0
 42 41  1  0  0  0  0
 43 44  2  0  0  0  0
 45 47  1  0  0  0  0
 45 51  1  0  0  0  0
 46 45  1  0  0  0  0
 47 43  1  1  0  0  0
 48 46  2  0  0  0  0
 49 47  1  0  0  0  0
 50 46  1  0  0  0  0
 50 49  1  0  0  0  0
 52 53  1  0  0  0  0
 53 54  1  0  0  0  0
 54 55  1  0  0  0  0
M  END
>  <MODEL>
2

>  <REMARK>
 VINA RESULT:      -6.6      3.505      9.605
  Name = 
  23 active torsions:
  status: ('A' for Active; 'I' for Inactive)
    1  A    between atoms: C_5  and  C_8
    2  A    between atoms: C_5  and  C_34
    3  A    between atoms: C_6  and  C_34
    4  A    between atoms: C_7  and  C_50
    5  A    between atoms: C_8  and  C_14
    6  A    between atoms: C_9  and  C_26
    7  A    between atoms: C_12  and  N_23
    8  A    between atoms: C_12  and  C_38
    9  A    between atoms: C_14  and  C_51
   10  A    between atoms: C_17  and  C_20
   11  A    between atoms: C_19  and  C_40
   12  A    between atoms: C_20  and  C_45
   13  A    between atoms: C_22  and  C_51
   14  A    between atoms: N_23  and  C_30
   15  A    between atoms: N_23  and  C_31
   16  A    between atoms: O_28  and  C_34
   17  A    between atoms: O_28  and  C_46
   18  A    between atoms: C_30  and  C_46
   19  A    between atoms: C_32  and  C_36
   20  A    between atoms: C_32  and  O_54
   21  A    between atoms: S_37  and  C_39
   22  A    between atoms: C_38  and  C_45
   23  A    between atoms: C_45  and  O_54
                            x       y       z     vdW  Elec       q    Type
                         _______ _______ _______ _____ _____    ______ ____

>  <TORSDO>
F 23

$$$$
=
 OpenBabel11062412123D

 55 59  0  0  1  0  0  0  0  0999 V2000
  188.3220  177.7370  144.1510 C   0  0  2  0  0  3  0  0  0  0  0  0
  189.3480  177.3630  145.1810 C   0  0  0  0  0  0  0  0  0  0  0  0
  191.5820  176.7180  145.8160 C   0  0  0  0  0  3  0  0  0  0  0  0
  189.0110  177.4430  146.5360 C   0  0  0  0  0  3  0  0  0  0  0  0
  191.2260  176.7930  147.1270 N   0  0  0  0  0  0  0  0  0  0  0  0
  189.9710  177.1470  147.5030 C   0  0  0  0  0  3  0  0  0  0  0  0
  190.6530  177.0120  144.8190 C   0  0  0  0  0  3  0  0  0  0  0  0
  186.8850  177.5940  144.6730 C   0  0  2  0  0  3  0  0  0  0  0  0
  186.4260  176.2780  144.5540 O   0  0  0  0  0  1  0  0  0  0  0  0
  185.1280  179.3480  145.0390 C   0  0  0  0  0  1  0  0  0  0  0  0
  185.9320  178.5810  144.0030 C   0  0  2  0  0  3  0  0  0  0  0  0
  185.1090  177.9410  142.8700 C   0  0  0  0  0  2  0  0  0  0  0  0
  184.7940  178.8270  141.6690 C   0  0  1  0  0  3  0  0  0  0  0  0
  186.0900  179.0190  140.8950 C   0  0  0  0  0  1  0  0  0  0  0  0
  181.2240  177.3570  140.7590 C   0  0  1  0  0  3  0  0  0  0  0  0
  180.1440  178.3000  141.0180 N   0  0  0  0  0  0  0  0  0  0  0  0
  182.0410  179.0550  137.7080 O   0  0  0  0  0  0  0  0  0  0  0  0
  183.6970  178.1660  140.8160 C   0  0  2  0  0  3  0  0  0  0  0  0
  183.3700  178.9320  139.6170 N   0  0  0  0  0  2  0  0  0  0  0  0
  182.2970  178.4740  138.7940 C   0  0  0  0  0  0  0  0  0  0  0  0
  180.5540  179.2230  141.8180 C   0  0  0  0  0  0  0  0  0  0  0  0
  181.4840  177.2930  139.2420 C   0  0  1  0  0  3  0  0  0  0  0  0
  181.9000  179.0930  142.2390 N   0  0  0  0  0  2  0  0  0  0  0  0
  182.4140  177.8760  141.6230 C   0  0  1  0  0  3  0  0  0  0  0  0
  179.5180  180.5940  142.3090 S   0  0  0  0  0  0  0  0  0  0  0  0
  179.4240  181.2190  140.6080 C   0  0  0  0  0  1  0  0  0  0  0  0
  181.8640  175.5790  137.4600 C   0  0  0  0  0  1  0  0  0  0  0  0
  182.1790  175.9830  138.8920 C   0  0  0  0  0  2  0  0  0  0  0  0
  188.5290  176.9950  142.9800 O   0  0  0  0  0  0  0  0  0  0  0  0
  189.0920  177.8920  142.0640 C   0  0  0  0  0  2  0  0  0  0  0  0
  189.5820  177.1560  140.8270 C   0  0  0  0  0  2  0  0  0  0  0  0
  190.7900  177.7710  140.3090 N   0  0  0  0  0  0  0  0  0  0  0  0
  191.6890  177.8480  141.4550 C   0  0  0  0  0  2  0  0  0  0  0  0
  192.6240  176.8260  141.3920 F   0  0  0  0  0  0  0  0  0  0  0  0
  191.3560  176.8000  139.3840 C   0  0  0  0  0  2  0  0  0  0  0  0
  190.2540  176.1170  138.5820 C   0  0  0  0  0  2  0  0  0  0  0  0
  190.4620  176.3430  137.0900 C   0  0  1  0  0  3  0  0  0  0  0  0
  189.7360  177.6190  136.6570 C   0  0  1  0  0  3  0  0  0  0  0  0
  189.3170  177.5080  135.3290 O   0  0  0  0  0  1  0  0  0  0  0  0
  187.3730  178.2630  136.6860 C   0  0  2  0  0  3  0  0  0  0  0  0
  188.5200  177.8690  137.5340 C   0  0  2  0  0  3  0  0  0  0  0  0
  188.1140  179.2120  137.4130 O   0  0  0  0  0  0  0  0  0  0  0  0
  185.2120  177.0730  136.9850 C   0  0  0  0  0  3  0  0  0  0  0  0
  186.0890  177.9920  137.4020 C   0  0  0  0  0  3  0  0  0  0  0  0
  185.7820  174.8690  136.1810 N   0  0  0  0  0  0  0  0  0  0  0  0
  184.9610  174.0370  135.4240 C   0  0  0  0  0  0  0  0  0  0  0  0
  185.4480  176.2220  135.7780 C   0  0  1  0  0  3  0  0  0  0  0  0
  185.0080  172.7780  135.4460 O   0  0  0  0  0  0  0  0  0  0  0  0
  184.2720  176.1830  134.9780 O   0  0  0  0  0  0  0  0  0  0  0  0
  184.0570  174.8340  134.5950 C   0  0  0  0  0  2  0  0  0  0  0  0
  187.0320  174.4660  136.8030 C   0  0  0  0  0  1  0  0  0  0  0  0
  191.8320  176.4520  136.8250 O   0  0  0  0  0  0  0  0  0  0  0  0
  192.1010  175.4410  135.8950 C   0  0  0  0  0  2  0  0  0  0  0  0
  193.1920  174.5340  136.4270 C   0  0  0  0  0  2  0  0  0  0  0  0
  194.2010  174.4180  135.4700 O   0  0  0  0  0  1  0  0  0  0  0  0
  1 29  1  6  0  0  0
  1  8  1  0  0  0  0
  1  2  1  0  0  0  0
  2  4  1  0  0  0  0
  3  5  2  0  0  0  0
  4  6  2  0  0  0  0
  5  6  1  0  0  0  0
  7  2  2  0  0  0  0
  7  3  1  0  0  0  0
  8  9  1  6  0  0  0
 11  8  1  0  0  0  0
 11 10  1  1  0  0  0
 12 11  1  0  0  0  0
 13 14  1  6  0  0  0
 13 12  1  0  0  0  0
 15 16  1  6  0  0  0
 15 24  1  0  0  0  0
 16 21  2  0  0  0  0
 17 20  2  0  0  0  0
 18 24  1  0  0  0  0
 18 13  1  1  0  0  0
 19 18  1  0  0  0  0
 20 22  1  0  0  0  0
 20 19  1  0  0  0  0
 21 23  1  0  0  0  0
 21 25  1  0  0  0  0
 22 28  1  1  0  0  0
 22 15  1  0  0  0  0
 24 23  1  6  0  0  0
 26 25  1  0  0  0  0
 27 28  1  0  0  0  0
 30 29  1  0  0  0  0
 31 30  1  0  0  0  0
 32 31  1  0  0  0  0
 32 33  1  0  0  0  0
 34 33  1  0  0  0  0
 35 32  1  0  0  0  0
 36 35  1  0  0  0  0
 37 36  1  1  0  0  0
 38 39  1  6  0  0  0
 38 37  1  0  0  0  0
 40 44  1  1  0  0  0
 40 42  1  0  0  0  0
 40 41  1  0  0  0  0
 41 38  1  6  0  0  0
 42 41  1  0  0  0  0
 43 44  2  0  0  0  0
 45 51  1  0  0  0  0
 46 48  2  0  0  0  0
 46 45  1  0  0  0  0
 47 45  1  0  0  0  0
 47 43  1  1  0  0  0
 49 47  1  0  0  0  0
 50 49  1  0  0  0  0
 50 46  1  0  0  0  0
 52 37  1  0  0  0  0
 53 54  1  0  0  0  0
 53 52  1  0  0  0  0
 55 54  1  0  0  0  0
M  END
>  <MODEL>
3

>  <REMARK>
 VINA RESULT:      -6.5      2.257      5.421
  Name = 
  23 active torsions:
  status: ('A' for Active; 'I' for Inactive)
    1  A    between atoms: C_5  and  C_8
    2  A    between atoms: C_5  and  C_34
    3  A    between atoms: C_6  and  C_34
    4  A    between atoms: C_7  and  C_50
    5  A    between atoms: C_8  and  C_14
    6  A    between atoms: C_9  and  C_26
    7  A    between atoms: C_12  and  N_23
    8  A    between atoms: C_12  and  C_38
    9  A    between atoms: C_14  and  C_51
   10  A    between atoms: C_17  and  C_20
   11  A    between atoms: C_19  and  C_40
   12  A    between atoms: C_20  and  C_45
   13  A    between atoms: C_22  and  C_51
   14  A    between atoms: N_23  and  C_30
   15  A    between atoms: N_23  and  C_31
   16  A    between atoms: O_28  and  C_34
   17  A    between atoms: O_28  and  C_46
   18  A    between atoms: C_30  and  C_46
   19  A    between atoms: C_32  and  C_36
   20  A    between atoms: C_32  and  O_54
   21  A    between atoms: S_37  and  C_39
   22  A    between atoms: C_38  and  C_45
   23  A    between atoms: C_45  and  O_54
                            x       y       z     vdW  Elec       q    Type
                         _______ _______ _______ _____ _____    ______ ____

>  <TORSDO>
F 23

$$$$
=
 OpenBabel11062412123D

 55 59  0  0  1  0  0  0  0  0999 V2000
  188.0440  178.0820  143.5160 C   0  0  2  0  0  3  0  0  0  0  0  0
  189.3720  177.3950  143.6510 C   0  0  0  0  0  0  0  0  0  0  0  0
  191.5720  177.1980  144.6160 C   0  0  0  0  0  3  0  0  0  0  0  0
  189.5820  176.1850  142.9820 C   0  0  0  0  0  3  0  0  0  0  0  0
  191.7560  176.0280  143.9470 N   0  0  0  0  0  0  0  0  0  0  0  0
  190.7930  175.5120  143.1400 C   0  0  0  0  0  3  0  0  0  0  0  0
  190.3730  177.8980  144.4880 C   0  0  0  0  0  3  0  0  0  0  0  0
  187.1590  177.8980  144.7570 C   0  0  2  0  0  3  0  0  0  0  0  0
  187.1150  176.5600  145.1610 O   0  0  0  0  0  1  0  0  0  0  0  0
  184.9990  178.5400  145.8630 C   0  0  0  0  0  1  0  0  0  0  0  0
  185.7550  178.4630  144.5470 C   0  0  2  0  0  3  0  0  0  0  0  0
  185.0020  177.7790  143.3920 C   0  0  0  0  0  2  0  0  0  0  0  0
  183.6930  178.4260  142.9500 C   0  0  1  0  0  3  0  0  0  0  0  0
  183.7160  179.8690  143.4350 C   0  0  0  0  0  1  0  0  0  0  0  0
  181.9040  178.1580  139.4200 C   0  0  1  0  0  3  0  0  0  0  0  0
  180.9000  179.1930  139.2180 N   0  0  0  0  0  0  0  0  0  0  0  0
  184.5270  180.4820  138.6610 O   0  0  0  0  0  0  0  0  0  0  0  0
  183.5620  178.3270  141.4200 C   0  0  2  0  0  3  0  0  0  0  0  0
  184.1280  179.4790  140.7250 N   0  0  0  0  0  2  0  0  0  0  0  0
  183.9780  179.5520  139.3070 C   0  0  0  0  0  0  0  0  0  0  0  0
  180.5690  179.7060  140.3520 C   0  0  0  0  0  0  0  0  0  0  0  0
  183.1610  178.5070  138.6020 C   0  0  1  0  0  3  0  0  0  0  0  0
  181.2310  179.1510  141.4750 N   0  0  0  0  0  2  0  0  0  0  0  0
  182.1030  178.1010  140.9660 C   0  0  1  0  0  3  0  0  0  0  0  0
  179.4050  181.0550  140.4880 S   0  0  0  0  0  0  0  0  0  0  0  0
  179.1940  180.7820  142.2700 C   0  0  0  0  0  1  0  0  0  0  0  0
  183.0680  176.0660  138.0630 C   0  0  0  0  0  1  0  0  0  0  0  0
  183.9810  177.2480  138.3500 C   0  0  0  0  0  2  0  0  0  0  0  0
  187.4000  177.6530  142.3470 O   0  0  0  0  0  0  0  0  0  0  0  0
  187.7600  178.5810  141.3620 C   0  0  0  0  0  2  0  0  0  0  0  0
  188.4370  177.8820  140.1930 C   0  0  0  0  0  2  0  0  0  0  0  0
  188.0350  178.4830  138.9340 N   0  0  0  0  0  0  0  0  0  0  0  0
  189.2880  178.7890  138.2510 C   0  0  0  0  0  2  0  0  0  0  0  0
  189.1580  179.9640  137.5270 F   0  0  0  0  0  0  0  0  0  0  0  0
  187.3880  177.4160  138.1830 C   0  0  0  0  0  2  0  0  0  0  0  0
  188.1060  177.1790  136.8590 C   0  0  0  0  0  2  0  0  0  0  0  0
  188.2890  175.6870  136.6110 C   0  0  1  0  0  3  0  0  0  0  0  0
  189.6890  175.2600  137.0590 C   0  0  1  0  0  3  0  0  0  0  0  0
  189.6500  173.9700  137.5950 O   0  0  0  0  0  1  0  0  0  0  0  0
  191.7890  176.1750  136.1910 C   0  0  2  0  0  3  0  0  0  0  0  0
  190.6560  175.2720  135.8860 C   0  0  2  0  0  3  0  0  0  0  0  0
  190.7350  176.5710  135.3470 O   0  0  0  0  0  0  0  0  0  0  0  0
  193.9510  175.0150  135.8000 C   0  0  0  0  0  3  0  0  0  0  0  0
  192.9740  175.8100  135.3550 C   0  0  0  0  0  3  0  0  0  0  0  0
  194.3950  173.0290  137.1000 N   0  0  0  0  0  0  0  0  0  0  0  0
  195.3550  172.9040  138.1010 C   0  0  0  0  0  0  0  0  0  0  0  0
  193.9360  174.4030  137.1650 C   0  0  1  0  0  3  0  0  0  0  0  0
  195.9380  171.8280  138.3990 O   0  0  0  0  0  0  0  0  0  0  0  0
  194.7980  175.1330  138.0300 O   0  0  0  0  0  0  0  0  0  0  0  0
  195.5700  174.1920  138.7600 C   0  0  0  0  0  2  0  0  0  0  0  0
  193.6520  171.9250  136.5140 C   0  0  0  0  0  1  0  0  0  0  0  0
  187.3150  174.9770  137.3230 O   0  0  0  0  0  0  0  0  0  0  0  0
  186.6530  174.2100  136.3580 C   0  0  0  0  0  2  0  0  0  0  0  0
  186.2890  172.8590  136.9410 C   0  0  0  0  0  2  0  0  0  0  0  0
  185.5740  173.0460  138.1260 O   0  0  0  0  0  1  0  0  0  0  0  0
  1 29  1  6  0  0  0
  1  2  1  0  0  0  0
  1  8  1  0  0  0  0
  2  7  1  0  0  0  0
  4  6  1  0  0  0  0
  4  2  2  0  0  0  0
  5  3  1  0  0  0  0
  6  5  2  0  0  0  0
  7  3  2  0  0  0  0
  8  9  1  6  0  0  0
 11  8  1  0  0  0  0
 11 10  1  1  0  0  0
 12 11  1  0  0  0  0
 13 12  1  0  0  0  0
 13 14  1  6  0  0  0
 15 16  1  1  0  0  0
 15 24  1  0  0  0  0
 16 21  2  0  0  0  0
 17 20  2  0  0  0  0
 18 13  1  1  0  0  0
 19 18  1  0  0  0  0
 20 19  1  0  0  0  0
 21 25  1  0  0  0  0
 21 23  1  0  0  0  0
 22 28  1  1  0  0  0
 22 20  1  0  0  0  0
 22 15  1  0  0  0  0
 24 18  1  0  0  0  0
 24 23  1  1  0  0  0
 25 26  1  0  0  0  0
 27 28  1  0  0  0  0
 30 29  1  0  0  0  0
 31 30  1  0  0  0  0
 32 31  1  0  0  0  0
 33 32  1  0  0  0  0
 34 33  1  0  0  0  0
 35 32  1  0  0  0  0
 36 35  1  0  0  0  0
 37 36  1  1  0  0  0
 37 38  1  0  0  0  0
 37 52  1  0  0  0  0
 38 39  1  6  0  0  0
 40 44  1  6  0  0  0
 41 40  1  0  0  0  0
 41 38  1  1  0  0  0
 42 41  1  0  0  0  0
 42 40  1  0  0  0  0
 44 43  2  0  0  0  0
 45 47  1  0  0  0  0
 45 46  1  0  0  0  0
 46 48  2  0  0  0  0
 46 50  1  0  0  0  0
 47 43  1  6  0  0  0
 47 49  1  0  0  0  0
 49 50  1  0  0  0  0
 51 45  1  0  0  0  0
 53 54  1  0  0  0  0
 53 52  1  0  0  0  0
 54 55  1  0  0  0  0
M  END
>  <MODEL>
4

>  <REMARK>
 VINA RESULT:      -6.5      2.128      2.914
  Name = 
  23 active torsions:
  status: ('A' for Active; 'I' for Inactive)
    1  A    between atoms: C_5  and  C_8
    2  A    between atoms: C_5  and  C_34
    3  A    between atoms: C_6  and  C_34
    4  A    between atoms: C_7  and  C_50
    5  A    between atoms: C_8  and  C_14
    6  A    between atoms: C_9  and  C_26
    7  A    between atoms: C_12  and  N_23
    8  A    between atoms: C_12  and  C_38
    9  A    between atoms: C_14  and  C_51
   10  A    between atoms: C_17  and  C_20
   11  A    between atoms: C_19  and  C_40
   12  A    between atoms: C_20  and  C_45
   13  A    between atoms: C_22  and  C_51
   14  A    between atoms: N_23  and  C_30
   15  A    between atoms: N_23  and  C_31
   16  A    between atoms: O_28  and  C_34
   17  A    between atoms: O_28  and  C_46
   18  A    between atoms: C_30  and  C_46
   19  A    between atoms: C_32  and  C_36
   20  A    between atoms: C_32  and  O_54
   21  A    between atoms: S_37  and  C_39
   22  A    between atoms: C_38  and  C_45
   23  A    between atoms: C_45  and  O_54
                            x       y       z     vdW  Elec       q    Type
                         _______ _______ _______ _____ _____    ______ ____

>  <TORSDO>
F 23

$$$$
=
 OpenBabel11062412123D

 55 59  0  0  1  0  0  0  0  0999 V2000
  188.4430  177.6170  144.0180 C   0  0  2  0  0  3  0  0  0  0  0  0
  189.4370  177.3700  145.1160 C   0  0  0  0  0  0  0  0  0  0  0  0
  190.0060  177.1080  147.4440 C   0  0  0  0  0  3  0  0  0  0  0  0
  190.7530  177.0400  144.7810 C   0  0  0  0  0  3  0  0  0  0  0  0
  191.2840  176.8000  147.0920 N   0  0  0  0  0  0  0  0  0  0  0  0
  191.6720  176.7600  145.7920 C   0  0  0  0  0  3  0  0  0  0  0  0
  189.0570  177.3890  146.4620 C   0  0  0  0  0  3  0  0  0  0  0  0
  186.9910  177.5290  144.5090 C   0  0  2  0  0  3  0  0  0  0  0  0
  186.4640  176.2470  144.3230 O   0  0  0  0  0  1  0  0  0  0  0  0
  185.2320  179.2740  144.9100 C   0  0  0  0  0  1  0  0  0  0  0  0
  186.1060  178.5950  143.8680 C   0  0  2  0  0  3  0  0  0  0  0  0
  185.3670  178.0850  142.6180 C   0  0  0  0  0  2  0  0  0  0  0  0
  185.3910  178.9920  141.3910 C   0  0  1  0  0  3  0  0  0  0  0  0
  186.7620  178.8450  140.7470 C   0  0  0  0  0  1  0  0  0  0  0  0
  181.8330  177.6490  140.2630 C   0  0  1  0  0  3  0  0  0  0  0  0
  180.7360  178.3320  140.9340 N   0  0  0  0  0  0  0  0  0  0  0  0
  182.2440  180.4120  138.0150 O   0  0  0  0  0  0  0  0  0  0  0  0
  184.2520  178.5950  140.4360 C   0  0  2  0  0  3  0  0  0  0  0  0
  183.7640  179.7160  139.6370 N   0  0  0  0  0  2  0  0  0  0  0  0
  182.6400  179.4990  138.7840 C   0  0  0  0  0  0  0  0  0  0  0  0
  181.1730  178.9300  141.9870 C   0  0  0  0  0  0  0  0  0  0  0  0
  181.9420  178.1690  138.8170 C   0  0  1  0  0  3  0  0  0  0  0  0
  182.5600  178.7740  142.2300 N   0  0  0  0  0  2  0  0  0  0  0  0
  183.0740  177.9180  141.1690 C   0  0  1  0  0  3  0  0  0  0  0  0
  180.1180  179.9280  143.0290 S   0  0  0  0  0  0  0  0  0  0  0  0
  179.3960  180.7790  141.5980 C   0  0  0  0  0  1  0  0  0  0  0  0
  182.3730  175.7330  138.4360 C   0  0  0  0  0  1  0  0  0  0  0  0
  182.6690  177.1450  137.9530 C   0  0  0  0  0  2  0  0  0  0  0  0
  188.6870  176.7430  142.9490 O   0  0  0  0  0  0  0  0  0  0  0  0
  189.3930  177.4980  142.0040 C   0  0  0  0  0  2  0  0  0  0  0  0
  190.1560  176.5870  141.0550 C   0  0  0  0  0  2  0  0  0  0  0  0
  190.9490  177.3670  140.1220 N   0  0  0  0  0  0  0  0  0  0  0  0
  192.1470  177.7340  140.8680 C   0  0  0  0  0  2  0  0  0  0  0  0
  193.2640  177.1530  140.2870 F   0  0  0  0  0  0  0  0  0  0  0  0
  191.3600  176.4320  139.0850 C   0  0  0  0  0  2  0  0  0  0  0  0
  190.1600  175.9830  138.2590 C   0  0  0  0  0  2  0  0  0  0  0  0
  190.1700  176.6550  136.8920 C   0  0  1  0  0  3  0  0  0  0  0  0
  190.6780  175.6670  135.8380 C   0  0  1  0  0  3  0  0  0  0  0  0
  191.7430  176.2270  135.1280 O   0  0  0  0  0  1  0  0  0  0  0  0
  191.7190  173.4820  135.4610 C   0  0  2  0  0  3  0  0  0  0  0  0
  191.1500  174.3790  136.4920 C   0  0  2  0  0  3  0  0  0  0  0  0
  190.4240  173.2890  135.9750 O   0  0  0  0  0  0  0  0  0  0  0  0
  193.9760  172.6590  136.0930 C   0  0  0  0  0  3  0  0  0  0  0  0
  192.6490  172.4980  136.0940 C   0  0  0  0  0  3  0  0  0  0  0  0
  195.2350  174.6770  136.5100 N   0  0  0  0  0  0  0  0  0  0  0  0
  196.5400  174.9280  136.0920 C   0  0  0  0  0  0  0  0  0  0  0  0
  194.6450  173.8460  135.4770 C   0  0  1  0  0  3  0  0  0  0  0  0
  197.3500  175.6750  136.7010 O   0  0  0  0  0  0  0  0  0  0  0  0
  195.6750  173.4150  134.5940 O   0  0  0  0  0  0  0  0  0  0  0  0
  196.8190  174.2140  134.8470 C   0  0  0  0  0  2  0  0  0  0  0  0
  194.4890  175.4920  137.4550 C   0  0  0  0  0  1  0  0  0  0  0  0
  188.8730  177.0770  136.5740 O   0  0  0  0  0  0  0  0  0  0  0  0
  188.3230  176.0240  135.8350 C   0  0  0  0  0  2  0  0  0  0  0  0
  186.8540  175.8760  136.1710 C   0  0  0  0  0  2  0  0  0  0  0  0
  186.7150  175.0080  137.2570 O   0  0  0  0  0  1  0  0  0  0  0  0
  1 29  1  6  0  0  0
  1  8  1  0  0  0  0
  1  2  1  0  0  0  0
  2  7  1  0  0  0  0
  4  2  2  0  0  0  0
  4  6  1  0  0  0  0
  5  3  1  0  0  0  0
  6  5  2  0  0  0  0
  7  3  2  0  0  0  0
  8  9  1  6  0  0  0
 11  8  1  0  0  0  0
 11 10  1  1  0  0  0
 12 11  1  0  0  0  0
 13 14  1  6  0  0  0
 13 12  1  0  0  0  0
 15 16  1  1  0  0  0
 15 24  1  0  0  0  0
 16 21  2  0  0  0  0
 17 20  2  0  0  0  0
 18 24  1  0  0  0  0
 18 13  1  1  0  0  0
 19 18  1  0  0  0  0
 20 22  1  0  0  0  0
 20 19  1  0  0  0  0
 21 23  1  0  0  0  0
 21 25  1  0  0  0  0
 22 28  1  6  0  0  0
 22 15  1  0  0  0  0
 24 23  1  1  0  0  0
 26 25  1  0  0  0  0
 28 27  1  0  0  0  0
 30 29  1  0  0  0  0
 31 30  1  0  0  0  0
 32 33  1  0  0  0  0
 32 31  1  0  0  0  0
 34 33  1  0  0  0  0
 35 32  1  0  0  0  0
 36 35  1  0  0  0  0
 37 36  1  1  0  0  0
 38 39  1  1  0  0  0
 38 37  1  0  0  0  0
 40 42  1  0  0  0  0
 40 44  1  1  0  0  0
 40 41  1  0  0  0  0
 41 38  1  6  0  0  0
 42 41  1  0  0  0  0
 43 44  2  0  0  0  0
 45 51  1  0  0  0  0
 46 45  1  0  0  0  0
 46 48  2  0  0  0  0
 47 43  1  1  0  0  0
 47 45  1  0  0  0  0
 49 50  1  0  0  0  0
 49 47  1  0  0  0  0
 50 46  1  0  0  0  0
 52 37  1  0  0  0  0
 53 54  1  0  0  0  0
 53 52  1  0  0  0  0
 54 55  1  0  0  0  0
M  END
>  <MODEL>
5

>  <REMARK>
 VINA RESULT:      -6.2      1.597      2.222
  Name = 
  23 active torsions:
  status: ('A' for Active; 'I' for Inactive)
    1  A    between atoms: C_5  and  C_8
    2  A    between atoms: C_5  and  C_34
    3  A    between atoms: C_6  and  C_34
    4  A    between atoms: C_7  and  C_50
    5  A    between atoms: C_8  and  C_14
    6  A    between atoms: C_9  and  C_26
    7  A    between atoms: C_12  and  N_23
    8  A    between atoms: C_12  and  C_38
    9  A    between atoms: C_14  and  C_51
   10  A    between atoms: C_17  and  C_20
   11  A    between atoms: C_19  and  C_40
   12  A    between atoms: C_20  and  C_45
   13  A    between atoms: C_22  and  C_51
   14  A    between atoms: N_23  and  C_30
   15  A    between atoms: N_23  and  C_31
   16  A    between atoms: O_28  and  C_34
   17  A    between atoms: O_28  and  C_46
   18  A    between atoms: C_30  and  C_46
   19  A    between atoms: C_32  and  C_36
   20  A    between atoms: C_32  and  O_54
   21  A    between atoms: S_37  and  C_39
   22  A    between atoms: C_38  and  C_45
   23  A    between atoms: C_45  and  O_54
                            x       y       z     vdW  Elec       q    Type
                         _______ _______ _______ _____ _____    ______ ____

>  <TORSDO>
F 23

$$$$
=
 OpenBabel11062412123D

 55 59  0  0  1  0  0  0  0  0999 V2000
  188.4550  177.4690  144.2030 C   0  0  2  0  0  3  0  0  0  0  0  0
  188.4820  177.4870  145.7040 C   0  0  0  0  0  0  0  0  0  0  0  0
  189.6310  177.2400  147.8090 C   0  0  0  0  0  3  0  0  0  0  0  0
  187.3460  177.9100  146.4000 C   0  0  0  0  0  3  0  0  0  0  0  0
  188.5100  177.6440  148.4630 N   0  0  0  0  0  0  0  0  0  0  0  0
  187.3770  177.9780  147.7920 C   0  0  0  0  0  3  0  0  0  0  0  0
  189.6420  177.1630  146.4160 C   0  0  0  0  0  3  0  0  0  0  0  0
  189.8390  177.7180  143.5870 C   0  0  2  0  0  3  0  0  0  0  0  0
  189.9010  178.9600  142.9480 O   0  0  0  0  0  1  0  0  0  0  0  0
  191.0240  175.5120  143.4040 C   0  0  0  0  0  1  0  0  0  0  0  0
  190.2590  176.5870  142.6500 C   0  0  2  0  0  3  0  0  0  0  0  0
  190.9330  177.0970  141.3630 C   0  0  0  0  0  2  0  0  0  0  0  0
  190.1780  176.8640  140.0580 C   0  0  1  0  0  3  0  0  0  0  0  0
  189.7350  178.2260  139.5430 C   0  0  0  0  0  1  0  0  0  0  0  0
  191.1960  174.8390  136.8030 C   0  0  1  0  0  3  0  0  0  0  0  0
  190.7380  175.4780  135.5770 N   0  0  0  0  0  0  0  0  0  0  0  0
  193.9360  177.1390  137.0380 O   0  0  0  0  0  0  0  0  0  0  0  0
  191.0910  176.1320  139.0590 C   0  0  2  0  0  3  0  0  0  0  0  0
  192.1270  176.9950  138.4980 N   0  0  0  0  0  2  0  0  0  0  0  0
  192.9760  176.4590  137.4840 C   0  0  0  0  0  0  0  0  0  0  0  0
  189.8070  176.3250  135.8480 C   0  0  0  0  0  0  0  0  0  0  0  0
  192.7090  175.0760  136.9600 C   0  0  1  0  0  3  0  0  0  0  0  0
  189.4640  176.4170  137.2190 N   0  0  0  0  0  2  0  0  0  0  0  0
  190.2990  175.4520  137.9220 C   0  0  1  0  0  3  0  0  0  0  0  0
  189.0490  177.3490  134.5940 S   0  0  0  0  0  0  0  0  0  0  0  0
  187.4530  176.5030  134.7730 C   0  0  0  0  0  1  0  0  0  0  0  0
  194.8060  174.2200  138.0240 C   0  0  0  0  0  1  0  0  0  0  0  0
  193.3050  174.0170  137.8790 C   0  0  0  0  0  2  0  0  0  0  0  0
  187.5020  178.3840  143.7320 O   0  0  0  0  0  0  0  0  0  0  0  0
  186.5510  177.6130  143.0510 C   0  0  0  0  0  2  0  0  0  0  0  0
  185.5800  178.5080  142.2980 C   0  0  0  0  0  2  0  0  0  0  0  0
  184.2080  178.1020  142.5490 N   0  0  0  0  0  0  0  0  0  0  0  0
  183.7400  179.0030  143.5960 C   0  0  0  0  0  2  0  0  0  0  0  0
  184.5230  180.1460  143.6230 F   0  0  0  0  0  0  0  0  0  0  0  0
  183.4750  178.4380  141.3370 C   0  0  0  0  0  2  0  0  0  0  0  0
  184.2660  178.0270  140.1000 C   0  0  0  0  0  2  0  0  0  0  0  0
  183.7130  178.7170  138.8590 C   0  0  1  0  0  3  0  0  0  0  0  0
  183.9510  177.8350  137.6310 C   0  0  1  0  0  3  0  0  0  0  0  0
  185.3220  177.6840  137.4040 O   0  0  0  0  0  1  0  0  0  0  0  0
  184.2300  175.4300  137.2560 C   0  0  2  0  0  3  0  0  0  0  0  0
  183.3350  176.4590  137.8300 C   0  0  2  0  0  3  0  0  0  0  0  0
  183.0780  175.8670  136.5780 O   0  0  0  0  0  0  0  0  0  0  0  0
  184.3570  172.9500  137.3410 C   0  0  0  0  0  3  0  0  0  0  0  0
  183.9540  174.1030  137.8850 C   0  0  0  0  0  3  0  0  0  0  0  0
  186.5090  172.4990  136.3420 N   0  0  0  0  0  0  0  0  0  0  0  0
  186.7950  171.4720  135.4460 C   0  0  0  0  0  0  0  0  0  0  0  0
  185.1380  172.8890  136.0670 C   0  0  1  0  0  3  0  0  0  0  0  0
  187.9210  170.9180  135.3350 O   0  0  0  0  0  0  0  0  0  0  0  0
  184.5580  171.9300  135.1910 O   0  0  0  0  0  0  0  0  0  0  0  0
  185.6110  171.1480  134.6510 C   0  0  0  0  0  2  0  0  0  0  0  0
  187.5000  173.3350  136.9990 C   0  0  0  0  0  1  0  0  0  0  0  0
  182.3430  178.9490  139.0300 O   0  0  0  0  0  0  0  0  0  0  0  0
  182.2070  180.3410  139.0000 C   0  0  0  0  0  2  0  0  0  0  0  0
  181.5220  180.7590  137.7150 C   0  0  0  0  0  2  0  0  0  0  0  0
  180.6470  181.8140  137.9810 O   0  0  0  0  0  1  0  0  0  0  0  0
  1 29  1  6  0  0  0
  1  2  1  0  0  0  0
  2  4  2  0  0  0  0
  2  7  1  0  0  0  0
  3  5  1  0  0  0  0
  4  6  1  0  0  0  0
  6  5  2  0  0  0  0
  7  3  2  0  0  0  0
  8  9  1  6  0  0  0
  8  1  1  0  0  0  0
 11 10  1  1  0  0  0
 11  8  1  0  0  0  0
 12 11  1  0  0  0  0
 13 14  1  6  0  0  0
 13 12  1  0  0  0  0
 15 16  1  6  0  0  0
 15 22  1  0  0  0  0
 15 24  1  0  0  0  0
 16 21  2  0  0  0  0
 17 20  2  0  0  0  0
 18 13  1  6  0  0  0
 19 18  1  0  0  0  0
 20 19  1  0  0  0  0
 21 23  1  0  0  0  0
 22 20  1  0  0  0  0
 22 28  1  1  0  0  0
 24 23  1  6  0  0  0
 24 18  1  0  0  0  0
 25 26  1  0  0  0  0
 25 21  1  0  0  0  0
 28 27  1  0  0  0  0
 30 29  1  0  0  0  0
 31 32  1  0  0  0  0
 31 30  1  0  0  0  0
 32 33  1  0  0  0  0
 33 34  1  0  0  0  0
 35 32  1  0  0  0  0
 36 35  1  0  0  0  0
 37 52  1  0  0  0  0
 37 36  1  1  0  0  0
 38 39  1  1  0  0  0
 38 37  1  0  0  0  0
 40 41  1  0  0  0  0
 40 44  1  1  0  0  0
 41 38  1  6  0  0  0
 42 40  1  0  0  0  0
 42 41  1  0  0  0  0
 43 44  2  0  0  0  0
 45 51  1  0  0  0  0
 46 45  1  0  0  0  0
 47 45  1  0  0  0  0
 47 43  1  1  0  0  0
 48 46  2  0  0  0  0
 49 47  1  0  0  0  0
 50 49  1  0  0  0  0
 50 46  1  0  0  0  0
 53 52  1  0  0  0  0
 54 55  1  0  0  0  0
 54 53  1  0  0  0  0
M  END
>  <MODEL>
6

>  <REMARK>
 VINA RESULT:      -6.0      3.550      8.223
  Name = 
  23 active torsions:
  status: ('A' for Active; 'I' for Inactive)
    1  A    between atoms: C_5  and  C_8
    2  A    between atoms: C_5  and  C_34
    3  A    between atoms: C_6  and  C_34
    4  A    between atoms: C_7  and  C_50
    5  A    between atoms: C_8  and  C_14
    6  A    between atoms: C_9  and  C_26
    7  A    between atoms: C_12  and  N_23
    8  A    between atoms: C_12  and  C_38
    9  A    between atoms: C_14  and  C_51
   10  A    between atoms: C_17  and  C_20
   11  A    between atoms: C_19  and  C_40
   12  A    between atoms: C_20  and  C_45
   13  A    between atoms: C_22  and  C_51
   14  A    between atoms: N_23  and  C_30
   15  A    between atoms: N_23  and  C_31
   16  A    between atoms: O_28  and  C_34
   17  A    between atoms: O_28  and  C_46
   18  A    between atoms: C_30  and  C_46
   19  A    between atoms: C_32  and  C_36
   20  A    between atoms: C_32  and  O_54
   21  A    between atoms: S_37  and  C_39
   22  A    between atoms: C_38  and  C_45
   23  A    between atoms: C_45  and  O_54
                            x       y       z     vdW  Elec       q    Type
                         _______ _______ _______ _____ _____    ______ ____

>  <TORSDO>
F 23

$$$$
=
 OpenBabel11062412123D

 55 59  0  0  1  0  0  0  0  0999 V2000
  187.9110  177.2970  137.8270 C   0  0  2  0  0  3  0  0  0  0  0  0
  188.9250  176.5710  136.9910 C   0  0  0  0  0  0  0  0  0  0  0  0
  190.3190  176.3820  135.0330 C   0  0  0  0  0  3  0  0  0  0  0  0
  189.5210  175.4130  137.4980 C   0  0  0  0  0  3  0  0  0  0  0  0
  190.8760  175.2510  135.5440 N   0  0  0  0  0  0  0  0  0  0  0  0
  190.5000  174.7580  136.7520 C   0  0  0  0  0  3  0  0  0  0  0  0
  189.3400  177.0690  135.7510 C   0  0  0  0  0  3  0  0  0  0  0  0
  186.5540  177.4300  137.1210 C   0  0  2  0  0  3  0  0  0  0  0  0
  186.0530  178.7320  137.2140 O   0  0  0  0  0  1  0  0  0  0  0  0
  185.7340  175.0640  136.9430 C   0  0  0  0  0  1  0  0  0  0  0  0
  185.5420  176.4060  137.6310 C   0  0  2  0  0  3  0  0  0  0  0  0
  184.1000  176.9440  137.6380 C   0  0  0  0  0  2  0  0  0  0  0  0
  183.3390  176.8800  136.3170 C   0  0  1  0  0  3  0  0  0  0  0  0
  182.8440  175.4510  136.1490 C   0  0  0  0  0  1  0  0  0  0  0  0
  179.6150  178.2170  136.5830 C   0  0  1  0  0  3  0  0  0  0  0  0
  178.9360  177.7560  137.7870 N   0  0  0  0  0  0  0  0  0  0  0  0
  181.3570  180.7230  138.4660 O   0  0  0  0  0  0  0  0  0  0  0  0
  182.1860  177.8980  136.3380 C   0  0  2  0  0  3  0  0  0  0  0  0
  182.3100  178.8740  137.4180 N   0  0  0  0  0  2  0  0  0  0  0  0
  181.2500  179.8110  137.6060 C   0  0  0  0  0  0  0  0  0  0  0  0
  179.5580  176.7400  138.2760 C   0  0  0  0  0  0  0  0  0  0  0  0
  180.0110  179.6950  136.7630 C   0  0  1  0  0  3  0  0  0  0  0  0
  180.7020  176.3320  137.5460 N   0  0  0  0  0  2  0  0  0  0  0  0
  180.8000  177.2210  136.3960 C   0  0  1  0  0  3  0  0  0  0  0  0
  179.0500  175.9460  139.7940 S   0  0  0  0  0  0  0  0  0  0  0  0
  180.6670  175.1480  139.9970 C   0  0  0  0  0  1  0  0  0  0  0  0
  180.6290  181.8000  135.5590 C   0  0  0  0  0  1  0  0  0  0  0  0
  180.2120  180.3460  135.4000 C   0  0  0  0  0  2  0  0  0  0  0  0
  188.4200  178.5430  138.2190 O   0  0  0  0  0  0  0  0  0  0  0  0
  189.3500  178.2640  139.2280 C   0  0  0  0  0  2  0  0  0  0  0  0
  188.6560  178.1430  140.5760 C   0  0  0  0  0  2  0  0  0  0  0  0
  189.2100  177.0400  141.3410 N   0  0  0  0  0  0  0  0  0  0  0  0
  190.5220  176.8000  140.7500 C   0  0  0  0  0  2  0  0  0  0  0  0
  191.5160  177.2500  141.6060 F   0  0  0  0  0  0  0  0  0  0  0  0
  189.4330  177.5680  142.6790 C   0  0  0  0  0  2  0  0  0  0  0  0
  189.0300  176.5450  143.7340 C   0  0  0  0  0  2  0  0  0  0  0  0
  188.9770  177.1920  145.1130 C   0  0  1  0  0  3  0  0  0  0  0  0
  187.5270  177.2390  145.6030 C   0  0  1  0  0  3  0  0  0  0  0  0
  187.4910  177.2220  147.0000 O   0  0  0  0  0  1  0  0  0  0  0  0
  185.4020  178.2120  144.8710 C   0  0  2  0  0  3  0  0  0  0  0  0
  186.8340  178.4990  145.1110 C   0  0  2  0  0  3  0  0  0  0  0  0
  186.3270  178.2880  143.8150 O   0  0  0  0  0  0  0  0  0  0  0  0
  183.5170  179.6740  144.1780 C   0  0  0  0  0  3  0  0  0  0  0  0
  184.6100  179.4790  144.9210 C   0  0  0  0  0  3  0  0  0  0  0  0
  181.5630  178.8610  143.0160 N   0  0  0  0  0  0  0  0  0  0  0  0
  181.3950  178.8100  141.6340 C   0  0  0  0  0  0  0  0  0  0  0  0
  182.9770  178.6350  143.2480 C   0  0  1  0  0  3  0  0  0  0  0  0
  180.2830  178.8970  141.0490 O   0  0  0  0  0  0  0  0  0  0  0  0
  183.6600  178.7010  142.0020 O   0  0  0  0  0  0  0  0  0  0  0  0
  182.6870  178.6270  140.9730 C   0  0  0  0  0  2  0  0  0  0  0  0
  180.5090  178.6420  143.9930 C   0  0  0  0  0  1  0  0  0  0  0  0
  189.7640  176.4500  146.0010 O   0  0  0  0  0  0  0  0  0  0  0  0
  191.0770  176.6230  145.5490 C   0  0  0  0  0  2  0  0  0  0  0  0
  192.0500  176.2830  146.6590 C   0  0  0  0  0  2  0  0  0  0  0  0
  191.3550  175.6870  147.7140 O   0  0  0  0  0  1  0  0  0  0  0  0
  1 29  1  6  0  0  0
  2  4  1  0  0  0  0
  2  1  1  0  0  0  0
  3  5  2  0  0  0  0
  3  7  1  0  0  0  0
  5  6  1  0  0  0  0
  6  4  2  0  0  0  0
  7  2  2  0  0  0  0
  8  9  1  1  0  0  0
  8 11  1  0  0  0  0
  8  1  1  0  0  0  0
 11 10  1  6  0  0  0
 11 12  1  0  0  0  0
 13 14  1  1  0  0  0
 13 12  1  0  0  0  0
 15 22  1  0  0  0  0
 15 16  1  1  0  0  0
 16 21  2  0  0  0  0
 18 13  1  1  0  0  0
 18 24  1  0  0  0  0
 18 19  1  0  0  0  0
 19 20  1  0  0  0  0
 20 17  2  0  0  0  0
 21 25  1  0  0  0  0
 22 28  1  6  0  0  0
 22 20  1  0  0  0  0
 23 21  1  0  0  0  0
 24 15  1  0  0  0  0
 24 23  1  1  0  0  0
 25 26  1  0  0  0  0
 28 27  1  0  0  0  0
 29 30  1  0  0  0  0
 30 31  1  0  0  0  0
 31 32  1  0  0  0  0
 32 35  1  0  0  0  0
 33 32  1  0  0  0  0
 33 34  1  0  0  0  0
 35 36  1  0  0  0  0
 37 36  1  6  0  0  0
 37 38  1  0  0  0  0
 37 52  1  0  0  0  0
 38 39  1  1  0  0  0
 40 44  1  6  0  0  0
 40 41  1  0  0  0  0
 41 38  1  1  0  0  0
 42 40  1  0  0  0  0
 42 41  1  0  0  0  0
 43 44  2  0  0  0  0
 45 47  1  0  0  0  0
 45 51  1  0  0  0  0
 46 45  1  0  0  0  0
 47 43  1  1  0  0  0
 48 46  2  0  0  0  0
 49 47  1  0  0  0  0
 50 46  1  0  0  0  0
 50 49  1  0  0  0  0
 53 52  1  0  0  0  0
 53 54  1  0  0  0  0
 54 55  1  0  0  0  0
M  END
>  <MODEL>
7

>  <REMARK>
 VINA RESULT:      -5.8      3.643      9.519
  Name = 
  23 active torsions:
  status: ('A' for Active; 'I' for Inactive)
    1  A    between atoms: C_5  and  C_8
    2  A    between atoms: C_5  and  C_34
    3  A    between atoms: C_6  and  C_34
    4  A    between atoms: C_7  and  C_50
    5  A    between atoms: C_8  and  C_14
    6  A    between atoms: C_9  and  C_26
    7  A    between atoms: C_12  and  N_23
    8  A    between atoms: C_12  and  C_38
    9  A    between atoms: C_14  and  C_51
   10  A    between atoms: C_17  and  C_20
   11  A    between atoms: C_19  and  C_40
   12  A    between atoms: C_20  and  C_45
   13  A    between atoms: C_22  and  C_51
   14  A    between atoms: N_23  and  C_30
   15  A    between atoms: N_23  and  C_31
   16  A    between atoms: O_28  and  C_34
   17  A    between atoms: O_28  and  C_46
   18  A    between atoms: C_30  and  C_46
   19  A    between atoms: C_32  and  C_36
   20  A    between atoms: C_32  and  O_54
   21  A    between atoms: S_37  and  C_39
   22  A    between atoms: C_38  and  C_45
   23  A    between atoms: C_45  and  O_54
                            x       y       z     vdW  Elec       q    Type
                         _______ _______ _______ _____ _____    ______ ____

>  <TORSDO>
F 23

$$$$
=
 OpenBabel11062412123D

 55 59  0  0  1  0  0  0  0  0999 V2000
  183.1630  179.0710  143.1000 C   0  0  2  0  0  3  0  0  0  0  0  0
  184.1460  178.7470  144.1880 C   0  0  0  0  0  0  0  0  0  0  0  0
  184.7760  178.6200  146.5110 C   0  0  0  0  0  3  0  0  0  0  0  0
  185.3530  178.1260  143.8500 C   0  0  0  0  0  3  0  0  0  0  0  0
  185.9480  178.0270  146.1560 N   0  0  0  0  0  0  0  0  0  0  0  0
  186.2520  177.7740  144.8570 C   0  0  0  0  0  3  0  0  0  0  0  0
  183.8490  178.9820  145.5350 C   0  0  0  0  0  3  0  0  0  0  0  0
  181.7100  179.0430  143.5960 C   0  0  2  0  0  3  0  0  0  0  0  0
  181.3890  177.8110  144.1730 O   0  0  0  0  0  1  0  0  0  0  0  0
  179.7340  180.4620  142.9770 C   0  0  0  0  0  1  0  0  0  0  0  0
  180.7230  179.4150  142.4910 C   0  0  2  0  0  3  0  0  0  0  0  0
  180.0990  178.1850  141.8080 C   0  0  0  0  0  2  0  0  0  0  0  0
  179.5420  178.3920  140.4030 C   0  0  1  0  0  3  0  0  0  0  0  0
  180.2320  179.6160  139.8180 C   0  0  0  0  0  1  0  0  0  0  0  0
  179.5270  176.0330  137.2140 C   0  0  1  0  0  3  0  0  0  0  0  0
  180.1390  176.6580  136.0490 N   0  0  0  0  0  0  0  0  0  0  0  0
  182.7600  175.2900  138.5750 O   0  0  0  0  0  0  0  0  0  0  0  0
  179.7860  177.1270  139.5620 C   0  0  2  0  0  3  0  0  0  0  0  0
  181.1990  176.7760  139.4590 N   0  0  0  0  0  2  0  0  0  0  0  0
  181.5640  175.6790  138.6220 C   0  0  0  0  0  0  0  0  0  0  0  0
  180.1940  177.9330  136.2170 C   0  0  0  0  0  0  0  0  0  0  0  0
  180.5040  174.9990  137.8030 C   0  0  1  0  0  3  0  0  0  0  0  0
  179.6590  178.3980  137.4440 N   0  0  0  0  0  2  0  0  0  0  0  0
  179.1630  177.2250  138.1520 C   0  0  1  0  0  3  0  0  0  0  0  0
  180.9450  179.0260  135.0180 S   0  0  0  0  0  0  0  0  0  0  0  0
  180.8320  180.4460  136.1410 C   0  0  0  0  0  1  0  0  0  0  0  0
  180.0800  172.5640  138.1940 C   0  0  0  0  0  1  0  0  0  0  0  0
  179.7370  173.9790  138.6360 C   0  0  0  0  0  2  0  0  0  0  0  0
  183.3590  178.2150  142.0080 O   0  0  0  0  0  0  0  0  0  0  0  0
  183.6060  179.0550  140.9150 C   0  0  0  0  0  2  0  0  0  0  0  0
  184.9050  178.6680  140.2260 C   0  0  0  0  0  2  0  0  0  0  0  0
  184.6520  178.2290  138.8650 N   0  0  0  0  0  0  0  0  0  0  0  0
  183.4760  178.9820  138.4450 C   0  0  0  0  0  2  0  0  0  0  0  0
  183.7440  180.3410  138.4810 F   0  0  0  0  0  0  0  0  0  0  0  0
  185.7770  178.7210  138.0830 C   0  0  0  0  0  2  0  0  0  0  0  0
  186.5060  177.5670  137.4050 C   0  0  0  0  0  2  0  0  0  0  0  0
  187.8330  178.0400  136.8260 C   0  0  1  0  0  3  0  0  0  0  0  0
  188.8910  178.0810  137.9320 C   0  0  1  0  0  3  0  0  0  0  0  0
  189.0650  179.3920  138.3820 O   0  0  0  0  0  1  0  0  0  0  0  0
  189.0420  177.7660  140.3560 C   0  0  2  0  0  3  0  0  0  0  0  0
  188.4740  177.2120  139.1070 C   0  0  2  0  0  3  0  0  0  0  0  0
  189.6140  176.6530  139.7140 O   0  0  0  0  0  0  0  0  0  0  0  0
  188.8180  176.8870  142.6690 C   0  0  0  0  0  3  0  0  0  0  0  0
  188.2480  177.2970  141.5330 C   0  0  0  0  0  3  0  0  0  0  0  0
  190.6350  177.5470  144.1160 N   0  0  0  0  0  0  0  0  0  0  0  0
  191.5040  176.6860  144.7830 C   0  0  0  0  0  0  0  0  0  0  0  0
  190.3000  176.8800  142.8720 C   0  0  1  0  0  3  0  0  0  0  0  0
  192.0670  176.9510  145.8780 O   0  0  0  0  0  0  0  0  0  0  0  0
  190.7730  175.5400  142.9310 O   0  0  0  0  0  0  0  0  0  0  0  0
  191.6750  175.4490  144.0210 C   0  0  0  0  0  2  0  0  0  0  0  0
  190.5330  178.9780  144.3530 C   0  0  0  0  0  1  0  0  0  0  0  0
  188.2310  177.1650  135.8080 O   0  0  0  0  0  0  0  0  0  0  0  0
  187.4210  176.0350  135.9670 C   0  0  0  0  0  2  0  0  0  0  0  0
  188.2690  174.7820  135.8950 C   0  0  0  0  0  2  0  0  0  0  0  0
  187.8590  173.8900  136.8870 O   0  0  0  0  0  1  0  0  0  0  0  0
  1 29  1  6  0  0  0
  1  8  1  0  0  0  0
  1  2  1  0  0  0  0
  2  7  1  0  0  0  0
  4  2  2  0  0  0  0
  4  6  1  0  0  0  0
  5  3  1  0  0  0  0
  6  5  2  0  0  0  0
  7  3  2  0  0  0  0
  8  9  1  6  0  0  0
 11 10  1  1  0  0  0
 11  8  1  0  0  0  0
 12 11  1  0  0  0  0
 13 14  1  6  0  0  0
 13 12  1  0  0  0  0
 15 16  1  6  0  0  0
 15 22  1  0  0  0  0
 15 24  1  0  0  0  0
 16 21  2  0  0  0  0
 17 20  2  0  0  0  0
 18 13  1  6  0  0  0
 19 18  1  0  0  0  0
 20 19  1  0  0  0  0
 21 23  1  0  0  0  0
 22 20  1  0  0  0  0
 22 28  1  1  0  0  0
 24 23  1  6  0  0  0
 24 18  1  0  0  0  0
 25 26  1  0  0  0  0
 25 21  1  0  0  0  0
 27 28  1  0  0  0  0
 30 29  1  0  0  0  0
 31 30  1  0  0  0  0
 32 31  1  0  0  0  0
 33 34  1  0  0  0  0
 33 32  1  0  0  0  0
 35 32  1  0  0  0  0
 36 35  1  0  0  0  0
 37 36  1  1  0  0  0
 37 38  1  0  0  0  0
 38 39  1  1  0  0  0
 40 44  1  1  0  0  0
 41 38  1  6  0  0  0
 41 42  1  0  0  0  0
 41 40  1  0  0  0  0
 42 40  1  0  0  0  0
 44 43  2  0  0  0  0
 45 51  1  0  0  0  0
 45 46  1  0  0  0  0
 46 48  2  0  0  0  0
 47 43  1  1  0  0  0
 47 49  1  0  0  0  0
 47 45  1  0  0  0  0
 49 50  1  0  0  0  0
 50 46  1  0  0  0  0
 52 53  1  0  0  0  0
 52 37  1  0  0  0  0
 54 53  1  0  0  0  0
 54 55  1  0  0  0  0
M  END
>  <MODEL>
8

>  <REMARK>
 VINA RESULT:      -5.7      4.327      6.452
  Name = 
  23 active torsions:
  status: ('A' for Active; 'I' for Inactive)
    1  A    between atoms: C_5  and  C_8
    2  A    between atoms: C_5  and  C_34
    3  A    between atoms: C_6  and  C_34
    4  A    between atoms: C_7  and  C_50
    5  A    between atoms: C_8  and  C_14
    6  A    between atoms: C_9  and  C_26
    7  A    between atoms: C_12  and  N_23
    8  A    between atoms: C_12  and  C_38
    9  A    between atoms: C_14  and  C_51
   10  A    between atoms: C_17  and  C_20
   11  A    between atoms: C_19  and  C_40
   12  A    between atoms: C_20  and  C_45
   13  A    between atoms: C_22  and  C_51
   14  A    between atoms: N_23  and  C_30
   15  A    between atoms: N_23  and  C_31
   16  A    between atoms: O_28  and  C_34
   17  A    between atoms: O_28  and  C_46
   18  A    between atoms: C_30  and  C_46
   19  A    between atoms: C_32  and  C_36
   20  A    between atoms: C_32  and  O_54
   21  A    between atoms: S_37  and  C_39
   22  A    between atoms: C_38  and  C_45
   23  A    between atoms: C_45  and  O_54
                            x       y       z     vdW  Elec       q    Type
                         _______ _______ _______ _____ _____    ______ ____

>  <TORSDO>
F 23

$$$$
=
 OpenBabel11062412123D

 55 59  0  0  1  0  0  0  0  0999 V2000
  183.7690  178.5570  142.3930 C   0  0  2  0  0  3  0  0  0  0  0  0
  182.2720  178.5880  142.4960 C   0  0  0  0  0  0  0  0  0  0  0  0
  180.0730  178.1980  141.5880 C   0  0  0  0  0  3  0  0  0  0  0  0
  181.6810  178.9420  143.7130 C   0  0  0  0  0  3  0  0  0  0  0  0
  179.5220  178.5580  142.7790 N   0  0  0  0  0  0  0  0  0  0  0  0
  180.2920  178.9260  143.8350 C   0  0  0  0  0  3  0  0  0  0  0  0
  181.4580  178.1970  141.4270 C   0  0  0  0  0  3  0  0  0  0  0  0
  184.4540  179.2300  143.5910 C   0  0  2  0  0  3  0  0  0  0  0  0
  185.4800  180.0870  143.1810 O   0  0  0  0  0  1  0  0  0  0  0  0
  184.7090  178.6940  146.0300 C   0  0  0  0  0  1  0  0  0  0  0  0
  184.9550  178.2090  144.6110 C   0  0  2  0  0  3  0  0  0  0  0  0
  186.3850  177.7240  144.3170 C   0  0  0  0  0  2  0  0  0  0  0  0
  187.4430  178.0320  145.3730 C   0  0  1  0  0  3  0  0  0  0  0  0
  187.0070  177.3490  146.6620 C   0  0  0  0  0  1  0  0  0  0  0  0
  190.1010  176.3290  142.9710 C   0  0  1  0  0  3  0  0  0  0  0  0
  190.0590  176.8640  141.6170 N   0  0  0  0  0  0  0  0  0  0  0  0
  191.9540  179.1860  144.0950 O   0  0  0  0  0  0  0  0  0  0  0  0
  188.8160  177.5370  144.8860 C   0  0  2  0  0  3  0  0  0  0  0  0
  189.7820  178.6180  144.7180 N   0  0  0  0  0  2  0  0  0  0  0  0
  191.0630  178.3010  144.1740 C   0  0  0  0  0  0  0  0  0  0  0  0
  188.9420  177.4750  141.4240 C   0  0  0  0  0  0  0  0  0  0  0  0
  191.3310  176.9000  143.7010 C   0  0  1  0  0  3  0  0  0  0  0  0
  188.0590  177.4710  142.5320 N   0  0  0  0  0  2  0  0  0  0  0  0
  188.7190  176.7100  143.5860 C   0  0  1  0  0  3  0  0  0  0  0  0
  188.5630  178.3170  139.8940 S   0  0  0  0  0  0  0  0  0  0  0  0
  189.4800  177.0930  138.9160 C   0  0  0  0  0  1  0  0  0  0  0  0
  191.5860  176.7360  146.1850 C   0  0  0  0  0  1  0  0  0  0  0  0
  191.7100  175.9910  144.8640 C   0  0  0  0  0  2  0  0  0  0  0  0
  184.1760  179.1200  141.1750 O   0  0  0  0  0  0  0  0  0  0  0  0
  184.5200  178.0340  140.3600 C   0  0  0  0  0  2  0  0  0  0  0  0
  184.9060  178.5120  138.9690 C   0  0  0  0  0  2  0  0  0  0  0  0
  184.8460  177.4190  138.0160 N   0  0  0  0  0  0  0  0  0  0  0  0
  183.6620  177.6950  137.2090 C   0  0  0  0  0  2  0  0  0  0  0  0
  182.6840  176.7450  137.4610 F   0  0  0  0  0  0  0  0  0  0  0  0
  186.0030  177.5930  137.1500 C   0  0  0  0  0  2  0  0  0  0  0  0
  186.5700  176.2410  136.7330 C   0  0  0  0  0  2  0  0  0  0  0  0
  186.9050  176.2370  135.2470 C   0  0  1  0  0  3  0  0  0  0  0  0
  188.3860  175.9010  135.0540 C   0  0  1  0  0  3  0  0  0  0  0  0
  189.1790  176.9860  135.4370 O   0  0  0  0  0  1  0  0  0  0  0  0
  190.0260  174.1070  135.3560 C   0  0  2  0  0  3  0  0  0  0  0  0
  188.7760  174.6920  135.8890 C   0  0  2  0  0  3  0  0  0  0  0  0
  188.7690  173.5360  135.0860 O   0  0  0  0  0  0  0  0  0  0  0  0
  192.0370  173.3060  136.5760 C   0  0  0  0  0  3  0  0  0  0  0  0
  190.7090  173.3050  136.4170 C   0  0  0  0  0  3  0  0  0  0  0  0
  193.4910  175.2310  136.4900 N   0  0  0  0  0  0  0  0  0  0  0  0
  194.8660  175.2080  136.2700 C   0  0  0  0  0  0  0  0  0  0  0  0
  192.9520  174.1240  135.7230 C   0  0  1  0  0  3  0  0  0  0  0  0
  195.6730  176.0640  136.7200 O   0  0  0  0  0  0  0  0  0  0  0  0
  194.0310  173.3190  135.2630 O   0  0  0  0  0  0  0  0  0  0  0  0
  195.2260  174.0640  135.4330 C   0  0  0  0  0  2  0  0  0  0  0  0
  192.7350  176.3930  136.9260 C   0  0  0  0  0  1  0  0  0  0  0  0
  186.1050  175.2910  134.5960 O   0  0  0  0  0  0  0  0  0  0  0  0
  185.4300  174.6220  135.6230 C   0  0  0  0  0  2  0  0  0  0  0  0
  185.3420  173.1440  135.2990 C   0  0  0  0  0  2  0  0  0  0  0  0
  185.4520  172.4070  136.4790 O   0  0  0  0  0  1  0  0  0  0  0  0
  1 29  1  6  0  0  0
  1  2  1  0  0  0  0
  1  8  1  0  0  0  0
  2  4  1  0  0  0  0
  3  5  2  0  0  0  0
  4  6  2  0  0  0  0
  5  6  1  0  0  0  0
  7  3  1  0  0  0  0
  7  2  2  0  0  0  0
  8  9  1  6  0  0  0
  8 11  1  0  0  0  0
 11 10  1  1  0  0  0
 12 11  1  0  0  0  0
 12 13  1  0  0  0  0
 13 14  1  1  0  0  0
 15 16  1  6  0  0  0
 15 24  1  0  0  0  0
 15 22  1  0  0  0  0
 17 20  2  0  0  0  0
 18 13  1  6  0  0  0
 19 18  1  0  0  0  0
 20 19  1  0  0  0  0
 21 16  2  0  0  0  0
 21 23  1  0  0  0  0
 22 20  1  0  0  0  0
 22 28  1  1  0  0  0
 24 23  1  6  0  0  0
 24 18  1  0  0  0  0
 25 21  1  0  0  0  0
 26 25  1  0  0  0  0
 28 27  1  0  0  0  0
 30 29  1  0  0  0  0
 31 30  1  0  0  0  0
 32 31  1  0  0  0  0
 33 34  1  0  0  0  0
 33 32  1  0  0  0  0
 35 32  1  0  0  0  0
 36 35  1  0  0  0  0
 37 36  1  1  0  0  0
 38 37  1  0  0  0  0
 38 39  1  1  0  0  0
 40 41  1  0  0  0  0
 40 44  1  1  0  0  0
 41 38  1  6  0  0  0
 42 40  1  0  0  0  0
 42 41  1  0  0  0  0
 44 43  2  0  0  0  0
 45 51  1  0  0  0  0
 46 45  1  0  0  0  0
 46 48  2  0  0  0  0
 47 45  1  0  0  0  0
 47 43  1  1  0  0  0
 49 50  1  0  0  0  0
 49 47  1  0  0  0  0
 50 46  1  0  0  0  0
 52 37  1  0  0  0  0
 52 53  1  0  0  0  0
 54 53  1  0  0  0  0
 54 55  1  0  0  0  0
M  END
>  <MODEL>
9

>  <REMARK>
 VINA RESULT:      -5.7      3.010      6.740
  Name = 
  23 active torsions:
  status: ('A' for Active; 'I' for Inactive)
    1  A    between atoms: C_5  and  C_8
    2  A    between atoms: C_5  and  C_34
    3  A    between atoms: C_6  and  C_34
    4  A    between atoms: C_7  and  C_50
    5  A    between atoms: C_8  and  C_14
    6  A    between atoms: C_9  and  C_26
    7  A    between atoms: C_12  and  N_23
    8  A    between atoms: C_12  and  C_38
    9  A    between atoms: C_14  and  C_51
   10  A    between atoms: C_17  and  C_20
   11  A    between atoms: C_19  and  C_40
   12  A    between atoms: C_20  and  C_45
   13  A    between atoms: C_22  and  C_51
   14  A    between atoms: N_23  and  C_30
   15  A    between atoms: N_23  and  C_31
   16  A    between atoms: O_28  and  C_34
   17  A    between atoms: O_28  and  C_46
   18  A    between atoms: C_30  and  C_46
   19  A    between atoms: C_32  and  C_36
   20  A    between atoms: C_32  and  O_54
   21  A    between atoms: S_37  and  C_39
   22  A    between atoms: C_38  and  C_45
   23  A    between atoms: C_45  and  O_54
                            x       y       z     vdW  Elec       q    Type
                         _______ _______ _______ _____ _____    ______ ____

>  <TORSDO>
F 23

$$$$
