=
 OpenBabel11062418023D

 58 63  0  0  1  0  0  0  0  0999 V2000
  182.5380  178.9900  143.0920 C   0  0  0  0  0  0  0  0  0  0  0  0
  180.8390  179.2810  140.3930 C   0  0  0  0  0  2  0  0  0  0  0  0
  183.5020  178.8190  142.1510 C   0  0  0  0  0  0  0  0  0  0  0  0
  181.1350  179.3980  142.7610 C   0  0  0  0  0  2  0  0  0  0  0  0
  180.6190  178.5880  141.6660 N   0  0  0  0  0  2  0  0  0  0  0  0
  183.2590  178.9940  140.6630 C   0  0  2  0  0  3  0  0  0  0  0  0
  184.1360  178.5000  144.8450 N   0  0  0  0  0  0  0  0  0  0  0  0
  182.8590  178.8380  144.4420 O   0  0  0  0  0  0  0  0  0  0  0  0
  184.8800  178.4440  142.5730 C   0  0  0  0  0  0  0  0  0  0  0  0
  182.1670  179.9100  140.3120 N   0  0  0  0  0  2  0  0  0  0  0  0
  185.1610  178.2950  143.8730 C   0  0  0  0  0  3  0  0  0  0  0  0
  182.5520  176.5770  140.3170 C   0  0  0  0  0  3  0  0  0  0  0  0
  180.3010  174.0050  138.2110 O   0  0  0  0  0  0  0  0  0  0  0  0
  181.2990  174.4470  137.5800 C   0  0  0  0  0  0  0  0  0  0  0  0
  183.5040  175.5400  137.5830 C   0  0  0  0  0  3  0  0  0  0  0  0
  182.0780  175.5330  139.6420 C   0  0  0  0  0  3  0  0  0  0  0  0
  184.9140  178.9240  138.3580 C   0  0  0  0  0  1  0  0  0  0  0  0
  184.3020  176.5800  137.8070 C   0  0  0  0  0  3  0  0  0  0  0  0
  183.3250  177.7340  139.8180 C   0  0  0  0  0  0  0  0  0  0  0  0
  182.2570  175.2930  138.2420 N   0  0  0  0  0  0  0  0  0  0  0  0
  184.1010  177.7210  138.7140 C   0  0  0  0  0  0  0  0  0  0  0  0
  182.4340  173.0700  136.0000 O   0  0  0  0  0  0  0  0  0  0  0  0
  180.5850  172.4520  134.6530 C   0  0  0  0  0  2  0  0  0  0  0  0
  180.1650  173.5820  135.5460 C   0  0  0  0  0  2  0  0  0  0  0  0
  181.4660  174.0800  136.1360 C   0  0  1  0  0  3  0  0  0  0  0  0
  182.0890  172.4090  134.8110 C   0  0  0  0  0  2  0  0  0  0  0  0
  185.8690  178.2660  141.5960 O   0  0  0  0  0  0  0  0  0  0  0  0
  187.7090  176.7530  142.9810 O   0  0  0  0  0  0  0  0  0  0  0  0
  187.4990  177.8340  141.9470 P   0  0  1  0  0  4  0  0  0  0  0  0
  188.8900  178.3890  140.9150 C   0  0  0  0  0  2  0  0  0  0  0  0
  188.3940  178.7460  139.5230 C   0  0  0  0  0  2  0  0  0  0  0  0
  188.6580  176.8060  138.2360 C   0  0  0  0  0  2  0  0  0  0  0  0
  189.0230  177.9340  136.1490 C   0  0  0  0  0  2  0  0  0  0  0  0
  189.2380  178.1160  138.5210 N   0  0  0  0  0  0  0  0  0  0  0  0
  188.3780  176.7120  136.7510 C   0  0  1  0  0  3  0  0  0  0  0  0
  189.1150  178.9000  137.3010 C   0  0  0  0  0  2  0  0  0  0  0  0
  187.9850  171.8220  136.7140 O   0  0  0  0  0  1  0  0  0  0  0  0
  188.0060  174.1790  136.4110 C   0  0  1  0  0  3  0  0  0  0  0  0
  190.7480  173.1470  134.9180 O   0  0  0  0  0  0  0  0  0  0  0  0
  189.3030  175.5130  134.7590 N   0  0  0  0  0  2  0  0  0  0  0  0
  188.2050  172.5920  134.5940 O   0  0  0  0  0  1  0  0  0  0  0  0
  188.9160  175.3980  136.1660 C   0  0  1  0  0  3  0  0  0  0  0  0
  191.4120  174.3190  135.3060 C   0  0  2  0  0  3  0  0  0  0  0  0
  190.0830  172.7040  136.0710 C   0  0  0  0  0  2  0  0  0  0  0  0
  186.5730  174.4020  135.9390 C   0  0  0  0  0  1  0  0  0  0  0  0
  188.5600  172.8170  135.9250 C   0  0  0  0  0  0  0  0  0  0  0  0
  190.7640  175.5580  134.6820 C   0  0  0  0  0  2  0  0  0  0  0  0
  192.8960  174.2420  134.9740 C   0  0  0  0  0  2  0  0  0  0  0  0
  193.6290  173.2520  135.8620 C   0  0  0  0  0  1  0  0  0  0  0  0
  184.4630  178.5200  146.2570 C   0  0  0  0  0  2  0  0  0  0  0  0
  185.8850  179.0220  146.4600 C   0  0  1  0  0  3  0  0  0  0  0  0
  185.9310  179.9010  147.5460 O   0  0  0  0  0  1  0  0  0  0  0  0
  186.8030  177.8450  146.7310 C   0  0  0  0  0  2  0  0  0  0  0  0
  188.7620  177.6520  148.2520 C   0  0  0  0  0  3  0  0  0  0  0  0
  187.5080  178.0570  148.0270 C   0  0  0  0  0  3  0  0  0  0  0  0
  189.5810  176.9230  147.2370 C   0  0  0  0  0  2  0  0  0  0  0  0
  191.6130  176.5850  146.4340 C   0  0  0  0  0  1  0  0  0  0  0  0
  190.9300  176.9990  147.5840 O   0  0  0  0  0  0  0  0  0  0  0  0
  1  8  1  0  0  0  0
  2  5  1  0  0  0  0
  3  9  1  0  0  0  0
  3  1  2  0  0  0  0
  4  1  1  0  0  0  0
  5  4  1  0  0  0  0
  6 19  1  1  0  0  0
  6  3  1  0  0  0  0
  7 50  1  0  0  0  0
  8  7  1  0  0  0  0
  9 11  2  0  0  0  0
 10  2  1  0  0  0  0
 10  6  1  0  0  0  0
 11  7  1  0  0  0  0
 14 13  2  0  0  0  0
 14 20  1  0  0  0  0
 15 18  2  0  0  0  0
 15 20  1  0  0  0  0
 16 12  2  0  0  0  0
 17 21  1  0  0  0  0
 18 21  1  0  0  0  0
 19 12  1  0  0  0  0
 20 16  1  0  0  0  0
 21 19  2  0  0  0  0
 22 25  1  0  0  0  0
 23 26  1  0  0  0  0
 23 24  1  0  0  0  0
 24 25  1  0  0  0  0
 25 14  1  1  0  0  0
 26 22  1  0  0  0  0
 27 29  1  0  0  0  0
 27  9  1  0  0  0  0
 29 28  2  6  0  0  0
 30 29  1  0  0  0  0
 31 30  1  0  0  0  0
 32 34  1  0  0  0  0
 33 36  1  0  0  0  0
 34 31  1  0  0  0  0
 35 33  1  6  0  0  0
 35 32  1  0  0  0  0
 36 34  1  0  0  0  0
 38 45  1  6  0  0  0
 39 43  1  0  0  0  0
 39 44  1  0  0  0  0
 41 46  1  0  0  0  0
 42 40  1  6  0  0  0
 42 38  1  0  0  0  0
 42 35  1  0  0  0  0
 43 48  1  6  0  0  0
 46 44  1  0  0  0  0
 46 38  1  0  0  0  0
 46 37  1  0  0  0  0
 47 40  1  0  0  0  0
 47 43  1  0  0  0  0
 48 49  1  0  0  0  0
 50 51  1  0  0  0  0
 51 53  1  0  0  0  0
 51 52  1  1  0  0  0
 53 55  1  0  0  0  0
 55 54  2  0  0  0  0
 56 58  1  0  0  0  0
 56 54  1  0  0  0  0
 57 58  1  0  0  0  0
M  END
>  <MODEL>
1

>  <REMARK>
 VINA RESULT:      -7.4      0.000      0.000
  Name = 
  15 active torsions:
  status: ('A' for Active; 'I' for Inactive)
    1  A    between atoms: C_1  and  C_19
    2  A    between atoms: C_1  and  C_46
    3  A    between atoms: C_5  and  C_16
    4  A    between atoms: C_5  and  N_38
    5  A    between atoms: P_13  and  C_16
    6  A    between atoms: P_13  and  O_24
    7  A    between atoms: C_15  and  C_43
    8  A    between atoms: N_18  and  C_46
    9  A    between atoms: C_19  and  C_49
   10  A    between atoms: C_20  and  C_45
   11  A    between atoms: O_24  and  C_42
   12  A    between atoms: C_25  and  C_50
   13  A    between atoms: C_27  and  C_52
   14  A    between atoms: C_28  and  C_30
   15  A    between atoms: C_45  and  O_48
                            x       y       z     vdW  Elec       q    Type
                         _______ _______ _______ _____ _____    ______ ____

>  <TORSDO>
F 15

$$$$
=
 OpenBabel11062418023D

 58 63  0  0  1  0  0  0  0  0999 V2000
  183.8830  175.4370  136.1690 C   0  0  0  0  0  0  0  0  0  0  0  0
  180.7980  174.8860  136.8260 C   0  0  0  0  0  2  0  0  0  0  0  0
  183.5870  176.4970  136.9630 C   0  0  0  0  0  0  0  0  0  0  0  0
  182.9350  174.3000  135.9350 C   0  0  0  0  0  2  0  0  0  0  0  0
  181.6090  174.8080  135.6080 N   0  0  0  0  0  2  0  0  0  0  0  0
  182.2580  176.6630  137.6770 C   0  0  2  0  0  3  0  0  0  0  0  0
  186.0960  176.3330  135.7650 N   0  0  0  0  0  0  0  0  0  0  0  0
  185.1440  175.3510  135.5760 O   0  0  0  0  0  0  0  0  0  0  0  0
  184.6030  177.5670  137.1660 C   0  0  0  0  0  0  0  0  0  0  0  0
  181.5490  175.4110  137.9760 N   0  0  0  0  0  2  0  0  0  0  0  0
  185.8010  177.4680  136.5790 C   0  0  0  0  0  3  0  0  0  0  0  0
  180.3840  178.3100  138.1640 C   0  0  0  0  0  3  0  0  0  0  0  0
  179.3710  182.1300  138.8700 O   0  0  0  0  0  0  0  0  0  0  0  0
  179.6860  181.8980  137.6710 C   0  0  0  0  0  0  0  0  0  0  0  0
  180.0440  180.2950  135.8390 C   0  0  0  0  0  3  0  0  0  0  0  0
  179.7910  179.5010  138.2010 C   0  0  0  0  0  3  0  0  0  0  0  0
  182.4540  177.5550  134.9900 C   0  0  0  0  0  1  0  0  0  0  0  0
  180.6850  179.2750  135.2750 C   0  0  0  0  0  3  0  0  0  0  0  0
  181.3680  177.7920  137.1900 C   0  0  0  0  0  0  0  0  0  0  0  0
  179.9670  180.5520  137.2450 N   0  0  0  0  0  0  0  0  0  0  0  0
  181.4850  178.2190  135.9140 C   0  0  0  0  0  0  0  0  0  0  0  0
  178.9440  184.0990  137.1380 O   0  0  0  0  0  0  0  0  0  0  0  0
  181.0210  185.0450  136.5000 C   0  0  0  0  0  2  0  0  0  0  0  0
  181.1830  183.5560  136.5840 C   0  0  0  0  0  2  0  0  0  0  0  0
  179.7660  183.0430  136.7070 C   0  0  1  0  0  3  0  0  0  0  0  0
  179.5230  185.2470  136.5780 C   0  0  0  0  0  2  0  0  0  0  0  0
  184.2880  178.6600  137.9860 O   0  0  0  0  0  0  0  0  0  0  0  0
  185.6700  179.4580  140.2330 O   0  0  0  0  0  0  0  0  0  0  0  0
  184.4990  178.6690  139.6950 P   0  0  1  0  0  4  0  0  0  0  0  0
  183.2190  178.0540  140.8310 C   0  0  0  0  0  2  0  0  0  0  0  0
  183.1660  178.9240  142.0760 C   0  0  0  0  0  2  0  0  0  0  0  0
  185.1280  178.4820  143.2780 C   0  0  0  0  0  2  0  0  0  0  0  0
  184.1860  178.8700  145.4510 C   0  0  0  0  0  2  0  0  0  0  0  0
  183.6980  178.1920  143.2130 N   0  0  0  0  0  0  0  0  0  0  0  0
  185.4470  179.0490  144.6450 C   0  0  1  0  0  3  0  0  0  0  0  0
  183.1010  178.7670  144.4100 C   0  0  0  0  0  2  0  0  0  0  0  0
  188.2540  178.5660  148.6400 O   0  0  0  0  0  1  0  0  0  0  0  0
  186.7530  178.4790  146.7990 C   0  0  1  0  0  3  0  0  0  0  0  0
  189.4320  176.9000  145.7330 O   0  0  0  0  0  0  0  0  0  0  0  0
  186.8060  176.9570  144.8320 N   0  0  0  0  0  2  0  0  0  0  0  0
  187.8110  176.5240  147.7590 O   0  0  0  0  0  1  0  0  0  0  0  0
  186.6630  178.3470  145.2670 C   0  0  1  0  0  3  0  0  0  0  0  0
  189.2200  177.3940  144.4380 C   0  0  2  0  0  3  0  0  0  0  0  0
  189.2690  178.0070  146.5780 C   0  0  0  0  0  2  0  0  0  0  0  0
  185.4810  178.0280  147.5100 C   0  0  0  0  0  1  0  0  0  0  0  0
  188.0170  177.8710  147.4540 C   0  0  0  0  0  0  0  0  0  0  0  0
  187.8970  176.8850  143.8590 C   0  0  0  0  0  2  0  0  0  0  0  0
  190.3920  177.0570  143.5250 C   0  0  0  0  0  2  0  0  0  0  0  0
  190.1630  175.7690  142.7550 C   0  0  0  0  0  1  0  0  0  0  0  0
  187.4430  176.1210  135.2710 C   0  0  0  0  0  2  0  0  0  0  0  0
  188.3490  175.6530  136.4000 C   0  0  1  0  0  3  0  0  0  0  0  0
  188.5400  174.2700  136.3180 O   0  0  0  0  0  1  0  0  0  0  0  0
  189.6920  176.3490  136.2930 C   0  0  0  0  0  2  0  0  0  0  0  0
  190.4500  176.0210  138.6390 C   0  0  0  0  0  3  0  0  0  0  0  0
  190.6150  175.8060  137.3300 C   0  0  0  0  0  3  0  0  0  0  0  0
  189.3400  176.8490  139.2000 C   0  0  0  0  0  2  0  0  0  0  0  0
  189.0780  178.9690  138.6330 C   0  0  0  0  0  1  0  0  0  0  0  0
  189.8110  178.1310  139.4830 O   0  0  0  0  0  0  0  0  0  0  0  0
  1  3  2  0  0  0  0
  2 10  1  0  0  0  0
  3  9  1  0  0  0  0
  3  6  1  0  0  0  0
  4  1  1  0  0  0  0
  5  4  1  0  0  0  0
  5  2  1  0  0  0  0
  6 19  1  6  0  0  0
  6 10  1  0  0  0  0
  7 11  1  0  0  0  0
  8  7  1  0  0  0  0
  8  1  1  0  0  0  0
  9 27  1  0  0  0  0
 11  9  2  0  0  0  0
 12 16  2  0  0  0  0
 14 13  2  0  0  0  0
 15 20  1  0  0  0  0
 17 21  1  0  0  0  0
 18 15  2  0  0  0  0
 18 21  1  0  0  0  0
 19 12  1  0  0  0  0
 20 14  1  0  0  0  0
 20 16  1  0  0  0  0
 21 19  2  0  0  0  0
 23 26  1  0  0  0  0
 23 24  1  0  0  0  0
 24 25  1  0  0  0  0
 25 22  1  0  0  0  0
 25 14  1  1  0  0  0
 26 22  1  0  0  0  0
 27 29  1  0  0  0  0
 29 28  2  1  0  0  0
 29 30  1  0  0  0  0
 30 31  1  0  0  0  0
 31 34  1  0  0  0  0
 34 32  1  0  0  0  0
 34 36  1  0  0  0  0
 35 32  1  6  0  0  0
 35 42  1  0  0  0  0
 35 33  1  0  0  0  0
 36 33  1  0  0  0  0
 38 46  1  0  0  0  0
 38 45  1  1  0  0  0
 39 44  1  0  0  0  0
 42 40  1  1  0  0  0
 42 38  1  0  0  0  0
 43 48  1  6  0  0  0
 43 39  1  0  0  0  0
 44 46  1  0  0  0  0
 46 41  1  0  0  0  0
 46 37  1  0  0  0  0
 47 43  1  0  0  0  0
 47 40  1  0  0  0  0
 49 48  1  0  0  0  0
 50  7  1  0  0  0  0
 50 51  1  0  0  0  0
 51 52  1  6  0  0  0
 53 51  1  0  0  0  0
 53 55  1  0  0  0  0
 54 56  1  0  0  0  0
 55 54  2  0  0  0  0
 56 58  1  0  0  0  0
 57 58  1  0  0  0  0
M  END
>  <MODEL>
2

>  <REMARK>
 VINA RESULT:      -5.8      3.351      8.922
  Name = 
  15 active torsions:
  status: ('A' for Active; 'I' for Inactive)
    1  A    between atoms: C_1  and  C_19
    2  A    between atoms: C_1  and  C_46
    3  A    between atoms: C_5  and  C_16
    4  A    between atoms: C_5  and  N_38
    5  A    between atoms: P_13  and  C_16
    6  A    between atoms: P_13  and  O_24
    7  A    between atoms: C_15  and  C_43
    8  A    between atoms: N_18  and  C_46
    9  A    between atoms: C_19  and  C_49
   10  A    between atoms: C_20  and  C_45
   11  A    between atoms: O_24  and  C_42
   12  A    between atoms: C_25  and  C_50
   13  A    between atoms: C_27  and  C_52
   14  A    between atoms: C_28  and  C_30
   15  A    between atoms: C_45  and  O_48
                            x       y       z     vdW  Elec       q    Type
                         _______ _______ _______ _____ _____    ______ ____

>  <TORSDO>
F 15

$$$$
=
 OpenBabel11062418023D

 58 63  0  0  1  0  0  0  0  0999 V2000
  183.9860  175.2330  136.5560 C   0  0  0  0  0  0  0  0  0  0  0  0
  186.4700  175.7270  134.5960 C   0  0  0  0  0  2  0  0  0  0  0  0
  184.6120  176.2650  137.1750 C   0  0  0  0  0  0  0  0  0  0  0  0
  184.3900  174.7210  135.2060 C   0  0  0  0  0  2  0  0  0  0  0  0
  185.8330  174.5290  135.1520 N   0  0  0  0  0  2  0  0  0  0  0  0
  185.8050  176.9960  136.5860 C   0  0  2  0  0  3  0  0  0  0  0  0
  182.4070  175.0680  138.3850 N   0  0  0  0  0  0  0  0  0  0  0  0
  182.8760  174.6390  137.1580 O   0  0  0  0  0  0  0  0  0  0  0  0
  184.1220  176.7300  138.5030 C   0  0  0  0  0  0  0  0  0  0  0  0
  185.8890  176.9730  135.1200 N   0  0  0  0  0  2  0  0  0  0  0  0
  183.0620  176.1390  139.0650 C   0  0  0  0  0  3  0  0  0  0  0  0
  187.4780  175.4120  137.6600 C   0  0  0  0  0  3  0  0  0  0  0  0
  191.0440  173.5900  137.3660 O   0  0  0  0  0  0  0  0  0  0  0  0
  191.1190  174.8240  137.6190 C   0  0  0  0  0  0  0  0  0  0  0  0
  190.0620  176.8990  138.4130 C   0  0  0  0  0  3  0  0  0  0  0  0
  188.6770  174.8810  137.8870 C   0  0  0  0  0  3  0  0  0  0  0  0
  187.3830  179.2540  137.2680 C   0  0  0  0  0  1  0  0  0  0  0  0
  189.1680  177.8780  138.3130 C   0  0  0  0  0  3  0  0  0  0  0  0
  187.1310  176.8030  137.2990 C   0  0  0  0  0  0  0  0  0  0  0  0
  189.9220  175.5860  137.8610 N   0  0  0  0  0  0  0  0  0  0  0  0
  187.8810  177.8850  137.6000 C   0  0  0  0  0  0  0  0  0  0  0  0
  193.4660  174.5110  137.8830 O   0  0  0  0  0  0  0  0  0  0  0  0
  194.2250  175.9090  136.1260 C   0  0  0  0  0  2  0  0  0  0  0  0
  192.7690  176.1870  136.3600 C   0  0  0  0  0  2  0  0  0  0  0  0
  192.4680  175.4760  137.6600 C   0  0  1  0  0  3  0  0  0  0  0  0
  194.6240  175.0660  137.3180 C   0  0  0  0  0  2  0  0  0  0  0  0
  184.7760  177.7950  139.1370 O   0  0  0  0  0  0  0  0  0  0  0  0
  184.2180  180.4940  139.1350 O   0  0  0  0  0  0  0  0  0  0  0  0
  183.9630  179.1620  139.7990 P   0  0  1  0  0  4  0  0  0  0  0  0
  182.6180  178.9920  141.0120 C   0  0  0  0  0  2  0  0  0  0  0  0
  183.0270  179.6210  142.3340 C   0  0  0  0  0  2  0  0  0  0  0  0
  185.0340  178.9920  143.3670 C   0  0  0  0  0  2  0  0  0  0  0  0
  184.0880  178.5930  145.5370 C   0  0  0  0  0  2  0  0  0  0  0  0
  183.6330  178.6160  143.1920 N   0  0  0  0  0  0  0  0  0  0  0  0
  185.3190  179.1240  144.8490 C   0  0  1  0  0  3  0  0  0  0  0  0
  183.0040  178.7320  144.4990 C   0  0  0  0  0  2  0  0  0  0  0  0
  188.9130  178.6560  148.1550 O   0  0  0  0  0  1  0  0  0  0  0  0
  187.0360  178.5800  146.6990 C   0  0  1  0  0  3  0  0  0  0  0  0
  189.3080  176.7450  145.1880 O   0  0  0  0  0  0  0  0  0  0  0  0
  186.5550  176.9490  144.8820 N   0  0  0  0  0  2  0  0  0  0  0  0
  188.1600  176.6080  147.5420 O   0  0  0  0  0  1  0  0  0  0  0  0
  186.5980  178.3690  145.2370 C   0  0  1  0  0  3  0  0  0  0  0  0
  188.8420  177.1800  143.9390 C   0  0  2  0  0  3  0  0  0  0  0  0
  189.4060  177.9080  145.9670 C   0  0  0  0  0  2  0  0  0  0  0  0
  185.9310  178.2660  147.7020 C   0  0  0  0  0  1  0  0  0  0  0  0
  188.3750  177.9160  147.1030 C   0  0  0  0  0  0  0  0  0  0  0  0
  187.3950  176.7410  143.7010 C   0  0  0  0  0  2  0  0  0  0  0  0
  189.7570  176.7050  142.8180 C   0  0  0  0  0  2  0  0  0  0  0  0
  190.8830  175.8260  143.3340 C   0  0  0  0  0  1  0  0  0  0  0  0
  181.1550  174.5390  138.8910 C   0  0  0  0  0  2  0  0  0  0  0  0
  180.0890  174.5820  137.8060 C   0  0  1  0  0  3  0  0  0  0  0  0
  178.9310  173.9370  138.2500 O   0  0  0  0  0  1  0  0  0  0  0  0
  179.7620  176.0260  137.4750 C   0  0  0  0  0  2  0  0  0  0  0  0
  179.4920  177.3630  135.3950 C   0  0  0  0  0  3  0  0  0  0  0  0
  179.8550  176.2280  136.0020 C   0  0  0  0  0  3  0  0  0  0  0  0
  178.9310  178.5390  136.1270 C   0  0  0  0  0  2  0  0  0  0  0  0
  179.6480  180.2220  137.3670 C   0  0  0  0  0  1  0  0  0  0  0  0
  179.7360  178.8310  137.2270 O   0  0  0  0  0  0  0  0  0  0  0  0
  1  8  1  0  0  0  0
  1  3  2  0  0  0  0
  2 10  1  0  0  0  0
  2  5  1  0  0  0  0
  3  9  1  0  0  0  0
  4  1  1  0  0  0  0
  5  4  1  0  0  0  0
  6  3  1  0  0  0  0
  6 19  1  1  0  0  0
  7 50  1  0  0  0  0
  7 11  1  0  0  0  0
  8  7  1  0  0  0  0
  9 11  2  0  0  0  0
  9 27  1  0  0  0  0
 10  6  1  0  0  0  0
 12 16  2  0  0  0  0
 13 14  2  0  0  0  0
 14 20  1  0  0  0  0
 17 21  1  0  0  0  0
 18 15  2  0  0  0  0
 19 21  2  0  0  0  0
 19 12  1  0  0  0  0
 20 16  1  0  0  0  0
 20 15  1  0  0  0  0
 21 18  1  0  0  0  0
 23 24  1  0  0  0  0
 23 26  1  0  0  0  0
 24 25  1  0  0  0  0
 25 14  1  6  0  0  0
 25 22  1  0  0  0  0
 26 22  1  0  0  0  0
 27 29  1  0  0  0  0
 29 28  2  6  0  0  0
 29 30  1  0  0  0  0
 30 31  1  0  0  0  0
 31 34  1  0  0  0  0
 34 32  1  0  0  0  0
 34 36  1  0  0  0  0
 35 32  1  6  0  0  0
 35 42  1  0  0  0  0
 35 33  1  0  0  0  0
 36 33  1  0  0  0  0
 38 46  1  0  0  0  0
 38 45  1  1  0  0  0
 39 44  1  0  0  0  0
 42 40  1  1  0  0  0
 42 38  1  0  0  0  0
 43 48  1  6  0  0  0
 43 39  1  0  0  0  0
 44 46  1  0  0  0  0
 46 41  1  0  0  0  0
 46 37  1  0  0  0  0
 47 43  1  0  0  0  0
 47 40  1  0  0  0  0
 48 49  1  0  0  0  0
 51 52  1  1  0  0  0
 51 50  1  0  0  0  0
 53 51  1  0  0  0  0
 54 55  2  0  0  0  0
 54 56  1  0  0  0  0
 55 53  1  0  0  0  0
 56 58  1  0  0  0  0
 58 57  1  0  0  0  0
M  END
>  <MODEL>
3

>  <REMARK>
 VINA RESULT:      -5.7      2.438      9.872
  Name = 
  15 active torsions:
  status: ('A' for Active; 'I' for Inactive)
    1  A    between atoms: C_1  and  C_19
    2  A    between atoms: C_1  and  C_46
    3  A    between atoms: C_5  and  C_16
    4  A    between atoms: C_5  and  N_38
    5  A    between atoms: P_13  and  C_16
    6  A    between atoms: P_13  and  O_24
    7  A    between atoms: C_15  and  C_43
    8  A    between atoms: N_18  and  C_46
    9  A    between atoms: C_19  and  C_49
   10  A    between atoms: C_20  and  C_45
   11  A    between atoms: O_24  and  C_42
   12  A    between atoms: C_25  and  C_50
   13  A    between atoms: C_27  and  C_52
   14  A    between atoms: C_28  and  C_30
   15  A    between atoms: C_45  and  O_48
                            x       y       z     vdW  Elec       q    Type
                         _______ _______ _______ _____ _____    ______ ____

>  <TORSDO>
F 15

$$$$
=
 OpenBabel11062418023D

 58 63  0  0  1  0  0  0  0  0999 V2000
  183.8940  175.4080  136.8300 C   0  0  0  0  0  0  0  0  0  0  0  0
  180.7630  174.9140  137.2880 C   0  0  0  0  0  2  0  0  0  0  0  0
  183.5710  176.4620  137.6220 C   0  0  0  0  0  0  0  0  0  0  0  0
  182.9390  174.2960  136.5190 C   0  0  0  0  0  2  0  0  0  0  0  0
  181.6460  174.8370  136.1210 N   0  0  0  0  0  2  0  0  0  0  0  0
  182.2050  176.6450  138.2570 C   0  0  2  0  0  3  0  0  0  0  0  0
  186.1460  176.2630  136.5760 N   0  0  0  0  0  0  0  0  0  0  0  0
  185.1860  175.3050  136.3130 O   0  0  0  0  0  0  0  0  0  0  0  0
  184.5950  177.5070  137.9050 C   0  0  0  0  0  0  0  0  0  0  0  0
  181.4540  175.4050  138.4910 N   0  0  0  0  0  2  0  0  0  0  0  0
  185.8240  177.3910  137.3910 C   0  0  0  0  0  3  0  0  0  0  0  0
  180.3410  178.3270  138.6570 C   0  0  0  0  0  3  0  0  0  0  0  0
  179.3680  182.1570  139.3630 O   0  0  0  0  0  0  0  0  0  0  0  0
  179.7500  181.9360  138.1820 C   0  0  0  0  0  0  0  0  0  0  0  0
  180.1820  180.3520  136.3490 C   0  0  0  0  0  3  0  0  0  0  0  0
  179.7720  179.5290  138.6780 C   0  0  0  0  0  3  0  0  0  0  0  0
  182.5810  177.5730  135.6010 C   0  0  0  0  0  1  0  0  0  0  0  0
  180.8340  179.3270  135.8070 C   0  0  0  0  0  3  0  0  0  0  0  0
  181.3700  177.8010  137.7350 C   0  0  0  0  0  0  0  0  0  0  0  0
  180.0270  180.5910  137.7510 N   0  0  0  0  0  0  0  0  0  0  0  0
  181.5730  178.2440  136.4760 C   0  0  0  0  0  0  0  0  0  0  0  0
  179.1470  184.1870  137.6840 O   0  0  0  0  0  0  0  0  0  0  0  0
  181.2850  185.0200  137.0930 C   0  0  0  0  0  2  0  0  0  0  0  0
  181.3580  183.5230  137.1500 C   0  0  0  0  0  2  0  0  0  0  0  0
  179.9110  183.0920  137.2420 C   0  0  1  0  0  3  0  0  0  0  0  0
  179.8010  185.3100  137.1550 C   0  0  0  0  0  2  0  0  0  0  0  0
  184.2530  178.5930  138.7220 O   0  0  0  0  0  0  0  0  0  0  0  0
  185.7770  179.8020  140.6750 O   0  0  0  0  0  0  0  0  0  0  0  0
  184.7410  178.7460  140.3670 P   0  0  1  0  0  4  0  0  0  0  0  0
  183.8410  177.9320  141.7220 C   0  0  0  0  0  2  0  0  0  0  0  0
  184.2750  178.5140  143.0580 C   0  0  0  0  0  2  0  0  0  0  0  0
  186.5830  178.1450  143.2080 C   0  0  0  0  0  2  0  0  0  0  0  0
  186.6530  177.9470  145.5990 C   0  0  0  0  0  2  0  0  0  0  0  0
  185.2830  177.6600  143.6640 N   0  0  0  0  0  0  0  0  0  0  0  0
  187.4310  178.4710  144.4200 C   0  0  1  0  0  3  0  0  0  0  0  0
  185.2320  177.8900  145.1000 C   0  0  0  0  0  2  0  0  0  0  0  0
  190.4730  175.8110  141.6370 O   0  0  0  0  0  1  0  0  0  0  0  0
  189.1970  177.3850  142.8780 C   0  0  1  0  0  3  0  0  0  0  0  0
  191.6440  176.5480  144.9070 O   0  0  0  0  0  0  0  0  0  0  0  0
  189.8800  178.6920  144.8820 N   0  0  0  0  0  2  0  0  0  0  0  0
  191.5790  177.5900  142.5020 O   0  0  0  0  0  1  0  0  0  0  0  0
  188.8320  177.8520  144.3000 C   0  0  1  0  0  3  0  0  0  0  0  0
  190.7860  176.6730  146.0090 C   0  0  2  0  0  3  0  0  0  0  0  0
  190.9170  175.8130  143.9590 C   0  0  0  0  0  2  0  0  0  0  0  0
  189.0290  178.4810  141.8310 C   0  0  0  0  0  1  0  0  0  0  0  0
  190.5600  176.6650  142.7350 C   0  0  0  0  0  0  0  0  0  0  0  0
  190.2830  178.1100  146.1630 C   0  0  0  0  0  2  0  0  0  0  0  0
  191.4580  176.1800  147.2840 C   0  0  0  0  0  2  0  0  0  0  0  0
  192.5090  175.1200  147.0030 C   0  0  0  0  0  1  0  0  0  0  0  0
  187.5150  176.0290  136.1620 C   0  0  0  0  0  2  0  0  0  0  0  0
  188.1130  174.8730  136.9510 C   0  0  1  0  0  3  0  0  0  0  0  0
  187.6320  173.6580  136.4540 O   0  0  0  0  0  1  0  0  0  0  0  0
  189.6240  174.9020  136.8230 C   0  0  0  0  0  2  0  0  0  0  0  0
  191.3470  176.6680  137.1420 C   0  0  0  0  0  3  0  0  0  0  0  0
  190.0940  176.3160  136.8360 C   0  0  0  0  0  3  0  0  0  0  0  0
  192.4020  175.6830  137.5290 C   0  0  0  0  0  2  0  0  0  0  0  0
  192.8270  177.0070  139.2470 C   0  0  0  0  0  1  0  0  0  0  0  0
  193.4440  176.3460  138.1770 O   0  0  0  0  0  0  0  0  0  0  0  0
  1  3  2  0  0  0  0
  2 10  1  0  0  0  0
  3  9  1  0  0  0  0
  3  6  1  0  0  0  0
  4  1  1  0  0  0  0
  5  4  1  0  0  0  0
  5  2  1  0  0  0  0
  6 19  1  6  0  0  0
  6 10  1  0  0  0  0
  7 11  1  0  0  0  0
  8  7  1  0  0  0  0
  8  1  1  0  0  0  0
  9 27  1  0  0  0  0
 11  9  2  0  0  0  0
 12 16  2  0  0  0  0
 14 13  2  0  0  0  0
 15 20  1  0  0  0  0
 17 21  1  0  0  0  0
 18 15  2  0  0  0  0
 18 21  1  0  0  0  0
 19 12  1  0  0  0  0
 20 14  1  0  0  0  0
 20 16  1  0  0  0  0
 21 19  2  0  0  0  0
 23 24  1  0  0  0  0
 23 26  1  0  0  0  0
 24 25  1  0  0  0  0
 25 22  1  0  0  0  0
 25 14  1  1  0  0  0
 26 22  1  0  0  0  0
 27 29  1  0  0  0  0
 29 28  2  1  0  0  0
 29 30  1  0  0  0  0
 30 31  1  0  0  0  0
 31 34  1  0  0  0  0
 32 34  1  0  0  0  0
 34 36  1  0  0  0  0
 35 32  1  6  0  0  0
 35 33  1  0  0  0  0
 36 33  1  0  0  0  0
 37 46  1  0  0  0  0
 38 45  1  6  0  0  0
 38 42  1  0  0  0  0
 39 43  1  0  0  0  0
 40 47  1  0  0  0  0
 41 46  1  0  0  0  0
 42 35  1  0  0  0  0
 42 40  1  6  0  0  0
 43 47  1  0  0  0  0
 43 48  1  1  0  0  0
 44 39  1  0  0  0  0
 46 38  1  0  0  0  0
 46 44  1  0  0  0  0
 49 48  1  0  0  0  0
 50  7  1  0  0  0  0
 50 51  1  0  0  0  0
 51 52  1  6  0  0  0
 53 55  1  0  0  0  0
 53 51  1  0  0  0  0
 54 56  1  0  0  0  0
 55 54  2  0  0  0  0
 56 58  1  0  0  0  0
 58 57  1  0  0  0  0
M  END
>  <MODEL>
4

>  <REMARK>
 VINA RESULT:      -5.2      3.342      8.417
  Name = 
  15 active torsions:
  status: ('A' for Active; 'I' for Inactive)
    1  A    between atoms: C_1  and  C_19
    2  A    between atoms: C_1  and  C_46
    3  A    between atoms: C_5  and  C_16
    4  A    between atoms: C_5  and  N_38
    5  A    between atoms: P_13  and  C_16
    6  A    between atoms: P_13  and  O_24
    7  A    between atoms: C_15  and  C_43
    8  A    between atoms: N_18  and  C_46
    9  A    between atoms: C_19  and  C_49
   10  A    between atoms: C_20  and  C_45
   11  A    between atoms: O_24  and  C_42
   12  A    between atoms: C_25  and  C_50
   13  A    between atoms: C_27  and  C_52
   14  A    between atoms: C_28  and  C_30
   15  A    between atoms: C_45  and  O_48
                            x       y       z     vdW  Elec       q    Type
                         _______ _______ _______ _____ _____    ______ ____

>  <TORSDO>
F 15

$$$$
=
 OpenBabel11062418023D

 58 63  0  0  1  0  0  0  0  0999 V2000
  182.7460  178.8770  142.0090 C   0  0  0  0  0  0  0  0  0  0  0  0
  181.0750  179.3120  139.3130 C   0  0  0  0  0  2  0  0  0  0  0  0
  183.7260  178.7990  141.0740 C   0  0  0  0  0  0  0  0  0  0  0  0
  181.3360  179.2690  141.6870 C   0  0  0  0  0  2  0  0  0  0  0  0
  180.8570  178.5250  140.5300 N   0  0  0  0  0  2  0  0  0  0  0  0
  183.4980  179.0720  139.5980 C   0  0  2  0  0  3  0  0  0  0  0  0
  184.3330  178.3060  143.7480 N   0  0  0  0  0  0  0  0  0  0  0  0
  183.0530  178.6380  143.3500 O   0  0  0  0  0  0  0  0  0  0  0  0
  185.1090  178.4320  141.4890 C   0  0  0  0  0  0  0  0  0  0  0  0
  182.3850  179.9810  139.2970 N   0  0  0  0  0  2  0  0  0  0  0  0
  185.3770  178.1990  142.7780 C   0  0  0  0  0  3  0  0  0  0  0  0
  184.0770  178.1670  137.2950 C   0  0  0  0  0  3  0  0  0  0  0  0
  186.6750  176.0680  135.0670 O   0  0  0  0  0  0  0  0  0  0  0  0
  185.9810  175.3600  135.8460 C   0  0  0  0  0  0  0  0  0  0  0  0
  183.9970  175.0930  137.2770 C   0  0  0  0  0  3  0  0  0  0  0  0
  184.6590  177.3510  136.4200 C   0  0  0  0  0  3  0  0  0  0  0  0
  182.6960  176.5020  140.4960 C   0  0  0  0  0  1  0  0  0  0  0  0
  183.2580  175.4090  138.3370 C   0  0  0  0  0  3  0  0  0  0  0  0
  183.6100  177.8780  138.6680 C   0  0  0  0  0  0  0  0  0  0  0  0
  184.9320  175.9600  136.6280 N   0  0  0  0  0  0  0  0  0  0  0  0
  183.2430  176.6580  139.1140 C   0  0  0  0  0  0  0  0  0  0  0  0
  186.5260  173.3610  134.6690 O   0  0  0  0  0  0  0  0  0  0  0  0
  188.1940  172.5180  136.1260 C   0  0  0  0  0  2  0  0  0  0  0  0
  187.4720  173.6310  136.8250 C   0  0  0  0  0  2  0  0  0  0  0  0
  186.2700  173.8930  135.9450 C   0  0  1  0  0  3  0  0  0  0  0  0
  187.3360  172.2410  134.9100 C   0  0  0  0  0  2  0  0  0  0  0  0
  186.1140  178.3520  140.5160 O   0  0  0  0  0  0  0  0  0  0  0  0
  188.1740  177.8180  142.2690 O   0  0  0  0  0  0  0  0  0  0  0  0
  187.7960  178.2750  140.8790 P   0  0  1  0  0  4  0  0  0  0  0  0
  189.0710  178.4090  139.5890 C   0  0  0  0  0  2  0  0  0  0  0  0
  189.3030  177.0520  138.9440 C   0  0  0  0  0  2  0  0  0  0  0  0
  191.1600  175.8870  138.1190 C   0  0  0  0  0  2  0  0  0  0  0  0
  190.6830  176.2620  135.7970 C   0  0  0  0  0  2  0  0  0  0  0  0
  190.4080  177.1340  138.0040 N   0  0  0  0  0  0  0  0  0  0  0  0
  191.2320  175.2360  136.7540 C   0  0  1  0  0  3  0  0  0  0  0  0
  189.8320  177.1510  136.6670 C   0  0  0  0  0  2  0  0  0  0  0  0
  195.6800  176.7190  135.3080 O   0  0  0  0  0  1  0  0  0  0  0  0
  193.6730  175.9730  136.3390 C   0  0  1  0  0  3  0  0  0  0  0  0
  195.2290  173.2010  135.4990 O   0  0  0  0  0  0  0  0  0  0  0  0
  193.1570  173.7250  137.2730 N   0  0  0  0  0  2  0  0  0  0  0  0
  195.8790  175.2400  137.0150 O   0  0  0  0  0  1  0  0  0  0  0  0
  192.6680  174.8070  136.4180 C   0  0  1  0  0  3  0  0  0  0  0  0
  194.0000  172.5800  135.2360 C   0  0  2  0  0  3  0  0  0  0  0  0
  195.1440  174.4560  134.8780 C   0  0  0  0  0  2  0  0  0  0  0  0
  193.6760  176.8400  137.5940 C   0  0  0  0  0  1  0  0  0  0  0  0
  195.1100  175.5950  135.9050 C   0  0  0  0  0  0  0  0  0  0  0  0
  193.1440  172.4810  136.5010 C   0  0  0  0  0  2  0  0  0  0  0  0
  194.2040  171.2120  134.5970 C   0  0  0  0  0  2  0  0  0  0  0  0
  193.0360  170.2780  134.8610 C   0  0  0  0  0  1  0  0  0  0  0  0
  184.6420  178.2350  145.1630 C   0  0  0  0  0  2  0  0  0  0  0  0
  186.0280  178.8040  145.4280 C   0  0  1  0  0  3  0  0  0  0  0  0
  185.9880  179.6640  146.5300 O   0  0  0  0  0  1  0  0  0  0  0  0
  186.9940  177.6700  145.7130 C   0  0  0  0  0  2  0  0  0  0  0  0
  188.7370  177.5630  147.4850 C   0  0  0  0  0  3  0  0  0  0  0  0
  187.4670  177.7680  147.1240 C   0  0  0  0  0  3  0  0  0  0  0  0
  189.8140  177.1890  146.5170 C   0  0  0  0  0  2  0  0  0  0  0  0
  191.5260  176.0220  147.2840 C   0  0  0  0  0  1  0  0  0  0  0  0
  191.0590  177.3330  147.1270 O   0  0  0  0  0  0  0  0  0  0  0  0
  1  8  1  0  0  0  0
  2  5  1  0  0  0  0
  3  9  1  0  0  0  0
  3  1  2  0  0  0  0
  4  1  1  0  0  0  0
  5  4  1  0  0  0  0
  6 19  1  6  0  0  0
  6  3  1  0  0  0  0
  7 50  1  0  0  0  0
  8  7  1  0  0  0  0
  9 11  2  0  0  0  0
 10  2  1  0  0  0  0
 10  6  1  0  0  0  0
 11  7  1  0  0  0  0
 12 19  1  0  0  0  0
 13 14  2  0  0  0  0
 14 20  1  0  0  0  0
 15 18  2  0  0  0  0
 16 20  1  0  0  0  0
 16 12  2  0  0  0  0
 18 21  1  0  0  0  0
 19 21  2  0  0  0  0
 20 15  1  0  0  0  0
 21 17  1  0  0  0  0
 22 26  1  0  0  0  0
 22 25  1  0  0  0  0
 23 24  1  0  0  0  0
 25 14  1  6  0  0  0
 25 24  1  0  0  0  0
 26 23  1  0  0  0  0
 27 29  1  0  0  0  0
 27  9  1  0  0  0  0
 29 28  2  6  0  0  0
 30 29  1  0  0  0  0
 31 30  1  0  0  0  0
 33 36  1  0  0  0  0
 34 32  1  0  0  0  0
 34 31  1  0  0  0  0
 35 33  1  6  0  0  0
 35 32  1  0  0  0  0
 36 34  1  0  0  0  0
 37 46  1  0  0  0  0
 38 42  1  0  0  0  0
 38 45  1  1  0  0  0
 42 35  1  0  0  0  0
 42 40  1  1  0  0  0
 43 48  1  1  0  0  0
 43 39  1  0  0  0  0
 43 47  1  0  0  0  0
 44 39  1  0  0  0  0
 44 46  1  0  0  0  0
 46 38  1  0  0  0  0
 46 41  1  0  0  0  0
 47 40  1  0  0  0  0
 48 49  1  0  0  0  0
 50 51  1  0  0  0  0
 51 53  1  0  0  0  0
 51 52  1  1  0  0  0
 53 55  1  0  0  0  0
 55 54  2  0  0  0  0
 56 58  1  0  0  0  0
 56 54  1  0  0  0  0
 58 57  1  0  0  0  0
M  END
>  <MODEL>
5

>  <REMARK>
 VINA RESULT:      -4.9      2.138      3.792
  Name = 
  15 active torsions:
  status: ('A' for Active; 'I' for Inactive)
    1  A    between atoms: C_1  and  C_19
    2  A    between atoms: C_1  and  C_46
    3  A    between atoms: C_5  and  C_16
    4  A    between atoms: C_5  and  N_38
    5  A    between atoms: P_13  and  C_16
    6  A    between atoms: P_13  and  O_24
    7  A    between atoms: C_15  and  C_43
    8  A    between atoms: N_18  and  C_46
    9  A    between atoms: C_19  and  C_49
   10  A    between atoms: C_20  and  C_45
   11  A    between atoms: O_24  and  C_42
   12  A    between atoms: C_25  and  C_50
   13  A    between atoms: C_27  and  C_52
   14  A    between atoms: C_28  and  C_30
   15  A    between atoms: C_45  and  O_48
                            x       y       z     vdW  Elec       q    Type
                         _______ _______ _______ _____ _____    ______ ____

>  <TORSDO>
F 15

$$$$
=
 OpenBabel11062418023D

 58 63  0  0  1  0  0  0  0  0999 V2000
  183.4250  174.8520  137.1900 C   0  0  0  0  0  0  0  0  0  0  0  0
  184.0840  172.4140  135.2220 C   0  0  0  0  0  2  0  0  0  0  0  0
  184.5430  175.3060  136.5690 C   0  0  0  0  0  0  0  0  0  0  0  0
  182.7170  173.5950  136.7840 C   0  0  0  0  0  2  0  0  0  0  0  0
  183.6720  172.5070  136.6250 N   0  0  0  0  0  2  0  0  0  0  0  0
  185.2140  174.5810  135.4170 C   0  0  2  0  0  3  0  0  0  0  0  0
  183.4190  176.7910  138.6420 N   0  0  0  0  0  0  0  0  0  0  0  0
  182.8580  175.6000  138.2230 O   0  0  0  0  0  0  0  0  0  0  0  0
  185.1640  176.5840  137.0190 C   0  0  0  0  0  0  0  0  0  0  0  0
  184.3260  173.7310  134.6130 N   0  0  0  0  0  2  0  0  0  0  0  0
  184.6070  177.2790  138.0170 C   0  0  0  0  0  3  0  0  0  0  0  0
  187.5540  174.0240  134.5940 C   0  0  0  0  0  3  0  0  0  0  0  0
  191.4700  174.8900  134.7690 O   0  0  0  0  0  0  0  0  0  0  0  0
  191.0280  174.3080  135.7970 C   0  0  0  0  0  0  0  0  0  0  0  0
  189.2930  172.9490  136.8900 C   0  0  0  0  0  3  0  0  0  0  0  0
  188.8820  173.9800  134.6450 C   0  0  0  0  0  3  0  0  0  0  0  0
  185.7120  173.3390  137.9200 C   0  0  0  0  0  1  0  0  0  0  0  0
  188.0540  172.7550  137.3330 C   0  0  0  0  0  3  0  0  0  0  0  0
  186.5780  173.9800  135.7040 C   0  0  0  0  0  0  0  0  0  0  0  0
  189.6680  173.8390  135.8340 N   0  0  0  0  0  0  0  0  0  0  0  0
  186.8070  173.4080  136.9050 C   0  0  0  0  0  0  0  0  0  0  0  0
  193.2030  173.6810  136.5410 O   0  0  0  0  0  0  0  0  0  0  0  0
  193.5650  175.4090  138.1230 C   0  0  0  0  0  2  0  0  0  0  0  0
  192.1150  175.4120  137.7390 C   0  0  0  0  0  2  0  0  0  0  0  0
  191.9390  174.1210  136.9720 C   0  0  1  0  0  3  0  0  0  0  0  0
  194.0860  174.1120  137.5430 C   0  0  0  0  0  2  0  0  0  0  0  0
  186.3190  177.0450  136.3740 O   0  0  0  0  0  0  0  0  0  0  0  0
  188.9720  177.7930  136.3910 O   0  0  0  0  0  0  0  0  0  0  0  0
  187.7070  177.6410  137.2020 P   0  0  1  0  0  4  0  0  0  0  0  0
  187.6020  178.3650  138.8680 C   0  0  0  0  0  2  0  0  0  0  0  0
  188.6680  177.7600  139.7660 C   0  0  0  0  0  2  0  0  0  0  0  0
  187.4080  177.9170  141.7340 C   0  0  0  0  0  2  0  0  0  0  0  0
  189.2480  177.5910  143.2400 C   0  0  0  0  0  2  0  0  0  0  0  0
  188.6240  178.3870  141.0770 N   0  0  0  0  0  0  0  0  0  0  0  0
  187.7860  177.2760  143.0530 C   0  0  1  0  0  3  0  0  0  0  0  0
  189.7430  177.8590  141.8430 C   0  0  0  0  0  2  0  0  0  0  0  0
  184.2450  180.4180  144.3430 O   0  0  0  0  0  1  0  0  0  0  0  0
  185.7020  178.6410  143.7340 C   0  0  1  0  0  3  0  0  0  0  0  0
  185.7800  178.6600  147.0210 O   0  0  0  0  0  0  0  0  0  0  0  0
  186.5080  176.7530  145.1390 N   0  0  0  0  0  2  0  0  0  0  0  0
  183.8470  178.3870  145.2690 O   0  0  0  0  0  1  0  0  0  0  0  0
  186.9070  177.8000  144.1980 C   0  0  1  0  0  3  0  0  0  0  0  0
  187.1280  178.2760  147.0010 C   0  0  2  0  0  3  0  0  0  0  0  0
  185.6800  179.6940  146.0780 C   0  0  0  0  0  2  0  0  0  0  0  0
  184.8340  177.9210  142.7080 C   0  0  0  0  0  1  0  0  0  0  0  0
  184.8480  179.2720  144.8610 C   0  0  0  0  0  0  0  0  0  0  0  0
  187.3040  176.8970  146.3590 C   0  0  0  0  0  2  0  0  0  0  0  0
  187.7290  178.3180  148.4000 C   0  0  0  0  0  2  0  0  0  0  0  0
  189.2090  177.9760  148.3950 C   0  0  0  0  0  1  0  0  0  0  0  0
  182.7050  177.6170  139.5960 C   0  0  0  0  0  2  0  0  0  0  0  0
  181.5170  178.2890  138.9240 C   0  0  1  0  0  3  0  0  0  0  0  0
  180.4530  178.3890  139.8250 O   0  0  0  0  0  1  0  0  0  0  0  0
  181.9160  179.6800  138.4660 C   0  0  0  0  0  2  0  0  0  0  0  0
  180.3270  181.5410  138.0180 C   0  0  0  0  0  3  0  0  0  0  0  0
  180.8590  180.6520  138.8640 C   0  0  0  0  0  3  0  0  0  0  0  0
  180.7540  181.6700  136.5910 C   0  0  0  0  0  2  0  0  0  0  0  0
  180.8840  183.7910  137.2000 C   0  0  0  0  0  1  0  0  0  0  0  0
  180.4910  182.9630  136.1410 O   0  0  0  0  0  0  0  0  0  0  0  0
  1  8  1  0  0  0  0
  2  5  1  0  0  0  0
  3  9  1  0  0  0  0
  3  1  2  0  0  0  0
  4  1  1  0  0  0  0
  5  4  1  0  0  0  0
  6 19  1  1  0  0  0
  6  3  1  0  0  0  0
  7 50  1  0  0  0  0
  8  7  1  0  0  0  0
  9 11  2  0  0  0  0
 10  2  1  0  0  0  0
 10  6  1  0  0  0  0
 11  7  1  0  0  0  0
 12 16  2  0  0  0  0
 12 19  1  0  0  0  0
 13 14  2  0  0  0  0
 14 20  1  0  0  0  0
 15 18  2  0  0  0  0
 16 20  1  0  0  0  0
 19 21  2  0  0  0  0
 20 15  1  0  0  0  0
 21 18  1  0  0  0  0
 21 17  1  0  0  0  0
 22 25  1  0  0  0  0
 22 26  1  0  0  0  0
 24 23  1  0  0  0  0
 25 14  1  6  0  0  0
 25 24  1  0  0  0  0
 26 23  1  0  0  0  0
 27  9  1  0  0  0  0
 27 29  1  0  0  0  0
 29 28  2  6  0  0  0
 29 30  1  0  0  0  0
 30 31  1  0  0  0  0
 31 34  1  0  0  0  0
 34 32  1  0  0  0  0
 34 36  1  0  0  0  0
 35 32  1  6  0  0  0
 35 33  1  0  0  0  0
 35 42  1  0  0  0  0
 36 33  1  0  0  0  0
 37 46  1  0  0  0  0
 38 45  1  1  0  0  0
 38 42  1  0  0  0  0
 38 46  1  0  0  0  0
 40 47  1  0  0  0  0
 42 40  1  6  0  0  0
 43 39  1  0  0  0  0
 43 48  1  1  0  0  0
 44 39  1  0  0  0  0
 46 41  1  0  0  0  0
 46 44  1  0  0  0  0
 47 43  1  0  0  0  0
 49 48  1  0  0  0  0
 51 50  1  0  0  0  0
 51 52  1  1  0  0  0
 53 55  1  0  0  0  0
 53 51  1  0  0  0  0
 54 55  2  0  0  0  0
 56 54  1  0  0  0  0
 58 56  1  0  0  0  0
 58 57  1  0  0  0  0
M  END
>  <MODEL>
6

>  <REMARK>
 VINA RESULT:      -4.9      2.705      9.698
  Name = 
  15 active torsions:
  status: ('A' for Active; 'I' for Inactive)
    1  A    between atoms: C_1  and  C_19
    2  A    between atoms: C_1  and  C_46
    3  A    between atoms: C_5  and  C_16
    4  A    between atoms: C_5  and  N_38
    5  A    between atoms: P_13  and  C_16
    6  A    between atoms: P_13  and  O_24
    7  A    between atoms: C_15  and  C_43
    8  A    between atoms: N_18  and  C_46
    9  A    between atoms: C_19  and  C_49
   10  A    between atoms: C_20  and  C_45
   11  A    between atoms: O_24  and  C_42
   12  A    between atoms: C_25  and  C_50
   13  A    between atoms: C_27  and  C_52
   14  A    between atoms: C_28  and  C_30
   15  A    between atoms: C_45  and  O_48
                            x       y       z     vdW  Elec       q    Type
                         _______ _______ _______ _____ _____    ______ ____

>  <TORSDO>
F 15

$$$$
=
 OpenBabel11062418023D

 58 63  0  0  1  0  0  0  0  0999 V2000
  181.1610  179.4650  142.2740 C   0  0  0  0  0  0  0  0  0  0  0  0
  179.0370  180.1000  139.9640 C   0  0  0  0  0  2  0  0  0  0  0  0
  181.7940  178.9600  141.1850 C   0  0  0  0  0  0  0  0  0  0  0  0
  179.8910  180.2560  142.1890 C   0  0  0  0  0  2  0  0  0  0  0  0
  178.9310  179.5780  141.3290 N   0  0  0  0  0  2  0  0  0  0  0  0
  181.2740  179.1160  139.7680 C   0  0  2  0  0  3  0  0  0  0  0  0
  182.9160  178.6170  143.7120 N   0  0  0  0  0  0  0  0  0  0  0  0
  181.7280  179.3000  143.5390 O   0  0  0  0  0  0  0  0  0  0  0  0
  183.0710  178.2130  141.3600 C   0  0  0  0  0  0  0  0  0  0  0  0
  180.4310  180.2970  139.5380 N   0  0  0  0  0  2  0  0  0  0  0  0
  183.5900  178.0600  142.5830 C   0  0  0  0  0  3  0  0  0  0  0  0
  180.8810  177.8290  137.6110 C   0  0  0  0  0  3  0  0  0  0  0  0
  182.0530  174.8070  135.2420 O   0  0  0  0  0  0  0  0  0  0  0  0
  181.4650  174.4340  136.2940 C   0  0  0  0  0  0  0  0  0  0  0  0
  180.0020  174.9430  138.2060 C   0  0  0  0  0  3  0  0  0  0  0  0
  180.9410  176.7830  136.7910 C   0  0  0  0  0  3  0  0  0  0  0  0
  180.1380  177.0270  141.3170 C   0  0  0  0  0  1  0  0  0  0  0  0
  179.7240  175.5830  139.3380 C   0  0  0  0  0  3  0  0  0  0  0  0
  180.7880  177.8490  139.0870 C   0  0  0  0  0  0  0  0  0  0  0  0
  180.8920  175.4080  137.1860 N   0  0  0  0  0  0  0  0  0  0  0  0
  180.2670  176.8560  139.8370 C   0  0  0  0  0  0  0  0  0  0  0  0
  180.7100  172.2980  135.5570 O   0  0  0  0  0  0  0  0  0  0  0  0
  182.6350  171.0220  136.0890 C   0  0  0  0  0  2  0  0  0  0  0  0
  182.7540  172.3620  136.7530 C   0  0  0  0  0  2  0  0  0  0  0  0
  181.3780  172.9690  136.5960 C   0  0  1  0  0  3  0  0  0  0  0  0
  181.1980  170.9840  135.6150 C   0  0  0  0  0  2  0  0  0  0  0  0
  183.7170  177.6930  140.2310 O   0  0  0  0  0  0  0  0  0  0  0  0
  185.9220  179.3300  139.9980 O   0  0  0  0  0  0  0  0  0  0  0  0
  184.8300  178.5860  139.2660 P   0  0  1  0  0  4  0  0  0  0  0  0
  184.9130  178.3950  137.4590 C   0  0  0  0  0  2  0  0  0  0  0  0
  184.8070  176.9250  137.0860 C   0  0  0  0  0  2  0  0  0  0  0  0
  187.1270  176.8110  137.3910 C   0  0  0  0  0  2  0  0  0  0  0  0
  187.3520  174.5050  136.7640 C   0  0  0  0  0  2  0  0  0  0  0  0
  186.0450  176.4820  136.4660 N   0  0  0  0  0  0  0  0  0  0  0  0
  187.8930  175.5450  137.7110 C   0  0  1  0  0  3  0  0  0  0  0  0
  185.9900  175.0300  136.3890 C   0  0  0  0  0  2  0  0  0  0  0  0
  192.0890  173.7860  135.8770 O   0  0  0  0  0  1  0  0  0  0  0  0
  190.0710  174.8780  136.4930 C   0  0  1  0  0  3  0  0  0  0  0  0
  192.4190  176.5930  138.0280 O   0  0  0  0  0  0  0  0  0  0  0  0
  189.7720  177.1700  137.4160 N   0  0  0  0  0  2  0  0  0  0  0  0
  191.9650  176.0190  135.5090 O   0  0  0  0  0  1  0  0  0  0  0  0
  189.4070  175.7600  137.5680 C   0  0  1  0  0  3  0  0  0  0  0  0
  191.5580  176.8240  139.1090 C   0  0  2  0  0  3  0  0  0  0  0  0
  192.2890  175.2260  137.7420 C   0  0  0  0  0  2  0  0  0  0  0  0
  189.4030  175.0010  135.1280 C   0  0  0  0  0  1  0  0  0  0  0  0
  191.6110  174.9930  136.3860 C   0  0  0  0  0  0  0  0  0  0  0  0
  190.3360  177.6420  138.6820 C   0  0  0  0  0  2  0  0  0  0  0  0
  192.2950  177.4900  140.2640 C   0  0  0  0  0  2  0  0  0  0  0  0
  191.4570  177.5280  141.5290 C   0  0  0  0  0  1  0  0  0  0  0  0
  183.5530  178.6180  145.0150 C   0  0  0  0  0  2  0  0  0  0  0  0
  184.9970  179.0800  144.8940 C   0  0  1  0  0  3  0  0  0  0  0  0
  185.3620  179.8090  146.0300 O   0  0  0  0  0  1  0  0  0  0  0  0
  185.9050  177.8710  144.7640 C   0  0  0  0  0  2  0  0  0  0  0  0
  187.8840  177.4790  143.3070 C   0  0  0  0  0  3  0  0  0  0  0  0
  186.6410  177.9440  143.4690 C   0  0  0  0  0  3  0  0  0  0  0  0
  188.6770  176.8610  144.4130 C   0  0  0  0  0  2  0  0  0  0  0  0
  189.2770  177.8830  146.2790 C   0  0  0  0  0  1  0  0  0  0  0  0
  189.5830  177.7950  144.9150 O   0  0  0  0  0  0  0  0  0  0  0  0
  1  8  1  0  0  0  0
  2  5  1  0  0  0  0
  3  9  1  0  0  0  0
  3  1  2  0  0  0  0
  4  1  1  0  0  0  0
  5  4  1  0  0  0  0
  6 19  1  1  0  0  0
  6  3  1  0  0  0  0
  7 50  1  0  0  0  0
  8  7  1  0  0  0  0
  9 11  2  0  0  0  0
 10  6  1  0  0  0  0
 10  2  1  0  0  0  0
 11  7  1  0  0  0  0
 12 19  1  0  0  0  0
 13 14  2  0  0  0  0
 14 20  1  0  0  0  0
 15 18  2  0  0  0  0
 16 20  1  0  0  0  0
 16 12  2  0  0  0  0
 18 21  1  0  0  0  0
 19 21  2  0  0  0  0
 20 15  1  0  0  0  0
 21 17  1  0  0  0  0
 22 26  1  0  0  0  0
 22 25  1  0  0  0  0
 23 24  1  0  0  0  0
 25 14  1  6  0  0  0
 25 24  1  0  0  0  0
 26 23  1  0  0  0  0
 27  9  1  0  0  0  0
 29 28  2  1  0  0  0
 29 27  1  0  0  0  0
 30 29  1  0  0  0  0
 31 30  1  0  0  0  0
 32 35  1  0  0  0  0
 34 31  1  0  0  0  0
 34 32  1  0  0  0  0
 35 33  1  6  0  0  0
 36 34  1  0  0  0  0
 36 33  1  0  0  0  0
 37 46  1  0  0  0  0
 38 45  1  6  0  0  0
 38 42  1  0  0  0  0
 39 43  1  0  0  0  0
 40 47  1  0  0  0  0
 41 46  1  0  0  0  0
 42 40  1  6  0  0  0
 42 35  1  0  0  0  0
 43 48  1  1  0  0  0
 44 39  1  0  0  0  0
 46 38  1  0  0  0  0
 46 44  1  0  0  0  0
 47 43  1  0  0  0  0
 48 49  1  0  0  0  0
 51 50  1  0  0  0  0
 51 52  1  1  0  0  0
 53 51  1  0  0  0  0
 54 55  2  0  0  0  0
 54 56  1  0  0  0  0
 55 53  1  0  0  0  0
 56 58  1  0  0  0  0
 58 57  1  0  0  0  0
M  END
>  <MODEL>
7

>  <REMARK>
 VINA RESULT:      -4.9      2.117      3.483
  Name = 
  15 active torsions:
  status: ('A' for Active; 'I' for Inactive)
    1  A    between atoms: C_1  and  C_19
    2  A    between atoms: C_1  and  C_46
    3  A    between atoms: C_5  and  C_16
    4  A    between atoms: C_5  and  N_38
    5  A    between atoms: P_13  and  C_16
    6  A    between atoms: P_13  and  O_24
    7  A    between atoms: C_15  and  C_43
    8  A    between atoms: N_18  and  C_46
    9  A    between atoms: C_19  and  C_49
   10  A    between atoms: C_20  and  C_45
   11  A    between atoms: O_24  and  C_42
   12  A    between atoms: C_25  and  C_50
   13  A    between atoms: C_27  and  C_52
   14  A    between atoms: C_28  and  C_30
   15  A    between atoms: C_45  and  O_48
                            x       y       z     vdW  Elec       q    Type
                         _______ _______ _______ _____ _____    ______ ____

>  <TORSDO>
F 15

$$$$
=
 OpenBabel11062418023D

 58 63  0  0  1  0  0  0  0  0999 V2000
  179.6170  180.3460  140.8660 C   0  0  0  0  0  0  0  0  0  0  0  0
  180.0840  179.0650  143.7630 C   0  0  0  0  0  2  0  0  0  0  0  0
  180.5400  179.3910  140.5890 C   0  0  0  0  0  0  0  0  0  0  0  0
  178.9580  180.4830  142.2060 C   0  0  0  0  0  2  0  0  0  0  0  0
  179.9560  180.4370  143.2660 N   0  0  0  0  0  2  0  0  0  0  0  0
  181.0270  178.3770  141.6070 C   0  0  2  0  0  3  0  0  0  0  0  0
  179.7270  181.1450  138.5820 N   0  0  0  0  0  0  0  0  0  0  0  0
  179.2040  181.2200  139.8580 O   0  0  0  0  0  0  0  0  0  0  0  0
  181.1200  179.3080  139.2190 C   0  0  0  0  0  0  0  0  0  0  0  0
  180.0770  178.0660  142.6830 N   0  0  0  0  0  2  0  0  0  0  0  0
  180.7150  180.1620  138.2720 C   0  0  0  0  0  3  0  0  0  0  0  0
  182.7310  179.5440  143.0900 C   0  0  0  0  0  3  0  0  0  0  0  0
  185.1300  179.2800  146.2980 O   0  0  0  0  0  0  0  0  0  0  0  0
  185.5340  178.6210  145.3020 C   0  0  0  0  0  0  0  0  0  0  0  0
  185.4780  178.1760  142.8830 C   0  0  0  0  0  3  0  0  0  0  0  0
  183.7380  179.6220  143.9560 C   0  0  0  0  0  3  0  0  0  0  0  0
  183.0500  176.8130  140.3750 C   0  0  0  0  0  1  0  0  0  0  0  0
  184.8610  177.7850  141.7710 C   0  0  0  0  0  3  0  0  0  0  0  0
  182.4700  178.5170  142.0580 C   0  0  0  0  0  0  0  0  0  0  0  0
  184.8360  178.7070  144.0460 N   0  0  0  0  0  0  0  0  0  0  0  0
  183.4190  177.7530  141.4770 C   0  0  0  0  0  0  0  0  0  0  0  0
  187.8320  178.3080  144.7530 O   0  0  0  0  0  0  0  0  0  0  0  0
  188.6340  177.6440  146.8820 C   0  0  0  0  0  2  0  0  0  0  0  0
  187.1340  177.5990  146.9040 C   0  0  0  0  0  2  0  0  0  0  0  0
  186.7450  177.7510  145.4500 C   0  0  1  0  0  3  0  0  0  0  0  0
  188.9660  177.8140  145.4150 C   0  0  0  0  0  2  0  0  0  0  0  0
  182.0740  178.3210  138.9410 O   0  0  0  0  0  0  0  0  0  0  0  0
  181.1280  177.0110  136.7080 O   0  0  0  0  0  0  0  0  0  0  0  0
  182.3250  177.6420  137.3780 P   0  0  1  0  0  4  0  0  0  0  0  0
  183.8450  177.9450  136.4250 C   0  0  0  0  0  2  0  0  0  0  0  0
  183.9520  176.9460  135.2850 C   0  0  0  0  0  2  0  0  0  0  0  0
  186.0490  177.0060  136.3270 C   0  0  0  0  0  2  0  0  0  0  0  0
  186.3200  174.6270  136.4880 C   0  0  0  0  0  2  0  0  0  0  0  0
  185.2930  176.3870  135.2420 N   0  0  0  0  0  0  0  0  0  0  0  0
  186.5990  175.9140  137.2210 C   0  0  1  0  0  3  0  0  0  0  0  0
  185.1780  174.9730  135.5680 C   0  0  0  0  0  2  0  0  0  0  0  0
  191.1750  174.3970  136.3090 O   0  0  0  0  0  1  0  0  0  0  0  0
  189.0350  175.4090  136.5290 C   0  0  1  0  0  3  0  0  0  0  0  0
  190.8580  176.8550  138.8520 O   0  0  0  0  0  0  0  0  0  0  0  0
  188.4450  177.5440  137.6620 N   0  0  0  0  0  2  0  0  0  0  0  0
  191.0880  176.6610  136.2470 O   0  0  0  0  0  1  0  0  0  0  0  0
  188.0920  176.1320  137.5090 C   0  0  1  0  0  3  0  0  0  0  0  0
  189.7390  176.9350  139.6940 C   0  0  2  0  0  3  0  0  0  0  0  0
  190.8440  175.5460  138.3490 C   0  0  0  0  0  2  0  0  0  0  0  0
  188.7420  175.7370  135.0690 C   0  0  0  0  0  1  0  0  0  0  0  0
  190.5470  175.5210  136.8450 C   0  0  0  0  0  0  0  0  0  0  0  0
  188.6480  177.8200  139.0850 C   0  0  0  0  0  2  0  0  0  0  0  0
  190.1330  177.4170  141.0840 C   0  0  0  0  0  2  0  0  0  0  0  0
  191.6400  177.5190  141.2460 C   0  0  0  0  0  1  0  0  0  0  0  0
  179.1490  181.9560  137.5290 C   0  0  0  0  0  2  0  0  0  0  0  0
  179.6930  181.5250  136.1750 C   0  0  1  0  0  3  0  0  0  0  0  0
  178.9300  180.4690  135.6670 O   0  0  0  0  0  1  0  0  0  0  0  0
  179.6320  182.6940  135.2100 C   0  0  0  0  0  2  0  0  0  0  0  0
  179.6620  184.9840  136.1820 C   0  0  0  0  0  3  0  0  0  0  0  0
  178.9990  183.8610  135.8880 C   0  0  0  0  0  3  0  0  0  0  0  0
  181.1140  185.1790  135.8870 C   0  0  0  0  0  2  0  0  0  0  0  0
  181.9280  184.7710  137.9000 C   0  0  0  0  0  1  0  0  0  0  0  0
  181.8640  184.2470  136.6030 O   0  0  0  0  0  0  0  0  0  0  0  0
  1  4  1  0  0  0  0
  3  1  2  0  0  0  0
  3  6  1  0  0  0  0
  4  5  1  0  0  0  0
  5  2  1  0  0  0  0
  6 19  1  1  0  0  0
  6 10  1  0  0  0  0
  7  8  1  0  0  0  0
  8  1  1  0  0  0  0
  9  3  1  0  0  0  0
 10  2  1  0  0  0  0
 11  7  1  0  0  0  0
 11  9  2  0  0  0  0
 12 16  2  0  0  0  0
 14 13  2  0  0  0  0
 15 20  1  0  0  0  0
 16 20  1  0  0  0  0
 17 21  1  0  0  0  0
 18 15  2  0  0  0  0
 19 12  1  0  0  0  0
 20 14  1  0  0  0  0
 21 18  1  0  0  0  0
 21 19  2  0  0  0  0
 22 26  1  0  0  0  0
 22 25  1  0  0  0  0
 23 24  1  0  0  0  0
 25 14  1  1  0  0  0
 25 24  1  0  0  0  0
 26 23  1  0  0  0  0
 27  9  1  0  0  0  0
 29 28  2  6  0  0  0
 29 27  1  0  0  0  0
 30 29  1  0  0  0  0
 31 30  1  0  0  0  0
 33 35  1  0  0  0  0
 34 31  1  0  0  0  0
 34 36  1  0  0  0  0
 34 32  1  0  0  0  0
 35 32  1  6  0  0  0
 35 42  1  0  0  0  0
 36 33  1  0  0  0  0
 37 46  1  0  0  0  0
 38 45  1  6  0  0  0
 38 46  1  0  0  0  0
 38 42  1  0  0  0  0
 39 43  1  0  0  0  0
 40 47  1  0  0  0  0
 41 46  1  0  0  0  0
 42 40  1  6  0  0  0
 43 48  1  1  0  0  0
 44 39  1  0  0  0  0
 46 44  1  0  0  0  0
 47 43  1  0  0  0  0
 48 49  1  0  0  0  0
 50  7  1  0  0  0  0
 51 52  1  6  0  0  0
 51 50  1  0  0  0  0
 53 55  1  0  0  0  0
 53 51  1  0  0  0  0
 55 54  2  0  0  0  0
 56 54  1  0  0  0  0
 56 58  1  0  0  0  0
 58 57  1  0  0  0  0
M  END
>  <MODEL>
8

>  <REMARK>
 VINA RESULT:      -4.8      3.471      8.435
  Name = 
  15 active torsions:
  status: ('A' for Active; 'I' for Inactive)
    1  A    between atoms: C_1  and  C_19
    2  A    between atoms: C_1  and  C_46
    3  A    between atoms: C_5  and  C_16
    4  A    between atoms: C_5  and  N_38
    5  A    between atoms: P_13  and  C_16
    6  A    between atoms: P_13  and  O_24
    7  A    between atoms: C_15  and  C_43
    8  A    between atoms: N_18  and  C_46
    9  A    between atoms: C_19  and  C_49
   10  A    between atoms: C_20  and  C_45
   11  A    between atoms: O_24  and  C_42
   12  A    between atoms: C_25  and  C_50
   13  A    between atoms: C_27  and  C_52
   14  A    between atoms: C_28  and  C_30
   15  A    between atoms: C_45  and  O_48
                            x       y       z     vdW  Elec       q    Type
                         _______ _______ _______ _____ _____    ______ ____

>  <TORSDO>
F 15

$$$$
=
 OpenBabel11062418023D

 58 63  0  0  1  0  0  0  0  0999 V2000
  179.6050  180.2650  140.5670 C   0  0  0  0  0  0  0  0  0  0  0  0
  180.0370  179.0530  143.4990 C   0  0  0  0  0  2  0  0  0  0  0  0
  180.5310  179.3030  140.3230 C   0  0  0  0  0  0  0  0  0  0  0  0
  178.9310  180.4350  141.8950 C   0  0  0  0  0  2  0  0  0  0  0  0
  179.9170  180.4130  142.9670 N   0  0  0  0  0  2  0  0  0  0  0  0
  181.0050  178.3130  141.3710 C   0  0  2  0  0  3  0  0  0  0  0  0
  179.7440  181.0090  138.2660 N   0  0  0  0  0  0  0  0  0  0  0  0
  179.2050  181.1140  139.5340 O   0  0  0  0  0  0  0  0  0  0  0  0
  181.1270  179.1860  138.9630 C   0  0  0  0  0  0  0  0  0  0  0  0
  180.0420  178.0290  142.4430 N   0  0  0  0  0  2  0  0  0  0  0  0
  180.7340  180.0170  137.9910 C   0  0  0  0  0  3  0  0  0  0  0  0
  182.6970  179.5290  142.8280 C   0  0  0  0  0  3  0  0  0  0  0  0
  185.0510  179.3820  146.0780 O   0  0  0  0  0  0  0  0  0  0  0  0
  185.4640  178.6810  145.1140 C   0  0  0  0  0  0  0  0  0  0  0  0
  185.4370  178.1370  142.7150 C   0  0  0  0  0  3  0  0  0  0  0  0
  183.6920  179.6360  143.7050 C   0  0  0  0  0  3  0  0  0  0  0  0
  183.0340  176.6880  140.2320 C   0  0  0  0  0  1  0  0  0  0  0  0
  184.8320  177.7050  141.6120 C   0  0  0  0  0  3  0  0  0  0  0  0
  182.4430  178.4620  141.8360 C   0  0  0  0  0  0  0  0  0  0  0  0
  184.7830  178.7200  143.8470 N   0  0  0  0  0  0  0  0  0  0  0  0
  183.3950  177.6700  141.2990 C   0  0  0  0  0  0  0  0  0  0  0  0
  187.7380  178.2730  144.5300 O   0  0  0  0  0  0  0  0  0  0  0  0
  188.5990  177.8200  146.6910 C   0  0  0  0  0  2  0  0  0  0  0  0
  187.1010  177.8030  146.7630 C   0  0  0  0  0  2  0  0  0  0  0  0
  186.6670  177.8100  145.3150 C   0  0  1  0  0  3  0  0  0  0  0  0
  188.8860  177.8320  145.2050 C   0  0  0  0  0  2  0  0  0  0  0  0
  182.0830  178.1920  138.7200 O   0  0  0  0  0  0  0  0  0  0  0  0
  180.8950  175.9770  137.5880 O   0  0  0  0  0  0  0  0  0  0  0  0
  181.9640  177.0360  137.4490 P   0  0  1  0  0  4  0  0  0  0  0  0
  182.8330  177.2470  135.8650 C   0  0  0  0  0  2  0  0  0  0  0  0
  182.9670  175.9050  135.1620 C   0  0  0  0  0  2  0  0  0  0  0  0
  185.1290  176.5520  135.7910 C   0  0  0  0  0  2  0  0  0  0  0  0
  185.6930  174.5020  136.9040 C   0  0  0  0  0  2  0  0  0  0  0  0
  184.3550  175.4740  135.1810 N   0  0  0  0  0  0  0  0  0  0  0  0
  185.8840  175.9950  136.9800 C   0  0  1  0  0  3  0  0  0  0  0  0
  184.4390  174.3370  136.0860 C   0  0  0  0  0  2  0  0  0  0  0  0
  189.0480  179.7360  137.2230 O   0  0  0  0  0  1  0  0  0  0  0  0
  187.6200  177.8500  137.4450 C   0  0  1  0  0  3  0  0  0  0  0  0
  190.4620  176.5910  136.3750 O   0  0  0  0  0  0  0  0  0  0  0  0
  188.2460  175.4460  137.5950 N   0  0  0  0  0  2  0  0  0  0  0  0
  189.8020  178.0080  138.4810 O   0  0  0  0  0  1  0  0  0  0  0  0
  187.3600  176.4150  136.9470 C   0  0  1  0  0  3  0  0  0  0  0  0
  189.7670  175.6210  135.6390 C   0  0  2  0  0  3  0  0  0  0  0  0
  189.8070  177.8000  136.0980 C   0  0  0  0  0  2  0  0  0  0  0  0
  187.0430  178.1110  138.8330 C   0  0  0  0  0  1  0  0  0  0  0  0
  189.0820  178.3470  137.3340 C   0  0  0  0  0  0  0  0  0  0  0  0
  188.9580  174.7010  136.5560 C   0  0  0  0  0  2  0  0  0  0  0  0
  190.7140  174.8260  134.7500 C   0  0  0  0  0  2  0  0  0  0  0  0
  192.1210  175.3980  134.7590 C   0  0  0  0  0  1  0  0  0  0  0  0
  179.1780  181.7940  137.1870 C   0  0  0  0  0  2  0  0  0  0  0  0
  180.2810  182.5260  136.4360 C   0  0  1  0  0  3  0  0  0  0  0  0
  180.8950  181.6590  135.5260 O   0  0  0  0  0  1  0  0  0  0  0  0
  179.6860  183.7000  135.6820 C   0  0  0  0  0  2  0  0  0  0  0  0
  179.9780  185.5340  137.3370 C   0  0  0  0  0  3  0  0  0  0  0  0
  180.3030  184.9650  136.1710 C   0  0  0  0  0  3  0  0  0  0  0  0
  178.9430  184.9770  138.2600 C   0  0  0  0  0  2  0  0  0  0  0  0
  179.8730  186.7040  139.2780 C   0  0  0  0  0  1  0  0  0  0  0  0
  179.0460  185.5970  139.5040 O   0  0  0  0  0  0  0  0  0  0  0  0
  1  4  1  0  0  0  0
  3  1  2  0  0  0  0
  3  6  1  0  0  0  0
  4  5  1  0  0  0  0
  5  2  1  0  0  0  0
  6 19  1  1  0  0  0
  6 10  1  0  0  0  0
  7  8  1  0  0  0  0
  8  1  1  0  0  0  0
  9  3  1  0  0  0  0
 10  2  1  0  0  0  0
 11  7  1  0  0  0  0
 11  9  2  0  0  0  0
 12 16  2  0  0  0  0
 14 13  2  0  0  0  0
 15 20  1  0  0  0  0
 16 20  1  0  0  0  0
 17 21  1  0  0  0  0
 18 15  2  0  0  0  0
 19 12  1  0  0  0  0
 20 14  1  0  0  0  0
 21 18  1  0  0  0  0
 21 19  2  0  0  0  0
 22 26  1  0  0  0  0
 22 25  1  0  0  0  0
 23 24  1  0  0  0  0
 25 14  1  1  0  0  0
 25 24  1  0  0  0  0
 26 23  1  0  0  0  0
 27  9  1  0  0  0  0
 29 28  2  6  0  0  0
 29 27  1  0  0  0  0
 30 29  1  0  0  0  0
 31 34  1  0  0  0  0
 31 30  1  0  0  0  0
 33 35  1  0  0  0  0
 34 32  1  0  0  0  0
 34 36  1  0  0  0  0
 35 32  1  6  0  0  0
 36 33  1  0  0  0  0
 37 46  1  0  0  0  0
 38 45  1  1  0  0  0
 42 35  1  0  0  0  0
 42 38  1  0  0  0  0
 42 40  1  1  0  0  0
 43 48  1  1  0  0  0
 43 39  1  0  0  0  0
 43 47  1  0  0  0  0
 44 39  1  0  0  0  0
 44 46  1  0  0  0  0
 46 38  1  0  0  0  0
 46 41  1  0  0  0  0
 47 40  1  0  0  0  0
 48 49  1  0  0  0  0
 50  7  1  0  0  0  0
 51 52  1  6  0  0  0
 51 50  1  0  0  0  0
 53 55  1  0  0  0  0
 53 51  1  0  0  0  0
 54 56  1  0  0  0  0
 55 54  2  0  0  0  0
 56 58  1  0  0  0  0
 57 58  1  0  0  0  0
M  END
>  <MODEL>
9

>  <REMARK>
 VINA RESULT:      -4.8      3.613      8.464
  Name = 
  15 active torsions:
  status: ('A' for Active; 'I' for Inactive)
    1  A    between atoms: C_1  and  C_19
    2  A    between atoms: C_1  and  C_46
    3  A    between atoms: C_5  and  C_16
    4  A    between atoms: C_5  and  N_38
    5  A    between atoms: P_13  and  C_16
    6  A    between atoms: P_13  and  O_24
    7  A    between atoms: C_15  and  C_43
    8  A    between atoms: N_18  and  C_46
    9  A    between atoms: C_19  and  C_49
   10  A    between atoms: C_20  and  C_45
   11  A    between atoms: O_24  and  C_42
   12  A    between atoms: C_25  and  C_50
   13  A    between atoms: C_27  and  C_52
   14  A    between atoms: C_28  and  C_30
   15  A    between atoms: C_45  and  O_48
                            x       y       z     vdW  Elec       q    Type
                         _______ _______ _______ _____ _____    ______ ____

>  <TORSDO>
F 15

$$$$
