=
 OpenBabel11062415323D

 37 41  0  0  1  0  0  0  0  0999 V2000
  188.9920  177.4600  144.7920 C   0  0  0  0  0  0  0  0  0  0  0  0
  189.4950  176.8830  148.1840 F   0  0  0  0  0  0  0  0  0  0  0  0
  189.4800  178.0930  146.0610 C   0  0  0  0  0  2  0  0  0  0  0  0
  191.3180  176.8160  144.1780 C   0  0  0  0  0  3  0  0  0  0  0  0
  191.2130  176.4330  146.6610 C   0  0  0  0  0  0  0  0  0  0  0  0
  190.0790  177.0770  146.9740 C   0  0  0  0  0  0  0  0  0  0  0  0
  189.8610  176.9160  143.9140 C   0  0  0  0  0  0  0  0  0  0  0  0
  191.9030  176.6020  145.3650 C   0  0  0  0  0  3  0  0  0  0  0  0
  186.6920  178.2710  145.1470 C   0  0  0  0  0  3  0  0  0  0  0  0
  187.5460  177.4960  144.4880 C   0  0  0  0  0  3  0  0  0  0  0  0
  185.2360  178.2700  144.8020 C   0  0  1  0  0  3  0  0  0  0  0  0
  184.4260  178.1770  146.0900 C   0  0  0  0  0  1  0  0  0  0  0  0
  183.3790  179.9160  144.2590 C   0  0  0  0  0  2  0  0  0  0  0  0
  180.7270  178.0890  142.0480 C   0  0  0  0  0  0  0  0  0  0  0  0
  184.8580  179.5300  144.0090 C   0  0  2  0  0  3  0  0  0  0  0  0
  181.8980  178.1020  141.3710 N   0  0  0  0  0  0  0  0  0  0  0  0
  184.2420  178.9090  141.6550 C   0  0  0  0  0  3  0  0  0  0  0  0
  179.6700  177.6000  141.5750 O   0  0  0  0  0  0  0  0  0  0  0  0
  180.8370  178.8060  143.5740 S   0  0  0  0  0  0  0  0  0  0  0  0
  182.4750  179.1230  143.3680 C   0  0  1  0  0  3  0  0  0  0  0  0
  182.8690  178.6860  142.1180 C   0  0  0  0  0  0  0  0  0  0  0  0
  185.1600  179.3520  142.5260 C   0  0  0  0  0  3  0  0  0  0  0  0
  192.8080  176.3650  148.4670 N   0  0  0  0  0  1  0  0  0  0  0  0
  191.8770  175.5720  147.6820 C   0  0  0  0  0  2  0  0  0  0  0  0
  189.3720  176.4280  142.5740 C   0  0  1  0  0  3  0  0  0  0  0  0
  188.0230  176.0810  142.6760 O   0  0  0  0  0  1  0  0  0  0  0  0
  187.5680  178.7430  138.8090 O   0  0  0  0  0  0  0  0  0  0  0  0
  188.3720  178.1720  139.5280 C   0  0  0  0  0  0  0  0  0  0  0  0
  188.2710  178.1590  141.0110 C   0  0  0  0  0  0  0  0  0  0  0  0
  190.7890  175.6560  140.1040 F   0  0  0  0  0  0  0  0  0  0  0  0
  187.1380  177.4530  141.3870 F   0  0  0  0  0  0  0  0  0  0  0  0
  190.8230  177.8780  139.3620 O   0  0  0  0  0  0  0  0  0  0  0  0
  189.5730  177.4770  141.4670 C   0  0  2  0  0  3  0  0  0  0  0  0
  188.2150  179.4490  141.5050 F   0  0  0  0  0  0  0  0  0  0  0  0
  190.2210  176.9140  140.1940 C   0  0  2  0  0  0  0  0  0  0  0  0
  189.4410  176.4920  137.9830 F   0  0  0  0  0  0  0  0  0  0  0  0
  189.5350  177.4280  138.9990 C   0  0  1  0  0  0  0  0  0  0  0  0
  1  3  1  0  0  0  0
  3  6  1  0  0  0  0
  4  8  2  0  0  0  0
  5  6  2  0  0  0  0
  5 24  1  0  0  0  0
  6  2  1  0  0  0  0
  7  4  1  0  0  0  0
  7  1  2  0  0  0  0
  8  5  1  0  0  0  0
 10  1  1  0  0  0  0
 10  9  2  0  0  0  0
 11  9  1  0  0  0  0
 11 12  1  1  0  0  0
 14 19  1  0  0  0  0
 15 13  1  0  0  0  0
 15 11  1  1  0  0  0
 16 14  1  0  0  0  0
 16 21  2  0  0  0  0
 17 21  1  0  0  0  0
 17 22  2  0  0  0  0
 18 14  2  0  0  0  0
 20 19  1  0  0  0  0
 20 13  1  6  0  0  0
 21 20  1  0  0  0  0
 22 15  1  0  0  0  0
 24 23  1  0  0  0  0
 25 26  1  1  0  0  0
 25  7  1  0  0  0  0
 27 28  2  0  0  0  0
 28 29  1  0  0  0  0
 29 31  1  0  0  0  0
 29 33  1  0  0  0  0
 29 34  1  0  0  0  0
 32 35  1  0  0  0  0
 33 25  1  1  0  0  0
 35 30  1  1  0  0  0
 35 33  1  0  0  0  0
 37 36  1  6  0  0  0
 37 32  1  0  0  0  0
 37 28  1  0  0  0  0
 37 35  1  0  0  0  0
M  END
>  <MODEL>
1

>  <REMARK>
 VINA RESULT:     -10.0      0.000      0.000
  Name = 
  6 active torsions:
  status: ('A' for Active; 'I' for Inactive)
    1  A    between atoms: C_1  and  C_9
    2  A    between atoms: C_6  and  C_8
    3  A    between atoms: C_7  and  C_8
    4  A    between atoms: C_20  and  C_23
    5  A    between atoms: C_26  and  C_28
    6  A    between atoms: C_26  and  C_31
                            x       y       z     vdW  Elec       q    Type
                         _______ _______ _______ _____ _____    ______ ____

>  <TORSDO>
F 6

$$$$
=
 OpenBabel11062415323D

 37 41  0  0  1  0  0  0  0  0999 V2000
  189.4560  177.1070  138.2700 C   0  0  0  0  0  0  0  0  0  0  0  0
  192.0040  174.7580  137.9690 F   0  0  0  0  0  0  0  0  0  0  0  0
  190.9310  176.9530  138.0440 C   0  0  0  0  0  2  0  0  0  0  0  0
  189.0560  177.2170  135.8150 C   0  0  0  0  0  3  0  0  0  0  0  0
  190.8500  175.4740  136.0630 C   0  0  0  0  0  0  0  0  0  0  0  0
  191.2370  175.6790  137.3310 C   0  0  0  0  0  0  0  0  0  0  0  0
  188.6120  177.2720  137.2300 C   0  0  0  0  0  0  0  0  0  0  0  0
  190.0200  176.4350  135.3090 C   0  0  0  0  0  3  0  0  0  0  0  0
  189.1100  178.1780  140.4630 C   0  0  0  0  0  3  0  0  0  0  0  0
  188.9480  177.1330  139.6570 C   0  0  0  0  0  3  0  0  0  0  0  0
  188.5770  178.1550  141.8600 C   0  0  1  0  0  3  0  0  0  0  0  0
  187.1290  178.6280  141.8420 C   0  0  0  0  0  1  0  0  0  0  0  0
  187.6880  176.5760  143.6400 C   0  0  0  0  0  2  0  0  0  0  0  0
  188.9010  177.8490  147.1280 C   0  0  0  0  0  0  0  0  0  0  0  0
  188.6840  176.7480  142.4670 C   0  0  2  0  0  3  0  0  0  0  0  0
  189.9940  177.5370  146.3950 N   0  0  0  0  0  0  0  0  0  0  0  0
  190.5680  176.6710  144.1260 C   0  0  0  0  0  3  0  0  0  0  0  0
  188.9690  178.2530  148.3170 O   0  0  0  0  0  0  0  0  0  0  0  0
  187.4530  177.6240  146.2870 S   0  0  0  0  0  0  0  0  0  0  0  0
  188.2680  177.1290  144.9030 C   0  0  1  0  0  3  0  0  0  0  0  0
  189.6280  177.1320  145.1520 C   0  0  0  0  0  0  0  0  0  0  0  0
  190.1180  176.4420  142.8840 C   0  0  0  0  0  3  0  0  0  0  0  0
  190.3870  173.1840  135.4670 N   0  0  0  0  0  1  0  0  0  0  0  0
  191.3420  174.2710  135.3290 C   0  0  0  0  0  2  0  0  0  0  0  0
  187.1590  177.5840  137.4810 C   0  0  1  0  0  3  0  0  0  0  0  0
  186.9130  178.9190  137.1540 O   0  0  0  0  0  1  0  0  0  0  0  0
  183.0430  175.1720  137.2970 O   0  0  0  0  0  0  0  0  0  0  0  0
  184.2230  175.4400  137.1450 C   0  0  0  0  0  0  0  0  0  0  0  0
  184.7330  176.8330  137.0310 C   0  0  0  0  0  0  0  0  0  0  0  0
  187.6570  174.6750  137.5050 F   0  0  0  0  0  0  0  0  0  0  0  0
  184.5370  177.4930  138.2340 F   0  0  0  0  0  0  0  0  0  0  0  0
  186.0220  174.3240  135.8630 O   0  0  0  0  0  0  0  0  0  0  0  0
  186.2220  176.6570  136.6870 C   0  0  2  0  0  3  0  0  0  0  0  0
  184.0880  177.5030  136.0080 F   0  0  0  0  0  0  0  0  0  0  0  0
  186.5250  175.1640  136.8770 C   0  0  2  0  0  0  0  0  0  0  0  0
  185.4000  173.3700  137.9690 F   0  0  0  0  0  0  0  0  0  0  0  0
  185.2780  174.4060  137.0600 C   0  0  1  0  0  0  0  0  0  0  0  0
  1 10  1  0  0  0  0
  3  1  1  0  0  0  0
  4  7  1  0  0  0  0
  5  6  2  0  0  0  0
  6  2  1  0  0  0  0
  6  3  1  0  0  0  0
  7 25  1  0  0  0  0
  7  1  2  0  0  0  0
  8  4  2  0  0  0  0
  8  5  1  0  0  0  0
  9 11  1  0  0  0  0
 10  9  2  0  0  0  0
 11 12  1  6  0  0  0
 14 18  2  0  0  0  0
 15 11  1  1  0  0  0
 15 22  1  0  0  0  0
 15 13  1  0  0  0  0
 16 14  1  0  0  0  0
 17 21  1  0  0  0  0
 19 14  1  0  0  0  0
 20 13  1  1  0  0  0
 20 21  1  0  0  0  0
 20 19  1  0  0  0  0
 21 16  2  0  0  0  0
 22 17  2  0  0  0  0
 24 23  1  0  0  0  0
 24  5  1  0  0  0  0
 25 26  1  6  0  0  0
 28 27  2  0  0  0  0
 29 28  1  0  0  0  0
 29 31  1  0  0  0  0
 32 35  1  0  0  0  0
 32 37  1  0  0  0  0
 33 35  1  0  0  0  0
 33 29  1  0  0  0  0
 33 25  1  1  0  0  0
 34 29  1  0  0  0  0
 35 37  1  0  0  0  0
 35 30  1  1  0  0  0
 37 28  1  0  0  0  0
 37 36  1  1  0  0  0
M  END
>  <MODEL>
2

>  <REMARK>
 VINA RESULT:      -9.7      4.108      7.579
  Name = 
  6 active torsions:
  status: ('A' for Active; 'I' for Inactive)
    1  A    between atoms: C_1  and  C_9
    2  A    between atoms: C_6  and  C_8
    3  A    between atoms: C_7  and  C_8
    4  A    between atoms: C_20  and  C_23
    5  A    between atoms: C_26  and  C_28
    6  A    between atoms: C_26  and  C_31
                            x       y       z     vdW  Elec       q    Type
                         _______ _______ _______ _____ _____    ______ ____

>  <TORSDO>
F 6

$$$$
=
 OpenBabel11062415323D

 37 41  0  0  1  0  0  0  0  0999 V2000
  186.8740  178.3770  142.0370 C   0  0  0  0  0  0  0  0  0  0  0  0
  184.3720  178.9060  139.6800 F   0  0  0  0  0  0  0  0  0  0  0  0
  186.0410  179.4390  141.3840 C   0  0  0  0  0  2  0  0  0  0  0  0
  185.2700  178.2410  143.9380 C   0  0  0  0  0  3  0  0  0  0  0  0
  183.8010  178.5380  141.9190 C   0  0  0  0  0  0  0  0  0  0  0  0
  184.7010  178.9120  140.9970 C   0  0  0  0  0  0  0  0  0  0  0  0
  186.5250  177.8680  143.2370 C   0  0  0  0  0  0  0  0  0  0  0  0
  184.0910  178.5250  143.3680 C   0  0  0  0  0  3  0  0  0  0  0  0
  188.5390  178.4500  140.2210 C   0  0  0  0  0  3  0  0  0  0  0  0
  188.1180  177.9370  141.3720 C   0  0  0  0  0  3  0  0  0  0  0  0
  189.8050  177.9700  139.5860 C   0  0  1  0  0  3  0  0  0  0  0  0
  190.0290  176.5140  139.9770 C   0  0  0  0  0  1  0  0  0  0  0  0
  188.2990  178.4050  137.5870 C   0  0  0  0  0  2  0  0  0  0  0  0
  186.0190  175.2770  137.0640 C   0  0  0  0  0  0  0  0  0  0  0  0
  189.7470  178.1230  138.0590 C   0  0  2  0  0  3  0  0  0  0  0  0
  187.3040  174.8880  136.9040 N   0  0  0  0  0  0  0  0  0  0  0  0
  189.6010  175.8610  136.9760 C   0  0  0  0  0  3  0  0  0  0  0  0
  185.0460  174.4940  136.9190 O   0  0  0  0  0  0  0  0  0  0  0  0
  185.8670  176.9120  137.4620 S   0  0  0  0  0  0  0  0  0  0  0  0
  187.5340  177.1260  137.4560 C   0  0  1  0  0  3  0  0  0  0  0  0
  188.1440  175.9310  137.1220 C   0  0  0  0  0  0  0  0  0  0  0  0
  190.3470  176.9040  137.3660 C   0  0  0  0  0  3  0  0  0  0  0  0
  181.4550  178.9230  142.3200 N   0  0  0  0  0  1  0  0  0  0  0  0
  182.4100  178.2000  141.4960 C   0  0  0  0  0  2  0  0  0  0  0  0
  187.4530  176.9200  143.9530 C   0  0  1  0  0  3  0  0  0  0  0  0
  188.0440  176.0650  143.0190 O   0  0  0  0  0  1  0  0  0  0  0  0
  191.8620  176.9180  145.7850 O   0  0  0  0  0  0  0  0  0  0  0  0
  190.6610  177.1140  145.6820 C   0  0  0  0  0  0  0  0  0  0  0  0
  189.9720  177.2750  144.3750 C   0  0  0  0  0  0  0  0  0  0  0  0
  187.3520  176.8460  146.9010 F   0  0  0  0  0  0  0  0  0  0  0  0
  190.0360  176.0820  143.6720 F   0  0  0  0  0  0  0  0  0  0  0  0
  189.0760  178.4260  147.0550 O   0  0  0  0  0  0  0  0  0  0  0  0
  188.5330  177.6630  144.7570 C   0  0  2  0  0  3  0  0  0  0  0  0
  190.5560  178.2910  143.6410 F   0  0  0  0  0  0  0  0  0  0  0  0
  188.4300  177.4480  146.2740 C   0  0  2  0  0  0  0  0  0  0  0  0
  189.7480  176.2810  147.8780 F   0  0  0  0  0  0  0  0  0  0  0  0
  189.7600  177.2080  146.8510 C   0  0  1  0  0  0  0  0  0  0  0  0
  1  7  2  0  0  0  0
  2  6  1  0  0  0  0
  3  1  1  0  0  0  0
  5  8  1  0  0  0  0
  6  3  1  0  0  0  0
  6  5  2  0  0  0  0
  7  4  1  0  0  0  0
  7 25  1  0  0  0  0
  8  4  2  0  0  0  0
  9 10  2  0  0  0  0
 10  1  1  0  0  0  0
 11 12  1  6  0  0  0
 11  9  1  0  0  0  0
 13 15  1  0  0  0  0
 14 19  1  0  0  0  0
 15 11  1  1  0  0  0
 16 14  1  0  0  0  0
 16 21  2  0  0  0  0
 17 21  1  0  0  0  0
 17 22  2  0  0  0  0
 18 14  2  0  0  0  0
 20 19  1  0  0  0  0
 20 13  1  6  0  0  0
 21 20  1  0  0  0  0
 22 15  1  0  0  0  0
 24  5  1  0  0  0  0
 24 23  1  0  0  0  0
 25 26  1  6  0  0  0
 28 27  2  0  0  0  0
 28 37  1  0  0  0  0
 29 33  1  0  0  0  0
 29 28  1  0  0  0  0
 31 29  1  0  0  0  0
 33 25  1  6  0  0  0
 33 35  1  0  0  0  0
 34 29  1  0  0  0  0
 35 37  1  0  0  0  0
 35 30  1  1  0  0  0
 35 32  1  0  0  0  0
 37 32  1  0  0  0  0
 37 36  1  1  0  0  0
M  END
>  <MODEL>
3

>  <REMARK>
 VINA RESULT:      -9.5      3.541      7.364
  Name = 
  6 active torsions:
  status: ('A' for Active; 'I' for Inactive)
    1  A    between atoms: C_1  and  C_9
    2  A    between atoms: C_6  and  C_8
    3  A    between atoms: C_7  and  C_8
    4  A    between atoms: C_20  and  C_23
    5  A    between atoms: C_26  and  C_28
    6  A    between atoms: C_26  and  C_31
                            x       y       z     vdW  Elec       q    Type
                         _______ _______ _______ _____ _____    ______ ____

>  <TORSDO>
F 6

$$$$
=
 OpenBabel11062415323D

 37 41  0  0  1  0  0  0  0  0999 V2000
  185.9080  178.4610  142.9520 C   0  0  0  0  0  0  0  0  0  0  0  0
  182.6730  179.0440  141.8150 F   0  0  0  0  0  0  0  0  0  0  0  0
  184.9300  179.5450  142.6080 C   0  0  0  0  0  2  0  0  0  0  0  0
  185.2540  178.5850  145.3520 C   0  0  0  0  0  3  0  0  0  0  0  0
  183.0860  178.8730  144.1120 C   0  0  0  0  0  0  0  0  0  0  0  0
  183.5280  179.1090  142.8680 C   0  0  0  0  0  0  0  0  0  0  0  0
  186.0750  178.0630  144.2310 C   0  0  0  0  0  0  0  0  0  0  0  0
  183.9600  178.9300  145.3020 C   0  0  0  0  0  3  0  0  0  0  0  0
  186.7840  178.3880  140.6490 C   0  0  0  0  0  3  0  0  0  0  0  0
  186.7300  177.8740  141.8730 C   0  0  0  0  0  3  0  0  0  0  0  0
  187.6320  177.7570  139.5910 C   0  0  1  0  0  3  0  0  0  0  0  0
  186.9170  177.8770  138.2510 C   0  0  0  0  0  1  0  0  0  0  0  0
  189.5770  178.3950  138.0870 C   0  0  0  0  0  2  0  0  0  0  0  0
  191.4120  175.1240  136.9980 C   0  0  0  0  0  0  0  0  0  0  0  0
  189.0180  178.4160  139.5310 C   0  0  2  0  0  3  0  0  0  0  0  0
  191.5030  175.2250  138.3440 N   0  0  0  0  0  0  0  0  0  0  0  0
  190.7860  176.7540  140.1810 C   0  0  0  0  0  3  0  0  0  0  0  0
  191.9440  174.1890  136.3460 O   0  0  0  0  0  0  0  0  0  0  0  0
  190.5320  176.3840  136.2970 S   0  0  0  0  0  0  0  0  0  0  0  0
  190.2260  177.0790  137.7970 C   0  0  1  0  0  3  0  0  0  0  0  0
  190.8370  176.3250  138.7800 C   0  0  0  0  0  0  0  0  0  0  0  0
  189.9740  177.7640  140.5240 C   0  0  0  0  0  3  0  0  0  0  0  0
  180.8430  179.5880  143.5900 N   0  0  0  0  0  1  0  0  0  0  0  0
  181.6320  178.6270  144.3420 C   0  0  0  0  0  2  0  0  0  0  0  0
  187.1700  177.0880  144.5800 C   0  0  1  0  0  3  0  0  0  0  0  0
  187.5560  176.3980  143.4280 O   0  0  0  0  0  1  0  0  0  0  0  0
  191.8870  177.1450  145.3170 O   0  0  0  0  0  0  0  0  0  0  0  0
  190.6910  177.2660  145.5270 C   0  0  0  0  0  0  0  0  0  0  0  0
  189.7030  177.5610  144.4560 C   0  0  0  0  0  0  0  0  0  0  0  0
  187.7840  176.5900  147.4230 F   0  0  0  0  0  0  0  0  0  0  0  0
  189.6390  176.4870  143.5820 F   0  0  0  0  0  0  0  0  0  0  0  0
  189.4350  178.2530  147.4160 O   0  0  0  0  0  0  0  0  0  0  0  0
  188.3840  177.7860  145.2170 C   0  0  2  0  0  3  0  0  0  0  0  0
  190.0560  178.7110  143.7730 F   0  0  0  0  0  0  0  0  0  0  0  0
  188.6560  177.3510  146.6640 C   0  0  2  0  0  0  0  0  0  0  0  0
  190.3630  176.0660  147.7180 F   0  0  0  0  0  0  0  0  0  0  0  0
  190.0950  177.1290  146.8730 C   0  0  1  0  0  0  0  0  0  0  0  0
  1  7  2  0  0  0  0
  2  6  1  0  0  0  0
  3  6  1  0  0  0  0
  3  1  1  0  0  0  0
  5 24  1  0  0  0  0
  5  8  1  0  0  0  0
  6  5  2  0  0  0  0
  7 25  1  0  0  0  0
  7  4  1  0  0  0  0
  8  4  2  0  0  0  0
  9 10  2  0  0  0  0
 10  1  1  0  0  0  0
 11 12  1  6  0  0  0
 11  9  1  0  0  0  0
 13 15  1  0  0  0  0
 14 16  1  0  0  0  0
 15 11  1  6  0  0  0
 15 22  1  0  0  0  0
 16 21  2  0  0  0  0
 17 22  2  0  0  0  0
 18 14  2  0  0  0  0
 19 14  1  0  0  0  0
 19 20  1  0  0  0  0
 20 13  1  6  0  0  0
 20 21  1  0  0  0  0
 21 17  1  0  0  0  0
 23 24  1  0  0  0  0
 25 26  1  6  0  0  0
 27 28  2  0  0  0  0
 28 37  1  0  0  0  0
 29 33  1  0  0  0  0
 29 28  1  0  0  0  0
 31 29  1  0  0  0  0
 33 25  1  6  0  0  0
 33 35  1  0  0  0  0
 34 29  1  0  0  0  0
 35 37  1  0  0  0  0
 35 32  1  0  0  0  0
 35 30  1  1  0  0  0
 37 32  1  0  0  0  0
 37 36  1  1  0  0  0
M  END
>  <MODEL>
4

>  <REMARK>
 VINA RESULT:      -9.5      3.664      7.906
  Name = 
  6 active torsions:
  status: ('A' for Active; 'I' for Inactive)
    1  A    between atoms: C_1  and  C_9
    2  A    between atoms: C_6  and  C_8
    3  A    between atoms: C_7  and  C_8
    4  A    between atoms: C_20  and  C_23
    5  A    between atoms: C_26  and  C_28
    6  A    between atoms: C_26  and  C_31
                            x       y       z     vdW  Elec       q    Type
                         _______ _______ _______ _____ _____    ______ ____

>  <TORSDO>
F 6

$$$$
=
 OpenBabel11062415323D

 37 41  0  0  1  0  0  0  0  0999 V2000
  187.0650  178.2610  141.9110 C   0  0  0  0  0  0  0  0  0  0  0  0
  184.4760  178.8450  139.6630 F   0  0  0  0  0  0  0  0  0  0  0  0
  186.2580  179.3440  141.2600 C   0  0  0  0  0  2  0  0  0  0  0  0
  185.5580  178.2830  143.8930 C   0  0  0  0  0  3  0  0  0  0  0  0
  184.0040  178.5900  141.9410 C   0  0  0  0  0  0  0  0  0  0  0  0
  184.8730  178.8800  140.9620 C   0  0  0  0  0  0  0  0  0  0  0  0
  186.7520  177.8160  143.1460 C   0  0  0  0  0  0  0  0  0  0  0  0
  184.3680  178.6120  143.3730 C   0  0  0  0  0  3  0  0  0  0  0  0
  188.6800  178.2280  140.0490 C   0  0  0  0  0  3  0  0  0  0  0  0
  188.2470  177.7280  141.2020 C   0  0  0  0  0  3  0  0  0  0  0  0
  189.8820  177.6520  139.3690 C   0  0  1  0  0  3  0  0  0  0  0  0
  191.0030  177.5080  140.3910 C   0  0  0  0  0  1  0  0  0  0  0  0
  190.8250  175.4240  138.5950 C   0  0  0  0  0  2  0  0  0  0  0  0
  193.0270  176.0550  135.4320 C   0  0  0  0  0  0  0  0  0  0  0  0
  189.5520  176.2970  138.7260 C   0  0  2  0  0  3  0  0  0  0  0  0
  191.7580  176.4210  135.1370 N   0  0  0  0  0  0  0  0  0  0  0  0
  189.5150  176.5220  136.2250 C   0  0  0  0  0  3  0  0  0  0  0  0
  193.9640  176.1070  134.5950 O   0  0  0  0  0  0  0  0  0  0  0  0
  193.2070  175.5140  137.0220 S   0  0  0  0  0  0  0  0  0  0  0  0
  191.5840  175.7900  137.3590 C   0  0  1  0  0  3  0  0  0  0  0  0
  190.9590  176.2660  136.2220 C   0  0  0  0  0  0  0  0  0  0  0  0
  188.8480  176.4860  137.3870 C   0  0  0  0  0  3  0  0  0  0  0  0
  181.7070  178.9410  142.5850 N   0  0  0  0  0  1  0  0  0  0  0  0
  182.5760  178.3160  141.6020 C   0  0  0  0  0  2  0  0  0  0  0  0
  187.6630  176.8430  143.8500 C   0  0  1  0  0  3  0  0  0  0  0  0
  188.2730  176.0170  142.9030 O   0  0  0  0  0  1  0  0  0  0  0  0
  191.9750  176.7120  145.8960 O   0  0  0  0  0  0  0  0  0  0  0  0
  190.7890  176.9470  145.7330 C   0  0  0  0  0  0  0  0  0  0  0  0
  190.1700  177.1180  144.3920 C   0  0  0  0  0  0  0  0  0  0  0  0
  187.4170  176.8030  146.7900 F   0  0  0  0  0  0  0  0  0  0  0  0
  190.2270  175.9160  143.7040 F   0  0  0  0  0  0  0  0  0  0  0  0
  189.1830  178.3260  147.0160 O   0  0  0  0  0  0  0  0  0  0  0  0
  188.7280  177.5580  144.7000 C   0  0  2  0  0  3  0  0  0  0  0  0
  190.8230  178.1070  143.6790 F   0  0  0  0  0  0  0  0  0  0  0  0
  188.5430  177.3620  146.2120 C   0  0  2  0  0  0  0  0  0  0  0  0
  189.7420  176.1680  147.8890 F   0  0  0  0  0  0  0  0  0  0  0  0
  189.8360  177.0840  146.8560 C   0  0  1  0  0  0  0  0  0  0  0  0
  1  7  2  0  0  0  0
  2  6  1  0  0  0  0
  3  1  1  0  0  0  0
  5  8  1  0  0  0  0
  6  3  1  0  0  0  0
  6  5  2  0  0  0  0
  7 25  1  0  0  0  0
  7  4  1  0  0  0  0
  8  4  2  0  0  0  0
  9 10  2  0  0  0  0
 10  1  1  0  0  0  0
 11  9  1  0  0  0  0
 11 12  1  1  0  0  0
 13 15  1  0  0  0  0
 14 19  1  0  0  0  0
 15 11  1  6  0  0  0
 16 14  1  0  0  0  0
 16 21  2  0  0  0  0
 17 22  2  0  0  0  0
 18 14  2  0  0  0  0
 19 20  1  0  0  0  0
 20 13  1  6  0  0  0
 21 17  1  0  0  0  0
 21 20  1  0  0  0  0
 22 15  1  0  0  0  0
 24  5  1  0  0  0  0
 24 23  1  0  0  0  0
 25 26  1  6  0  0  0
 28 27  2  0  0  0  0
 28 37  1  0  0  0  0
 29 33  1  0  0  0  0
 29 28  1  0  0  0  0
 31 29  1  0  0  0  0
 33 25  1  6  0  0  0
 33 35  1  0  0  0  0
 34 29  1  0  0  0  0
 35 30  1  1  0  0  0
 35 37  1  0  0  0  0
 35 32  1  0  0  0  0
 37 32  1  0  0  0  0
 37 36  1  1  0  0  0
M  END
>  <MODEL>
5

>  <REMARK>
 VINA RESULT:      -9.3      4.088      8.521
  Name = 
  6 active torsions:
  status: ('A' for Active; 'I' for Inactive)
    1  A    between atoms: C_1  and  C_9
    2  A    between atoms: C_6  and  C_8
    3  A    between atoms: C_7  and  C_8
    4  A    between atoms: C_20  and  C_23
    5  A    between atoms: C_26  and  C_28
    6  A    between atoms: C_26  and  C_31
                            x       y       z     vdW  Elec       q    Type
                         _______ _______ _______ _____ _____    ______ ____

>  <TORSDO>
F 6

$$$$
=
 OpenBabel11062415323D

 37 41  0  0  1  0  0  0  0  0999 V2000
  188.5110  177.7970  145.3000 C   0  0  0  0  0  0  0  0  0  0  0  0
  188.9520  175.6520  148.0010 F   0  0  0  0  0  0  0  0  0  0  0  0
  188.7280  177.7590  146.7830 C   0  0  0  0  0  2  0  0  0  0  0  0
  190.9560  178.0660  144.9140 C   0  0  0  0  0  3  0  0  0  0  0  0
  190.8140  176.4320  146.8190 C   0  0  0  0  0  0  0  0  0  0  0  0
  189.5300  176.5660  147.1800 C   0  0  0  0  0  0  0  0  0  0  0  0
  189.5470  177.9850  144.4550 C   0  0  0  0  0  0  0  0  0  0  0  0
  191.5060  177.3910  145.9320 C   0  0  0  0  0  3  0  0  0  0  0  0
  186.2310  178.6530  144.9130 C   0  0  0  0  0  3  0  0  0  0  0  0
  187.1330  177.6850  144.7780 C   0  0  0  0  0  3  0  0  0  0  0  0
  184.8480  178.4910  144.3680 C   0  0  1  0  0  3  0  0  0  0  0  0
  183.8550  178.5450  145.5230 C   0  0  0  0  0  1  0  0  0  0  0  0
  183.0280  179.5880  142.9770 C   0  0  0  0  0  2  0  0  0  0  0  0
  181.8830  177.0540  140.2340 C   0  0  0  0  0  0  0  0  0  0  0  0
  184.5360  179.5780  143.3290 C   0  0  2  0  0  3  0  0  0  0  0  0
  183.1900  177.3320  140.0250 N   0  0  0  0  0  0  0  0  0  0  0  0
  185.0140  178.7170  141.0180 C   0  0  0  0  0  3  0  0  0  0  0  0
  181.2190  176.2930  139.4850 O   0  0  0  0  0  0  0  0  0  0  0  0
  181.2450  177.8430  141.5850 S   0  0  0  0  0  0  0  0  0  0  0  0
  182.7260  178.5540  141.9380 C   0  0  1  0  0  3  0  0  0  0  0  0
  183.6510  178.1750  140.9840 C   0  0  0  0  0  0  0  0  0  0  0  0
  185.4110  179.4150  142.0910 C   0  0  0  0  0  3  0  0  0  0  0  0
  192.7940  175.8680  148.0750 N   0  0  0  0  0  1  0  0  0  0  0  0
  191.6300  175.3230  147.3960 C   0  0  0  0  0  2  0  0  0  0  0  0
  189.2930  178.1800  142.9830 C   0  0  1  0  0  3  0  0  0  0  0  0
  189.6140  179.4930  142.6310 O   0  0  0  0  0  1  0  0  0  0  0  0
  193.0570  177.3760  140.1570 O   0  0  0  0  0  0  0  0  0  0  0  0
  191.9200  177.3240  140.5970 C   0  0  0  0  0  0  0  0  0  0  0  0
  191.5950  177.5010  142.0370 C   0  0  0  0  0  0  0  0  0  0  0  0
  188.4200  177.6580  140.2130 F   0  0  0  0  0  0  0  0  0  0  0  0
  191.8900  178.8010  142.4170 F   0  0  0  0  0  0  0  0  0  0  0  0
  189.9750  175.9190  139.9900 O   0  0  0  0  0  0  0  0  0  0  0  0
  190.0910  177.1860  142.1210 C   0  0  2  0  0  3  0  0  0  0  0  0
  192.3090  176.6050  142.8090 F   0  0  0  0  0  0  0  0  0  0  0  0
  189.5990  177.0950  140.6690 C   0  0  2  0  0  0  0  0  0  0  0  0
  190.4940  177.7750  138.5690 F   0  0  0  0  0  0  0  0  0  0  0  0
  190.7390  177.0800  139.7400 C   0  0  1  0  0  0  0  0  0  0  0  0
  1  3  1  0  0  0  0
  3  6  1  0  0  0  0
  4  8  2  0  0  0  0
  5  6  2  0  0  0  0
  5 24  1  0  0  0  0
  6  2  1  0  0  0  0
  7  4  1  0  0  0  0
  7  1  2  0  0  0  0
  8  5  1  0  0  0  0
 10  9  2  0  0  0  0
 10  1  1  0  0  0  0
 11  9  1  0  0  0  0
 11 12  1  1  0  0  0
 13 15  1  0  0  0  0
 14 19  1  0  0  0  0
 15 11  1  1  0  0  0
 16 14  1  0  0  0  0
 16 21  2  0  0  0  0
 17 22  2  0  0  0  0
 18 14  2  0  0  0  0
 19 20  1  0  0  0  0
 20 13  1  6  0  0  0
 21 17  1  0  0  0  0
 21 20  1  0  0  0  0
 22 15  1  0  0  0  0
 24 23  1  0  0  0  0
 25 26  1  6  0  0  0
 25  7  1  0  0  0  0
 27 28  2  0  0  0  0
 28 29  1  0  0  0  0
 29 33  1  0  0  0  0
 29 31  1  0  0  0  0
 29 34  1  0  0  0  0
 32 35  1  0  0  0  0
 33 25  1  1  0  0  0
 35 30  1  6  0  0  0
 35 33  1  0  0  0  0
 37 36  1  6  0  0  0
 37 32  1  0  0  0  0
 37 28  1  0  0  0  0
 37 35  1  0  0  0  0
M  END
>  <MODEL>
6

>  <REMARK>
 VINA RESULT:      -9.2      1.700      2.295
  Name = 
  6 active torsions:
  status: ('A' for Active; 'I' for Inactive)
    1  A    between atoms: C_1  and  C_9
    2  A    between atoms: C_6  and  C_8
    3  A    between atoms: C_7  and  C_8
    4  A    between atoms: C_20  and  C_23
    5  A    between atoms: C_26  and  C_28
    6  A    between atoms: C_26  and  C_31
                            x       y       z     vdW  Elec       q    Type
                         _______ _______ _______ _____ _____    ______ ____

>  <TORSDO>
F 6

$$$$
=
 OpenBabel11062415323D

 37 41  0  0  1  0  0  0  0  0999 V2000
  187.7070  178.0570  143.6020 C   0  0  0  0  0  0  0  0  0  0  0  0
  188.6720  176.3780  146.4910 F   0  0  0  0  0  0  0  0  0  0  0  0
  188.0810  178.2550  145.0410 C   0  0  0  0  0  2  0  0  0  0  0  0
  190.0520  178.5100  142.8950 C   0  0  0  0  0  3  0  0  0  0  0  0
  190.2990  177.1610  145.0020 C   0  0  0  0  0  0  0  0  0  0  0  0
  189.0520  177.2170  145.4930 C   0  0  0  0  0  0  0  0  0  0  0  0
  188.6210  178.2230  142.6220 C   0  0  0  0  0  0  0  0  0  0  0  0
  190.7790  178.0460  143.9210 C   0  0  0  0  0  3  0  0  0  0  0  0
  185.3320  178.6410  143.2920 C   0  0  0  0  0  3  0  0  0  0  0  0
  186.3040  177.7350  143.2680 C   0  0  0  0  0  3  0  0  0  0  0  0
  183.9270  178.2640  142.9460 C   0  0  1  0  0  3  0  0  0  0  0  0
  183.0190  178.6280  144.1150 C   0  0  0  0  0  1  0  0  0  0  0  0
  181.9270  179.1070  141.6250 C   0  0  0  0  0  2  0  0  0  0  0  0
  179.9520  176.0160  140.2830 C   0  0  0  0  0  0  0  0  0  0  0  0
  183.4700  178.9680  141.6600 C   0  0  2  0  0  3  0  0  0  0  0  0
  181.1910  175.9880  139.7400 N   0  0  0  0  0  0  0  0  0  0  0  0
  183.3090  177.3060  139.7840 C   0  0  0  0  0  3  0  0  0  0  0  0
  179.0670  175.1670  140.0090 O   0  0  0  0  0  0  0  0  0  0  0  0
  179.7240  177.3110  141.3440 S   0  0  0  0  0  0  0  0  0  0  0  0
  181.3010  177.8460  141.1190 C   0  0  1  0  0  3  0  0  0  0  0  0
  181.9370  177.0180  140.2130 C   0  0  0  0  0  0  0  0  0  0  0  0
  184.0080  178.2530  140.4260 C   0  0  0  0  0  3  0  0  0  0  0  0
  191.7320  176.7620  146.8990 N   0  0  0  0  0  1  0  0  0  0  0  0
  191.2920  176.2340  145.6190 C   0  0  0  0  0  2  0  0  0  0  0  0
  188.1940  178.1780  141.1780 C   0  0  1  0  0  3  0  0  0  0  0  0
  187.3050  179.2260  140.9280 O   0  0  0  0  0  1  0  0  0  0  0  0
  189.9240  177.4450  136.7880 O   0  0  0  0  0  0  0  0  0  0  0  0
  189.8680  177.4950  138.0070 C   0  0  0  0  0  0  0  0  0  0  0  0
  189.0000  178.4510  138.7430 C   0  0  0  0  0  0  0  0  0  0  0  0
  190.1880  176.0030  141.1970 F   0  0  0  0  0  0  0  0  0  0  0  0
  187.6700  178.1450  138.4990 F   0  0  0  0  0  0  0  0  0  0  0  0
  191.5940  177.2020  139.7550 O   0  0  0  0  0  0  0  0  0  0  0  0
  189.3940  178.2530  140.2170 C   0  0  2  0  0  3  0  0  0  0  0  0
  189.2680  179.7500  138.3520 F   0  0  0  0  0  0  0  0  0  0  0  0
  190.2890  177.0060  140.2490 C   0  0  2  0  0  0  0  0  0  0  0  0
  190.7150  175.2310  138.7190 F   0  0  0  0  0  0  0  0  0  0  0  0
  190.6580  176.6040  138.8840 C   0  0  1  0  0  0  0  0  0  0  0  0
  1  3  1  0  0  0  0
  3  6  1  0  0  0  0
  4  8  2  0  0  0  0
  5  6  2  0  0  0  0
  5 24  1  0  0  0  0
  6  2  1  0  0  0  0
  7  4  1  0  0  0  0
  7  1  2  0  0  0  0
  8  5  1  0  0  0  0
 10  9  2  0  0  0  0
 10  1  1  0  0  0  0
 11  9  1  0  0  0  0
 11 12  1  1  0  0  0
 13 15  1  0  0  0  0
 14 19  1  0  0  0  0
 15 11  1  1  0  0  0
 16 21  2  0  0  0  0
 16 14  1  0  0  0  0
 17 21  1  0  0  0  0
 17 22  2  0  0  0  0
 18 14  2  0  0  0  0
 20 19  1  0  0  0  0
 20 13  1  6  0  0  0
 21 20  1  0  0  0  0
 22 15  1  0  0  0  0
 24 23  1  0  0  0  0
 25 26  1  6  0  0  0
 25  7  1  0  0  0  0
 27 28  2  0  0  0  0
 28 29  1  0  0  0  0
 28 37  1  0  0  0  0
 29 33  1  0  0  0  0
 31 29  1  0  0  0  0
 32 35  1  0  0  0  0
 33 35  1  0  0  0  0
 33 25  1  1  0  0  0
 34 29  1  0  0  0  0
 35 30  1  1  0  0  0
 37 36  1  6  0  0  0
 37 32  1  0  0  0  0
 37 35  1  0  0  0  0
M  END
>  <MODEL>
7

>  <REMARK>
 VINA RESULT:      -9.2      1.804      2.412
  Name = 
  6 active torsions:
  status: ('A' for Active; 'I' for Inactive)
    1  A    between atoms: C_1  and  C_9
    2  A    between atoms: C_6  and  C_8
    3  A    between atoms: C_7  and  C_8
    4  A    between atoms: C_20  and  C_23
    5  A    between atoms: C_26  and  C_28
    6  A    between atoms: C_26  and  C_31
                            x       y       z     vdW  Elec       q    Type
                         _______ _______ _______ _____ _____    ______ ____

>  <TORSDO>
F 6

$$$$
=
 OpenBabel11062415323D

 37 41  0  0  1  0  0  0  0  0999 V2000
  183.9820  178.7960  139.7130 C   0  0  0  0  0  0  0  0  0  0  0  0
  181.3080  177.1740  138.1910 F   0  0  0  0  0  0  0  0  0  0  0  0
  182.6770  179.0260  139.0110 C   0  0  0  0  0  2  0  0  0  0  0  0
  182.8490  178.9170  141.9280 C   0  0  0  0  0  3  0  0  0  0  0  0
  181.2210  177.6680  140.4770 C   0  0  0  0  0  0  0  0  0  0  0  0
  181.7260  177.9030  139.2580 C   0  0  0  0  0  0  0  0  0  0  0  0
  184.0480  178.7940  141.0620 C   0  0  0  0  0  0  0  0  0  0  0  0
  181.6280  178.4260  141.6780 C   0  0  0  0  0  3  0  0  0  0  0  0
  185.4500  177.5420  138.1810 C   0  0  0  0  0  3  0  0  0  0  0  0
  185.2070  178.6300  138.9050 C   0  0  0  0  0  3  0  0  0  0  0  0
  186.7070  177.4220  137.3790 C   0  0  1  0  0  3  0  0  0  0  0  0
  186.3950  177.7480  135.9240 C   0  0  0  0  0  1  0  0  0  0  0  0
  189.0680  178.2960  137.0410 C   0  0  0  0  0  2  0  0  0  0  0  0
  191.5720  175.3990  137.8100 C   0  0  0  0  0  0  0  0  0  0  0  0
  187.7980  178.3540  137.9260 C   0  0  2  0  0  3  0  0  0  0  0  0
  190.8810  175.6640  138.9420 N   0  0  0  0  0  0  0  0  0  0  0  0
  189.0820  177.1950  139.7480 C   0  0  0  0  0  3  0  0  0  0  0  0
  192.4840  174.5350  137.7540 O   0  0  0  0  0  0  0  0  0  0  0  0
  191.0920  176.3540  136.5020 S   0  0  0  0  0  0  0  0  0  0  0  0
  189.9190  177.1270  137.4240 C   0  0  1  0  0  3  0  0  0  0  0  0
  189.9600  176.6350  138.7150 C   0  0  0  0  0  0  0  0  0  0  0  0
  188.1040  178.0380  139.3860 C   0  0  0  0  0  3  0  0  0  0  0  0
  179.3040  177.0100  141.7830 N   0  0  0  0  0  1  0  0  0  0  0  0
  180.1310  176.6610  140.6400 C   0  0  0  0  0  2  0  0  0  0  0  0
  185.3860  178.7210  141.7500 C   0  0  1  0  0  3  0  0  0  0  0  0
  185.9230  180.0070  141.8500 O   0  0  0  0  0  1  0  0  0  0  0  0
  185.3880  179.2840  146.4910 O   0  0  0  0  0  0  0  0  0  0  0  0
  185.6010  178.7960  145.3940 C   0  0  0  0  0  0  0  0  0  0  0  0
  184.7090  179.0050  144.2230 C   0  0  0  0  0  0  0  0  0  0  0  0
  187.7940  177.5000  142.9410 F   0  0  0  0  0  0  0  0  0  0  0  0
  184.7430  180.3400  143.8520 F   0  0  0  0  0  0  0  0  0  0  0  0
  186.5390  176.6110  144.7080 O   0  0  0  0  0  0  0  0  0  0  0  0
  185.2870  178.0740  143.1430 C   0  0  2  0  0  3  0  0  0  0  0  0
  183.4140  178.6280  144.5260 F   0  0  0  0  0  0  0  0  0  0  0  0
  186.6340  177.5800  143.6910 C   0  0  2  0  0  0  0  0  0  0  0  0
  188.0700  178.2940  145.4520 F   0  0  0  0  0  0  0  0  0  0  0  0
  186.7760  177.9440  145.1080 C   0  0  1  0  0  0  0  0  0  0  0  0
  1  7  2  0  0  0  0
  2  6  1  0  0  0  0
  3  6  1  0  0  0  0
  3  1  1  0  0  0  0
  5 24  1  0  0  0  0
  5  8  1  0  0  0  0
  6  5  2  0  0  0  0
  7 25  1  0  0  0  0
  7  4  1  0  0  0  0
  8  4  2  0  0  0  0
  9 10  2  0  0  0  0
 10  1  1  0  0  0  0
 11 12  1  6  0  0  0
 11  9  1  0  0  0  0
 13 15  1  0  0  0  0
 14 16  1  0  0  0  0
 15 11  1  6  0  0  0
 15 22  1  0  0  0  0
 18 14  2  0  0  0  0
 19 20  1  0  0  0  0
 19 14  1  0  0  0  0
 20 13  1  1  0  0  0
 20 21  1  0  0  0  0
 21 16  2  0  0  0  0
 21 17  1  0  0  0  0
 22 17  2  0  0  0  0
 24 23  1  0  0  0  0
 25 26  1  1  0  0  0
 28 27  2  0  0  0  0
 29 34  1  0  0  0  0
 29 28  1  0  0  0  0
 31 29  1  0  0  0  0
 32 37  1  0  0  0  0
 33 25  1  6  0  0  0
 33 35  1  0  0  0  0
 33 29  1  0  0  0  0
 35 30  1  6  0  0  0
 35 32  1  0  0  0  0
 35 37  1  0  0  0  0
 37 28  1  0  0  0  0
 37 36  1  1  0  0  0
M  END
>  <MODEL>
8

>  <REMARK>
 VINA RESULT:      -9.1      4.018      8.827
  Name = 
  6 active torsions:
  status: ('A' for Active; 'I' for Inactive)
    1  A    between atoms: C_1  and  C_9
    2  A    between atoms: C_6  and  C_8
    3  A    between atoms: C_7  and  C_8
    4  A    between atoms: C_20  and  C_23
    5  A    between atoms: C_26  and  C_28
    6  A    between atoms: C_26  and  C_31
                            x       y       z     vdW  Elec       q    Type
                         _______ _______ _______ _____ _____    ______ ____

>  <TORSDO>
F 6

$$$$
=
 OpenBabel11062415323D

 37 41  0  0  1  0  0  0  0  0999 V2000
  183.8170  178.4780  141.7060 C   0  0  0  0  0  0  0  0  0  0  0  0
  182.0090  177.9320  144.6260 F   0  0  0  0  0  0  0  0  0  0  0  0
  182.8130  179.0960  142.6330 C   0  0  0  0  0  2  0  0  0  0  0  0
  185.6760  179.6400  142.8890 C   0  0  0  0  0  3  0  0  0  0  0  0
  184.1110  178.9550  144.7340 C   0  0  0  0  0  0  0  0  0  0  0  0
  183.0140  178.6280  144.0350 C   0  0  0  0  0  0  0  0  0  0  0  0
  185.1290  178.7770  141.8120 C   0  0  0  0  0  0  0  0  0  0  0  0
  185.2390  179.7130  144.1540 C   0  0  0  0  0  3  0  0  0  0  0  0
  182.4250  177.9480  139.7420 C   0  0  0  0  0  3  0  0  0  0  0  0
  183.3390  177.5810  140.6340 C   0  0  0  0  0  3  0  0  0  0  0  0
  181.9730  177.0020  138.6760 C   0  0  1  0  0  3  0  0  0  0  0  0
  182.5720  175.6280  138.9510 C   0  0  0  0  0  1  0  0  0  0  0  0
  179.8090  178.3120  138.9130 C   0  0  0  0  0  2  0  0  0  0  0  0
  179.3350  179.2290  142.6800 C   0  0  0  0  0  0  0  0  0  0  0  0
  180.4390  176.9270  138.6210 C   0  0  2  0  0  3  0  0  0  0  0  0
  179.3310  177.8800  142.5750 N   0  0  0  0  0  0  0  0  0  0  0  0
  179.5420  176.1160  140.8220 C   0  0  0  0  0  3  0  0  0  0  0  0
  179.1630  179.8290  143.7710 O   0  0  0  0  0  0  0  0  0  0  0  0
  179.5770  180.0070  141.2000 S   0  0  0  0  0  0  0  0  0  0  0  0
  179.7130  178.5420  140.3880 C   0  0  1  0  0  3  0  0  0  0  0  0
  179.5410  177.5070  141.2870 C   0  0  0  0  0  0  0  0  0  0  0  0
  179.9130  175.8500  139.5620 C   0  0  0  0  0  3  0  0  0  0  0  0
  185.4740  179.0270  146.7210 N   0  0  0  0  0  1  0  0  0  0  0  0
  184.1820  178.6280  146.1890 C   0  0  0  0  0  2  0  0  0  0  0  0
  186.1020  178.2750  140.7770 C   0  0  1  0  0  3  0  0  0  0  0  0
  185.9330  179.0020  139.5960 O   0  0  0  0  0  1  0  0  0  0  0  0
  190.5930  176.6890  140.4410 O   0  0  0  0  0  0  0  0  0  0  0  0
  189.5580  177.1080  140.9330 C   0  0  0  0  0  0  0  0  0  0  0  0
  188.5960  177.9670  140.1930 C   0  0  0  0  0  0  0  0  0  0  0  0
  186.8940  176.8650  143.2460 F   0  0  0  0  0  0  0  0  0  0  0  0
  188.0380  177.2420  139.1520 F   0  0  0  0  0  0  0  0  0  0  0  0
  189.0050  177.8820  143.2170 O   0  0  0  0  0  0  0  0  0  0  0  0
  187.5600  178.3690  141.2580 C   0  0  2  0  0  3  0  0  0  0  0  0
  189.2300  179.0940  139.7030 F   0  0  0  0  0  0  0  0  0  0  0  0
  187.8620  177.4990  142.4870 C   0  0  2  0  0  0  0  0  0  0  0  0
  189.1400  175.5210  142.8450 F   0  0  0  0  0  0  0  0  0  0  0  0
  189.1450  176.8010  142.3190 C   0  0  1  0  0  0  0  0  0  0  0  0
  1  7  2  0  0  0  0
  1  3  1  0  0  0  0
  3  6  1  0  0  0  0
  4  8  2  0  0  0  0
  5 24  1  0  0  0  0
  6  2  1  0  0  0  0
  6  5  2  0  0  0  0
  7  4  1  0  0  0  0
  8  5  1  0  0  0  0
  9 10  2  0  0  0  0
 10  1  1  0  0  0  0
 11 12  1  1  0  0  0
 11  9  1  0  0  0  0
 14 18  2  0  0  0  0
 15 11  1  1  0  0  0
 15 13  1  0  0  0  0
 15 22  1  0  0  0  0
 16 14  1  0  0  0  0
 17 21  1  0  0  0  0
 19 14  1  0  0  0  0
 20 13  1  6  0  0  0
 20 19  1  0  0  0  0
 20 21  1  0  0  0  0
 21 16  2  0  0  0  0
 22 17  2  0  0  0  0
 24 23  1  0  0  0  0
 25 26  1  6  0  0  0
 25  7  1  0  0  0  0
 27 28  2  0  0  0  0
 28 37  1  0  0  0  0
 29 28  1  0  0  0  0
 29 33  1  0  0  0  0
 31 29  1  0  0  0  0
 33 25  1  6  0  0  0
 33 35  1  0  0  0  0
 34 29  1  0  0  0  0
 35 32  1  0  0  0  0
 35 30  1  1  0  0  0
 37 35  1  0  0  0  0
 37 36  1  1  0  0  0
 37 32  1  0  0  0  0
M  END
>  <MODEL>
9

>  <REMARK>
 VINA RESULT:      -9.0      2.900      5.565
  Name = 
  6 active torsions:
  status: ('A' for Active; 'I' for Inactive)
    1  A    between atoms: C_1  and  C_9
    2  A    between atoms: C_6  and  C_8
    3  A    between atoms: C_7  and  C_8
    4  A    between atoms: C_20  and  C_23
    5  A    between atoms: C_26  and  C_28
    6  A    between atoms: C_26  and  C_31
                            x       y       z     vdW  Elec       q    Type
                         _______ _______ _______ _____ _____    ______ ____

>  <TORSDO>
F 6

$$$$
