=
 OpenBabel11062416263D

 46 51  0  0  1  0  0  0  0  0999 V2000
  185.1090  173.4760  136.3970 C   0  0  2  0  0  3  0  0  0  0  0  0
  187.1770  174.4690  136.9850 C   0  0  2  0  0  3  0  0  0  0  0  0
  185.3950  175.8660  135.7910 C   0  0  2  0  0  3  0  0  0  0  0  0
  185.6950  174.7980  136.8640 C   0  0  1  0  0  3  0  0  0  0  0  0
  184.5480  172.7110  137.5810 C   0  0  0  0  0  1  0  0  0  0  0  0
  186.3230  177.0700  135.8920 C   0  0  0  0  0  2  0  0  0  0  0  0
  187.7650  176.6080  135.7520 C   0  0  2  0  0  3  0  0  0  0  0  0
  188.1360  175.6630  136.9060 C   0  0  1  0  0  3  0  0  0  0  0  0
  187.4190  173.4240  135.9270 C   0  0  0  0  0  2  0  0  0  0  0  0
  186.1670  172.6910  135.7570 N   0  0  0  0  0  2  0  0  0  0  0  0
  183.9780  176.3350  135.8730 C   0  0  0  0  0  0  0  0  0  0  0  0
  183.2790  176.2180  137.1100 N   0  0  0  0  0  2  0  0  0  0  0  0
  183.3870  176.7570  134.8430 O   0  0  0  0  0  0  0  0  0  0  0  0
  181.8740  176.5730  137.2350 C   0  0  1  0  0  3  0  0  0  0  0  0
  179.9050  177.0220  135.1830 C   0  0  0  0  0  1  0  0  0  0  0  0
  181.0020  175.3940  136.7800 C   0  0  1  0  0  0  0  0  0  0  0  0
  179.6190  175.5190  137.0190 O   0  0  0  0  0  0  0  0  0  0  0  0
  180.0310  175.5860  135.6670 C   0  0  1  0  0  3  0  0  0  0  0  0
  180.7440  173.4080  137.8480 C   0  0  0  0  0  1  0  0  0  0  0  0
  181.4960  174.0770  136.8700 O   0  0  0  0  0  0  0  0  0  0  0  0
  181.5730  176.9950  138.6660 C   0  0  0  0  0  2  0  0  0  0  0  0
  182.6610  178.7360  141.1750 C   0  0  2  0  0  3  0  0  0  0  0  0
  180.5460  179.0340  140.1090 O   0  0  0  0  0  1  0  0  0  0  0  0
  184.6420  179.5930  140.0570 O   0  0  0  0  0  1  0  0  0  0  0  0
  184.1760  178.6710  141.0040 C   0  0  2  0  0  3  0  0  0  0  0  0
  183.2910  177.5980  140.3770 C   0  0  2  0  0  3  0  0  0  0  0  0
  181.9230  179.2020  139.9270 C   0  0  2  0  0  3  0  0  0  0  0  0
  182.5560  178.0680  139.1290 C   0  0  2  0  0  3  0  0  0  0  0  0
  188.6950  177.8150  135.6570 C   0  0  0  0  0  2  0  0  0  0  0  0
  188.0700  179.0460  136.2930 C   0  0  0  0  0  2  0  0  0  0  0  0
  189.0480  179.7120  137.2410 C   0  0  0  0  0  1  0  0  0  0  0  0
  188.1820  176.3880  138.2520 C   0  0  0  0  0  2  0  0  0  0  0  0
  189.6160  176.5840  138.7300 C   0  0  0  0  0  2  0  0  0  0  0  0
  191.9040  176.8540  140.3880 O   0  0  0  0  0  0  0  0  0  0  0  0
  190.7820  177.1470  140.8870 C   0  0  0  0  0  0  0  0  0  0  0  0
  189.6430  177.2810  140.0130 N   0  0  0  0  0  0  0  0  0  0  0  0
  188.8720  176.4520  143.8340 C   0  0  0  0  0  3  0  0  0  0  0  0
  190.8820  178.7010  144.4170 C   0  0  0  0  0  3  0  0  0  0  0  0
  190.1590  176.1210  143.1520 C   0  0  0  0  0  2  0  0  0  0  0  0
  191.0550  178.4070  142.9780 C   0  0  0  0  0  3  0  0  0  0  0  0
  190.6800  177.2820  142.3610 C   0  0  0  0  0  0  0  0  0  0  0  0
  187.4530  177.5570  145.4550 C   0  0  0  0  0  1  0  0  0  0  0  0
  188.7600  177.4010  144.7640 C   0  0  0  0  0  0  0  0  0  0  0  0
  189.8800  178.2650  145.1910 C   0  0  0  0  0  3  0  0  0  0  0  0
  187.6400  177.5410  141.1880 O   0  0  0  0  0  1  0  0  0  0  0  0
  188.5280  178.1680  140.3110 C   0  0  0  0  0  2  0  0  0  0  0  0
  1  4  1  0  0  0  0
  1  5  1  1  0  0  0
  2  9  1  6  0  0  0
  3 11  1  1  0  0  0
  3  6  1  0  0  0  0
  3  4  1  0  0  0  0
  4  2  1  0  0  0  0
  7  6  1  0  0  0  0
  7  8  1  0  0  0  0
  8  2  1  0  0  0  0
  8 32  1  0  0  0  0
 10  9  1  0  0  0  0
 10  1  1  0  0  0  0
 11 12  1  0  0  0  0
 12 14  1  0  0  0  0
 13 11  2  0  0  0  0
 14 21  1  0  0  0  0
 15 18  1  0  0  0  0
 16 20  1  0  0  0  0
 16 17  1  0  0  0  0
 16 14  1  0  0  0  0
 18 16  1  0  0  0  0
 18 17  1  0  0  0  0
 20 19  1  0  0  0  0
 21 28  1  0  0  0  0
 24 25  1  0  0  0  0
 25 22  1  0  0  0  0
 26 25  1  0  0  0  0
 26 22  1  0  0  0  0
 27 23  1  0  0  0  0
 27 22  1  0  0  0  0
 28 27  1  0  0  0  0
 28 26  1  0  0  0  0
 29  7  1  0  0  0  0
 29 30  1  0  0  0  0
 30 31  1  0  0  0  0
 32 33  1  0  0  0  0
 33 36  1  0  0  0  0
 34 35  2  0  0  0  0
 35 41  1  0  0  0  0
 36 46  1  0  0  0  0
 36 35  1  0  0  0  0
 37 43  2  0  0  0  0
 38 44  2  0  0  0  0
 39 37  1  0  0  0  0
 40 38  1  0  0  0  0
 41 40  2  0  0  0  0
 41 39  1  0  0  0  0
 43 44  1  0  0  0  0
 43 42  1  0  0  0  0
 46 45  1  0  0  0  0
M  END
>  <MODEL>
1

>  <REMARK>
 VINA RESULT:      -6.4      0.000      0.000
  Name = 
  13 active torsions:
  status: ('A' for Active; 'I' for Inactive)
    1  A    between atoms: C_5  and  C_20
    2  A    between atoms: C_7  and  C_10
    3  A    between atoms: C_13  and  N_29
    4  A    between atoms: N_15  and  C_46
    5  A    between atoms: C_16  and  O_44
    6  A    between atoms: C_16  and  C_46
    7  A    between atoms: C_17  and  C_23
    8  A    between atoms: C_20  and  C_41
    9  A    between atoms: C_24  and  C_34
   10  A    between atoms: C_24  and  C_46
   11  A    between atoms: C_25  and  N_29
   12  A    between atoms: C_25  and  C_36
   13  A    between atoms: C_36  and  C_42
                            x       y       z     vdW  Elec       q    Type
                         _______ _______ _______ _____ _____    ______ ____

>  <TORSDO>
F 13

$$$$
=
 OpenBabel11062416263D

 46 51  0  0  1  0  0  0  0  0999 V2000
  182.6230  178.1640  137.6750 C   0  0  2  0  0  3  0  0  0  0  0  0
  182.4110  179.0440  139.8630 C   0  0  2  0  0  3  0  0  0  0  0  0
  181.0440  176.9880  139.1880 C   0  0  2  0  0  3  0  0  0  0  0  0
  182.4010  177.7200  139.1120 C   0  0  1  0  0  3  0  0  0  0  0  0
  184.0890  178.0290  137.3120 C   0  0  0  0  0  1  0  0  0  0  0  0
  180.4890  176.9370  140.6050 C   0  0  0  0  0  2  0  0  0  0  0  0
  180.3270  178.3530  141.1350 C   0  0  2  0  0  3  0  0  0  0  0  0
  181.6940  179.0500  141.2190 C   0  0  1  0  0  3  0  0  0  0  0  0
  181.8570  180.0410  138.8780 C   0  0  0  0  0  2  0  0  0  0  0  0
  182.2060  179.5620  137.5430 N   0  0  0  0  0  2  0  0  0  0  0  0
  181.1470  175.5960  138.6540 C   0  0  0  0  0  0  0  0  0  0  0  0
  181.3670  175.4020  137.2590 N   0  0  0  0  0  2  0  0  0  0  0  0
  180.9650  174.6080  139.4150 O   0  0  0  0  0  0  0  0  0  0  0  0
  181.3890  174.0760  136.6620 C   0  0  1  0  0  3  0  0  0  0  0  0
  180.5020  171.5280  137.6670 C   0  0  0  0  0  1  0  0  0  0  0  0
  179.9530  173.6240  136.3590 C   0  0  1  0  0  0  0  0  0  0  0  0
  179.8240  172.4610  135.5740 O   0  0  0  0  0  0  0  0  0  0  0  0
  179.4490  172.3450  136.9330 C   0  0  1  0  0  3  0  0  0  0  0  0
  179.1880  175.2080  134.9250 C   0  0  0  0  0  1  0  0  0  0  0  0
  178.9410  174.5830  136.1570 O   0  0  0  0  0  0  0  0  0  0  0  0
  182.2670  174.0840  135.4190 C   0  0  0  0  0  2  0  0  0  0  0  0
  185.0370  174.4460  137.0620 C   0  0  2  0  0  3  0  0  0  0  0  0
  184.3800  175.7470  135.1720 O   0  0  0  0  0  1  0  0  0  0  0  0
  185.8640  172.1940  136.6750 O   0  0  0  0  0  1  0  0  0  0  0  0
  185.2860  173.0490  137.6230 C   0  0  2  0  0  3  0  0  0  0  0  0
  183.8740  173.4720  137.2310 C   0  0  2  0  0  3  0  0  0  0  0  0
  184.7990  174.4690  135.5580 C   0  0  2  0  0  3  0  0  0  0  0  0
  183.6400  173.4930  135.7260 C   0  0  2  0  0  3  0  0  0  0  0  0
  179.5950  178.3300  142.4750 C   0  0  0  0  0  2  0  0  0  0  0  0
  179.3290  179.7380  142.9830 C   0  0  0  0  0  2  0  0  0  0  0  0
  178.9310  179.7110  144.4450 C   0  0  0  0  0  1  0  0  0  0  0  0
  182.5930  178.4290  142.2890 C   0  0  0  0  0  2  0  0  0  0  0  0
  183.1580  179.4910  143.2260 C   0  0  0  0  0  2  0  0  0  0  0  0
  185.4480  179.3680  141.5520 O   0  0  0  0  0  0  0  0  0  0  0  0
  185.5350  178.8550  142.7020 C   0  0  0  0  0  0  0  0  0  0  0  0
  184.5000  179.1280  143.6690 N   0  0  0  0  0  0  0  0  0  0  0  0
  187.7140  177.4570  145.1740 C   0  0  0  0  0  3  0  0  0  0  0  0
  188.9540  177.0960  142.3860 C   0  0  0  0  0  3  0  0  0  0  0  0
  186.6250  177.0980  144.2180 C   0  0  0  0  0  2  0  0  0  0  0  0
  187.7150  177.8670  142.1490 C   0  0  0  0  0  3  0  0  0  0  0  0
  186.6720  177.9440  142.9830 C   0  0  0  0  0  0  0  0  0  0  0  0
  189.9990  177.6050  145.9630 C   0  0  0  0  0  1  0  0  0  0  0  0
  189.0110  177.3290  144.8880 C   0  0  0  0  0  0  0  0  0  0  0  0
  189.5180  176.8660  143.5790 C   0  0  0  0  0  3  0  0  0  0  0  0
  183.5800  178.8600  145.8000 O   0  0  0  0  0  1  0  0  0  0  0  0
  184.7540  179.1500  145.1020 C   0  0  0  0  0  2  0  0  0  0  0  0
  1  5  1  1  0  0  0
  1  4  1  0  0  0  0
  2  9  1  6  0  0  0
  2  8  1  0  0  0  0
  3 11  1  1  0  0  0
  3  6  1  0  0  0  0
  4  3  1  0  0  0  0
  4  2  1  0  0  0  0
  6  7  1  0  0  0  0
  7  8  1  0  0  0  0
  7 29  1  0  0  0  0
  8 32  1  0  0  0  0
 10  1  1  0  0  0  0
 10  9  1  0  0  0  0
 11 13  2  0  0  0  0
 12 11  1  0  0  0  0
 14 12  1  0  0  0  0
 16 14  1  0  0  0  0
 16 18  1  0  0  0  0
 17 16  1  0  0  0  0
 17 18  1  0  0  0  0
 18 15  1  0  0  0  0
 19 20  1  0  0  0  0
 20 16  1  0  0  0  0
 21 28  1  0  0  0  0
 21 14  1  0  0  0  0
 22 26  1  0  0  0  0
 22 25  1  0  0  0  0
 23 27  1  0  0  0  0
 24 25  1  0  0  0  0
 26 25  1  0  0  0  0
 27 28  1  0  0  0  0
 27 22  1  0  0  0  0
 28 26  1  0  0  0  0
 29 30  1  0  0  0  0
 30 31  1  0  0  0  0
 32 33  1  0  0  0  0
 33 36  1  0  0  0  0
 34 35  2  0  0  0  0
 35 41  1  0  0  0  0
 35 36  1  0  0  0  0
 36 46  1  0  0  0  0
 38 44  2  0  0  0  0
 39 37  1  0  0  0  0
 40 38  1  0  0  0  0
 40 41  2  0  0  0  0
 41 39  1  0  0  0  0
 43 37  2  0  0  0  0
 43 42  1  0  0  0  0
 44 43  1  0  0  0  0
 46 45  1  0  0  0  0
M  END
>  <MODEL>
2

>  <REMARK>
 VINA RESULT:      -6.1      2.841      6.274
  Name = 
  13 active torsions:
  status: ('A' for Active; 'I' for Inactive)
    1  A    between atoms: C_5  and  C_20
    2  A    between atoms: C_7  and  C_10
    3  A    between atoms: C_13  and  N_29
    4  A    between atoms: N_15  and  C_46
    5  A    between atoms: C_16  and  O_44
    6  A    between atoms: C_16  and  C_46
    7  A    between atoms: C_17  and  C_23
    8  A    between atoms: C_20  and  C_41
    9  A    between atoms: C_24  and  C_34
   10  A    between atoms: C_24  and  C_46
   11  A    between atoms: C_25  and  N_29
   12  A    between atoms: C_25  and  C_36
   13  A    between atoms: C_36  and  C_42
                            x       y       z     vdW  Elec       q    Type
                         _______ _______ _______ _____ _____    ______ ____

>  <TORSDO>
F 13

$$$$
=
 OpenBabel11062416263D

 46 51  0  0  1  0  0  0  0  0999 V2000
  185.1830  178.8190  143.8250 C   0  0  2  0  0  3  0  0  0  0  0  0
  183.4700  178.1980  142.3140 C   0  0  2  0  0  3  0  0  0  0  0  0
  185.6860  179.1080  141.4120 C   0  0  2  0  0  3  0  0  0  0  0  0
  184.9860  178.2040  142.4500 C   0  0  1  0  0  3  0  0  0  0  0  0
  185.3830  177.7260  144.8580 C   0  0  0  0  0  1  0  0  0  0  0  0
  185.1600  178.8870  139.9990 C   0  0  0  0  0  2  0  0  0  0  0  0
  183.6640  179.1540  139.9710 C   0  0  2  0  0  3  0  0  0  0  0  0
  182.9270  178.1570  140.8800 C   0  0  1  0  0  3  0  0  0  0  0  0
  183.0150  179.3980  143.1030 C   0  0  0  0  0  2  0  0  0  0  0  0
  183.9960  179.6080  144.1640 N   0  0  0  0  0  2  0  0  0  0  0  0
  187.1650  178.8980  141.4190 C   0  0  0  0  0  0  0  0  0  0  0  0
  187.6790  177.5820  141.6100 N   0  0  0  0  0  2  0  0  0  0  0  0
  187.9480  179.8820  141.3330 O   0  0  0  0  0  0  0  0  0  0  0  0
  189.1060  177.3220  141.7150 C   0  0  1  0  0  3  0  0  0  0  0  0
  191.7970  177.1700  142.7270 C   0  0  0  0  0  1  0  0  0  0  0  0
  189.3810  176.4500  142.9500 C   0  0  1  0  0  0  0  0  0  0  0  0
  190.2440  175.3540  142.7520 O   0  0  0  0  0  0  0  0  0  0  0  0
  190.7510  176.4180  143.5350 C   0  0  1  0  0  3  0  0  0  0  0  0
  188.6170  177.0700  144.9950 C   0  0  0  0  0  1  0  0  0  0  0  0
  188.3630  176.2320  143.8990 O   0  0  0  0  0  0  0  0  0  0  0  0
  189.6100  176.6790  140.4310 C   0  0  0  0  0  2  0  0  0  0  0  0
  189.4650  177.1060  137.2210 C   0  0  2  0  0  3  0  0  0  0  0  0
  191.3310  176.2030  138.4050 O   0  0  0  0  0  1  0  0  0  0  0  0
  189.1110  179.5090  137.2950 O   0  0  0  0  0  1  0  0  0  0  0  0
  188.4920  178.2720  137.0760 C   0  0  2  0  0  3  0  0  0  0  0  0
  188.4660  177.4100  138.3340 C   0  0  2  0  0  3  0  0  0  0  0  0
  190.6160  177.3850  138.1790 C   0  0  2  0  0  3  0  0  0  0  0  0
  189.6170  177.6930  139.2900 C   0  0  2  0  0  3  0  0  0  0  0  0
  183.1530  179.1270  138.5320 C   0  0  0  0  0  2  0  0  0  0  0  0
  181.8650  179.9200  138.3880 C   0  0  0  0  0  2  0  0  0  0  0  0
  180.8650  179.1630  137.5350 C   0  0  0  0  0  1  0  0  0  0  0  0
  182.9880  176.7290  140.3360 C   0  0  0  0  0  2  0  0  0  0  0  0
  181.6450  176.2940  139.7620 C   0  0  0  0  0  2  0  0  0  0  0  0
  179.6300  175.8250  137.8180 O   0  0  0  0  0  0  0  0  0  0  0  0
  180.6900  175.1450  137.7370 C   0  0  0  0  0  0  0  0  0  0  0  0
  181.8310  175.5340  138.5300 N   0  0  0  0  0  0  0  0  0  0  0  0
  181.8170  171.7760  137.2940 C   0  0  0  0  0  3  0  0  0  0  0  0
  180.9000  172.9190  134.5940 C   0  0  0  0  0  3  0  0  0  0  0  0
  180.5870  172.5930  137.5220 C   0  0  0  0  0  2  0  0  0  0  0  0
  180.7660  174.0440  135.5420 C   0  0  0  0  0  3  0  0  0  0  0  0
  180.6890  173.9390  136.8730 C   0  0  0  0  0  0  0  0  0  0  0  0
  183.3970  170.4810  135.9960 C   0  0  0  0  0  1  0  0  0  0  0  0
  182.2250  171.3900  136.0840 C   0  0  0  0  0  0  0  0  0  0  0  0
  181.5390  171.7660  134.8310 C   0  0  0  0  0  3  0  0  0  0  0  0
  183.4920  176.0200  136.9590 O   0  0  0  0  0  1  0  0  0  0  0  0
  183.2000  175.2790  138.1070 C   0  0  0  0  0  2  0  0  0  0  0  0
  1 10  1  0  0  0  0
  1  5  1  1  0  0  0
  2  4  1  0  0  0  0
  2  9  1  6  0  0  0
  3 11  1  6  0  0  0
  3  4  1  0  0  0  0
  4  1  1  0  0  0  0
  6  3  1  0  0  0  0
  7  6  1  0  0  0  0
  7  8  1  0  0  0  0
  8  2  1  0  0  0  0
  9 10  1  0  0  0  0
 11 12  1  0  0  0  0
 12 14  1  0  0  0  0
 13 11  2  0  0  0  0
 14 16  1  0  0  0  0
 15 18  1  0  0  0  0
 16 18  1  0  0  0  0
 16 20  1  0  0  0  0
 17 16  1  0  0  0  0
 17 18  1  0  0  0  0
 20 19  1  0  0  0  0
 21 14  1  0  0  0  0
 22 27  1  0  0  0  0
 22 26  1  0  0  0  0
 25 22  1  0  0  0  0
 25 24  1  0  0  0  0
 25 26  1  0  0  0  0
 26 28  1  0  0  0  0
 27 23  1  0  0  0  0
 27 28  1  0  0  0  0
 28 21  1  0  0  0  0
 29  7  1  0  0  0  0
 30 29  1  0  0  0  0
 31 30  1  0  0  0  0
 32  8  1  0  0  0  0
 33 32  1  0  0  0  0
 35 34  2  0  0  0  0
 35 36  1  0  0  0  0
 36 33  1  0  0  0  0
 37 39  1  0  0  0  0
 38 44  2  0  0  0  0
 38 40  1  0  0  0  0
 40 41  2  0  0  0  0
 41 39  1  0  0  0  0
 41 35  1  0  0  0  0
 42 43  1  0  0  0  0
 43 37  2  0  0  0  0
 44 43  1  0  0  0  0
 45 46  1  0  0  0  0
 46 36  1  0  0  0  0
M  END
>  <MODEL>
3

>  <REMARK>
 VINA RESULT:      -6.0      2.314      9.579
  Name = 
  13 active torsions:
  status: ('A' for Active; 'I' for Inactive)
    1  A    between atoms: C_5  and  C_20
    2  A    between atoms: C_7  and  C_10
    3  A    between atoms: C_13  and  N_29
    4  A    between atoms: N_15  and  C_46
    5  A    between atoms: C_16  and  O_44
    6  A    between atoms: C_16  and  C_46
    7  A    between atoms: C_17  and  C_23
    8  A    between atoms: C_20  and  C_41
    9  A    between atoms: C_24  and  C_34
   10  A    between atoms: C_24  and  C_46
   11  A    between atoms: C_25  and  N_29
   12  A    between atoms: C_25  and  C_36
   13  A    between atoms: C_36  and  C_42
                            x       y       z     vdW  Elec       q    Type
                         _______ _______ _______ _____ _____    ______ ____

>  <TORSDO>
F 13

$$$$
=
 OpenBabel11062416263D

 46 51  0  0  1  0  0  0  0  0999 V2000
  188.3490  177.3770  135.8390 C   0  0  2  0  0  3  0  0  0  0  0  0
  189.0160  177.6740  138.0910 C   0  0  2  0  0  3  0  0  0  0  0  0
  186.5260  177.5150  137.5180 C   0  0  2  0  0  3  0  0  0  0  0  0
  187.9500  176.9830  137.2520 C   0  0  1  0  0  3  0  0  0  0  0  0
  189.1620  176.2660  135.2010 C   0  0  0  0  0  1  0  0  0  0  0  0
  186.2140  177.6240  139.0050 C   0  0  0  0  0  2  0  0  0  0  0  0
  187.2270  178.5440  139.6670 C   0  0  2  0  0  3  0  0  0  0  0  0
  188.6410  177.9520  139.5520 C   0  0  1  0  0  3  0  0  0  0  0  0
  189.3690  178.9120  137.3080 C   0  0  0  0  0  2  0  0  0  0  0  0
  189.1470  178.6030  135.8980 N   0  0  0  0  0  2  0  0  0  0  0  0
  185.4930  176.6540  136.8660 C   0  0  0  0  0  0  0  0  0  0  0  0
  185.1700  175.3940  137.4500 N   0  0  0  0  0  2  0  0  0  0  0  0
  184.9720  177.0030  135.7720 O   0  0  0  0  0  0  0  0  0  0  0  0
  184.2400  174.4710  136.8190 C   0  0  1  0  0  3  0  0  0  0  0  0
  183.3080  172.7730  134.6900 C   0  0  0  0  0  1  0  0  0  0  0  0
  184.9280  173.1150  136.6040 C   0  0  1  0  0  0  0  0  0  0  0  0
  184.1200  171.9760  136.7920 O   0  0  0  0  0  0  0  0  0  0  0  0
  184.5120  172.2540  135.4610 C   0  0  1  0  0  3  0  0  0  0  0  0
  187.0680  173.4090  135.9100 C   0  0  0  0  0  1  0  0  0  0  0  0
  186.2770  172.9430  136.9710 O   0  0  0  0  0  0  0  0  0  0  0  0
  182.9790  174.3520  137.6630 C   0  0  0  0  0  2  0  0  0  0  0  0
  180.7530  176.2790  139.0180 C   0  0  2  0  0  3  0  0  0  0  0  0
  180.3620  174.0500  138.2580 O   0  0  0  0  0  1  0  0  0  0  0  0
  180.8980  178.0500  137.3590 O   0  0  0  0  0  1  0  0  0  0  0  0
  181.2500  177.6770  138.6630 C   0  0  2  0  0  3  0  0  0  0  0  0
  182.2250  176.5030  138.6840 C   0  0  2  0  0  3  0  0  0  0  0  0
  180.6220  175.3520  137.8160 C   0  0  2  0  0  3  0  0  0  0  0  0
  182.0920  175.5800  137.4800 C   0  0  2  0  0  3  0  0  0  0  0  0
  186.8200  178.8190  141.1130 C   0  0  0  0  0  2  0  0  0  0  0  0
  185.3400  178.5440  141.3320 C   0  0  0  0  0  2  0  0  0  0  0  0
  184.8280  179.3110  142.5350 C   0  0  0  0  0  1  0  0  0  0  0  0
  188.8020  176.6790  140.3850 C   0  0  0  0  0  2  0  0  0  0  0  0
  190.1210  176.6770  141.1480 C   0  0  0  0  0  2  0  0  0  0  0  0
  188.5520  175.4510  143.1720 O   0  0  0  0  0  0  0  0  0  0  0  0
  188.9310  176.6400  143.3650 C   0  0  0  0  0  0  0  0  0  0  0  0
  189.9390  177.2000  142.4980 N   0  0  0  0  0  0  0  0  0  0  0  0
  189.0460  177.7380  146.7700 C   0  0  0  0  0  3  0  0  0  0  0  0
  186.1900  178.0580  145.6810 C   0  0  0  0  0  3  0  0  0  0  0  0
  189.1310  178.2320  145.3640 C   0  0  0  0  0  2  0  0  0  0  0  0
  186.9430  177.4220  144.5790 C   0  0  0  0  0  3  0  0  0  0  0  0
  188.2730  177.4240  144.4400 C   0  0  0  0  0  0  0  0  0  0  0  0
  187.9820  177.3380  148.9090 C   0  0  0  0  0  1  0  0  0  0  0  0
  187.9160  177.7450  147.4800 C   0  0  0  0  0  0  0  0  0  0  0  0
  186.6150  178.1940  146.9440 C   0  0  0  0  0  3  0  0  0  0  0  0
  191.9940  177.6360  143.5220 O   0  0  0  0  0  1  0  0  0  0  0  0
  190.8690  178.2280  142.9430 C   0  0  0  0  0  2  0  0  0  0  0  0
  1  5  1  1  0  0  0
  1 10  1  0  0  0  0
  1  4  1  0  0  0  0
  2  9  1  6  0  0  0
  2  8  1  0  0  0  0
  3 11  1  6  0  0  0
  3  6  1  0  0  0  0
  4  3  1  0  0  0  0
  4  2  1  0  0  0  0
  6  7  1  0  0  0  0
  7 29  1  0  0  0  0
  8  7  1  0  0  0  0
  8 32  1  0  0  0  0
 10  9  1  0  0  0  0
 11 12  1  0  0  0  0
 13 11  2  0  0  0  0
 14 12  1  0  0  0  0
 14 21  1  0  0  0  0
 15 18  1  0  0  0  0
 16 17  1  0  0  0  0
 16 14  1  0  0  0  0
 16 20  1  0  0  0  0
 18 16  1  0  0  0  0
 18 17  1  0  0  0  0
 19 20  1  0  0  0  0
 24 25  1  0  0  0  0
 25 26  1  0  0  0  0
 25 22  1  0  0  0  0
 26 22  1  0  0  0  0
 27 23  1  0  0  0  0
 27 22  1  0  0  0  0
 28 21  1  0  0  0  0
 28 27  1  0  0  0  0
 28 26  1  0  0  0  0
 29 30  1  0  0  0  0
 30 31  1  0  0  0  0
 32 33  1  0  0  0  0
 33 36  1  0  0  0  0
 34 35  2  0  0  0  0
 35 41  1  0  0  0  0
 36 46  1  0  0  0  0
 36 35  1  0  0  0  0
 37 43  2  0  0  0  0
 38 44  2  0  0  0  0
 39 37  1  0  0  0  0
 40 38  1  0  0  0  0
 41 40  2  0  0  0  0
 41 39  1  0  0  0  0
 43 42  1  0  0  0  0
 44 43  1  0  0  0  0
 46 45  1  0  0  0  0
M  END
>  <MODEL>
4

>  <REMARK>
 VINA RESULT:      -6.0      1.982      4.317
  Name = 
  13 active torsions:
  status: ('A' for Active; 'I' for Inactive)
    1  A    between atoms: C_5  and  C_20
    2  A    between atoms: C_7  and  C_10
    3  A    between atoms: C_13  and  N_29
    4  A    between atoms: N_15  and  C_46
    5  A    between atoms: C_16  and  O_44
    6  A    between atoms: C_16  and  C_46
    7  A    between atoms: C_17  and  C_23
    8  A    between atoms: C_20  and  C_41
    9  A    between atoms: C_24  and  C_34
   10  A    between atoms: C_24  and  C_46
   11  A    between atoms: C_25  and  N_29
   12  A    between atoms: C_25  and  C_36
   13  A    between atoms: C_36  and  C_42
                            x       y       z     vdW  Elec       q    Type
                         _______ _______ _______ _____ _____    ______ ____

>  <TORSDO>
F 13

$$$$
=
 OpenBabel11062416263D

 46 51  0  0  1  0  0  0  0  0999 V2000
  186.8130  178.9270  138.0950 C   0  0  2  0  0  3  0  0  0  0  0  0
  188.1760  177.2350  137.1560 C   0  0  2  0  0  3  0  0  0  0  0  0
  188.7910  178.2410  139.4280 C   0  0  2  0  0  3  0  0  0  0  0  0
  187.6660  177.7360  138.5000 C   0  0  1  0  0  3  0  0  0  0  0  0
  185.3540  178.5180  138.0190 C   0  0  0  0  0  1  0  0  0  0  0  0
  189.9660  177.2730  139.4980 C   0  0  0  0  0  2  0  0  0  0  0  0
  190.5250  177.0570  138.1010 C   0  0  2  0  0  3  0  0  0  0  0  0
  189.4660  176.4050  137.1980 C   0  0  1  0  0  3  0  0  0  0  0  0
  188.2770  178.4730  136.3040 C   0  0  0  0  0  2  0  0  0  0  0  0
  187.2620  179.4060  136.7860 N   0  0  0  0  0  2  0  0  0  0  0  0
  188.2830  178.4910  140.8110 C   0  0  0  0  0  0  0  0  0  0  0  0
  186.9120  178.2340  141.1040 N   0  0  0  0  0  2  0  0  0  0  0  0
  189.0390  178.9950  141.6850 O   0  0  0  0  0  0  0  0  0  0  0  0
  186.3340  178.5380  142.4030 C   0  0  1  0  0  3  0  0  0  0  0  0
  184.9190  180.0650  144.3920 C   0  0  0  0  0  1  0  0  0  0  0  0
  184.8120  178.6990  142.2650 C   0  0  1  0  0  0  0  0  0  0  0  0
  184.0350  178.1340  143.2960 O   0  0  0  0  0  0  0  0  0  0  0  0
  184.0720  179.5480  143.2400 C   0  0  1  0  0  3  0  0  0  0  0  0
  183.4220  177.5020  140.9280 C   0  0  0  0  0  1  0  0  0  0  0  0
  184.2130  178.6590  140.9900 O   0  0  0  0  0  0  0  0  0  0  0  0
  186.7110  177.4550  143.4040 C   0  0  0  0  0  2  0  0  0  0  0  0
  188.5860  176.7670  145.9570 C   0  0  2  0  0  3  0  0  0  0  0  0
  186.3120  177.4830  146.0740 O   0  0  0  0  0  1  0  0  0  0  0  0
  190.2920  178.4320  145.4810 O   0  0  0  0  0  1  0  0  0  0  0  0
  189.9900  177.0650  145.4380 C   0  0  2  0  0  3  0  0  0  0  0  0
  188.8650  176.7540  144.4560 C   0  0  2  0  0  3  0  0  0  0  0  0
  187.6060  177.9160  145.7630 C   0  0  2  0  0  3  0  0  0  0  0  0
  187.8880  177.9060  144.2640 C   0  0  2  0  0  3  0  0  0  0  0  0
  191.8170  176.2460  138.1730 C   0  0  0  0  0  2  0  0  0  0  0  0
  192.6320  176.3900  136.8980 C   0  0  0  0  0  2  0  0  0  0  0  0
  193.4640  175.1470  136.6540 C   0  0  0  0  0  1  0  0  0  0  0  0
  189.1520  174.9690  137.6210 C   0  0  0  0  0  2  0  0  0  0  0  0
  188.7440  174.1140  136.4290 C   0  0  0  0  0  2  0  0  0  0  0  0
  186.8330  175.3300  134.7160 O   0  0  0  0  0  0  0  0  0  0  0  0
  186.4010  174.6930  135.7160 C   0  0  0  0  0  0  0  0  0  0  0  0
  187.3090  173.8460  136.4510 N   0  0  0  0  0  0  0  0  0  0  0  0
  183.3090  176.3780  135.0720 C   0  0  0  0  0  3  0  0  0  0  0  0
  183.2990  175.2680  137.9370 C   0  0  0  0  0  3  0  0  0  0  0  0
  183.9470  175.0280  135.0550 C   0  0  0  0  0  2  0  0  0  0  0  0
  184.6440  174.9470  137.4150 C   0  0  0  0  0  3  0  0  0  0  0  0
  184.9880  174.8950  136.1230 C   0  0  0  0  0  0  0  0  0  0  0  0
  181.9170  178.1520  135.9560 C   0  0  0  0  0  1  0  0  0  0  0  0
  182.6040  176.8410  136.1050 C   0  0  0  0  0  0  0  0  0  0  0  0
  182.4140  176.0960  137.3660 C   0  0  0  0  0  3  0  0  0  0  0  0
  187.9270  171.7530  137.2880 O   0  0  0  0  0  1  0  0  0  0  0  0
  186.8670  172.6540  137.1600 C   0  0  0  0  0  2  0  0  0  0  0  0
  1  5  1  6  0  0  0
  1  4  1  0  0  0  0
  2  9  1  6  0  0  0
  2  8  1  0  0  0  0
  2  4  1  0  0  0  0
  3  6  1  0  0  0  0
  3 11  1  1  0  0  0
  4  3  1  0  0  0  0
  7 29  1  0  0  0  0
  7  6  1  0  0  0  0
  8 32  1  0  0  0  0
  8  7  1  0  0  0  0
  9 10  1  0  0  0  0
 10  1  1  0  0  0  0
 11 12  1  0  0  0  0
 11 13  2  0  0  0  0
 12 14  1  0  0  0  0
 14 21  1  0  0  0  0
 16 14  1  0  0  0  0
 16 18  1  0  0  0  0
 16 17  1  0  0  0  0
 18 17  1  0  0  0  0
 18 15  1  0  0  0  0
 19 20  1  0  0  0  0
 20 16  1  0  0  0  0
 21 28  1  0  0  0  0
 25 24  1  0  0  0  0
 25 22  1  0  0  0  0
 26 25  1  0  0  0  0
 26 22  1  0  0  0  0
 27 22  1  0  0  0  0
 27 23  1  0  0  0  0
 28 26  1  0  0  0  0
 28 27  1  0  0  0  0
 30 29  1  0  0  0  0
 31 30  1  0  0  0  0
 33 36  1  0  0  0  0
 33 32  1  0  0  0  0
 34 35  2  0  0  0  0
 35 41  1  0  0  0  0
 35 36  1  0  0  0  0
 36 46  1  0  0  0  0
 37 43  2  0  0  0  0
 39 37  1  0  0  0  0
 39 41  1  0  0  0  0
 40 38  1  0  0  0  0
 41 40  2  0  0  0  0
 42 43  1  0  0  0  0
 43 44  1  0  0  0  0
 44 38  2  0  0  0  0
 46 45  1  0  0  0  0
M  END
>  <MODEL>
5

>  <REMARK>
 VINA RESULT:      -5.9      2.518      7.393
  Name = 
  13 active torsions:
  status: ('A' for Active; 'I' for Inactive)
    1  A    between atoms: C_5  and  C_20
    2  A    between atoms: C_7  and  C_10
    3  A    between atoms: C_13  and  N_29
    4  A    between atoms: N_15  and  C_46
    5  A    between atoms: C_16  and  O_44
    6  A    between atoms: C_16  and  C_46
    7  A    between atoms: C_17  and  C_23
    8  A    between atoms: C_20  and  C_41
    9  A    between atoms: C_24  and  C_34
   10  A    between atoms: C_24  and  C_46
   11  A    between atoms: C_25  and  N_29
   12  A    between atoms: C_25  and  C_36
   13  A    between atoms: C_36  and  C_42
                            x       y       z     vdW  Elec       q    Type
                         _______ _______ _______ _____ _____    ______ ____

>  <TORSDO>
F 13

$$$$
=
 OpenBabel11062416263D

 46 51  0  0  1  0  0  0  0  0999 V2000
  188.1450  174.9670  135.7730 C   0  0  2  0  0  3  0  0  0  0  0  0
  188.2720  176.7310  137.3480 C   0  0  2  0  0  3  0  0  0  0  0  0
  185.9920  175.7460  136.7300 C   0  0  2  0  0  3  0  0  0  0  0  0
  187.4770  175.4690  137.0430 C   0  0  1  0  0  3  0  0  0  0  0  0
  189.1650  173.8960  136.1120 C   0  0  0  0  0  1  0  0  0  0  0  0
  185.3510  176.6920  137.7390 C   0  0  0  0  0  2  0  0  0  0  0  0
  186.1160  178.0050  137.7560 C   0  0  2  0  0  3  0  0  0  0  0  0
  187.5630  177.7740  138.2200 C   0  0  1  0  0  3  0  0  0  0  0  0
  188.6900  177.2500  135.9960 C   0  0  0  0  0  2  0  0  0  0  0  0
  188.8100  176.0930  135.1130 N   0  0  0  0  0  2  0  0  0  0  0  0
  185.2010  174.4790  136.6800 C   0  0  0  0  0  0  0  0  0  0  0  0
  184.3790  174.2190  135.5440 N   0  0  0  0  0  2  0  0  0  0  0  0
  185.2010  173.6890  137.6620 O   0  0  0  0  0  0  0  0  0  0  0  0
  183.5180  173.0490  135.4710 C   0  0  1  0  0  3  0  0  0  0  0  0
  182.1560  170.6470  134.6560 C   0  0  0  0  0  1  0  0  0  0  0  0
  184.3560  171.8150  135.1040 C   0  0  1  0  0  0  0  0  0  0  0  0
  184.1810  170.6830  135.9250 O   0  0  0  0  0  0  0  0  0  0  0  0
  183.6750  170.5870  134.6070 C   0  0  1  0  0  3  0  0  0  0  0  0
  186.5320  171.2590  135.4310 C   0  0  0  0  0  1  0  0  0  0  0  0
  185.6610  171.9750  134.5960 O   0  0  0  0  0  0  0  0  0  0  0  0
  182.7750  172.8720  136.7870 C   0  0  0  0  0  2  0  0  0  0  0  0
  180.3820  174.0340  138.6400 C   0  0  2  0  0  3  0  0  0  0  0  0
  180.4720  171.8270  137.7350 O   0  0  0  0  0  1  0  0  0  0  0  0
  179.7700  175.8600  137.1570 O   0  0  0  0  0  1  0  0  0  0  0  0
  180.4240  175.5320  138.3510 C   0  0  2  0  0  3  0  0  0  0  0  0
  181.6640  174.6740  138.1120 C   0  0  2  0  0  3  0  0  0  0  0  0
  180.2990  173.1710  137.3880 C   0  0  2  0  0  3  0  0  0  0  0  0
  181.5770  173.8140  136.8590 C   0  0  2  0  0  3  0  0  0  0  0  0
  185.3790  179.0300  138.6140 C   0  0  0  0  0  2  0  0  0  0  0  0
  184.1640  178.4140  139.2900 C   0  0  0  0  0  2  0  0  0  0  0  0
  183.9750  178.9930  140.6780 C   0  0  0  0  0  1  0  0  0  0  0  0
  187.6370  177.3650  139.6920 C   0  0  0  0  0  2  0  0  0  0  0  0
  188.2330  178.4750  140.5490 C   0  0  0  0  0  2  0  0  0  0  0  0
  186.8190  177.7900  142.9130 O   0  0  0  0  0  0  0  0  0  0  0  0
  188.0780  177.8480  142.9800 C   0  0  0  0  0  0  0  0  0  0  0  0
  188.8390  177.9270  141.7580 N   0  0  0  0  0  0  0  0  0  0  0  0
  191.0620  177.3860  144.9020 C   0  0  0  0  0  3  0  0  0  0  0  0
  188.6210  177.3510  146.7670 C   0  0  0  0  0  3  0  0  0  0  0  0
  190.1020  178.4330  144.4400 C   0  0  0  0  0  2  0  0  0  0  0  0
  188.0530  177.4710  145.4080 C   0  0  0  0  0  3  0  0  0  0  0  0
  188.7100  177.8920  144.3220 C   0  0  0  0  0  0  0  0  0  0  0  0
  192.0570  175.8480  146.4850 C   0  0  0  0  0  1  0  0  0  0  0  0
  190.9740  176.7860  146.0900 C   0  0  0  0  0  0  0  0  0  0  0  0
  189.8920  177.0480  147.0620 C   0  0  0  0  0  3  0  0  0  0  0  0
  190.1660  176.0030  141.7880 O   0  0  0  0  0  1  0  0  0  0  0  0
  190.1880  177.3920  141.6410 C   0  0  0  0  0  2  0  0  0  0  0  0
  1  5  1  1  0  0  0
  1  4  1  0  0  0  0
  2  9  1  6  0  0  0
  2  8  1  0  0  0  0
  3 11  1  1  0  0  0
  3  4  1  0  0  0  0
  3  6  1  0  0  0  0
  4  2  1  0  0  0  0
  6  7  1  0  0  0  0
  7  8  1  0  0  0  0
  7 29  1  0  0  0  0
  8 32  1  0  0  0  0
 10  1  1  0  0  0  0
 10  9  1  0  0  0  0
 11 13  2  0  0  0  0
 12 11  1  0  0  0  0
 14 12  1  0  0  0  0
 14 21  1  0  0  0  0
 16 14  1  0  0  0  0
 16 17  1  0  0  0  0
 18 15  1  0  0  0  0
 18 16  1  0  0  0  0
 18 17  1  0  0  0  0
 20 16  1  0  0  0  0
 20 19  1  0  0  0  0
 21 28  1  0  0  0  0
 24 25  1  0  0  0  0
 25 22  1  0  0  0  0
 26 25  1  0  0  0  0
 26 22  1  0  0  0  0
 27 23  1  0  0  0  0
 27 22  1  0  0  0  0
 28 27  1  0  0  0  0
 28 26  1  0  0  0  0
 29 30  1  0  0  0  0
 30 31  1  0  0  0  0
 32 33  1  0  0  0  0
 33 36  1  0  0  0  0
 34 35  2  0  0  0  0
 35 41  1  0  0  0  0
 36 35  1  0  0  0  0
 37 43  2  0  0  0  0
 38 44  2  0  0  0  0
 39 37  1  0  0  0  0
 40 38  1  0  0  0  0
 41 39  1  0  0  0  0
 41 40  2  0  0  0  0
 43 42  1  0  0  0  0
 43 44  1  0  0  0  0
 46 36  1  0  0  0  0
 46 45  1  0  0  0  0
M  END
>  <MODEL>
6

>  <REMARK>
 VINA RESULT:      -5.9      2.231      4.440
  Name = 
  13 active torsions:
  status: ('A' for Active; 'I' for Inactive)
    1  A    between atoms: C_5  and  C_20
    2  A    between atoms: C_7  and  C_10
    3  A    between atoms: C_13  and  N_29
    4  A    between atoms: N_15  and  C_46
    5  A    between atoms: C_16  and  O_44
    6  A    between atoms: C_16  and  C_46
    7  A    between atoms: C_17  and  C_23
    8  A    between atoms: C_20  and  C_41
    9  A    between atoms: C_24  and  C_34
   10  A    between atoms: C_24  and  C_46
   11  A    between atoms: C_25  and  N_29
   12  A    between atoms: C_25  and  C_36
   13  A    between atoms: C_36  and  C_42
                            x       y       z     vdW  Elec       q    Type
                         _______ _______ _______ _____ _____    ______ ____

>  <TORSDO>
F 13

$$$$
=
 OpenBabel11062416263D

 46 51  0  0  1  0  0  0  0  0999 V2000
  181.1270  180.7250  138.4380 C   0  0  2  0  0  3  0  0  0  0  0  0
  180.9660  179.8560  140.6340 C   0  0  2  0  0  3  0  0  0  0  0  0
  180.9930  178.2550  138.6380 C   0  0  2  0  0  3  0  0  0  0  0  0
  181.5710  179.5370  139.2750 C   0  0  1  0  0  3  0  0  0  0  0  0
  182.2380  181.7550  138.3690 C   0  0  0  0  0  1  0  0  0  0  0  0
  180.9430  177.0900  139.6180 C   0  0  0  0  0  2  0  0  0  0  0  0
  180.0990  177.4780  140.8210 C   0  0  2  0  0  3  0  0  0  0  0  0
  180.7430  178.6580  141.5660 C   0  0  1  0  0  3  0  0  0  0  0  0
  179.7080  180.6220  140.3180 C   0  0  0  0  0  2  0  0  0  0  0  0
  179.9390  181.3200  139.0560 N   0  0  0  0  0  2  0  0  0  0  0  0
  181.7770  177.8450  137.4340 C   0  0  0  0  0  0  0  0  0  0  0  0
  182.4840  176.6070  137.4540 N   0  0  0  0  0  2  0  0  0  0  0  0
  181.8750  178.6190  136.4440 O   0  0  0  0  0  0  0  0  0  0  0  0
  183.3360  176.1900  136.3520 C   0  0  1  0  0  3  0  0  0  0  0  0
  185.8760  177.5300  136.1470 C   0  0  0  0  0  1  0  0  0  0  0  0
  184.5860  175.4880  136.9040 C   0  0  1  0  0  0  0  0  0  0  0  0
  185.5810  175.1650  135.9600 O   0  0  0  0  0  0  0  0  0  0  0  0
  185.8970  176.1960  136.8770 C   0  0  1  0  0  3  0  0  0  0  0  0
  184.8090  173.3030  137.4750 C   0  0  0  0  0  1  0  0  0  0  0  0
  184.4670  174.5720  137.9670 O   0  0  0  0  0  0  0  0  0  0  0  0
  182.5490  175.3030  135.3980 C   0  0  0  0  0  2  0  0  0  0  0  0
  180.0880  173.2070  135.1650 C   0  0  2  0  0  3  0  0  0  0  0  0
  179.9800  175.5220  134.5950 O   0  0  0  0  0  1  0  0  0  0  0  0
  180.0410  172.6000  137.5190 O   0  0  0  0  0  1  0  0  0  0  0  0
  180.4170  172.1730  136.2390 C   0  0  2  0  0  3  0  0  0  0  0  0
  181.5270  173.0370  135.6460 C   0  0  2  0  0  3  0  0  0  0  0  0
  180.0860  174.6410  135.6770 C   0  0  2  0  0  3  0  0  0  0  0  0
  181.5220  174.4700  136.1610 C   0  0  2  0  0  3  0  0  0  0  0  0
  179.8770  176.2650  141.7200 C   0  0  0  0  0  2  0  0  0  0  0  0
  179.1200  175.1670  140.9910 C   0  0  0  0  0  2  0  0  0  0  0  0
  179.7050  173.8070  141.3180 C   0  0  0  0  0  1  0  0  0  0  0  0
  182.0600  178.2650  142.2380 C   0  0  0  0  0  2  0  0  0  0  0  0
  182.5600  179.3630  143.1690 C   0  0  0  0  0  2  0  0  0  0  0  0
  184.5130  179.3180  141.1090 O   0  0  0  0  0  0  0  0  0  0  0  0
  184.8790  178.9830  142.2700 C   0  0  0  0  0  0  0  0  0  0  0  0
  183.9990  179.2460  143.3820 N   0  0  0  0  0  0  0  0  0  0  0  0
  187.2030  177.4400  144.5140 C   0  0  0  0  0  3  0  0  0  0  0  0
  188.6120  178.0970  141.8640 C   0  0  0  0  0  3  0  0  0  0  0  0
  186.2620  177.1400  143.3940 C   0  0  0  0  0  2  0  0  0  0  0  0
  187.2450  178.6380  141.7060 C   0  0  0  0  0  3  0  0  0  0  0  0
  186.1760  178.2780  142.4240 C   0  0  0  0  0  0  0  0  0  0  0  0
  189.3620  177.8270  145.5400 C   0  0  0  0  0  1  0  0  0  0  0  0
  188.5070  177.6570  144.3360 C   0  0  0  0  0  0  0  0  0  0  0  0
  189.1600  177.6740  143.0100 C   0  0  0  0  0  3  0  0  0  0  0  0
  183.7820  178.7220  145.6500 O   0  0  0  0  0  1  0  0  0  0  0  0
  184.4930  179.4950  144.7290 C   0  0  0  0  0  2  0  0  0  0  0  0
  1  5  1  1  0  0  0
  1 10  1  0  0  0  0
  1  4  1  0  0  0  0
  2  9  1  6  0  0  0
  2  8  1  0  0  0  0
  3 11  1  6  0  0  0
  3  4  1  0  0  0  0
  3  6  1  0  0  0  0
  4  2  1  0  0  0  0
  6  7  1  0  0  0  0
  7  8  1  0  0  0  0
  7 29  1  0  0  0  0
  8 32  1  0  0  0  0
 10  9  1  0  0  0  0
 11 12  1  0  0  0  0
 13 11  2  0  0  0  0
 14 16  1  0  0  0  0
 14 12  1  0  0  0  0
 15 18  1  0  0  0  0
 16 20  1  0  0  0  0
 17 18  1  0  0  0  0
 17 16  1  0  0  0  0
 18 16  1  0  0  0  0
 19 20  1  0  0  0  0
 21 28  1  0  0  0  0
 21 14  1  0  0  0  0
 22 26  1  0  0  0  0
 22 27  1  0  0  0  0
 22 25  1  0  0  0  0
 23 27  1  0  0  0  0
 25 24  1  0  0  0  0
 26 28  1  0  0  0  0
 26 25  1  0  0  0  0
 27 28  1  0  0  0  0
 30 31  1  0  0  0  0
 30 29  1  0  0  0  0
 32 33  1  0  0  0  0
 33 36  1  0  0  0  0
 34 35  2  0  0  0  0
 35 41  1  0  0  0  0
 35 36  1  0  0  0  0
 36 46  1  0  0  0  0
 38 44  2  0  0  0  0
 39 37  1  0  0  0  0
 40 38  1  0  0  0  0
 40 41  2  0  0  0  0
 41 39  1  0  0  0  0
 43 37  2  0  0  0  0
 43 42  1  0  0  0  0
 44 43  1  0  0  0  0
 46 45  1  0  0  0  0
M  END
>  <MODEL>
7

>  <REMARK>
 VINA RESULT:      -5.8      2.665      6.862
  Name = 
  13 active torsions:
  status: ('A' for Active; 'I' for Inactive)
    1  A    between atoms: C_5  and  C_20
    2  A    between atoms: C_7  and  C_10
    3  A    between atoms: C_13  and  N_29
    4  A    between atoms: N_15  and  C_46
    5  A    between atoms: C_16  and  O_44
    6  A    between atoms: C_16  and  C_46
    7  A    between atoms: C_17  and  C_23
    8  A    between atoms: C_20  and  C_41
    9  A    between atoms: C_24  and  C_34
   10  A    between atoms: C_24  and  C_46
   11  A    between atoms: C_25  and  N_29
   12  A    between atoms: C_25  and  C_36
   13  A    between atoms: C_36  and  C_42
                            x       y       z     vdW  Elec       q    Type
                         _______ _______ _______ _____ _____    ______ ____

>  <TORSDO>
F 13

$$$$
=
 OpenBabel11062416263D

 46 51  0  0  1  0  0  0  0  0999 V2000
  184.9480  179.0030  140.4790 C   0  0  2  0  0  3  0  0  0  0  0  0
  185.4730  177.9670  138.4160 C   0  0  2  0  0  3  0  0  0  0  0  0
  187.3590  178.6570  140.0020 C   0  0  2  0  0  3  0  0  0  0  0  0
  185.9500  178.0430  139.8590 C   0  0  1  0  0  3  0  0  0  0  0  0
  183.8530  178.2250  141.1840 C   0  0  0  0  0  1  0  0  0  0  0  0
  188.3570  178.0610  139.0170 C   0  0  0  0  0  2  0  0  0  0  0  0
  187.8560  178.2770  137.5990 C   0  0  2  0  0  3  0  0  0  0  0  0
  186.5250  177.5380  137.3850 C   0  0  1  0  0  3  0  0  0  0  0  0
  184.8720  179.3220  138.1440 C   0  0  0  0  0  2  0  0  0  0  0  0
  184.3640  179.8260  139.4170 N   0  0  0  0  0  2  0  0  0  0  0  0
  187.8860  178.4900  141.3910 C   0  0  0  0  0  0  0  0  0  0  0  0
  187.0860  177.8180  142.3610 N   0  0  0  0  0  2  0  0  0  0  0  0
  188.9900  179.0040  141.7190 O   0  0  0  0  0  0  0  0  0  0  0  0
  187.5010  177.6990  143.7490 C   0  0  1  0  0  3  0  0  0  0  0  0
  187.9230  178.3450  146.5230 C   0  0  0  0  0  1  0  0  0  0  0  0
  186.2770  177.8440  144.6660 C   0  0  1  0  0  0  0  0  0  0  0  0
  186.1830  176.9160  145.7220 O   0  0  0  0  0  0  0  0  0  0  0  0
  186.4690  178.2530  146.0860 C   0  0  1  0  0  3  0  0  0  0  0  0
  184.9230  179.6340  144.3330 C   0  0  0  0  0  1  0  0  0  0  0  0
  185.0400  178.2510  144.1300 O   0  0  0  0  0  0  0  0  0  0  0  0
  188.2270  176.3780  143.9600 C   0  0  0  0  0  2  0  0  0  0  0  0
  191.1650  177.6160  143.3770 C   0  0  2  0  0  3  0  0  0  0  0  0
  190.2890  175.6290  142.3860 O   0  0  0  0  0  1  0  0  0  0  0  0
  191.9540  177.5030  145.6740 O   0  0  0  0  0  1  0  0  0  0  0  0
  191.4840  178.3600  144.6700 C   0  0  2  0  0  3  0  0  0  0  0  0
  190.0340  178.0690  144.2960 C   0  0  2  0  0  3  0  0  0  0  0  0
  190.7570  176.1650  143.5910 C   0  0  2  0  0  3  0  0  0  0  0  0
  189.6290  176.6170  144.5130 C   0  0  2  0  0  3  0  0  0  0  0  0
  188.9280  177.8600  136.5950 C   0  0  0  0  0  2  0  0  0  0  0  0
  190.1120  177.2070  137.2890 C   0  0  0  0  0  2  0  0  0  0  0  0
  190.6410  176.0500  136.4660 C   0  0  0  0  0  1  0  0  0  0  0  0
  186.6990  176.0190  137.4140 C   0  0  0  0  0  2  0  0  0  0  0  0
  185.8210  175.3380  136.3710 C   0  0  0  0  0  2  0  0  0  0  0  0
  183.5020  176.7950  135.6230 O   0  0  0  0  0  0  0  0  0  0  0  0
  183.4240  176.0550  136.6410 C   0  0  0  0  0  0  0  0  0  0  0  0
  184.4790  175.1050  136.8960 N   0  0  0  0  0  0  0  0  0  0  0  0
  181.0130  178.3240  138.0030 C   0  0  0  0  0  3  0  0  0  0  0  0
  181.2150  175.8380  139.7970 C   0  0  0  0  0  3  0  0  0  0  0  0
  181.1440  177.1210  137.1270 C   0  0  0  0  0  2  0  0  0  0  0  0
  182.2380  175.6300  138.7510 C   0  0  0  0  0  3  0  0  0  0  0  0
  182.2750  176.2410  137.5620 C   0  0  0  0  0  0  0  0  0  0  0  0
  180.5070  179.5240  140.0440 C   0  0  0  0  0  1  0  0  0  0  0  0
  180.7290  178.2540  139.3040 C   0  0  0  0  0  0  0  0  0  0  0  0
  180.5620  176.9820  140.0380 C   0  0  0  0  0  3  0  0  0  0  0  0
  183.5840  172.9510  136.7540 O   0  0  0  0  0  1  0  0  0  0  0  0
  184.2480  173.8480  137.5930 C   0  0  0  0  0  2  0  0  0  0  0  0
  1  5  1  6  0  0  0
  2  9  1  6  0  0  0
  2  4  1  0  0  0  0
  3 11  1  1  0  0  0
  4  3  1  0  0  0  0
  4  1  1  0  0  0  0
  6  3  1  0  0  0  0
  7  6  1  0  0  0  0
  8 32  1  0  0  0  0
  8  7  1  0  0  0  0
  8  2  1  0  0  0  0
  9 10  1  0  0  0  0
 10  1  1  0  0  0  0
 11 13  2  0  0  0  0
 11 12  1  0  0  0  0
 12 14  1  0  0  0  0
 14 21  1  0  0  0  0
 14 16  1  0  0  0  0
 16 17  1  0  0  0  0
 16 18  1  0  0  0  0
 17 18  1  0  0  0  0
 18 15  1  0  0  0  0
 20 19  1  0  0  0  0
 20 16  1  0  0  0  0
 21 28  1  0  0  0  0
 22 27  1  0  0  0  0
 22 26  1  0  0  0  0
 22 25  1  0  0  0  0
 23 27  1  0  0  0  0
 25 24  1  0  0  0  0
 26 28  1  0  0  0  0
 26 25  1  0  0  0  0
 27 28  1  0  0  0  0
 29 30  1  0  0  0  0
 29  7  1  0  0  0  0
 31 30  1  0  0  0  0
 33 36  1  0  0  0  0
 33 32  1  0  0  0  0
 34 35  2  0  0  0  0
 35 36  1  0  0  0  0
 35 41  1  0  0  0  0
 36 46  1  0  0  0  0
 37 43  2  0  0  0  0
 38 44  2  0  0  0  0
 39 41  1  0  0  0  0
 39 37  1  0  0  0  0
 40 38  1  0  0  0  0
 41 40  2  0  0  0  0
 43 44  1  0  0  0  0
 43 42  1  0  0  0  0
 45 46  1  0  0  0  0
M  END
>  <MODEL>
8

>  <REMARK>
 VINA RESULT:      -5.7      2.133      8.281
  Name = 
  13 active torsions:
  status: ('A' for Active; 'I' for Inactive)
    1  A    between atoms: C_5  and  C_20
    2  A    between atoms: C_7  and  C_10
    3  A    between atoms: C_13  and  N_29
    4  A    between atoms: N_15  and  C_46
    5  A    between atoms: C_16  and  O_44
    6  A    between atoms: C_16  and  C_46
    7  A    between atoms: C_17  and  C_23
    8  A    between atoms: C_20  and  C_41
    9  A    between atoms: C_24  and  C_34
   10  A    between atoms: C_24  and  C_46
   11  A    between atoms: C_25  and  N_29
   12  A    between atoms: C_25  and  C_36
   13  A    between atoms: C_36  and  C_42
                            x       y       z     vdW  Elec       q    Type
                         _______ _______ _______ _____ _____    ______ ____

>  <TORSDO>
F 13

$$$$
=
 OpenBabel11062416263D

 46 51  0  0  1  0  0  0  0  0999 V2000
  185.1160  178.8570  145.1640 C   0  0  2  0  0  3  0  0  0  0  0  0
  183.8230  178.9040  143.1820 C   0  0  2  0  0  3  0  0  0  0  0  0
  186.3060  178.2960  143.0600 C   0  0  2  0  0  3  0  0  0  0  0  0
  184.9750  178.1480  143.8280 C   0  0  1  0  0  3  0  0  0  0  0  0
  184.3820  178.0820  146.2420 C   0  0  0  0  0  1  0  0  0  0  0  0
  186.1420  178.0750  141.5620 C   0  0  0  0  0  2  0  0  0  0  0  0
  185.1310  179.0700  141.0130 C   0  0  2  0  0  3  0  0  0  0  0  0
  183.7530  178.8360  141.6510 C   0  0  1  0  0  3  0  0  0  0  0  0
  183.9400  180.3050  143.7230 C   0  0  0  0  0  2  0  0  0  0  0  0
  184.5470  180.2020  145.0480 N   0  0  0  0  0  2  0  0  0  0  0  0
  187.3420  177.3520  143.5800 C   0  0  0  0  0  0  0  0  0  0  0  0
  188.7090  177.7560  143.5860 N   0  0  0  0  0  2  0  0  0  0  0  0
  187.0190  176.1870  143.9370 O   0  0  0  0  0  0  0  0  0  0  0  0
  189.7740  176.8550  143.9960 C   0  0  1  0  0  3  0  0  0  0  0  0
  192.0460  175.1310  144.3860 C   0  0  0  0  0  1  0  0  0  0  0  0
  190.7470  176.6430  142.8270 C   0  0  1  0  0  0  0  0  0  0  0  0
  192.0650  177.0980  143.0290 O   0  0  0  0  0  0  0  0  0  0  0  0
  191.8860  175.6950  142.9830 C   0  0  1  0  0  3  0  0  0  0  0  0
  191.2300  177.5000  140.7820 C   0  0  0  0  0  1  0  0  0  0  0  0
  190.2870  176.7490  141.5000 O   0  0  0  0  0  0  0  0  0  0  0  0
  190.4700  177.4060  145.2330 C   0  0  0  0  0  2  0  0  0  0  0  0
  189.9260  178.1030  148.3510 C   0  0  2  0  0  3  0  0  0  0  0  0
  191.9220  177.1160  147.4910 O   0  0  0  0  0  1  0  0  0  0  0  0
  187.9600  176.6940  148.5920 O   0  0  0  0  0  1  0  0  0  0  0  0
  188.4070  178.0160  148.4600 C   0  0  2  0  0  3  0  0  0  0  0  0
  189.0600  178.2700  147.1050 C   0  0  2  0  0  3  0  0  0  0  0  0
  190.5680  176.8650  147.7380 C   0  0  2  0  0  3  0  0  0  0  0  0
  189.7000  177.0300  146.4950 C   0  0  2  0  0  3  0  0  0  0  0  0
  185.0960  178.9950  139.4890 C   0  0  0  0  0  2  0  0  0  0  0  0
  186.3160  178.2720  138.9420 C   0  0  0  0  0  2  0  0  0  0  0  0
  186.1860  178.0610  137.4470 C   0  0  0  0  0  1  0  0  0  0  0  0
  183.1340  177.5080  141.2130 C   0  0  0  0  0  2  0  0  0  0  0  0
  181.7780  177.7170  140.5500 C   0  0  0  0  0  2  0  0  0  0  0  0
  180.8340  175.1270  139.8710 O   0  0  0  0  0  0  0  0  0  0  0  0
  181.5040  175.7520  139.0030 C   0  0  0  0  0  0  0  0  0  0  0  0
  181.7690  177.1550  139.2030 N   0  0  0  0  0  0  0  0  0  0  0  0
  184.2980  175.1460  136.8490 C   0  0  0  0  0  3  0  0  0  0  0  0
  181.7310  174.1050  135.5210 C   0  0  0  0  0  3  0  0  0  0  0  0
  183.4530  174.5040  137.8990 C   0  0  0  0  0  2  0  0  0  0  0  0
  181.2740  174.7360  136.7770 C   0  0  0  0  0  3  0  0  0  0  0  0
  182.0380  174.9930  137.8450 C   0  0  0  0  0  0  0  0  0  0  0  0
  185.0610  175.5870  134.5940 C   0  0  0  0  0  1  0  0  0  0  0  0
  184.0800  174.9960  135.5420 C   0  0  0  0  0  0  0  0  0  0  0  0
  182.9520  174.2220  134.9840 C   0  0  0  0  0  3  0  0  0  0  0  0
  181.7640  179.3960  138.5380 O   0  0  0  0  0  1  0  0  0  0  0  0
  181.9450  178.0830  138.0950 C   0  0  0  0  0  2  0  0  0  0  0  0
  1  5  1  1  0  0  0
  2  9  1  6  0  0  0
  2  4  1  0  0  0  0
  3 11  1  1  0  0  0
  3  4  1  0  0  0  0
  4  1  1  0  0  0  0
  6  3  1  0  0  0  0
  7  6  1  0  0  0  0
  7  8  1  0  0  0  0
  8  2  1  0  0  0  0
  9 10  1  0  0  0  0
 10  1  1  0  0  0  0
 11 12  1  0  0  0  0
 11 13  2  0  0  0  0
 12 14  1  0  0  0  0
 14 21  1  0  0  0  0
 16 18  1  0  0  0  0
 16 17  1  0  0  0  0
 16 14  1  0  0  0  0
 18 17  1  0  0  0  0
 18 15  1  0  0  0  0
 19 20  1  0  0  0  0
 20 16  1  0  0  0  0
 21 28  1  0  0  0  0
 22 25  1  0  0  0  0
 23 27  1  0  0  0  0
 25 24  1  0  0  0  0
 26 22  1  0  0  0  0
 26 25  1  0  0  0  0
 27 22  1  0  0  0  0
 28 26  1  0  0  0  0
 28 27  1  0  0  0  0
 29  7  1  0  0  0  0
 30 29  1  0  0  0  0
 31 30  1  0  0  0  0
 32  8  1  0  0  0  0
 33 32  1  0  0  0  0
 35 36  1  0  0  0  0
 35 34  2  0  0  0  0
 36 33  1  0  0  0  0
 37 39  1  0  0  0  0
 38 40  1  0  0  0  0
 40 41  2  0  0  0  0
 41 39  1  0  0  0  0
 41 35  1  0  0  0  0
 42 43  1  0  0  0  0
 43 37  2  0  0  0  0
 44 38  2  0  0  0  0
 44 43  1  0  0  0  0
 46 45  1  0  0  0  0
 46 36  1  0  0  0  0
M  END
>  <MODEL>
9

>  <REMARK>
 VINA RESULT:      -5.7      2.844      9.954
  Name = 
  13 active torsions:
  status: ('A' for Active; 'I' for Inactive)
    1  A    between atoms: C_5  and  C_20
    2  A    between atoms: C_7  and  C_10
    3  A    between atoms: C_13  and  N_29
    4  A    between atoms: N_15  and  C_46
    5  A    between atoms: C_16  and  O_44
    6  A    between atoms: C_16  and  C_46
    7  A    between atoms: C_17  and  C_23
    8  A    between atoms: C_20  and  C_41
    9  A    between atoms: C_24  and  C_34
   10  A    between atoms: C_24  and  C_46
   11  A    between atoms: C_25  and  N_29
   12  A    between atoms: C_25  and  C_36
   13  A    between atoms: C_36  and  C_42
                            x       y       z     vdW  Elec       q    Type
                         _______ _______ _______ _____ _____    ______ ____

>  <TORSDO>
F 13

$$$$
