=
 OpenBabel11062417053D

 47 50  0  0  1  0  0  0  0  0999 V2000
  184.0580  178.1600  143.9380 N   0  0  0  0  0  2  0  0  0  0  0  0
  182.9970  178.9000  143.2430 C   0  0  0  0  0  2  0  0  0  0  0  0
  185.3010  178.7100  143.4280 C   0  0  1  0  0  3  0  0  0  0  0  0
  187.9740  175.8740  143.3710 C   0  0  0  0  0  1  0  0  0  0  0  0
  184.8350  178.0770  139.0650 O   0  0  0  0  0  0  0  0  0  0  0  0
  183.0870  178.7370  141.7060 C   0  0  0  0  0  2  0  0  0  0  0  0
  186.8770  178.6130  141.6950 N   0  0  2  0  0  0  0  0  0  0  0  0
  188.6720  177.0280  141.3170 C   0  0  0  0  0  2  0  0  0  0  0  0
  187.4300  177.6700  140.7200 C   0  0  2  0  0  3  0  0  0  0  0  0
  187.5960  178.3780  142.9640 C   0  0  2  0  0  3  0  0  0  0  0  0
  188.5280  177.1760  142.8020 C   0  0  1  0  0  0  0  0  0  0  0  0
  186.5550  178.2300  144.0930 C   0  0  1  0  0  3  0  0  0  0  0  0
  185.4960  178.2410  142.0190 C   0  0  2  0  0  3  0  0  0  0  0  0
  184.6070  179.0700  139.8040 C   0  0  0  0  0  0  0  0  0  0  0  0
  184.4150  180.3230  139.2380 O   0  0  0  0  0  1  0  0  0  0  0  0
  184.4640  178.8980  141.2140 N   0  0  0  0  0  0  0  0  0  0  0  0
  191.3620  177.2830  142.4110 O   0  0  0  0  0  0  0  0  0  0  0  0
  190.1410  177.5390  143.5560 P   0  0  1  0  0  0  0  0  0  0  0  0
  190.1740  178.9800  144.0140 O   0  0  0  0  0  1  0  0  0  0  0  0
  190.3630  176.5120  144.8870 O   0  0  0  0  0  0  0  0  0  0  0  0
  191.7470  176.3800  145.0330 C   0  0  0  0  0  2  0  0  0  0  0  0
  192.0580  175.3240  146.0800 C   0  0  0  0  0  2  0  0  0  0  0  0
  193.1800  175.4710  148.1800 O   0  0  0  0  0  0  0  0  0  0  0  0
  191.5560  177.0910  147.8100 N   0  0  0  0  0  1  0  0  0  0  0  0
  192.3140  175.9560  147.4060 C   0  0  0  0  0  0  0  0  0  0  0  0
  186.8820  178.9260  145.2820 O   0  0  0  0  0  0  0  0  0  0  0  0
  186.6980  178.0890  146.3970 C   0  0  0  0  0  2  0  0  0  0  0  0
  188.0480  177.7080  146.9670 C   0  0  0  0  0  1  0  0  0  0  0  0
  187.8120  178.4210  139.4490 C   0  0  0  0  0  2  0  0  0  0  0  0
  188.0920  177.4840  138.2800 C   0  0  2  0  0  3  0  0  0  0  0  0
  189.0070  179.8290  137.2930 O   0  0  0  0  0  0  0  0  0  0  0  0
  187.4520  178.5490  135.9120 O   0  0  0  0  0  0  0  0  0  0  0  0
  188.6090  178.4440  136.8620 S   0  0  0  0  0  0  0  0  0  0  0  0
  189.9320  177.6770  136.0430 N   0  0  0  0  0  2  0  0  0  0  0  0
  190.2810  176.4660  136.7660 C   0  0  2  0  0  3  0  0  0  0  0  0
  192.4820  175.3790  137.1440 N   0  0  0  0  0  0  0  0  0  0  0  0
  191.6910  176.5970  137.3600 C   0  0  0  0  0  2  0  0  0  0  0  0
  190.2100  175.3610  135.9010 O   0  0  0  0  0  0  0  0  0  0  0  0
  190.3240  174.2230  136.7200 C   0  0  1  0  0  3  0  0  0  0  0  0
  190.1190  173.0740  135.9560 O   0  0  0  0  0  1  0  0  0  0  0  0
  191.7060  174.1560  137.3910 C   0  0  0  0  0  2  0  0  0  0  0  0
  194.8870  174.8470  137.7200 C   0  0  0  0  0  0  0  0  0  0  0  0
  193.5930  175.4000  138.0120 N   0  0  0  0  0  2  0  0  0  0  0  0
  195.1930  174.2090  136.4050 C   0  0  0  0  0  1  0  0  0  0  0  0
  195.7900  174.9010  138.5950 O   0  0  0  0  0  0  0  0  0  0  0  0
  187.2570  175.4170  137.4170 O   0  0  0  0  0  1  0  0  0  0  0  0
  186.8670  176.6400  137.9580 C   0  0  0  0  0  2  0  0  0  0  0  0
  2  1  1  0  0  0  0
  3  1  1  1  0  0  0
  3 12  1  0  0  0  0
  5 14  2  0  0  0  0
  6  2  1  0  0  0  0
  7 13  1  0  0  0  0
  7 10  1  0  0  0  0
  8 11  1  0  0  0  0
  9  8  1  0  0  0  0
  9  7  1  0  0  0  0
 10 12  1  0  0  0  0
 11 10  1  0  0  0  0
 11  4  1  0  0  0  0
 11 18  1  0  0  0  0
 12 26  1  0  0  0  0
 13  3  1  0  0  0  0
 14 16  1  0  0  0  0
 15 14  1  0  0  0  0
 16  6  1  0  0  0  0
 16 13  1  0  0  0  0
 17 18  2  0  0  0  0
 18 19  1  0  0  0  0
 18 20  1  0  0  0  0
 20 21  1  0  0  0  0
 21 22  1  0  0  0  0
 22 25  1  0  0  0  0
 25 24  1  0  0  0  0
 25 23  2  0  0  0  0
 26 27  1  0  0  0  0
 27 28  1  0  0  0  0
 29  9  1  0  0  0  0
 30 29  1  0  0  0  0
 32 33  2  0  0  0  0
 33 31  2  0  0  0  0
 33 30  1  0  0  0  0
 34 35  1  0  0  0  0
 34 33  1  0  0  0  0
 35 37  1  0  0  0  0
 36 37  1  0  0  0  0
 36 41  1  0  0  0  0
 36 43  1  0  0  0  0
 38 39  1  0  0  0  0
 38 35  1  0  0  0  0
 39 41  1  0  0  0  0
 40 39  1  0  0  0  0
 42 43  1  0  0  0  0
 42 45  2  0  0  0  0
 44 42  1  0  0  0  0
 46 47  1  0  0  0  0
 47 30  1  0  0  0  0
M  END
>  <MODEL>
1

>  <REMARK>
 VINA RESULT:      -7.0      0.000      0.000
  Name = 
  14 active torsions:
  status: ('A' for Active; 'I' for Inactive)
    1  A    between atoms: O_4  and  C_27
    2  A    between atoms: O_4  and  P_34
    3  A    between atoms: C_6  and  N_13
    4  A    between atoms: C_7  and  C_30
    5  A    between atoms: C_7  and  C_36
    6  A    between atoms: C_7  and  S_42
    7  A    between atoms: N_8  and  N_23
    8  A    between atoms: C_11  and  C_27
    9  A    between atoms: C_11  and  C_47
   10  A    between atoms: N_13  and  S_42
   11  A    between atoms: C_19  and  O_20
   12  A    between atoms: O_20  and  C_29
   13  A    between atoms: C_21  and  C_36
   14  A    between atoms: C_28  and  P_34
                            x       y       z     vdW  Elec       q    Type
                         _______ _______ _______ _____ _____    ______ ____

>  <TORSDO>
F 14

$$$$
=
 OpenBabel11062417053D

 47 50  0  0  1  0  0  0  0  0999 V2000
  184.4760  175.2110  135.8430 N   0  0  0  0  0  2  0  0  0  0  0  0
  183.3260  175.6240  136.6580 C   0  0  0  0  0  2  0  0  0  0  0  0
  185.6040  175.1970  136.7570 C   0  0  1  0  0  3  0  0  0  0  0  0
  188.8110  176.1830  134.7740 C   0  0  0  0  0  1  0  0  0  0  0  0
  185.5410  179.3460  138.3180 O   0  0  0  0  0  0  0  0  0  0  0  0
  183.5400  177.0180  137.2990 C   0  0  0  0  0  2  0  0  0  0  0  0
  187.2650  176.4980  137.7780 N   0  0  2  0  0  0  0  0  0  0  0  0
  189.3720  177.3020  136.8890 C   0  0  0  0  0  2  0  0  0  0  0  0
  188.0610  177.7050  137.5440 C   0  0  2  0  0  3  0  0  0  0  0  0
  187.9410  175.4000  137.0560 C   0  0  2  0  0  3  0  0  0  0  0  0
  189.1120  175.9680  136.2540 C   0  0  1  0  0  0  0  0  0  0  0  0
  186.8890  174.6560  136.2090 C   0  0  1  0  0  3  0  0  0  0  0  0
  185.9770  176.6090  137.0880 C   0  0  2  0  0  3  0  0  0  0  0  0
  185.0660  178.2680  138.7630 C   0  0  0  0  0  0  0  0  0  0  0  0
  184.6500  178.1890  140.0850 O   0  0  0  0  0  1  0  0  0  0  0  0
  184.8790  177.1520  137.8920 N   0  0  0  0  0  0  0  0  0  0  0  0
  190.2580  173.7370  137.6340 O   0  0  0  0  0  1  0  0  0  0  0  0
  190.5650  174.8930  136.4360 P   0  0  1  0  0  0  0  0  0  0  0  0
  190.8470  174.1950  135.1230 O   0  0  0  0  0  0  0  0  0  0  0  0
  191.8980  175.8470  136.8720 O   0  0  0  0  0  0  0  0  0  0  0  0
  192.5380  175.1510  137.9000 C   0  0  0  0  0  2  0  0  0  0  0  0
  193.7380  174.4000  137.3470 C   0  0  0  0  0  2  0  0  0  0  0  0
  195.2800  175.3480  138.9010 O   0  0  0  0  0  0  0  0  0  0  0  0
  195.3450  173.0320  138.7310 N   0  0  0  0  0  1  0  0  0  0  0  0
  194.8170  174.3040  138.3720 C   0  0  0  0  0  0  0  0  0  0  0  0
  186.9910  173.2440  136.2600 O   0  0  0  0  0  0  0  0  0  0  0  0
  187.5180  172.7540  135.0520 C   0  0  0  0  0  2  0  0  0  0  0  0
  187.9070  171.3010  135.2270 C   0  0  0  0  0  1  0  0  0  0  0  0
  188.3520  178.3870  138.8770 C   0  0  0  0  0  2  0  0  0  0  0  0
  188.6810  177.3900  139.9820 C   0  0  2  0  0  3  0  0  0  0  0  0
  187.2280  179.1150  141.4750 O   0  0  0  0  0  0  0  0  0  0  0  0
  189.6090  178.9050  141.9810 O   0  0  0  0  0  0  0  0  0  0  0  0
  188.3770  178.1490  141.5730 S   0  0  0  0  0  0  0  0  0  0  0  0
  188.0400  176.9480  142.7790 N   0  0  0  0  0  2  0  0  0  0  0  0
  187.9040  177.6120  144.0650 C   0  0  2  0  0  3  0  0  0  0  0  0
  188.6970  176.9520  146.3230 N   0  0  0  0  0  0  0  0  0  0  0  0
  189.1120  177.2850  144.9550 C   0  0  0  0  0  2  0  0  0  0  0  0
  186.7090  177.2060  144.6830 O   0  0  0  0  0  0  0  0  0  0  0  0
  186.5380  178.0590  145.7880 C   0  0  1  0  0  3  0  0  0  0  0  0
  185.2970  177.8170  146.3780 O   0  0  0  0  0  1  0  0  0  0  0  0
  187.6520  177.8540  146.8280 C   0  0  0  0  0  2  0  0  0  0  0  0
  191.1710  176.7200  146.7930 C   0  0  0  0  0  0  0  0  0  0  0  0
  189.8210  177.0340  147.1710 N   0  0  0  0  0  2  0  0  0  0  0  0
  191.5240  176.2970  145.4060 C   0  0  0  0  0  1  0  0  0  0  0  0
  192.0860  176.8030  147.6540 O   0  0  0  0  0  0  0  0  0  0  0  0
  190.4730  176.1800  140.9990 O   0  0  0  0  0  1  0  0  0  0  0  0
  190.1200  176.9080  139.8660 C   0  0  0  0  0  2  0  0  0  0  0  0
  1  2  1  0  0  0  0
  2  6  1  0  0  0  0
  3  1  1  6  0  0  0
  3 13  1  0  0  0  0
  4 11  1  0  0  0  0
  5 14  2  0  0  0  0
  6 16  1  0  0  0  0
  8  9  1  0  0  0  0
  9  7  1  0  0  0  0
  9 29  1  0  0  0  0
 10  7  1  0  0  0  0
 11 18  1  0  0  0  0
 11  8  1  0  0  0  0
 11 10  1  0  0  0  0
 12 26  1  0  0  0  0
 12  3  1  0  0  0  0
 12 10  1  0  0  0  0
 13  7  1  0  0  0  0
 13 16  1  0  0  0  0
 14 15  1  0  0  0  0
 16 14  1  0  0  0  0
 18 20  1  0  0  0  0
 18 17  1  0  0  0  0
 19 18  2  0  0  0  0
 20 21  1  0  0  0  0
 22 21  1  0  0  0  0
 22 25  1  0  0  0  0
 25 24  1  0  0  0  0
 25 23  2  0  0  0  0
 27 28  1  0  0  0  0
 27 26  1  0  0  0  0
 29 30  1  0  0  0  0
 30 33  1  0  0  0  0
 31 33  2  0  0  0  0
 33 32  2  0  0  0  0
 33 34  1  0  0  0  0
 34 35  1  0  0  0  0
 35 38  1  0  0  0  0
 35 37  1  0  0  0  0
 36 41  1  0  0  0  0
 36 43  1  0  0  0  0
 37 36  1  0  0  0  0
 38 39  1  0  0  0  0
 39 40  1  0  0  0  0
 39 41  1  0  0  0  0
 42 43  1  0  0  0  0
 42 45  2  0  0  0  0
 44 42  1  0  0  0  0
 47 30  1  0  0  0  0
 47 46  1  0  0  0  0
M  END
>  <MODEL>
2

>  <REMARK>
 VINA RESULT:      -6.9      2.648      7.948
  Name = 
  14 active torsions:
  status: ('A' for Active; 'I' for Inactive)
    1  A    between atoms: O_4  and  C_27
    2  A    between atoms: O_4  and  P_34
    3  A    between atoms: C_6  and  N_13
    4  A    between atoms: C_7  and  C_30
    5  A    between atoms: C_7  and  C_36
    6  A    between atoms: C_7  and  S_42
    7  A    between atoms: N_8  and  N_23
    8  A    between atoms: C_11  and  C_27
    9  A    between atoms: C_11  and  C_47
   10  A    between atoms: N_13  and  S_42
   11  A    between atoms: C_19  and  O_20
   12  A    between atoms: O_20  and  C_29
   13  A    between atoms: C_21  and  C_36
   14  A    between atoms: C_28  and  P_34
                            x       y       z     vdW  Elec       q    Type
                         _______ _______ _______ _____ _____    ______ ____

>  <TORSDO>
F 14

$$$$
=
 OpenBabel11062417053D

 47 50  0  0  1  0  0  0  0  0999 V2000
  183.9330  176.3170  136.1060 N   0  0  0  0  0  2  0  0  0  0  0  0
  182.8000  176.5690  137.0050 C   0  0  0  0  0  2  0  0  0  0  0  0
  185.0540  176.0220  136.9800 C   0  0  1  0  0  3  0  0  0  0  0  0
  188.3160  177.3150  135.2860 C   0  0  0  0  0  1  0  0  0  0  0  0
  185.1820  179.6480  139.5270 O   0  0  0  0  0  0  0  0  0  0  0  0
  183.0770  177.7470  137.9710 C   0  0  0  0  0  2  0  0  0  0  0  0
  186.7690  176.9440  138.2830 N   0  0  2  0  0  0  0  0  0  0  0  0
  188.9180  177.8420  137.6090 C   0  0  0  0  0  2  0  0  0  0  0  0
  187.6240  178.1320  138.3520 C   0  0  2  0  0  3  0  0  0  0  0  0
  187.3960  176.0310  137.3060 C   0  0  2  0  0  3  0  0  0  0  0  0
  188.5980  176.7240  136.6640 C   0  0  1  0  0  0  0  0  0  0  0  0
  186.3140  175.5730  136.3060 C   0  0  1  0  0  3  0  0  0  0  0  0
  185.4920  177.2870  137.6510 C   0  0  2  0  0  3  0  0  0  0  0  0
  184.6530  178.5170  139.6920 C   0  0  0  0  0  0  0  0  0  0  0  0
  184.2250  178.1320  140.9550 O   0  0  0  0  0  1  0  0  0  0  0  0
  184.4170  177.6650  138.5710 N   0  0  0  0  0  0  0  0  0  0  0  0
  190.1400  174.7360  138.0300 O   0  0  0  0  0  1  0  0  0  0  0  0
  189.9960  175.5680  136.5620 P   0  0  1  0  0  0  0  0  0  0  0  0
  189.7560  174.5780  135.4440 O   0  0  0  0  0  0  0  0  0  0  0  0
  191.4110  176.4510  136.2490 O   0  0  0  0  0  0  0  0  0  0  0  0
  192.0160  175.8180  135.1610 C   0  0  0  0  0  2  0  0  0  0  0  0
  193.3080  175.1510  135.6030 C   0  0  0  0  0  2  0  0  0  0  0  0
  194.6910  177.0140  136.1580 O   0  0  0  0  0  0  0  0  0  0  0  0
  194.0360  175.6980  137.9570 N   0  0  0  0  0  1  0  0  0  0  0  0
  194.0420  176.0170  136.5700 C   0  0  0  0  0  0  0  0  0  0  0  0
  186.3480  174.1900  136.0030 O   0  0  0  0  0  0  0  0  0  0  0  0
  186.0940  173.4350  137.1620 C   0  0  0  0  0  2  0  0  0  0  0  0
  185.0250  172.4040  136.8640 C   0  0  0  0  0  1  0  0  0  0  0  0
  187.9390  178.4460  139.8110 C   0  0  0  0  0  2  0  0  0  0  0  0
  188.8510  177.4020  140.4470 C   0  0  2  0  0  3  0  0  0  0  0  0
  188.3270  175.7150  142.4950 O   0  0  0  0  0  0  0  0  0  0  0  0
  187.0280  177.7800  142.3680 O   0  0  0  0  0  0  0  0  0  0  0  0
  188.3890  177.1800  142.1620 S   0  0  0  0  0  0  0  0  0  0  0  0
  189.5130  177.9800  143.2140 N   0  0  0  0  0  2  0  0  0  0  0  0
  189.4480  177.3490  144.5220 C   0  0  2  0  0  3  0  0  0  0  0  0
  188.2590  178.0280  146.5930 N   0  0  0  0  0  0  0  0  0  0  0  0
  188.0950  177.6510  145.1830 C   0  0  0  0  0  2  0  0  0  0  0  0
  190.5050  177.8110  145.3230 O   0  0  0  0  0  0  0  0  0  0  0  0
  190.5120  176.9880  146.4640 C   0  0  1  0  0  3  0  0  0  0  0  0
  191.6250  177.2870  147.2500 O   0  0  0  0  0  1  0  0  0  0  0  0
  189.2300  177.1750  147.2930 C   0  0  0  0  0  2  0  0  0  0  0  0
  185.7660  178.4360  146.7320 C   0  0  0  0  0  0  0  0  0  0  0  0
  187.0090  177.9230  147.2380 N   0  0  0  0  0  2  0  0  0  0  0  0
  185.6770  179.1210  145.4080 C   0  0  0  0  0  1  0  0  0  0  0  0
  184.7210  178.3070  147.4210 O   0  0  0  0  0  0  0  0  0  0  0  0
  191.1240  176.6770  140.3090 O   0  0  0  0  0  1  0  0  0  0  0  0
  190.3120  177.8090  140.3170 C   0  0  0  0  0  2  0  0  0  0  0  0
  1  2  1  0  0  0  0
  2  6  1  0  0  0  0
  3  1  1  6  0  0  0
  3 13  1  0  0  0  0
  4 11  1  0  0  0  0
  5 14  2  0  0  0  0
  6 16  1  0  0  0  0
  7  9  1  0  0  0  0
  8  9  1  0  0  0  0
  9 29  1  0  0  0  0
 10  7  1  0  0  0  0
 11 10  1  0  0  0  0
 11  8  1  0  0  0  0
 12  3  1  0  0  0  0
 12 10  1  0  0  0  0
 13  7  1  0  0  0  0
 13 16  1  0  0  0  0
 14 15  1  0  0  0  0
 16 14  1  0  0  0  0
 18 11  1  0  0  0  0
 18 17  1  0  0  0  0
 19 18  2  0  0  0  0
 20 18  1  0  0  0  0
 21 22  1  0  0  0  0
 21 20  1  0  0  0  0
 22 25  1  0  0  0  0
 23 25  2  0  0  0  0
 25 24  1  0  0  0  0
 26 12  1  0  0  0  0
 26 27  1  0  0  0  0
 28 27  1  0  0  0  0
 29 30  1  0  0  0  0
 30 33  1  0  0  0  0
 33 32  2  0  0  0  0
 33 31  2  0  0  0  0
 33 34  1  0  0  0  0
 34 35  1  0  0  0  0
 35 37  1  0  0  0  0
 35 38  1  0  0  0  0
 36 43  1  0  0  0  0
 36 41  1  0  0  0  0
 37 36  1  0  0  0  0
 38 39  1  0  0  0  0
 39 40  1  0  0  0  0
 39 41  1  0  0  0  0
 42 43  1  0  0  0  0
 42 45  2  0  0  0  0
 44 42  1  0  0  0  0
 46 47  1  0  0  0  0
 47 30  1  0  0  0  0
M  END
>  <MODEL>
3

>  <REMARK>
 VINA RESULT:      -6.8      2.820      8.370
  Name = 
  14 active torsions:
  status: ('A' for Active; 'I' for Inactive)
    1  A    between atoms: O_4  and  C_27
    2  A    between atoms: O_4  and  P_34
    3  A    between atoms: C_6  and  N_13
    4  A    between atoms: C_7  and  C_30
    5  A    between atoms: C_7  and  C_36
    6  A    between atoms: C_7  and  S_42
    7  A    between atoms: N_8  and  N_23
    8  A    between atoms: C_11  and  C_27
    9  A    between atoms: C_11  and  C_47
   10  A    between atoms: N_13  and  S_42
   11  A    between atoms: C_19  and  O_20
   12  A    between atoms: O_20  and  C_29
   13  A    between atoms: C_21  and  C_36
   14  A    between atoms: C_28  and  P_34
                            x       y       z     vdW  Elec       q    Type
                         _______ _______ _______ _____ _____    ______ ____

>  <TORSDO>
F 14

$$$$
=
 OpenBabel11062417053D

 47 50  0  0  1  0  0  0  0  0999 V2000
  184.0500  178.2500  143.9010 N   0  0  0  0  0  2  0  0  0  0  0  0
  183.0160  178.9740  143.1520 C   0  0  0  0  0  2  0  0  0  0  0  0
  185.3120  178.7660  143.4040 C   0  0  1  0  0  3  0  0  0  0  0  0
  187.9510  175.9010  143.5230 C   0  0  0  0  0  1  0  0  0  0  0  0
  184.9510  177.9740  139.0570 O   0  0  0  0  0  0  0  0  0  0  0  0
  183.1430  178.7520  141.6240 C   0  0  0  0  0  2  0  0  0  0  0  0
  186.9300  178.5870  141.7180 N   0  0  2  0  0  0  0  0  0  0  0  0
  188.7160  176.9690  141.4470 C   0  0  0  0  0  2  0  0  0  0  0  0
  187.4970  177.6020  140.7940 C   0  0  2  0  0  3  0  0  0  0  0  0
  187.6140  178.3920  143.0130 C   0  0  2  0  0  3  0  0  0  0  0  0
  188.5350  177.1750  142.9210 C   0  0  1  0  0  0  0  0  0  0  0  0
  186.5420  178.2980  144.1190 C   0  0  1  0  0  3  0  0  0  0  0  0
  185.5380  178.2420  142.0190 C   0  0  2  0  0  3  0  0  0  0  0  0
  184.7150  178.9970  139.7520 C   0  0  0  0  0  0  0  0  0  0  0  0
  184.5540  180.2300  139.1350 O   0  0  0  0  0  1  0  0  0  0  0  0
  184.5340  178.8800  141.1640 N   0  0  0  0  0  0  0  0  0  0  0  0
  191.2480  177.9940  142.5080 O   0  0  0  0  0  0  0  0  0  0  0  0
  190.1330  177.5480  143.7020 P   0  0  1  0  0  0  0  0  0  0  0  0
  189.9630  178.6870  144.6840 O   0  0  0  0  0  1  0  0  0  0  0  0
  190.6750  176.1650  144.5210 O   0  0  0  0  0  0  0  0  0  0  0  0
  191.0500  176.6040  145.7930 C   0  0  0  0  0  2  0  0  0  0  0  0
  192.1620  175.7230  146.3370 C   0  0  0  0  0  2  0  0  0  0  0  0
  192.7580  175.0290  148.5400 O   0  0  0  0  0  0  0  0  0  0  0  0
  192.0550  177.2360  148.3550 N   0  0  0  0  0  1  0  0  0  0  0  0
  192.3550  175.9610  147.7960 C   0  0  0  0  0  0  0  0  0  0  0  0
  186.8470  179.0350  145.2900 O   0  0  0  0  0  0  0  0  0  0  0  0
  186.7450  178.2060  146.4210 C   0  0  0  0  0  2  0  0  0  0  0  0
  185.4550  178.5130  147.1520 C   0  0  0  0  0  1  0  0  0  0  0  0
  187.9210  178.3000  139.5060 C   0  0  0  0  0  2  0  0  0  0  0  0
  188.1180  177.3240  138.3510 C   0  0  2  0  0  3  0  0  0  0  0  0
  190.6660  177.8640  139.0760 O   0  0  0  0  0  0  0  0  0  0  0  0
  190.1810  177.6890  136.6890 O   0  0  0  0  0  0  0  0  0  0  0  0
  189.8680  177.1190  138.0420 S   0  0  0  0  0  0  0  0  0  0  0  0
  190.3060  175.4400  138.0510 N   0  0  0  0  0  2  0  0  0  0  0  0
  191.3170  175.2230  137.0310 C   0  0  2  0  0  3  0  0  0  0  0  0
  192.6600  173.2070  136.4810 N   0  0  0  0  0  0  0  0  0  0  0  0
  191.3010  173.7540  136.5810 C   0  0  0  0  0  2  0  0  0  0  0  0
  192.5810  175.5720  137.5350 O   0  0  0  0  0  0  0  0  0  0  0  0
  193.4520  175.5620  136.4310 C   0  0  1  0  0  3  0  0  0  0  0  0
  194.7040  176.0380  136.8190 O   0  0  0  0  0  1  0  0  0  0  0  0
  193.5970  174.1460  135.8480 C   0  0  0  0  0  2  0  0  0  0  0  0
  193.5090  170.9040  135.8690 C   0  0  0  0  0  0  0  0  0  0  0  0
  192.6160  172.0210  135.7200 N   0  0  0  0  0  2  0  0  0  0  0  0
  194.5800  170.8850  136.9080 C   0  0  0  0  0  1  0  0  0  0  0  0
  193.3860  169.9120  135.1030 O   0  0  0  0  0  0  0  0  0  0  0  0
  187.4200  179.1990  137.0430 O   0  0  0  0  0  1  0  0  0  0  0  0
  187.3900  177.8080  137.1050 C   0  0  0  0  0  2  0  0  0  0  0  0
  2  1  1  0  0  0  0
  3  1  1  1  0  0  0
  3 12  1  0  0  0  0
  5 14  2  0  0  0  0
  6  2  1  0  0  0  0
  7 13  1  0  0  0  0
  7 10  1  0  0  0  0
  8 11  1  0  0  0  0
  9  8  1  0  0  0  0
  9  7  1  0  0  0  0
 10 12  1  0  0  0  0
 11 10  1  0  0  0  0
 11  4  1  0  0  0  0
 11 18  1  0  0  0  0
 12 26  1  0  0  0  0
 13  3  1  0  0  0  0
 14 16  1  0  0  0  0
 15 14  1  0  0  0  0
 16  6  1  0  0  0  0
 16 13  1  0  0  0  0
 17 18  2  0  0  0  0
 18 20  1  0  0  0  0
 18 19  1  0  0  0  0
 20 21  1  0  0  0  0
 21 22  1  0  0  0  0
 22 25  1  0  0  0  0
 25 24  1  0  0  0  0
 25 23  2  0  0  0  0
 26 27  1  0  0  0  0
 27 28  1  0  0  0  0
 29  9  1  0  0  0  0
 30 29  1  0  0  0  0
 32 33  2  0  0  0  0
 33 34  1  0  0  0  0
 33 30  1  0  0  0  0
 33 31  2  0  0  0  0
 35 38  1  0  0  0  0
 35 34  1  0  0  0  0
 36 37  1  0  0  0  0
 37 35  1  0  0  0  0
 39 40  1  0  0  0  0
 39 38  1  0  0  0  0
 41 39  1  0  0  0  0
 41 36  1  0  0  0  0
 42 44  1  0  0  0  0
 43 42  1  0  0  0  0
 43 36  1  0  0  0  0
 45 42  2  0  0  0  0
 46 47  1  0  0  0  0
 47 30  1  0  0  0  0
M  END
>  <MODEL>
4

>  <REMARK>
 VINA RESULT:      -6.8      1.635      2.199
  Name = 
  14 active torsions:
  status: ('A' for Active; 'I' for Inactive)
    1  A    between atoms: O_4  and  C_27
    2  A    between atoms: O_4  and  P_34
    3  A    between atoms: C_6  and  N_13
    4  A    between atoms: C_7  and  C_30
    5  A    between atoms: C_7  and  C_36
    6  A    between atoms: C_7  and  S_42
    7  A    between atoms: N_8  and  N_23
    8  A    between atoms: C_11  and  C_27
    9  A    between atoms: C_11  and  C_47
   10  A    between atoms: N_13  and  S_42
   11  A    between atoms: C_19  and  O_20
   12  A    between atoms: O_20  and  C_29
   13  A    between atoms: C_21  and  C_36
   14  A    between atoms: C_28  and  P_34
                            x       y       z     vdW  Elec       q    Type
                         _______ _______ _______ _____ _____    ______ ____

>  <TORSDO>
F 14

$$$$
=
 OpenBabel11062417053D

 47 50  0  0  1  0  0  0  0  0999 V2000
  189.8720  177.0000  147.1550 N   0  0  0  0  0  2  0  0  0  0  0  0
  189.4050  177.6470  148.3870 C   0  0  0  0  0  2  0  0  0  0  0  0
  189.4210  177.8620  146.0780 C   0  0  1  0  0  3  0  0  0  0  0  0
  188.6310  175.6470  142.9710 C   0  0  0  0  0  1  0  0  0  0  0  0
  185.0540  178.0150  146.8240 O   0  0  0  0  0  0  0  0  0  0  0  0
  187.8640  177.8070  148.4110 C   0  0  0  0  0  2  0  0  0  0  0  0
  187.6230  178.4030  144.6740 N   0  0  2  0  0  0  0  0  0  0  0  0
  186.8270  177.2890  142.6740 C   0  0  0  0  0  2  0  0  0  0  0  0
  186.4450  177.7900  144.0570 C   0  0  2  0  0  3  0  0  0  0  0  0
  188.7750  178.0650  143.8120 C   0  0  2  0  0  3  0  0  0  0  0  0
  188.3160  177.1160  142.7050 C   0  0  1  0  0  0  0  0  0  0  0  0
  189.9030  177.5070  144.7050 C   0  0  1  0  0  3  0  0  0  0  0  0
  187.9370  177.7220  145.9340 C   0  0  2  0  0  3  0  0  0  0  0  0
  185.9950  178.7840  147.1520 C   0  0  0  0  0  0  0  0  0  0  0  0
  185.7130  180.0650  147.6090 O   0  0  0  0  0  1  0  0  0  0  0  0
  187.3440  178.3170  147.1340 N   0  0  0  0  0  0  0  0  0  0  0  0
  187.8030  177.8320  139.9810 O   0  0  0  0  0  0  0  0  0  0  0  0
  189.0410  177.6220  141.1170 P   0  0  1  0  0  0  0  0  0  0  0  0
  189.7890  178.9240  141.2940 O   0  0  0  0  0  1  0  0  0  0  0  0
  190.1120  176.4140  140.5980 O   0  0  0  0  0  0  0  0  0  0  0  0
  191.0860  177.0740  139.8440 C   0  0  0  0  0  2  0  0  0  0  0  0
  191.2380  176.3990  138.4910 C   0  0  0  0  0  2  0  0  0  0  0  0
  193.5590  176.9450  138.5350 O   0  0  0  0  0  0  0  0  0  0  0  0
  193.0380  174.9190  137.5230 N   0  0  0  0  0  1  0  0  0  0  0  0
  192.6730  176.1150  138.2030 C   0  0  0  0  0  0  0  0  0  0  0  0
  191.1910  178.0070  144.3960 O   0  0  0  0  0  0  0  0  0  0  0  0
  191.8660  177.1100  143.5480 C   0  0  0  0  0  2  0  0  0  0  0  0
  191.7390  175.7060  144.1000 C   0  0  0  0  0  1  0  0  0  0  0  0
  185.3390  178.8320  143.9290 C   0  0  0  0  0  2  0  0  0  0  0  0
  184.0490  178.2470  143.3670 C   0  0  2  0  0  3  0  0  0  0  0  0
  184.9430  179.7390  141.2970 O   0  0  0  0  0  0  0  0  0  0  0  0
  182.5260  179.5010  141.5610 O   0  0  0  0  0  0  0  0  0  0  0  0
  183.8420  178.7860  141.6740 S   0  0  0  0  0  0  0  0  0  0  0  0
  183.8330  177.4330  140.5890 N   0  0  0  0  0  2  0  0  0  0  0  0
  182.5810  177.4420  139.8510 C   0  0  2  0  0  3  0  0  0  0  0  0
  181.5210  175.7030  138.4310 N   0  0  0  0  0  0  0  0  0  0  0  0
  182.0020  176.0220  139.7810 C   0  0  0  0  0  2  0  0  0  0  0  0
  182.7960  177.9530  138.5610 O   0  0  0  0  0  0  0  0  0  0  0  0
  181.5180  178.1510  138.0060 C   0  0  1  0  0  3  0  0  0  0  0  0
  181.6370  178.7930  136.7740 O   0  0  0  0  0  1  0  0  0  0  0  0
  180.7780  176.8160  137.8230 C   0  0  0  0  0  2  0  0  0  0  0  0
  180.7250  173.4420  137.6210 C   0  0  0  0  0  0  0  0  0  0  0  0
  180.6780  174.5750  138.5040 N   0  0  0  0  0  2  0  0  0  0  0  0
  181.7360  173.3370  136.5280 C   0  0  0  0  0  1  0  0  0  0  0  0
  179.8930  172.5100  137.7720 O   0  0  0  0  0  0  0  0  0  0  0  0
  183.2170  179.6700  145.0980 O   0  0  0  0  0  1  0  0  0  0  0  0
  182.8560  178.6470  144.2240 C   0  0  0  0  0  2  0  0  0  0  0  0
  1  2  1  0  0  0  0
  2  6  1  0  0  0  0
  3  1  1  1  0  0  0
  5 14  2  0  0  0  0
  7 13  1  0  0  0  0
  8 11  1  0  0  0  0
  8  9  1  0  0  0  0
  9  7  1  0  0  0  0
 10  7  1  0  0  0  0
 10 12  1  0  0  0  0
 11  4  1  0  0  0  0
 11 10  1  0  0  0  0
 12  3  1  0  0  0  0
 13  3  1  0  0  0  0
 13 16  1  0  0  0  0
 14 15  1  0  0  0  0
 16 14  1  0  0  0  0
 16  6  1  0  0  0  0
 17 18  2  0  0  0  0
 18 19  1  0  0  0  0
 18 11  1  0  0  0  0
 20 18  1  0  0  0  0
 21 20  1  0  0  0  0
 22 21  1  0  0  0  0
 24 25  1  0  0  0  0
 25 22  1  0  0  0  0
 25 23  2  0  0  0  0
 26 12  1  0  0  0  0
 27 28  1  0  0  0  0
 27 26  1  0  0  0  0
 29  9  1  0  0  0  0
 30 29  1  0  0  0  0
 30 47  1  0  0  0  0
 31 33  2  0  0  0  0
 32 33  2  0  0  0  0
 33 30  1  0  0  0  0
 34 33  1  0  0  0  0
 35 34  1  0  0  0  0
 36 43  1  0  0  0  0
 36 37  1  0  0  0  0
 37 35  1  0  0  0  0
 38 35  1  0  0  0  0
 39 38  1  0  0  0  0
 40 39  1  0  0  0  0
 41 39  1  0  0  0  0
 41 36  1  0  0  0  0
 42 45  2  0  0  0  0
 42 43  1  0  0  0  0
 44 42  1  0  0  0  0
 47 46  1  0  0  0  0
M  END
>  <MODEL>
5

>  <REMARK>
 VINA RESULT:      -6.8      3.229      7.897
  Name = 
  14 active torsions:
  status: ('A' for Active; 'I' for Inactive)
    1  A    between atoms: O_4  and  C_27
    2  A    between atoms: O_4  and  P_34
    3  A    between atoms: C_6  and  N_13
    4  A    between atoms: C_7  and  C_30
    5  A    between atoms: C_7  and  C_36
    6  A    between atoms: C_7  and  S_42
    7  A    between atoms: N_8  and  N_23
    8  A    between atoms: C_11  and  C_27
    9  A    between atoms: C_11  and  C_47
   10  A    between atoms: N_13  and  S_42
   11  A    between atoms: C_19  and  O_20
   12  A    between atoms: O_20  and  C_29
   13  A    between atoms: C_21  and  C_36
   14  A    between atoms: C_28  and  P_34
                            x       y       z     vdW  Elec       q    Type
                         _______ _______ _______ _____ _____    ______ ____

>  <TORSDO>
F 14

$$$$
=
 OpenBabel11062417053D

 47 50  0  0  1  0  0  0  0  0999 V2000
  188.2600  177.9990  146.0180 N   0  0  0  0  0  2  0  0  0  0  0  0
  189.4300  177.1640  146.3160 C   0  0  0  0  0  2  0  0  0  0  0  0
  187.6570  177.4020  144.8400 C   0  0  1  0  0  3  0  0  0  0  0  0
  186.0400  180.2360  142.7090 C   0  0  0  0  0  1  0  0  0  0  0  0
  191.0410  177.4610  141.9760 O   0  0  0  0  0  0  0  0  0  0  0  0
  190.4330  177.1280  145.1360 C   0  0  0  0  0  2  0  0  0  0  0  0
  187.7130  177.2920  142.4990 N   0  0  2  0  0  0  0  0  0  0  0  0
  186.8290  178.8350  140.8520 C   0  0  0  0  0  2  0  0  0  0  0  0
  188.0720  178.1070  141.3360 C   0  0  2  0  0  3  0  0  0  0  0  0
  186.3480  177.6970  142.8920 C   0  0  2  0  0  3  0  0  0  0  0  0
  185.9020  178.8780  142.0300 C   0  0  1  0  0  0  0  0  0  0  0  0
  186.3430  177.9770  144.4090 C   0  0  1  0  0  3  0  0  0  0  0  0
  188.5260  177.6870  143.6530 C   0  0  2  0  0  3  0  0  0  0  0  0
  190.6040  176.5690  142.7490 C   0  0  0  0  0  0  0  0  0  0  0  0
  191.0070  175.2510  142.5830 O   0  0  0  0  0  1  0  0  0  0  0  0
  189.7590  176.9200  143.8460 N   0  0  0  0  0  0  0  0  0  0  0  0
  183.8940  179.5810  140.1140 O   0  0  0  0  0  0  0  0  0  0  0  0
  184.1850  178.6330  141.4870 P   0  0  1  0  0  0  0  0  0  0  0  0
  183.9630  177.1760  141.1500 O   0  0  0  0  0  1  0  0  0  0  0  0
  183.1460  179.0930  142.7460 O   0  0  0  0  0  0  0  0  0  0  0  0
  181.8570  178.7860  142.3010 C   0  0  0  0  0  2  0  0  0  0  0  0
  180.8270  179.4140  143.2240 C   0  0  0  0  0  2  0  0  0  0  0  0
  179.0030  178.3920  144.3720 O   0  0  0  0  0  0  0  0  0  0  0  0
  179.0910  177.9790  142.0870 N   0  0  0  0  0  1  0  0  0  0  0  0
  179.5910  178.5830  143.2750 C   0  0  0  0  0  0  0  0  0  0  0  0
  185.2250  177.4450  145.0960 O   0  0  0  0  0  0  0  0  0  0  0  0
  184.5880  178.4550  145.8390 C   0  0  0  0  0  2  0  0  0  0  0  0
  185.2830  178.6080  147.1760 C   0  0  0  0  0  1  0  0  0  0  0  0
  188.5930  177.2020  140.2240 C   0  0  0  0  0  2  0  0  0  0  0  0
  188.2930  177.7550  138.8350 C   0  0  2  0  0  3  0  0  0  0  0  0
  188.9200  177.0170  136.3100 O   0  0  0  0  0  0  0  0  0  0  0  0
  187.1340  175.7900  137.4390 O   0  0  0  0  0  0  0  0  0  0  0  0
  188.4710  176.4470  137.6280 S   0  0  0  0  0  0  0  0  0  0  0  0
  189.6040  175.2510  138.1720 N   0  0  0  0  0  2  0  0  0  0  0  0
  190.9390  175.6660  137.7740 C   0  0  2  0  0  3  0  0  0  0  0  0
  193.0420  174.3650  137.5460 N   0  0  0  0  0  0  0  0  0  0  0  0
  191.6600  174.5080  137.0690 C   0  0  0  0  0  2  0  0  0  0  0  0
  191.6610  176.0840  138.9040 O   0  0  0  0  0  0  0  0  0  0  0  0
  192.8330  176.6850  138.4120 C   0  0  1  0  0  3  0  0  0  0  0  0
  193.5440  177.2580  139.4670 O   0  0  0  0  0  1  0  0  0  0  0  0
  193.7220  175.6600  137.6880 C   0  0  0  0  0  2  0  0  0  0  0  0
  194.8790  172.7310  136.9520 C   0  0  0  0  0  0  0  0  0  0  0  0
  193.7580  173.5700  136.6280 N   0  0  0  0  0  2  0  0  0  0  0  0
  195.3810  172.5920  138.3510 C   0  0  0  0  0  1  0  0  0  0  0  0
  195.4550  172.0920  136.0330 O   0  0  0  0  0  0  0  0  0  0  0  0
  188.6710  179.6730  137.4610 O   0  0  0  0  0  1  0  0  0  0  0  0
  189.2040  178.9310  138.5130 C   0  0  0  0  0  2  0  0  0  0  0  0
  1  2  1  0  0  0  0
  3  1  1  1  0  0  0
  5 14  2  0  0  0  0
  6  2  1  0  0  0  0
  7 10  1  0  0  0  0
  7 13  1  0  0  0  0
  8  9  1  0  0  0  0
  8 11  1  0  0  0  0
  9  7  1  0  0  0  0
 10 12  1  0  0  0  0
 11  4  1  0  0  0  0
 11 10  1  0  0  0  0
 12  3  1  0  0  0  0
 12 26  1  0  0  0  0
 13 16  1  0  0  0  0
 13  3  1  0  0  0  0
 14 16  1  0  0  0  0
 15 14  1  0  0  0  0
 16  6  1  0  0  0  0
 17 18  2  0  0  0  0
 18 11  1  0  0  0  0
 18 20  1  0  0  0  0
 19 18  1  0  0  0  0
 21 20  1  0  0  0  0
 21 22  1  0  0  0  0
 22 25  1  0  0  0  0
 24 25  1  0  0  0  0
 25 23  2  0  0  0  0
 26 27  1  0  0  0  0
 27 28  1  0  0  0  0
 29  9  1  0  0  0  0
 30 29  1  0  0  0  0
 31 33  2  0  0  0  0
 32 33  2  0  0  0  0
 33 34  1  0  0  0  0
 33 30  1  0  0  0  0
 35 34  1  0  0  0  0
 35 38  1  0  0  0  0
 36 41  1  0  0  0  0
 37 36  1  0  0  0  0
 37 35  1  0  0  0  0
 39 38  1  0  0  0  0
 39 40  1  0  0  0  0
 41 39  1  0  0  0  0
 42 44  1  0  0  0  0
 43 42  1  0  0  0  0
 43 36  1  0  0  0  0
 45 42  2  0  0  0  0
 46 47  1  0  0  0  0
 47 30  1  0  0  0  0
M  END
>  <MODEL>
6

>  <REMARK>
 VINA RESULT:      -6.7      2.630      6.036
  Name = 
  14 active torsions:
  status: ('A' for Active; 'I' for Inactive)
    1  A    between atoms: O_4  and  C_27
    2  A    between atoms: O_4  and  P_34
    3  A    between atoms: C_6  and  N_13
    4  A    between atoms: C_7  and  C_30
    5  A    between atoms: C_7  and  C_36
    6  A    between atoms: C_7  and  S_42
    7  A    between atoms: N_8  and  N_23
    8  A    between atoms: C_11  and  C_27
    9  A    between atoms: C_11  and  C_47
   10  A    between atoms: N_13  and  S_42
   11  A    between atoms: C_19  and  O_20
   12  A    between atoms: O_20  and  C_29
   13  A    between atoms: C_21  and  C_36
   14  A    between atoms: C_28  and  P_34
                            x       y       z     vdW  Elec       q    Type
                         _______ _______ _______ _____ _____    ______ ____

>  <TORSDO>
F 14

$$$$
=
 OpenBabel11062417053D

 47 50  0  0  1  0  0  0  0  0999 V2000
  189.4000  173.2810  135.2750 N   0  0  0  0  0  2  0  0  0  0  0  0
  188.7890  171.9890  134.9400 C   0  0  0  0  0  2  0  0  0  0  0  0
  188.6480  173.7720  136.4160 C   0  0  1  0  0  3  0  0  0  0  0  0
  188.5290  177.6630  136.2340 C   0  0  0  0  0  1  0  0  0  0  0  0
  184.5110  173.7760  134.8230 O   0  0  0  0  0  0  0  0  0  0  0  0
  187.2860  172.1300  134.5940 C   0  0  0  0  0  2  0  0  0  0  0  0
  186.7230  174.9230  137.0960 N   0  0  2  0  0  0  0  0  0  0  0  0
  186.2720  177.3050  137.1340 C   0  0  0  0  0  2  0  0  0  0  0  0
  185.7950  175.9540  136.6250 C   0  0  2  0  0  3  0  0  0  0  0  0
  187.8880  175.6330  137.6630 C   0  0  2  0  0  3  0  0  0  0  0  0
  187.7330  177.1340  137.4230 C   0  0  1  0  0  0  0  0  0  0  0  0
  189.1700  175.0190  137.0610 C   0  0  1  0  0  3  0  0  0  0  0  0
  187.2920  174.2060  135.9520 C   0  0  2  0  0  3  0  0  0  0  0  0
  185.1520  172.9360  135.5080 C   0  0  0  0  0  0  0  0  0  0  0  0
  184.4770  171.9090  136.1520 O   0  0  0  0  0  1  0  0  0  0  0  0
  186.5780  172.9880  135.5560 N   0  0  0  0  0  0  0  0  0  0  0  0
  189.2230  179.3250  138.5080 O   0  0  0  0  0  0  0  0  0  0  0  0
  188.1880  178.0510  138.9240 P   0  0  1  0  0  0  0  0  0  0  0  0
  186.9410  178.6060  139.5760 O   0  0  0  0  0  1  0  0  0  0  0  0
  188.9680  176.9900  139.9940 O   0  0  0  0  0  0  0  0  0  0  0  0
  189.2060  177.7340  141.1530 C   0  0  0  0  0  2  0  0  0  0  0  0
  188.4020  177.1620  142.3090 C   0  0  0  0  0  2  0  0  0  0  0  0
  190.1200  175.8310  143.2920 O   0  0  0  0  0  0  0  0  0  0  0  0
  189.2100  177.4570  144.6810 N   0  0  0  0  0  1  0  0  0  0  0  0
  189.3010  176.7760  143.4340 C   0  0  0  0  0  0  0  0  0  0  0  0
  190.2050  174.7950  138.0010 O   0  0  0  0  0  0  0  0  0  0  0  0
  191.2380  175.7320  137.8140 C   0  0  0  0  0  2  0  0  0  0  0  0
  192.0470  175.3490  136.5930 C   0  0  0  0  0  1  0  0  0  0  0  0
  184.4010  175.6710  137.1740 C   0  0  0  0  0  2  0  0  0  0  0  0
  183.4760  176.8780  137.0660 C   0  0  2  0  0  3  0  0  0  0  0  0
  182.0410  175.8190  139.0990 O   0  0  0  0  0  0  0  0  0  0  0  0
  181.5210  178.1060  138.4160 O   0  0  0  0  0  0  0  0  0  0  0  0
  182.6320  177.1180  138.6250 S   0  0  0  0  0  0  0  0  0  0  0  0
  183.7160  177.7480  139.8250 N   0  0  0  0  0  2  0  0  0  0  0  0
  182.9440  178.5260  140.7790 C   0  0  2  0  0  3  0  0  0  0  0  0
  183.1600  178.7490  143.2430 N   0  0  0  0  0  0  0  0  0  0  0  0
  183.8370  178.9490  141.9550 C   0  0  0  0  0  2  0  0  0  0  0  0
  181.8520  177.7700  141.2340 O   0  0  0  0  0  0  0  0  0  0  0  0
  181.0380  178.6620  141.9540 C   0  0  1  0  0  3  0  0  0  0  0  0
  179.8540  178.0230  142.3210 O   0  0  0  0  0  1  0  0  0  0  0  0
  181.7560  179.1810  143.2110 C   0  0  0  0  0  2  0  0  0  0  0  0
  184.9850  179.0220  144.9730 C   0  0  0  0  0  0  0  0  0  0  0  0
  183.8430  179.4850  144.2330 N   0  0  0  0  0  2  0  0  0  0  0  0
  185.5960  177.6840  144.7240 C   0  0  0  0  0  1  0  0  0  0  0  0
  185.4860  179.7650  145.8580 O   0  0  0  0  0  0  0  0  0  0  0  0
  182.2680  177.9170  135.2840 O   0  0  0  0  0  1  0  0  0  0  0  0
  182.4850  176.6980  135.9240 C   0  0  0  0  0  2  0  0  0  0  0  0
  2  1  1  0  0  0  0
  3  1  1  6  0  0  0
  3 12  1  0  0  0  0
  4 11  1  0  0  0  0
  5 14  2  0  0  0  0
  6  2  1  0  0  0  0
  6 16  1  0  0  0  0
  7 10  1  0  0  0  0
  8 11  1  0  0  0  0
  9  7  1  0  0  0  0
  9  8  1  0  0  0  0
  9 29  1  0  0  0  0
 11 10  1  0  0  0  0
 11 18  1  0  0  0  0
 12 10  1  0  0  0  0
 12 26  1  0  0  0  0
 13  3  1  0  0  0  0
 13  7  1  0  0  0  0
 14 16  1  0  0  0  0
 14 15  1  0  0  0  0
 16 13  1  0  0  0  0
 17 18  2  0  0  0  0
 18 19  1  0  0  0  0
 18 20  1  0  0  0  0
 20 21  1  0  0  0  0
 21 22  1  0  0  0  0
 22 25  1  0  0  0  0
 23 25  2  0  0  0  0
 25 24  1  0  0  0  0
 27 26  1  0  0  0  0
 28 27  1  0  0  0  0
 30 29  1  0  0  0  0
 30 33  1  0  0  0  0
 32 33  2  0  0  0  0
 33 31  2  0  0  0  0
 33 34  1  0  0  0  0
 34 35  1  0  0  0  0
 35 38  1  0  0  0  0
 35 37  1  0  0  0  0
 36 43  1  0  0  0  0
 37 36  1  0  0  0  0
 38 39  1  0  0  0  0
 39 40  1  0  0  0  0
 39 41  1  0  0  0  0
 41 36  1  0  0  0  0
 42 45  2  0  0  0  0
 43 42  1  0  0  0  0
 44 42  1  0  0  0  0
 46 47  1  0  0  0  0
 47 30  1  0  0  0  0
M  END
>  <MODEL>
7

>  <REMARK>
 VINA RESULT:      -6.6      3.129      8.549
  Name = 
  14 active torsions:
  status: ('A' for Active; 'I' for Inactive)
    1  A    between atoms: O_4  and  C_27
    2  A    between atoms: O_4  and  P_34
    3  A    between atoms: C_6  and  N_13
    4  A    between atoms: C_7  and  C_30
    5  A    between atoms: C_7  and  C_36
    6  A    between atoms: C_7  and  S_42
    7  A    between atoms: N_8  and  N_23
    8  A    between atoms: C_11  and  C_27
    9  A    between atoms: C_11  and  C_47
   10  A    between atoms: N_13  and  S_42
   11  A    between atoms: C_19  and  O_20
   12  A    between atoms: O_20  and  C_29
   13  A    between atoms: C_21  and  C_36
   14  A    between atoms: C_28  and  P_34
                            x       y       z     vdW  Elec       q    Type
                         _______ _______ _______ _____ _____    ______ ____

>  <TORSDO>
F 14

$$$$
=
 OpenBabel11062417053D

 47 50  0  0  1  0  0  0  0  0999 V2000
  188.2320  178.0240  146.0600 N   0  0  0  0  0  2  0  0  0  0  0  0
  189.3260  177.1240  146.4440 C   0  0  0  0  0  2  0  0  0  0  0  0
  187.6730  177.4480  144.8500 C   0  0  1  0  0  3  0  0  0  0  0  0
  186.3760  180.3440  142.5880 C   0  0  0  0  0  1  0  0  0  0  0  0
  191.2360  177.2630  142.2190 O   0  0  0  0  0  0  0  0  0  0  0  0
  190.4010  177.0110  145.3340 C   0  0  0  0  0  2  0  0  0  0  0  0
  187.8770  177.3020  142.5200 N   0  0  2  0  0  0  0  0  0  0  0  0
  187.1990  178.8720  140.8020 C   0  0  0  0  0  2  0  0  0  0  0  0
  188.3620  178.0780  141.3750 C   0  0  2  0  0  3  0  0  0  0  0  0
  186.5160  177.7940  142.8160 C   0  0  2  0  0  3  0  0  0  0  0  0
  186.2010  178.9870  141.9140 C   0  0  1  0  0  0  0  0  0  0  0  0
  186.4270  178.0950  144.3270 C   0  0  1  0  0  3  0  0  0  0  0  0
  188.6340  177.6640  143.7220 C   0  0  2  0  0  3  0  0  0  0  0  0
  190.6950  176.4100  142.9700 C   0  0  0  0  0  0  0  0  0  0  0  0
  191.0280  175.0680  142.8440 O   0  0  0  0  0  1  0  0  0  0  0  0
  189.8020  176.8260  144.0040 N   0  0  0  0  0  0  0  0  0  0  0  0
  184.3810  179.7530  139.8410 O   0  0  0  0  0  0  0  0  0  0  0  0
  184.5120  178.8390  141.2600 P   0  0  1  0  0  0  0  0  0  0  0  0
  184.2130  177.3880  140.9550 O   0  0  0  0  0  1  0  0  0  0  0  0
  183.4240  179.4130  142.4280 O   0  0  0  0  0  0  0  0  0  0  0  0
  182.2740  178.6320  142.2860 C   0  0  0  0  0  2  0  0  0  0  0  0
  181.4910  178.6220  143.5880 C   0  0  0  0  0  2  0  0  0  0  0  0
  179.1130  178.6180  143.7650 O   0  0  0  0  0  0  0  0  0  0  0  0
  180.0280  180.5100  142.7730 N   0  0  0  0  0  1  0  0  0  0  0  0
  180.1460  179.2360  143.3980 C   0  0  0  0  0  0  0  0  0  0  0  0
  185.2360  177.6400  144.9430 O   0  0  0  0  0  0  0  0  0  0  0  0
  184.6570  178.6750  145.6990 C   0  0  0  0  0  2  0  0  0  0  0  0
  184.5770  178.2510  147.1500 C   0  0  0  0  0  1  0  0  0  0  0  0
  188.8990  177.1280  140.3100 C   0  0  0  0  0  2  0  0  0  0  0  0
  189.8120  177.8300  139.3110 C   0  0  2  0  0  3  0  0  0  0  0  0
  189.7110  177.6450  136.6150 O   0  0  0  0  0  0  0  0  0  0  0  0
  188.6910  179.6060  137.6550 O   0  0  0  0  0  0  0  0  0  0  0  0
  188.9110  178.1270  137.7940 S   0  0  0  0  0  0  0  0  0  0  0  0
  187.3670  177.3380  137.8250 N   0  0  0  0  0  2  0  0  0  0  0  0
  187.3910  176.2400  136.8740 C   0  0  2  0  0  3  0  0  0  0  0  0
  185.7480  174.4290  136.4430 N   0  0  0  0  0  0  0  0  0  0  0  0
  185.9600  175.8820  136.4480 C   0  0  0  0  0  2  0  0  0  0  0  0
  188.0290  175.1280  137.4500 O   0  0  0  0  0  0  0  0  0  0  0  0
  188.2220  174.2090  136.4030 C   0  0  1  0  0  3  0  0  0  0  0  0
  188.9810  173.1320  136.8600 O   0  0  0  0  0  1  0  0  0  0  0  0
  186.8790  173.6990  135.8540 C   0  0  0  0  0  2  0  0  0  0  0  0
  183.6660  173.0720  135.9720 C   0  0  0  0  0  0  0  0  0  0  0  0
  184.5830  174.1440  135.7010 N   0  0  0  0  0  2  0  0  0  0  0  0
  183.8510  172.1510  137.1320 C   0  0  0  0  0  1  0  0  0  0  0  0
  182.6760  172.9020  135.2130 O   0  0  0  0  0  0  0  0  0  0  0  0
  190.7910  175.6520  139.2180 O   0  0  0  0  0  1  0  0  0  0  0  0
  191.0670  177.0070  139.0560 C   0  0  0  0  0  2  0  0  0  0  0  0
  1  2  1  0  0  0  0
  3  1  1  1  0  0  0
  5 14  2  0  0  0  0
  6  2  1  0  0  0  0
  7 10  1  0  0  0  0
  7 13  1  0  0  0  0
  8  9  1  0  0  0  0
  8 11  1  0  0  0  0
  9  7  1  0  0  0  0
 10 12  1  0  0  0  0
 11  4  1  0  0  0  0
 11 10  1  0  0  0  0
 12  3  1  0  0  0  0
 12 26  1  0  0  0  0
 13 16  1  0  0  0  0
 13  3  1  0  0  0  0
 14 16  1  0  0  0  0
 15 14  1  0  0  0  0
 16  6  1  0  0  0  0
 17 18  2  0  0  0  0
 18 11  1  0  0  0  0
 18 20  1  0  0  0  0
 19 18  1  0  0  0  0
 21 20  1  0  0  0  0
 21 22  1  0  0  0  0
 24 25  1  0  0  0  0
 25 22  1  0  0  0  0
 25 23  2  0  0  0  0
 26 27  1  0  0  0  0
 27 28  1  0  0  0  0
 29  9  1  0  0  0  0
 30 29  1  0  0  0  0
 31 33  2  0  0  0  0
 32 33  2  0  0  0  0
 33 34  1  0  0  0  0
 33 30  1  0  0  0  0
 35 38  1  0  0  0  0
 35 34  1  0  0  0  0
 36 37  1  0  0  0  0
 37 35  1  0  0  0  0
 39 40  1  0  0  0  0
 39 38  1  0  0  0  0
 41 39  1  0  0  0  0
 41 36  1  0  0  0  0
 42 44  1  0  0  0  0
 43 42  1  0  0  0  0
 43 36  1  0  0  0  0
 45 42  2  0  0  0  0
 47 46  1  0  0  0  0
 47 30  1  0  0  0  0
M  END
>  <MODEL>
8

>  <REMARK>
 VINA RESULT:      -6.6      3.065      6.862
  Name = 
  14 active torsions:
  status: ('A' for Active; 'I' for Inactive)
    1  A    between atoms: O_4  and  C_27
    2  A    between atoms: O_4  and  P_34
    3  A    between atoms: C_6  and  N_13
    4  A    between atoms: C_7  and  C_30
    5  A    between atoms: C_7  and  C_36
    6  A    between atoms: C_7  and  S_42
    7  A    between atoms: N_8  and  N_23
    8  A    between atoms: C_11  and  C_27
    9  A    between atoms: C_11  and  C_47
   10  A    between atoms: N_13  and  S_42
   11  A    between atoms: C_19  and  O_20
   12  A    between atoms: O_20  and  C_29
   13  A    between atoms: C_21  and  C_36
   14  A    between atoms: C_28  and  P_34
                            x       y       z     vdW  Elec       q    Type
                         _______ _______ _______ _____ _____    ______ ____

>  <TORSDO>
F 14

$$$$
=
 OpenBabel11062417053D

 47 50  0  0  1  0  0  0  0  0999 V2000
  193.2100  177.4410  140.4160 N   0  0  0  0  0  2  0  0  0  0  0  0
  193.9150  176.7470  139.3320 C   0  0  0  0  0  2  0  0  0  0  0  0
  191.9520  176.7330  140.5660 C   0  0  1  0  0  3  0  0  0  0  0  0
  189.2200  179.2840  141.6670 C   0  0  0  0  0  1  0  0  0  0  0  0
  190.2740  177.0150  136.4720 O   0  0  0  0  0  0  0  0  0  0  0  0
  193.1080  176.7630  138.0100 C   0  0  0  0  0  2  0  0  0  0  0  0
  189.7570  176.5240  139.7680 N   0  0  2  0  0  0  0  0  0  0  0  0
  187.8060  177.8910  140.2190 C   0  0  0  0  0  2  0  0  0  0  0  0
  188.7040  177.3190  139.1330 C   0  0  2  0  0  3  0  0  0  0  0  0
  189.6790  176.8020  141.2170 C   0  0  2  0  0  3  0  0  0  0  0  0
  188.6350  177.8890  141.4680 C   0  0  1  0  0  0  0  0  0  0  0  0
  191.0950  177.1480  141.7220 C   0  0  1  0  0  3  0  0  0  0  0  0
  191.0720  177.0530  139.3960 C   0  0  2  0  0  3  0  0  0  0  0  0
  190.9390  176.1180  137.0520 C   0  0  0  0  0  0  0  0  0  0  0  0
  191.0050  174.8430  136.5070 O   0  0  0  0  0  1  0  0  0  0  0  0
  191.6920  176.4280  138.2250 N   0  0  0  0  0  0  0  0  0  0  0  0
  186.0030  177.8800  142.5950 O   0  0  0  0  0  0  0  0  0  0  0  0
  187.6100  177.4430  142.9010 P   0  0  1  0  0  0  0  0  0  0  0  0
  187.6900  175.9520  143.1370 O   0  0  0  0  0  1  0  0  0  0  0  0
  188.1900  178.2700  144.2640 O   0  0  0  0  0  0  0  0  0  0  0  0
  188.1660  177.3390  145.3060 C   0  0  0  0  0  2  0  0  0  0  0  0
  187.4300  177.9200  146.5020 C   0  0  0  0  0  2  0  0  0  0  0  0
  187.8350  178.2470  148.8290 O   0  0  0  0  0  0  0  0  0  0  0  0
  189.4220  176.9620  147.7200 N   0  0  0  0  0  1  0  0  0  0  0  0
  188.2180  177.7210  147.7520 C   0  0  0  0  0  0  0  0  0  0  0  0
  191.4420  176.5330  142.9500 O   0  0  0  0  0  0  0  0  0  0  0  0
  191.5230  177.5000  143.9680 C   0  0  0  0  0  2  0  0  0  0  0  0
  191.6810  176.8070  145.3060 C   0  0  0  0  0  1  0  0  0  0  0  0
  187.8770  176.4240  138.2150 C   0  0  0  0  0  2  0  0  0  0  0  0
  186.7790  177.1920  137.4880 C   0  0  2  0  0  3  0  0  0  0  0  0
  186.0380  174.6240  137.0730 O   0  0  0  0  0  0  0  0  0  0  0  0
  185.8530  176.1740  135.1940 O   0  0  0  0  0  0  0  0  0  0  0  0
  185.6830  176.0310  136.6790 S   0  0  0  0  0  0  0  0  0  0  0  0
  184.0280  176.3590  137.0810 N   0  0  0  0  0  2  0  0  0  0  0  0
  183.9960  177.1020  138.3300 C   0  0  2  0  0  3  0  0  0  0  0  0
  182.0840  177.8130  139.7460 N   0  0  0  0  0  0  0  0  0  0  0  0
  182.7900  176.6610  139.1720 C   0  0  0  0  0  2  0  0  0  0  0  0
  183.9320  178.4800  138.0590 O   0  0  0  0  0  0  0  0  0  0  0  0
  184.1440  179.1240  139.2910 C   0  0  1  0  0  3  0  0  0  0  0  0
  184.2400  180.5010  139.0880 O   0  0  0  0  0  1  0  0  0  0  0  0
  183.0040  178.8270  140.2800 C   0  0  0  0  0  2  0  0  0  0  0  0
  179.8260  177.1770  140.6930 C   0  0  0  0  0  0  0  0  0  0  0  0
  181.2480  177.3600  140.7880 N   0  0  0  0  0  2  0  0  0  0  0  0
  179.0820  177.4240  139.4230 C   0  0  0  0  0  1  0  0  0  0  0  0
  179.1860  176.7970  141.7090 O   0  0  0  0  0  0  0  0  0  0  0  0
  187.2720  179.4740  136.9800 O   0  0  0  0  0  1  0  0  0  0  0  0
  187.3760  178.1740  136.4900 C   0  0  0  0  0  2  0  0  0  0  0  0
  2  1  1  0  0  0  0
  3  1  1  6  0  0  0
  3 12  1  0  0  0  0
  5 14  2  0  0  0  0
  6 16  1  0  0  0  0
  6  2  1  0  0  0  0
  7 10  1  0  0  0  0
  8 11  1  0  0  0  0
  9  7  1  0  0  0  0
  9  8  1  0  0  0  0
 10 11  1  0  0  0  0
 10 12  1  0  0  0  0
 11  4  1  0  0  0  0
 11 18  1  0  0  0  0
 12 26  1  0  0  0  0
 13  7  1  0  0  0  0
 13  3  1  0  0  0  0
 14 16  1  0  0  0  0
 15 14  1  0  0  0  0
 16 13  1  0  0  0  0
 17 18  2  0  0  0  0
 18 19  1  0  0  0  0
 18 20  1  0  0  0  0
 20 21  1  0  0  0  0
 21 22  1  0  0  0  0
 22 25  1  0  0  0  0
 24 25  1  0  0  0  0
 25 23  2  0  0  0  0
 26 27  1  0  0  0  0
 27 28  1  0  0  0  0
 29  9  1  0  0  0  0
 30 29  1  0  0  0  0
 32 33  2  0  0  0  0
 33 31  2  0  0  0  0
 33 34  1  0  0  0  0
 33 30  1  0  0  0  0
 34 35  1  0  0  0  0
 35 37  1  0  0  0  0
 36 41  1  0  0  0  0
 36 43  1  0  0  0  0
 37 36  1  0  0  0  0
 38 35  1  0  0  0  0
 38 39  1  0  0  0  0
 39 41  1  0  0  0  0
 40 39  1  0  0  0  0
 42 43  1  0  0  0  0
 42 45  2  0  0  0  0
 44 42  1  0  0  0  0
 47 46  1  0  0  0  0
 47 30  1  0  0  0  0
M  END
>  <MODEL>
9

>  <REMARK>
 VINA RESULT:      -6.6      2.544      7.559
  Name = 
  14 active torsions:
  status: ('A' for Active; 'I' for Inactive)
    1  A    between atoms: O_4  and  C_27
    2  A    between atoms: O_4  and  P_34
    3  A    between atoms: C_6  and  N_13
    4  A    between atoms: C_7  and  C_30
    5  A    between atoms: C_7  and  C_36
    6  A    between atoms: C_7  and  S_42
    7  A    between atoms: N_8  and  N_23
    8  A    between atoms: C_11  and  C_27
    9  A    between atoms: C_11  and  C_47
   10  A    between atoms: N_13  and  S_42
   11  A    between atoms: C_19  and  O_20
   12  A    between atoms: O_20  and  C_29
   13  A    between atoms: C_21  and  C_36
   14  A    between atoms: C_28  and  P_34
                            x       y       z     vdW  Elec       q    Type
                         _______ _______ _______ _____ _____    ______ ____

>  <TORSDO>
F 14

$$$$
