=
 OpenBabel11062415023D

 31 35  0  0  1  0  0  0  0  0999 V2000
  182.5050  179.0320  138.2200 C   0  0  0  0  0  0  0  0  0  0  0  0
  184.9630  179.3750  141.1530 C   0  0  1  0  0  3  0  0  0  0  0  0
  184.3240  178.8570  139.8690 C   0  0  0  0  0  0  0  0  0  0  0  0
  186.5690  178.1260  142.8700 C   0  0  1  0  0  3  0  0  0  0  0  0
  189.1710  176.9610  138.4400 N   0  0  0  0  0  0  0  0  0  0  0  0
  184.7580  177.5710  139.1700 C   0  0  1  0  0  3  0  0  0  0  0  0
  187.1380  177.7170  138.3460 C   0  0  0  0  0  0  0  0  0  0  0  0
  187.9610  176.9430  137.7270 N   0  0  0  0  0  0  0  0  0  0  0  0
  183.5080  176.8240  138.6740 C   0  0  2  0  0  3  0  0  0  0  0  0
  183.9560  179.3820  142.3060 C   0  0  0  0  0  2  0  0  0  0  0  0
  187.8170  178.2890  139.4870 C   0  0  0  0  0  0  0  0  0  0  0  0
  183.8530  175.6990  137.9220 O   0  0  0  0  0  1  0  0  0  0  0  0
  189.1080  177.7020  139.4730 N   0  0  0  0  0  0  0  0  0  0  0  0
  185.3840  178.1080  143.8420 C   0  0  0  0  0  2  0  0  0  0  0  0
  187.1600  178.5660  140.5680 C   0  0  0  0  0  0  0  0  0  0  0  0
  183.2950  179.5530  139.3550 C   0  0  0  0  0  3  0  0  0  0  0  0
  186.3140  178.7820  141.5310 C   0  0  0  0  0  0  0  0  0  0  0  0
  185.6930  177.8860  137.9830 C   0  0  0  0  0  2  0  0  0  0  0  0
  184.0500  178.1050  143.1200 C   0  0  0  0  0  2  0  0  0  0  0  0
  182.6220  177.7390  137.8720 C   0  0  0  0  0  3  0  0  0  0  0  0
  181.2810  181.1800  138.0450 C   0  0  0  0  0  1  0  0  0  0  0  0
  181.6480  179.9020  137.5390 O   0  0  0  0  0  0  0  0  0  0  0  0
  187.8670  178.5850  143.5620 C   0  0  0  0  0  2  0  0  0  0  0  0
  188.6930  176.1810  143.2490 C   0  0  0  0  0  2  0  0  0  0  0  0
  190.0630  175.7090  142.7950 C   0  0  0  0  0  2  0  0  0  0  0  0
  192.1150  176.8930  142.7210 O   0  0  0  0  0  0  0  0  0  0  0  0
  190.9390  176.8710  143.0430 C   0  0  0  0  0  0  0  0  0  0  0  0
  190.2720  178.0040  143.7170 C   0  0  0  0  0  2  0  0  0  0  0  0
  188.8660  177.5020  144.0130 C   0  0  1  0  0  0  0  0  0  0  0  0
  188.7630  177.2520  145.4580 C   0  0  0  0  0  0  0  0  0  0  0  0
  188.6870  177.0520  146.6450 C   0  0  0  0  0  3  0  0  0  0  0  0
  1 16  1  0  0  0  0
  2 17  1  0  0  0  0
  2 10  1  1  0  0  0
  3  2  1  0  0  0  0
  4 23  1  1  0  0  0
  4 14  1  0  0  0  0
  5 13  2  0  0  0  0
  6 18  1  6  0  0  0
  6  3  1  0  0  0  0
  7 11  1  0  0  0  0
  8  7  2  0  0  0  0
  8  5  1  0  0  0  0
  9 12  1  6  0  0  0
  9  6  1  0  0  0  0
 10 19  1  0  0  0  0
 11 15  2  0  0  0  0
 13 11  1  0  0  0  0
 15 17  2  0  0  0  0
 16  3  2  0  0  0  0
 17  4  1  0  0  0  0
 18  7  1  0  0  0  0
 19 14  1  0  0  0  0
 20  1  2  0  0  0  0
 20  9  1  0  0  0  0
 22 21  1  0  0  0  0
 22  1  1  0  0  0  0
 24 29  1  0  0  0  0
 25 27  1  0  0  0  0
 25 24  1  0  0  0  0
 26 27  2  0  0  0  0
 27 28  1  0  0  0  0
 28 29  1  0  0  0  0
 29 23  1  6  0  0  0
 29 30  1  0  0  0  0
 30 31  3  0  0  0  0
M  END
>  <MODEL>
1

>  <REMARK>
 VINA RESULT:      -7.3      0.000      0.000
  Name = 
  4 active torsions:
  status: ('A' for Active; 'I' for Inactive)
    1  A    between atoms: C_1  and  O_26
    2  A    between atoms: C_4  and  C_30
    3  A    between atoms: C_5  and  C_14
    4  A    between atoms: C_14  and  C_30
                            x       y       z     vdW  Elec       q    Type
                         _______ _______ _______ _____ _____    ______ ____

>  <TORSDO>
F 4

$$$$
=
 OpenBabel11062415023D

 31 35  0  0  1  0  0  0  0  0999 V2000
  180.8610  178.8410  140.2350 C   0  0  0  0  0  0  0  0  0  0  0  0
  184.2290  179.3000  142.0240 C   0  0  1  0  0  3  0  0  0  0  0  0
  183.1800  178.7680  141.0540 C   0  0  0  0  0  0  0  0  0  0  0  0
  186.4490  178.1380  142.9250 C   0  0  1  0  0  3  0  0  0  0  0  0
  187.2170  177.3170  137.7780 N   0  0  0  0  0  0  0  0  0  0  0  0
  183.3950  177.5420  140.1690 C   0  0  1  0  0  3  0  0  0  0  0  0
  185.2600  177.9070  138.5100 C   0  0  0  0  0  0  0  0  0  0  0  0
  185.8300  177.2210  137.5800 N   0  0  0  0  0  0  0  0  0  0  0  0
  182.1010  176.7110  140.1440 C   0  0  2  0  0  3  0  0  0  0  0  0
  183.7450  179.1910  143.4730 C   0  0  0  0  0  2  0  0  0  0  0  0
  186.2870  178.5000  139.3370 C   0  0  0  0  0  0  0  0  0  0  0  0
  182.2020  175.6390  139.2540 O   0  0  0  0  0  1  0  0  0  0  0  0
  187.5090  178.0210  138.7980 N   0  0  0  0  0  0  0  0  0  0  0  0
  185.7330  177.9960  144.2720 C   0  0  0  0  0  2  0  0  0  0  0  0
  186.0790  178.6900  140.6010 C   0  0  0  0  0  0  0  0  0  0  0  0
  181.9900  179.3920  141.0120 C   0  0  0  0  0  3  0  0  0  0  0  0
  185.6570  178.8090  141.8240 C   0  0  0  0  0  0  0  0  0  0  0  0
  183.7790  177.9670  138.7360 C   0  0  0  0  0  2  0  0  0  0  0  0
  184.2270  177.9040  144.1150 C   0  0  0  0  0  2  0  0  0  0  0  0
  180.9180  177.5730  139.7950 C   0  0  0  0  0  3  0  0  0  0  0  0
  179.8540  181.0650  139.8030 C   0  0  0  0  0  1  0  0  0  0  0  0
  179.7540  179.6580  139.9840 O   0  0  0  0  0  0  0  0  0  0  0  0
  187.8810  178.6820  143.0950 C   0  0  0  0  0  2  0  0  0  0  0  0
  188.8190  176.2990  143.1380 C   0  0  0  0  0  2  0  0  0  0  0  0
  190.1950  175.8220  142.7090 C   0  0  0  0  0  2  0  0  0  0  0  0
  192.1790  177.0700  142.3590 O   0  0  0  0  0  0  0  0  0  0  0  0
  191.0170  177.0470  142.7300 C   0  0  0  0  0  0  0  0  0  0  0  0
  190.3160  178.2440  143.2390 C   0  0  0  0  0  2  0  0  0  0  0  0
  188.9490  177.7330  143.6720 C   0  0  1  0  0  0  0  0  0  0  0  0
  188.9090  177.7180  145.1410 C   0  0  0  0  0  0  0  0  0  0  0  0
  188.8690  177.7100  146.3470 C   0  0  0  0  0  3  0  0  0  0  0  0
  1 16  1  0  0  0  0
  2 10  1  1  0  0  0
  3  2  1  0  0  0  0
  4 23  1  1  0  0  0
  4 14  1  0  0  0  0
  5 13  2  0  0  0  0
  6 18  1  6  0  0  0
  6  3  1  0  0  0  0
  7 18  1  0  0  0  0
  7 11  1  0  0  0  0
  8  5  1  0  0  0  0
  8  7  2  0  0  0  0
  9 12  1  6  0  0  0
  9  6  1  0  0  0  0
 10 19  1  0  0  0  0
 11 15  2  0  0  0  0
 13 11  1  0  0  0  0
 15 17  2  0  0  0  0
 16  3  2  0  0  0  0
 17  2  1  0  0  0  0
 17  4  1  0  0  0  0
 19 14  1  0  0  0  0
 20  9  1  0  0  0  0
 20  1  2  0  0  0  0
 21 22  1  0  0  0  0
 22  1  1  0  0  0  0
 24 29  1  0  0  0  0
 25 27  1  0  0  0  0
 25 24  1  0  0  0  0
 26 27  2  0  0  0  0
 27 28  1  0  0  0  0
 28 29  1  0  0  0  0
 29 23  1  6  0  0  0
 29 30  1  0  0  0  0
 30 31  3  0  0  0  0
M  END
>  <MODEL>
2

>  <REMARK>
 VINA RESULT:      -6.7      1.446      1.577
  Name = 
  4 active torsions:
  status: ('A' for Active; 'I' for Inactive)
    1  A    between atoms: C_1  and  O_26
    2  A    between atoms: C_4  and  C_30
    3  A    between atoms: C_5  and  C_14
    4  A    between atoms: C_14  and  C_30
                            x       y       z     vdW  Elec       q    Type
                         _______ _______ _______ _____ _____    ______ ____

>  <TORSDO>
F 4

$$$$
=
 OpenBabel11062415023D

 31 35  0  0  1  0  0  0  0  0999 V2000
  182.7040  179.1670  138.4040 C   0  0  0  0  0  0  0  0  0  0  0  0
  185.5400  179.2930  140.9910 C   0  0  1  0  0  3  0  0  0  0  0  0
  184.7150  178.8540  139.7870 C   0  0  0  0  0  0  0  0  0  0  0  0
  187.3050  177.9120  142.4310 C   0  0  1  0  0  3  0  0  0  0  0  0
  189.2440  176.8370  137.6520 N   0  0  0  0  0  0  0  0  0  0  0  0
  184.9970  177.5820  138.9890 C   0  0  1  0  0  3  0  0  0  0  0  0
  187.2500  177.6730  137.8590 C   0  0  0  0  0  0  0  0  0  0  0  0
  187.9500  176.8950  137.1070 N   0  0  0  0  0  0  0  0  0  0  0  0
  183.6610  176.9060  138.6380 C   0  0  2  0  0  3  0  0  0  0  0  0
  184.6960  179.2890  142.2690 C   0  0  0  0  0  2  0  0  0  0  0  0
  188.0990  178.1700  138.9190 C   0  0  0  0  0  0  0  0  0  0  0  0
  183.8540  175.8010  137.8060 O   0  0  0  0  0  1  0  0  0  0  0  0
  189.3510  177.5360  138.7110 N   0  0  0  0  0  0  0  0  0  0  0  0
  186.2600  177.8980  143.5520 C   0  0  0  0  0  2  0  0  0  0  0  0
  187.6030  178.4250  140.0880 C   0  0  0  0  0  0  0  0  0  0  0  0
  183.6580  179.6090  139.4410 C   0  0  0  0  0  3  0  0  0  0  0  0
  186.9030  178.6330  141.1630 C   0  0  0  0  0  0  0  0  0  0  0  0
  185.7790  177.9120  137.7000 C   0  0  0  0  0  2  0  0  0  0  0  0
  184.8420  177.9760  143.0160 C   0  0  0  0  0  2  0  0  0  0  0  0
  182.7170  177.8870  137.9970 C   0  0  0  0  0  3  0  0  0  0  0  0
  181.7530  181.4540  138.3020 C   0  0  0  0  0  1  0  0  0  0  0  0
  181.8030  180.0970  137.8770 O   0  0  0  0  0  0  0  0  0  0  0  0
  188.7010  178.2910  142.9580 C   0  0  0  0  0  2  0  0  0  0  0  0
  190.3090  178.2000  144.9500 C   0  0  0  0  0  2  0  0  0  0  0  0
  189.9850  177.9250  146.4080 C   0  0  0  0  0  2  0  0  0  0  0  0
  188.0460  176.9520  147.3620 O   0  0  0  0  0  0  0  0  0  0  0  0
  188.6720  177.2550  146.3600 C   0  0  0  0  0  0  0  0  0  0  0  0
  188.1780  176.9780  144.9940 C   0  0  0  0  0  2  0  0  0  0  0  0
  189.3090  177.4260  144.0790 C   0  0  1  0  0  0  0  0  0  0  0  0
  189.9580  176.2260  143.5320 C   0  0  0  0  0  0  0  0  0  0  0  0
  190.4950  175.2400  143.0900 C   0  0  0  0  0  3  0  0  0  0  0  0
  1 16  1  0  0  0  0
  2 17  1  0  0  0  0
  2 10  1  1  0  0  0
  3  2  1  0  0  0  0
  4 23  1  1  0  0  0
  4 14  1  0  0  0  0
  5 13  2  0  0  0  0
  6 18  1  6  0  0  0
  6  3  1  0  0  0  0
  7 11  1  0  0  0  0
  8  5  1  0  0  0  0
  8  7  2  0  0  0  0
  9 12  1  6  0  0  0
  9  6  1  0  0  0  0
 10 19  1  0  0  0  0
 11 15  2  0  0  0  0
 13 11  1  0  0  0  0
 15 17  2  0  0  0  0
 16  3  2  0  0  0  0
 17  4  1  0  0  0  0
 18  7  1  0  0  0  0
 19 14  1  0  0  0  0
 20  1  2  0  0  0  0
 20  9  1  0  0  0  0
 22 21  1  0  0  0  0
 22  1  1  0  0  0  0
 24 25  1  0  0  0  0
 27 25  1  0  0  0  0
 27 26  2  0  0  0  0
 28 27  1  0  0  0  0
 29 23  1  6  0  0  0
 29 24  1  0  0  0  0
 29 28  1  0  0  0  0
 30 29  1  0  0  0  0
 31 30  3  0  0  0  0
M  END
>  <MODEL>
3

>  <REMARK>
 VINA RESULT:      -6.6      1.305      1.996
  Name = 
  4 active torsions:
  status: ('A' for Active; 'I' for Inactive)
    1  A    between atoms: C_1  and  O_26
    2  A    between atoms: C_4  and  C_30
    3  A    between atoms: C_5  and  C_14
    4  A    between atoms: C_14  and  C_30
                            x       y       z     vdW  Elec       q    Type
                         _______ _______ _______ _____ _____    ______ ____

>  <TORSDO>
F 4

$$$$
=
 OpenBabel11062415023D

 31 35  0  0  1  0  0  0  0  0999 V2000
  191.3060  177.2130  145.6680 C   0  0  0  0  0  0  0  0  0  0  0  0
  187.6590  176.8960  144.5030 C   0  0  1  0  0  3  0  0  0  0  0  0
  189.1270  177.3090  144.5290 C   0  0  0  0  0  0  0  0  0  0  0  0
  185.5850  178.0840  143.3280 C   0  0  1  0  0  3  0  0  0  0  0  0
  188.8360  177.9960  139.1830 N   0  0  0  0  0  0  0  0  0  0  0  0
  189.7250  178.3580  143.5940 C   0  0  1  0  0  3  0  0  0  0  0  0
  189.6040  177.6320  141.1810 C   0  0  0  0  0  0  0  0  0  0  0  0
  189.9420  178.1240  140.0400 N   0  0  0  0  0  0  0  0  0  0  0  0
  190.7060  179.2350  144.3900 C   0  0  2  0  0  3  0  0  0  0  0  0
  186.9590  177.2690  145.8130 C   0  0  0  0  0  2  0  0  0  0  0  0
  188.2490  177.1360  141.0840 C   0  0  0  0  0  0  0  0  0  0  0  0
  191.3720  180.1370  143.5560 O   0  0  0  0  0  1  0  0  0  0  0  0
  187.8380  177.4590  139.7640 N   0  0  0  0  0  0  0  0  0  0  0  0
  185.1200  178.4840  144.7330 C   0  0  0  0  0  2  0  0  0  0  0  0
  187.4650  177.1700  142.1130 C   0  0  0  0  0  0  0  0  0  0  0  0
  189.9210  176.7450  145.4560 C   0  0  0  0  0  3  0  0  0  0  0  0
  186.8640  177.2770  143.2610 C   0  0  0  0  0  0  0  0  0  0  0  0
  190.4550  177.6820  142.4150 C   0  0  0  0  0  2  0  0  0  0  0  0
  186.2790  178.6210  145.7030 C   0  0  0  0  0  2  0  0  0  0  0  0
  191.6950  178.3850  145.1400 C   0  0  0  0  0  3  0  0  0  0  0  0
  191.8190  175.8560  147.6790 C   0  0  0  0  0  1  0  0  0  0  0  0
  192.1770  176.4200  146.4220 O   0  0  0  0  0  0  0  0  0  0  0  0
  184.4300  177.5080  142.4880 C   0  0  0  0  0  2  0  0  0  0  0  0
  184.8230  179.4760  140.8960 C   0  0  0  0  0  2  0  0  0  0  0  0
  184.8580  179.4650  139.3780 C   0  0  0  0  0  2  0  0  0  0  0  0
  184.0490  177.8300  137.8650 O   0  0  0  0  0  0  0  0  0  0  0  0
  184.1490  178.2230  139.0160 C   0  0  0  0  0  0  0  0  0  0  0  0
  183.5690  177.4940  140.1630 C   0  0  0  0  0  2  0  0  0  0  0  0
  183.8470  178.3870  141.3650 C   0  0  1  0  0  0  0  0  0  0  0  0
  182.5790  179.0070  141.7780 C   0  0  0  0  0  0  0  0  0  0  0  0
  181.5350  179.5080  142.1150 C   0  0  0  0  0  3  0  0  0  0  0  0
  1 22  1  0  0  0  0
  2  3  1  0  0  0  0
  2 10  1  1  0  0  0
  3 16  2  0  0  0  0
  4 23  1  1  0  0  0
  4 14  1  0  0  0  0
  5 13  2  0  0  0  0
  5  8  1  0  0  0  0
  6 18  1  6  0  0  0
  6  9  1  0  0  0  0
  6  3  1  0  0  0  0
  7 18  1  0  0  0  0
  8  7  2  0  0  0  0
  9 12  1  6  0  0  0
  9 20  1  0  0  0  0
 11  7  1  0  0  0  0
 11 15  2  0  0  0  0
 13 11  1  0  0  0  0
 14 19  1  0  0  0  0
 15 17  2  0  0  0  0
 16  1  1  0  0  0  0
 17  4  1  0  0  0  0
 17  2  1  0  0  0  0
 19 10  1  0  0  0  0
 20  1  2  0  0  0  0
 22 21  1  0  0  0  0
 24 29  1  0  0  0  0
 25 24  1  0  0  0  0
 26 27  2  0  0  0  0
 27 25  1  0  0  0  0
 27 28  1  0  0  0  0
 28 29  1  0  0  0  0
 29 30  1  1  0  0  0
 29 23  1  0  0  0  0
 30 31  3  0  0  0  0
M  END
>  <MODEL>
4

>  <REMARK>
 VINA RESULT:      -6.2      1.868      7.427
  Name = 
  4 active torsions:
  status: ('A' for Active; 'I' for Inactive)
    1  A    between atoms: C_1  and  O_26
    2  A    between atoms: C_4  and  C_30
    3  A    between atoms: C_5  and  C_14
    4  A    between atoms: C_14  and  C_30
                            x       y       z     vdW  Elec       q    Type
                         _______ _______ _______ _____ _____    ______ ____

>  <TORSDO>
F 4

$$$$
=
 OpenBabel11062415023D

 31 35  0  0  1  0  0  0  0  0999 V2000
  189.8990  176.9640  145.8970 C   0  0  0  0  0  0  0  0  0  0  0  0
  186.7860  177.6160  143.7430 C   0  0  1  0  0  3  0  0  0  0  0  0
  188.2430  177.6000  144.1910 C   0  0  0  0  0  0  0  0  0  0  0  0
  185.5500  179.2670  142.0570 C   0  0  1  0  0  3  0  0  0  0  0  0
  189.6540  178.0190  138.9980 N   0  0  0  0  0  0  0  0  0  0  0  0
  189.3510  178.3810  143.4880 C   0  0  1  0  0  3  0  0  0  0  0  0
  189.7010  177.5750  141.1230 C   0  0  0  0  0  0  0  0  0  0  0  0
  190.4680  177.8830  140.1350 N   0  0  0  0  0  0  0  0  0  0  0  0
  190.2830  178.9930  144.5480 C   0  0  2  0  0  3  0  0  0  0  0  0
  185.8880  178.2490  144.8090 C   0  0  0  0  0  2  0  0  0  0  0  0
  188.3430  177.4750  140.6350 C   0  0  0  0  0  0  0  0  0  0  0  0
  191.3830  179.6190  143.9570 O   0  0  0  0  0  1  0  0  0  0  0  0
  188.4240  177.8200  139.2610 N   0  0  0  0  0  0  0  0  0  0  0  0
  184.8490  179.8650  143.2820 C   0  0  0  0  0  2  0  0  0  0  0  0
  187.3480  177.7900  141.4020 C   0  0  0  0  0  0  0  0  0  0  0  0
  188.5530  176.8920  145.2910 C   0  0  0  0  0  3  0  0  0  0  0  0
  186.5100  178.1300  142.3350 C   0  0  0  0  0  0  0  0  0  0  0  0
  190.1530  177.4570  142.5470 C   0  0  0  0  0  2  0  0  0  0  0  0
  185.6820  179.7290  144.5430 C   0  0  0  0  0  2  0  0  0  0  0  0
  190.7380  177.9450  145.5280 C   0  0  0  0  0  3  0  0  0  0  0  0
  191.5870  175.8680  147.3440 C   0  0  0  0  0  1  0  0  0  0  0  0
  190.2610  176.0050  146.8480 O   0  0  0  0  0  0  0  0  0  0  0  0
  184.5580  178.9900  140.9110 C   0  0  0  0  0  2  0  0  0  0  0  0
  183.0520  178.0790  142.7720 C   0  0  0  0  0  2  0  0  0  0  0  0
  181.7220  178.6260  143.2580 C   0  0  0  0  0  2  0  0  0  0  0  0
  180.2440  180.1480  142.2010 O   0  0  0  0  0  0  0  0  0  0  0  0
  181.2560  179.4700  142.1410 C   0  0  0  0  0  0  0  0  0  0  0  0
  182.1180  179.4230  140.9410 C   0  0  0  0  0  2  0  0  0  0  0  0
  183.1860  178.3910  141.2750 C   0  0  1  0  0  0  0  0  0  0  0  0
  182.9100  177.1770  140.4920 C   0  0  0  0  0  0  0  0  0  0  0  0
  182.6810  176.1870  139.8430 C   0  0  0  0  0  3  0  0  0  0  0  0
  1 22  1  0  0  0  0
  2  3  1  0  0  0  0
  2 10  1  1  0  0  0
  3 16  2  0  0  0  0
  4 23  1  6  0  0  0
  4 17  1  0  0  0  0
  4 14  1  0  0  0  0
  5 13  2  0  0  0  0
  5  8  1  0  0  0  0
  6 18  1  6  0  0  0
  6  3  1  0  0  0  0
  6  9  1  0  0  0  0
  7 18  1  0  0  0  0
  8  7  2  0  0  0  0
  9 12  1  6  0  0  0
  9 20  1  0  0  0  0
 11  7  1  0  0  0  0
 11 15  2  0  0  0  0
 13 11  1  0  0  0  0
 14 19  1  0  0  0  0
 15 17  2  0  0  0  0
 16  1  1  0  0  0  0
 17  2  1  0  0  0  0
 19 10  1  0  0  0  0
 20  1  2  0  0  0  0
 22 21  1  0  0  0  0
 23 29  1  0  0  0  0
 24 25  1  0  0  0  0
 27 26  2  0  0  0  0
 27 25  1  0  0  0  0
 28 29  1  0  0  0  0
 28 27  1  0  0  0  0
 29 30  1  6  0  0  0
 29 24  1  0  0  0  0
 31 30  3  0  0  0  0
M  END
>  <MODEL>
5

>  <REMARK>
 VINA RESULT:      -6.1      2.333      7.484
  Name = 
  4 active torsions:
  status: ('A' for Active; 'I' for Inactive)
    1  A    between atoms: C_1  and  O_26
    2  A    between atoms: C_4  and  C_30
    3  A    between atoms: C_5  and  C_14
    4  A    between atoms: C_14  and  C_30
                            x       y       z     vdW  Elec       q    Type
                         _______ _______ _______ _____ _____    ______ ____

>  <TORSDO>
F 4

$$$$
=
 OpenBabel11062415023D

 31 35  0  0  1  0  0  0  0  0999 V2000
  180.9550  178.3400  139.9700 C   0  0  0  0  0  0  0  0  0  0  0  0
  184.4330  179.1650  141.3770 C   0  0  1  0  0  3  0  0  0  0  0  0
  183.3420  178.4980  140.5460 C   0  0  0  0  0  0  0  0  0  0  0  0
  186.8230  178.2350  142.0960 C   0  0  1  0  0  3  0  0  0  0  0  0
  187.1420  177.1970  136.9410 N   0  0  0  0  0  0  0  0  0  0  0  0
  183.5710  177.2470  139.7020 C   0  0  1  0  0  3  0  0  0  0  0  0
  185.2240  177.6670  137.8430 C   0  0  0  0  0  0  0  0  0  0  0  0
  185.7550  176.9790  136.8920 N   0  0  0  0  0  0  0  0  0  0  0  0
  182.3570  176.3140  139.8500 C   0  0  2  0  0  3  0  0  0  0  0  0
  184.1060  179.0970  142.8720 C   0  0  0  0  0  2  0  0  0  0  0  0
  186.2740  178.3850  138.5310 C   0  0  0  0  0  0  0  0  0  0  0  0
  182.4600  175.2070  139.0050 O   0  0  0  0  0  1  0  0  0  0  0  0
  187.4730  177.9770  137.8910 N   0  0  0  0  0  0  0  0  0  0  0  0
  186.2590  178.1100  143.5160 C   0  0  0  0  0  2  0  0  0  0  0  0
  186.1780  178.6280  139.7990 C   0  0  0  0  0  0  0  0  0  0  0  0
  182.1050  179.0220  140.5990 C   0  0  0  0  0  3  0  0  0  0  0  0
  185.8700  178.7800  141.0530 C   0  0  0  0  0  0  0  0  0  0  0  0
  183.7730  177.6210  138.2190 C   0  0  0  0  0  2  0  0  0  0  0  0
  184.7570  177.8900  143.5190 C   0  0  0  0  0  2  0  0  0  0  0  0
  181.0760  177.0580  139.5860 C   0  0  0  0  0  3  0  0  0  0  0  0
  179.5080  180.3010  140.4250 C   0  0  0  0  0  1  0  0  0  0  0  0
  179.7630  179.0500  139.7970 O   0  0  0  0  0  0  0  0  0  0  0  0
  188.2120  178.9000  142.0910 C   0  0  0  0  0  2  0  0  0  0  0  0
  190.5120  178.8820  143.2190 C   0  0  0  0  0  2  0  0  0  0  0  0
  190.9300  178.1630  144.4890 C   0  0  0  0  0  2  0  0  0  0  0  0
  189.8670  176.3780  145.6280 O   0  0  0  0  0  0  0  0  0  0  0  0
  189.9060  177.1140  144.6570 C   0  0  0  0  0  0  0  0  0  0  0  0
  188.9330  177.0290  143.5480 C   0  0  0  0  0  2  0  0  0  0  0  0
  189.4200  178.0500  142.5300 C   0  0  1  0  0  0  0  0  0  0  0  0
  190.0000  177.3220  141.3920 C   0  0  0  0  0  0  0  0  0  0  0  0
  190.4750  176.7320  140.4540 C   0  0  0  0  0  3  0  0  0  0  0  0
  1 16  1  0  0  0  0
  2 10  1  1  0  0  0
  3 16  2  0  0  0  0
  3  2  1  0  0  0  0
  4 23  1  1  0  0  0
  4 14  1  0  0  0  0
  5 13  2  0  0  0  0
  6 18  1  6  0  0  0
  6  9  1  0  0  0  0
  6  3  1  0  0  0  0
  7 18  1  0  0  0  0
  7 11  1  0  0  0  0
  8  5  1  0  0  0  0
  8  7  2  0  0  0  0
  9 12  1  6  0  0  0
 10 19  1  0  0  0  0
 11 15  2  0  0  0  0
 13 11  1  0  0  0  0
 14 19  1  0  0  0  0
 15 17  2  0  0  0  0
 17  2  1  0  0  0  0
 17  4  1  0  0  0  0
 20  9  1  0  0  0  0
 20  1  2  0  0  0  0
 22  1  1  0  0  0  0
 22 21  1  0  0  0  0
 23 29  1  0  0  0  0
 24 25  1  0  0  0  0
 25 27  1  0  0  0  0
 27 26  2  0  0  0  0
 28 27  1  0  0  0  0
 29 30  1  6  0  0  0
 29 24  1  0  0  0  0
 29 28  1  0  0  0  0
 31 30  3  0  0  0  0
M  END
>  <MODEL>
6

>  <REMARK>
 VINA RESULT:      -6.0      1.713      2.425
  Name = 
  4 active torsions:
  status: ('A' for Active; 'I' for Inactive)
    1  A    between atoms: C_1  and  O_26
    2  A    between atoms: C_4  and  C_30
    3  A    between atoms: C_5  and  C_14
    4  A    between atoms: C_14  and  C_30
                            x       y       z     vdW  Elec       q    Type
                         _______ _______ _______ _____ _____    ______ ____

>  <TORSDO>
F 4

$$$$
=
 OpenBabel11062415023D

 31 35  0  0  1  0  0  0  0  0999 V2000
  182.1060  179.0150  139.3180 C   0  0  0  0  0  0  0  0  0  0  0  0
  185.6530  179.1860  140.7820 C   0  0  1  0  0  3  0  0  0  0  0  0
  184.4720  178.7300  139.9340 C   0  0  0  0  0  0  0  0  0  0  0  0
  187.8180  177.8320  141.5400 C   0  0  1  0  0  3  0  0  0  0  0  0
  188.0220  176.7350  136.3920 N   0  0  0  0  0  0  0  0  0  0  0  0
  184.4780  177.4550  139.0930 C   0  0  1  0  0  3  0  0  0  0  0  0
  186.2100  177.5560  137.2620 C   0  0  0  0  0  0  0  0  0  0  0  0
  186.6200  176.7780  136.3200 N   0  0  0  0  0  0  0  0  0  0  0  0
  183.1100  176.7640  139.2220 C   0  0  2  0  0  3  0  0  0  0  0  0
  185.2960  179.1850  142.2710 C   0  0  0  0  0  2  0  0  0  0  0  0
  187.3640  178.0690  137.9670 C   0  0  0  0  0  0  0  0  0  0  0  0
  183.0200  175.6540  138.3790 O   0  0  0  0  0  1  0  0  0  0  0  0
  188.4760  177.4430  137.3470 N   0  0  0  0  0  0  0  0  0  0  0  0
  187.2180  177.8190  142.9510 C   0  0  0  0  0  2  0  0  0  0  0  0
  187.2940  178.3290  139.2330 C   0  0  0  0  0  0  0  0  0  0  0  0
  183.3520  179.4740  139.9660 C   0  0  0  0  0  3  0  0  0  0  0  0
  186.9990  178.5400  140.4820 C   0  0  0  0  0  0  0  0  0  0  0  0
  184.7700  177.7810  137.6140 C   0  0  0  0  0  2  0  0  0  0  0  0
  185.7010  177.8800  142.9300 C   0  0  0  0  0  2  0  0  0  0  0  0
  181.9930  177.7320  138.9370 C   0  0  0  0  0  3  0  0  0  0  0  0
  179.7480  179.7230  139.6110 C   0  0  0  0  0  1  0  0  0  0  0  0
  181.0690  179.9330  139.1260 O   0  0  0  0  0  0  0  0  0  0  0  0
  189.3060  178.2280  141.5580 C   0  0  0  0  0  2  0  0  0  0  0  0
  190.1590  176.4540  139.9190 C   0  0  0  0  0  2  0  0  0  0  0  0
  191.5110  176.3820  139.2310 C   0  0  0  0  0  2  0  0  0  0  0  0
  193.5320  177.4990  139.7620 O   0  0  0  0  0  0  0  0  0  0  0  0
  192.3760  177.2450  140.0580 C   0  0  0  0  0  0  0  0  0  0  0  0
  191.7260  177.7740  141.2750 C   0  0  0  0  0  2  0  0  0  0  0  0
  190.3490  177.1260  141.2870 C   0  0  1  0  0  0  0  0  0  0  0  0
  190.3320  176.1060  142.3450 C   0  0  0  0  0  0  0  0  0  0  0  0
  190.3190  175.2740  143.2190 C   0  0  0  0  0  3  0  0  0  0  0  0
  1 16  1  0  0  0  0
  2 10  1  1  0  0  0
  3 16  2  0  0  0  0
  3  2  1  0  0  0  0
  4 23  1  1  0  0  0
  4 14  1  0  0  0  0
  5 13  2  0  0  0  0
  6 18  1  6  0  0  0
  6  9  1  0  0  0  0
  6  3  1  0  0  0  0
  7 18  1  0  0  0  0
  7 11  1  0  0  0  0
  8  5  1  0  0  0  0
  8  7  2  0  0  0  0
  9 12  1  6  0  0  0
 10 19  1  0  0  0  0
 11 15  2  0  0  0  0
 13 11  1  0  0  0  0
 15 17  2  0  0  0  0
 17  2  1  0  0  0  0
 17  4  1  0  0  0  0
 19 14  1  0  0  0  0
 20  9  1  0  0  0  0
 20  1  2  0  0  0  0
 22  1  1  0  0  0  0
 22 21  1  0  0  0  0
 24 29  1  0  0  0  0
 25 24  1  0  0  0  0
 25 27  1  0  0  0  0
 26 27  2  0  0  0  0
 27 28  1  0  0  0  0
 28 29  1  0  0  0  0
 29 23  1  1  0  0  0
 29 30  1  0  0  0  0
 30 31  3  0  0  0  0
M  END
>  <MODEL>
7

>  <REMARK>
 VINA RESULT:      -6.0      1.699      2.250
  Name = 
  4 active torsions:
  status: ('A' for Active; 'I' for Inactive)
    1  A    between atoms: C_1  and  O_26
    2  A    between atoms: C_4  and  C_30
    3  A    between atoms: C_5  and  C_14
    4  A    between atoms: C_14  and  C_30
                            x       y       z     vdW  Elec       q    Type
                         _______ _______ _______ _____ _____    ______ ____

>  <TORSDO>
F 4

$$$$
=
 OpenBabel11062415023D

 31 35  0  0  1  0  0  0  0  0999 V2000
  190.5290  177.6040  142.8080 C   0  0  0  0  0  0  0  0  0  0  0  0
  187.8790  178.7880  140.2930 C   0  0  1  0  0  3  0  0  0  0  0  0
  188.5010  178.1180  141.5120 C   0  0  0  0  0  0  0  0  0  0  0  0
  185.5960  178.2360  139.0360 C   0  0  1  0  0  3  0  0  0  0  0  0
  183.6970  178.4950  143.9430 N   0  0  0  0  0  0  0  0  0  0  0  0
  187.7390  177.1690  142.4350 C   0  0  1  0  0  3  0  0  0  0  0  0
  185.8360  178.3380  143.6070 C   0  0  0  0  0  0  0  0  0  0  0  0
  184.9150  178.0120  144.4470 N   0  0  0  0  0  0  0  0  0  0  0  0
  188.6590  175.9960  142.8150 C   0  0  2  0  0  3  0  0  0  0  0  0
  188.5490  178.3130  139.0000 C   0  0  0  0  0  2  0  0  0  0  0  0
  185.2280  179.0810  142.5260 C   0  0  0  0  0  0  0  0  0  0  0  0
  188.0510  175.1580  143.7540 O   0  0  0  0  0  1  0  0  0  0  0  0
  183.8410  179.0880  142.8250 N   0  0  0  0  0  0  0  0  0  0  0  0
  186.4530  177.6740  137.8960 C   0  0  0  0  0  2  0  0  0  0  0  0
  185.7080  179.0010  141.3260 C   0  0  0  0  0  0  0  0  0  0  0  0
  189.8030  178.3470  141.7580 C   0  0  0  0  0  3  0  0  0  0  0  0
  186.3570  178.7940  140.2190 C   0  0  0  0  0  0  0  0  0  0  0  0
  187.2690  177.9070  143.7050 C   0  0  0  0  0  2  0  0  0  0  0  0
  187.7900  177.1520  138.3860 C   0  0  0  0  0  2  0  0  0  0  0  0
  189.9780  176.4980  143.3360 C   0  0  0  0  0  3  0  0  0  0  0  0
  191.9470  179.0090  144.2780 C   0  0  0  0  0  1  0  0  0  0  0  0
  191.7810  178.0710  143.2210 O   0  0  0  0  0  0  0  0  0  0  0  0
  184.4800  179.1570  138.5100 C   0  0  0  0  0  2  0  0  0  0  0  0
  182.8360  177.5390  139.6240 C   0  0  0  0  0  2  0  0  0  0  0  0
  181.5990  177.8700  140.4390 C   0  0  0  0  0  2  0  0  0  0  0  0
  180.3780  179.8960  140.5690 O   0  0  0  0  0  0  0  0  0  0  0  0
  181.2760  179.2560  140.0500 C   0  0  0  0  0  0  0  0  0  0  0  0
  182.1330  179.8030  138.9770 C   0  0  0  0  0  2  0  0  0  0  0  0
  183.0290  178.6410  138.5720 C   0  0  1  0  0  0  0  0  0  0  0  0
  182.5820  178.1530  137.2590 C   0  0  0  0  0  0  0  0  0  0  0  0
  182.2090  177.7480  136.1860 C   0  0  0  0  0  3  0  0  0  0  0  0
  1 22  1  0  0  0  0
  1 20  2  0  0  0  0
  2 10  1  6  0  0  0
  2  3  1  0  0  0  0
  3 16  2  0  0  0  0
  3  6  1  0  0  0  0
  4 23  1  6  0  0  0
  4 17  1  0  0  0  0
  5  8  1  0  0  0  0
  6  9  1  0  0  0  0
  6 18  1  1  0  0  0
  7 18  1  0  0  0  0
  7  8  2  0  0  0  0
  9 20  1  0  0  0  0
  9 12  1  1  0  0  0
 11 13  1  0  0  0  0
 11  7  1  0  0  0  0
 13  5  2  0  0  0  0
 14 19  1  0  0  0  0
 14  4  1  0  0  0  0
 15 11  2  0  0  0  0
 16  1  1  0  0  0  0
 17  2  1  0  0  0  0
 17 15  2  0  0  0  0
 19 10  1  0  0  0  0
 22 21  1  0  0  0  0
 23 29  1  0  0  0  0
 24 25  1  0  0  0  0
 27 25  1  0  0  0  0
 27 26  2  0  0  0  0
 28 27  1  0  0  0  0
 29 30  1  6  0  0  0
 29 28  1  0  0  0  0
 29 24  1  0  0  0  0
 31 30  3  0  0  0  0
M  END
>  <MODEL>
8

>  <REMARK>
 VINA RESULT:      -5.7      2.750      7.778
  Name = 
  4 active torsions:
  status: ('A' for Active; 'I' for Inactive)
    1  A    between atoms: C_1  and  O_26
    2  A    between atoms: C_4  and  C_30
    3  A    between atoms: C_5  and  C_14
    4  A    between atoms: C_14  and  C_30
                            x       y       z     vdW  Elec       q    Type
                         _______ _______ _______ _____ _____    ______ ____

>  <TORSDO>
F 4

$$$$
=
 OpenBabel11062415023D

 31 35  0  0  1  0  0  0  0  0999 V2000
  189.8290  178.4930  143.2790 C   0  0  0  0  0  0  0  0  0  0  0  0
  188.2860  178.5170  139.7610 C   0  0  1  0  0  3  0  0  0  0  0  0
  188.4290  178.3040  141.2640 C   0  0  0  0  0  0  0  0  0  0  0  0
  186.6970  177.2820  138.0170 C   0  0  1  0  0  3  0  0  0  0  0  0
  183.0460  178.4970  141.6160 N   0  0  0  0  0  0  0  0  0  0  0  0
  187.4260  177.5160  142.1030 C   0  0  1  0  0  3  0  0  0  0  0  0
  185.1560  178.6160  142.1170 C   0  0  0  0  0  0  0  0  0  0  0  0
  184.0030  178.3730  142.6380 N   0  0  0  0  0  0  0  0  0  0  0  0
  188.1930  176.6540  143.1210 C   0  0  2  0  0  3  0  0  0  0  0  0
  189.4270  177.8400  138.9970 C   0  0  0  0  0  2  0  0  0  0  0  0
  184.9690  178.9380  140.7200 C   0  0  0  0  0  0  0  0  0  0  0  0
  187.3190  176.0020  143.9950 O   0  0  0  0  0  1  0  0  0  0  0  0
  183.5750  178.7920  140.4960 N   0  0  0  0  0  0  0  0  0  0  0  0
  187.9560  176.5920  137.4800 C   0  0  0  0  0  2  0  0  0  0  0  0
  185.8770  178.6280  139.8500 C   0  0  0  0  0  0  0  0  0  0  0  0
  189.5220  178.8030  141.8670 C   0  0  0  0  0  3  0  0  0  0  0  0
  186.9120  178.2500  139.1610 C   0  0  0  0  0  0  0  0  0  0  0  0
  186.4620  178.4720  142.8380 C   0  0  0  0  0  2  0  0  0  0  0  0
  189.0290  176.4480  138.5420 C   0  0  0  0  0  2  0  0  0  0  0  0
  189.1800  177.4880  143.8910 C   0  0  0  0  0  3  0  0  0  0  0  0
  192.0550  178.7280  144.3430 C   0  0  0  0  0  1  0  0  0  0  0  0
  190.7970  179.2550  143.9410 O   0  0  0  0  0  0  0  0  0  0  0  0
  185.8180  177.8340  136.8790 C   0  0  0  0  0  2  0  0  0  0  0  0
  184.5210  176.7360  134.9630 C   0  0  0  0  0  2  0  0  0  0  0  0
  184.1970  175.2650  134.7680 C   0  0  0  0  0  2  0  0  0  0  0  0
  184.2480  173.4910  136.3390 O   0  0  0  0  0  0  0  0  0  0  0  0
  184.3500  174.6860  136.1170 C   0  0  0  0  0  0  0  0  0  0  0  0
  184.6360  175.6760  137.1760 C   0  0  0  0  0  2  0  0  0  0  0  0
  184.5730  177.0230  136.4700 C   0  0  1  0  0  0  0  0  0  0  0  0
  183.3370  177.7010  136.8860 C   0  0  0  0  0  0  0  0  0  0  0  0
  182.3220  178.2610  137.2190 C   0  0  0  0  0  3  0  0  0  0  0  0
  1 20  2  0  0  0  0
  1 22  1  0  0  0  0
  2 10  1  6  0  0  0
  2  3  1  0  0  0  0
  3 16  2  0  0  0  0
  3  6  1  0  0  0  0
  4 23  1  6  0  0  0
  4 17  1  0  0  0  0
  5  8  1  0  0  0  0
  6 18  1  1  0  0  0
  6  9  1  0  0  0  0
  7  8  2  0  0  0  0
  7 18  1  0  0  0  0
  9 20  1  0  0  0  0
  9 12  1  1  0  0  0
 11  7  1  0  0  0  0
 13 11  1  0  0  0  0
 13  5  2  0  0  0  0
 14  4  1  0  0  0  0
 14 19  1  0  0  0  0
 15 11  2  0  0  0  0
 16  1  1  0  0  0  0
 17  2  1  0  0  0  0
 17 15  2  0  0  0  0
 19 10  1  0  0  0  0
 22 21  1  0  0  0  0
 24 29  1  0  0  0  0
 25 24  1  0  0  0  0
 25 27  1  0  0  0  0
 27 26  2  0  0  0  0
 27 28  1  0  0  0  0
 29 23  1  1  0  0  0
 29 30  1  0  0  0  0
 29 28  1  0  0  0  0
 30 31  3  0  0  0  0
M  END
>  <MODEL>
9

>  <REMARK>
 VINA RESULT:      -5.6      2.756      7.657
  Name = 
  4 active torsions:
  status: ('A' for Active; 'I' for Inactive)
    1  A    between atoms: C_1  and  O_26
    2  A    between atoms: C_4  and  C_30
    3  A    between atoms: C_5  and  C_14
    4  A    between atoms: C_14  and  C_30
                            x       y       z     vdW  Elec       q    Type
                         _______ _______ _______ _____ _____    ______ ____

>  <TORSDO>
F 4

$$$$
