=
 OpenBabel11062418083D

 25 27  0  0  1  0  0  0  0  0999 V2000
  187.3030  177.0860  144.7710 C   0  0  1  0  0  3  0  0  0  0  0  0
  188.6480  177.1280  144.0920 C   0  0  1  0  0  3  0  0  0  0  0  0
  189.6160  176.9820  145.2230 C   0  0  2  0  0  3  0  0  0  0  0  0
  189.0660  177.9100  146.2770 C   0  0  0  0  0  2  0  0  0  0  0  0
  187.5490  177.7790  146.1160 C   0  0  0  0  0  2  0  0  0  0  0  0
  191.4390  176.4550  143.4950 C   0  0  2  0  0  3  0  0  0  0  0  0
  191.8700  175.1920  143.9020 O   0  0  0  0  0  1  0  0  0  0  0  0
  190.9930  177.2480  144.6980 C   0  0  0  0  0  0  0  0  0  0  0  0
  191.7590  178.0120  145.2630 O   0  0  0  0  0  0  0  0  0  0  0  0
  188.9240  176.0460  143.0590 C   0  0  0  0  0  2  0  0  0  0  0  0
  190.3150  176.3060  142.4410 C   0  0  1  0  0  3  0  0  0  0  0  0
  190.2720  177.4470  141.6330 O   0  0  0  0  0  0  0  0  0  0  0  0
  187.7660  178.0780  138.8760 C   0  0  0  0  0  2  0  0  0  0  0  0
  188.1010  175.9110  137.8900 O   0  0  0  0  0  1  0  0  0  0  0  0
  190.6720  177.4920  138.7610 O   0  0  0  0  0  0  0  0  0  0  0  0
  188.4110  177.2640  137.7430 C   0  0  2  0  0  3  0  0  0  0  0  0
  189.9320  177.4500  137.5580 C   0  0  0  0  0  2  0  0  0  0  0  0
  189.4480  177.1010  140.5590 C   0  0  1  0  0  3  0  0  0  0  0  0
  188.6430  178.3320  140.1060 C   0  0  0  0  0  2  0  0  0  0  0  0
  190.2210  176.5110  139.5300 O   0  0  0  0  0  0  0  0  0  0  0  0
  186.2810  177.8580  143.9490 C   0  0  0  0  0  2  0  0  0  0  0  0
  185.6590  178.9850  144.7630 C   0  0  0  0  0  2  0  0  0  0  0  0
  184.1730  178.8780  144.7620 C   0  0  0  0  0  0  0  0  0  0  0  0
  183.4950  178.6110  143.5800 O   0  0  0  0  0  0  0  0  0  0  0  0
  183.5270  179.0620  145.8270 O   0  0  0  0  0  1  0  0  0  0  0  0
  1 21  1  6  0  0  0
  1  5  1  0  0  0  0
  2 10  1  6  0  0  0
  2  1  1  0  0  0  0
  2  3  1  0  0  0  0
  3  4  1  1  0  0  0
  5  4  1  0  0  0  0
  6  7  1  1  0  0  0
  6  8  1  0  0  0  0
  8  3  1  0  0  0  0
  8  9  2  0  0  0  0
 11 12  1  1  0  0  0
 11 10  1  0  0  0  0
 11  6  1  0  0  0  0
 13 19  1  0  0  0  0
 15 20  1  0  0  0  0
 16 14  1  1  0  0  0
 16 13  1  0  0  0  0
 17 16  1  0  0  0  0
 17 15  1  0  0  0  0
 18 12  1  1  0  0  0
 19 18  1  0  0  0  0
 20 18  1  0  0  0  0
 21 22  1  0  0  0  0
 23 22  1  0  0  0  0
 23 25  1  0  0  0  0
 24 23  2  0  0  0  0
M  END
>  <MODEL>
1

>  <REMARK>
 VINA RESULT:      -8.7      0.000      0.000
  Name = 
  5 active torsions:
  status: ('A' for Active; 'I' for Inactive)
    1  A    between atoms: C_1  and  C_2
    2  A    between atoms: C_2  and  C_19
    3  A    between atoms: O_5  and  C_16
    4  A    between atoms: O_5  and  C_24
    5  A    between atoms: C_7  and  C_19
                            x       y       z     vdW  Elec       q    Type
                         _______ _______ _______ _____ _____    ______ ____

>  <TORSDO>
F 5

$$$$
=
 OpenBabel11062418083D

 25 27  0  0  1  0  0  0  0  0999 V2000
  187.2320  177.0980  144.9250 C   0  0  1  0  0  3  0  0  0  0  0  0
  188.5420  177.1600  144.1820 C   0  0  1  0  0  3  0  0  0  0  0  0
  189.5650  177.0080  145.2630 C   0  0  2  0  0  3  0  0  0  0  0  0
  189.0580  177.9180  146.3550 C   0  0  0  0  0  2  0  0  0  0  0  0
  187.5370  177.7760  146.2650 C   0  0  0  0  0  2  0  0  0  0  0  0
  191.3060  176.5180  143.4430 C   0  0  2  0  0  3  0  0  0  0  0  0
  191.7670  175.2540  143.8130 O   0  0  0  0  0  1  0  0  0  0  0  0
  190.9120  177.2930  144.6770 C   0  0  0  0  0  0  0  0  0  0  0  0
  191.6990  178.0560  145.2140 O   0  0  0  0  0  0  0  0  0  0  0  0
  188.7770  176.0940  143.1230 C   0  0  0  0  0  2  0  0  0  0  0  0
  190.1350  176.3730  142.4430 C   0  0  1  0  0  3  0  0  0  0  0  0
  190.0430  177.5240  141.6530 O   0  0  0  0  0  0  0  0  0  0  0  0
  188.3590  177.9680  138.2990 C   0  0  0  0  0  2  0  0  0  0  0  0
  188.6060  175.6490  137.7150 O   0  0  0  0  0  1  0  0  0  0  0  0
  191.1000  177.0710  138.9900 O   0  0  0  0  0  0  0  0  0  0  0  0
  189.1270  176.9220  137.4770 C   0  0  2  0  0  3  0  0  0  0  0  0
  190.6610  176.9160  137.6560 C   0  0  0  0  0  2  0  0  0  0  0  0
  189.4500  177.1010  140.4610 C   0  0  1  0  0  3  0  0  0  0  0  0
  188.9530  178.3210  139.6670 C   0  0  0  0  0  2  0  0  0  0  0  0
  190.3500  176.2770  139.7420 O   0  0  0  0  0  0  0  0  0  0  0  0
  186.1660  177.8720  144.1630 C   0  0  0  0  0  2  0  0  0  0  0  0
  186.6380  178.2240  142.7600 C   0  0  0  0  0  2  0  0  0  0  0  0
  185.4830  178.5670  141.8840 C   0  0  0  0  0  0  0  0  0  0  0  0
  185.6570  179.4290  140.8090 O   0  0  0  0  0  0  0  0  0  0  0  0
  184.3400  178.1020  142.1350 O   0  0  0  0  0  1  0  0  0  0  0  0
  1 21  1  6  0  0  0
  1  5  1  0  0  0  0
  2 10  1  6  0  0  0
  2  1  1  0  0  0  0
  2  3  1  0  0  0  0
  3  4  1  1  0  0  0
  5  4  1  0  0  0  0
  6  7  1  1  0  0  0
  6  8  1  0  0  0  0
  8  9  2  0  0  0  0
  8  3  1  0  0  0  0
 11 12  1  1  0  0  0
 11 10  1  0  0  0  0
 11  6  1  0  0  0  0
 13 19  1  0  0  0  0
 15 20  1  0  0  0  0
 16 17  1  0  0  0  0
 16 14  1  1  0  0  0
 16 13  1  0  0  0  0
 17 15  1  0  0  0  0
 18 12  1  1  0  0  0
 19 18  1  0  0  0  0
 20 18  1  0  0  0  0
 22 21  1  0  0  0  0
 23 25  1  0  0  0  0
 23 22  1  0  0  0  0
 24 23  2  0  0  0  0
M  END
>  <MODEL>
2

>  <REMARK>
 VINA RESULT:      -8.4      1.081      1.380
  Name = 
  5 active torsions:
  status: ('A' for Active; 'I' for Inactive)
    1  A    between atoms: C_1  and  C_2
    2  A    between atoms: C_2  and  C_19
    3  A    between atoms: O_5  and  C_16
    4  A    between atoms: O_5  and  C_24
    5  A    between atoms: C_7  and  C_19
                            x       y       z     vdW  Elec       q    Type
                         _______ _______ _______ _____ _____    ______ ____

>  <TORSDO>
F 5

$$$$
=
 OpenBabel11062418083D

 25 27  0  0  1  0  0  0  0  0999 V2000
  185.1950  178.2190  144.3080 C   0  0  1  0  0  3  0  0  0  0  0  0
  186.5030  178.1880  145.0550 C   0  0  1  0  0  3  0  0  0  0  0  0
  186.0890  177.9930  146.4800 C   0  0  2  0  0  3  0  0  0  0  0  0
  184.9350  178.9510  146.6430 C   0  0  0  0  0  2  0  0  0  0  0  0
  184.2300  178.9010  145.2850 C   0  0  0  0  0  2  0  0  0  0  0  0
  188.5180  177.3670  147.0220 C   0  0  2  0  0  3  0  0  0  0  0  0
  188.3760  176.0830  147.5510 O   0  0  0  0  0  1  0  0  0  0  0  0
  187.2920  178.1850  147.3490 C   0  0  0  0  0  0  0  0  0  0  0  0
  187.2670  178.9080  148.3310 O   0  0  0  0  0  0  0  0  0  0  0  0
  187.4840  177.0910  144.6690 C   0  0  0  0  0  2  0  0  0  0  0  0
  188.7730  177.2750  145.4990 C   0  0  1  0  0  3  0  0  0  0  0  0
  189.4590  178.4160  145.0670 O   0  0  0  0  0  0  0  0  0  0  0  0
  190.8240  175.9110  142.5880 C   0  0  0  0  0  2  0  0  0  0  0  0
  191.9730  177.5960  141.3130 O   0  0  0  0  0  1  0  0  0  0  0  0
  189.0310  178.2420  142.2040 O   0  0  0  0  0  0  0  0  0  0  0  0
  190.8410  176.7790  141.3190 C   0  0  2  0  0  3  0  0  0  0  0  0
  189.5720  177.6170  141.0570 C   0  0  0  0  0  2  0  0  0  0  0  0
  190.2680  177.9770  144.0160 C   0  0  1  0  0  3  0  0  0  0  0  0
  190.0410  176.4740  143.7790 C   0  0  0  0  0  2  0  0  0  0  0  0
  190.0440  178.7780  142.8700 O   0  0  0  0  0  0  0  0  0  0  0  0
  185.3420  179.0430  143.0380 C   0  0  0  0  0  2  0  0  0  0  0  0
  184.7830  178.3000  141.8320 C   0  0  0  0  0  2  0  0  0  0  0  0
  185.2310  178.9390  140.5630 C   0  0  0  0  0  0  0  0  0  0  0  0
  186.4840  178.6460  140.0420 O   0  0  0  0  0  1  0  0  0  0  0  0
  184.4870  179.7700  139.9780 O   0  0  0  0  0  0  0  0  0  0  0  0
  1 21  1  6  0  0  0
  1  2  1  0  0  0  0
  1  5  1  0  0  0  0
  2 10  1  6  0  0  0
  2  3  1  0  0  0  0
  3  4  1  1  0  0  0
  3  8  1  0  0  0  0
  5  4  1  0  0  0  0
  6  8  1  0  0  0  0
  6  7  1  6  0  0  0
  8  9  2  0  0  0  0
 10 11  1  0  0  0  0
 11 12  1  6  0  0  0
 11  6  1  0  0  0  0
 13 19  1  0  0  0  0
 15 20  1  0  0  0  0
 16 14  1  1  0  0  0
 16 13  1  0  0  0  0
 17 16  1  0  0  0  0
 17 15  1  0  0  0  0
 18 12  1  1  0  0  0
 19 18  1  0  0  0  0
 20 18  1  0  0  0  0
 22 21  1  0  0  0  0
 23 22  1  0  0  0  0
 24 23  1  0  0  0  0
 25 23  2  0  0  0  0
M  END
>  <MODEL>
3

>  <REMARK>
 VINA RESULT:      -7.8      2.331      4.157
  Name = 
  5 active torsions:
  status: ('A' for Active; 'I' for Inactive)
    1  A    between atoms: C_1  and  C_2
    2  A    between atoms: C_2  and  C_19
    3  A    between atoms: O_5  and  C_16
    4  A    between atoms: O_5  and  C_24
    5  A    between atoms: C_7  and  C_19
                            x       y       z     vdW  Elec       q    Type
                         _______ _______ _______ _____ _____    ______ ____

>  <TORSDO>
F 5

$$$$
=
 OpenBabel11062418083D

 25 27  0  0  1  0  0  0  0  0999 V2000
  185.5080  178.0120  144.6300 C   0  0  1  0  0  3  0  0  0  0  0  0
  186.9400  177.9220  145.0910 C   0  0  1  0  0  3  0  0  0  0  0  0
  186.8320  177.9720  146.5830 C   0  0  2  0  0  3  0  0  0  0  0  0
  185.8330  179.0770  146.8250 C   0  0  0  0  0  2  0  0  0  0  0  0
  184.8470  178.9310  145.6640 C   0  0  0  0  0  2  0  0  0  0  0  0
  189.2530  177.1310  146.7110 C   0  0  2  0  0  3  0  0  0  0  0  0
  189.1150  175.9570  147.4530 O   0  0  0  0  0  1  0  0  0  0  0  0
  188.2090  178.1300  147.1480 C   0  0  0  0  0  0  0  0  0  0  0  0
  188.4650  178.9760  147.9890 O   0  0  0  0  0  0  0  0  0  0  0  0
  187.7080  176.6720  144.6910 C   0  0  0  0  0  2  0  0  0  0  0  0
  189.1590  176.8060  145.2020 C   0  0  1  0  0  3  0  0  0  0  0  0
  189.8340  177.7850  144.4650 O   0  0  0  0  0  0  0  0  0  0  0  0
  189.3220  178.0740  140.7320 C   0  0  0  0  0  2  0  0  0  0  0  0
  190.3550  175.9480  140.2900 O   0  0  0  0  0  1  0  0  0  0  0  0
  191.8050  177.8370  142.3380 O   0  0  0  0  0  0  0  0  0  0  0  0
  190.5710  177.3260  140.2370 C   0  0  2  0  0  3  0  0  0  0  0  0
  191.8980  177.6890  140.9360 C   0  0  0  0  0  2  0  0  0  0  0  0
  189.8110  177.3290  143.1450 C   0  0  1  0  0  3  0  0  0  0  0  0
  189.3060  178.4480  142.2180 C   0  0  0  0  0  2  0  0  0  0  0  0
  191.0830  176.8200  142.7900 O   0  0  0  0  0  0  0  0  0  0  0  0
  185.4460  178.6340  143.2430 C   0  0  0  0  0  2  0  0  0  0  0  0
  184.0650  178.4670  142.6260 C   0  0  0  0  0  2  0  0  0  0  0  0
  184.1050  178.7340  141.1600 C   0  0  0  0  0  0  0  0  0  0  0  0
  185.1020  179.5400  140.6270 O   0  0  0  0  0  1  0  0  0  0  0  0
  183.2170  178.2550  140.4080 O   0  0  0  0  0  0  0  0  0  0  0  0
  1 21  1  6  0  0  0
  1  2  1  0  0  0  0
  1  5  1  0  0  0  0
  2 10  1  1  0  0  0
  2  3  1  0  0  0  0
  3  4  1  6  0  0  0
  3  8  1  0  0  0  0
  5  4  1  0  0  0  0
  6  8  1  0  0  0  0
  6  7  1  1  0  0  0
  8  9  2  0  0  0  0
 10 11  1  0  0  0  0
 11 12  1  6  0  0  0
 11  6  1  0  0  0  0
 13 19  1  0  0  0  0
 15 20  1  0  0  0  0
 16 14  1  1  0  0  0
 16 13  1  0  0  0  0
 16 17  1  0  0  0  0
 17 15  1  0  0  0  0
 18 12  1  1  0  0  0
 19 18  1  0  0  0  0
 20 18  1  0  0  0  0
 22 21  1  0  0  0  0
 23 22  1  0  0  0  0
 24 23  1  0  0  0  0
 25 23  2  0  0  0  0
M  END
>  <MODEL>
4

>  <REMARK>
 VINA RESULT:      -7.6      2.138      3.330
  Name = 
  5 active torsions:
  status: ('A' for Active; 'I' for Inactive)
    1  A    between atoms: C_1  and  C_2
    2  A    between atoms: C_2  and  C_19
    3  A    between atoms: O_5  and  C_16
    4  A    between atoms: O_5  and  C_24
    5  A    between atoms: C_7  and  C_19
                            x       y       z     vdW  Elec       q    Type
                         _______ _______ _______ _____ _____    ______ ____

>  <TORSDO>
F 5

$$$$
=
 OpenBabel11062418083D

 25 27  0  0  1  0  0  0  0  0999 V2000
  184.9810  177.8920  143.5570 C   0  0  1  0  0  3  0  0  0  0  0  0
  186.0210  178.1430  144.6180 C   0  0  1  0  0  3  0  0  0  0  0  0
  185.2120  178.3720  145.8550 C   0  0  2  0  0  3  0  0  0  0  0  0
  184.1070  179.2870  145.3870 C   0  0  0  0  0  2  0  0  0  0  0  0
  183.8140  178.7980  143.9660 C   0  0  0  0  0  2  0  0  0  0  0  0
  187.3550  178.0400  147.2270 C   0  0  2  0  0  3  0  0  0  0  0  0
  187.0080  176.9730  148.0570 O   0  0  0  0  0  1  0  0  0  0  0  0
  186.1290  178.8680  146.9290 C   0  0  0  0  0  0  0  0  0  0  0  0
  185.8620  179.8540  147.5980 O   0  0  0  0  0  0  0  0  0  0  0  0
  187.0170  177.0220  144.8760 C   0  0  0  0  0  2  0  0  0  0  0  0
  188.0260  177.5020  145.9410 C   0  0  1  0  0  3  0  0  0  0  0  0
  188.8610  178.4850  145.3980 O   0  0  0  0  0  0  0  0  0  0  0  0
  191.3780  178.1180  142.6030 C   0  0  0  0  0  2  0  0  0  0  0  0
  190.5790  175.9340  141.9880 O   0  0  0  0  0  1  0  0  0  0  0  0
  190.9510  176.5040  145.0550 O   0  0  0  0  0  0  0  0  0  0  0  0
  191.6100  176.5990  142.6550 C   0  0  2  0  0  3  0  0  0  0  0  0
  191.8170  175.9950  144.0610 C   0  0  0  0  0  2  0  0  0  0  0  0
  189.4270  177.8960  144.2650 C   0  0  1  0  0  3  0  0  0  0  0  0
  190.6330  178.7270  143.7960 C   0  0  0  0  0  2  0  0  0  0  0  0
  189.7340  176.5390  144.5300 O   0  0  0  0  0  0  0  0  0  0  0  0
  185.5200  178.2970  142.1930 C   0  0  0  0  0  2  0  0  0  0  0  0
  184.3890  178.6000  141.2210 C   0  0  0  0  0  2  0  0  0  0  0  0
  184.9240  179.1240  139.9330 C   0  0  0  0  0  0  0  0  0  0  0  0
  186.0890  178.5940  139.3970 O   0  0  0  0  0  1  0  0  0  0  0  0
  184.3380  180.0700  139.3450 O   0  0  0  0  0  0  0  0  0  0  0  0
  1 21  1  6  0  0  0
  1  5  1  0  0  0  0
  1  2  1  0  0  0  0
  2 10  1  1  0  0  0
  2  3  1  0  0  0  0
  3  4  1  6  0  0  0
  3  8  1  0  0  0  0
  5  4  1  0  0  0  0
  6  7  1  1  0  0  0
  8  6  1  0  0  0  0
  8  9  2  0  0  0  0
 10 11  1  0  0  0  0
 11 12  1  6  0  0  0
 11  6  1  0  0  0  0
 13 16  1  0  0  0  0
 13 19  1  0  0  0  0
 16 14  1  1  0  0  0
 16 17  1  0  0  0  0
 17 15  1  0  0  0  0
 18 20  1  0  0  0  0
 18 12  1  1  0  0  0
 19 18  1  0  0  0  0
 20 15  1  0  0  0  0
 22 21  1  0  0  0  0
 23 22  1  0  0  0  0
 24 23  1  0  0  0  0
 25 23  2  0  0  0  0
M  END
>  <MODEL>
5

>  <REMARK>
 VINA RESULT:      -7.5      2.613      4.984
  Name = 
  5 active torsions:
  status: ('A' for Active; 'I' for Inactive)
    1  A    between atoms: C_1  and  C_2
    2  A    between atoms: C_2  and  C_19
    3  A    between atoms: O_5  and  C_16
    4  A    between atoms: O_5  and  C_24
    5  A    between atoms: C_7  and  C_19
                            x       y       z     vdW  Elec       q    Type
                         _______ _______ _______ _____ _____    ______ ____

>  <TORSDO>
F 5

$$$$
=
 OpenBabel11062418083D

 25 27  0  0  1  0  0  0  0  0999 V2000
  187.8130  176.7260  145.1040 C   0  0  1  0  0  3  0  0  0  0  0  0
  188.3250  177.4110  143.8630 C   0  0  1  0  0  3  0  0  0  0  0  0
  189.8080  177.4280  144.0580 C   0  0  2  0  0  3  0  0  0  0  0  0
  189.9670  177.8490  145.4980 C   0  0  0  0  0  2  0  0  0  0  0  0
  188.7820  177.1830  146.2010 C   0  0  0  0  0  2  0  0  0  0  0  0
  190.0540  177.9870  141.5660 C   0  0  2  0  0  3  0  0  0  0  0  0
  190.8430  176.9310  141.1070 O   0  0  0  0  0  1  0  0  0  0  0  0
  190.4110  178.2970  142.9990 C   0  0  0  0  0  0  0  0  0  0  0  0
  191.2210  179.1690  143.2670 O   0  0  0  0  0  0  0  0  0  0  0  0
  188.0070  176.7420  142.5340 C   0  0  0  0  0  2  0  0  0  0  0  0
  188.5580  177.6290  141.3970 C   0  0  1  0  0  3  0  0  0  0  0  0
  187.8020  178.8020  141.2980 O   0  0  0  0  0  0  0  0  0  0  0  0
  184.1260  178.9760  142.1610 C   0  0  0  0  0  2  0  0  0  0  0  0
  183.5370  177.2560  140.5870 O   0  0  0  0  0  1  0  0  0  0  0  0
  185.5440  179.4620  139.6010 O   0  0  0  0  0  0  0  0  0  0  0  0
  183.5180  178.6370  140.7910 C   0  0  2  0  0  3  0  0  0  0  0  0
  184.1340  179.3670  139.5780 C   0  0  0  0  0  2  0  0  0  0  0  0
  186.4710  178.3760  141.2880 C   0  0  1  0  0  3  0  0  0  0  0  0
  185.6220  179.3090  142.1700 C   0  0  0  0  0  2  0  0  0  0  0  0
  186.0090  178.2710  139.9540 O   0  0  0  0  0  0  0  0  0  0  0  0
  186.3980  177.1940  145.4100 C   0  0  0  0  0  2  0  0  0  0  0  0
  186.3270  178.7130  145.4960 C   0  0  0  0  0  2  0  0  0  0  0  0
  185.3130  179.1390  146.5010 C   0  0  0  0  0  0  0  0  0  0  0  0
  183.9590  178.9950  146.2260 O   0  0  0  0  0  0  0  0  0  0  0  0
  185.6800  179.6580  147.5870 O   0  0  0  0  0  1  0  0  0  0  0  0
  1 21  1  1  0  0  0
  1  5  1  0  0  0  0
  2 10  1  6  0  0  0
  2  3  1  0  0  0  0
  2  1  1  0  0  0  0
  3  4  1  1  0  0  0
  4  5  1  0  0  0  0
  6  7  1  1  0  0  0
  6  8  1  0  0  0  0
  8  9  2  0  0  0  0
  8  3  1  0  0  0  0
 11 12  1  1  0  0  0
 11  6  1  0  0  0  0
 11 10  1  0  0  0  0
 13 19  1  0  0  0  0
 15 20  1  0  0  0  0
 16 14  1  6  0  0  0
 16 13  1  0  0  0  0
 17 15  1  0  0  0  0
 17 16  1  0  0  0  0
 18 12  1  6  0  0  0
 18 19  1  0  0  0  0
 20 18  1  0  0  0  0
 21 22  1  0  0  0  0
 22 23  1  0  0  0  0
 23 25  1  0  0  0  0
 24 23  2  0  0  0  0
M  END
>  <MODEL>
6

>  <REMARK>
 VINA RESULT:      -7.5      2.349      3.365
  Name = 
  5 active torsions:
  status: ('A' for Active; 'I' for Inactive)
    1  A    between atoms: C_1  and  C_2
    2  A    between atoms: C_2  and  C_19
    3  A    between atoms: O_5  and  C_16
    4  A    between atoms: O_5  and  C_24
    5  A    between atoms: C_7  and  C_19
                            x       y       z     vdW  Elec       q    Type
                         _______ _______ _______ _____ _____    ______ ____

>  <TORSDO>
F 5

$$$$
=
 OpenBabel11062418083D

 25 27  0  0  1  0  0  0  0  0999 V2000
  184.7500  177.9970  143.2370 C   0  0  1  0  0  3  0  0  0  0  0  0
  185.8610  178.1590  144.2420 C   0  0  1  0  0  3  0  0  0  0  0  0
  185.1390  178.4830  145.5130 C   0  0  2  0  0  3  0  0  0  0  0  0
  184.1050  179.4930  145.0810 C   0  0  0  0  0  2  0  0  0  0  0  0
  183.6970  179.0160  143.6850 C   0  0  0  0  0  2  0  0  0  0  0  0
  187.3050  177.9630  146.7870 C   0  0  2  0  0  3  0  0  0  0  0  0
  186.8970  176.9460  147.6510 O   0  0  0  0  0  1  0  0  0  0  0  0
  186.1510  178.9020  146.5330 C   0  0  0  0  0  0  0  0  0  0  0  0
  186.0130  179.9170  147.1960 O   0  0  0  0  0  0  0  0  0  0  0  0
  186.7550  176.9510  144.4740 C   0  0  0  0  0  2  0  0  0  0  0  0
  187.8570  177.3450  145.4810 C   0  0  1  0  0  3  0  0  0  0  0  0
  188.7550  178.2350  144.8810 O   0  0  0  0  0  0  0  0  0  0  0  0
  189.5230  178.0010  141.1880 C   0  0  0  0  0  2  0  0  0  0  0  0
  190.5940  175.8600  141.4080 O   0  0  0  0  0  1  0  0  0  0  0  0
  191.3220  178.0440  143.5460 O   0  0  0  0  0  0  0  0  0  0  0  0
  190.8470  177.2230  141.2430 C   0  0  2  0  0  3  0  0  0  0  0  0
  191.8740  177.7090  142.2880 C   0  0  0  0  0  2  0  0  0  0  0  0
  189.1620  177.6030  143.7040 C   0  0  1  0  0  3  0  0  0  0  0  0
  189.0210  178.5740  142.5180 C   0  0  0  0  0  2  0  0  0  0  0  0
  190.4680  177.0810  143.8650 O   0  0  0  0  0  0  0  0  0  0  0  0
  185.2590  178.3290  141.8420 C   0  0  0  0  0  2  0  0  0  0  0  0
  184.1080  178.4720  140.8560 C   0  0  0  0  0  2  0  0  0  0  0  0
  184.5920  179.0100  139.5530 C   0  0  0  0  0  0  0  0  0  0  0  0
  185.3640  178.2160  138.7170 O   0  0  0  0  0  0  0  0  0  0  0  0
  184.3270  180.1960  139.2230 O   0  0  0  0  0  1  0  0  0  0  0  0
  1 21  1  6  0  0  0
  1  5  1  0  0  0  0
  1  2  1  0  0  0  0
  2 10  1  1  0  0  0
  2  3  1  0  0  0  0
  3  4  1  6  0  0  0
  3  8  1  0  0  0  0
  5  4  1  0  0  0  0
  6  7  1  1  0  0  0
  8  6  1  0  0  0  0
  8  9  2  0  0  0  0
 10 11  1  0  0  0  0
 11 12  1  6  0  0  0
 11  6  1  0  0  0  0
 13 16  1  0  0  0  0
 13 19  1  0  0  0  0
 15 20  1  0  0  0  0
 16 14  1  1  0  0  0
 16 17  1  0  0  0  0
 17 15  1  0  0  0  0
 18 20  1  0  0  0  0
 18 12  1  1  0  0  0
 19 18  1  0  0  0  0
 22 21  1  0  0  0  0
 23 22  1  0  0  0  0
 24 23  2  0  0  0  0
 25 23  1  0  0  0  0
M  END
>  <MODEL>
7

>  <REMARK>
 VINA RESULT:      -7.2      2.353      4.584
  Name = 
  5 active torsions:
  status: ('A' for Active; 'I' for Inactive)
    1  A    between atoms: C_1  and  C_2
    2  A    between atoms: C_2  and  C_19
    3  A    between atoms: O_5  and  C_16
    4  A    between atoms: O_5  and  C_24
    5  A    between atoms: C_7  and  C_19
                            x       y       z     vdW  Elec       q    Type
                         _______ _______ _______ _____ _____    ______ ____

>  <TORSDO>
F 5

$$$$
=
 OpenBabel11062418083D

 25 27  0  0  1  0  0  0  0  0999 V2000
  184.9260  179.0430  141.4840 C   0  0  1  0  0  3  0  0  0  0  0  0
  186.2020  178.4820  140.9100 C   0  0  1  0  0  3  0  0  0  0  0  0
  186.0120  178.6240  139.4320 C   0  0  2  0  0  3  0  0  0  0  0  0
  184.5950  178.1540  139.2140 C   0  0  0  0  0  2  0  0  0  0  0  0
  183.8570  178.6460  140.4610 C   0  0  0  0  0  2  0  0  0  0  0  0
  188.5300  178.2180  139.1470 C   0  0  2  0  0  3  0  0  0  0  0  0
  188.9390  179.3770  138.4860 O   0  0  0  0  0  1  0  0  0  0  0  0
  187.1150  177.8810  138.7450 C   0  0  0  0  0  0  0  0  0  0  0  0
  186.8930  177.0940  137.8390 O   0  0  0  0  0  0  0  0  0  0  0  0
  187.4950  179.1740  141.3130 C   0  0  0  0  0  2  0  0  0  0  0  0
  188.6760  178.4120  140.6750 C   0  0  1  0  0  3  0  0  0  0  0  0
  188.8300  177.1680  141.2960 O   0  0  0  0  0  0  0  0  0  0  0  0
  189.5080  176.9490  145.0070 C   0  0  0  0  0  2  0  0  0  0  0  0
  191.6790  177.9630  144.8080 O   0  0  0  0  0  1  0  0  0  0  0  0
  190.9390  175.7550  142.6990 O   0  0  0  0  0  0  0  0  0  0  0  0
  191.0300  176.7390  144.9850 C   0  0  2  0  0  3  0  0  0  0  0  0
  191.5550  175.7010  143.9690 C   0  0  0  0  0  2  0  0  0  0  0  0
  189.5190  177.4350  142.4810 C   0  0  1  0  0  3  0  0  0  0  0  0
  188.7850  176.7830  143.6660 C   0  0  0  0  0  2  0  0  0  0  0  0
  190.8710  177.0330  142.3530 O   0  0  0  0  0  0  0  0  0  0  0  0
  184.6390  178.4040  142.8350 C   0  0  0  0  0  2  0  0  0  0  0  0
  184.6000  179.4480  143.9420 C   0  0  0  0  0  2  0  0  0  0  0  0
  185.0760  178.8710  145.2300 C   0  0  0  0  0  0  0  0  0  0  0  0
  184.1800  178.6570  146.2690 O   0  0  0  0  0  1  0  0  0  0  0  0
  186.2960  178.6040  145.3900 O   0  0  0  0  0  0  0  0  0  0  0  0
  1 21  1  1  0  0  0
  2 10  1  1  0  0  0
  2  1  1  0  0  0  0
  3  4  1  6  0  0  0
  3  2  1  0  0  0  0
  4  5  1  0  0  0  0
  5  1  1  0  0  0  0
  6  7  1  6  0  0  0
  6 11  1  0  0  0  0
  8  6  1  0  0  0  0
  8  3  1  0  0  0  0
  9  8  2  0  0  0  0
 11 12  1  1  0  0  0
 11 10  1  0  0  0  0
 15 17  1  0  0  0  0
 16 14  1  6  0  0  0
 16 13  1  0  0  0  0
 17 16  1  0  0  0  0
 18 12  1  6  0  0  0
 18 19  1  0  0  0  0
 19 13  1  0  0  0  0
 20 18  1  0  0  0  0
 20 15  1  0  0  0  0
 21 22  1  0  0  0  0
 22 23  1  0  0  0  0
 23 25  2  0  0  0  0
 23 24  1  0  0  0  0
M  END
>  <MODEL>
8

>  <REMARK>
 VINA RESULT:      -7.2      1.863      5.403
  Name = 
  5 active torsions:
  status: ('A' for Active; 'I' for Inactive)
    1  A    between atoms: C_1  and  C_2
    2  A    between atoms: C_2  and  C_19
    3  A    between atoms: O_5  and  C_16
    4  A    between atoms: O_5  and  C_24
    5  A    between atoms: C_7  and  C_19
                            x       y       z     vdW  Elec       q    Type
                         _______ _______ _______ _____ _____    ______ ____

>  <TORSDO>
F 5

$$$$
=
 OpenBabel11062418083D

 25 27  0  0  1  0  0  0  0  0999 V2000
  187.5330  177.9200  137.8730 C   0  0  1  0  0  3  0  0  0  0  0  0
  188.6910  177.1620  138.4700 C   0  0  1  0  0  3  0  0  0  0  0  0
  189.2800  176.4420  137.2980 C   0  0  2  0  0  3  0  0  0  0  0  0
  188.0710  175.8990  136.5760 C   0  0  0  0  0  2  0  0  0  0  0  0
  187.0170  176.9920  136.7680 C   0  0  0  0  0  2  0  0  0  0  0  0
  191.3730  176.0030  138.7150 C   0  0  2  0  0  3  0  0  0  0  0  0
  192.3750  176.5970  137.9470 O   0  0  0  0  0  1  0  0  0  0  0  0
  190.2930  175.4660  137.8080 C   0  0  0  0  0  0  0  0  0  0  0  0
  190.3030  174.3010  137.4450 O   0  0  0  0  0  0  0  0  0  0  0  0
  189.7760  177.9900  139.1400 C   0  0  0  0  0  2  0  0  0  0  0  0
  190.8260  177.0270  139.7370 C   0  0  1  0  0  3  0  0  0  0  0  0
  190.2820  176.3530  140.8360 O   0  0  0  0  0  0  0  0  0  0  0  0
  189.0870  177.8820  144.0790 C   0  0  0  0  0  2  0  0  0  0  0  0
  190.9260  179.4280  144.1840 O   0  0  0  0  0  1  0  0  0  0  0  0
  191.6040  176.4590  143.4150 O   0  0  0  0  0  0  0  0  0  0  0  0
  190.4400  178.2340  144.7180 C   0  0  2  0  0  3  0  0  0  0  0  0
  191.5240  177.1360  144.6530 C   0  0  0  0  0  2  0  0  0  0  0  0
  190.2640  177.2940  141.8680 C   0  0  1  0  0  3  0  0  0  0  0  0
  189.1380  176.9540  142.8600 C   0  0  0  0  0  2  0  0  0  0  0  0
  191.5460  177.3800  142.4630 O   0  0  0  0  0  0  0  0  0  0  0  0
  186.4610  178.1460  138.9280 C   0  0  0  0  0  2  0  0  0  0  0  0
  185.0810  178.2580  138.2950 C   0  0  0  0  0  2  0  0  0  0  0  0
  184.1730  179.0770  139.1470 C   0  0  0  0  0  0  0  0  0  0  0  0
  183.2490  178.4560  139.9760 O   0  0  0  0  0  1  0  0  0  0  0  0
  184.2220  180.3340  139.0930 O   0  0  0  0  0  0  0  0  0  0  0  0
  1  2  1  0  0  0  0
  1 21  1  1  0  0  0
  2 10  1  6  0  0  0
  3  4  1  1  0  0  0
  3  8  1  0  0  0  0
  3  2  1  0  0  0  0
  4  5  1  0  0  0  0
  5  1  1  0  0  0  0
  6  7  1  6  0  0  0
  6 11  1  0  0  0  0
  8  6  1  0  0  0  0
  9  8  2  0  0  0  0
 10 11  1  0  0  0  0
 11 12  1  1  0  0  0
 13 16  1  0  0  0  0
 15 17  1  0  0  0  0
 16 14  1  6  0  0  0
 17 16  1  0  0  0  0
 18 12  1  6  0  0  0
 18 20  1  0  0  0  0
 18 19  1  0  0  0  0
 19 13  1  0  0  0  0
 20 15  1  0  0  0  0
 22 21  1  0  0  0  0
 22 23  1  0  0  0  0
 23 24  1  0  0  0  0
 25 23  2  0  0  0  0
M  END
>  <MODEL>
9

>  <REMARK>
 VINA RESULT:      -6.8      2.423      6.170
  Name = 
  5 active torsions:
  status: ('A' for Active; 'I' for Inactive)
    1  A    between atoms: C_1  and  C_2
    2  A    between atoms: C_2  and  C_19
    3  A    between atoms: O_5  and  C_16
    4  A    between atoms: O_5  and  C_24
    5  A    between atoms: C_7  and  C_19
                            x       y       z     vdW  Elec       q    Type
                         _______ _______ _______ _____ _____    ______ ____

>  <TORSDO>
F 5

$$$$
