=
 OpenBabel11062416293D

 46 51  0  0  1  0  0  0  0  0999 V2000
  187.5830  177.0910  138.1300 C   0  0  0  0  0  2  0  0  0  0  0  0
  188.9240  177.5190  137.5630 C   0  0  1  0  0  3  0  0  0  0  0  0
  188.7650  178.8830  136.9010 C   0  0  0  0  0  1  0  0  0  0  0  0
  190.0060  177.5960  138.6600 C   0  0  2  0  0  3  0  0  0  0  0  0
  190.9820  176.4520  138.6480 C   0  0  0  0  0  0  0  0  0  0  0  0
  192.2540  176.6720  138.7680 N   0  0  0  0  0  2  0  0  0  0  0  0
  190.5660  174.4780  137.2150 C   0  0  0  0  0  1  0  0  0  0  0  0
  190.4930  175.1570  138.4610 O   0  0  0  0  0  0  0  0  0  0  0  0
  189.4680  177.8130  140.0770 C   0  0  0  0  0  2  0  0  0  0  0  0
  190.0150  176.8510  141.0230 N   0  0  0  0  0  2  0  0  0  0  0  0
  189.4690  176.5630  142.3110 C   0  0  0  0  0  0  0  0  0  0  0  0
  189.8630  175.5190  142.9040 O   0  0  0  0  0  0  0  0  0  0  0  0
  187.2460  177.5280  142.3270 O   0  0  0  0  0  1  0  0  0  0  0  0
  188.4600  177.4420  143.0090 C   0  0  1  0  0  3  0  0  0  0  0  0
  188.2820  177.1280  144.5020 C   0  0  1  0  0  3  0  0  0  0  0  0
  190.3580  177.1850  145.7460 N   0  0  0  0  0  2  0  0  0  0  0  0
  189.2380  177.9840  145.3300 C   0  0  2  0  0  3  0  0  0  0  0  0
  189.3210  177.5140  146.5990 O   0  0  0  0  0  0  0  0  0  0  0  0
  186.8410  177.2470  145.0140 C   0  0  0  0  0  2  0  0  0  0  0  0
  184.5910  178.4050  146.7510 N   0  0  0  0  0  2  0  0  0  0  0  0
  186.0320  178.6370  146.7250 C   0  0  0  0  0  2  0  0  0  0  0  0
  184.1090  178.8160  145.4550 C   0  0  0  0  0  2  0  0  0  0  0  0
  186.4880  178.6280  145.3420 N   0  0  0  0  0  0  0  0  0  0  0  0
  185.3170  178.9420  144.5480 C   0  0  0  0  0  2  0  0  0  0  0  0
  186.6930  176.6200  137.0070 C   0  0  0  0  0  2  0  0  0  0  0  0
  182.1490  179.9620  138.7410 C   0  0  1  0  0  0  0  0  0  0  0  0
  181.4400  177.1380  139.3970 C   0  0  0  0  0  0  0  0  0  0  0  0
  185.2040  176.8610  137.2430 C   0  0  2  0  0  0  0  0  0  0  0  0
  183.6870  179.5660  140.7570 O   0  0  0  0  0  1  0  0  0  0  0  0
  184.5840  177.4190  135.9770 C   0  0  0  0  0  1  0  0  0  0  0  0
  182.1190  174.8710  137.8730 C   0  0  0  0  0  3  0  0  0  0  0  0
  183.3640  179.3710  139.4000 C   0  0  1  0  0  0  0  0  0  0  0  0
  182.7620  177.0070  138.8400 C   0  0  0  0  0  0  0  0  0  0  0  0
  181.1570  179.6990  139.8250 C   0  0  0  0  0  0  0  0  0  0  0  0
  183.0890  175.8350  138.1330 C   0  0  0  0  0  0  0  0  0  0  0  0
  183.7340  178.0930  138.8270 N   0  0  0  0  0  0  0  0  0  0  0  0
  180.4620  180.6020  140.2760 O   0  0  0  0  0  0  0  0  0  0  0  0
  180.8270  175.0240  138.3790 C   0  0  0  0  0  3  0  0  0  0  0  0
  183.4370  180.5580  138.7050 O   0  0  0  0  0  0  0  0  0  0  0  0
  180.5020  176.1340  139.1510 C   0  0  0  0  0  3  0  0  0  0  0  0
  180.9550  178.2600  140.3160 C   0  0  2  0  0  3  0  0  0  0  0  0
  181.7720  179.4530  137.3570 C   0  0  0  0  0  1  0  0  0  0  0  0
  185.1070  177.8950  138.3570 C   0  0  0  0  0  2  0  0  0  0  0  0
  184.4930  175.5800  137.6850 C   0  0  0  0  0  2  0  0  0  0  0  0
  181.4660  178.0980  141.5960 O   0  0  0  0  0  0  0  0  0  0  0  0
  180.3760  178.2900  142.4340 C   0  0  0  0  0  1  0  0  0  0  0  0
  2  3  1  1  0  0  0
  2  1  1  0  0  0  0
  2  4  1  0  0  0  0
  4  9  1  1  0  0  0
  5  4  1  0  0  0  0
  5  6  2  0  0  0  0
  7  8  1  0  0  0  0
  8  5  1  0  0  0  0
  9 10  1  0  0  0  0
 10 11  1  0  0  0  0
 11 12  2  0  0  0  0
 11 14  1  0  0  0  0
 14 13  1  6  0  0  0
 14 15  1  0  0  0  0
 15 19  1  1  0  0  0
 16 18  1  0  0  0  0
 17 15  1  6  0  0  0
 17 16  1  0  0  0  0
 17 18  1  0  0  0  0
 19 23  1  0  0  0  0
 21 20  1  0  0  0  0
 22 20  1  0  0  0  0
 23 21  1  0  0  0  0
 24 23  1  0  0  0  0
 24 22  1  0  0  0  0
 25 28  1  0  0  0  0
 25  1  1  0  0  0  0
 26 42  1  6  0  0  0
 26 32  1  0  0  0  0
 26 34  1  0  0  0  0
 27 41  1  0  0  0  0
 28 30  1  6  0  0  0
 28 44  1  0  0  0  0
 28 43  1  0  0  0  0
 31 35  2  0  0  0  0
 31 38  1  0  0  0  0
 32 29  1  1  0  0  0
 33 27  2  0  0  0  0
 34 37  2  0  0  0  0
 34 41  1  0  0  0  0
 35 33  1  0  0  0  0
 36 33  1  0  0  0  0
 36 32  1  0  0  0  0
 38 40  2  0  0  0  0
 39 26  1  0  0  0  0
 39 32  1  0  0  0  0
 40 27  1  0  0  0  0
 41 45  1  1  0  0  0
 43 36  1  0  0  0  0
 44 35  1  0  0  0  0
 45 46  1  0  0  0  0
M  END
>  <MODEL>
1

>  <REMARK>
 VINA RESULT:      -7.4      0.000      0.000
  Name = 
  14 active torsions:
  status: ('A' for Active; 'I' for Inactive)
    1  A    between atoms: C_2  and  C_29
    2  A    between atoms: C_2  and  C_30
    3  A    between atoms: C_6  and  C_12
    4  A    between atoms: C_6  and  O_31
    5  A    between atoms: N_7  and  C_15
    6  A    between atoms: C_8  and  C_29
    7  A    between atoms: C_11  and  C_35
    8  A    between atoms: C_12  and  C_15
    9  A    between atoms: C_12  and  C_30
   10  A    between atoms: C_17  and  C_21
   11  A    between atoms: C_17  and  N_45
   12  A    between atoms: C_21  and  C_35
   13  A    between atoms: C_21  and  C_41
   14  A    between atoms: O_28  and  C_38
                            x       y       z     vdW  Elec       q    Type
                         _______ _______ _______ _____ _____    ______ ____

>  <TORSDO>
F 14

$$$$
=
 OpenBabel11062416293D

 46 51  0  0  1  0  0  0  0  0999 V2000
  186.8930  176.8930  137.5420 C   0  0  0  0  0  2  0  0  0  0  0  0
  188.1920  176.7550  136.7700 C   0  0  1  0  0  3  0  0  0  0  0  0
  188.2220  177.8080  135.6670 C   0  0  0  0  0  1  0  0  0  0  0  0
  189.4200  176.9270  137.6870 C   0  0  2  0  0  3  0  0  0  0  0  0
  190.4910  175.8910  137.4880 C   0  0  0  0  0  0  0  0  0  0  0  0
  191.6560  176.2290  137.0320 N   0  0  0  0  0  2  0  0  0  0  0  0
  190.1650  173.5480  136.7590 C   0  0  0  0  0  1  0  0  0  0  0  0
  190.1880  174.5550  137.7620 O   0  0  0  0  0  0  0  0  0  0  0  0
  189.0930  177.0660  139.1760 C   0  0  0  0  0  2  0  0  0  0  0  0
  190.2140  177.6020  139.9340 N   0  0  0  0  0  2  0  0  0  0  0  0
  190.5950  177.1810  141.2460 C   0  0  0  0  0  0  0  0  0  0  0  0
  191.7390  177.5150  141.6680 O   0  0  0  0  0  0  0  0  0  0  0  0
  190.4000  175.4080  142.8850 O   0  0  0  0  0  1  0  0  0  0  0  0
  189.7050  176.3760  142.1600 C   0  0  1  0  0  3  0  0  0  0  0  0
  188.7760  177.2260  143.0400 C   0  0  1  0  0  3  0  0  0  0  0  0
  187.2080  178.6600  141.8820 N   0  0  0  0  0  2  0  0  0  0  0  0
  187.3980  177.3300  142.3910 C   0  0  2  0  0  3  0  0  0  0  0  0
  186.6250  178.2230  143.0560 O   0  0  0  0  0  0  0  0  0  0  0  0
  188.6740  176.7610  144.4980 C   0  0  0  0  0  2  0  0  0  0  0  0
  189.9680  176.6390  147.2790 N   0  0  0  0  0  2  0  0  0  0  0  0
  190.2840  177.4080  146.0790 C   0  0  0  0  0  2  0  0  0  0  0  0
  188.6400  177.0530  147.6660 C   0  0  0  0  0  2  0  0  0  0  0  0
  189.0430  177.8180  145.4380 N   0  0  0  0  0  0  0  0  0  0  0  0
  188.0410  177.7920  146.4850 C   0  0  0  0  0  2  0  0  0  0  0  0
  185.8160  176.0900  136.8550 C   0  0  0  0  0  2  0  0  0  0  0  0
  181.8930  180.0140  138.8650 C   0  0  1  0  0  0  0  0  0  0  0  0
  180.8760  177.3140  139.6280 C   0  0  0  0  0  0  0  0  0  0  0  0
  184.3930  176.5260  137.2000 C   0  0  2  0  0  0  0  0  0  0  0  0
  183.5190  179.4390  140.7660 O   0  0  0  0  0  1  0  0  0  0  0  0
  183.7550  177.1490  135.9740 C   0  0  0  0  0  1  0  0  0  0  0  0
  181.1350  174.9630  138.1020 C   0  0  0  0  0  3  0  0  0  0  0  0
  183.0680  179.2760  139.4420 C   0  0  1  0  0  0  0  0  0  0  0  0
  182.1230  177.0050  138.9750 C   0  0  0  0  0  0  0  0  0  0  0  0
  180.9630  179.8940  140.0270 C   0  0  0  0  0  0  0  0  0  0  0  0
  182.2390  175.7940  138.2680 C   0  0  0  0  0  0  0  0  0  0  0  0
  183.2230  177.9550  138.8660 N   0  0  0  0  0  0  0  0  0  0  0  0
  180.4270  180.8840  140.5110 O   0  0  0  0  0  0  0  0  0  0  0  0
  179.9170  175.2880  138.7010 C   0  0  0  0  0  3  0  0  0  0  0  0
  183.2400  180.4360  138.7200 O   0  0  0  0  0  0  0  0  0  0  0  0
  179.8000  176.4380  139.4740 C   0  0  0  0  0  3  0  0  0  0  0  0
  180.6140  178.4980  140.5590 C   0  0  2  0  0  3  0  0  0  0  0  0
  181.3460  179.5460  137.5240 C   0  0  0  0  0  1  0  0  0  0  0  0
  184.5190  177.5750  138.2970 C   0  0  0  0  0  2  0  0  0  0  0  0
  183.5590  175.3530  137.7190 C   0  0  0  0  0  2  0  0  0  0  0  0
  181.1980  178.2830  141.8000 O   0  0  0  0  0  0  0  0  0  0  0  0
  180.1350  178.2920  142.6930 C   0  0  0  0  0  1  0  0  0  0  0  0
  2  3  1  6  0  0  0
  2  1  1  0  0  0  0
  2  4  1  0  0  0  0
  4  9  1  1  0  0  0
  5  4  1  0  0  0  0
  5  8  1  0  0  0  0
  6  5  2  0  0  0  0
  7  8  1  0  0  0  0
  9 10  1  0  0  0  0
 10 11  1  0  0  0  0
 11 12  2  0  0  0  0
 11 14  1  0  0  0  0
 14 13  1  1  0  0  0
 14 15  1  0  0  0  0
 15 19  1  1  0  0  0
 16 17  1  0  0  0  0
 16 18  1  0  0  0  0
 17 15  1  1  0  0  0
 17 18  1  0  0  0  0
 19 23  1  0  0  0  0
 20 22  1  0  0  0  0
 21 20  1  0  0  0  0
 23 21  1  0  0  0  0
 23 24  1  0  0  0  0
 24 22  1  0  0  0  0
 25 28  1  0  0  0  0
 25  1  1  0  0  0  0
 26 42  1  6  0  0  0
 26 32  1  0  0  0  0
 26 34  1  0  0  0  0
 27 41  1  0  0  0  0
 28 30  1  6  0  0  0
 28 44  1  0  0  0  0
 28 43  1  0  0  0  0
 31 35  2  0  0  0  0
 31 38  1  0  0  0  0
 32 29  1  1  0  0  0
 33 27  2  0  0  0  0
 34 37  2  0  0  0  0
 34 41  1  0  0  0  0
 35 33  1  0  0  0  0
 36 33  1  0  0  0  0
 36 32  1  0  0  0  0
 38 40  2  0  0  0  0
 39 26  1  0  0  0  0
 39 32  1  0  0  0  0
 40 27  1  0  0  0  0
 41 45  1  1  0  0  0
 43 36  1  0  0  0  0
 44 35  1  0  0  0  0
 45 46  1  0  0  0  0
M  END
>  <MODEL>
2

>  <REMARK>
 VINA RESULT:      -7.3      1.600      2.210
  Name = 
  14 active torsions:
  status: ('A' for Active; 'I' for Inactive)
    1  A    between atoms: C_2  and  C_29
    2  A    between atoms: C_2  and  C_30
    3  A    between atoms: C_6  and  C_12
    4  A    between atoms: C_6  and  O_31
    5  A    between atoms: N_7  and  C_15
    6  A    between atoms: C_8  and  C_29
    7  A    between atoms: C_11  and  C_35
    8  A    between atoms: C_12  and  C_15
    9  A    between atoms: C_12  and  C_30
   10  A    between atoms: C_17  and  C_21
   11  A    between atoms: C_17  and  N_45
   12  A    between atoms: C_21  and  C_35
   13  A    between atoms: C_21  and  C_41
   14  A    between atoms: O_28  and  C_38
                            x       y       z     vdW  Elec       q    Type
                         _______ _______ _______ _____ _____    ______ ____

>  <TORSDO>
F 14

$$$$
=
 OpenBabel11062416293D

 46 51  0  0  1  0  0  0  0  0999 V2000
  188.2160  177.2740  138.2710 C   0  0  0  0  0  2  0  0  0  0  0  0
  189.4750  176.6100  137.7470 C   0  0  1  0  0  3  0  0  0  0  0  0
  189.6130  176.9210  136.2600 C   0  0  0  0  0  1  0  0  0  0  0  0
  190.7310  177.0980  138.4980 C   0  0  2  0  0  3  0  0  0  0  0  0
  191.9200  176.1860  138.3730 C   0  0  0  0  0  0  0  0  0  0  0  0
  193.1230  176.6580  138.4770 N   0  0  0  0  0  2  0  0  0  0  0  0
  192.5580  174.0670  137.2670 C   0  0  0  0  0  1  0  0  0  0  0  0
  191.7000  174.8340  138.0990 O   0  0  0  0  0  0  0  0  0  0  0  0
  190.4980  177.4600  139.9670 C   0  0  0  0  0  2  0  0  0  0  0  0
  190.6420  176.3060  140.8430 N   0  0  0  0  0  2  0  0  0  0  0  0
  190.2290  176.2560  142.2110 C   0  0  0  0  0  0  0  0  0  0  0  0
  190.1480  175.1220  142.7650 O   0  0  0  0  0  0  0  0  0  0  0  0
  188.7200  178.1040  142.6290 O   0  0  0  0  0  1  0  0  0  0  0  0
  189.8990  177.4770  143.0320 C   0  0  1  0  0  3  0  0  0  0  0  0
  189.9620  177.2480  144.5500 C   0  0  1  0  0  3  0  0  0  0  0  0
  191.8830  176.2570  145.6380 N   0  0  0  0  0  2  0  0  0  0  0  0
  191.3870  177.4710  145.0500 C   0  0  2  0  0  3  0  0  0  0  0  0
  191.4470  177.3270  146.3960 O   0  0  0  0  0  0  0  0  0  0  0  0
  188.9500  178.0650  145.3630 C   0  0  0  0  0  2  0  0  0  0  0  0
  185.9550  178.5040  145.8720 N   0  0  0  0  0  2  0  0  0  0  0  0
  186.7000  177.4030  145.2680 C   0  0  0  0  0  2  0  0  0  0  0  0
  186.4300  178.5930  147.2320 C   0  0  0  0  0  2  0  0  0  0  0  0
  187.9440  177.2150  145.9990 N   0  0  0  0  0  0  0  0  0  0  0  0
  187.7110  177.7840  147.3110 C   0  0  0  0  0  2  0  0  0  0  0  0
  187.4290  177.8370  137.1140 C   0  0  0  0  0  2  0  0  0  0  0  0
  181.5310  177.6720  136.9770 C   0  0  1  0  0  0  0  0  0  0  0  0
  182.4520  174.9280  137.7090 C   0  0  0  0  0  0  0  0  0  0  0  0
  186.1010  177.1290  136.8540 C   0  0  2  0  0  0  0  0  0  0  0  0
  182.2810  178.0760  139.3990 O   0  0  0  0  0  1  0  0  0  0  0  0
  185.7080  177.3270  135.4040 C   0  0  0  0  0  1  0  0  0  0  0  0
  184.7670  173.6530  136.7390 C   0  0  0  0  0  3  0  0  0  0  0  0
  182.5790  177.8550  138.0400 C   0  0  1  0  0  0  0  0  0  0  0  0
  183.6920  175.6560  137.6020 C   0  0  0  0  0  0  0  0  0  0  0  0
  180.6050  176.7750  137.7300 C   0  0  0  0  0  0  0  0  0  0  0  0
  184.8440  174.9740  137.1690 C   0  0  0  0  0  0  0  0  0  0  0  0
  183.7840  177.1010  137.7590 N   0  0  0  0  0  0  0  0  0  0  0  0
  179.4150  177.0460  137.8390 O   0  0  0  0  0  0  0  0  0  0  0  0
  183.5540  172.9650  136.8050 C   0  0  0  0  0  3  0  0  0  0  0  0
  182.1550  178.9130  137.2670 O   0  0  0  0  0  0  0  0  0  0  0  0
  182.4180  173.5920  137.3070 C   0  0  0  0  0  3  0  0  0  0  0  0
  181.1440  175.4570  138.2990 C   0  0  2  0  0  3  0  0  0  0  0  0
  181.9820  177.1680  135.6140 C   0  0  0  0  0  1  0  0  0  0  0  0
  185.0730  177.7980  137.7570 C   0  0  0  0  0  2  0  0  0  0  0  0
  186.1830  175.6410  137.2030 C   0  0  0  0  0  2  0  0  0  0  0  0
  181.2190  175.5100  139.6840 O   0  0  0  0  0  0  0  0  0  0  0  0
  180.1440  174.7500  140.1220 C   0  0  0  0  0  1  0  0  0  0  0  0
  2  3  1  6  0  0  0
  2  1  1  0  0  0  0
  2  4  1  0  0  0  0
  4  9  1  1  0  0  0
  5  6  2  0  0  0  0
  5  4  1  0  0  0  0
  7  8  1  0  0  0  0
  8  5  1  0  0  0  0
  9 10  1  0  0  0  0
 10 11  1  0  0  0  0
 11 12  2  0  0  0  0
 11 14  1  0  0  0  0
 14 13  1  1  0  0  0
 14 15  1  0  0  0  0
 15 19  1  1  0  0  0
 16 18  1  0  0  0  0
 17 15  1  1  0  0  0
 17 16  1  0  0  0  0
 17 18  1  0  0  0  0
 19 23  1  0  0  0  0
 20 22  1  0  0  0  0
 21 20  1  0  0  0  0
 21 23  1  0  0  0  0
 22 24  1  0  0  0  0
 23 24  1  0  0  0  0
 25  1  1  0  0  0  0
 26 42  1  6  0  0  0
 26 39  1  0  0  0  0
 26 34  1  0  0  0  0
 26 32  1  0  0  0  0
 27 41  1  0  0  0  0
 28 30  1  6  0  0  0
 28 25  1  0  0  0  0
 28 44  1  0  0  0  0
 28 43  1  0  0  0  0
 31 38  2  0  0  0  0
 31 35  1  0  0  0  0
 32 29  1  1  0  0  0
 33 27  1  0  0  0  0
 33 36  1  0  0  0  0
 34 37  2  0  0  0  0
 34 41  1  0  0  0  0
 35 44  1  0  0  0  0
 35 33  2  0  0  0  0
 36 32  1  0  0  0  0
 38 40  1  0  0  0  0
 39 32  1  0  0  0  0
 40 27  2  0  0  0  0
 41 45  1  1  0  0  0
 43 36  1  0  0  0  0
 45 46  1  0  0  0  0
M  END
>  <MODEL>
3

>  <REMARK>
 VINA RESULT:      -7.3      1.728      2.336
  Name = 
  14 active torsions:
  status: ('A' for Active; 'I' for Inactive)
    1  A    between atoms: C_2  and  C_29
    2  A    between atoms: C_2  and  C_30
    3  A    between atoms: C_6  and  C_12
    4  A    between atoms: C_6  and  O_31
    5  A    between atoms: N_7  and  C_15
    6  A    between atoms: C_8  and  C_29
    7  A    between atoms: C_11  and  C_35
    8  A    between atoms: C_12  and  C_15
    9  A    between atoms: C_12  and  C_30
   10  A    between atoms: C_17  and  C_21
   11  A    between atoms: C_17  and  N_45
   12  A    between atoms: C_21  and  C_35
   13  A    between atoms: C_21  and  C_41
   14  A    between atoms: O_28  and  C_38
                            x       y       z     vdW  Elec       q    Type
                         _______ _______ _______ _____ _____    ______ ____

>  <TORSDO>
F 14

$$$$
=
 OpenBabel11062416293D

 46 51  0  0  1  0  0  0  0  0999 V2000
  187.9500  176.3920  137.5190 C   0  0  0  0  0  2  0  0  0  0  0  0
  189.2530  176.8610  136.9010 C   0  0  1  0  0  3  0  0  0  0  0  0
  189.0060  178.1760  136.1700 C   0  0  0  0  0  1  0  0  0  0  0  0
  190.3510  177.0580  137.9670 C   0  0  2  0  0  3  0  0  0  0  0  0
  191.4930  176.0850  137.8660 C   0  0  0  0  0  0  0  0  0  0  0  0
  191.3310  174.8450  138.2080 N   0  0  0  0  0  2  0  0  0  0  0  0
  193.4030  176.0460  136.2940 C   0  0  0  0  0  1  0  0  0  0  0  0
  192.7370  176.5560  137.4400 O   0  0  0  0  0  0  0  0  0  0  0  0
  189.8390  177.1200  139.4090 C   0  0  0  0  0  2  0  0  0  0  0  0
  190.8740  177.5490  140.3380 N   0  0  0  0  0  2  0  0  0  0  0  0
  191.0580  177.0350  141.6590 C   0  0  0  0  0  0  0  0  0  0  0  0
  192.1500  177.2800  142.2450 O   0  0  0  0  0  0  0  0  0  0  0  0
  190.5440  175.1010  143.0250 O   0  0  0  0  0  1  0  0  0  0  0  0
  190.0170  176.2300  142.3970 C   0  0  1  0  0  3  0  0  0  0  0  0
  189.1220  177.0640  143.3260 C   0  0  1  0  0  3  0  0  0  0  0  0
  187.2340  178.2170  142.3440 N   0  0  0  0  0  2  0  0  0  0  0  0
  187.6650  176.9550  142.8790 C   0  0  2  0  0  3  0  0  0  0  0  0
  186.8810  177.7850  143.6080 O   0  0  0  0  0  0  0  0  0  0  0  0
  189.2730  176.7430  144.8180 C   0  0  0  0  0  2  0  0  0  0  0  0
  191.7930  176.6400  146.5670 N   0  0  0  0  0  2  0  0  0  0  0  0
  191.4130  177.4830  145.4370 C   0  0  0  0  0  2  0  0  0  0  0  0
  190.8170  176.9070  147.5950 C   0  0  0  0  0  2  0  0  0  0  0  0
  189.9940  177.7940  145.5350 N   0  0  0  0  0  0  0  0  0  0  0  0
  189.6580  177.6290  146.9340 C   0  0  0  0  0  2  0  0  0  0  0  0
  186.7940  177.0630  136.8200 C   0  0  0  0  0  2  0  0  0  0  0  0
  181.0890  176.0030  135.7430 C   0  0  1  0  0  0  0  0  0  0  0  0
  182.1560  173.6070  137.1680 C   0  0  0  0  0  0  0  0  0  0  0  0
  185.6290  176.1300  136.4960 C   0  0  2  0  0  0  0  0  0  0  0  0
  181.3100  176.9500  138.1180 O   0  0  0  0  0  1  0  0  0  0  0  0
  185.5020  176.0000  134.9910 C   0  0  0  0  0  1  0  0  0  0  0  0
  184.7420  172.5340  136.8810 C   0  0  0  0  0  3  0  0  0  0  0  0
  181.8860  176.5300  136.9040 C   0  0  1  0  0  0  0  0  0  0  0  0
  183.3030  174.4780  137.1200 C   0  0  0  0  0  0  0  0  0  0  0  0
  180.1430  175.1320  136.5000 C   0  0  0  0  0  0  0  0  0  0  0  0
  184.5870  173.9080  137.0350 C   0  0  0  0  0  0  0  0  0  0  0  0
  183.2000  175.9260  136.9890 N   0  0  0  0  0  0  0  0  0  0  0  0
  178.9310  175.2380  136.3510 O   0  0  0  0  0  0  0  0  0  0  0  0
  183.6250  171.6970  136.8850 C   0  0  0  0  0  3  0  0  0  0  0  0
  181.5020  177.3550  135.8700 O   0  0  0  0  0  0  0  0  0  0  0  0
  182.3500  172.2290  137.0510 C   0  0  0  0  0  3  0  0  0  0  0  0
  180.7080  174.0340  137.4110 C   0  0  2  0  0  3  0  0  0  0  0  0
  181.8470  175.3320  134.6070 C   0  0  0  0  0  1  0  0  0  0  0  0
  184.3780  176.7930  137.0570 C   0  0  0  0  0  2  0  0  0  0  0  0
  185.8100  174.7610  137.1530 C   0  0  0  0  0  2  0  0  0  0  0  0
  180.5090  174.3500  138.7470 O   0  0  0  0  0  0  0  0  0  0  0  0
  179.4210  173.5790  139.1310 C   0  0  0  0  0  1  0  0  0  0  0  0
  2  3  1  1  0  0  0
  2  1  1  0  0  0  0
  2  4  1  0  0  0  0
  4  9  1  1  0  0  0
  5  4  1  0  0  0  0
  5  6  2  0  0  0  0
  7  8  1  0  0  0  0
  8  5  1  0  0  0  0
  9 10  1  0  0  0  0
 10 11  1  0  0  0  0
 11 12  2  0  0  0  0
 11 14  1  0  0  0  0
 14 13  1  1  0  0  0
 14 15  1  0  0  0  0
 15 19  1  1  0  0  0
 16 17  1  0  0  0  0
 16 18  1  0  0  0  0
 17 15  1  1  0  0  0
 17 18  1  0  0  0  0
 19 23  1  0  0  0  0
 20 22  1  0  0  0  0
 21 23  1  0  0  0  0
 21 20  1  0  0  0  0
 23 24  1  0  0  0  0
 24 22  1  0  0  0  0
 25  1  1  0  0  0  0
 26 42  1  6  0  0  0
 26 39  1  0  0  0  0
 26 34  1  0  0  0  0
 26 32  1  0  0  0  0
 27 41  1  0  0  0  0
 28 30  1  6  0  0  0
 28 25  1  0  0  0  0
 28 43  1  0  0  0  0
 28 44  1  0  0  0  0
 31 38  2  0  0  0  0
 31 35  1  0  0  0  0
 32 36  1  0  0  0  0
 32 29  1  1  0  0  0
 33 27  1  0  0  0  0
 34 41  1  0  0  0  0
 35 33  2  0  0  0  0
 35 44  1  0  0  0  0
 36 43  1  0  0  0  0
 36 33  1  0  0  0  0
 37 34  2  0  0  0  0
 38 40  1  0  0  0  0
 39 32  1  0  0  0  0
 40 27  2  0  0  0  0
 41 45  1  1  0  0  0
 45 46  1  0  0  0  0
M  END
>  <MODEL>
4

>  <REMARK>
 VINA RESULT:      -7.0      2.774      3.854
  Name = 
  14 active torsions:
  status: ('A' for Active; 'I' for Inactive)
    1  A    between atoms: C_2  and  C_29
    2  A    between atoms: C_2  and  C_30
    3  A    between atoms: C_6  and  C_12
    4  A    between atoms: C_6  and  O_31
    5  A    between atoms: N_7  and  C_15
    6  A    between atoms: C_8  and  C_29
    7  A    between atoms: C_11  and  C_35
    8  A    between atoms: C_12  and  C_15
    9  A    between atoms: C_12  and  C_30
   10  A    between atoms: C_17  and  C_21
   11  A    between atoms: C_17  and  N_45
   12  A    between atoms: C_21  and  C_35
   13  A    between atoms: C_21  and  C_41
   14  A    between atoms: O_28  and  C_38
                            x       y       z     vdW  Elec       q    Type
                         _______ _______ _______ _____ _____    ______ ____

>  <TORSDO>
F 14

$$$$
=
 OpenBabel11062416293D

 46 51  0  0  1  0  0  0  0  0999 V2000
  184.3040  178.7520  142.0480 C   0  0  0  0  0  2  0  0  0  0  0  0
  183.4160  177.9330  141.1300 C   0  0  1  0  0  3  0  0  0  0  0  0
  181.9610  178.3000  141.3980 C   0  0  0  0  0  1  0  0  0  0  0  0
  183.7500  178.1830  139.6440 C   0  0  2  0  0  3  0  0  0  0  0  0
  183.4020  179.5610  139.1550 C   0  0  0  0  0  0  0  0  0  0  0  0
  184.3360  180.4310  138.9250 N   0  0  0  0  0  2  0  0  0  0  0  0
  181.5550  180.5610  137.8470 C   0  0  0  0  0  1  0  0  0  0  0  0
  182.0550  179.8960  138.9980 O   0  0  0  0  0  0  0  0  0  0  0  0
  183.2010  177.1280  138.6790 C   0  0  0  0  0  2  0  0  0  0  0  0
  183.5210  177.4380  137.2930 N   0  0  0  0  0  2  0  0  0  0  0  0
  184.6070  176.8740  136.5550 C   0  0  0  0  0  0  0  0  0  0  0  0
  184.6010  177.0050  135.2970 O   0  0  0  0  0  0  0  0  0  0  0  0
  185.8790  174.8230  136.7650 O   0  0  0  0  0  1  0  0  0  0  0  0
  185.7650  176.1470  137.1910 C   0  0  1  0  0  3  0  0  0  0  0  0
  187.0970  176.9100  137.1250 C   0  0  1  0  0  3  0  0  0  0  0  0
  187.5490  179.2800  136.9420 N   0  0  0  0  0  2  0  0  0  0  0  0
  186.9430  178.2810  137.7780 C   0  0  2  0  0  3  0  0  0  0  0  0
  188.1560  178.8010  138.0860 O   0  0  0  0  0  0  0  0  0  0  0  0
  188.2990  176.1490  137.6990 C   0  0  0  0  0  2  0  0  0  0  0  0
  190.7490  174.3010  137.7600 N   0  0  0  0  0  2  0  0  0  0  0  0
  189.6140  174.4020  136.8460 C   0  0  0  0  0  2  0  0  0  0  0  0
  191.4280  175.5720  137.6760 C   0  0  0  0  0  2  0  0  0  0  0  0
  189.2750  175.8060  136.6660 N   0  0  0  0  0  0  0  0  0  0  0  0
  190.4810  176.5400  136.9920 C   0  0  0  0  0  2  0  0  0  0  0  0
  184.6350  177.9430  143.2770 C   0  0  0  0  0  2  0  0  0  0  0  0
  190.4530  178.2470  142.3350 C   0  0  1  0  0  0  0  0  0  0  0  0
  190.0780  176.9170  144.9810 C   0  0  0  0  0  0  0  0  0  0  0  0
  186.0770  178.0920  143.7570 C   0  0  2  0  0  0  0  0  0  0  0  0
  189.6210  175.9420  141.5690 O   0  0  0  0  0  1  0  0  0  0  0  0
  186.4350  179.5640  143.8040 C   0  0  0  0  0  1  0  0  0  0  0  0
  188.0630  177.5110  146.8540 C   0  0  0  0  0  3  0  0  0  0  0  0
  189.3820  177.2110  142.1310 C   0  0  1  0  0  0  0  0  0  0  0  0
  188.7220  177.1330  144.5450 C   0  0  0  0  0  0  0  0  0  0  0  0
  191.5300  177.3540  142.8540 C   0  0  0  0  0  0  0  0  0  0  0  0
  187.7270  177.3700  145.5110 C   0  0  0  0  0  0  0  0  0  0  0  0
  188.3480  177.2830  143.1440 N   0  0  0  0  0  0  0  0  0  0  0  0
  192.6450  177.3470  142.3430 O   0  0  0  0  0  0  0  0  0  0  0  0
  189.3860  177.3440  147.2660 C   0  0  0  0  0  3  0  0  0  0  0  0
  189.5970  178.2060  141.2030 O   0  0  0  0  0  0  0  0  0  0  0  0
  190.3750  177.0260  146.3400 C   0  0  0  0  0  3  0  0  0  0  0  0
  191.2540  176.4980  144.0970 C   0  0  2  0  0  3  0  0  0  0  0  0
  190.1190  179.4560  143.1970 C   0  0  0  0  0  1  0  0  0  0  0  0
  186.9490  177.3880  142.7250 C   0  0  0  0  0  2  0  0  0  0  0  0
  186.2830  177.4310  145.1210 C   0  0  0  0  0  2  0  0  0  0  0  0
  191.1600  175.1550  143.7620 O   0  0  0  0  0  0  0  0  0  0  0  0
  192.1070  174.5280  144.5590 C   0  0  0  0  0  1  0  0  0  0  0  0
  1 25  1  0  0  0  0
  2  3  1  6  0  0  0
  2  1  1  0  0  0  0
  4  9  1  6  0  0  0
  4  2  1  0  0  0  0
  5  4  1  0  0  0  0
  6  5  2  0  0  0  0
  7  8  1  0  0  0  0
  8  5  1  0  0  0  0
 10  9  1  0  0  0  0
 11 14  1  0  0  0  0
 11 10  1  0  0  0  0
 12 11  2  0  0  0  0
 14 13  1  6  0  0  0
 15 14  1  0  0  0  0
 15 19  1  1  0  0  0
 16 17  1  0  0  0  0
 16 18  1  0  0  0  0
 17 15  1  6  0  0  0
 17 18  1  0  0  0  0
 21 20  1  0  0  0  0
 22 20  1  0  0  0  0
 23 21  1  0  0  0  0
 23 24  1  0  0  0  0
 23 19  1  0  0  0  0
 24 22  1  0  0  0  0
 25 28  1  0  0  0  0
 26 34  1  0  0  0  0
 26 42  1  1  0  0  0
 27 40  1  0  0  0  0
 28 30  1  1  0  0  0
 28 44  1  0  0  0  0
 31 38  1  0  0  0  0
 32 29  1  6  0  0  0
 32 26  1  0  0  0  0
 32 36  1  0  0  0  0
 33 27  2  0  0  0  0
 33 35  1  0  0  0  0
 34 41  1  0  0  0  0
 35 31  2  0  0  0  0
 36 33  1  0  0  0  0
 37 34  2  0  0  0  0
 39 32  1  0  0  0  0
 39 26  1  0  0  0  0
 40 38  2  0  0  0  0
 41 45  1  6  0  0  0
 41 27  1  0  0  0  0
 43 36  1  0  0  0  0
 43 28  1  0  0  0  0
 44 35  1  0  0  0  0
 45 46  1  0  0  0  0
M  END
>  <MODEL>
5

>  <REMARK>
 VINA RESULT:      -6.9      2.310      9.025
  Name = 
  14 active torsions:
  status: ('A' for Active; 'I' for Inactive)
    1  A    between atoms: C_2  and  C_29
    2  A    between atoms: C_2  and  C_30
    3  A    between atoms: C_6  and  C_12
    4  A    between atoms: C_6  and  O_31
    5  A    between atoms: N_7  and  C_15
    6  A    between atoms: C_8  and  C_29
    7  A    between atoms: C_11  and  C_35
    8  A    between atoms: C_12  and  C_15
    9  A    between atoms: C_12  and  C_30
   10  A    between atoms: C_17  and  C_21
   11  A    between atoms: C_17  and  N_45
   12  A    between atoms: C_21  and  C_35
   13  A    between atoms: C_21  and  C_41
   14  A    between atoms: O_28  and  C_38
                            x       y       z     vdW  Elec       q    Type
                         _______ _______ _______ _____ _____    ______ ____

>  <TORSDO>
F 14

$$$$
=
 OpenBabel11062416293D

 46 51  0  0  1  0  0  0  0  0999 V2000
  184.2140  178.9920  144.6670 C   0  0  0  0  0  2  0  0  0  0  0  0
  182.9910  178.4960  143.9190 C   0  0  1  0  0  3  0  0  0  0  0  0
  181.7410  178.9860  144.6420 C   0  0  0  0  0  1  0  0  0  0  0  0
  182.9750  178.9950  142.4590 C   0  0  2  0  0  3  0  0  0  0  0  0
  181.6400  178.8760  141.7790 C   0  0  0  0  0  0  0  0  0  0  0  0
  181.3200  177.7910  141.1440 N   0  0  0  0  0  2  0  0  0  0  0  0
  179.6840  180.1170  140.9080 C   0  0  0  0  0  1  0  0  0  0  0  0
  180.7740  179.9710  141.8080 O   0  0  0  0  0  0  0  0  0  0  0  0
  184.0730  178.4060  141.5690 C   0  0  0  0  0  2  0  0  0  0  0  0
  184.5820  179.3780  140.6130 N   0  0  0  0  0  2  0  0  0  0  0  0
  184.2970  179.3800  139.2130 C   0  0  0  0  0  0  0  0  0  0  0  0
  184.5610  180.4270  138.5550 O   0  0  0  0  0  0  0  0  0  0  0  0
  182.5560  178.5200  137.7620 O   0  0  0  0  0  1  0  0  0  0  0  0
  183.7130  178.2010  138.4740 C   0  0  1  0  0  3  0  0  0  0  0  0
  184.7340  177.4220  137.6310 C   0  0  1  0  0  3  0  0  0  0  0  0
  183.9530  175.6030  136.2380 N   0  0  0  0  0  2  0  0  0  0  0  0
  184.1100  177.0300  136.2930 C   0  0  2  0  0  3  0  0  0  0  0  0
  184.9680  176.2650  135.5740 O   0  0  0  0  0  0  0  0  0  0  0  0
  186.0780  178.1340  137.4330 C   0  0  0  0  0  2  0  0  0  0  0  0
  188.8910  179.0030  138.3020 N   0  0  0  0  0  2  0  0  0  0  0  0
  187.8450  178.2370  138.9750 C   0  0  0  0  0  2  0  0  0  0  0  0
  189.2440  178.2330  137.1340 C   0  0  0  0  0  2  0  0  0  0  0  0
  187.1900  177.3740  138.0020 N   0  0  0  0  0  0  0  0  0  0  0  0
  188.1490  177.2030  136.9300 C   0  0  0  0  0  2  0  0  0  0  0  0
  184.9130  177.8220  145.3130 C   0  0  0  0  0  2  0  0  0  0  0  0
  190.2670  178.1650  142.8550 C   0  0  1  0  0  0  0  0  0  0  0  0
  190.6100  176.7720  145.4720 C   0  0  0  0  0  0  0  0  0  0  0  0
  186.4320  177.9630  145.3930 C   0  0  2  0  0  0  0  0  0  0  0  0
  189.2520  175.8770  142.2850 O   0  0  0  0  0  1  0  0  0  0  0  0
  186.7940  179.4350  145.3770 C   0  0  0  0  0  1  0  0  0  0  0  0
  189.1730  177.3150  147.8300 C   0  0  0  0  0  3  0  0  0  0  0  0
  189.1770  177.1310  142.9210 C   0  0  1  0  0  0  0  0  0  0  0  0
  189.1870  176.9940  145.4200 C   0  0  0  0  0  0  0  0  0  0  0  0
  191.4410  177.2630  143.0450 C   0  0  0  0  0  0  0  0  0  0  0  0
  188.4880  177.2050  146.6230 C   0  0  0  0  0  0  0  0  0  0  0  0
  188.4530  177.1760  144.1750 N   0  0  0  0  0  0  0  0  0  0  0  0
  192.3780  177.2710  142.2540 O   0  0  0  0  0  0  0  0  0  0  0  0
  190.5570  177.1420  147.8680 C   0  0  0  0  0  3  0  0  0  0  0  0
  189.1390  178.1480  141.9930 O   0  0  0  0  0  0  0  0  0  0  0  0
  191.2610  176.8490  146.7050 C   0  0  0  0  0  3  0  0  0  0  0  0
  191.5050  176.3780  144.2960 C   0  0  2  0  0  3  0  0  0  0  0  0
  190.1810  179.3520  143.8030 C   0  0  0  0  0  1  0  0  0  0  0  0
  186.9920  177.2870  144.1490 C   0  0  0  0  0  2  0  0  0  0  0  0
  186.9940  177.2720  146.6360 C   0  0  0  0  0  2  0  0  0  0  0  0
  191.3190  175.0420  143.9670 O   0  0  0  0  0  0  0  0  0  0  0  0
  192.2920  174.3650  144.6890 C   0  0  0  0  0  1  0  0  0  0  0  0
  1 25  1  0  0  0  0
  2  3  1  1  0  0  0
  2  1  1  0  0  0  0
  4  9  1  6  0  0  0
  4  2  1  0  0  0  0
  5  8  1  0  0  0  0
  5  4  1  0  0  0  0
  6  5  2  0  0  0  0
  7  8  1  0  0  0  0
 10  9  1  0  0  0  0
 11 10  1  0  0  0  0
 12 11  2  0  0  0  0
 14 13  1  6  0  0  0
 14 11  1  0  0  0  0
 15 19  1  6  0  0  0
 15 14  1  0  0  0  0
 16 17  1  0  0  0  0
 17 15  1  1  0  0  0
 18 16  1  0  0  0  0
 18 17  1  0  0  0  0
 19 23  1  0  0  0  0
 20 21  1  0  0  0  0
 22 20  1  0  0  0  0
 23 21  1  0  0  0  0
 24 22  1  0  0  0  0
 24 23  1  0  0  0  0
 25 28  1  0  0  0  0
 26 32  1  0  0  0  0
 26 34  1  0  0  0  0
 26 42  1  1  0  0  0
 27 40  1  0  0  0  0
 28 30  1  1  0  0  0
 28 44  1  0  0  0  0
 31 38  1  0  0  0  0
 32 29  1  6  0  0  0
 32 36  1  0  0  0  0
 33 27  2  0  0  0  0
 33 35  1  0  0  0  0
 34 41  1  0  0  0  0
 35 44  1  0  0  0  0
 35 31  2  0  0  0  0
 36 33  1  0  0  0  0
 37 34  2  0  0  0  0
 39 26  1  0  0  0  0
 39 32  1  0  0  0  0
 40 38  2  0  0  0  0
 41 45  1  6  0  0  0
 41 27  1  0  0  0  0
 43 36  1  0  0  0  0
 43 28  1  0  0  0  0
 45 46  1  0  0  0  0
M  END
>  <MODEL>
6

>  <REMARK>
 VINA RESULT:      -6.9      2.357      9.618
  Name = 
  14 active torsions:
  status: ('A' for Active; 'I' for Inactive)
    1  A    between atoms: C_2  and  C_29
    2  A    between atoms: C_2  and  C_30
    3  A    between atoms: C_6  and  C_12
    4  A    between atoms: C_6  and  O_31
    5  A    between atoms: N_7  and  C_15
    6  A    between atoms: C_8  and  C_29
    7  A    between atoms: C_11  and  C_35
    8  A    between atoms: C_12  and  C_15
    9  A    between atoms: C_12  and  C_30
   10  A    between atoms: C_17  and  C_21
   11  A    between atoms: C_17  and  N_45
   12  A    between atoms: C_21  and  C_35
   13  A    between atoms: C_21  and  C_41
   14  A    between atoms: O_28  and  C_38
                            x       y       z     vdW  Elec       q    Type
                         _______ _______ _______ _____ _____    ______ ____

>  <TORSDO>
F 14

$$$$
=
 OpenBabel11062416293D

 46 51  0  0  1  0  0  0  0  0999 V2000
  187.7740  178.0960  143.5870 C   0  0  0  0  0  2  0  0  0  0  0  0
  188.6200  177.8750  144.8270 C   0  0  1  0  0  3  0  0  0  0  0  0
  187.7000  177.5380  145.9950 C   0  0  0  0  0  1  0  0  0  0  0  0
  189.6400  176.7350  144.6240 C   0  0  2  0  0  3  0  0  0  0  0  0
  191.0480  177.0890  145.0150 C   0  0  0  0  0  0  0  0  0  0  0  0
  191.5160  178.2750  144.7820 N   0  0  0  0  0  2  0  0  0  0  0  0
  192.0380  175.9810  146.9940 C   0  0  0  0  0  1  0  0  0  0  0  0
  191.8510  176.1010  145.5910 O   0  0  0  0  0  0  0  0  0  0  0  0
  189.6250  176.1020  143.2300 C   0  0  0  0  0  2  0  0  0  0  0  0
  190.7350  176.5640  142.4080 N   0  0  0  0  0  2  0  0  0  0  0  0
  190.6050  177.2980  141.1890 C   0  0  0  0  0  0  0  0  0  0  0  0
  191.6320  177.8780  140.7330 O   0  0  0  0  0  0  0  0  0  0  0  0
  188.6800  178.6380  140.5790 O   0  0  0  0  0  1  0  0  0  0  0  0
  189.3180  177.4080  140.4100 C   0  0  1  0  0  3  0  0  0  0  0  0
  189.4430  177.0020  138.9340 C   0  0  1  0  0  3  0  0  0  0  0  0
  188.2360  178.7330  137.7470 N   0  0  0  0  0  2  0  0  0  0  0  0
  189.5530  178.2490  138.0590 C   0  0  2  0  0  3  0  0  0  0  0  0
  189.0030  178.0260  136.8410 O   0  0  0  0  0  0  0  0  0  0  0  0
  190.5740  176.0090  138.6360 C   0  0  0  0  0  2  0  0  0  0  0  0
  192.3070  174.3810  136.6950 N   0  0  0  0  0  2  0  0  0  0  0  0
  191.2450  175.3610  136.4820 C   0  0  0  0  0  2  0  0  0  0  0  0
  193.3530  175.0880  137.3920 C   0  0  0  0  0  2  0  0  0  0  0  0
  191.3680  176.4160  137.4770 N   0  0  0  0  0  0  0  0  0  0  0  0
  192.7510  176.3820  137.9080 C   0  0  0  0  0  2  0  0  0  0  0  0
  186.6160  179.0010  143.9260 C   0  0  0  0  0  2  0  0  0  0  0  0
  183.3450  178.0450  139.1080 C   0  0  1  0  0  0  0  0  0  0  0  0
  181.5200  179.1880  141.1740 C   0  0  0  0  0  0  0  0  0  0  0  0
  185.3070  178.6320  143.2310 C   0  0  2  0  0  0  0  0  0  0  0  0
  184.1230  180.4910  139.0950 O   0  0  0  0  0  1  0  0  0  0  0  0
  185.2450  177.1280  143.0560 C   0  0  0  0  0  1  0  0  0  0  0  0
  181.6520  178.7000  143.9430 C   0  0  0  0  0  3  0  0  0  0  0  0
  184.0720  179.2200  139.6990 C   0  0  1  0  0  0  0  0  0  0  0  0
  182.7920  179.1820  141.8500 C   0  0  0  0  0  0  0  0  0  0  0  0
  182.1050  178.7490  138.6660 C   0  0  0  0  0  0  0  0  0  0  0  0
  182.8200  178.9920  143.2450 C   0  0  0  0  0  0  0  0  0  0  0  0
  184.0690  179.1960  141.1480 N   0  0  0  0  0  0  0  0  0  0  0  0
  181.7050  178.6580  137.5110 O   0  0  0  0  0  0  0  0  0  0  0  0
  180.4270  178.6650  143.2750 C   0  0  0  0  0  3  0  0  0  0  0  0
  184.7330  178.2870  138.9320 O   0  0  0  0  0  0  0  0  0  0  0  0
  180.3630  178.9310  141.9110 C   0  0  0  0  0  3  0  0  0  0  0  0
  181.2830  179.5270  139.7010 C   0  0  2  0  0  3  0  0  0  0  0  0
  183.1370  176.8210  139.9870 C   0  0  0  0  0  1  0  0  0  0  0  0
  185.3430  179.3030  141.8640 C   0  0  0  0  0  2  0  0  0  0  0  0
  184.0960  179.1460  144.0110 C   0  0  0  0  0  2  0  0  0  0  0  0
  181.3890  180.8940  139.4910 O   0  0  0  0  0  0  0  0  0  0  0  0
  180.0870  181.3150  139.2590 C   0  0  0  0  0  1  0  0  0  0  0  0
  1 25  1  0  0  0  0
  1  2  1  0  0  0  0
  2  3  1  1  0  0  0
  4  9  1  6  0  0  0
  4  2  1  0  0  0  0
  4  5  1  0  0  0  0
  5  8  1  0  0  0  0
  6  5  2  0  0  0  0
  8  7  1  0  0  0  0
 10  9  1  0  0  0  0
 11 10  1  0  0  0  0
 12 11  2  0  0  0  0
 14 13  1  6  0  0  0
 14 11  1  0  0  0  0
 15 19  1  1  0  0  0
 15 14  1  0  0  0  0
 16 17  1  0  0  0  0
 17 15  1  1  0  0  0
 18 16  1  0  0  0  0
 18 17  1  0  0  0  0
 20 22  1  0  0  0  0
 21 20  1  0  0  0  0
 21 23  1  0  0  0  0
 22 24  1  0  0  0  0
 23 24  1  0  0  0  0
 23 19  1  0  0  0  0
 26 32  1  0  0  0  0
 26 42  1  1  0  0  0
 27 33  2  0  0  0  0
 27 40  1  0  0  0  0
 28 30  1  6  0  0  0
 28 25  1  0  0  0  0
 28 44  1  0  0  0  0
 32 29  1  6  0  0  0
 32 36  1  0  0  0  0
 33 35  1  0  0  0  0
 34 26  1  0  0  0  0
 34 41  1  0  0  0  0
 35 31  2  0  0  0  0
 35 44  1  0  0  0  0
 36 33  1  0  0  0  0
 36 43  1  0  0  0  0
 37 34  2  0  0  0  0
 38 31  1  0  0  0  0
 39 26  1  0  0  0  0
 39 32  1  0  0  0  0
 40 38  2  0  0  0  0
 41 45  1  1  0  0  0
 41 27  1  0  0  0  0
 43 28  1  0  0  0  0
 46 45  1  0  0  0  0
M  END
>  <MODEL>
7

>  <REMARK>
 VINA RESULT:      -6.8      2.301      6.486
  Name = 
  14 active torsions:
  status: ('A' for Active; 'I' for Inactive)
    1  A    between atoms: C_2  and  C_29
    2  A    between atoms: C_2  and  C_30
    3  A    between atoms: C_6  and  C_12
    4  A    between atoms: C_6  and  O_31
    5  A    between atoms: N_7  and  C_15
    6  A    between atoms: C_8  and  C_29
    7  A    between atoms: C_11  and  C_35
    8  A    between atoms: C_12  and  C_15
    9  A    between atoms: C_12  and  C_30
   10  A    between atoms: C_17  and  C_21
   11  A    between atoms: C_17  and  N_45
   12  A    between atoms: C_21  and  C_35
   13  A    between atoms: C_21  and  C_41
   14  A    between atoms: O_28  and  C_38
                            x       y       z     vdW  Elec       q    Type
                         _______ _______ _______ _____ _____    ______ ____

>  <TORSDO>
F 14

$$$$
=
 OpenBabel11062416293D

 46 51  0  0  1  0  0  0  0  0999 V2000
  184.1530  179.0270  142.2000 C   0  0  0  0  0  2  0  0  0  0  0  0
  183.6840  178.2290  140.9970 C   0  0  1  0  0  3  0  0  0  0  0  0
  182.1610  178.1610  141.0160 C   0  0  0  0  0  1  0  0  0  0  0  0
  184.1600  178.8640  139.6730 C   0  0  2  0  0  3  0  0  0  0  0  0
  183.0470  179.3160  138.7700 C   0  0  0  0  0  0  0  0  0  0  0  0
  182.7210  180.5700  138.7060 N   0  0  0  0  0  2  0  0  0  0  0  0
  181.7170  178.6390  136.7960 C   0  0  0  0  0  1  0  0  0  0  0  0
  182.3460  178.3550  138.0380 O   0  0  0  0  0  0  0  0  0  0  0  0
  185.1670  178.0220  138.8860 C   0  0  0  0  0  2  0  0  0  0  0  0
  186.5350  178.4800  139.0840 N   0  0  0  0  0  2  0  0  0  0  0  0
  187.6010  178.3130  138.1460 C   0  0  0  0  0  0  0  0  0  0  0  0
  188.6500  178.9990  138.3120 O   0  0  0  0  0  0  0  0  0  0  0  0
  187.9130  177.9490  135.7710 O   0  0  0  0  0  1  0  0  0  0  0  0
  187.5510  177.3560  136.9810 C   0  0  1  0  0  3  0  0  0  0  0  0
  188.2760  176.0250  137.2310 C   0  0  1  0  0  3  0  0  0  0  0  0
  186.7600  174.1380  137.2190 N   0  0  0  0  0  2  0  0  0  0  0  0
  187.6370  174.9210  136.3920 C   0  0  2  0  0  3  0  0  0  0  0  0
  188.0160  173.7000  136.8440 O   0  0  0  0  0  0  0  0  0  0  0  0
  189.7950  176.0750  137.0250 C   0  0  0  0  0  2  0  0  0  0  0  0
  192.5660  176.7060  138.1860 N   0  0  0  0  0  2  0  0  0  0  0  0
  191.2450  176.5900  138.7980 C   0  0  0  0  0  2  0  0  0  0  0  0
  192.8470  175.4080  137.6230 C   0  0  0  0  0  2  0  0  0  0  0  0
  190.5210  175.5010  138.1580 N   0  0  0  0  0  0  0  0  0  0  0  0
  191.5390  174.6420  137.5890 C   0  0  0  0  0  2  0  0  0  0  0  0
  184.5040  178.0810  143.3210 C   0  0  0  0  0  2  0  0  0  0  0  0
  190.3440  178.3030  142.5070 C   0  0  1  0  0  0  0  0  0  0  0  0
  189.8940  177.0060  145.1570 C   0  0  0  0  0  0  0  0  0  0  0  0
  185.9360  178.2170  143.8320 C   0  0  2  0  0  0  0  0  0  0  0  0
  189.5010  176.0020  141.7460 O   0  0  0  0  0  1  0  0  0  0  0  0
  186.3110  179.6850  143.8720 C   0  0  0  0  0  1  0  0  0  0  0  0
  187.8450  177.6440  146.9790 C   0  0  0  0  0  3  0  0  0  0  0  0
  189.2660  177.2790  142.2900 C   0  0  1  0  0  0  0  0  0  0  0  0
  188.5500  177.2340  144.6890 C   0  0  0  0  0  0  0  0  0  0  0  0
  191.3990  177.4020  143.0600 C   0  0  0  0  0  0  0  0  0  0  0  0
  187.5370  177.4940  145.6300 C   0  0  0  0  0  0  0  0  0  0  0  0
  188.2100  177.3740  143.2790 N   0  0  0  0  0  0  0  0  0  0  0  0
  192.5240  177.3770  142.5740 O   0  0  0  0  0  0  0  0  0  0  0  0
  189.1560  177.4650  147.4220 C   0  0  0  0  0  3  0  0  0  0  0  0
  189.5140  178.2610  141.3570 O   0  0  0  0  0  0  0  0  0  0  0  0
  190.1610  177.1250  146.5220 C   0  0  0  0  0  3  0  0  0  0  0  0
  191.0840  176.5640  144.3050 C   0  0  2  0  0  3  0  0  0  0  0  0
  190.0060  179.5250  143.3490 C   0  0  0  0  0  1  0  0  0  0  0  0
  186.8220  177.4920  142.8270 C   0  0  0  0  0  2  0  0  0  0  0  0
  186.1040  177.5680  145.2070 C   0  0  0  0  0  2  0  0  0  0  0  0
  190.9800  175.2180  143.9810 O   0  0  0  0  0  0  0  0  0  0  0  0
  192.0550  174.6200  144.6240 C   0  0  0  0  0  1  0  0  0  0  0  0
  1 25  1  0  0  0  0
  2  3  1  6  0  0  0
  2  1  1  0  0  0  0
  4  9  1  6  0  0  0
  4  2  1  0  0  0  0
  5  4  1  0  0  0  0
  6  5  2  0  0  0  0
  7  8  1  0  0  0  0
  8  5  1  0  0  0  0
  9 10  1  0  0  0  0
 11 12  2  0  0  0  0
 11 10  1  0  0  0  0
 14 13  1  6  0  0  0
 14 15  1  0  0  0  0
 14 11  1  0  0  0  0
 15 19  1  6  0  0  0
 17 18  1  0  0  0  0
 17 16  1  0  0  0  0
 17 15  1  1  0  0  0
 18 16  1  0  0  0  0
 19 23  1  0  0  0  0
 20 21  1  0  0  0  0
 22 20  1  0  0  0  0
 23 21  1  0  0  0  0
 24 22  1  0  0  0  0
 24 23  1  0  0  0  0
 25 28  1  0  0  0  0
 26 34  1  0  0  0  0
 26 42  1  1  0  0  0
 27 40  1  0  0  0  0
 28 30  1  1  0  0  0
 28 44  1  0  0  0  0
 31 38  1  0  0  0  0
 32 29  1  6  0  0  0
 32 26  1  0  0  0  0
 32 36  1  0  0  0  0
 33 27  2  0  0  0  0
 33 35  1  0  0  0  0
 34 41  1  0  0  0  0
 35 31  2  0  0  0  0
 36 33  1  0  0  0  0
 37 34  2  0  0  0  0
 39 32  1  0  0  0  0
 39 26  1  0  0  0  0
 40 38  2  0  0  0  0
 41 45  1  6  0  0  0
 41 27  1  0  0  0  0
 43 36  1  0  0  0  0
 43 28  1  0  0  0  0
 44 35  1  0  0  0  0
 45 46  1  0  0  0  0
M  END
>  <MODEL>
8

>  <REMARK>
 VINA RESULT:      -6.7      2.419      8.913
  Name = 
  14 active torsions:
  status: ('A' for Active; 'I' for Inactive)
    1  A    between atoms: C_2  and  C_29
    2  A    between atoms: C_2  and  C_30
    3  A    between atoms: C_6  and  C_12
    4  A    between atoms: C_6  and  O_31
    5  A    between atoms: N_7  and  C_15
    6  A    between atoms: C_8  and  C_29
    7  A    between atoms: C_11  and  C_35
    8  A    between atoms: C_12  and  C_15
    9  A    between atoms: C_12  and  C_30
   10  A    between atoms: C_17  and  C_21
   11  A    between atoms: C_17  and  N_45
   12  A    between atoms: C_21  and  C_35
   13  A    between atoms: C_21  and  C_41
   14  A    between atoms: O_28  and  C_38
                            x       y       z     vdW  Elec       q    Type
                         _______ _______ _______ _____ _____    ______ ____

>  <TORSDO>
F 14

$$$$
=
 OpenBabel11062416293D

 46 51  0  0  1  0  0  0  0  0999 V2000
  183.5250  179.0580  144.5550 C   0  0  0  0  0  2  0  0  0  0  0  0
  182.3470  178.5980  143.7170 C   0  0  1  0  0  3  0  0  0  0  0  0
  181.0710  179.2130  144.2820 C   0  0  0  0  0  1  0  0  0  0  0  0
  182.5090  179.0040  142.2370 C   0  0  2  0  0  3  0  0  0  0  0  0
  181.2830  178.7760  141.3960 C   0  0  0  0  0  0  0  0  0  0  0  0
  180.5060  179.7670  141.0860 N   0  0  0  0  0  2  0  0  0  0  0  0
  179.6820  176.9090  141.1300 C   0  0  0  0  0  1  0  0  0  0  0  0
  180.9790  177.4730  140.9960 O   0  0  0  0  0  0  0  0  0  0  0  0
  183.7400  178.4160  141.5430 C   0  0  0  0  0  2  0  0  0  0  0  0
  184.3760  179.3770  140.6520 N   0  0  0  0  0  2  0  0  0  0  0  0
  184.1780  179.4430  139.2390 C   0  0  0  0  0  0  0  0  0  0  0  0
  184.5570  180.4870  138.6350 O   0  0  0  0  0  0  0  0  0  0  0  0
  182.3100  178.6770  137.8990 O   0  0  0  0  0  1  0  0  0  0  0  0
  183.5560  178.3350  138.4260 C   0  0  1  0  0  3  0  0  0  0  0  0
  184.4970  177.7210  137.3780 C   0  0  1  0  0  3  0  0  0  0  0  0
  186.8120  178.4080  137.2160 N   0  0  0  0  0  2  0  0  0  0  0  0
  185.9020  177.5820  137.9610 C   0  0  2  0  0  3  0  0  0  0  0  0
  186.7430  177.0390  137.0480 O   0  0  0  0  0  0  0  0  0  0  0  0
  184.0080  176.3980  136.7760 C   0  0  0  0  0  2  0  0  0  0  0  0
  183.7880  173.3400  136.6140 N   0  0  0  0  0  2  0  0  0  0  0  0
  184.5510  174.2280  137.4880 C   0  0  0  0  0  2  0  0  0  0  0  0
  182.4010  173.6540  136.8610 C   0  0  0  0  0  2  0  0  0  0  0  0
  183.7390  175.3940  137.8040 N   0  0  0  0  0  0  0  0  0  0  0  0
  182.3670  174.9740  137.6060 C   0  0  0  0  0  2  0  0  0  0  0  0
  184.2930  177.8550  145.0420 C   0  0  0  0  0  2  0  0  0  0  0  0
  189.6680  178.2480  142.6380 C   0  0  1  0  0  0  0  0  0  0  0  0
  190.0250  177.0660  145.3550 C   0  0  0  0  0  0  0  0  0  0  0  0
  185.8020  178.0670  145.1320 C   0  0  2  0  0  0  0  0  0  0  0  0
  188.7600  175.8830  142.2250 O   0  0  0  0  0  1  0  0  0  0  0  0
  186.1030  179.5480  145.0130 C   0  0  0  0  0  1  0  0  0  0  0  0
  188.5270  177.7180  147.6470 C   0  0  0  0  0  3  0  0  0  0  0  0
  188.6210  177.1760  142.7650 C   0  0  1  0  0  0  0  0  0  0  0  0
  188.5950  177.2220  145.2680 C   0  0  0  0  0  0  0  0  0  0  0  0
  190.8750  177.4140  142.9100 C   0  0  0  0  0  0  0  0  0  0  0  0
  187.8680  177.4910  146.4430 C   0  0  0  0  0  0  0  0  0  0  0  0
  187.8750  177.2810  144.0030 N   0  0  0  0  0  0  0  0  0  0  0  0
  191.8240  177.4050  142.1340 O   0  0  0  0  0  0  0  0  0  0  0  0
  189.9170  177.6080  147.7170 C   0  0  0  0  0  3  0  0  0  0  0  0
  188.5560  178.1200  141.7640 O   0  0  0  0  0  0  0  0  0  0  0  0
  190.6510  177.2620  146.5870 C   0  0  0  0  0  3  0  0  0  0  0  0
  190.9550  176.6260  144.2230 C   0  0  2  0  0  3  0  0  0  0  0  0
  189.5160  179.4970  143.4950 C   0  0  0  0  0  1  0  0  0  0  0  0
  186.4120  177.3270  143.9480 C   0  0  0  0  0  2  0  0  0  0  0  0
  186.3720  177.4930  146.4300 C   0  0  0  0  0  2  0  0  0  0  0  0
  190.8320  175.2630  143.9910 O   0  0  0  0  0  0  0  0  0  0  0  0
  192.0640  174.7350  144.3490 C   0  0  0  0  0  1  0  0  0  0  0  0
  1 25  1  0  0  0  0
  2  3  1  1  0  0  0
  2  1  1  0  0  0  0
  4  9  1  6  0  0  0
  4  2  1  0  0  0  0
  5  4  1  0  0  0  0
  6  5  2  0  0  0  0
  8  7  1  0  0  0  0
  8  5  1  0  0  0  0
 10  9  1  0  0  0  0
 11 10  1  0  0  0  0
 12 11  2  0  0  0  0
 14 13  1  6  0  0  0
 14 11  1  0  0  0  0
 15 19  1  1  0  0  0
 15 14  1  0  0  0  0
 16 17  1  0  0  0  0
 17 15  1  6  0  0  0
 18 16  1  0  0  0  0
 18 17  1  0  0  0  0
 19 23  1  0  0  0  0
 20 22  1  0  0  0  0
 20 21  1  0  0  0  0
 21 23  1  0  0  0  0
 22 24  1  0  0  0  0
 24 23  1  0  0  0  0
 25 28  1  0  0  0  0
 26 32  1  0  0  0  0
 26 34  1  0  0  0  0
 26 42  1  1  0  0  0
 27 40  1  0  0  0  0
 28 30  1  6  0  0  0
 28 44  1  0  0  0  0
 31 38  1  0  0  0  0
 32 29  1  6  0  0  0
 32 36  1  0  0  0  0
 33 27  2  0  0  0  0
 33 35  1  0  0  0  0
 34 41  1  0  0  0  0
 35 31  2  0  0  0  0
 36 33  1  0  0  0  0
 37 34  2  0  0  0  0
 39 26  1  0  0  0  0
 39 32  1  0  0  0  0
 40 38  2  0  0  0  0
 41 45  1  6  0  0  0
 41 27  1  0  0  0  0
 43 36  1  0  0  0  0
 43 28  1  0  0  0  0
 44 35  1  0  0  0  0
 45 46  1  0  0  0  0
M  END
>  <MODEL>
9

>  <REMARK>
 VINA RESULT:      -6.7      2.529      9.396
  Name = 
  14 active torsions:
  status: ('A' for Active; 'I' for Inactive)
    1  A    between atoms: C_2  and  C_29
    2  A    between atoms: C_2  and  C_30
    3  A    between atoms: C_6  and  C_12
    4  A    between atoms: C_6  and  O_31
    5  A    between atoms: N_7  and  C_15
    6  A    between atoms: C_8  and  C_29
    7  A    between atoms: C_11  and  C_35
    8  A    between atoms: C_12  and  C_15
    9  A    between atoms: C_12  and  C_30
   10  A    between atoms: C_17  and  C_21
   11  A    between atoms: C_17  and  N_45
   12  A    between atoms: C_21  and  C_35
   13  A    between atoms: C_21  and  C_41
   14  A    between atoms: O_28  and  C_38
                            x       y       z     vdW  Elec       q    Type
                         _______ _______ _______ _____ _____    ______ ____

>  <TORSDO>
F 14

$$$$
