=
 OpenBabel11062412553D

 50 56  0  0  1  0  0  0  0  0999 V2000
  192.2420  178.6560  144.2920 C   0  0  0  0  0  1  0  0  0  0  0  0
  187.4900  176.6730  141.1100 O   0  0  0  0  0  1  0  0  0  0  0  0
  189.1540  175.0870  137.0300 C   0  0  2  0  0  3  0  0  0  0  0  0
  191.0680  177.8860  143.9860 N   0  0  0  0  0  0  0  0  0  0  0  0
  190.6270  177.7290  142.7850 C   0  0  0  0  0  0  0  0  0  0  0  0
  191.0890  177.4690  140.3570 C   0  0  0  0  0  2  0  0  0  0  0  0
  188.7020  177.3560  141.2750 C   0  0  1  0  0  3  0  0  0  0  0  0
  190.2890  173.6400  135.5340 C   0  0  2  0  0  3  0  0  0  0  0  0
  189.4650  175.8790  139.3560 C   0  0  0  0  0  2  0  0  0  0  0  0
  189.2480  175.6720  135.6740 C   0  0  0  0  0  0  0  0  0  0  0  0
  187.7200  177.6960  135.9320 C   0  0  2  0  0  3  0  0  0  0  0  0
  188.6890  176.7960  135.2150 C   0  0  0  0  0  3  0  0  0  0  0  0
  189.9620  174.8390  134.8530 O   0  0  0  0  0  0  0  0  0  0  0  0
  190.0660  175.8550  137.9600 C   0  0  0  0  0  2  0  0  0  0  0  0
  188.2660  178.5930  137.0460 C   0  0  1  0  0  3  0  0  0  0  0  0
  189.2010  178.3830  139.0440 C   0  0  0  0  0  2  0  0  0  0  0  0
  189.3890  176.9180  142.5690 C   0  0  0  0  0  2  0  0  0  0  0  0
  189.6010  177.2640  140.0140 C   0  0  2  0  0  0  0  0  0  0  0  0
  187.5710  179.9420  136.9710 C   0  0  0  0  0  1  0  0  0  0  0  0
  189.7030  173.7350  136.8890 N   0  0  0  0  0  0  0  0  0  0  0  0
  191.3110  178.3500  141.5870 C   0  0  0  0  0  2  0  0  0  0  0  0
  188.0530  178.0330  138.3130 O   0  0  0  0  0  0  0  0  0  0  0  0
  187.2780  173.3720  137.4030 C   0  0  0  0  0  1  0  0  0  0  0  0
  188.6350  172.7510  137.0990 C   0  0  0  0  0  3  0  0  0  0  0  0
  188.5240  171.8090  135.9160 C   0  0  0  0  0  1  0  0  0  0  0  0
  191.9600  172.2230  135.2310 C   0  0  0  0  0  1  0  0  0  0  0  0
  191.6780  173.5330  135.6340 O   0  0  0  0  0  0  0  0  0  0  0  0
  186.5020  177.0650  136.2430 O   0  0  0  0  0  0  0  0  0  0  0  0
  185.5740  177.9570  135.9230 O   0  0  0  0  0  0  0  0  0  0  0  0
  182.1140  178.3490  138.5250 O   0  0  0  0  0  1  0  0  0  0  0  0
  184.4530  177.6440  136.7080 C   0  0  1  0  0  0  0  0  0  0  0  0
  183.0180  176.2460  138.7740 O   0  0  0  0  0  0  0  0  0  0  0  0
  184.4680  178.0880  138.1820 C   0  0  0  0  0  2  0  0  0  0  0  0
  183.1480  177.5480  135.9440 C   0  0  0  0  0  2  0  0  0  0  0  0
  183.1690  175.6190  137.5340 C   0  0  0  0  0  0  0  0  0  0  0  0
  183.2380  177.6400  138.9640 C   0  0  1  0  0  0  0  0  0  0  0  0
  183.8730  176.2760  136.3750 C   0  0  2  0  0  3  0  0  0  0  0  0
  182.7700  174.4320  137.3990 O   0  0  0  0  0  0  0  0  0  0  0  0
  182.5470  179.0530  143.5550 C   0  0  0  0  0  3  0  0  0  0  0  0
  183.4660  177.9340  140.4120 C   0  0  0  0  0  0  0  0  0  0  0  0
  183.0890  178.5880  142.3640 C   0  0  0  0  0  0  0  0  0  0  0  0
  184.6750  177.7850  141.0290 N   0  0  0  0  0  0  0  0  0  0  0  0
  182.5180  178.4150  141.2060 O   0  0  0  0  0  0  0  0  0  0  0  0
  183.4150  179.1150  144.6620 C   0  0  0  0  0  3  0  0  0  0  0  0
  185.2430  178.2650  143.3250 N   0  0  0  0  0  0  0  0  0  0  0  0
  184.7750  178.7150  144.5320 C   0  0  0  0  0  0  0  0  0  0  0  0
  184.3910  178.2140  142.2680 C   0  0  0  0  0  0  0  0  0  0  0  0
  186.9750  178.2150  145.6160 N   0  0  0  0  0  1  0  0  0  0  0  0
  185.3400  179.4230  146.7240 O   0  0  0  0  0  0  0  0  0  0  0  0
  185.6860  178.8070  145.6810 C   0  0  0  0  0  0  0  0  0  0  0  0
  3 14  1  1  0  0  0
  4  1  1  0  0  0  0
  5  4  2  0  0  0  0
  6 21  1  0  0  0  0
  7  2  1  6  0  0  0
  7 17  1  0  0  0  0
  8 27  1  1  0  0  0
  8 20  1  0  0  0  0
  9 18  1  0  0  0  0
 10  3  1  0  0  0  0
 11 28  1  1  0  0  0
 11 15  1  0  0  0  0
 12 10  2  0  0  0  0
 12 11  1  0  0  0  0
 13  8  1  0  0  0  0
 13 10  1  0  0  0  0
 14  9  1  0  0  0  0
 15 19  1  1  0  0  0
 15 22  1  0  0  0  0
 17  5  1  0  0  0  0
 18 16  1  6  0  0  0
 18  6  1  0  0  0  0
 18  7  1  0  0  0  0
 20  3  1  0  0  0  0
 20 24  1  0  0  0  0
 21  5  1  0  0  0  0
 22 16  1  0  0  0  0
 24 23  1  0  0  0  0
 25 24  1  0  0  0  0
 26 27  1  0  0  0  0
 29 28  1  0  0  0  0
 31 29  1  6  0  0  0
 31 33  1  0  0  0  0
 32 36  1  0  0  0  0
 33 36  1  0  0  0  0
 34 31  1  0  0  0  0
 35 32  1  0  0  0  0
 36 30  1  6  0  0  0
 36 40  1  0  0  0  0
 37 34  1  6  0  0  0
 37 31  1  0  0  0  0
 37 35  1  0  0  0  0
 38 35  2  0  0  0  0
 39 44  1  0  0  0  0
 40 42  2  0  0  0  0
 40 43  1  0  0  0  0
 41 39  2  0  0  0  0
 42 47  1  0  0  0  0
 43 41  1  0  0  0  0
 45 46  1  0  0  0  0
 46 44  2  0  0  0  0
 46 50  1  0  0  0  0
 47 41  1  0  0  0  0
 47 45  2  0  0  0  0
 48 50  1  0  0  0  0
 50 49  2  0  0  0  0
M  END
>  <MODEL>
1

>  <REMARK>
 VINA RESULT:      -5.0      0.000      0.000
  Name = 
  7 active torsions:
  status: ('A' for Active; 'I' for Inactive)
    1  A    between atoms: O_5  and  C_16
    2  A    between atoms: O_5  and  O_24
    3  A    between atoms: C_9  and  C_40
    4  A    between atoms: C_17  and  O_30
    5  A    between atoms: C_20  and  O_24
    6  A    between atoms: C_29  and  C_43
    7  A    between atoms: C_41  and  N_48
                            x       y       z     vdW  Elec       q    Type
                         _______ _______ _______ _____ _____    ______ ____

>  <TORSDO>
F 7

$$$$
=
 OpenBabel11062412553D

 50 56  0  0  1  0  0  0  0  0999 V2000
  191.9610  178.3260  144.6470 C   0  0  0  0  0  1  0  0  0  0  0  0
  188.2480  176.0240  140.4580 O   0  0  0  0  0  1  0  0  0  0  0  0
  190.8190  175.3130  136.6080 C   0  0  2  0  0  3  0  0  0  0  0  0
  191.0190  177.4180  144.0520 N   0  0  0  0  0  0  0  0  0  0  0  0
  190.8150  177.3540  142.7800 C   0  0  0  0  0  0  0  0  0  0  0  0
  191.7040  177.5090  140.4650 C   0  0  0  0  0  2  0  0  0  0  0  0
  189.2660  176.8720  140.9130 C   0  0  1  0  0  3  0  0  0  0  0  0
  192.4330  174.2960  135.2020 C   0  0  2  0  0  3  0  0  0  0  0  0
  190.5950  175.8200  139.0220 C   0  0  0  0  0  2  0  0  0  0  0  0
  191.0180  176.0850  135.3610 C   0  0  0  0  0  0  0  0  0  0  0  0
  189.1120  177.7690  135.5460 C   0  0  2  0  0  3  0  0  0  0  0  0
  190.3360  177.1500  134.9280 C   0  0  0  0  0  3  0  0  0  0  0  0
  191.9990  175.5050  134.6020 O   0  0  0  0  0  0  0  0  0  0  0  0
  191.4060  176.0890  137.7650 C   0  0  0  0  0  2  0  0  0  0  0  0
  189.2910  178.5840  136.8290 C   0  0  1  0  0  3  0  0  0  0  0  0
  189.9140  178.2640  138.9320 C   0  0  0  0  0  2  0  0  0  0  0  0
  189.8060  176.3830  142.2570 C   0  0  0  0  0  2  0  0  0  0  0  0
  190.3570  177.1060  139.8350 C   0  0  2  0  0  0  0  0  0  0  0  0
  188.3740  179.7930  136.7700 C   0  0  0  0  0  1  0  0  0  0  0  0
  191.6300  174.1040  136.4290 N   0  0  0  0  0  0  0  0  0  0  0  0
  191.5530  178.2390  141.8000 C   0  0  0  0  0  2  0  0  0  0  0  0
  188.9870  177.8280  137.9690 O   0  0  0  0  0  0  0  0  0  0  0  0
  189.3350  173.1890  136.8450 C   0  0  0  0  0  1  0  0  0  0  0  0
  190.7480  172.9350  136.3340 C   0  0  0  0  0  3  0  0  0  0  0  0
  190.7020  172.4020  134.9170 C   0  0  0  0  0  1  0  0  0  0  0  0
  194.4410  173.5280  134.6800 C   0  0  0  0  0  1  0  0  0  0  0  0
  193.7830  174.4110  135.5430 O   0  0  0  0  0  0  0  0  0  0  0  0
  188.0020  176.9040  135.5600 O   0  0  0  0  0  0  0  0  0  0  0  0
  187.0640  177.5570  134.8860 O   0  0  0  0  0  0  0  0  0  0  0  0
  183.2350  177.9990  136.8960 O   0  0  0  0  0  1  0  0  0  0  0  0
  185.8520  177.2570  135.5260 C   0  0  1  0  0  0  0  0  0  0  0  0
  184.1800  175.9860  137.4950 O   0  0  0  0  0  0  0  0  0  0  0  0
  185.6230  177.8430  136.9320 C   0  0  0  0  0  2  0  0  0  0  0  0
  184.6830  177.0110  134.5940 C   0  0  0  0  0  2  0  0  0  0  0  0
  184.5450  175.2510  136.3630 C   0  0  0  0  0  0  0  0  0  0  0  0
  184.3080  177.4030  137.5670 C   0  0  1  0  0  0  0  0  0  0  0  0
  185.3880  175.8320  135.2580 C   0  0  2  0  0  3  0  0  0  0  0  0
  184.2230  174.0350  136.2970 O   0  0  0  0  0  0  0  0  0  0  0  0
  185.6760  179.2940  141.8220 C   0  0  0  0  0  3  0  0  0  0  0  0
  184.3010  177.8500  138.9940 C   0  0  0  0  0  0  0  0  0  0  0  0
  184.9800  178.6660  140.7970 C   0  0  0  0  0  0  0  0  0  0  0  0
  183.2700  177.6020  139.8550 N   0  0  0  0  0  0  0  0  0  0  0  0
  185.3240  178.4830  139.5540 O   0  0  0  0  0  0  0  0  0  0  0  0
  185.0340  179.3560  143.0740 C   0  0  0  0  0  3  0  0  0  0  0  0
  183.1100  178.1890  142.1900 N   0  0  0  0  0  0  0  0  0  0  0  0
  183.7390  178.7940  143.2470 C   0  0  0  0  0  0  0  0  0  0  0  0
  183.7450  178.1360  140.9910 C   0  0  0  0  0  0  0  0  0  0  0  0
  183.8510  179.0710  145.7330 N   0  0  0  0  0  1  0  0  0  0  0  0
  181.8360  178.6860  144.6580 O   0  0  0  0  0  0  0  0  0  0  0  0
  183.0830  178.8370  144.5610 C   0  0  0  0  0  0  0  0  0  0  0  0
  3 14  1  1  0  0  0
  4  1  1  0  0  0  0
  5  4  2  0  0  0  0
  6 21  1  0  0  0  0
  7  2  1  6  0  0  0
  7 17  1  0  0  0  0
  8 27  1  1  0  0  0
  8 20  1  0  0  0  0
  9 18  1  0  0  0  0
 10  3  1  0  0  0  0
 11 28  1  1  0  0  0
 11 15  1  0  0  0  0
 12 10  2  0  0  0  0
 12 11  1  0  0  0  0
 13  8  1  0  0  0  0
 13 10  1  0  0  0  0
 14  9  1  0  0  0  0
 15 19  1  6  0  0  0
 15 22  1  0  0  0  0
 17  5  1  0  0  0  0
 18 16  1  6  0  0  0
 18  6  1  0  0  0  0
 18  7  1  0  0  0  0
 20  3  1  0  0  0  0
 21  5  1  0  0  0  0
 22 16  1  0  0  0  0
 24 20  1  0  0  0  0
 24 23  1  0  0  0  0
 25 24  1  0  0  0  0
 26 27  1  0  0  0  0
 29 28  1  0  0  0  0
 31 29  1  6  0  0  0
 31 33  1  0  0  0  0
 32 36  1  0  0  0  0
 33 36  1  0  0  0  0
 34 31  1  0  0  0  0
 35 32  1  0  0  0  0
 36 30  1  6  0  0  0
 36 40  1  0  0  0  0
 37 34  1  6  0  0  0
 37 31  1  0  0  0  0
 37 35  1  0  0  0  0
 38 35  2  0  0  0  0
 39 44  1  0  0  0  0
 40 43  1  0  0  0  0
 40 42  2  0  0  0  0
 41 47  1  0  0  0  0
 41 39  2  0  0  0  0
 42 47  1  0  0  0  0
 43 41  1  0  0  0  0
 44 46  2  0  0  0  0
 45 46  1  0  0  0  0
 46 50  1  0  0  0  0
 47 45  2  0  0  0  0
 50 49  2  0  0  0  0
 50 48  1  0  0  0  0
M  END
>  <MODEL>
2

>  <REMARK>
 VINA RESULT:      -4.9      1.653      1.952
  Name = 
  7 active torsions:
  status: ('A' for Active; 'I' for Inactive)
    1  A    between atoms: O_5  and  C_16
    2  A    between atoms: O_5  and  O_24
    3  A    between atoms: C_9  and  C_40
    4  A    between atoms: C_17  and  O_30
    5  A    between atoms: C_20  and  O_24
    6  A    between atoms: C_29  and  C_43
    7  A    between atoms: C_41  and  N_48
                            x       y       z     vdW  Elec       q    Type
                         _______ _______ _______ _____ _____    ______ ____

>  <TORSDO>
F 7

$$$$
=
 OpenBabel11062412553D

 50 56  0  0  1  0  0  0  0  0999 V2000
  184.9380  178.6360  146.4760 C   0  0  0  0  0  1  0  0  0  0  0  0
  185.9100  179.0180  140.5140 O   0  0  0  0  0  1  0  0  0  0  0  0
  181.7650  179.8900  138.5160 C   0  0  2  0  0  3  0  0  0  0  0  0
  185.5070  179.1090  145.2440 N   0  0  0  0  0  0  0  0  0  0  0  0
  184.9540  178.9120  144.0960 C   0  0  0  0  0  0  0  0  0  0  0  0
  182.8890  178.6870  142.7310 C   0  0  0  0  0  2  0  0  0  0  0  0
  185.2100  178.6040  141.6540 C   0  0  1  0  0  3  0  0  0  0  0  0
  179.8380  181.1280  137.9050 C   0  0  2  0  0  3  0  0  0  0  0  0
  183.2400  179.7120  140.4970 C   0  0  0  0  0  2  0  0  0  0  0  0
  180.7600  179.0360  137.8430 C   0  0  0  0  0  0  0  0  0  0  0  0
  182.1090  176.8970  137.5190 C   0  0  2  0  0  3  0  0  0  0  0  0
  180.8780  177.7600  137.4640 C   0  0  0  0  0  3  0  0  0  0  0  0
  179.6370  179.7680  137.5610 O   0  0  0  0  0  0  0  0  0  0  0  0
  181.8240  179.5180  139.9800 C   0  0  0  0  0  2  0  0  0  0  0  0
  182.5610  176.3820  138.8880 C   0  0  1  0  0  3  0  0  0  0  0  0
  183.3190  177.1940  140.8050 C   0  0  0  0  0  2  0  0  0  0  0  0
  185.6290  179.4340  142.8680 C   0  0  0  0  0  2  0  0  0  0  0  0
  183.6770  178.5560  141.4140 C   0  0  2  0  0  0  0  0  0  0  0  0
  183.0570  174.9550  138.7320 C   0  0  0  0  0  1  0  0  0  0  0  0
  181.2170  181.2470  138.4260 N   0  0  0  0  0  0  0  0  0  0  0  0
  183.6510  178.1590  143.9480 C   0  0  0  0  0  2  0  0  0  0  0  0
  183.5860  177.1720  139.4250 O   0  0  0  0  0  0  0  0  0  0  0  0
  181.3650  182.5510  136.2920 C   0  0  0  0  0  1  0  0  0  0  0  0
  182.0690  182.0600  137.5500 C   0  0  0  0  0  3  0  0  0  0  0  0
  182.6650  183.2310  138.3050 C   0  0  0  0  0  1  0  0  0  0  0  0
  179.1070  182.8650  139.0640 C   0  0  0  0  0  1  0  0  0  0  0  0
  178.9310  181.4860  138.9050 O   0  0  0  0  0  0  0  0  0  0  0  0
  183.1550  177.3690  136.7050 O   0  0  0  0  0  0  0  0  0  0  0  0
  183.7780  176.2720  136.2950 O   0  0  0  0  0  0  0  0  0  0  0  0
  188.1140  176.1990  135.9910 O   0  0  0  0  0  1  0  0  0  0  0  0
  185.1030  176.6560  136.0400 C   0  0  1  0  0  0  0  0  0  0  0  0
  187.4040  178.3780  136.2080 O   0  0  0  0  0  0  0  0  0  0  0  0
  186.0980  176.6090  137.2150 C   0  0  0  0  0  2  0  0  0  0  0  0
  185.5740  176.4150  134.6200 C   0  0  0  0  0  2  0  0  0  0  0  0
  186.4200  178.6790  135.2600 C   0  0  0  0  0  0  0  0  0  0  0  0
  187.4920  177.1110  136.8510 C   0  0  1  0  0  0  0  0  0  0  0  0
  185.1950  177.8240  135.0680 C   0  0  2  0  0  3  0  0  0  0  0  0
  186.5220  179.7420  134.5940 O   0  0  0  0  0  0  0  0  0  0  0  0
  191.1300  176.8150  140.0480 C   0  0  0  0  0  3  0  0  0  0  0  0
  188.2950  177.2230  138.1070 C   0  0  0  0  0  0  0  0  0  0  0  0
  189.9090  177.0360  139.4270 C   0  0  0  0  0  0  0  0  0  0  0  0
  187.7870  177.6860  139.2870 N   0  0  0  0  0  0  0  0  0  0  0  0
  189.5610  176.8320  138.1880 O   0  0  0  0  0  0  0  0  0  0  0  0
  191.2140  177.1520  141.4130 C   0  0  0  0  0  3  0  0  0  0  0  0
  188.9080  177.8800  141.4150 N   0  0  0  0  0  0  0  0  0  0  0  0
  190.0850  177.6880  142.0920 C   0  0  0  0  0  0  0  0  0  0  0  0
  188.8460  177.5480  140.1000 C   0  0  0  0  0  0  0  0  0  0  0  0
  191.3120  178.6740  144.0370 N   0  0  0  0  0  1  0  0  0  0  0  0
  189.2160  177.7270  144.2980 O   0  0  0  0  0  0  0  0  0  0  0  0
  190.1660  178.0140  143.5220 C   0  0  0  0  0  0  0  0  0  0  0  0
  3 14  1  1  0  0  0
  4  1  1  0  0  0  0
  5  4  2  0  0  0  0
  6 21  1  0  0  0  0
  7  2  1  6  0  0  0
  7 17  1  0  0  0  0
  8 20  1  0  0  0  0
  8 27  1  1  0  0  0
 10  3  1  0  0  0  0
 11 28  1  1  0  0  0
 11 15  1  0  0  0  0
 12 11  1  0  0  0  0
 12 10  2  0  0  0  0
 13 10  1  0  0  0  0
 13  8  1  0  0  0  0
 14  9  1  0  0  0  0
 15 19  1  6  0  0  0
 15 22  1  0  0  0  0
 16 18  1  0  0  0  0
 17  5  1  0  0  0  0
 18  9  1  6  0  0  0
 18  7  1  0  0  0  0
 18  6  1  0  0  0  0
 20  3  1  0  0  0  0
 21  5  1  0  0  0  0
 22 16  1  0  0  0  0
 23 24  1  0  0  0  0
 24 25  1  0  0  0  0
 24 20  1  0  0  0  0
 27 26  1  0  0  0  0
 29 28  1  0  0  0  0
 31 29  1  1  0  0  0
 31 33  1  0  0  0  0
 32 36  1  0  0  0  0
 34 31  1  0  0  0  0
 35 32  1  0  0  0  0
 36 30  1  6  0  0  0
 36 33  1  0  0  0  0
 36 40  1  0  0  0  0
 37 34  1  6  0  0  0
 37 35  1  0  0  0  0
 37 31  1  0  0  0  0
 38 35  2  0  0  0  0
 39 44  1  0  0  0  0
 40 43  1  0  0  0  0
 40 42  2  0  0  0  0
 41 39  2  0  0  0  0
 41 47  1  0  0  0  0
 42 47  1  0  0  0  0
 43 41  1  0  0  0  0
 44 46  2  0  0  0  0
 45 46  1  0  0  0  0
 46 50  1  0  0  0  0
 47 45  2  0  0  0  0
 50 48  1  0  0  0  0
 50 49  2  0  0  0  0
M  END
>  <MODEL>
3

>  <REMARK>
 VINA RESULT:      -4.3      2.698      7.731
  Name = 
  7 active torsions:
  status: ('A' for Active; 'I' for Inactive)
    1  A    between atoms: O_5  and  C_16
    2  A    between atoms: O_5  and  O_24
    3  A    between atoms: C_9  and  C_40
    4  A    between atoms: C_17  and  O_30
    5  A    between atoms: C_20  and  O_24
    6  A    between atoms: C_29  and  C_43
    7  A    between atoms: C_41  and  N_48
                            x       y       z     vdW  Elec       q    Type
                         _______ _______ _______ _____ _____    ______ ____

>  <TORSDO>
F 7

$$$$
=
 OpenBabel11062412553D

 50 56  0  0  1  0  0  0  0  0999 V2000
  192.0530  178.6370  144.6470 C   0  0  0  0  0  1  0  0  0  0  0  0
  188.6030  175.7240  140.6160 O   0  0  0  0  0  1  0  0  0  0  0  0
  191.0790  175.4570  136.6500 C   0  0  2  0  0  3  0  0  0  0  0  0
  191.2550  177.5800  144.0890 N   0  0  0  0  0  0  0  0  0  0  0  0
  191.0070  177.4790  142.8280 C   0  0  0  0  0  0  0  0  0  0  0  0
  191.7490  177.7800  140.4750 C   0  0  0  0  0  2  0  0  0  0  0  0
  189.4790  176.7350  141.0290 C   0  0  1  0  0  3  0  0  0  0  0  0
  192.7780  174.7290  135.1660 C   0  0  2  0  0  3  0  0  0  0  0  0
  190.8810  175.9230  139.0740 C   0  0  0  0  0  2  0  0  0  0  0  0
  191.0850  176.2490  135.3990 C   0  0  0  0  0  0  0  0  0  0  0  0
  188.9290  177.5810  135.6800 C   0  0  2  0  0  3  0  0  0  0  0  0
  190.2130  177.1810  135.0040 C   0  0  0  0  0  3  0  0  0  0  0  0
  192.1160  175.8440  134.5940 O   0  0  0  0  0  0  0  0  0  0  0  0
  191.5760  176.3250  137.7840 C   0  0  0  0  0  2  0  0  0  0  0  0
  189.0240  178.4170  136.9590 C   0  0  1  0  0  3  0  0  0  0  0  0
  189.7890  178.2130  139.0290 C   0  0  0  0  0  2  0  0  0  0  0  0
  190.1560  176.3480  142.3450 C   0  0  0  0  0  2  0  0  0  0  0  0
  190.4640  177.1500  139.9050 C   0  0  2  0  0  0  0  0  0  0  0  0
  187.9120  179.4520  136.9490 C   0  0  0  0  0  1  0  0  0  0  0  0
  192.0760  174.4050  136.4270 N   0  0  0  0  0  0  0  0  0  0  0  0
  191.5370  178.4750  141.8210 C   0  0  0  0  0  2  0  0  0  0  0  0
  188.9070  177.6230  138.1070 O   0  0  0  0  0  0  0  0  0  0  0  0
  189.8850  173.1910  136.4170 C   0  0  0  0  0  1  0  0  0  0  0  0
  191.4040  173.1020  136.3650 C   0  0  0  0  0  3  0  0  0  0  0  0
  191.8400  172.3230  135.1410 C   0  0  0  0  0  1  0  0  0  0  0  0
  194.3330  176.2280  134.6880 C   0  0  0  0  0  1  0  0  0  0  0  0
  194.1020  175.0750  135.4460 O   0  0  0  0  0  0  0  0  0  0  0  0
  187.9860  176.5390  135.7400 O   0  0  0  0  0  0  0  0  0  0  0  0
  186.8390  177.1100  135.3950 O   0  0  0  0  0  0  0  0  0  0  0  0
  182.9290  175.3650  136.1470 O   0  0  0  0  0  1  0  0  0  0  0  0
  185.8300  176.2270  135.8110 C   0  0  1  0  0  0  0  0  0  0  0  0
  184.4330  174.5540  137.6910 O   0  0  0  0  0  0  0  0  0  0  0  0
  184.7620  176.7690  136.7780 C   0  0  0  0  0  2  0  0  0  0  0  0
  185.4880  175.1370  134.8150 C   0  0  0  0  0  2  0  0  0  0  0  0
  185.5660  174.0340  137.0570 C   0  0  0  0  0  0  0  0  0  0  0  0
  183.7540  175.7140  137.2220 C   0  0  1  0  0  0  0  0  0  0  0  0
  186.3500  174.8130  136.0330 C   0  0  2  0  0  3  0  0  0  0  0  0
  185.9940  172.9030  137.4080 O   0  0  0  0  0  0  0  0  0  0  0  0
  179.9590  176.8210  140.0370 C   0  0  0  0  0  3  0  0  0  0  0  0
  182.9130  176.2960  138.3130 C   0  0  0  0  0  0  0  0  0  0  0  0
  181.2190  176.7390  139.4600 C   0  0  0  0  0  0  0  0  0  0  0  0
  183.3840  177.1900  139.2320 N   0  0  0  0  0  0  0  0  0  0  0  0
  181.6200  176.0260  138.4460 O   0  0  0  0  0  0  0  0  0  0  0  0
  179.8290  177.6750  141.1500 C   0  0  0  0  0  3  0  0  0  0  0  0
  182.1680  178.2740  141.0120 N   0  0  0  0  0  0  0  0  0  0  0  0
  180.9520  178.4040  141.6320 C   0  0  0  0  0  0  0  0  0  0  0  0
  182.2730  177.4480  139.9400 C   0  0  0  0  0  0  0  0  0  0  0  0
  180.1010  180.5360  142.6280 N   0  0  0  0  0  1  0  0  0  0  0  0
  181.2920  179.0120  143.8990 O   0  0  0  0  0  0  0  0  0  0  0  0
  180.8080  179.3140  142.7760 C   0  0  0  0  0  0  0  0  0  0  0  0
  3 14  1  1  0  0  0
  4  1  1  0  0  0  0
  5  4  2  0  0  0  0
  6 21  1  0  0  0  0
  7  2  1  6  0  0  0
  7 17  1  0  0  0  0
  8 27  1  1  0  0  0
  8 20  1  0  0  0  0
  9 18  1  0  0  0  0
 10  3  1  0  0  0  0
 11 28  1  1  0  0  0
 11 15  1  0  0  0  0
 12 10  2  0  0  0  0
 12 11  1  0  0  0  0
 13  8  1  0  0  0  0
 13 10  1  0  0  0  0
 14  9  1  0  0  0  0
 15 19  1  6  0  0  0
 15 22  1  0  0  0  0
 17  5  1  0  0  0  0
 18 16  1  6  0  0  0
 18  6  1  0  0  0  0
 18  7  1  0  0  0  0
 20  3  1  0  0  0  0
 21  5  1  0  0  0  0
 22 16  1  0  0  0  0
 24 23  1  0  0  0  0
 24 20  1  0  0  0  0
 25 24  1  0  0  0  0
 26 27  1  0  0  0  0
 29 28  1  0  0  0  0
 31 29  1  6  0  0  0
 31 37  1  0  0  0  0
 31 33  1  0  0  0  0
 33 36  1  0  0  0  0
 34 31  1  0  0  0  0
 35 38  2  0  0  0  0
 35 32  1  0  0  0  0
 36 30  1  6  0  0  0
 36 32  1  0  0  0  0
 36 40  1  0  0  0  0
 37 34  1  6  0  0  0
 37 35  1  0  0  0  0
 39 44  1  0  0  0  0
 40 43  1  0  0  0  0
 40 42  2  0  0  0  0
 41 47  1  0  0  0  0
 41 39  2  0  0  0  0
 42 47  1  0  0  0  0
 43 41  1  0  0  0  0
 44 46  2  0  0  0  0
 45 46  1  0  0  0  0
 46 50  1  0  0  0  0
 47 45  2  0  0  0  0
 48 50  1  0  0  0  0
 50 49  2  0  0  0  0
M  END
>  <MODEL>
4

>  <REMARK>
 VINA RESULT:      -4.0      2.172      2.992
  Name = 
  7 active torsions:
  status: ('A' for Active; 'I' for Inactive)
    1  A    between atoms: O_5  and  C_16
    2  A    between atoms: O_5  and  O_24
    3  A    between atoms: C_9  and  C_40
    4  A    between atoms: C_17  and  O_30
    5  A    between atoms: C_20  and  O_24
    6  A    between atoms: C_29  and  C_43
    7  A    between atoms: C_41  and  N_48
                            x       y       z     vdW  Elec       q    Type
                         _______ _______ _______ _____ _____    ______ ____

>  <TORSDO>
F 7

$$$$
=
 OpenBabel11062412553D

 50 56  0  0  1  0  0  0  0  0999 V2000
  190.5400  178.6450  146.8650 C   0  0  0  0  0  1  0  0  0  0  0  0
  188.2220  175.2860  142.3960 O   0  0  0  0  0  1  0  0  0  0  0  0
  190.6540  176.3080  138.5270 C   0  0  2  0  0  3  0  0  0  0  0  0
  190.1270  177.4630  146.1600 N   0  0  0  0  0  0  0  0  0  0  0  0
  189.9260  177.4410  144.8870 C   0  0  0  0  0  0  0  0  0  0  0  0
  190.5330  178.2450  142.6150 C   0  0  0  0  0  2  0  0  0  0  0  0
  188.7240  176.4670  142.9560 C   0  0  1  0  0  3  0  0  0  0  0  0
  192.4990  176.3490  137.0380 C   0  0  2  0  0  3  0  0  0  0  0  0
  190.3150  176.3910  140.9780 C   0  0  0  0  0  2  0  0  0  0  0  0
  190.4050  177.2050  137.3760 C   0  0  0  0  0  0  0  0  0  0  0  0
  187.9330  177.7290  137.7200 C   0  0  2  0  0  3  0  0  0  0  0  0
  189.2780  177.8470  137.0550 C   0  0  0  0  0  3  0  0  0  0  0  0
  191.5120  177.2530  136.5710 O   0  0  0  0  0  0  0  0  0  0  0  0
  190.8430  177.1470  139.7710 C   0  0  0  0  0  2  0  0  0  0  0  0
  187.7510  178.3910  139.0880 C   0  0  1  0  0  3  0  0  0  0  0  0
  188.5390  178.1960  141.1510 C   0  0  0  0  0  2  0  0  0  0  0  0
  189.4880  176.1630  144.2460 C   0  0  0  0  0  2  0  0  0  0  0  0
  189.5220  177.3090  141.9260 C   0  0  2  0  0  0  0  0  0  0  0  0
  186.3640  179.0060  139.1520 C   0  0  0  0  0  1  0  0  0  0  0  0
  191.9390  175.6680  138.2250 N   0  0  0  0  0  0  0  0  0  0  0  0
  190.1060  178.6680  144.0210 C   0  0  0  0  0  2  0  0  0  0  0  0
  187.8970  177.4690  140.1340 O   0  0  0  0  0  0  0  0  0  0  0  0
  190.4620  173.9240  137.1980 C   0  0  0  0  0  1  0  0  0  0  0  0
  191.7250  174.2350  137.9900 C   0  0  0  0  0  3  0  0  0  0  0  0
  192.9300  173.6100  137.3150 C   0  0  0  0  0  1  0  0  0  0  0  0
  194.5240  176.8990  136.3370 C   0  0  0  0  0  1  0  0  0  0  0  0
  193.6390  177.0660  137.4080 O   0  0  0  0  0  0  0  0  0  0  0  0
  187.3780  176.4400  137.6240 O   0  0  0  0  0  0  0  0  0  0  0  0
  186.8420  176.3990  136.4110 O   0  0  0  0  0  0  0  0  0  0  0  0
  182.5870  175.5340  136.1960 O   0  0  0  0  0  1  0  0  0  0  0  0
  185.6020  175.7590  136.5610 C   0  0  1  0  0  0  0  0  0  0  0  0
  183.4890  174.4640  138.0260 O   0  0  0  0  0  0  0  0  0  0  0  0
  184.4770  176.5370  137.2680 C   0  0  0  0  0  2  0  0  0  0  0  0
  185.2780  174.7400  135.4870 C   0  0  0  0  0  2  0  0  0  0  0  0
  184.6020  173.7020  137.6580 C   0  0  0  0  0  0  0  0  0  0  0  0
  183.1950  175.7300  137.4410 C   0  0  1  0  0  0  0  0  0  0  0  0
  185.7470  174.2740  136.8620 C   0  0  2  0  0  3  0  0  0  0  0  0
  184.6900  172.5160  138.0700 O   0  0  0  0  0  0  0  0  0  0  0  0
  179.6150  178.6320  138.9600 C   0  0  0  0  0  3  0  0  0  0  0  0
  182.2660  176.5020  138.3220 C   0  0  0  0  0  0  0  0  0  0  0  0
  180.7130  177.7860  138.8880 C   0  0  0  0  0  0  0  0  0  0  0  0
  182.3990  176.5720  139.6790 N   0  0  0  0  0  0  0  0  0  0  0  0
  181.2620  177.2280  137.8470 O   0  0  0  0  0  0  0  0  0  0  0  0
  179.2380  179.0680  140.2450 C   0  0  0  0  0  3  0  0  0  0  0  0
  181.0430  177.8090  141.2460 N   0  0  0  0  0  0  0  0  0  0  0  0
  179.9670  178.6460  141.3910 C   0  0  0  0  0  0  0  0  0  0  0  0
  181.3930  177.4000  139.9990 C   0  0  0  0  0  0  0  0  0  0  0  0
  179.5800  178.2280  143.8280 N   0  0  0  0  0  1  0  0  0  0  0  0
  179.2860  180.3330  142.9120 O   0  0  0  0  0  0  0  0  0  0  0  0
  179.5880  179.1240  142.7270 C   0  0  0  0  0  0  0  0  0  0  0  0
  3 14  1  1  0  0  0
  4  1  1  0  0  0  0
  5  4  2  0  0  0  0
  6 21  1  0  0  0  0
  7  2  1  6  0  0  0
  7 17  1  0  0  0  0
  8 27  1  1  0  0  0
  8 20  1  0  0  0  0
 10  3  1  0  0  0  0
 11 28  1  1  0  0  0
 11 15  1  0  0  0  0
 12 10  2  0  0  0  0
 12 11  1  0  0  0  0
 13  8  1  0  0  0  0
 13 10  1  0  0  0  0
 14  9  1  0  0  0  0
 15 19  1  6  0  0  0
 15 22  1  0  0  0  0
 16 18  1  0  0  0  0
 17  5  1  0  0  0  0
 18  9  1  6  0  0  0
 18  6  1  0  0  0  0
 18  7  1  0  0  0  0
 20  3  1  0  0  0  0
 21  5  1  0  0  0  0
 22 16  1  0  0  0  0
 23 24  1  0  0  0  0
 24 20  1  0  0  0  0
 25 24  1  0  0  0  0
 26 27  1  0  0  0  0
 29 28  1  0  0  0  0
 31 29  1  6  0  0  0
 31 37  1  0  0  0  0
 31 33  1  0  0  0  0
 33 36  1  0  0  0  0
 34 31  1  0  0  0  0
 35 32  1  0  0  0  0
 35 38  2  0  0  0  0
 36 30  1  6  0  0  0
 36 32  1  0  0  0  0
 36 40  1  0  0  0  0
 37 34  1  6  0  0  0
 37 35  1  0  0  0  0
 39 44  1  0  0  0  0
 40 42  2  0  0  0  0
 41 39  2  0  0  0  0
 41 47  1  0  0  0  0
 42 47  1  0  0  0  0
 43 40  1  0  0  0  0
 43 41  1  0  0  0  0
 44 46  2  0  0  0  0
 45 46  1  0  0  0  0
 46 50  1  0  0  0  0
 47 45  2  0  0  0  0
 50 49  2  0  0  0  0
 50 48  1  0  0  0  0
M  END
>  <MODEL>
5

>  <REMARK>
 VINA RESULT:      -3.1      2.612      3.595
  Name = 
  7 active torsions:
  status: ('A' for Active; 'I' for Inactive)
    1  A    between atoms: O_5  and  C_16
    2  A    between atoms: O_5  and  O_24
    3  A    between atoms: C_9  and  C_40
    4  A    between atoms: C_17  and  O_30
    5  A    between atoms: C_20  and  O_24
    6  A    between atoms: C_29  and  C_43
    7  A    between atoms: C_41  and  N_48
                            x       y       z     vdW  Elec       q    Type
                         _______ _______ _______ _____ _____    ______ ____

>  <TORSDO>
F 7

$$$$
=
 OpenBabel11062412553D

 50 56  0  0  1  0  0  0  0  0999 V2000
  191.8340  177.8270  146.7260 C   0  0  0  0  0  1  0  0  0  0  0  0
  188.4070  175.2920  142.4300 O   0  0  0  0  0  1  0  0  0  0  0  0
  190.5090  176.1480  138.3330 C   0  0  2  0  0  3  0  0  0  0  0  0
  191.1240  176.7960  146.0200 N   0  0  0  0  0  0  0  0  0  0  0  0
  190.7720  176.9080  144.7850 C   0  0  0  0  0  0  0  0  0  0  0  0
  191.2450  177.7590  142.4980 C   0  0  0  0  0  2  0  0  0  0  0  0
  189.1860  176.3170  142.9800 C   0  0  1  0  0  3  0  0  0  0  0  0
  192.1370  175.9680  136.6200 C   0  0  2  0  0  3  0  0  0  0  0  0
  190.4860  176.1050  140.8090 C   0  0  0  0  0  2  0  0  0  0  0  0
  190.2980  177.1600  137.2740 C   0  0  0  0  0  0  0  0  0  0  0  0
  188.0290  178.0950  137.9670 C   0  0  2  0  0  3  0  0  0  0  0  0
  189.2820  178.0180  137.1380 C   0  0  0  0  0  3  0  0  0  0  0  0
  191.2900  177.0680  136.3340 O   0  0  0  0  0  0  0  0  0  0  0  0
  191.0000  176.8420  139.5840 C   0  0  0  0  0  2  0  0  0  0  0  0
  188.1400  178.6730  139.3800 C   0  0  1  0  0  3  0  0  0  0  0  0
  189.1170  178.1820  141.3080 C   0  0  0  0  0  2  0  0  0  0  0  0
  190.0270  175.7830  144.1400 C   0  0  0  0  0  2  0  0  0  0  0  0
  190.0000  177.0760  141.9000 C   0  0  2  0  0  0  0  0  0  0  0  0
  186.9120  179.5230  139.6570 C   0  0  0  0  0  1  0  0  0  0  0  0
  191.6030  175.3110  137.8330 N   0  0  0  0  0  0  0  0  0  0  0  0
  191.0760  178.1440  143.9680 C   0  0  0  0  0  2  0  0  0  0  0  0
  188.2320  177.6630  140.3470 O   0  0  0  0  0  0  0  0  0  0  0  0
  189.6500  173.9370  137.0770 C   0  0  0  0  0  1  0  0  0  0  0  0
  191.0970  173.9620  137.5520 C   0  0  0  0  0  3  0  0  0  0  0  0
  191.9850  173.2430  136.5570 C   0  0  0  0  0  1  0  0  0  0  0  0
  194.2670  175.5340  136.2120 C   0  0  0  0  0  1  0  0  0  0  0  0
  193.4280  176.4360  136.8740 O   0  0  0  0  0  0  0  0  0  0  0  0
  187.2330  176.9390  137.8770 O   0  0  0  0  0  0  0  0  0  0  0  0
  186.3510  177.2160  136.9250 O   0  0  0  0  0  0  0  0  0  0  0  0
  182.9090  178.7460  139.0950 O   0  0  0  0  0  1  0  0  0  0  0  0
  185.1050  177.2920  137.5670 C   0  0  1  0  0  0  0  0  0  0  0  0
  183.0720  176.4740  139.4340 O   0  0  0  0  0  0  0  0  0  0  0  0
  185.0860  177.7530  139.0360 C   0  0  0  0  0  2  0  0  0  0  0  0
  183.9340  177.5850  136.6500 C   0  0  0  0  0  2  0  0  0  0  0  0
  183.1640  175.7940  138.2150 C   0  0  0  0  0  0  0  0  0  0  0  0
  183.6940  177.7350  139.6600 C   0  0  1  0  0  0  0  0  0  0  0  0
  184.1690  176.1640  137.1560 C   0  0  2  0  0  3  0  0  0  0  0  0
  182.4320  174.7880  138.0240 O   0  0  0  0  0  0  0  0  0  0  0  0
  182.7010  178.9610  144.2490 C   0  0  0  0  0  3  0  0  0  0  0  0
  183.8320  177.9870  141.1270 C   0  0  0  0  0  0  0  0  0  0  0  0
  183.3240  178.5580  143.0760 C   0  0  0  0  0  0  0  0  0  0  0  0
  185.0100  177.8610  141.8050 N   0  0  0  0  0  0  0  0  0  0  0  0
  182.8240  178.4050  141.8830 O   0  0  0  0  0  0  0  0  0  0  0  0
  183.5050  179.0160  145.4040 C   0  0  0  0  0  3  0  0  0  0  0  0
  185.4340  178.2810  144.1430 N   0  0  0  0  0  0  0  0  0  0  0  0
  184.8830  178.6710  145.3370 C   0  0  0  0  0  0  0  0  0  0  0  0
  184.6430  178.2350  143.0400 C   0  0  0  0  0  0  0  0  0  0  0  0
  186.7240  177.7740  146.7770 N   0  0  0  0  0  1  0  0  0  0  0  0
  185.5850  179.7050  147.3530 O   0  0  0  0  0  0  0  0  0  0  0  0
  185.7260  178.7550  146.5380 C   0  0  0  0  0  0  0  0  0  0  0  0
  3 14  1  1  0  0  0
  4  1  1  0  0  0  0
  5  4  2  0  0  0  0
  6 21  1  0  0  0  0
  7  2  1  6  0  0  0
  7 17  1  0  0  0  0
  8 27  1  1  0  0  0
  8 20  1  0  0  0  0
 10  3  1  0  0  0  0
 11 28  1  1  0  0  0
 11 15  1  0  0  0  0
 12 10  2  0  0  0  0
 12 11  1  0  0  0  0
 13  8  1  0  0  0  0
 13 10  1  0  0  0  0
 14  9  1  0  0  0  0
 15 19  1  1  0  0  0
 15 22  1  0  0  0  0
 16 18  1  0  0  0  0
 17  5  1  0  0  0  0
 18  9  1  6  0  0  0
 18  6  1  0  0  0  0
 18  7  1  0  0  0  0
 20  3  1  0  0  0  0
 21  5  1  0  0  0  0
 22 16  1  0  0  0  0
 23 24  1  0  0  0  0
 24 20  1  0  0  0  0
 25 24  1  0  0  0  0
 26 27  1  0  0  0  0
 29 28  1  0  0  0  0
 31 29  1  6  0  0  0
 31 33  1  0  0  0  0
 32 36  1  0  0  0  0
 33 36  1  0  0  0  0
 34 31  1  0  0  0  0
 35 32  1  0  0  0  0
 36 30  1  6  0  0  0
 36 40  1  0  0  0  0
 37 34  1  6  0  0  0
 37 31  1  0  0  0  0
 37 35  1  0  0  0  0
 38 35  2  0  0  0  0
 39 44  1  0  0  0  0
 40 42  2  0  0  0  0
 40 43  1  0  0  0  0
 41 39  2  0  0  0  0
 42 47  1  0  0  0  0
 43 41  1  0  0  0  0
 45 46  1  0  0  0  0
 46 44  2  0  0  0  0
 46 50  1  0  0  0  0
 47 41  1  0  0  0  0
 47 45  2  0  0  0  0
 50 48  1  0  0  0  0
 50 49  2  0  0  0  0
M  END
>  <MODEL>
6

>  <REMARK>
 VINA RESULT:      -2.7      1.602      2.004
  Name = 
  7 active torsions:
  status: ('A' for Active; 'I' for Inactive)
    1  A    between atoms: O_5  and  C_16
    2  A    between atoms: O_5  and  O_24
    3  A    between atoms: C_9  and  C_40
    4  A    between atoms: C_17  and  O_30
    5  A    between atoms: C_20  and  O_24
    6  A    between atoms: C_29  and  C_43
    7  A    between atoms: C_41  and  N_48
                            x       y       z     vdW  Elec       q    Type
                         _______ _______ _______ _____ _____    ______ ____

>  <TORSDO>
F 7

$$$$
=
 OpenBabel11062412553D

 50 56  0  0  1  0  0  0  0  0999 V2000
  185.0030  178.4900  146.2840 C   0  0  0  0  0  1  0  0  0  0  0  0
  186.1370  179.4380  140.4140 O   0  0  0  0  0  1  0  0  0  0  0  0
  181.9910  179.9260  138.2920 C   0  0  2  0  0  3  0  0  0  0  0  0
  185.5510  179.1220  145.1150 N   0  0  0  0  0  0  0  0  0  0  0  0
  185.0710  178.9430  143.9320 C   0  0  0  0  0  0  0  0  0  0  0  0
  183.1050  178.5620  142.4600 C   0  0  0  0  0  2  0  0  0  0  0  0
  185.4550  178.8540  141.4890 C   0  0  1  0  0  3  0  0  0  0  0  0
  179.9440  180.9520  137.6800 C   0  0  2  0  0  3  0  0  0  0  0  0
  183.4020  179.7880  140.3220 C   0  0  0  0  0  2  0  0  0  0  0  0
  181.1310  179.0050  137.5150 C   0  0  0  0  0  0  0  0  0  0  0  0
  182.7570  177.0840  137.1060 C   0  0  2  0  0  3  0  0  0  0  0  0
  181.4270  177.7860  137.0540 C   0  0  0  0  0  3  0  0  0  0  0  0
  179.9340  179.6080  137.2330 O   0  0  0  0  0  0  0  0  0  0  0  0
  182.0440  179.4560  139.7280 C   0  0  0  0  0  2  0  0  0  0  0  0
  183.2210  176.5290  138.4550 C   0  0  1  0  0  3  0  0  0  0  0  0
  183.7960  177.2850  140.4570 C   0  0  0  0  0  2  0  0  0  0  0  0
  185.7180  179.6370  142.7760 C   0  0  0  0  0  2  0  0  0  0  0  0
  183.9520  178.6310  141.1760 C   0  0  2  0  0  0  0  0  0  0  0  0
  183.9030  175.1920  138.2230 C   0  0  0  0  0  1  0  0  0  0  0  0
  181.2760  181.2060  138.2710 N   0  0  0  0  0  0  0  0  0  0  0  0
  183.8820  178.0450  143.6720 C   0  0  0  0  0  2  0  0  0  0  0  0
  184.1140  177.4000  139.0930 O   0  0  0  0  0  0  0  0  0  0  0  0
  181.1840  183.1660  136.7140 C   0  0  0  0  0  1  0  0  0  0  0  0
  182.0470  182.1830  137.4940 C   0  0  0  0  0  3  0  0  0  0  0  0
  183.0220  182.9330  138.3790 C   0  0  0  0  0  1  0  0  0  0  0  0
  179.4110  182.1930  139.4330 C   0  0  0  0  0  1  0  0  0  0  0  0
  178.9610  181.1170  138.6590 O   0  0  0  0  0  0  0  0  0  0  0  0
  183.7620  177.7440  136.3760 O   0  0  0  0  0  0  0  0  0  0  0  0
  184.3680  176.7800  135.6970 O   0  0  0  0  0  0  0  0  0  0  0  0
  188.5460  177.2720  134.6030 O   0  0  0  0  0  1  0  0  0  0  0  0
  185.7400  177.0640  135.7680 C   0  0  1  0  0  0  0  0  0  0  0  0
  188.3950  176.8780  136.8670 O   0  0  0  0  0  0  0  0  0  0  0  0
  186.7230  175.9380  135.3930 C   0  0  0  0  0  2  0  0  0  0  0  0
  186.1030  178.5160  135.5300 C   0  0  0  0  0  2  0  0  0  0  0  0
  187.4900  177.7600  137.4670 C   0  0  0  0  0  0  0  0  0  0  0  0
  188.1870  176.3270  135.5700 C   0  0  1  0  0  0  0  0  0  0  0  0
  186.0890  177.9580  136.9500 C   0  0  2  0  0  3  0  0  0  0  0  0
  187.8320  178.3560  138.5220 O   0  0  0  0  0  0  0  0  0  0  0  0
  189.5420  171.7120  134.9250 C   0  0  0  0  0  3  0  0  0  0  0  0
  189.0250  175.1010  135.3900 C   0  0  0  0  0  0  0  0  0  0  0  0
  189.5200  173.0840  135.1320 C   0  0  0  0  0  0  0  0  0  0  0  0
  190.3890  175.1050  135.4600 N   0  0  0  0  0  0  0  0  0  0  0  0
  188.5040  173.8960  135.1960 O   0  0  0  0  0  0  0  0  0  0  0  0
  190.8100  171.0990  134.8860 C   0  0  0  0  0  3  0  0  0  0  0  0
  191.8930  173.2290  135.2570 N   0  0  0  0  0  0  0  0  0  0  0  0
  191.9890  171.8760  135.0560 C   0  0  0  0  0  0  0  0  0  0  0  0
  190.6620  173.8020  135.2930 C   0  0  0  0  0  0  0  0  0  0  0  0
  193.4410  169.8910  134.5940 N   0  0  0  0  0  1  0  0  0  0  0  0
  194.3340  171.8650  135.4090 O   0  0  0  0  0  0  0  0  0  0  0  0
  193.3090  171.2310  135.0420 C   0  0  0  0  0  0  0  0  0  0  0  0
  3 14  1  1  0  0  0
  4  1  1  0  0  0  0
  5  4  2  0  0  0  0
  6 21  1  0  0  0  0
  7  2  1  6  0  0  0
  7 17  1  0  0  0  0
  8 20  1  0  0  0  0
  8 27  1  1  0  0  0
 10  3  1  0  0  0  0
 11 28  1  1  0  0  0
 11 15  1  0  0  0  0
 12 11  1  0  0  0  0
 12 10  2  0  0  0  0
 13 10  1  0  0  0  0
 13  8  1  0  0  0  0
 14  9  1  0  0  0  0
 15 19  1  6  0  0  0
 15 22  1  0  0  0  0
 16 18  1  0  0  0  0
 17  5  1  0  0  0  0
 18  9  1  6  0  0  0
 18  7  1  0  0  0  0
 18  6  1  0  0  0  0
 20  3  1  0  0  0  0
 21  5  1  0  0  0  0
 22 16  1  0  0  0  0
 23 24  1  0  0  0  0
 24 20  1  0  0  0  0
 24 25  1  0  0  0  0
 27 26  1  0  0  0  0
 29 28  1  0  0  0  0
 31 29  1  6  0  0  0
 31 37  1  0  0  0  0
 32 35  1  0  0  0  0
 33 36  1  0  0  0  0
 33 31  1  0  0  0  0
 34 31  1  0  0  0  0
 35 38  2  0  0  0  0
 36 30  1  6  0  0  0
 36 32  1  0  0  0  0
 37 34  1  6  0  0  0
 37 35  1  0  0  0  0
 39 41  1  0  0  0  0
 40 42  2  0  0  0  0
 40 36  1  0  0  0  0
 41 43  1  0  0  0  0
 41 47  2  0  0  0  0
 43 40  1  0  0  0  0
 44 39  2  0  0  0  0
 44 46  1  0  0  0  0
 45 47  1  0  0  0  0
 46 45  2  0  0  0  0
 47 42  1  0  0  0  0
 48 50  1  0  0  0  0
 50 46  1  0  0  0  0
 50 49  2  0  0  0  0
M  END
>  <MODEL>
7

>  <REMARK>
 VINA RESULT:      -2.3      2.858      9.295
  Name = 
  7 active torsions:
  status: ('A' for Active; 'I' for Inactive)
    1  A    between atoms: O_5  and  C_16
    2  A    between atoms: O_5  and  O_24
    3  A    between atoms: C_9  and  C_40
    4  A    between atoms: C_17  and  O_30
    5  A    between atoms: C_20  and  O_24
    6  A    between atoms: C_29  and  C_43
    7  A    between atoms: C_41  and  N_48
                            x       y       z     vdW  Elec       q    Type
                         _______ _______ _______ _____ _____    ______ ____

>  <TORSDO>
F 7

$$$$
