=
 OpenBabel11062415303D

 37 40  0  0  1  0  0  0  0  0999 V2000
  185.2890  177.2300  137.7260 C   0  0  0  0  0  0  0  0  0  0  0  0
  187.3060  177.6710  138.2260 C   0  0  0  0  0  0  0  0  0  0  0  0
  184.0880  176.4730  137.2400 C   0  0  0  0  0  2  0  0  0  0  0  0
  181.9970  177.8620  137.2960 C   0  0  0  0  0  0  0  0  0  0  0  0
  181.5640  177.3910  139.6430 N   0  0  0  0  0  0  0  0  0  0  0  0
  185.3200  178.3370  138.5500 C   0  0  0  0  0  0  0  0  0  0  0  0
  184.1450  179.1170  139.0400 C   0  0  1  0  0  3  0  0  0  0  0  0
  183.6530  177.5050  140.9930 C   0  0  0  0  0  2  0  0  0  0  0  0
  183.1140  177.3340  136.4420 C   0  0  0  0  0  2  0  0  0  0  0  0
  181.6320  179.0180  137.1520 O   0  0  0  0  0  0  0  0  0  0  0  0
  182.7580  176.6640  140.0800 C   0  0  0  0  0  2  0  0  0  0  0  0
  186.5450  176.7960  137.5320 N   0  0  0  0  0  0  0  0  0  0  0  0
  181.2790  176.9780  138.2720 C   0  0  0  0  0  2  0  0  0  0  0  0
  186.5940  178.6260  138.8650 N   0  0  0  0  0  2  0  0  0  0  0  0
  183.8860  178.9500  140.5350 C   0  0  0  0  0  2  0  0  0  0  0  0
  184.3130  180.4570  138.7450 F   0  0  0  0  0  0  0  0  0  0  0  0
  189.1820  176.2080  138.3400 O   0  0  0  0  0  1  0  0  0  0  0  0
  189.4210  178.2320  137.1310 C   0  0  0  0  0  1  0  0  0  0  0  0
  188.8040  177.5550  138.3460 C   0  0  1  0  0  0  0  0  0  0  0  0
  189.2810  178.2220  139.5750 N   0  0  0  0  0  0  0  0  0  0  0  0
  190.6410  178.2160  139.5930 O   0  0  0  0  0  1  0  0  0  0  0  0
  188.9510  176.9260  143.8990 C   0  0  0  0  0  2  0  0  0  0  0  0
  189.2750  176.0070  142.7300 C   0  0  0  0  0  2  0  0  0  0  0  0
  186.9850  177.8710  142.4970 C   0  0  0  0  0  2  0  0  0  0  0  0
  188.0260  178.5920  141.6510 C   0  0  0  0  0  2  0  0  0  0  0  0
  187.5120  177.4500  143.8730 C   0  0  0  0  0  2  0  0  0  0  0  0
  189.8590  176.8260  141.5860 C   0  0  0  0  0  2  0  0  0  0  0  0
  188.7720  177.5740  140.7970 C   0  0  0  0  0  3  0  0  0  0  0  0
  180.3760  177.0930  140.4660 C   0  0  1  0  0  3  0  0  0  0  0  0
  179.5390  178.2840  140.9930 C   0  0  1  0  0  3  0  0  0  0  0  0
  179.8300  180.3700  142.0820 C   0  0  0  0  0  2  0  0  0  0  0  0
  179.1740  178.1110  142.3360 O   0  0  0  0  0  0  0  0  0  0  0  0
  180.2030  179.6360  140.8290 C   0  0  0  0  0  2  0  0  0  0  0  0
  178.9310  179.4040  142.8180 C   0  0  0  0  0  2  0  0  0  0  0  0
  179.5550  175.9830  139.8900 C   0  0  0  0  0  0  0  0  0  0  0  0
  179.4670  174.7750  140.5660 O   0  0  0  0  0  1  0  0  0  0  0  0
  178.9380  176.1360  138.8040 O   0  0  0  0  0  0  0  0  0  0  0  0
  1  6  2  0  0  0  0
  2 19  1  0  0  0  0
  2 14  1  0  0  0  0
  3  1  1  0  0  0  0
  4 13  1  0  0  0  0
  5 11  1  0  0  0  0
  5 29  1  0  0  0  0
  6 14  1  0  0  0  0
  6  7  1  0  0  0  0
  7 16  1  1  0  0  0
  7 15  1  0  0  0  0
  9  3  1  0  0  0  0
  9  4  1  0  0  0  0
 10  4  2  0  0  0  0
 11  8  1  0  0  0  0
 12  1  1  0  0  0  0
 12  2  2  0  0  0  0
 13  5  1  0  0  0  0
 15  8  1  0  0  0  0
 17 19  1  0  0  0  0
 19 18  1  6  0  0  0
 19 20  1  0  0  0  0
 20 21  1  0  0  0  0
 20 28  1  0  0  0  0
 23 22  1  0  0  0  0
 24 26  1  0  0  0  0
 25 24  1  0  0  0  0
 26 22  1  0  0  0  0
 27 23  1  0  0  0  0
 28 27  1  0  0  0  0
 28 25  1  0  0  0  0
 29 35  1  6  0  0  0
 30 29  1  1  0  0  0
 30 32  1  0  0  0  0
 31 34  1  0  0  0  0
 32 34  1  0  0  0  0
 33 30  1  0  0  0  0
 33 31  1  0  0  0  0
 35 36  1  0  0  0  0
 37 35  2  0  0  0  0
M  END
>  <MODEL>
1

>  <REMARK>
 VINA RESULT:      -7.4      0.000      0.000
  Name = 
  6 active torsions:
  status: ('A' for Active; 'I' for Inactive)
    1  A    between atoms: C_2  and  C_37
    2  A    between atoms: C_5  and  C_23
    3  A    between atoms: N_6  and  C_33
    4  A    between atoms: N_6  and  C_37
    5  A    between atoms: C_7  and  C_23
    6  A    between atoms: N_13  and  C_23
                            x       y       z     vdW  Elec       q    Type
                         _______ _______ _______ _____ _____    ______ ____

>  <TORSDO>
F 6

$$$$
=
 OpenBabel11062415303D

 37 40  0  0  1  0  0  0  0  0999 V2000
  184.1190  178.9740  140.9710 C   0  0  0  0  0  0  0  0  0  0  0  0
  184.3140  178.8650  143.0840 C   0  0  0  0  0  0  0  0  0  0  0  0
  184.4910  178.9880  139.5180 C   0  0  0  0  0  2  0  0  0  0  0  0
  182.5120  179.4070  138.0300 C   0  0  0  0  0  0  0  0  0  0  0  0
  181.8360  177.0700  138.0150 N   0  0  0  0  0  0  0  0  0  0  0  0
  182.8800  178.7300  141.5290 C   0  0  0  0  0  0  0  0  0  0  0  0
  181.5910  178.5560  140.7970 C   0  0  1  0  0  3  0  0  0  0  0  0
  182.0050  176.0620  140.2850 C   0  0  0  0  0  2  0  0  0  0  0  0
  183.7090  180.0140  138.7040 C   0  0  0  0  0  2  0  0  0  0  0  0
  181.4580  180.0220  138.0180 O   0  0  0  0  0  0  0  0  0  0  0  0
  182.7280  176.4420  138.9910 C   0  0  0  0  0  2  0  0  0  0  0  0
  185.0330  179.0440  141.9530 N   0  0  0  0  0  0  0  0  0  0  0  0
  182.6070  178.0920  137.3140 C   0  0  0  0  0  2  0  0  0  0  0  0
  182.9950  178.6670  142.8670 N   0  0  0  0  0  2  0  0  0  0  0  0
  181.0540  177.1270  140.8440 C   0  0  0  0  0  2  0  0  0  0  0  0
  180.6410  179.4250  141.3000 F   0  0  0  0  0  0  0  0  0  0  0  0
  185.6930  179.9620  144.6860 O   0  0  0  0  0  1  0  0  0  0  0  0
  183.7980  178.7790  145.4740 C   0  0  0  0  0  1  0  0  0  0  0  0
  184.9300  178.8110  144.4590 C   0  0  1  0  0  0  0  0  0  0  0  0
  185.7610  177.5990  144.6100 N   0  0  0  0  0  0  0  0  0  0  0  0
  185.6640  177.1430  145.8880 O   0  0  0  0  0  1  0  0  0  0  0  0
  190.2430  177.0300  144.3410 C   0  0  0  0  0  2  0  0  0  0  0  0
  189.5430  178.0950  145.1720 C   0  0  0  0  0  2  0  0  0  0  0  0
  188.7290  177.7110  142.3500 C   0  0  0  0  0  2  0  0  0  0  0  0
  187.5830  177.0170  143.0730 C   0  0  0  0  0  2  0  0  0  0  0  0
  190.1110  177.2570  142.8330 C   0  0  0  0  0  2  0  0  0  0  0  0
  188.1200  177.6450  145.4810 C   0  0  0  0  0  2  0  0  0  0  0  0
  187.1770  177.8480  144.2850 C   0  0  0  0  0  3  0  0  0  0  0  0
  181.3190  176.1190  137.0120 C   0  0  1  0  0  3  0  0  0  0  0  0
  181.9630  174.7130  136.9410 C   0  0  1  0  0  3  0  0  0  0  0  0
  182.0580  172.8280  135.5070 C   0  0  0  0  0  2  0  0  0  0  0  0
  181.1260  173.7290  137.4870 O   0  0  0  0  0  0  0  0  0  0  0  0
  182.3880  174.2890  135.5500 C   0  0  0  0  0  2  0  0  0  0  0  0
  181.5430  172.5280  136.8960 C   0  0  0  0  0  2  0  0  0  0  0  0
  179.8240  176.1030  136.9690 C   0  0  0  0  0  0  0  0  0  0  0  0
  179.1770  175.7470  135.7940 O   0  0  0  0  0  0  0  0  0  0  0  0
  179.1470  176.4010  137.9880 O   0  0  0  0  0  1  0  0  0  0  0  0
  1  6  2  0  0  0  0
  1 12  1  0  0  0  0
  2 19  1  0  0  0  0
  3  1  1  0  0  0  0
  4  9  1  0  0  0  0
  5 11  1  0  0  0  0
  6 14  1  0  0  0  0
  7 15  1  0  0  0  0
  7 16  1  1  0  0  0
  7  6  1  0  0  0  0
  8 15  1  0  0  0  0
  9  3  1  0  0  0  0
 10  4  2  0  0  0  0
 11  8  1  0  0  0  0
 12  2  2  0  0  0  0
 13  5  1  0  0  0  0
 13  4  1  0  0  0  0
 14  2  1  0  0  0  0
 19 20  1  0  0  0  0
 19 17  1  0  0  0  0
 19 18  1  1  0  0  0
 20 21  1  0  0  0  0
 22 23  1  0  0  0  0
 23 27  1  0  0  0  0
 24 26  1  0  0  0  0
 24 25  1  0  0  0  0
 25 28  1  0  0  0  0
 26 22  1  0  0  0  0
 28 20  1  0  0  0  0
 28 27  1  0  0  0  0
 29 35  1  1  0  0  0
 29  5  1  0  0  0  0
 30 29  1  6  0  0  0
 30 32  1  0  0  0  0
 31 33  1  0  0  0  0
 31 34  1  0  0  0  0
 33 30  1  0  0  0  0
 34 32  1  0  0  0  0
 35 37  1  0  0  0  0
 36 35  2  0  0  0  0
M  END
>  <MODEL>
2

>  <REMARK>
 VINA RESULT:      -7.1      3.110      5.136
  Name = 
  6 active torsions:
  status: ('A' for Active; 'I' for Inactive)
    1  A    between atoms: C_2  and  C_37
    2  A    between atoms: C_5  and  C_23
    3  A    between atoms: N_6  and  C_33
    4  A    between atoms: N_6  and  C_37
    5  A    between atoms: C_7  and  C_23
    6  A    between atoms: N_13  and  C_23
                            x       y       z     vdW  Elec       q    Type
                         _______ _______ _______ _____ _____    ______ ____

>  <TORSDO>
F 6

$$$$
=
 OpenBabel11062415303D

 37 40  0  0  1  0  0  0  0  0999 V2000
  191.0650  177.6040  141.8660 C   0  0  0  0  0  0  0  0  0  0  0  0
  190.8710  176.8190  139.9010 C   0  0  0  0  0  0  0  0  0  0  0  0
  191.3090  178.5800  142.9790 C   0  0  0  0  0  2  0  0  0  0  0  0
  191.1570  177.5050  145.2430 C   0  0  0  0  0  0  0  0  0  0  0  0
  188.7360  177.7180  145.3500 N   0  0  0  0  0  0  0  0  0  0  0  0
  190.3840  176.4040  141.9220 C   0  0  0  0  0  0  0  0  0  0  0  0
  189.8470  175.7400  143.1460 C   0  0  1  0  0  3  0  0  0  0  0  0
  187.6760  177.1330  143.1750 C   0  0  0  0  0  2  0  0  0  0  0  0
  192.0760  177.9790  144.1530 C   0  0  0  0  0  2  0  0  0  0  0  0
  191.3870  176.4420  145.7960 O   0  0  0  0  0  0  0  0  0  0  0  0
  188.3690  178.2040  144.0190 C   0  0  0  0  0  2  0  0  0  0  0  0
  191.3610  177.8780  140.5850 N   0  0  0  0  0  0  0  0  0  0  0  0
  190.0050  178.3450  145.7090 C   0  0  0  0  0  2  0  0  0  0  0  0
  190.2640  175.8980  140.6830 N   0  0  0  0  0  2  0  0  0  0  0  0
  188.3220  175.7430  143.2190 C   0  0  0  0  0  2  0  0  0  0  0  0
  190.3130  174.4400  143.2210 F   0  0  0  0  0  0  0  0  0  0  0  0
  190.4280  177.8760  137.8130 O   0  0  0  0  0  1  0  0  0  0  0  0
  192.3820  176.5480  137.9960 C   0  0  0  0  0  1  0  0  0  0  0  0
  190.9230  176.7050  138.3990 C   0  0  1  0  0  0  0  0  0  0  0  0
  190.1560  175.5290  137.9390 N   0  0  0  0  0  0  0  0  0  0  0  0
  191.0120  174.6090  137.4190 O   0  0  0  0  0  1  0  0  0  0  0  0
  186.7590  175.1240  134.9750 C   0  0  0  0  0  2  0  0  0  0  0  0
  188.2080  175.4190  134.6150 C   0  0  0  0  0  2  0  0  0  0  0  0
  186.9210  176.9820  136.7760 C   0  0  0  0  0  2  0  0  0  0  0  0
  187.7780  176.0230  137.5900 C   0  0  0  0  0  2  0  0  0  0  0  0
  186.0740  176.2790  135.7110 C   0  0  0  0  0  2  0  0  0  0  0  0
  189.1210  174.9230  135.7280 C   0  0  0  0  0  2  0  0  0  0  0  0
  189.1440  175.8840  136.9280 C   0  0  0  0  0  3  0  0  0  0  0  0
  187.7450  178.0690  146.3850 C   0  0  1  0  0  3  0  0  0  0  0  0
  186.2490  177.8190  146.0750 C   0  0  1  0  0  3  0  0  0  0  0  0
  184.3030  179.0100  145.4300 C   0  0  0  0  0  2  0  0  0  0  0  0
  185.4490  177.9660  147.2180 O   0  0  0  0  0  0  0  0  0  0  0  0
  185.6880  178.6810  144.9620 C   0  0  0  0  0  2  0  0  0  0  0  0
  184.1660  178.2520  146.7300 C   0  0  0  0  0  2  0  0  0  0  0  0
  188.1660  177.6130  147.7460 C   0  0  0  0  0  0  0  0  0  0  0  0
  188.3330  178.5460  148.7600 O   0  0  0  0  0  1  0  0  0  0  0  0
  188.3630  176.3920  147.9840 O   0  0  0  0  0  0  0  0  0  0  0  0
  1  6  2  0  0  0  0
  1  3  1  0  0  0  0
  2 12  2  0  0  0  0
  2 14  1  0  0  0  0
  3  9  1  0  0  0  0
  4 13  1  0  0  0  0
  4 10  2  0  0  0  0
  5 13  1  0  0  0  0
  5 29  1  0  0  0  0
  6  7  1  0  0  0  0
  7 15  1  0  0  0  0
  7 16  1  6  0  0  0
  8 15  1  0  0  0  0
  8 11  1  0  0  0  0
  9  4  1  0  0  0  0
 11  5  1  0  0  0  0
 12  1  1  0  0  0  0
 14  6  1  0  0  0  0
 17 19  1  0  0  0  0
 19 18  1  6  0  0  0
 19  2  1  0  0  0  0
 20 19  1  0  0  0  0
 21 20  1  0  0  0  0
 22 26  1  0  0  0  0
 23 22  1  0  0  0  0
 23 27  1  0  0  0  0
 24 25  1  0  0  0  0
 26 24  1  0  0  0  0
 27 28  1  0  0  0  0
 28 25  1  0  0  0  0
 28 20  1  0  0  0  0
 29 35  1  1  0  0  0
 30 29  1  1  0  0  0
 30 32  1  0  0  0  0
 31 34  1  0  0  0  0
 33 31  1  0  0  0  0
 33 30  1  0  0  0  0
 34 32  1  0  0  0  0
 35 37  2  0  0  0  0
 35 36  1  0  0  0  0
M  END
>  <MODEL>
3

>  <REMARK>
 VINA RESULT:      -7.0      5.256      8.066
  Name = 
  6 active torsions:
  status: ('A' for Active; 'I' for Inactive)
    1  A    between atoms: C_2  and  C_37
    2  A    between atoms: C_5  and  C_23
    3  A    between atoms: N_6  and  C_33
    4  A    between atoms: N_6  and  C_37
    5  A    between atoms: C_7  and  C_23
    6  A    between atoms: N_13  and  C_23
                            x       y       z     vdW  Elec       q    Type
                         _______ _______ _______ _____ _____    ______ ____

>  <TORSDO>
F 6

$$$$
=
 OpenBabel11062415303D

 37 40  0  0  1  0  0  0  0  0999 V2000
  184.8940  177.4420  137.4910 C   0  0  0  0  0  0  0  0  0  0  0  0
  186.8770  177.7040  138.2070 C   0  0  0  0  0  0  0  0  0  0  0  0
  183.7050  176.8150  136.8240 C   0  0  0  0  0  2  0  0  0  0  0  0
  181.6930  178.3160  136.8530 C   0  0  0  0  0  0  0  0  0  0  0  0
  181.0220  177.6280  139.0880 N   0  0  0  0  0  0  0  0  0  0  0  0
  184.9060  178.4520  138.4310 C   0  0  0  0  0  0  0  0  0  0  0  0
  183.7330  179.2470  138.9010 C   0  0  1  0  0  3  0  0  0  0  0  0
  182.9820  177.4720  140.6160 C   0  0  0  0  0  2  0  0  0  0  0  0
  182.8540  177.8120  136.0440 C   0  0  0  0  0  2  0  0  0  0  0  0
  181.4020  179.5000  136.8060 O   0  0  0  0  0  0  0  0  0  0  0  0
  182.1320  176.7880  139.5430 C   0  0  0  0  0  2  0  0  0  0  0  0
  186.1390  176.9550  137.3580 N   0  0  0  0  0  0  0  0  0  0  0  0
  180.8430  177.3790  137.6600 C   0  0  0  0  0  2  0  0  0  0  0  0
  186.1590  178.6290  138.8840 N   0  0  0  0  0  2  0  0  0  0  0  0
  183.3300  178.9400  140.3410 C   0  0  0  0  0  2  0  0  0  0  0  0
  183.9960  180.5980  138.7710 F   0  0  0  0  0  0  0  0  0  0  0  0
  188.6150  176.1170  138.5750 O   0  0  0  0  0  1  0  0  0  0  0  0
  189.0960  178.0010  137.2210 C   0  0  0  0  0  1  0  0  0  0  0  0
  188.3490  177.4850  138.4420 C   0  0  1  0  0  0  0  0  0  0  0  0
  188.8010  178.2200  139.6410 N   0  0  0  0  0  0  0  0  0  0  0  0
  190.1580  178.3070  139.6320 O   0  0  0  0  0  1  0  0  0  0  0  0
  188.6380  177.0330  144.0060 C   0  0  0  0  0  2  0  0  0  0  0  0
  189.0010  176.1040  142.8570 C   0  0  0  0  0  2  0  0  0  0  0  0
  186.5890  177.8060  142.6180 C   0  0  0  0  0  2  0  0  0  0  0  0
  187.5630  178.5680  141.7310 C   0  0  0  0  0  2  0  0  0  0  0  0
  187.1680  177.4610  143.9940 C   0  0  0  0  0  2  0  0  0  0  0  0
  189.5080  176.9260  141.6780 C   0  0  0  0  0  2  0  0  0  0  0  0
  188.3590  177.5760  140.8910 C   0  0  0  0  0  3  0  0  0  0  0  0
  179.7500  177.3190  139.7680 C   0  0  1  0  0  3  0  0  0  0  0  0
  179.2500  175.8540  139.7470 C   0  0  1  0  0  3  0  0  0  0  0  0
  180.0880  173.6510  139.4910 C   0  0  0  0  0  2  0  0  0  0  0  0
  178.9310  175.4320  138.4470 O   0  0  0  0  0  0  0  0  0  0  0  0
  180.2050  174.8580  140.3730 C   0  0  0  0  0  2  0  0  0  0  0  0
  179.0290  174.0340  138.4840 C   0  0  0  0  0  2  0  0  0  0  0  0
  179.6560  177.9720  141.1110 C   0  0  0  0  0  0  0  0  0  0  0  0
  180.0190  179.3040  141.2510 O   0  0  0  0  0  0  0  0  0  0  0  0
  179.2440  177.3290  142.1120 O   0  0  0  0  0  1  0  0  0  0  0  0
  1  6  2  0  0  0  0
  2 19  1  0  0  0  0
  2 14  1  0  0  0  0
  3  1  1  0  0  0  0
  4 13  1  0  0  0  0
  5 11  1  0  0  0  0
  5 29  1  0  0  0  0
  6 14  1  0  0  0  0
  6  7  1  0  0  0  0
  7 16  1  1  0  0  0
  7 15  1  0  0  0  0
  9  3  1  0  0  0  0
  9  4  1  0  0  0  0
 10  4  2  0  0  0  0
 11  8  1  0  0  0  0
 12  1  1  0  0  0  0
 12  2  2  0  0  0  0
 13  5  1  0  0  0  0
 15  8  1  0  0  0  0
 19 18  1  6  0  0  0
 19 17  1  0  0  0  0
 19 20  1  0  0  0  0
 20 28  1  0  0  0  0
 21 20  1  0  0  0  0
 23 22  1  0  0  0  0
 24 26  1  0  0  0  0
 25 24  1  0  0  0  0
 26 22  1  0  0  0  0
 27 23  1  0  0  0  0
 28 27  1  0  0  0  0
 28 25  1  0  0  0  0
 29 35  1  1  0  0  0
 30 29  1  6  0  0  0
 30 33  1  0  0  0  0
 31 33  1  0  0  0  0
 32 34  1  0  0  0  0
 32 30  1  0  0  0  0
 34 31  1  0  0  0  0
 35 36  2  0  0  0  0
 35 37  1  0  0  0  0
M  END
>  <MODEL>
4

>  <REMARK>
 VINA RESULT:      -6.7      0.924      2.332
  Name = 
  6 active torsions:
  status: ('A' for Active; 'I' for Inactive)
    1  A    between atoms: C_2  and  C_37
    2  A    between atoms: C_5  and  C_23
    3  A    between atoms: N_6  and  C_33
    4  A    between atoms: N_6  and  C_37
    5  A    between atoms: C_7  and  C_23
    6  A    between atoms: N_13  and  C_23
                            x       y       z     vdW  Elec       q    Type
                         _______ _______ _______ _____ _____    ______ ____

>  <TORSDO>
F 6

$$$$
=
 OpenBabel11062415303D

 37 40  0  0  1  0  0  0  0  0999 V2000
  186.3920  174.9530  136.9250 C   0  0  1  0  0  3  0  0  0  0  0  0
  188.4110  175.6170  136.9490 C   0  0  0  0  0  0  0  0  0  0  0  0
  185.1760  174.1250  137.2140 C   0  0  0  0  0  2  0  0  0  0  0  0
  183.1460  174.9490  135.9870 C   0  0  0  0  0  0  0  0  0  0  0  0
  182.6210  176.6250  137.6700 N   0  0  0  0  0  0  0  0  0  0  0  0
  186.4460  176.2570  136.4750 C   0  0  0  0  0  0  0  0  0  0  0  0
  185.2920  177.0990  136.0430 C   0  0  1  0  0  3  0  0  0  0  0  0
  184.6710  177.8070  138.4450 C   0  0  0  0  0  2  0  0  0  0  0  0
  184.2650  173.9470  136.0030 C   0  0  0  0  0  2  0  0  0  0  0  0
  182.8360  175.4790  134.9320 O   0  0  0  0  0  0  0  0  0  0  0  0
  183.7680  176.5790  138.5790 C   0  0  0  0  0  2  0  0  0  0  0  0
  187.6340  174.5490  137.2420 N   0  0  0  0  0  0  0  0  0  0  0  0
  182.3610  175.2590  137.2270 C   0  0  0  0  0  2  0  0  0  0  0  0
  187.7210  176.6810  136.4810 N   0  0  0  0  0  0  0  0  0  0  0  0
  184.9800  178.2410  137.0070 C   0  0  0  0  0  2  0  0  0  0  0  0
  185.5270  177.6090  134.7790 F   0  0  0  0  0  0  0  0  0  0  0  0
  190.2900  174.5260  137.9250 O   0  0  0  0  0  1  0  0  0  0  0  0
  190.5910  175.6080  135.8380 C   0  0  0  0  0  1  0  0  0  0  0  0
  189.8980  175.6520  137.1920 C   0  0  1  0  0  0  0  0  0  0  0  0
  190.2800  176.8920  137.8990 N   0  0  0  0  0  0  0  0  0  0  0  0
  191.6290  176.9140  138.0730 O   0  0  0  0  0  1  0  0  0  0  0  0
  189.4880  178.1080  142.1870 C   0  0  0  0  0  2  0  0  0  0  0  0
  189.8060  176.6950  141.7200 C   0  0  0  0  0  2  0  0  0  0  0  0
  187.7430  178.2530  140.2740 C   0  0  0  0  0  2  0  0  0  0  0  0
  188.9140  178.3650  139.3070 C   0  0  0  0  0  2  0  0  0  0  0  0
  188.1160  178.6030  141.7180 C   0  0  0  0  0  2  0  0  0  0  0  0
  190.5560  176.7530  140.3950 C   0  0  0  0  0  2  0  0  0  0  0  0
  189.6150  177.0160  139.2090 C   0  0  0  0  0  3  0  0  0  0  0  0
  181.3970  177.1380  138.3140 C   0  0  1  0  0  3  0  0  0  0  0  0
  181.4290  177.3930  139.8410 C   0  0  1  0  0  3  0  0  0  0  0  0
  179.9560  177.8800  141.6330 C   0  0  0  0  0  2  0  0  0  0  0  0
  181.5650  178.7580  140.1370 O   0  0  0  0  0  0  0  0  0  0  0  0
  180.2370  176.8380  140.5940 C   0  0  0  0  0  2  0  0  0  0  0  0
  181.0510  178.9020  141.4330 C   0  0  0  0  0  2  0  0  0  0  0  0
  180.7660  178.2430  137.5280 C   0  0  0  0  0  0  0  0  0  0  0  0
  181.5700  179.1070  136.7970 O   0  0  0  0  0  0  0  0  0  0  0  0
  179.5170  178.3930  137.5150 O   0  0  0  0  0  1  0  0  0  0  0  0
  1  3  1  1  0  0  0
  1 12  1  0  0  0  0
  2 19  1  0  0  0  0
  2 12  2  0  0  0  0
  4  9  1  0  0  0  0
  4 13  1  0  0  0  0
  5 29  1  0  0  0  0
  5 11  1  0  0  0  0
  6 14  2  0  0  0  0
  6  1  1  0  0  0  0
  7 16  1  6  0  0  0
  7  6  1  0  0  0  0
  7 15  1  0  0  0  0
  8 11  1  0  0  0  0
  9  3  1  0  0  0  0
 10  4  2  0  0  0  0
 13  5  1  0  0  0  0
 14  2  1  0  0  0  0
 15  8  1  0  0  0  0
 19 18  1  6  0  0  0
 19 20  1  0  0  0  0
 19 17  1  0  0  0  0
 20 21  1  0  0  0  0
 20 28  1  0  0  0  0
 23 22  1  0  0  0  0
 24 26  1  0  0  0  0
 25 24  1  0  0  0  0
 26 22  1  0  0  0  0
 27 23  1  0  0  0  0
 28 25  1  0  0  0  0
 28 27  1  0  0  0  0
 29 35  1  6  0  0  0
 30 29  1  6  0  0  0
 30 32  1  0  0  0  0
 30 33  1  0  0  0  0
 32 34  1  0  0  0  0
 33 31  1  0  0  0  0
 34 31  1  0  0  0  0
 36 35  2  0  0  0  0
 37 35  1  0  0  0  0
M  END
>  <MODEL>
5

>  <REMARK>
 VINA RESULT:      -6.5      2.120      2.976
  Name = 
  6 active torsions:
  status: ('A' for Active; 'I' for Inactive)
    1  A    between atoms: C_2  and  C_37
    2  A    between atoms: C_5  and  C_23
    3  A    between atoms: N_6  and  C_33
    4  A    between atoms: N_6  and  C_37
    5  A    between atoms: C_7  and  C_23
    6  A    between atoms: N_13  and  C_23
                            x       y       z     vdW  Elec       q    Type
                         _______ _______ _______ _____ _____    ______ ____

>  <TORSDO>
F 6

$$$$
=
 OpenBabel11062415303D

 37 40  0  0  1  0  0  0  0  0999 V2000
  184.5710  177.5190  137.2610 C   0  0  1  0  0  3  0  0  0  0  0  0
  186.6620  177.8850  137.3600 C   0  0  0  0  0  0  0  0  0  0  0  0
  183.2720  176.8260  136.9770 C   0  0  0  0  0  2  0  0  0  0  0  0
  181.2850  178.2350  137.5910 C   0  0  0  0  0  0  0  0  0  0  0  0
  181.3370  177.5600  139.9280 N   0  0  0  0  0  0  0  0  0  0  0  0
  184.8100  178.5470  138.1510 C   0  0  0  0  0  0  0  0  0  0  0  0
  183.7910  179.2960  138.9420 C   0  0  1  0  0  3  0  0  0  0  0  0
  183.6650  177.5220  140.8100 C   0  0  0  0  0  2  0  0  0  0  0  0
  182.1810  177.7690  136.4790 C   0  0  0  0  0  2  0  0  0  0  0  0
  180.9360  179.4030  137.6260 O   0  0  0  0  0  0  0  0  0  0  0  0
  182.5710  176.7800  140.0390 C   0  0  0  0  0  2  0  0  0  0  0  0
  185.7450  177.0860  136.7690 N   0  0  0  0  0  0  0  0  0  0  0  0
  180.7580  177.2760  138.6180 C   0  0  0  0  0  2  0  0  0  0  0  0
  186.1310  178.7880  138.2130 N   0  0  0  0  0  0  0  0  0  0  0  0
  183.8450  178.9990  140.4380 C   0  0  0  0  0  2  0  0  0  0  0  0
  183.9370  180.6550  138.7330 F   0  0  0  0  0  0  0  0  0  0  0  0
  188.4220  177.5400  135.7920 O   0  0  0  0  0  1  0  0  0  0  0  0
  188.8100  179.0340  137.5900 C   0  0  0  0  0  1  0  0  0  0  0  0
  188.1470  177.7370  137.1500 C   0  0  1  0  0  0  0  0  0  0  0  0
  188.6780  176.6160  137.9550 N   0  0  0  0  0  0  0  0  0  0  0  0
  188.9580  177.0560  139.2110 O   0  0  0  0  0  1  0  0  0  0  0  0
  192.6330  174.4460  137.5940 C   0  0  0  0  0  2  0  0  0  0  0  0
  192.4270  175.9370  137.3720 C   0  0  0  0  0  2  0  0  0  0  0  0
  190.5830  174.0240  136.0630 C   0  0  0  0  0  2  0  0  0  0  0  0
  189.7120  174.5200  137.2090 C   0  0  0  0  0  2  0  0  0  0  0  0
  191.9780  173.5790  136.5140 C   0  0  0  0  0  2  0  0  0  0  0  0
  191.1780  176.3950  138.1140 C   0  0  0  0  0  2  0  0  0  0  0  0
  189.8900  176.0260  137.3600 C   0  0  0  0  0  3  0  0  0  0  0  0
  180.3380  177.2070  140.9550 C   0  0  1  0  0  3  0  0  0  0  0  0
  179.4570  178.3410  141.5330 C   0  0  1  0  0  3  0  0  0  0  0  0
  179.6710  180.4840  142.5240 C   0  0  0  0  0  2  0  0  0  0  0  0
  179.2500  178.1880  142.9120 O   0  0  0  0  0  0  0  0  0  0  0  0
  179.9770  179.7380  141.2600 C   0  0  0  0  0  2  0  0  0  0  0  0
  178.9420  179.4730  143.3790 C   0  0  0  0  0  2  0  0  0  0  0  0
  179.5770  175.9690  140.5990 C   0  0  0  0  0  0  0  0  0  0  0  0
  179.2600  175.0520  141.5900 O   0  0  0  0  0  1  0  0  0  0  0  0
  179.2160  175.7550  139.4120 O   0  0  0  0  0  0  0  0  0  0  0  0
  1  3  1  1  0  0  0
  1  6  1  0  0  0  0
  2 14  1  0  0  0  0
  4 10  2  0  0  0  0
  4 13  1  0  0  0  0
  5 11  1  0  0  0  0
  5 29  1  0  0  0  0
  6 14  2  0  0  0  0
  6  7  1  0  0  0  0
  7 16  1  1  0  0  0
  7 15  1  0  0  0  0
  9  3  1  0  0  0  0
  9  4  1  0  0  0  0
 11  8  1  0  0  0  0
 12  1  1  0  0  0  0
 12  2  2  0  0  0  0
 13  5  1  0  0  0  0
 15  8  1  0  0  0  0
 17 19  1  0  0  0  0
 19  2  1  0  0  0  0
 19 18  1  1  0  0  0
 19 20  1  0  0  0  0
 20 21  1  0  0  0  0
 23 22  1  0  0  0  0
 23 27  1  0  0  0  0
 24 26  1  0  0  0  0
 24 25  1  0  0  0  0
 25 28  1  0  0  0  0
 26 22  1  0  0  0  0
 28 20  1  0  0  0  0
 28 27  1  0  0  0  0
 29 35  1  6  0  0  0
 30 29  1  1  0  0  0
 30 32  1  0  0  0  0
 31 34  1  0  0  0  0
 32 34  1  0  0  0  0
 33 30  1  0  0  0  0
 33 31  1  0  0  0  0
 35 36  1  0  0  0  0
 37 35  2  0  0  0  0
M  END
>  <MODEL>
6

>  <REMARK>
 VINA RESULT:      -6.5      2.155      3.118
  Name = 
  6 active torsions:
  status: ('A' for Active; 'I' for Inactive)
    1  A    between atoms: C_2  and  C_37
    2  A    between atoms: C_5  and  C_23
    3  A    between atoms: N_6  and  C_33
    4  A    between atoms: N_6  and  C_37
    5  A    between atoms: C_7  and  C_23
    6  A    between atoms: N_13  and  C_23
                            x       y       z     vdW  Elec       q    Type
                         _______ _______ _______ _____ _____    ______ ____

>  <TORSDO>
F 6

$$$$
=
 OpenBabel11062415303D

 37 40  0  0  1  0  0  0  0  0999 V2000
  188.6240  177.4420  141.0180 C   0  0  0  0  0  0  0  0  0  0  0  0
  186.8380  178.4840  141.5090 C   0  0  0  0  0  0  0  0  0  0  0  0
  189.7010  176.3980  141.0410 C   0  0  0  0  0  2  0  0  0  0  0  0
  191.5710  176.9210  139.4500 C   0  0  0  0  0  0  0  0  0  0  0  0
  190.4230  175.9440  137.5400 N   0  0  0  0  0  0  0  0  0  0  0  0
  188.3260  178.3340  140.0070 C   0  0  0  0  0  0  0  0  0  0  0  0
  189.1050  178.5510  138.7520 C   0  0  1  0  0  3  0  0  0  0  0  0
  188.0130  176.5690  137.5120 C   0  0  0  0  0  2  0  0  0  0  0  0
  191.1040  176.9750  140.8760 C   0  0  0  0  0  2  0  0  0  0  0  0
  192.1680  177.8770  138.9810 O   0  0  0  0  0  0  0  0  0  0  0  0
  189.0900  175.6290  138.0580 C   0  0  0  0  0  2  0  0  0  0  0  0
  187.6740  177.5230  141.9640 N   0  0  0  0  0  0  0  0  0  0  0  0
  191.3790  175.6900  138.6140 C   0  0  0  0  0  2  0  0  0  0  0  0
  187.2010  179.0020  140.3150 N   0  0  0  0  0  2  0  0  0  0  0  0
  188.3860  178.0570  137.4990 C   0  0  0  0  0  2  0  0  0  0  0  0
  189.4110  179.8920  138.6130 F   0  0  0  0  0  0  0  0  0  0  0  0
  185.6810  180.2150  142.6660 O   0  0  0  0  0  1  0  0  0  0  0  0
  184.4300  178.8100  141.2260 C   0  0  0  0  0  1  0  0  0  0  0  0
  185.5760  178.8910  142.2240 C   0  0  1  0  0  0  0  0  0  0  0  0
  185.3040  177.9850  143.3590 N   0  0  0  0  0  0  0  0  0  0  0  0
  183.9770  178.0200  143.6570 O   0  0  0  0  0  1  0  0  0  0  0  0
  186.6140  178.2220  147.6850 C   0  0  0  0  0  2  0  0  0  0  0  0
  186.0570  179.3810  146.8720 C   0  0  0  0  0  2  0  0  0  0  0  0
  188.1980  177.7060  145.6980 C   0  0  0  0  0  2  0  0  0  0  0  0
  186.9810  177.1730  144.9550 C   0  0  0  0  0  2  0  0  0  0  0  0
  187.9990  177.7680  147.2160 C   0  0  0  0  0  2  0  0  0  0  0  0
  185.2160  178.8400  145.7220 C   0  0  0  0  0  2  0  0  0  0  0  0
  186.0850  178.3400  144.5570 C   0  0  0  0  0  3  0  0  0  0  0  0
  190.8030  175.1100  136.3840 C   0  0  1  0  0  3  0  0  0  0  0  0
  192.3060  174.8040  136.1700 C   0  0  1  0  0  3  0  0  0  0  0  0
  194.0410  175.2210  134.6090 C   0  0  0  0  0  2  0  0  0  0  0  0
  192.4980  173.6270  135.4310 O   0  0  0  0  0  0  0  0  0  0  0  0
  193.0870  175.9300  135.5230 C   0  0  0  0  0  2  0  0  0  0  0  0
  193.7730  173.7560  134.8650 C   0  0  0  0  0  2  0  0  0  0  0  0
  189.9140  173.9160  136.2330 C   0  0  0  0  0  0  0  0  0  0  0  0
  189.0970  173.8090  135.1160 O   0  0  0  0  0  0  0  0  0  0  0  0
  189.9060  173.0060  137.1010 O   0  0  0  0  0  1  0  0  0  0  0  0
  1  3  1  0  0  0  0
  1 12  1  0  0  0  0
  2 12  2  0  0  0  0
  2 19  1  0  0  0  0
  4  9  1  0  0  0  0
  5 11  1  0  0  0  0
  5 13  1  0  0  0  0
  6 14  1  0  0  0  0
  6  1  2  0  0  0  0
  7 16  1  6  0  0  0
  7  6  1  0  0  0  0
  8 11  1  0  0  0  0
  9  3  1  0  0  0  0
 10  4  2  0  0  0  0
 13  4  1  0  0  0  0
 14  2  1  0  0  0  0
 15  8  1  0  0  0  0
 15  7  1  0  0  0  0
 19 18  1  6  0  0  0
 19 17  1  0  0  0  0
 19 20  1  0  0  0  0
 20 21  1  0  0  0  0
 20 28  1  0  0  0  0
 23 22  1  0  0  0  0
 24 26  1  0  0  0  0
 25 24  1  0  0  0  0
 26 22  1  0  0  0  0
 27 23  1  0  0  0  0
 28 25  1  0  0  0  0
 28 27  1  0  0  0  0
 29 35  1  1  0  0  0
 29  5  1  0  0  0  0
 30 29  1  6  0  0  0
 31 34  1  0  0  0  0
 31 33  1  0  0  0  0
 32 30  1  0  0  0  0
 33 30  1  0  0  0  0
 34 32  1  0  0  0  0
 35 37  1  0  0  0  0
 36 35  2  0  0  0  0
M  END
>  <MODEL>
7

>  <REMARK>
 VINA RESULT:      -6.5      3.840      8.839
  Name = 
  6 active torsions:
  status: ('A' for Active; 'I' for Inactive)
    1  A    between atoms: C_2  and  C_37
    2  A    between atoms: C_5  and  C_23
    3  A    between atoms: N_6  and  C_33
    4  A    between atoms: N_6  and  C_37
    5  A    between atoms: C_7  and  C_23
    6  A    between atoms: N_13  and  C_23
                            x       y       z     vdW  Elec       q    Type
                         _______ _______ _______ _____ _____    ______ ____

>  <TORSDO>
F 6

$$$$
=
 OpenBabel11062415303D

 37 40  0  0  1  0  0  0  0  0999 V2000
  185.5610  177.2020  137.1570 C   0  0  0  0  0  0  0  0  0  0  0  0
  187.0250  177.9160  138.5220 C   0  0  0  0  0  0  0  0  0  0  0  0
  184.9200  176.3860  136.0740 C   0  0  0  0  0  2  0  0  0  0  0  0
  182.5850  177.1510  135.5590 C   0  0  0  0  0  0  0  0  0  0  0  0
  181.5980  175.8520  137.3640 N   0  0  0  0  0  0  0  0  0  0  0  0
  184.9410  177.9550  138.1350 C   0  0  0  0  0  0  0  0  0  0  0  0
  183.4790  178.2350  138.2520 C   0  0  1  0  0  3  0  0  0  0  0  0
  182.9600  176.0060  139.4430 C   0  0  0  0  0  2  0  0  0  0  0  0
  184.0280  177.2070  135.1480 C   0  0  0  0  0  2  0  0  0  0  0  0
  181.9150  178.1700  135.5250 O   0  0  0  0  0  0  0  0  0  0  0  0
  182.7550  175.3240  138.0880 C   0  0  0  0  0  2  0  0  0  0  0  0
  186.8800  177.1620  137.4090 N   0  0  0  0  0  0  0  0  0  0  0  0
  181.9350  175.8540  135.9430 C   0  0  0  0  0  2  0  0  0  0  0  0
  185.8630  178.4160  138.9980 N   0  0  0  0  0  2  0  0  0  0  0  0
  182.8200  177.5340  139.4370 C   0  0  0  0  0  2  0  0  0  0  0  0
  183.2660  179.5980  138.3410 F   0  0  0  0  0  0  0  0  0  0  0  0
  189.0980  179.0900  138.5430 O   0  0  0  0  0  1  0  0  0  0  0  0
  188.0560  178.6330  140.6220 C   0  0  0  0  0  1  0  0  0  0  0  0
  188.3460  178.1220  139.2190 C   0  0  1  0  0  0  0  0  0  0  0  0
  189.0930  176.8500  139.3040 N   0  0  0  0  0  0  0  0  0  0  0  0
  189.5280  176.6670  140.5790 O   0  0  0  0  0  1  0  0  0  0  0  0
  192.9230  175.4960  137.3070 C   0  0  0  0  0  2  0  0  0  0  0  0
  192.7710  176.7510  138.1540 C   0  0  0  0  0  2  0  0  0  0  0  0
  190.7750  176.2010  136.0360 C   0  0  0  0  0  2  0  0  0  0  0  0
  189.9910  175.7980  137.2770 C   0  0  0  0  0  2  0  0  0  0  0  0
  192.1720  175.5740  135.9740 C   0  0  0  0  0  2  0  0  0  0  0  0
  191.5860  176.5890  139.0970 C   0  0  0  0  0  2  0  0  0  0  0  0
  190.2430  176.8150  138.3840 C   0  0  0  0  0  3  0  0  0  0  0  0
  180.3830  175.0340  137.5440 C   0  0  1  0  0  3  0  0  0  0  0  0
  179.4550  175.3600  138.7390 C   0  0  1  0  0  3  0  0  0  0  0  0
  179.3110  176.8580  140.5710 C   0  0  0  0  0  2  0  0  0  0  0  0
  179.8210  174.6500  139.8920 O   0  0  0  0  0  0  0  0  0  0  0  0
  179.3620  176.8350  139.0730 C   0  0  0  0  0  2  0  0  0  0  0  0
  179.3070  175.3980  140.9600 C   0  0  0  0  0  2  0  0  0  0  0  0
  179.6570  174.8130  136.2550 C   0  0  0  0  0  0  0  0  0  0  0  0
  179.7500  173.5830  135.6180 O   0  0  0  0  0  0  0  0  0  0  0  0
  178.9560  175.7270  135.7460 O   0  0  0  0  0  1  0  0  0  0  0  0
  1 12  1  0  0  0  0
  1  6  2  0  0  0  0
  2 14  1  0  0  0  0
  2 19  1  0  0  0  0
  3  1  1  0  0  0  0
  4 13  1  0  0  0  0
  5 29  1  0  0  0  0
  5 11  1  0  0  0  0
  6  7  1  0  0  0  0
  6 14  1  0  0  0  0
  7 16  1  1  0  0  0
  7 15  1  0  0  0  0
  9  4  1  0  0  0  0
  9  3  1  0  0  0  0
 10  4  2  0  0  0  0
 11  8  1  0  0  0  0
 12  2  2  0  0  0  0
 13  5  1  0  0  0  0
 15  8  1  0  0  0  0
 17 19  1  0  0  0  0
 19 20  1  0  0  0  0
 19 18  1  1  0  0  0
 20 21  1  0  0  0  0
 22 23  1  0  0  0  0
 23 27  1  0  0  0  0
 24 25  1  0  0  0  0
 25 28  1  0  0  0  0
 26 24  1  0  0  0  0
 26 22  1  0  0  0  0
 28 27  1  0  0  0  0
 28 20  1  0  0  0  0
 29 35  1  6  0  0  0
 30 29  1  6  0  0  0
 30 33  1  0  0  0  0
 30 32  1  0  0  0  0
 31 34  1  0  0  0  0
 32 34  1  0  0  0  0
 33 31  1  0  0  0  0
 36 35  2  0  0  0  0
 37 35  1  0  0  0  0
M  END
>  <MODEL>
8

>  <REMARK>
 VINA RESULT:      -6.4      2.148      3.710
  Name = 
  6 active torsions:
  status: ('A' for Active; 'I' for Inactive)
    1  A    between atoms: C_2  and  C_37
    2  A    between atoms: C_5  and  C_23
    3  A    between atoms: N_6  and  C_33
    4  A    between atoms: N_6  and  C_37
    5  A    between atoms: C_7  and  C_23
    6  A    between atoms: N_13  and  C_23
                            x       y       z     vdW  Elec       q    Type
                         _______ _______ _______ _____ _____    ______ ____

>  <TORSDO>
F 6

$$$$
=
 OpenBabel11062415303D

 37 40  0  0  1  0  0  0  0  0999 V2000
  185.6920  175.2290  137.0590 C   0  0  0  0  0  0  0  0  0  0  0  0
  187.2790  176.5840  137.4590 C   0  0  0  0  0  0  0  0  0  0  0  0
  184.9000  173.9560  137.0130 C   0  0  0  0  0  2  0  0  0  0  0  0
  182.7270  174.2250  135.7850 C   0  0  0  0  0  0  0  0  0  0  0  0
  181.5570  175.0900  137.7350 N   0  0  0  0  0  0  0  0  0  0  0  0
  185.2290  176.5230  136.9250 C   0  0  0  0  0  0  0  0  0  0  0  0
  183.8410  176.9410  136.5680 C   0  0  1  0  0  3  0  0  0  0  0  0
  182.9570  176.7270  138.9820 C   0  0  0  0  0  2  0  0  0  0  0  0
  184.1520  173.7570  135.6990 C   0  0  0  0  0  2  0  0  0  0  0  0
  182.2460  174.8450  134.8500 O   0  0  0  0  0  0  0  0  0  0  0  0
  182.6150  175.2560  138.7320 C   0  0  0  0  0  2  0  0  0  0  0  0
  186.9870  175.2640  137.4130 N   0  0  0  0  0  0  0  0  0  0  0  0
  181.8670  173.8870  136.9660 C   0  0  0  0  0  2  0  0  0  0  0  0
  186.2300  177.3860  137.1700 N   0  0  0  0  0  2  0  0  0  0  0  0
  183.0880  177.5940  137.7240 C   0  0  0  0  0  2  0  0  0  0  0  0
  183.8710  177.8030  135.4880 F   0  0  0  0  0  0  0  0  0  0  0  0
  189.4900  176.0640  138.1760 O   0  0  0  0  0  1  0  0  0  0  0  0
  189.2030  177.8830  136.6860 C   0  0  0  0  0  1  0  0  0  0  0  0
  188.6260  177.1210  137.8700 C   0  0  1  0  0  0  0  0  0  0  0  0
  188.4930  178.0340  139.0240 N   0  0  0  0  0  0  0  0  0  0  0  0
  189.0550  179.2340  138.7170 O   0  0  0  0  0  1  0  0  0  0  0  0
  190.9090  177.8200  142.8460 C   0  0  0  0  0  2  0  0  0  0  0  0
  191.2830  177.1500  141.5320 C   0  0  0  0  0  2  0  0  0  0  0  0
  188.5230  176.8450  142.5620 C   0  0  0  0  0  2  0  0  0  0  0  0
  188.3050  177.8790  141.4660 C   0  0  0  0  0  2  0  0  0  0  0  0
  189.6740  177.2020  143.5080 C   0  0  0  0  0  2  0  0  0  0  0  0
  190.6070  177.8780  140.3770 C   0  0  0  0  0  2  0  0  0  0  0  0
  189.1250  177.4930  140.2400 C   0  0  0  0  0  3  0  0  0  0  0  0
  180.2210  174.9150  138.3360 C   0  0  1  0  0  3  0  0  0  0  0  0
  179.4520  176.1820  138.7820 C   0  0  1  0  0  3  0  0  0  0  0  0
  179.6610  178.5440  138.7400 C   0  0  0  0  0  2  0  0  0  0  0  0
  179.8280  176.5930  140.0700 O   0  0  0  0  0  0  0  0  0  0  0  0
  179.5740  177.3560  137.8310 C   0  0  0  0  0  2  0  0  0  0  0  0
  179.5100  177.9570  140.1250 C   0  0  0  0  0  2  0  0  0  0  0  0
  179.3840  173.9350  137.5750 C   0  0  0  0  0  0  0  0  0  0  0  0
  178.9320  174.2620  136.3050 O   0  0  0  0  0  0  0  0  0  0  0  0
  179.0930  172.8160  138.0710 O   0  0  0  0  0  1  0  0  0  0  0  0
  1 12  1  0  0  0  0
  2 19  1  0  0  0  0
  3  1  1  0  0  0  0
  4 13  1  0  0  0  0
  5 29  1  0  0  0  0
  5 11  1  0  0  0  0
  6  1  2  0  0  0  0
  6 14  1  0  0  0  0
  7 16  1  6  0  0  0
  7  6  1  0  0  0  0
  7 15  1  0  0  0  0
  9  4  1  0  0  0  0
  9  3  1  0  0  0  0
 10  4  2  0  0  0  0
 11  8  1  0  0  0  0
 12  2  2  0  0  0  0
 13  5  1  0  0  0  0
 14  2  1  0  0  0  0
 15  8  1  0  0  0  0
 19 18  1  6  0  0  0
 19 17  1  0  0  0  0
 19 20  1  0  0  0  0
 20 28  1  0  0  0  0
 21 20  1  0  0  0  0
 22 26  1  0  0  0  0
 23 22  1  0  0  0  0
 24 26  1  0  0  0  0
 25 24  1  0  0  0  0
 27 23  1  0  0  0  0
 28 27  1  0  0  0  0
 28 25  1  0  0  0  0
 29 35  1  6  0  0  0
 30 29  1  6  0  0  0
 30 32  1  0  0  0  0
 31 34  1  0  0  0  0
 32 34  1  0  0  0  0
 33 31  1  0  0  0  0
 33 30  1  0  0  0  0
 35 37  1  0  0  0  0
 36 35  2  0  0  0  0
M  END
>  <MODEL>
9

>  <REMARK>
 VINA RESULT:      -6.3      2.142      2.776
  Name = 
  6 active torsions:
  status: ('A' for Active; 'I' for Inactive)
    1  A    between atoms: C_2  and  C_37
    2  A    between atoms: C_5  and  C_23
    3  A    between atoms: N_6  and  C_33
    4  A    between atoms: N_6  and  C_37
    5  A    between atoms: C_7  and  C_23
    6  A    between atoms: N_13  and  C_23
                            x       y       z     vdW  Elec       q    Type
                         _______ _______ _______ _____ _____    ______ ____

>  <TORSDO>
F 6

$$$$
