=
 OpenBabel11062417123D

 36 42  0  0  1  0  0  0  0  0999 V2000
  179.9620  178.8420  143.5100 C   0  0  0  0  0  3  0  0  0  0  0  0
  182.1140  178.7450  142.3950 C   0  0  0  0  0  0  0  0  0  0  0  0
  188.1750  177.8980  134.7330 C   0  0  0  0  0  3  0  0  0  0  0  0
  180.0110  178.1750  141.1480 C   0  0  0  0  0  3  0  0  0  0  0  0
  186.4540  178.4650  140.3860 C   0  0  0  0  0  0  0  0  0  0  0  0
  185.9690  178.2210  139.0320 C   0  0  0  0  0  0  0  0  0  0  0  0
  187.3660  177.7640  140.9680 N   0  0  0  0  0  0  0  0  0  0  0  0
  189.4150  177.1340  134.9560 C   0  0  0  0  0  3  0  0  0  0  0  0
  186.8090  177.9560  138.0640 C   0  0  0  0  0  0  0  0  0  0  0  0
  183.6490  178.5820  140.0340 C   0  0  0  0  0  0  0  0  0  0  0  0
  182.7950  176.6000  136.0200 O   0  0  0  0  0  1  0  0  0  0  0  0
  184.2070  178.9020  141.2340 C   0  0  0  0  0  0  0  0  0  0  0  0
  181.5170  178.0500  141.1980 C   0  0  1  0  0  3  0  0  0  0  0  0
  186.2570  178.8760  142.6070 N   0  0  0  0  0  0  0  0  0  0  0  0
  182.2070  178.4750  139.9730 N   0  0  0  0  0  0  0  0  0  0  0  0
  187.3400  178.1620  135.7370 C   0  0  0  0  0  3  0  0  0  0  0  0
  179.3010  178.5000  142.2340 C   0  0  0  0  0  3  0  0  0  0  0  0
  185.6630  179.2670  141.3380 C   0  0  1  0  0  3  0  0  0  0  0  0
  181.4550  178.7970  138.7510 C   0  0  2  0  0  3  0  0  0  0  0  0
  181.5290  177.6590  137.7320 C   0  0  0  0  0  2  0  0  0  0  0  0
  184.4870  178.3830  138.7650 C   0  0  2  0  0  3  0  0  0  0  0  0
  189.7230  176.6420  136.1590 C   0  0  0  0  0  3  0  0  0  0  0  0
  181.2880  178.9740  143.5880 C   0  0  0  0  0  3  0  0  0  0  0  0
  187.2290  178.0610  142.3530 C   0  0  0  0  0  3  0  0  0  0  0  0
  182.8800  177.5570  137.0290 C   0  0  1  0  0  3  0  0  0  0  0  0
  183.3680  179.0850  142.3880 N   0  0  0  0  0  0  0  0  0  0  0  0
  187.6390  177.6890  137.0960 C   0  0  0  0  0  0  0  0  0  0  0  0
  188.8230  176.7980  137.3600 C   0  0  0  0  0  2  0  0  0  0  0  0
  183.9790  177.1620  138.0000 C   0  0  0  0  0  2  0  0  0  0  0  0
  181.2670  182.6310  137.9860 C   0  0  0  0  0  1  0  0  0  0  0  0
  181.0600  180.4330  137.0340 O   0  0  0  0  0  0  0  0  0  0  0  0
  181.8700  180.1460  138.1530 C   0  0  1  0  0  3  0  0  0  0  0  0
  180.8190  181.1970  138.1900 C   0  0  1  0  0  0  0  0  0  0  0  0
  179.4240  180.9350  138.7340 C   0  0  0  0  0  2  0  0  0  0  0  0
  178.9310  181.7170  140.7370 C   0  0  0  0  0  1  0  0  0  0  0  0
  178.9510  182.0730  139.3890 O   0  0  0  0  0  0  0  0  0  0  0  0
  1 23  2  0  0  0  0
  2 23  1  0  0  0  0
  3  8  1  0  0  0  0
  3 16  2  0  0  0  0
  4 17  2  0  0  0  0
  5  7  2  0  0  0  0
  6  5  1  0  0  0  0
  7 24  1  0  0  0  0
  8 22  2  0  0  0  0
  9  6  2  0  0  0  0
 10 12  2  0  0  0  0
 12 18  1  0  0  0  0
 12 26  1  0  0  0  0
 13  4  1  6  0  0  0
 13  2  1  0  0  0  0
 15 10  1  0  0  0  0
 15 13  1  0  0  0  0
 16 27  1  0  0  0  0
 17  1  1  0  0  0  0
 18  5  1  6  0  0  0
 18 14  1  0  0  0  0
 19 20  1  6  0  0  0
 19 15  1  0  0  0  0
 21 29  1  1  0  0  0
 21  6  1  0  0  0  0
 21 10  1  0  0  0  0
 22 28  1  0  0  0  0
 24 14  2  0  0  0  0
 25 11  1  6  0  0  0
 25 20  1  0  0  0  0
 25 29  1  0  0  0  0
 26  2  2  0  0  0  0
 27 28  1  0  0  0  0
 27  9  2  0  0  0  0
 31 33  1  0  0  0  0
 32 31  1  6  0  0  0
 32 33  1  0  0  0  0
 32 19  1  0  0  0  0
 33 30  1  6  0  0  0
 33 34  1  0  0  0  0
 34 36  1  0  0  0  0
 36 35  1  0  0  0  0
M  END
>  <MODEL>
1

>  <REMARK>
 VINA RESULT:      -6.4      0.000      0.000
  Name = 
  3 active torsions:
  status: ('A' for Active; 'I' for Inactive)
    1  A    between atoms: C_3  and  O_20
    2  A    between atoms: C_3  and  C_30
    3  A    between atoms: C_24  and  C_25
                            x       y       z     vdW  Elec       q    Type
                         _______ _______ _______ _____ _____    ______ ____

>  <TORSDO>
F 3

$$$$
=
 OpenBabel11062417123D

 36 42  0  0  1  0  0  0  0  0999 V2000
  193.3430  176.0010  136.4690 C   0  0  0  0  0  3  0  0  0  0  0  0
  191.8720  176.4690  138.3410 C   0  0  0  0  0  0  0  0  0  0  0  0
  183.3170  178.4720  142.6940 C   0  0  0  0  0  3  0  0  0  0  0  0
  191.0500  176.7290  135.9830 C   0  0  0  0  0  3  0  0  0  0  0  0
  189.1460  177.4890  142.1450 C   0  0  0  0  0  0  0  0  0  0  0  0
  187.9140  177.6890  141.3880 C   0  0  0  0  0  0  0  0  0  0  0  0
  189.5940  178.3120  143.0310 N   0  0  0  0  0  0  0  0  0  0  0  0
  183.3580  179.4180  143.8240 C   0  0  0  0  0  3  0  0  0  0  0  0
  186.8280  178.1090  141.9870 C   0  0  0  0  0  0  0  0  0  0  0  0
  189.2900  176.9370  139.3730 C   0  0  0  0  0  0  0  0  0  0  0  0
  185.6040  178.8610  137.5080 O   0  0  0  0  0  1  0  0  0  0  0  0
  190.3530  176.6790  140.1850 C   0  0  0  0  0  0  0  0  0  0  0  0
  190.8400  177.0910  137.4360 C   0  0  1  0  0  3  0  0  0  0  0  0
  191.3410  176.9950  142.4230 N   0  0  0  0  0  0  0  0  0  0  0  0
  189.4900  176.8140  137.9460 N   0  0  0  0  0  0  0  0  0  0  0  0
  184.4360  178.0520  142.1070 C   0  0  0  0  0  3  0  0  0  0  0  0
  192.2250  176.2670  135.5420 C   0  0  0  0  0  3  0  0  0  0  0  0
  190.1780  176.5470  141.6730 C   0  0  1  0  0  3  0  0  0  0  0  0
  188.4050  176.4080  137.0410 C   0  0  2  0  0  3  0  0  0  0  0  0
  187.4530  177.5700  136.7520 C   0  0  0  0  0  2  0  0  0  0  0  0
  187.9050  177.3000  139.9250 C   0  0  2  0  0  3  0  0  0  0  0  0
  184.5130  179.9210  144.2680 C   0  0  0  0  0  3  0  0  0  0  0  0
  193.1780  176.0800  137.7910 C   0  0  0  0  0  3  0  0  0  0  0  0
  190.9640  177.9610  143.1970 C   0  0  0  0  0  3  0  0  0  0  0  0
  186.5290  177.9040  137.9200 C   0  0  1  0  0  3  0  0  0  0  0  0
  191.6250  176.3340  139.6090 N   0  0  0  0  0  0  0  0  0  0  0  0
  185.7450  178.5310  142.5750 C   0  0  0  0  0  0  0  0  0  0  0  0
  185.8440  179.5920  143.6380 C   0  0  0  0  0  2  0  0  0  0  0  0
  187.3100  178.4430  139.1050 C   0  0  0  0  0  2  0  0  0  0  0  0
  187.4520  172.6200  137.2760 C   0  0  0  0  0  1  0  0  0  0  0  0
  186.6770  174.7940  136.6060 O   0  0  0  0  0  0  0  0  0  0  0  0
  187.6700  175.1580  137.5400 C   0  0  1  0  0  3  0  0  0  0  0  0
  187.8080  173.9610  136.6680 C   0  0  1  0  0  0  0  0  0  0  0  0
  188.5790  173.9930  135.3580 C   0  0  0  0  0  2  0  0  0  0  0  0
  190.5420  172.9880  135.3040 C   0  0  0  0  0  1  0  0  0  0  0  0
  189.1780  172.7530  135.1340 O   0  0  0  0  0  0  0  0  0  0  0  0
  1 23  2  0  0  0  0
  2 26  2  0  0  0  0
  3  8  1  0  0  0  0
  5  7  2  0  0  0  0
  6  9  2  0  0  0  0
  6  5  1  0  0  0  0
  7 24  1  0  0  0  0
  8 22  2  0  0  0  0
  9 27  2  0  0  0  0
 10 21  1  0  0  0  0
 10 12  2  0  0  0  0
 13  4  1  6  0  0  0
 13 15  1  0  0  0  0
 13  2  1  0  0  0  0
 14 24  2  0  0  0  0
 15 10  1  0  0  0  0
 16 27  1  0  0  0  0
 16  3  2  0  0  0  0
 17  4  2  0  0  0  0
 17  1  1  0  0  0  0
 18 12  1  6  0  0  0
 18  5  1  0  0  0  0
 18 14  1  0  0  0  0
 19 20  1  1  0  0  0
 19 32  1  0  0  0  0
 19 15  1  0  0  0  0
 20 25  1  0  0  0  0
 21 29  1  6  0  0  0
 21  6  1  0  0  0  0
 23  2  1  0  0  0  0
 25 11  1  6  0  0  0
 25 29  1  0  0  0  0
 26 12  1  0  0  0  0
 27 28  1  0  0  0  0
 28 22  1  0  0  0  0
 31 33  1  0  0  0  0
 32 31  1  6  0  0  0
 33 30  1  1  0  0  0
 33 32  1  0  0  0  0
 34 33  1  0  0  0  0
 36 35  1  0  0  0  0
 36 34  1  0  0  0  0
M  END
>  <MODEL>
2

>  <REMARK>
 VINA RESULT:      -6.4      3.876      8.985
  Name = 
  3 active torsions:
  status: ('A' for Active; 'I' for Inactive)
    1  A    between atoms: C_3  and  O_20
    2  A    between atoms: C_3  and  C_30
    3  A    between atoms: C_24  and  C_25
                            x       y       z     vdW  Elec       q    Type
                         _______ _______ _______ _____ _____    ______ ____

>  <TORSDO>
F 3

$$$$
=
 OpenBabel11062417123D

 36 42  0  0  1  0  0  0  0  0999 V2000
  192.6210  176.9720  139.9850 C   0  0  0  0  0  3  0  0  0  0  0  0
  190.2540  177.4880  140.1100 C   0  0  0  0  0  0  0  0  0  0  0  0
  181.1460  178.5470  136.6310 C   0  0  0  0  0  3  0  0  0  0  0  0
  191.3580  177.1230  137.8850 C   0  0  0  0  0  3  0  0  0  0  0  0
  185.6270  178.6560  140.5250 C   0  0  0  0  0  0  0  0  0  0  0  0
  185.3020  178.4580  139.1160 C   0  0  0  0  0  0  0  0  0  0  0  0
  185.3070  179.7060  141.2020 N   0  0  0  0  0  0  0  0  0  0  0  0
  180.3670  179.6800  137.1600 C   0  0  0  0  0  3  0  0  0  0  0  0
  184.1130  178.7610  138.6600 C   0  0  0  0  0  0  0  0  0  0  0  0
  187.7060  177.6220  138.9080 C   0  0  0  0  0  0  0  0  0  0  0  0
  186.4470  178.3810  134.5940 O   0  0  0  0  0  1  0  0  0  0  0  0
  187.8730  177.7410  140.2540 C   0  0  0  0  0  0  0  0  0  0  0  0
  190.1740  177.7070  138.6210 C   0  0  1  0  0  3  0  0  0  0  0  0
  186.9680  178.6710  142.3530 N   0  0  0  0  0  0  0  0  0  0  0  0
  188.8640  177.2710  138.1160 N   0  0  0  0  0  0  0  0  0  0  0  0
  182.3510  178.2530  137.1190 C   0  0  0  0  0  3  0  0  0  0  0  0
  192.4980  176.8280  138.5200 C   0  0  0  0  0  3  0  0  0  0  0  0
  186.6890  177.8650  141.1740 C   0  0  1  0  0  3  0  0  0  0  0  0
  188.7510  176.4910  136.8750 C   0  0  2  0  0  3  0  0  0  0  0  0
  188.2860  177.3630  135.7080 C   0  0  0  0  0  2  0  0  0  0  0  0
  186.3410  177.8020  138.2310 C   0  0  2  0  0  3  0  0  0  0  0  0
  180.8590  180.4790  138.1120 C   0  0  0  0  0  3  0  0  0  0  0  0
  191.5620  177.2690  140.7410 C   0  0  0  0  0  3  0  0  0  0  0  0
  186.1490  179.6730  142.3490 C   0  0  0  0  0  3  0  0  0  0  0  0
  186.8040  177.7240  135.7700 C   0  0  1  0  0  3  0  0  0  0  0  0
  189.1760  177.5530  140.8330 N   0  0  0  0  0  0  0  0  0  0  0  0
  182.9330  179.0630  138.1980 C   0  0  0  0  0  0  0  0  0  0  0  0
  182.2420  180.3070  138.6890 C   0  0  0  0  0  2  0  0  0  0  0  0
  186.5050  178.6250  136.9550 C   0  0  0  0  0  2  0  0  0  0  0  0
  187.9160  172.6840  137.2240 C   0  0  0  0  0  1  0  0  0  0  0  0
  187.7040  174.6110  135.8030 O   0  0  0  0  0  0  0  0  0  0  0  0
  187.8830  175.2400  137.0530 C   0  0  1  0  0  3  0  0  0  0  0  0
  188.5560  173.9580  136.7120 C   0  0  1  0  0  0  0  0  0  0  0  0
  189.9780  173.9020  136.1790 C   0  0  0  0  0  2  0  0  0  0  0  0
  192.1250  173.6740  136.6350 C   0  0  0  0  0  1  0  0  0  0  0  0
  190.8600  173.6050  137.2190 O   0  0  0  0  0  0  0  0  0  0  0  0
  1 23  2  0  0  0  0
  2 23  1  0  0  0  0
  2 26  2  0  0  0  0
  3 16  2  0  0  0  0
  3  8  1  0  0  0  0
  4 17  2  0  0  0  0
  5 18  1  0  0  0  0
  5  7  2  0  0  0  0
  6  5  1  0  0  0  0
  7 24  1  0  0  0  0
  8 22  2  0  0  0  0
  9  6  2  0  0  0  0
 10 12  2  0  0  0  0
 12 26  1  0  0  0  0
 13  4  1  6  0  0  0
 13  2  1  0  0  0  0
 15 13  1  0  0  0  0
 15 10  1  0  0  0  0
 16 27  1  0  0  0  0
 17  1  1  0  0  0  0
 18 12  1  6  0  0  0
 18 14  1  0  0  0  0
 19 20  1  6  0  0  0
 19 32  1  0  0  0  0
 19 15  1  0  0  0  0
 20 25  1  0  0  0  0
 21 29  1  6  0  0  0
 21 10  1  0  0  0  0
 21  6  1  0  0  0  0
 22 28  1  0  0  0  0
 24 14  2  0  0  0  0
 25 11  1  6  0  0  0
 25 29  1  0  0  0  0
 27  9  2  0  0  0  0
 27 28  1  0  0  0  0
 31 33  1  0  0  0  0
 32 31  1  6  0  0  0
 33 32  1  0  0  0  0
 33 30  1  1  0  0  0
 34 33  1  0  0  0  0
 34 36  1  0  0  0  0
 35 36  1  0  0  0  0
M  END
>  <MODEL>
3

>  <REMARK>
 VINA RESULT:      -5.5      3.073      8.301
  Name = 
  3 active torsions:
  status: ('A' for Active; 'I' for Inactive)
    1  A    between atoms: C_3  and  O_20
    2  A    between atoms: C_3  and  C_30
    3  A    between atoms: C_24  and  C_25
                            x       y       z     vdW  Elec       q    Type
                         _______ _______ _______ _____ _____    ______ ____

>  <TORSDO>
F 3

$$$$
=
 OpenBabel11062417123D

 36 42  0  0  1  0  0  0  0  0999 V2000
  180.0260  176.8410  136.7980 C   0  0  0  0  0  3  0  0  0  0  0  0
  182.1660  175.7040  136.9140 C   0  0  0  0  0  0  0  0  0  0  0  0
  191.9140  175.0820  137.7850 C   0  0  0  0  0  3  0  0  0  0  0  0
  182.0650  178.2050  136.7240 C   0  0  0  0  0  3  0  0  0  0  0  0
  186.3060  173.2960  137.0090 C   0  0  0  0  0  0  0  0  0  0  0  0
  187.1560  174.4770  137.1140 C   0  0  0  0  0  0  0  0  0  0  0  0
  186.4910  172.3410  136.1620 N   0  0  0  0  0  0  0  0  0  0  0  0
  192.5850  174.0660  136.9550 C   0  0  0  0  0  3  0  0  0  0  0  0
  188.4590  174.3620  137.0700 C   0  0  0  0  0  0  0  0  0  0  0  0
  184.9610  175.7700  137.2860 C   0  0  0  0  0  0  0  0  0  0  0  0
  188.0470  178.9950  136.3650 O   0  0  0  0  0  1  0  0  0  0  0  0
  184.2630  174.6010  137.2890 C   0  0  0  0  0  0  0  0  0  0  0  0
  182.9090  176.9640  136.5480 C   0  0  1  0  0  3  0  0  0  0  0  0
  184.3420  172.1710  136.8730 N   0  0  0  0  0  0  0  0  0  0  0  0
  184.2060  177.0030  137.2380 N   0  0  0  0  0  0  0  0  0  0  0  0
  190.5850  175.1720  137.8210 C   0  0  0  0  0  3  0  0  0  0  0  0
  180.7310  178.1390  136.7950 C   0  0  0  0  0  3  0  0  0  0  0  0
  184.9440  173.2920  137.5770 C   0  0  1  0  0  3  0  0  0  0  0  0
  184.6930  178.2380  137.8690 C   0  0  2  0  0  3  0  0  0  0  0  0
  185.7590  178.9210  137.0110 C   0  0  0  0  0  2  0  0  0  0  0  0
  186.4920  175.8120  137.3790 C   0  0  2  0  0  3  0  0  0  0  0  0
  191.8900  173.2330  136.1760 C   0  0  0  0  0  3  0  0  0  0  0  0
  180.6980  175.6900  136.8700 C   0  0  0  0  0  3  0  0  0  0  0  0
  185.2510  171.6450  136.1170 C   0  0  0  0  0  3  0  0  0  0  0  0
  187.1120  178.2160  137.0460 C   0  0  1  0  0  3  0  0  0  0  0  0
  182.8260  174.6250  137.2100 N   0  0  0  0  0  0  0  0  0  0  0  0
  189.7570  174.2570  137.0230 C   0  0  0  0  0  0  0  0  0  0  0  0
  190.3860  173.2850  136.0610 C   0  0  0  0  0  2  0  0  0  0  0  0
  187.0370  176.8460  136.3960 C   0  0  0  0  0  2  0  0  0  0  0  0
  184.4370  178.0270  141.7690 C   0  0  0  0  0  1  0  0  0  0  0  0
  185.3910  179.2530  139.9340 O   0  0  0  0  0  0  0  0  0  0  0  0
  185.1600  178.0080  139.3110 C   0  0  1  0  0  3  0  0  0  0  0  0
  184.2510  178.5470  140.3570 C   0  0  1  0  0  0  0  0  0  0  0  0
  182.9810  179.3100  140.0180 C   0  0  0  0  0  2  0  0  0  0  0  0
  180.8680  179.4320  140.6410 C   0  0  0  0  0  1  0  0  0  0  0  0
  181.8660  178.5200  140.2990 O   0  0  0  0  0  0  0  0  0  0  0  0
  1 23  2  0  0  0  0
  2 26  2  0  0  0  0
  3 16  2  0  0  0  0
  4 17  2  0  0  0  0
  5  6  1  0  0  0  0
  5 18  1  0  0  0  0
  6 21  1  0  0  0  0
  7  5  2  0  0  0  0
  8  3  1  0  0  0  0
  9  6  2  0  0  0  0
 10 12  2  0  0  0  0
 10 21  1  0  0  0  0
 12 18  1  0  0  0  0
 13  4  1  1  0  0  0
 13  2  1  0  0  0  0
 13 15  1  0  0  0  0
 15 10  1  0  0  0  0
 15 19  1  0  0  0  0
 17  1  1  0  0  0  0
 18 14  1  6  0  0  0
 19 20  1  6  0  0  0
 19 32  1  0  0  0  0
 20 25  1  0  0  0  0
 21 29  1  6  0  0  0
 22  8  2  0  0  0  0
 23  2  1  0  0  0  0
 24  7  1  0  0  0  0
 24 14  2  0  0  0  0
 25 11  1  6  0  0  0
 26 12  1  0  0  0  0
 27  9  2  0  0  0  0
 27 16  1  0  0  0  0
 28 22  1  0  0  0  0
 28 27  1  0  0  0  0
 29 25  1  0  0  0  0
 31 33  1  0  0  0  0
 32 31  1  6  0  0  0
 32 33  1  0  0  0  0
 33 30  1  1  0  0  0
 34 36  1  0  0  0  0
 34 33  1  0  0  0  0
 36 35  1  0  0  0  0
M  END
>  <MODEL>
4

>  <REMARK>
 VINA RESULT:      -5.1      3.395      5.471
  Name = 
  3 active torsions:
  status: ('A' for Active; 'I' for Inactive)
    1  A    between atoms: C_3  and  O_20
    2  A    between atoms: C_3  and  C_30
    3  A    between atoms: C_24  and  C_25
                            x       y       z     vdW  Elec       q    Type
                         _______ _______ _______ _____ _____    ______ ____

>  <TORSDO>
F 3

$$$$
=
 OpenBabel11062417123D

 36 42  0  0  1  0  0  0  0  0999 V2000
  179.6640  180.1730  136.5670 C   0  0  0  0  0  3  0  0  0  0  0  0
  181.6980  179.4370  137.6660 C   0  0  0  0  0  0  0  0  0  0  0  0
  187.2970  176.8420  145.2870 C   0  0  0  0  0  3  0  0  0  0  0  0
  179.7390  180.2300  139.0210 C   0  0  0  0  0  3  0  0  0  0  0  0
  185.8350  178.0890  139.6700 C   0  0  0  0  0  0  0  0  0  0  0  0
  185.3470  178.1270  141.0450 C   0  0  0  0  0  0  0  0  0  0  0  0
  186.9300  178.6420  139.2730 N   0  0  0  0  0  0  0  0  0  0  0  0
  188.7030  177.2830  145.2520 C   0  0  0  0  0  3  0  0  0  0  0  0
  186.1670  177.9270  142.0450 C   0  0  0  0  0  0  0  0  0  0  0  0
  183.0770  178.6330  139.9920 C   0  0  0  0  0  0  0  0  0  0  0  0
  182.5160  179.7700  144.3690 O   0  0  0  0  0  1  0  0  0  0  0  0
  183.6080  178.4690  138.7480 C   0  0  0  0  0  0  0  0  0  0  0  0
  181.2270  179.9630  138.9970 C   0  0  0  0  0  0  0  0  0  0  0  0
  185.6750  178.2770  137.4160 N   0  0  0  0  0  0  0  0  0  0  0  0
  181.7100  179.0970  140.0820 N   0  0  0  0  0  0  0  0  0  0  0  0
  186.4850  177.0490  144.2520 C   0  0  0  0  0  3  0  0  0  0  0  0
  179.0370  180.3670  137.8900 C   0  0  0  0  0  3  0  0  0  0  0  0
  184.9250  177.7690  138.5540 C   0  0  1  0  0  3  0  0  0  0  0  0
  180.8280  178.7060  141.1910 C   0  0  2  0  0  3  0  0  0  0  0  0
  181.1270  179.5130  142.4550 C   0  0  0  0  0  2  0  0  0  0  0  0
  183.8600  178.3020  141.2690 C   0  0  2  0  0  3  0  0  0  0  0  0
  189.1980  177.9460  144.2030 C   0  0  0  0  0  3  0  0  0  0  0  0
  180.9150  179.7190  136.4560 C   0  0  0  0  0  2  0  0  0  0  0  0
  186.8060  178.7260  137.8580 C   0  0  0  0  0  3  0  0  0  0  0  0
  182.4140  179.0890  143.1570 C   0  0  1  0  0  3  0  0  0  0  0  0
  182.8210  178.7880  137.5870 N   0  0  0  0  0  0  0  0  0  0  0  0
  186.9770  177.7320  143.0470 C   0  0  0  0  0  0  0  0  0  0  0  0
  188.3630  178.3180  143.0030 C   0  0  0  0  0  2  0  0  0  0  0  0
  183.6340  179.3980  142.3080 C   0  0  0  0  0  2  0  0  0  0  0  0
  180.3430  174.9000  140.4200 C   0  0  0  0  0  1  0  0  0  0  0  0
  179.5400  176.7480  141.7300 O   0  0  0  0  0  0  0  0  0  0  0  0
  180.8480  177.1940  141.4430 C   0  0  1  0  0  3  0  0  0  0  0  0
  180.0590  176.3870  140.4740 C   0  0  1  0  0  0  0  0  0  0  0  0
  179.2550  177.0220  139.3510 C   0  0  0  0  0  2  0  0  0  0  0  0
  178.9330  176.3530  137.2730 C   0  0  0  0  0  1  0  0  0  0  0  0
  179.9150  176.8380  138.1350 O   0  0  0  0  0  0  0  0  0  0  0  0
  1 17  2  0  0  0  0
  2 13  1  0  0  0  0
  5  6  1  0  0  0  0
  6 21  1  0  0  0  0
  6  9  2  0  0  0  0
  7  5  2  0  0  0  0
  8  3  1  0  0  0  0
  9 27  2  0  0  0  0
 10 15  1  0  0  0  0
 10 21  1  0  0  0  0
 12 10  2  0  0  0  0
 13  4  2  0  0  0  0
 13 15  1  0  0  0  0
 14 24  2  0  0  0  0
 15 19  1  0  0  0  0
 16  3  2  0  0  0  0
 17  4  1  0  0  0  0
 18 14  1  6  0  0  0
 18 12  1  0  0  0  0
 18  5  1  0  0  0  0
 19 32  1  0  0  0  0
 19 20  1  1  0  0  0
 20 25  1  0  0  0  0
 21 29  1  1  0  0  0
 22  8  2  0  0  0  0
 23  1  1  0  0  0  0
 23  2  1  0  0  0  0
 24  7  1  0  0  0  0
 25 11  1  1  0  0  0
 26  2  2  0  0  0  0
 26 12  1  0  0  0  0
 27 16  1  0  0  0  0
 28 27  1  0  0  0  0
 28 22  1  0  0  0  0
 29 25  1  0  0  0  0
 32 31  1  1  0  0  0
 33 30  1  6  0  0  0
 33 32  1  0  0  0  0
 33 31  1  0  0  0  0
 34 33  1  0  0  0  0
 35 36  1  0  0  0  0
 36 34  1  0  0  0  0
M  END
>  <MODEL>
5

>  <REMARK>
 VINA RESULT:      -4.7      2.394      5.613
  Name = 
  3 active torsions:
  status: ('A' for Active; 'I' for Inactive)
    1  A    between atoms: C_3  and  O_20
    2  A    between atoms: C_3  and  C_30
    3  A    between atoms: C_24  and  C_25
                            x       y       z     vdW  Elec       q    Type
                         _______ _______ _______ _____ _____    ______ ____

>  <TORSDO>
F 3

$$$$
=
 OpenBabel11062417123D

 36 42  0  0  1  0  0  0  0  0999 V2000
  189.4210  177.6340  134.7650 C   0  0  0  0  0  3  0  0  0  0  0  0
  189.1090  177.5420  137.1690 C   0  0  0  0  0  0  0  0  0  0  0  0
  184.0550  178.1560  145.5500 C   0  0  0  0  0  3  0  0  0  0  0  0
  187.2960  178.4480  135.6870 C   0  0  0  0  0  3  0  0  0  0  0  0
  188.7120  177.4240  141.9410 C   0  0  0  0  0  0  0  0  0  0  0  0
  187.3070  177.8170  141.9770 C   0  0  0  0  0  0  0  0  0  0  0  0
  189.6360  177.9680  142.6570 N   0  0  0  0  0  0  0  0  0  0  0  0
  184.7600  178.7450  146.7020 C   0  0  0  0  0  3  0  0  0  0  0  0
  186.7110  178.0410  143.1210 C   0  0  0  0  0  0  0  0  0  0  0  0
  187.4300  177.6750  139.4310 C   0  0  0  0  0  0  0  0  0  0  0  0
  183.5930  180.0120  140.2010 O   0  0  0  0  0  1  0  0  0  0  0  0
  188.7080  177.2100  139.5100 C   0  0  0  0  0  0  0  0  0  0  0  0
  187.8610  178.3840  137.0870 C   0  0  0  0  0  0  0  0  0  0  0  0
  190.6830  176.8920  140.9540 N   0  0  0  0  0  0  0  0  0  0  0  0
  186.9000  177.9620  138.1160 N   0  0  0  0  0  0  0  0  0  0  0  0
  184.6880  177.9280  144.4000 C   0  0  0  0  0  3  0  0  0  0  0  0
  188.0410  178.1400  134.6190 C   0  0  0  0  0  3  0  0  0  0  0  0
  189.2540  176.6630  140.8000 C   0  0  1  0  0  3  0  0  0  0  0  0
  185.4710  177.8160  137.8050 C   0  0  2  0  0  3  0  0  0  0  0  0
  184.6610  179.0030  138.3300 C   0  0  0  0  0  2  0  0  0  0  0  0
  186.5440  177.8550  140.6700 C   0  0  2  0  0  3  0  0  0  0  0  0
  186.0420  179.1150  146.6200 C   0  0  0  0  0  3  0  0  0  0  0  0
  189.9250  177.3360  135.9650 C   0  0  0  0  0  2  0  0  0  0  0  0
  190.8560  177.5980  142.0250 C   0  0  0  0  0  3  0  0  0  0  0  0
  184.4670  178.9860  139.8430 C   0  0  1  0  0  3  0  0  0  0  0  0
  189.4870  177.0530  138.3110 N   0  0  0  0  0  0  0  0  0  0  0  0
  186.1100  178.2690  144.2540 C   0  0  0  0  0  0  0  0  0  0  0  0
  186.8480  178.9890  145.3510 C   0  0  0  0  0  2  0  0  0  0  0  0
  185.7850  179.1770  140.5710 C   0  0  0  0  0  2  0  0  0  0  0  0
  184.3380  174.0790  137.5530 C   0  0  0  0  0  1  0  0  0  0  0  0
  183.5730  176.3400  137.8370 O   0  0  0  0  0  0  0  0  0  0  0  0
  184.9090  176.4700  138.2750 C   0  0  1  0  0  3  0  0  0  0  0  0
  184.5240  175.5360  137.1830 C   0  0  1  0  0  0  0  0  0  0  0  0
  184.6350  175.9120  135.7140 C   0  0  0  0  0  2  0  0  0  0  0  0
  182.7330  175.7990  134.6020 C   0  0  0  0  0  1  0  0  0  0  0  0
  183.8550  175.0470  134.9460 O   0  0  0  0  0  0  0  0  0  0  0  0
  1 23  1  0  0  0  0
  2 26  2  0  0  0  0
  3  8  1  0  0  0  0
  4 13  2  0  0  0  0
  5  6  1  0  0  0  0
  5  7  2  0  0  0  0
  6  9  2  0  0  0  0
  9 27  2  0  0  0  0
 10 12  2  0  0  0  0
 10 21  1  0  0  0  0
 13  2  1  0  0  0  0
 13 15  1  0  0  0  0
 14 24  2  0  0  0  0
 15 10  1  0  0  0  0
 16  3  2  0  0  0  0
 17  1  2  0  0  0  0
 17  4  1  0  0  0  0
 18 12  1  6  0  0  0
 18 14  1  0  0  0  0
 18  5  1  0  0  0  0
 19 15  1  0  0  0  0
 19 32  1  0  0  0  0
 19 20  1  1  0  0  0
 20 25  1  0  0  0  0
 21 29  1  6  0  0  0
 21  6  1  0  0  0  0
 22  8  2  0  0  0  0
 23  2  1  0  0  0  0
 24  7  1  0  0  0  0
 25 11  1  6  0  0  0
 25 29  1  0  0  0  0
 26 12  1  0  0  0  0
 27 16  1  0  0  0  0
 27 28  1  0  0  0  0
 28 22  1  0  0  0  0
 32 31  1  6  0  0  0
 33 30  1  1  0  0  0
 33 31  1  0  0  0  0
 33 32  1  0  0  0  0
 34 33  1  0  0  0  0
 35 36  1  0  0  0  0
 36 34  1  0  0  0  0
M  END
>  <MODEL>
6

>  <REMARK>
 VINA RESULT:      -4.4      3.335      7.527
  Name = 
  3 active torsions:
  status: ('A' for Active; 'I' for Inactive)
    1  A    between atoms: C_3  and  O_20
    2  A    between atoms: C_3  and  C_30
    3  A    between atoms: C_24  and  C_25
                            x       y       z     vdW  Elec       q    Type
                         _______ _______ _______ _____ _____    ______ ____

>  <TORSDO>
F 3

$$$$
=
 OpenBabel11062417123D

 36 42  0  0  1  0  0  0  0  0999 V2000
  185.2720  180.0420  143.6490 C   0  0  0  0  0  3  0  0  0  0  0  0
  184.7280  178.8720  141.5940 C   0  0  0  0  0  0  0  0  0  0  0  0
  178.9410  174.0150  135.3420 C   0  0  0  0  0  3  0  0  0  0  0  0
  183.1140  178.8790  143.5160 C   0  0  0  0  0  3  0  0  0  0  0  0
  183.8750  176.4930  137.5250 C   0  0  0  0  0  0  0  0  0  0  0  0
  182.4950  176.1460  137.8490 C   0  0  0  0  0  0  0  0  0  0  0  0
  184.7540  175.6510  137.0990 N   0  0  0  0  0  0  0  0  0  0  0  0
  179.5630  172.9090  134.5940 C   0  0  0  0  0  3  0  0  0  0  0  0
  181.8050  175.3630  137.0580 C   0  0  0  0  0  0  0  0  0  0  0  0
  182.8510  177.5910  139.9240 C   0  0  0  0  0  0  0  0  0  0  0  0
  179.0850  175.2150  140.8940 O   0  0  0  0  0  1  0  0  0  0  0  0
  184.0900  177.9410  139.4780 C   0  0  0  0  0  0  0  0  0  0  0  0
  183.5390  178.2020  142.2330 C   0  0  1  0  0  3  0  0  0  0  0  0
  185.9000  177.4500  137.8750 N   0  0  0  0  0  0  0  0  0  0  0  0
  182.4650  178.0330  141.2450 N   0  0  0  0  0  0  0  0  0  0  0  0
  179.6670  174.8050  136.1330 C   0  0  0  0  0  3  0  0  0  0  0  0
  183.9390  179.6930  144.1830 C   0  0  0  0  0  3  0  0  0  0  0  0
  184.4830  177.7340  138.0410 C   0  0  1  0  0  3  0  0  0  0  0  0
  181.0660  178.3260  141.5890 C   0  0  2  0  0  3  0  0  0  0  0  0
  180.2720  177.0440  141.8450 C   0  0  0  0  0  2  0  0  0  0  0  0
  181.8620  176.7970  139.0600 C   0  0  2  0  0  3  0  0  0  0  0  0
  180.8640  172.6300  134.7170 C   0  0  0  0  0  3  0  0  0  0  0  0
  185.6430  179.6700  142.4210 C   0  0  0  0  0  3  0  0  0  0  0  0
  186.0070  176.2900  137.3130 C   0  0  0  0  0  3  0  0  0  0  0  0
  179.9340  176.2730  140.5720 C   0  0  1  0  0  3  0  0  0  0  0  0
  184.9710  178.6940  140.3300 N   0  0  0  0  0  0  0  0  0  0  0  0
  181.1130  174.5820  136.2790 C   0  0  0  0  0  0  0  0  0  0  0  0
  181.7790  173.3930  135.6420 C   0  0  0  0  0  2  0  0  0  0  0  0
  181.1850  175.7240  139.9110 C   0  0  0  0  0  2  0  0  0  0  0  0
  179.2250  181.4870  140.1970 C   0  0  0  0  0  1  0  0  0  0  0  0
  178.9910  179.1470  140.6910 O   0  0  0  0  0  0  0  0  0  0  0  0
  180.3920  179.2350  140.5530 C   0  0  1  0  0  3  0  0  0  0  0  0
  179.5850  180.3450  141.1250 C   0  0  1  0  0  0  0  0  0  0  0  0
  179.4030  180.5310  142.6230 C   0  0  0  0  0  2  0  0  0  0  0  0
  179.0480  179.5480  144.5660 C   0  0  0  0  0  1  0  0  0  0  0  0
  178.9320  179.3470  143.1910 O   0  0  0  0  0  0  0  0  0  0  0  0
  1 17  1  0  0  0  0
  2 13  1  0  0  0  0
  2 23  1  0  0  0  0
  3 16  2  0  0  0  0
  4 17  2  0  0  0  0
  5  6  1  0  0  0  0
  6 21  1  0  0  0  0
  7 24  1  0  0  0  0
  7  5  2  0  0  0  0
  8 22  2  0  0  0  0
  8  3  1  0  0  0  0
  9  6  2  0  0  0  0
 10 15  1  0  0  0  0
 12 10  2  0  0  0  0
 12 26  1  0  0  0  0
 13  4  1  1  0  0  0
 14 18  1  0  0  0  0
 15 19  1  0  0  0  0
 15 13  1  0  0  0  0
 16 27  1  0  0  0  0
 18  5  1  1  0  0  0
 18 12  1  0  0  0  0
 19 20  1  6  0  0  0
 21 29  1  1  0  0  0
 21 10  1  0  0  0  0
 22 28  1  0  0  0  0
 23  1  2  0  0  0  0
 24 14  2  0  0  0  0
 25 11  1  1  0  0  0
 25 20  1  0  0  0  0
 26  2  2  0  0  0  0
 27  9  2  0  0  0  0
 28 27  1  0  0  0  0
 29 25  1  0  0  0  0
 31 33  1  0  0  0  0
 32 31  1  1  0  0  0
 32 33  1  0  0  0  0
 32 19  1  0  0  0  0
 33 30  1  6  0  0  0
 33 34  1  0  0  0  0
 34 36  1  0  0  0  0
 36 35  1  0  0  0  0
M  END
>  <MODEL>
7

>  <REMARK>
 VINA RESULT:      -4.3      2.980      5.279
  Name = 
  3 active torsions:
  status: ('A' for Active; 'I' for Inactive)
    1  A    between atoms: C_3  and  O_20
    2  A    between atoms: C_3  and  C_30
    3  A    between atoms: C_24  and  C_25
                            x       y       z     vdW  Elec       q    Type
                         _______ _______ _______ _____ _____    ______ ____

>  <TORSDO>
F 3

$$$$
=
 OpenBabel11062417123D

 36 42  0  0  1  0  0  0  0  0999 V2000
  193.9040  175.6290  138.1200 C   0  0  0  0  0  3  0  0  0  0  0  0
  191.7310  176.4030  138.8730 C   0  0  0  0  0  0  0  0  0  0  0  0
  182.1750  178.4230  138.0080 C   0  0  0  0  0  3  0  0  0  0  0  0
  192.1280  175.8990  136.4460 C   0  0  0  0  0  3  0  0  0  0  0  0
  187.5500  178.0750  140.5050 C   0  0  0  0  0  0  0  0  0  0  0  0
  186.8270  177.9010  139.2500 C   0  0  0  0  0  0  0  0  0  0  0  0
  187.5410  179.1590  141.2030 N   0  0  0  0  0  0  0  0  0  0  0  0
  181.6950  179.6400  138.6870 C   0  0  0  0  0  3  0  0  0  0  0  0
  185.5950  178.3290  139.1290 C   0  0  0  0  0  0  0  0  0  0  0  0
  188.9770  176.8050  138.4180 C   0  0  0  0  0  0  0  0  0  0  0  0
  186.6510  177.6600  134.5940 O   0  0  0  0  0  1  0  0  0  0  0  0
  189.5250  176.9170  139.6600 C   0  0  0  0  0  0  0  0  0  0  0  0
  191.2620  176.6160  137.4570 C   0  0  1  0  0  3  0  0  0  0  0  0
  189.3420  177.9580  141.8890 N   0  0  0  0  0  0  0  0  0  0  0  0
  189.8270  176.3210  137.3520 N   0  0  0  0  0  0  0  0  0  0  0  0
  183.4300  178.0030  138.1550 C   0  0  0  0  0  3  0  0  0  0  0  0
  193.3630  175.4860  136.7530 C   0  0  0  0  0  3  0  0  0  0  0  0
  188.6640  177.1780  140.8650 C   0  0  1  0  0  3  0  0  0  0  0  0
  189.2920  175.5480  136.2220 C   0  0  2  0  0  3  0  0  0  0  0  0
  188.6120  176.4560  135.1950 C   0  0  0  0  0  2  0  0  0  0  0  0
  187.5040  177.1270  138.1380 C   0  0  2  0  0  3  0  0  0  0  0  0
  182.5120  180.3890  139.4340 C   0  0  0  0  0  3  0  0  0  0  0  0
  193.1340  176.0470  139.1270 C   0  0  0  0  0  3  0  0  0  0  0  0
  188.6620  179.0440  142.0730 C   0  0  0  0  0  3  0  0  0  0  0  0
  187.2520  176.9770  135.6500 C   0  0  1  0  0  3  0  0  0  0  0  0
  190.9110  176.5910  139.8630 N   0  0  0  0  0  0  0  0  0  0  0  0
  184.3710  178.7540  138.9990 C   0  0  0  0  0  0  0  0  0  0  0  0
  183.9760  180.0710  139.6130 C   0  0  0  0  0  2  0  0  0  0  0  0
  187.3890  177.9160  136.8350 C   0  0  0  0  0  2  0  0  0  0  0  0
  188.2350  171.8670  137.0270 C   0  0  0  0  0  1  0  0  0  0  0  0
  187.8680  173.7290  135.5520 O   0  0  0  0  0  0  0  0  0  0  0  0
  188.3840  174.4010  136.6810 C   0  0  1  0  0  3  0  0  0  0  0  0
  188.8470  173.0420  136.2920 C   0  0  1  0  0  0  0  0  0  0  0  0
  190.0990  172.8160  135.4590 C   0  0  0  0  0  2  0  0  0  0  0  0
  190.7680  170.7520  135.0600 C   0  0  0  0  0  1  0  0  0  0  0  0
  189.9010  171.7400  134.5940 O   0  0  0  0  0  0  0  0  0  0  0  0
  1 23  2  0  0  0  0
  2 23  1  0  0  0  0
  2 26  2  0  0  0  0
  3 16  2  0  0  0  0
  3  8  1  0  0  0  0
  4 17  2  0  0  0  0
  5 18  1  0  0  0  0
  5  7  2  0  0  0  0
  6  5  1  0  0  0  0
  7 24  1  0  0  0  0
  8 22  2  0  0  0  0
  9  6  2  0  0  0  0
 10 12  2  0  0  0  0
 12 26  1  0  0  0  0
 13  4  1  6  0  0  0
 13  2  1  0  0  0  0
 14 24  2  0  0  0  0
 15 13  1  0  0  0  0
 15 10  1  0  0  0  0
 16 27  1  0  0  0  0
 17  1  1  0  0  0  0
 18 12  1  6  0  0  0
 18 14  1  0  0  0  0
 19 20  1  6  0  0  0
 19 32  1  0  0  0  0
 19 15  1  0  0  0  0
 20 25  1  0  0  0  0
 21 29  1  6  0  0  0
 21 10  1  0  0  0  0
 21  6  1  0  0  0  0
 22 28  1  0  0  0  0
 25 11  1  6  0  0  0
 25 29  1  0  0  0  0
 27  9  2  0  0  0  0
 27 28  1  0  0  0  0
 31 33  1  0  0  0  0
 32 31  1  6  0  0  0
 33 32  1  0  0  0  0
 33 30  1  1  0  0  0
 34 33  1  0  0  0  0
 36 35  1  0  0  0  0
 36 34  1  0  0  0  0
M  END
>  <MODEL>
8

>  <REMARK>
 VINA RESULT:      -3.6      3.259      9.069
  Name = 
  3 active torsions:
  status: ('A' for Active; 'I' for Inactive)
    1  A    between atoms: C_3  and  O_20
    2  A    between atoms: C_3  and  C_30
    3  A    between atoms: C_24  and  C_25
                            x       y       z     vdW  Elec       q    Type
                         _______ _______ _______ _____ _____    ______ ____

>  <TORSDO>
F 3

$$$$
=
 OpenBabel11062417123D

 36 42  0  0  1  0  0  0  0  0999 V2000
  181.0990  178.4200  134.8680 C   0  0  0  0  0  3  0  0  0  0  0  0
  182.4790  178.2890  136.8590 C   0  0  0  0  0  0  0  0  0  0  0  0
  184.2560  178.0970  146.5010 C   0  0  0  0  0  3  0  0  0  0  0  0
  180.0450  178.8740  137.0390 C   0  0  0  0  0  3  0  0  0  0  0  0
  185.3760  178.1300  140.6710 C   0  0  0  0  0  0  0  0  0  0  0  0
  184.3160  178.2840  141.6620 C   0  0  0  0  0  0  0  0  0  0  0  0
  186.4630  178.8230  140.6570 N   0  0  0  0  0  0  0  0  0  0  0  0
  185.4660  178.8010  146.9620 C   0  0  0  0  0  3  0  0  0  0  0  0
  184.6090  178.4120  142.9320 C   0  0  0  0  0  0  0  0  0  0  0  0
  182.7310  178.1530  139.6650 C   0  0  0  0  0  0  0  0  0  0  0  0
  180.1220  179.8230  143.0070 O   0  0  0  0  0  1  0  0  0  0  0  0
  183.7830  177.9060  138.8360 C   0  0  0  0  0  0  0  0  0  0  0  0
  181.4000  178.9110  137.7070 C   0  0  0  0  0  0  0  0  0  0  0  0
  186.2370  177.9280  138.5840 N   0  0  0  0  0  0  0  0  0  0  0  0
  181.4310  178.3410  139.0610 N   0  0  0  0  0  0  0  0  0  0  0  0
  183.9850  177.9710  145.2030 C   0  0  0  0  0  3  0  0  0  0  0  0
  179.9220  178.6890  135.7200 C   0  0  0  0  0  3  0  0  0  0  0  0
  185.1130  177.4640  139.3820 C   0  0  1  0  0  3  0  0  0  0  0  0
  180.1900  177.9590  139.7510 C   0  0  2  0  0  3  0  0  0  0  0  0
  179.7920  178.9970  140.8020 C   0  0  0  0  0  2  0  0  0  0  0  0
  182.8800  178.1890  141.1910 C   0  0  2  0  0  3  0  0  0  0  0  0
  186.3070  179.3770  146.0990 C   0  0  0  0  0  3  0  0  0  0  0  0
  182.3050  178.2160  135.4020 C   0  0  0  0  0  2  0  0  0  0  0  0
  186.9870  178.6580  139.3450 C   0  0  0  0  0  3  0  0  0  0  0  0
  180.6580  178.9550  142.0580 C   0  0  1  0  0  3  0  0  0  0  0  0
  183.5800  177.8750  137.4120 N   0  0  0  0  0  0  0  0  0  0  0  0
  184.8920  178.5430  144.1960 C   0  0  0  0  0  0  0  0  0  0  0  0
  186.0730  179.3810  144.6080 C   0  0  0  0  0  2  0  0  0  0  0  0
  182.0880  179.3660  141.7570 C   0  0  0  0  0  2  0  0  0  0  0  0
  180.0040  174.0500  139.7830 C   0  0  0  0  0  1  0  0  0  0  0  0
  178.9530  176.0640  140.5660 O   0  0  0  0  0  0  0  0  0  0  0  0
  180.2600  176.5400  140.3280 C   0  0  1  0  0  3  0  0  0  0  0  0
  179.6370  175.4880  139.4810 C   0  0  1  0  0  0  0  0  0  0  0  0
  178.9400  175.8080  138.1680 C   0  0  0  0  0  2  0  0  0  0  0  0
  180.3870  175.1600  136.6330 C   0  0  0  0  0  1  0  0  0  0  0  0
  179.1880  174.7930  137.2430 O   0  0  0  0  0  0  0  0  0  0  0  0
  1 23  1  0  0  0  0
  1 17  2  0  0  0  0
  2 26  2  0  0  0  0
  2 13  1  0  0  0  0
  3  8  1  0  0  0  0
  4 13  2  0  0  0  0
  5  6  1  0  0  0  0
  6  9  2  0  0  0  0
  7  5  2  0  0  0  0
  9 27  2  0  0  0  0
 10 21  1  0  0  0  0
 12 18  1  0  0  0  0
 12 10  2  0  0  0  0
 13 15  1  0  0  0  0
 14 24  2  0  0  0  0
 15 10  1  0  0  0  0
 15 19  1  0  0  0  0
 16  3  2  0  0  0  0
 17  4  1  0  0  0  0
 18 14  1  6  0  0  0
 18  5  1  0  0  0  0
 19 32  1  0  0  0  0
 19 20  1  1  0  0  0
 20 25  1  0  0  0  0
 21  6  1  0  0  0  0
 21 29  1  6  0  0  0
 22  8  2  0  0  0  0
 23  2  1  0  0  0  0
 24  7  1  0  0  0  0
 25 11  1  1  0  0  0
 26 12  1  0  0  0  0
 27 28  1  0  0  0  0
 27 16  1  0  0  0  0
 28 22  1  0  0  0  0
 29 25  1  0  0  0  0
 32 31  1  1  0  0  0
 33 30  1  1  0  0  0
 33 32  1  0  0  0  0
 33 31  1  0  0  0  0
 34 33  1  0  0  0  0
 35 36  1  0  0  0  0
 36 34  1  0  0  0  0
M  END
>  <MODEL>
9

>  <REMARK>
 VINA RESULT:      -3.5      2.761      6.423
  Name = 
  3 active torsions:
  status: ('A' for Active; 'I' for Inactive)
    1  A    between atoms: C_3  and  O_20
    2  A    between atoms: C_3  and  C_30
    3  A    between atoms: C_24  and  C_25
                            x       y       z     vdW  Elec       q    Type
                         _______ _______ _______ _____ _____    ______ ____

>  <TORSDO>
F 3

$$$$
