=
 OpenBabel11062417173D

 26 29  0  0  1  0  0  0  0  0999 V2000
  188.9450  178.0320  149.1200 F   0  0  0  0  0  0  0  0  0  0  0  0
  183.0560  179.0490  144.0140 C   0  0  0  0  0  3  0  0  0  0  0  0
  183.8980  179.0030  145.2630 C   0  0  0  0  0  3  0  0  0  0  0  0
  188.3820  177.7900  146.8530 N   0  0  0  0  0  0  0  0  0  0  0  0
  188.0410  178.1460  148.1180 C   0  0  0  0  0  0  0  0  0  0  0  0
  185.7210  178.0840  143.6720 C   0  0  1  0  0  3  0  0  0  0  0  0
  183.5100  178.6680  142.8170 C   0  0  0  0  0  3  0  0  0  0  0  0
  185.8460  178.7410  147.3440 C   0  0  0  0  0  3  0  0  0  0  0  0
  187.9100  177.5130  144.5600 C   0  0  0  0  0  0  0  0  0  0  0  0
  185.3020  178.4840  145.0300 C   0  0  0  0  0  0  0  0  0  0  0  0
  186.1970  178.3730  146.0360 C   0  0  0  0  0  0  0  0  0  0  0  0
  187.0180  177.6100  143.4850 O   0  0  0  0  0  0  0  0  0  0  0  0
  186.7640  178.6300  148.3860 C   0  0  0  0  0  3  0  0  0  0  0  0
  184.8830  178.1700  142.6400 C   0  0  0  0  0  3  0  0  0  0  0  0
  187.5150  177.8840  145.8040 C   0  0  0  0  0  0  0  0  0  0  0  0
  190.7380  176.6700  142.0930 C   0  0  2  0  0  3  0  0  0  0  0  0
  189.2890  176.9950  144.2560 C   0  0  2  0  0  3  0  0  0  0  0  0
  190.2920  178.1060  144.0230 C   0  0  0  0  0  2  0  0  0  0  0  0
  189.3040  175.8390  142.8440 S   0  0  0  0  0  0  0  0  0  0  0  0
  192.2090  178.5110  142.6570 O   0  0  0  0  0  1  0  0  0  0  0  0
  191.3940  177.5070  143.1850 C   0  0  2  0  0  3  0  0  0  0  0  0
  189.7430  177.5310  137.2160 C   0  0  0  0  0  1  0  0  0  0  0  0
  189.8030  177.9350  138.6100 N   0  0  0  0  0  2  0  0  0  0  0  0
  190.2720  177.5030  140.9890 N   0  0  0  0  0  2  0  0  0  0  0  0
  190.2350  177.0440  139.6380 C   0  0  0  0  0  0  0  0  0  0  0  0
  190.5760  175.8620  139.3560 O   0  0  0  0  0  0  0  0  0  0  0  0
  2  3  2  0  0  0  0
  4  5  2  0  0  0  0
  5 13  1  0  0  0  0
  5  1  1  0  0  0  0
  6 14  1  1  0  0  0
  6 10  1  0  0  0  0
  7  2  1  0  0  0  0
  8 13  2  0  0  0  0
  9 15  2  0  0  0  0
 10  3  1  0  0  0  0
 10 11  2  0  0  0  0
 11  8  1  0  0  0  0
 12  6  1  0  0  0  0
 12  9  1  0  0  0  0
 14  7  2  0  0  0  0
 15 11  1  0  0  0  0
 15  4  1  0  0  0  0
 16 24  1  6  0  0  0
 16 19  1  0  0  0  0
 16 21  1  0  0  0  0
 17  9  1  6  0  0  0
 18 17  1  0  0  0  0
 19 17  1  0  0  0  0
 21 20  1  6  0  0  0
 21 18  1  0  0  0  0
 22 23  1  0  0  0  0
 23 25  1  0  0  0  0
 25 24  1  0  0  0  0
 26 25  2  0  0  0  0
M  END
>  <MODEL>
1

>  <REMARK>
 VINA RESULT:      -9.8      0.000      0.000
  Name = 
  2 active torsions:
  status: ('A' for Active; 'I' for Inactive)
    1  A    between atoms: C_8  and  N_10
    2  A    between atoms: C_12  and  C_14
                            x       y       z     vdW  Elec       q    Type
                         _______ _______ _______ _____ _____    ______ ____

>  <TORSDO>
F 2

$$$$
=
 OpenBabel11062417173D

 26 29  0  0  1  0  0  0  0  0999 V2000
  191.7480  176.8300  144.1560 F   0  0  0  0  0  0  0  0  0  0  0  0
  184.0880  178.5240  143.6570 C   0  0  0  0  0  3  0  0  0  0  0  0
  185.4570  178.1410  144.1580 C   0  0  0  0  0  3  0  0  0  0  0  0
  190.0780  177.4740  142.6360 N   0  0  0  0  0  0  0  0  0  0  0  0
  190.4570  177.1490  143.8990 C   0  0  0  0  0  0  0  0  0  0  0  0
  186.1560  178.4770  141.6880 C   0  0  1  0  0  3  0  0  0  0  0  0
  183.8400  178.8250  142.3790 C   0  0  0  0  0  3  0  0  0  0  0  0
  188.1980  177.4750  144.6470 C   0  0  0  0  0  3  0  0  0  0  0  0
  188.4700  178.1200  141.0380 C   0  0  0  0  0  0  0  0  0  0  0  0
  186.5190  178.1310  143.0770 C   0  0  0  0  0  0  0  0  0  0  0  0
  187.8040  177.8100  143.3420 C   0  0  0  0  0  0  0  0  0  0  0  0
  187.1510  178.4600  140.7130 O   0  0  0  0  0  0  0  0  0  0  0  0
  189.5220  177.1440  144.9290 C   0  0  0  0  0  3  0  0  0  0  0  0
  184.9050  178.8000  141.3640 C   0  0  0  0  0  3  0  0  0  0  0  0
  188.7930  177.8040  142.3180 C   0  0  0  0  0  0  0  0  0  0  0  0
  190.0030  176.6080  137.8500 C   0  0  2  0  0  3  0  0  0  0  0  0
  189.4740  178.1350  139.9170 C   0  0  2  0  0  3  0  0  0  0  0  0
  188.8880  178.6470  138.6160 C   0  0  0  0  0  2  0  0  0  0  0  0
  190.2460  176.5030  139.6510 S   0  0  0  0  0  0  0  0  0  0  0  0
  189.1210  178.2270  136.2770 O   0  0  0  0  0  1  0  0  0  0  0  0
  189.7470  178.0730  137.5160 C   0  0  2  0  0  3  0  0  0  0  0  0
  187.8910  172.2000  136.5730 C   0  0  0  0  0  1  0  0  0  0  0  0
  187.8350  173.6270  136.8390 N   0  0  0  0  0  2  0  0  0  0  0  0
  188.8660  175.7700  137.4820 N   0  0  0  0  0  2  0  0  0  0  0  0
  188.9880  174.3680  137.2360 C   0  0  0  0  0  0  0  0  0  0  0  0
  190.1020  173.7920  137.3710 O   0  0  0  0  0  0  0  0  0  0  0  0
  2  3  2  0  0  0  0
  4  5  2  0  0  0  0
  5  1  1  0  0  0  0
  5 13  1  0  0  0  0
  6 14  1  6  0  0  0
  6 10  1  0  0  0  0
  7  2  1  0  0  0  0
  8 13  2  0  0  0  0
  9 15  2  0  0  0  0
 10 11  2  0  0  0  0
 10  3  1  0  0  0  0
 11  8  1  0  0  0  0
 12  9  1  0  0  0  0
 12  6  1  0  0  0  0
 14  7  2  0  0  0  0
 15  4  1  0  0  0  0
 15 11  1  0  0  0  0
 16 24  1  1  0  0  0
 16 19  1  0  0  0  0
 17  9  1  1  0  0  0
 18 17  1  0  0  0  0
 19 17  1  0  0  0  0
 21 20  1  6  0  0  0
 21 16  1  0  0  0  0
 21 18  1  0  0  0  0
 22 23  1  0  0  0  0
 23 25  1  0  0  0  0
 25 26  2  0  0  0  0
 25 24  1  0  0  0  0
M  END
>  <MODEL>
2

>  <REMARK>
 VINA RESULT:      -8.3      2.678      4.133
  Name = 
  2 active torsions:
  status: ('A' for Active; 'I' for Inactive)
    1  A    between atoms: C_8  and  N_10
    2  A    between atoms: C_12  and  C_14
                            x       y       z     vdW  Elec       q    Type
                         _______ _______ _______ _____ _____    ______ ____

>  <TORSDO>
F 2

$$$$
=
 OpenBabel11062417173D

 26 29  0  0  1  0  0  0  0  0999 V2000
  188.2640  177.8550  147.4470 F   0  0  0  0  0  0  0  0  0  0  0  0
  181.7120  179.1600  143.3060 C   0  0  0  0  0  3  0  0  0  0  0  0
  182.7130  179.0030  144.4220 C   0  0  0  0  0  3  0  0  0  0  0  0
  187.4190  177.8790  145.2560 N   0  0  0  0  0  0  0  0  0  0  0  0
  187.2320  178.0430  146.5910 C   0  0  0  0  0  0  0  0  0  0  0  0
  184.3500  178.4210  142.5040 C   0  0  1  0  0  3  0  0  0  0  0  0
  182.0210  178.9700  142.0210 C   0  0  0  0  0  3  0  0  0  0  0  0
  184.9290  178.5940  146.1870 C   0  0  0  0  0  3  0  0  0  0  0  0
  186.6610  177.8780  143.0240 C   0  0  0  0  0  0  0  0  0  0  0  0
  184.0970  178.6100  143.9460 C   0  0  0  0  0  0  0  0  0  0  0  0
  185.1210  178.4240  144.8070 C   0  0  0  0  0  0  0  0  0  0  0  0
  185.6310  178.0590  142.0920 O   0  0  0  0  0  0  0  0  0  0  0  0
  185.9810  178.4040  147.0810 C   0  0  0  0  0  3  0  0  0  0  0  0
  183.3800  178.5880  141.6070 C   0  0  0  0  0  3  0  0  0  0  0  0
  186.4170  178.0550  144.3480 C   0  0  0  0  0  0  0  0  0  0  0  0
  190.4380  177.2900  143.4580 C   0  0  2  0  0  3  0  0  0  0  0  0
  188.0110  177.4940  142.4810 C   0  0  2  0  0  3  0  0  0  0  0  0
  188.4040  176.0760  142.8440 C   0  0  0  0  0  2  0  0  0  0  0  0
  189.3240  178.6530  142.9960 S   0  0  0  0  0  0  0  0  0  0  0  0
  190.3900  174.8680  143.3880 O   0  0  0  0  0  1  0  0  0  0  0  0
  189.9110  176.0300  142.7800 C   0  0  2  0  0  3  0  0  0  0  0  0
  192.3580  175.6280  147.8240 C   0  0  0  0  0  1  0  0  0  0  0  0
  191.3570  176.3310  147.0410 N   0  0  0  0  0  2  0  0  0  0  0  0
  190.4360  177.1560  144.9110 N   0  0  0  0  0  2  0  0  0  0  0  0
  191.4540  176.4520  145.6230 C   0  0  0  0  0  0  0  0  0  0  0  0
  192.4310  175.9470  145.0040 O   0  0  0  0  0  0  0  0  0  0  0  0
  2  3  2  0  0  0  0
  4  5  2  0  0  0  0
  5 13  1  0  0  0  0
  5  1  1  0  0  0  0
  6 14  1  1  0  0  0
  6 10  1  0  0  0  0
  7  2  1  0  0  0  0
  8 13  2  0  0  0  0
  9 15  2  0  0  0  0
 10  3  1  0  0  0  0
 10 11  2  0  0  0  0
 11  8  1  0  0  0  0
 12  6  1  0  0  0  0
 12  9  1  0  0  0  0
 14  7  2  0  0  0  0
 15 11  1  0  0  0  0
 15  4  1  0  0  0  0
 16 24  1  1  0  0  0
 17 18  1  0  0  0  0
 17 19  1  0  0  0  0
 17  9  1  1  0  0  0
 19 16  1  0  0  0  0
 21 18  1  0  0  0  0
 21 20  1  1  0  0  0
 21 16  1  0  0  0  0
 23 22  1  0  0  0  0
 24 25  1  0  0  0  0
 25 23  1  0  0  0  0
 26 25  2  0  0  0  0
M  END
>  <MODEL>
3

>  <REMARK>
 VINA RESULT:      -7.9      2.529      3.818
  Name = 
  2 active torsions:
  status: ('A' for Active; 'I' for Inactive)
    1  A    between atoms: C_8  and  N_10
    2  A    between atoms: C_12  and  C_14
                            x       y       z     vdW  Elec       q    Type
                         _______ _______ _______ _____ _____    ______ ____

>  <TORSDO>
F 2

$$$$
=
 OpenBabel11062417173D

 26 29  0  0  1  0  0  0  0  0999 V2000
  184.1820  178.6510  146.5750 F   0  0  0  0  0  0  0  0  0  0  0  0
  190.7530  176.4920  142.8410 C   0  0  0  0  0  3  0  0  0  0  0  0
  189.7090  176.7690  143.8920 C   0  0  0  0  0  3  0  0  0  0  0  0
  185.1660  178.5500  144.4460 N   0  0  0  0  0  0  0  0  0  0  0  0
  185.2340  178.3320  145.7850 C   0  0  0  0  0  0  0  0  0  0  0  0
  188.3110  177.6250  141.8880 C   0  0  1  0  0  3  0  0  0  0  0  0
  190.5650  176.7520  141.5440 C   0  0  0  0  0  3  0  0  0  0  0  0
  187.4560  177.4600  145.5180 C   0  0  0  0  0  3  0  0  0  0  0  0
  186.0720  178.4880  142.2700 C   0  0  0  0  0  0  0  0  0  0  0  0
  188.4330  177.3700  143.3380 C   0  0  0  0  0  0  0  0  0  0  0  0
  187.3880  177.6850  144.1340 C   0  0  0  0  0  0  0  0  0  0  0  0
  187.1270  178.1780  141.4040 O   0  0  0  0  0  0  0  0  0  0  0  0
  186.3820  177.7820  146.3450 C   0  0  0  0  0  3  0  0  0  0  0  0
  189.3080  177.3370  141.0530 C   0  0  0  0  0  3  0  0  0  0  0  0
  186.1940  178.2490  143.6010 C   0  0  0  0  0  0  0  0  0  0  0  0
  183.1610  178.3660  139.7590 C   0  0  2  0  0  3  0  0  0  0  0  0
  184.8330  179.0770  141.6520 C   0  0  2  0  0  3  0  0  0  0  0  0
  183.5610  178.4390  142.1720 C   0  0  0  0  0  2  0  0  0  0  0  0
  184.8630  179.0040  139.8280 S   0  0  0  0  0  0  0  0  0  0  0  0
  181.3990  177.8570  141.3430 O   0  0  0  0  0  1  0  0  0  0  0  0
  182.5150  178.6620  141.1080 C   0  0  2  0  0  3  0  0  0  0  0  0
  183.4260  174.3660  136.6850 C   0  0  0  0  0  1  0  0  0  0  0  0
  183.3180  174.9770  137.9990 N   0  0  0  0  0  2  0  0  0  0  0  0
  183.2090  176.9320  139.4940 N   0  0  0  0  0  2  0  0  0  0  0  0
  183.3190  176.3930  138.1760 C   0  0  0  0  0  0  0  0  0  0  0  0
  183.4190  177.1610  137.1800 O   0  0  0  0  0  0  0  0  0  0  0  0
  2  3  2  0  0  0  0
  4  5  2  0  0  0  0
  5 13  1  0  0  0  0
  5  1  1  0  0  0  0
  6 14  1  1  0  0  0
  6 10  1  0  0  0  0
  7  2  1  0  0  0  0
  8 13  2  0  0  0  0
  9 15  2  0  0  0  0
 10  3  1  0  0  0  0
 10 11  2  0  0  0  0
 11  8  1  0  0  0  0
 12  6  1  0  0  0  0
 12  9  1  0  0  0  0
 14  7  2  0  0  0  0
 15 11  1  0  0  0  0
 15  4  1  0  0  0  0
 16 24  1  1  0  0  0
 16 19  1  0  0  0  0
 16 21  1  0  0  0  0
 17 18  1  0  0  0  0
 17  9  1  1  0  0  0
 19 17  1  0  0  0  0
 21 20  1  1  0  0  0
 21 18  1  0  0  0  0
 22 23  1  0  0  0  0
 23 25  1  0  0  0  0
 25 24  1  0  0  0  0
 26 25  2  0  0  0  0
M  END
>  <MODEL>
4

>  <REMARK>
 VINA RESULT:      -7.8      3.840      6.071
  Name = 
  2 active torsions:
  status: ('A' for Active; 'I' for Inactive)
    1  A    between atoms: C_8  and  N_10
    2  A    between atoms: C_12  and  C_14
                            x       y       z     vdW  Elec       q    Type
                         _______ _______ _______ _____ _____    ______ ____

>  <TORSDO>
F 2

$$$$
=
 OpenBabel11062417173D

 26 29  0  0  1  0  0  0  0  0999 V2000
  189.0320  178.1890  138.7670 F   0  0  0  0  0  0  0  0  0  0  0  0
  185.4210  178.3320  145.7480 C   0  0  0  0  0  3  0  0  0  0  0  0
  186.4460  178.2120  144.6500 C   0  0  0  0  0  3  0  0  0  0  0  0
  186.9410  178.5460  139.7760 N   0  0  0  0  0  0  0  0  0  0  0  0
  188.2640  178.2530  139.8810 C   0  0  0  0  0  0  0  0  0  0  0  0
  184.4530  178.7790  143.0990 C   0  0  1  0  0  3  0  0  0  0  0  0
  184.1390  178.6280  145.5150 C   0  0  0  0  0  3  0  0  0  0  0  0
  188.0250  178.0900  142.2660 C   0  0  0  0  0  3  0  0  0  0  0  0
  184.8040  178.9190  140.6980 C   0  0  0  0  0  0  0  0  0  0  0  0
  185.8850  178.4580  143.2640 C   0  0  0  0  0  0  0  0  0  0  0  0
  186.6580  178.3910  142.1590 C   0  0  0  0  0  0  0  0  0  0  0  0
  183.9610  179.0000  141.8140 O   0  0  0  0  0  0  0  0  0  0  0  0
  188.8300  178.0200  141.1300 C   0  0  0  0  0  3  0  0  0  0  0  0
  183.6390  178.8570  144.1510 C   0  0  0  0  0  3  0  0  0  0  0  0
  186.1190  178.6240  140.8620 C   0  0  0  0  0  0  0  0  0  0  0  0
  182.3240  178.0390  137.8930 C   0  0  2  0  0  3  0  0  0  0  0  0
  184.1810  179.1790  139.3540 C   0  0  2  0  0  3  0  0  0  0  0  0
  182.8270  179.8520  139.4580 C   0  0  0  0  0  2  0  0  0  0  0  0
  184.0470  177.6650  138.3430 S   0  0  0  0  0  0  0  0  0  0  0  0
  180.7390  179.8260  138.3010 O   0  0  0  0  0  1  0  0  0  0  0  0
  182.0960  179.5190  138.1810 C   0  0  2  0  0  3  0  0  0  0  0  0
  179.6810  173.8170  138.7280 C   0  0  0  0  0  1  0  0  0  0  0  0
  180.1310  175.1480  139.0930 N   0  0  0  0  0  2  0  0  0  0  0  0
  181.4380  177.1970  138.6900 N   0  0  0  0  0  2  0  0  0  0  0  0
  181.0330  175.8920  138.2750 C   0  0  0  0  0  0  0  0  0  0  0  0
  181.4720  175.4010  137.1980 O   0  0  0  0  0  0  0  0  0  0  0  0
  1  5  1  0  0  0  0
  3  2  2  0  0  0  0
  4  5  2  0  0  0  0
  4 15  1  0  0  0  0
  5 13  1  0  0  0  0
  6 10  1  0  0  0  0
  6 14  1  6  0  0  0
  7  2  1  0  0  0  0
  9 15  2  0  0  0  0
  9 12  1  0  0  0  0
 10  3  1  0  0  0  0
 11  8  1  0  0  0  0
 11 10  2  0  0  0  0
 12  6  1  0  0  0  0
 13  8  2  0  0  0  0
 14  7  2  0  0  0  0
 15 11  1  0  0  0  0
 16 21  1  0  0  0  0
 16 19  1  0  0  0  0
 16 24  1  1  0  0  0
 17 18  1  0  0  0  0
 17  9  1  1  0  0  0
 19 17  1  0  0  0  0
 21 20  1  1  0  0  0
 21 18  1  0  0  0  0
 22 23  1  0  0  0  0
 25 24  1  0  0  0  0
 25 23  1  0  0  0  0
 26 25  2  0  0  0  0
M  END
>  <MODEL>
5

>  <REMARK>
 VINA RESULT:      -7.6      5.183      7.481
  Name = 
  2 active torsions:
  status: ('A' for Active; 'I' for Inactive)
    1  A    between atoms: C_8  and  N_10
    2  A    between atoms: C_12  and  C_14
                            x       y       z     vdW  Elec       q    Type
                         _______ _______ _______ _____ _____    ______ ____

>  <TORSDO>
F 2

$$$$
=
 OpenBabel11062417173D

 26 29  0  0  1  0  0  0  0  0999 V2000
  183.6630  178.9140  142.5780 F   0  0  0  0  0  0  0  0  0  0  0  0
  190.5170  176.8530  145.8260 C   0  0  0  0  0  3  0  0  0  0  0  0
  189.0690  177.2020  145.6000 C   0  0  0  0  0  3  0  0  0  0  0  0
  185.9230  178.5310  142.0710 N   0  0  0  0  0  0  0  0  0  0  0  0
  184.9110  178.5750  142.9760 C   0  0  0  0  0  0  0  0  0  0  0  0
  189.8090  177.5080  143.1380 C   0  0  1  0  0  3  0  0  0  0  0  0
  191.4240  176.8450  144.8460 C   0  0  0  0  0  3  0  0  0  0  0  0
  186.4470  177.9240  144.7050 C   0  0  0  0  0  3  0  0  0  0  0  0
  188.1730  178.1690  141.4680 C   0  0  0  0  0  0  0  0  0  0  0  0
  188.7430  177.5410  144.1600 C   0  0  0  0  0  0  0  0  0  0  0  0
  187.4940  177.8790  143.7710 C   0  0  0  0  0  0  0  0  0  0  0  0
  189.4840  177.8250  141.8210 O   0  0  0  0  0  0  0  0  0  0  0  0
  185.1560  178.2710  144.3120 C   0  0  0  0  0  3  0  0  0  0  0  0
  191.0610  177.1830  143.4610 C   0  0  0  0  0  3  0  0  0  0  0  0
  187.2000  178.1960  142.4140 C   0  0  0  0  0  0  0  0  0  0  0  0
  188.5980  177.4310  137.7170 C   0  0  2  0  0  3  0  0  0  0  0  0
  187.9200  178.4890  140.0200 C   0  0  2  0  0  3  0  0  0  0  0  0
  186.8410  177.6180  139.4090 C   0  0  0  0  0  2  0  0  0  0  0  0
  189.4380  178.3970  139.0100 S   0  0  0  0  0  0  0  0  0  0  0  0
  186.3580  176.6050  137.3020 O   0  0  0  0  0  1  0  0  0  0  0  0
  187.0980  177.6130  137.9230 C   0  0  2  0  0  3  0  0  0  0  0  0
  191.4710  173.4350  136.5760 C   0  0  0  0  0  1  0  0  0  0  0  0
  190.3740  174.0740  137.2830 N   0  0  0  0  0  2  0  0  0  0  0  0
  188.9890  176.0310  137.8500 N   0  0  0  0  0  2  0  0  0  0  0  0
  190.0820  175.4630  137.1270 C   0  0  0  0  0  0  0  0  0  0  0  0
  190.7830  176.1810  136.3630 O   0  0  0  0  0  0  0  0  0  0  0  0
  1  5  1  0  0  0  0
  3  2  2  0  0  0  0
  4 15  1  0  0  0  0
  4  5  2  0  0  0  0
  5 13  1  0  0  0  0
  6 14  1  1  0  0  0
  6 10  1  0  0  0  0
  7  2  1  0  0  0  0
  9 12  1  0  0  0  0
  9 15  2  0  0  0  0
 10  3  1  0  0  0  0
 11 10  2  0  0  0  0
 11  8  1  0  0  0  0
 12  6  1  0  0  0  0
 13  8  2  0  0  0  0
 14  7  2  0  0  0  0
 15 11  1  0  0  0  0
 16 24  1  1  0  0  0
 16 21  1  0  0  0  0
 16 19  1  0  0  0  0
 17  9  1  1  0  0  0
 18 17  1  0  0  0  0
 19 17  1  0  0  0  0
 21 20  1  6  0  0  0
 21 18  1  0  0  0  0
 22 23  1  0  0  0  0
 25 23  1  0  0  0  0
 25 24  1  0  0  0  0
 26 25  2  0  0  0  0
M  END
>  <MODEL>
6

>  <REMARK>
 VINA RESULT:      -7.6      3.141      5.260
  Name = 
  2 active torsions:
  status: ('A' for Active; 'I' for Inactive)
    1  A    between atoms: C_8  and  N_10
    2  A    between atoms: C_12  and  C_14
                            x       y       z     vdW  Elec       q    Type
                         _______ _______ _______ _____ _____    ______ ____

>  <TORSDO>
F 2

$$$$
=
 OpenBabel11062417173D

 26 29  0  0  1  0  0  0  0  0999 V2000
  185.0040  178.9880  140.3650 F   0  0  0  0  0  0  0  0  0  0  0  0
  189.9070  176.9740  146.1690 C   0  0  0  0  0  3  0  0  0  0  0  0
  188.6930  177.3850  145.3760 C   0  0  0  0  0  3  0  0  0  0  0  0
  187.2300  178.3740  140.7940 N   0  0  0  0  0  0  0  0  0  0  0  0
  185.9720  178.6270  141.2400 C   0  0  0  0  0  0  0  0  0  0  0  0
  190.3080  177.2570  143.3560 C   0  0  1  0  0  3  0  0  0  0  0  0
  191.1000  176.7530  145.6100 C   0  0  0  0  0  3  0  0  0  0  0  0
  186.6840  178.1440  143.4830 C   0  0  0  0  0  3  0  0  0  0  0  0
  189.4830  177.7670  141.1280 C   0  0  0  0  0  0  0  0  0  0  0  0
  188.9560  177.5210  143.8900 C   0  0  0  0  0  0  0  0  0  0  0  0
  187.9850  177.8820  143.0230 C   0  0  0  0  0  0  0  0  0  0  0  0
  190.5230  177.3900  141.9860 O   0  0  0  0  0  0  0  0  0  0  0  0
  185.6770  178.5150  142.5950 C   0  0  0  0  0  3  0  0  0  0  0  0
  191.3070  176.8990  144.1610 C   0  0  0  0  0  3  0  0  0  0  0  0
  188.2440  178.0070  141.6290 C   0  0  0  0  0  0  0  0  0  0  0  0
  188.6650  177.1500  137.4200 C   0  0  2  0  0  3  0  0  0  0  0  0
  189.8130  177.8780  139.6640 C   0  0  2  0  0  3  0  0  0  0  0  0
  189.0560  178.9960  138.9770 C   0  0  0  0  0  2  0  0  0  0  0  0
  189.5490  176.3080  138.7700 S   0  0  0  0  0  0  0  0  0  0  0  0
  188.0770  179.4290  136.8430 O   0  0  0  0  0  1  0  0  0  0  0  0
  189.0070  178.6320  137.5140 C   0  0  2  0  0  3  0  0  0  0  0  0
  184.3390  174.7630  136.3650 C   0  0  0  0  0  1  0  0  0  0  0  0
  185.1170  175.7740  137.0600 N   0  0  0  0  0  2  0  0  0  0  0  0
  187.2330  176.9210  137.5850 N   0  0  0  0  0  2  0  0  0  0  0  0
  186.5260  175.9060  136.8720 C   0  0  0  0  0  0  0  0  0  0  0  0
  187.1410  175.1320  136.0890 O   0  0  0  0  0  0  0  0  0  0  0  0
  1  5  1  0  0  0  0
  3  2  2  0  0  0  0
  4  5  2  0  0  0  0
  4 15  1  0  0  0  0
  5 13  1  0  0  0  0
  6 10  1  0  0  0  0
  6 14  1  1  0  0  0
  7  2  1  0  0  0  0
  9 15  2  0  0  0  0
  9 12  1  0  0  0  0
 10  3  1  0  0  0  0
 11  8  1  0  0  0  0
 11 10  2  0  0  0  0
 12  6  1  0  0  0  0
 13  8  2  0  0  0  0
 14  7  2  0  0  0  0
 15 11  1  0  0  0  0
 16 21  1  0  0  0  0
 16 24  1  1  0  0  0
 16 19  1  0  0  0  0
 17  9  1  1  0  0  0
 18 17  1  0  0  0  0
 19 17  1  0  0  0  0
 21 20  1  6  0  0  0
 21 18  1  0  0  0  0
 22 23  1  0  0  0  0
 25 23  1  0  0  0  0
 25 24  1  0  0  0  0
 26 25  2  0  0  0  0
M  END
>  <MODEL>
7

>  <REMARK>
 VINA RESULT:      -7.4      3.416      5.698
  Name = 
  2 active torsions:
  status: ('A' for Active; 'I' for Inactive)
    1  A    between atoms: C_8  and  N_10
    2  A    between atoms: C_12  and  C_14
                            x       y       z     vdW  Elec       q    Type
                         _______ _______ _______ _____ _____    ______ ____

>  <TORSDO>
F 2

$$$$
=
 OpenBabel11062417173D

 26 29  0  0  1  0  0  0  0  0999 V2000
  192.9130  177.1280  141.1240 F   0  0  0  0  0  0  0  0  0  0  0  0
  186.5450  177.7270  145.6940 C   0  0  0  0  0  3  0  0  0  0  0  0
  187.9500  177.5260  145.1870 C   0  0  0  0  0  3  0  0  0  0  0  0
  190.6090  177.5820  141.0590 N   0  0  0  0  0  0  0  0  0  0  0  0
  191.7280  177.2690  141.7640 C   0  0  0  0  0  0  0  0  0  0  0  0
  186.9000  178.0480  142.8790 C   0  0  2  0  0  3  0  0  0  0  0  0
  185.5220  178.0360  144.8940 C   0  0  0  0  0  3  0  0  0  0  0  0
  190.4300  177.2400  143.7850 C   0  0  0  0  0  3  0  0  0  0  0  0
  188.3050  178.0500  140.8960 C   0  0  0  0  0  0  0  0  0  0  0  0
  188.0870  177.7070  143.6890 C   0  0  0  0  0  0  0  0  0  0  0  0
  189.2730  177.5640  143.0580 C   0  0  0  0  0  0  0  0  0  0  0  0
  187.0530  178.2090  141.5040 O   0  0  0  0  0  0  0  0  0  0  0  0
  191.6570  177.0920  143.1420 C   0  0  0  0  0  3  0  0  0  0  0  0
  185.7030  178.2010  143.4440 C   0  0  0  0  0  3  0  0  0  0  0  0
  189.3900  177.7370  141.6500 C   0  0  0  0  0  0  0  0  0  0  0  0
  188.0840  176.7210  137.2930 C   0  0  2  0  0  3  0  0  0  0  0  0
  188.3690  178.2500  139.4060 C   0  0  2  0  0  3  0  0  0  0  0  0
  186.9980  178.3430  138.7690 C   0  0  0  0  0  2  0  0  0  0  0  0
  189.3560  176.9600  138.5720 S   0  0  0  0  0  0  0  0  0  0  0  0
  185.9420  177.7030  136.7260 O   0  0  0  0  0  1  0  0  0  0  0  0
  187.1790  177.9490  137.3240 C   0  0  2  0  0  3  0  0  0  0  0  0
  186.1970  172.1920  136.0930 C   0  0  0  0  0  1  0  0  0  0  0  0
  186.4010  173.3020  137.0080 N   0  0  0  0  0  2  0  0  0  0  0  0
  187.3400  175.5020  137.5940 N   0  0  0  0  0  2  0  0  0  0  0  0
  187.1780  174.4440  136.6490 C   0  0  0  0  0  0  0  0  0  0  0  0
  187.7190  174.5160  135.5120 O   0  0  0  0  0  0  0  0  0  0  0  0
  1  5  1  0  0  0  0
  3  2  2  0  0  0  0
  4 15  1  0  0  0  0
  4  5  2  0  0  0  0
  5 13  1  0  0  0  0
  6 14  1  1  0  0  0
  6 10  1  0  0  0  0
  7  2  1  0  0  0  0
  9 12  1  0  0  0  0
  9 15  2  0  0  0  0
 10  3  1  0  0  0  0
 11 10  2  0  0  0  0
 11  8  1  0  0  0  0
 12  6  1  0  0  0  0
 13  8  2  0  0  0  0
 14  7  2  0  0  0  0
 15 11  1  0  0  0  0
 16 21  1  0  0  0  0
 16 24  1  1  0  0  0
 16 19  1  0  0  0  0
 17  9  1  1  0  0  0
 18 17  1  0  0  0  0
 19 17  1  0  0  0  0
 21 20  1  1  0  0  0
 21 18  1  0  0  0  0
 22 23  1  0  0  0  0
 25 23  1  0  0  0  0
 25 24  1  0  0  0  0
 26 25  2  0  0  0  0
M  END
>  <MODEL>
8

>  <REMARK>
 VINA RESULT:      -7.4      3.465      5.451
  Name = 
  2 active torsions:
  status: ('A' for Active; 'I' for Inactive)
    1  A    between atoms: C_8  and  N_10
    2  A    between atoms: C_12  and  C_14
                            x       y       z     vdW  Elec       q    Type
                         _______ _______ _______ _____ _____    ______ ____

>  <TORSDO>
F 2

$$$$
=
 OpenBabel11062417173D

 26 29  0  0  1  0  0  0  0  0999 V2000
  184.6470  179.2610  139.4610 F   0  0  0  0  0  0  0  0  0  0  0  0
  187.6350  177.4140  146.4930 C   0  0  0  0  0  3  0  0  0  0  0  0
  186.7100  177.8120  145.3720 C   0  0  0  0  0  3  0  0  0  0  0  0
  186.6390  178.6240  140.5300 N   0  0  0  0  0  0  0  0  0  0  0  0
  185.3150  178.9210  140.5890 C   0  0  0  0  0  0  0  0  0  0  0  0
  188.8260  177.5620  143.9020 C   0  0  1  0  0  3  0  0  0  0  0  0
  188.9300  177.1440  146.3060 C   0  0  0  0  0  3  0  0  0  0  0  0
  185.3460  178.5240  142.9580 C   0  0  0  0  0  3  0  0  0  0  0  0
  188.6840  177.9880  141.5140 C   0  0  0  0  0  0  0  0  0  0  0  0
  187.3880  177.8770  144.0180 C   0  0  0  0  0  0  0  0  0  0  0  0
  186.7140  178.2170  142.8980 C   0  0  0  0  0  0  0  0  0  0  0  0
  189.4260  177.6300  142.6470 O   0  0  0  0  0  0  0  0  0  0  0  0
  184.6440  178.8760  141.8070 C   0  0  0  0  0  3  0  0  0  0  0  0
  189.5440  177.2210  144.9720 C   0  0  0  0  0  3  0  0  0  0  0  0
  187.3630  178.2750  141.6320 C   0  0  0  0  0  0  0  0  0  0  0  0
  189.0470  177.0150  137.8100 C   0  0  2  0  0  3  0  0  0  0  0  0
  189.4200  178.0270  140.2020 C   0  0  2  0  0  3  0  0  0  0  0  0
  188.8070  179.0030  139.2180 C   0  0  0  0  0  2  0  0  0  0  0  0
  189.5630  176.3770  139.4350 S   0  0  0  0  0  0  0  0  0  0  0  0
  188.4670  179.1680  136.8600 O   0  0  0  0  0  1  0  0  0  0  0  0
  189.2220  178.5300  137.8470 C   0  0  2  0  0  3  0  0  0  0  0  0
  185.4360  173.8810  136.1810 C   0  0  0  0  0  1  0  0  0  0  0  0
  185.8900  175.1280  136.7710 N   0  0  0  0  0  2  0  0  0  0  0  0
  187.6540  176.6440  137.5820 N   0  0  0  0  0  2  0  0  0  0  0  0
  187.2730  175.3980  136.9980 C   0  0  0  0  0  0  0  0  0  0  0  0
  188.1490  174.5440  136.6910 O   0  0  0  0  0  0  0  0  0  0  0  0
  1  5  1  0  0  0  0
  3  2  2  0  0  0  0
  4  5  2  0  0  0  0
  4 15  1  0  0  0  0
  5 13  1  0  0  0  0
  6 10  1  0  0  0  0
  6 14  1  1  0  0  0
  7  2  1  0  0  0  0
  9 15  2  0  0  0  0
  9 12  1  0  0  0  0
 10  3  1  0  0  0  0
 11  8  1  0  0  0  0
 11 10  2  0  0  0  0
 12  6  1  0  0  0  0
 13  8  2  0  0  0  0
 14  7  2  0  0  0  0
 15 11  1  0  0  0  0
 16 24  1  1  0  0  0
 16 21  1  0  0  0  0
 16 19  1  0  0  0  0
 17  9  1  1  0  0  0
 18 17  1  0  0  0  0
 19 17  1  0  0  0  0
 21 20  1  6  0  0  0
 21 18  1  0  0  0  0
 22 23  1  0  0  0  0
 23 25  1  0  0  0  0
 25 24  1  0  0  0  0
 26 25  2  0  0  0  0
M  END
>  <MODEL>
9

>  <REMARK>
 VINA RESULT:      -7.4      3.388      5.303
  Name = 
  2 active torsions:
  status: ('A' for Active; 'I' for Inactive)
    1  A    between atoms: C_8  and  N_10
    2  A    between atoms: C_12  and  C_14
                            x       y       z     vdW  Elec       q    Type
                         _______ _______ _______ _____ _____    ______ ____

>  <TORSDO>
F 2

$$$$
