=
 OpenBabel11062417383D

 65 69  0  0  1  0  0  0  0  0999 V2000
  189.5820  176.6040  139.6350 C   0  0  2  0  0  3  0  0  0  0  0  0
  188.0440  178.0950  138.2540 N   0  0  0  0  0  0  0  0  0  0  0  0
  187.5900  177.8460  142.9960 O   0  0  0  0  0  0  0  0  0  0  0  0
  188.0270  178.0600  135.8990 N   0  0  0  0  0  1  0  0  0  0  0  0
  190.3850  176.7070  140.9420 C   0  0  0  0  0  2  0  0  0  0  0  0
  188.3000  177.6130  141.9790 C   0  0  0  0  0  0  0  0  0  0  0  0
  190.5090  176.6440  138.4080 C   0  0  1  0  0  0  0  0  0  0  0  0
  187.8890  178.1190  140.6560 C   0  0  0  0  0  0  0  0  0  0  0  0
  189.4960  176.8320  142.0970 N   0  0  0  0  0  0  0  0  0  0  0  0
  188.5120  177.6800  139.5470 C   0  0  0  0  0  0  0  0  0  0  0  0
  188.5860  177.6770  137.1520 C   0  0  0  0  0  0  0  0  0  0  0  0
  189.7210  176.8060  137.1890 N   0  0  0  0  0  2  0  0  0  0  0  0
  191.3980  177.7190  138.5190 O   0  0  0  0  0  1  0  0  0  0  0  0
  186.7660  179.1020  140.5640 C   0  0  0  0  0  1  0  0  0  0  0  0
  189.7650  176.0790  143.3220 C   0  0  0  0  0  2  0  0  0  0  0  0
  190.8330  176.7520  144.1880 C   0  0  0  0  0  2  0  0  0  0  0  0
  190.2870  177.9100  145.0190 C   0  0  0  0  0  2  0  0  0  0  0  0
  187.2820  177.9550  148.0640 C   0  0  0  0  0  2  0  0  0  0  0  0
  186.8740  177.4190  146.6980 C   0  0  2  0  0  3  0  0  0  0  0  0
  189.6220  178.0550  147.3500 N   0  0  0  0  0  2  0  0  0  0  0  0
  188.7160  177.5280  148.3690 C   0  0  0  0  0  2  0  0  0  0  0  0
  187.8900  177.8400  145.6390 C   0  0  0  0  0  2  0  0  0  0  0  0
  189.2990  177.4320  146.0680 C   0  0  1  0  0  3  0  0  0  0  0  0
  185.5060  177.9620  146.3330 C   0  0  0  0  0  2  0  0  0  0  0  0
  185.0650  180.6420  143.8770 O   0  0  0  0  0  0  0  0  0  0  0  0
  185.6510  179.2210  145.6150 N   0  0  0  0  0  2  0  0  0  0  0  0
  184.9170  179.5190  144.4280 C   0  0  0  0  0  0  0  0  0  0  0  0
  183.9520  178.5290  143.8510 C   0  0  0  0  0  2  0  0  0  0  0  0
  183.5510  178.9240  142.4430 C   0  0  0  0  0  2  0  0  0  0  0  0
  182.6100  177.8790  141.8670 C   0  0  0  0  0  2  0  0  0  0  0  0
  182.0810  179.3940  140.1130 O   0  0  0  0  0  0  0  0  0  0  0  0
  180.7780  177.3120  140.2440 C   0  0  0  0  0  0  0  0  0  0  0  0
  180.8580  179.1120  138.0010 C   0  0  0  0  0  2  0  0  0  0  0  0
  183.3320  176.3040  137.9080 C   0  0  0  0  0  2  0  0  0  0  0  0
  182.0590  178.3250  137.5020 C   0  0  0  0  0  2  0  0  0  0  0  0
  181.4260  176.5600  139.2480 O   0  0  0  0  0  0  0  0  0  0  0  0
  182.3060  177.0600  138.2750 C   0  0  0  0  0  0  0  0  0  0  0  0
  180.0290  180.4800  139.7630 O   0  0  0  0  0  1  0  0  0  0  0  0
  181.4670  178.4590  140.9980 C   0  0  1  0  0  0  0  0  0  0  0  0
  179.6370  176.9200  140.6190 O   0  0  0  0  0  0  0  0  0  0  0  0
  181.2160  180.0340  139.1730 C   0  0  1  0  0  0  0  0  0  0  0  0
  180.5500  179.1640  141.8360 O   0  0  0  0  0  0  0  0  0  0  0  0
  180.1430  178.3880  142.9390 C   0  0  0  0  0  1  0  0  0  0  0  0
  181.9300  181.2710  138.6310 C   0  0  0  0  0  2  0  0  0  0  0  0
  181.3040  181.7580  137.4820 O   0  0  0  0  0  1  0  0  0  0  0  0
  191.2890  175.3330  138.3300 C   0  0  0  0  0  2  0  0  0  0  0  0
  191.6440  175.0090  136.9540 N   0  0  0  0  0  0  0  0  0  0  0  0
  190.4890  174.1870  134.9690 C   0  0  0  0  0  1  0  0  0  0  0  0
  190.7040  174.0070  136.4570 C   0  0  0  0  0  2  0  0  0  0  0  0
  193.0280  174.5080  136.9160 C   0  0  0  0  0  2  0  0  0  0  0  0
  194.0300  175.4440  136.2320 C   0  0  0  0  0  2  0  0  0  0  0  0
  195.0290  174.7010  135.5430 O   0  0  0  0  0  0  0  0  0  0  0  0
  195.5160  173.4830  136.0180 C   0  0  0  0  0  0  0  0  0  0  0  0
  196.2830  170.1520  134.7160 F   0  0  0  0  0  0  0  0  0  0  0  0
  196.2330  170.8810  136.9330 C   0  0  0  0  0  0  0  0  0  0  0  0
  195.5600  172.4410  135.1810 C   0  0  0  0  0  3  0  0  0  0  0  0
  196.6720  169.6670  137.3440 F   0  0  0  0  0  0  0  0  0  0  0  0
  196.0400  173.3440  137.4320 C   0  0  1  0  0  3  0  0  0  0  0  0
  196.0340  171.1210  135.6330 C   0  0  0  0  0  0  0  0  0  0  0  0
  195.8520  171.9130  137.9620 C   0  0  0  0  0  2  0  0  0  0  0  0
  197.3980  173.6870  137.4690 O   0  0  0  0  0  0  0  0  0  0  0  0
  197.4610  174.8240  138.2750 C   0  0  0  0  0  2  0  0  0  0  0  0
  196.4200  174.7950  139.2060 O   0  0  0  0  0  0  0  0  0  0  0  0
  198.5200  175.2730  140.2110 C   0  0  0  0  0  1  0  0  0  0  0  0
  197.0240  175.1400  140.4140 C   0  0  0  0  0  2  0  0  0  0  0  0
  1  5  1  1  0  0  0
  2 10  1  0  0  0  0
  4 11  1  0  0  0  0
  5  9  1  0  0  0  0
  6  9  1  0  0  0  0
  6  3  2  0  0  0  0
  7 13  1  1  0  0  0
  7  1  1  0  0  0  0
  8  6  1  0  0  0  0
  9 15  1  0  0  0  0
 10  1  1  0  0  0  0
 10  8  2  0  0  0  0
 11 12  1  0  0  0  0
 11  2  2  0  0  0  0
 12  7  1  0  0  0  0
 14  8  1  0  0  0  0
 15 16  1  0  0  0  0
 16 17  1  0  0  0  0
 18 21  1  0  0  0  0
 19 24  1  6  0  0  0
 19 18  1  0  0  0  0
 20 21  1  0  0  0  0
 22 23  1  0  0  0  0
 22 19  1  0  0  0  0
 23 17  1  6  0  0  0
 23 20  1  0  0  0  0
 25 27  2  0  0  0  0
 26 24  1  0  0  0  0
 27 26  1  0  0  0  0
 28 27  1  0  0  0  0
 29 28  1  0  0  0  0
 30 29  1  0  0  0  0
 31 39  1  0  0  0  0
 32 40  2  0  0  0  0
 32 39  1  0  0  0  0
 33 41  1  0  0  0  0
 34 37  2  0  0  0  0
 35 33  1  0  0  0  0
 35 37  1  0  0  0  0
 36 32  1  0  0  0  0
 37 36  1  0  0  0  0
 39 42  1  0  0  0  0
 39 30  1  1  0  0  0
 41 38  1  1  0  0  0
 41 31  1  0  0  0  0
 42 43  1  0  0  0  0
 44 41  1  0  0  0  0
 45 44  1  0  0  0  0
 46  7  1  0  0  0  0
 47 46  1  0  0  0  0
 48 49  1  0  0  0  0
 49 47  1  0  0  0  0
 50 47  1  0  0  0  0
 51 50  1  0  0  0  0
 52 53  1  0  0  0  0
 52 51  1  0  0  0  0
 53 58  1  0  0  0  0
 54 59  1  0  0  0  0
 55 57  1  0  0  0  0
 55 60  1  0  0  0  0
 56 59  1  0  0  0  0
 56 53  2  0  0  0  0
 58 61  1  6  0  0  0
 58 60  1  0  0  0  0
 59 55  2  0  0  0  0
 61 62  1  0  0  0  0
 62 63  1  0  0  0  0
 63 65  1  0  0  0  0
 64 65  1  0  0  0  0
M  END
>  <MODEL>
1

>  <REMARK>
 VINA RESULT:      -6.4      0.000      0.000
  Name = 
  23 active torsions:
  status: ('A' for Active; 'I' for Inactive)
    1  A    between atoms: C_3  and  C_5
    2  A    between atoms: C_3  and  C_23
    3  A    between atoms: C_5  and  C_58
    4  A    between atoms: N_7  and  C_13
    5  A    between atoms: N_7  and  C_40
    6  A    between atoms: N_7  and  C_63
    7  A    between atoms: C_11  and  O_26
    8  A    between atoms: O_12  and  C_49
    9  A    between atoms: C_13  and  C_31
   10  A    between atoms: C_15  and  N_44
   11  A    between atoms: C_15  and  C_61
   12  A    between atoms: O_19  and  C_45
   13  A    between atoms: O_19  and  C_52
   14  A    between atoms: C_23  and  C_49
   15  A    between atoms: O_26  and  C_35
   16  A    between atoms: N_29  and  C_32
   17  A    between atoms: C_30  and  C_32
   18  A    between atoms: C_35  and  C_40
   19  A    between atoms: C_39  and  C_57
   20  A    between atoms: O_43  and  C_45
   21  A    between atoms: O_43  and  C_56
   22  A    between atoms: C_47  and  C_61
   23  A    between atoms: C_47  and  C_65
                            x       y       z     vdW  Elec       q    Type
                         _______ _______ _______ _____ _____    ______ ____

>  <TORSDO>
F 23

$$$$
=
 OpenBabel11062417383D

 65 69  0  0  1  0  0  0  0  0999 V2000
  182.8500  177.8420  140.1280 C   0  0  2  0  0  3  0  0  0  0  0  0
  181.7040  178.6150  142.2690 N   0  0  0  0  0  0  0  0  0  0  0  0
  186.3890  179.2520  141.6400 O   0  0  0  0  0  0  0  0  0  0  0  0
  179.4620  178.0920  142.7650 N   0  0  0  0  0  1  0  0  0  0  0  0
  183.8800  178.3950  139.1310 C   0  0  0  0  0  2  0  0  0  0  0  0
  185.2710  178.9850  141.1210 C   0  0  0  0  0  0  0  0  0  0  0  0
  181.4350  177.8410  139.5240 C   0  0  1  0  0  0  0  0  0  0  0  0
  184.0370  179.0980  141.9210 C   0  0  0  0  0  0  0  0  0  0  0  0
  185.1920  178.5460  139.7590 N   0  0  0  0  0  0  0  0  0  0  0  0
  182.8810  178.5970  141.4460 C   0  0  0  0  0  0  0  0  0  0  0  0
  180.5730  178.1160  141.8740 C   0  0  0  0  0  0  0  0  0  0  0  0
  180.4470  177.5610  140.5620 N   0  0  0  0  0  2  0  0  0  0  0  0
  181.1590  179.0940  138.9620 O   0  0  0  0  0  1  0  0  0  0  0  0
  184.0910  179.7520  143.2650 C   0  0  0  0  0  1  0  0  0  0  0  0
  186.4050  178.1460  139.0450 C   0  0  0  0  0  2  0  0  0  0  0  0
  186.3800  178.5850  137.5780 C   0  0  0  0  0  2  0  0  0  0  0  0
  187.7720  178.8260  137.0010 C   0  0  0  0  0  2  0  0  0  0  0  0
  190.9210  176.0240  136.2700 C   0  0  0  0  0  2  0  0  0  0  0  0
  190.2130  175.9320  137.6150 C   0  0  2  0  0  3  0  0  0  0  0  0
  189.2780  177.6640  135.4910 N   0  0  0  0  0  2  0  0  0  0  0  0
  189.9070  176.3800  135.1860 C   0  0  0  0  0  2  0  0  0  0  0  0
  189.4290  177.2130  137.8890 C   0  0  0  0  0  2  0  0  0  0  0  0
  188.4960  177.5210  136.7190 C   0  0  1  0  0  3  0  0  0  0  0  0
  191.2390  175.7210  138.7110 C   0  0  0  0  0  2  0  0  0  0  0  0
  191.2400  178.2910  141.3200 O   0  0  0  0  0  0  0  0  0  0  0  0
  191.4620  176.9720  139.4250 N   0  0  0  0  0  2  0  0  0  0  0  0
  190.9800  177.1980  140.7490 C   0  0  0  0  0  0  0  0  0  0  0  0
  190.2010  176.1450  141.4740 C   0  0  0  0  0  2  0  0  0  0  0  0
  189.0180  176.7550  142.2020 C   0  0  0  0  0  2  0  0  0  0  0  0
  188.9620  176.2220  143.6240 C   0  0  0  0  0  2  0  0  0  0  0  0
  188.7420  176.6550  145.9510 O   0  0  0  0  0  0  0  0  0  0  0  0
  190.4180  177.9590  144.7090 C   0  0  0  0  0  0  0  0  0  0  0  0
  190.2230  177.7570  147.5720 C   0  0  0  0  0  2  0  0  0  0  0  0
  192.4930  175.2750  145.9280 C   0  0  0  0  0  2  0  0  0  0  0  0
  191.1130  176.5280  147.4760 C   0  0  0  0  0  2  0  0  0  0  0  0
  191.5820  177.2540  145.0640 O   0  0  0  0  0  0  0  0  0  0  0  0
  191.6990  176.3220  146.1080 C   0  0  0  0  0  0  0  0  0  0  0  0
  188.1220  178.6860  146.9520 O   0  0  0  0  0  1  0  0  0  0  0  0
  189.0230  177.3160  144.7190 C   0  0  1  0  0  0  0  0  0  0  0  0
  190.5640  179.1180  144.2290 O   0  0  0  0  0  0  0  0  0  0  0  0
  188.7850  177.4670  147.1260 C   0  0  1  0  0  0  0  0  0  0  0  0
  187.9970  178.2800  144.4780 O   0  0  0  0  0  0  0  0  0  0  0  0
  186.7280  177.6780  144.3580 C   0  0  0  0  0  1  0  0  0  0  0  0
  188.0570  176.7270  148.2460 C   0  0  0  0  0  2  0  0  0  0  0  0
  187.7370  177.5850  149.3000 O   0  0  0  0  0  1  0  0  0  0  0  0
  181.3530  176.7610  138.4470 C   0  0  0  0  0  2  0  0  0  0  0  0
  180.0490  176.1080  138.4510 N   0  0  0  0  0  0  0  0  0  0  0  0
  179.7740  173.6860  138.5400 C   0  0  0  0  0  1  0  0  0  0  0  0
  180.1200  174.9370  139.3210 C   0  0  0  0  0  2  0  0  0  0  0  0
  179.6940  175.7290  137.0730 C   0  0  0  0  0  2  0  0  0  0  0  0
  180.5610  176.3750  135.9870 C   0  0  0  0  0  2  0  0  0  0  0  0
  180.8450  175.4470  134.9470 O   0  0  0  0  0  0  0  0  0  0  0  0
  181.3020  174.1540  135.2020 C   0  0  0  0  0  0  0  0  0  0  0  0
  180.2370  170.7080  134.5940 F   0  0  0  0  0  0  0  0  0  0  0  0
  181.9970  171.4830  135.9150 C   0  0  0  0  0  0  0  0  0  0  0  0
  180.5200  173.1200  134.8690 C   0  0  0  0  0  3  0  0  0  0  0  0
  182.3770  170.2060  136.1620 F   0  0  0  0  0  0  0  0  0  0  0  0
  182.6750  173.9080  135.7930 C   0  0  1  0  0  3  0  0  0  0  0  0
  180.9350  171.7330  135.1430 C   0  0  0  0  0  0  0  0  0  0  0  0
  182.7070  172.6100  136.6180 C   0  0  0  0  0  2  0  0  0  0  0  0
  183.6250  173.8390  134.7670 O   0  0  0  0  0  0  0  0  0  0  0  0
  184.5740  174.8110  135.0880 C   0  0  0  0  0  2  0  0  0  0  0  0
  184.5100  175.0920  136.4540 O   0  0  0  0  0  0  0  0  0  0  0  0
  186.7160  174.5780  135.7330 C   0  0  0  0  0  1  0  0  0  0  0  0
  185.8250  174.9600  136.8990 C   0  0  0  0  0  2  0  0  0  0  0  0
  1  5  1  6  0  0  0
  1 10  1  0  0  0  0
  5  9  1  0  0  0  0
  6  3  2  0  0  0  0
  6  8  1  0  0  0  0
  7 13  1  6  0  0  0
  7  1  1  0  0  0  0
  7 12  1  0  0  0  0
  8 14  1  0  0  0  0
  9  6  1  0  0  0  0
 10  8  2  0  0  0  0
 10  2  1  0  0  0  0
 11  2  2  0  0  0  0
 11  4  1  0  0  0  0
 12 11  1  0  0  0  0
 15  9  1  0  0  0  0
 16 15  1  0  0  0  0
 17 16  1  0  0  0  0
 18 19  1  0  0  0  0
 19 22  1  0  0  0  0
 19 24  1  1  0  0  0
 20 23  1  0  0  0  0
 21 20  1  0  0  0  0
 21 18  1  0  0  0  0
 23 17  1  1  0  0  0
 23 22  1  0  0  0  0
 24 26  1  0  0  0  0
 26 27  1  0  0  0  0
 27 25  2  0  0  0  0
 27 28  1  0  0  0  0
 28 29  1  0  0  0  0
 29 30  1  0  0  0  0
 31 41  1  0  0  0  0
 32 39  1  0  0  0  0
 32 36  1  0  0  0  0
 34 37  2  0  0  0  0
 35 33  1  0  0  0  0
 36 37  1  0  0  0  0
 37 35  1  0  0  0  0
 39 30  1  6  0  0  0
 39 31  1  0  0  0  0
 40 32  2  0  0  0  0
 41 38  1  6  0  0  0
 41 33  1  0  0  0  0
 41 44  1  0  0  0  0
 42 39  1  0  0  0  0
 43 42  1  0  0  0  0
 44 45  1  0  0  0  0
 46 47  1  0  0  0  0
 46  7  1  0  0  0  0
 47 49  1  0  0  0  0
 48 49  1  0  0  0  0
 50 47  1  0  0  0  0
 51 50  1  0  0  0  0
 52 53  1  0  0  0  0
 52 51  1  0  0  0  0
 53 58  1  0  0  0  0
 54 59  1  0  0  0  0
 55 57  1  0  0  0  0
 55 60  1  0  0  0  0
 56 59  1  0  0  0  0
 56 53  2  0  0  0  0
 58 61  1  6  0  0  0
 58 60  1  0  0  0  0
 59 55  2  0  0  0  0
 61 62  1  0  0  0  0
 62 63  1  0  0  0  0
 63 65  1  0  0  0  0
 64 65  1  0  0  0  0
M  END
>  <MODEL>
2

>  <REMARK>
 VINA RESULT:      -6.3      4.364     10.768
  Name = 
  23 active torsions:
  status: ('A' for Active; 'I' for Inactive)
    1  A    between atoms: C_3  and  C_5
    2  A    between atoms: C_3  and  C_23
    3  A    between atoms: C_5  and  C_58
    4  A    between atoms: N_7  and  C_13
    5  A    between atoms: N_7  and  C_40
    6  A    between atoms: N_7  and  C_63
    7  A    between atoms: C_11  and  O_26
    8  A    between atoms: O_12  and  C_49
    9  A    between atoms: C_13  and  C_31
   10  A    between atoms: C_15  and  N_44
   11  A    between atoms: C_15  and  C_61
   12  A    between atoms: O_19  and  C_45
   13  A    between atoms: O_19  and  C_52
   14  A    between atoms: C_23  and  C_49
   15  A    between atoms: O_26  and  C_35
   16  A    between atoms: N_29  and  C_32
   17  A    between atoms: C_30  and  C_32
   18  A    between atoms: C_35  and  C_40
   19  A    between atoms: C_39  and  C_57
   20  A    between atoms: O_43  and  C_45
   21  A    between atoms: O_43  and  C_56
   22  A    between atoms: C_47  and  C_61
   23  A    between atoms: C_47  and  C_65
                            x       y       z     vdW  Elec       q    Type
                         _______ _______ _______ _____ _____    ______ ____

>  <TORSDO>
F 23

$$$$
=
 OpenBabel11062417383D

 65 69  0  0  1  0  0  0  0  0999 V2000
  190.0820  176.0980  138.7710 C   0  0  2  0  0  3  0  0  0  0  0  0
  188.5910  177.4220  137.1840 N   0  0  0  0  0  0  0  0  0  0  0  0
  187.9380  177.6430  141.9050 O   0  0  0  0  0  0  0  0  0  0  0  0
  188.6750  177.1500  134.8460 N   0  0  0  0  0  1  0  0  0  0  0  0
  190.8280  176.3420  140.0930 C   0  0  0  0  0  2  0  0  0  0  0  0
  188.6920  177.3180  140.9470 C   0  0  0  0  0  0  0  0  0  0  0  0
  191.0610  176.0270  137.5850 C   0  0  1  0  0  0  0  0  0  0  0  0
  188.3330  177.6840  139.5630 C   0  0  0  0  0  0  0  0  0  0  0  0
  189.8900  176.5700  141.1920 N   0  0  0  0  0  0  0  0  0  0  0  0
  189.0070  177.1450  138.5310 C   0  0  0  0  0  0  0  0  0  0  0  0
  189.1830  176.9020  136.1540 C   0  0  0  0  0  0  0  0  0  0  0  0
  190.3230  176.0550  136.3250 N   0  0  0  0  0  2  0  0  0  0  0  0
  191.9340  177.1200  137.6250 O   0  0  0  0  0  1  0  0  0  0  0  0
  187.2060  178.6380  139.3260 C   0  0  0  0  0  1  0  0  0  0  0  0
  190.1130  175.9470  142.4970 C   0  0  0  0  0  2  0  0  0  0  0  0
  191.0290  176.7900  143.3870 C   0  0  0  0  0  2  0  0  0  0  0  0
  190.2890  177.9040  144.1230 C   0  0  0  0  0  2  0  0  0  0  0  0
  187.5040  177.7310  147.3670 C   0  0  0  0  0  2  0  0  0  0  0  0
  187.0070  177.2680  146.0030 C   0  0  2  0  0  3  0  0  0  0  0  0
  189.7880  177.9050  146.4990 N   0  0  0  0  0  2  0  0  0  0  0  0
  188.9600  177.3080  147.5460 C   0  0  0  0  0  2  0  0  0  0  0  0
  187.9430  177.7640  144.9030 C   0  0  0  0  0  2  0  0  0  0  0  0
  189.3810  177.3520  145.2090 C   0  0  1  0  0  3  0  0  0  0  0  0
  185.6110  177.8110  145.7650 C   0  0  0  0  0  2  0  0  0  0  0  0
  184.9230  180.4050  143.2730 O   0  0  0  0  0  0  0  0  0  0  0  0
  185.6870  179.0410  144.9870 N   0  0  0  0  0  2  0  0  0  0  0  0
  184.8270  179.3050  143.8800 C   0  0  0  0  0  0  0  0  0  0  0  0
  183.7940  178.3070  143.4530 C   0  0  0  0  0  2  0  0  0  0  0  0
  182.8640  178.9040  142.4140 C   0  0  0  0  0  2  0  0  0  0  0  0
  183.0220  178.1590  141.0990 C   0  0  0  0  0  2  0  0  0  0  0  0
  182.0690  177.5920  138.9970 O   0  0  0  0  0  0  0  0  0  0  0  0
  180.6560  178.8290  140.5850 C   0  0  0  0  0  0  0  0  0  0  0  0
  179.7430  177.4750  138.2160 C   0  0  0  0  0  2  0  0  0  0  0  0
  179.6650  175.4510  141.3650 C   0  0  0  0  0  2  0  0  0  0  0  0
  179.6020  176.2240  139.0700 C   0  0  0  0  0  2  0  0  0  0  0  0
  179.8830  177.7690  141.0940 O   0  0  0  0  0  0  0  0  0  0  0  0
  179.7750  176.4840  140.5400 C   0  0  0  0  0  0  0  0  0  0  0  0
  181.2770  179.0810  137.3630 O   0  0  0  0  0  1  0  0  0  0  0  0
  182.0530  178.6220  139.9830 C   0  0  1  0  0  0  0  0  0  0  0  0
  180.2270  180.0020  140.7700 O   0  0  0  0  0  0  0  0  0  0  0  0
  181.2050  177.7800  137.8730 C   0  0  1  0  0  0  0  0  0  0  0  0
  182.5550  179.8220  139.3920 O   0  0  0  0  0  0  0  0  0  0  0  0
  183.9420  179.7490  139.1510 C   0  0  0  0  0  1  0  0  0  0  0  0
  181.6610  176.8440  136.7570 C   0  0  0  0  0  2  0  0  0  0  0  0
  182.5990  177.4600  135.9260 O   0  0  0  0  0  1  0  0  0  0  0  0
  191.8550  174.7250  137.6730 C   0  0  0  0  0  2  0  0  0  0  0  0
  192.0280  174.1210  136.3570 N   0  0  0  0  0  0  0  0  0  0  0  0
  190.1280  173.1450  135.1770 C   0  0  0  0  0  1  0  0  0  0  0  0
  191.1610  172.9490  136.2680 C   0  0  0  0  0  2  0  0  0  0  0  0
  193.4420  173.7550  136.1740 C   0  0  0  0  0  2  0  0  0  0  0  0
  193.7930  173.2250  134.7800 C   0  0  0  0  0  2  0  0  0  0  0  0
  195.0770  172.6140  134.7780 O   0  0  0  0  0  0  0  0  0  0  0  0
  196.1000  173.0180  135.6360 C   0  0  0  0  0  0  0  0  0  0  0  0
  198.9050  171.5210  137.4420 F   0  0  0  0  0  0  0  0  0  0  0  0
  198.0460  173.6850  137.6070 C   0  0  0  0  0  0  0  0  0  0  0  0
  196.8980  172.0850  136.1660 C   0  0  0  0  0  3  0  0  0  0  0  0
  199.0410  174.0160  138.4670 F   0  0  0  0  0  0  0  0  0  0  0  0
  196.3470  174.4850  135.9260 C   0  0  1  0  0  3  0  0  0  0  0  0
  197.9750  172.4490  137.1030 C   0  0  0  0  0  0  0  0  0  0  0  0
  196.9560  174.6840  137.3240 C   0  0  0  0  0  2  0  0  0  0  0  0
  197.2050  175.0200  134.9570 O   0  0  0  0  0  0  0  0  0  0  0  0
  197.0900  176.4040  135.0990 C   0  0  0  0  0  2  0  0  0  0  0  0
  195.8420  176.7150  135.6430 O   0  0  0  0  0  0  0  0  0  0  0  0
  196.6110  178.7040  134.5940 C   0  0  0  0  0  1  0  0  0  0  0  0
  195.4160  177.8310  134.9230 C   0  0  0  0  0  2  0  0  0  0  0  0
  1  5  1  1  0  0  0
  2 10  1  0  0  0  0
  4 11  1  0  0  0  0
  5  9  1  0  0  0  0
  6  9  1  0  0  0  0
  6  3  2  0  0  0  0
  7 13  1  1  0  0  0
  7 46  1  0  0  0  0
  7  1  1  0  0  0  0
  8  6  1  0  0  0  0
  9 15  1  0  0  0  0
 10  1  1  0  0  0  0
 10  8  2  0  0  0  0
 11 12  1  0  0  0  0
 11  2  2  0  0  0  0
 12  7  1  0  0  0  0
 14  8  1  0  0  0  0
 15 16  1  0  0  0  0
 16 17  1  0  0  0  0
 18 21  1  0  0  0  0
 19 24  1  6  0  0  0
 19 18  1  0  0  0  0
 20 21  1  0  0  0  0
 22 23  1  0  0  0  0
 22 19  1  0  0  0  0
 23 17  1  6  0  0  0
 23 20  1  0  0  0  0
 25 27  2  0  0  0  0
 26 24  1  0  0  0  0
 27 26  1  0  0  0  0
 28 27  1  0  0  0  0
 29 28  1  0  0  0  0
 30 29  1  0  0  0  0
 31 39  1  0  0  0  0
 32 40  2  0  0  0  0
 32 36  1  0  0  0  0
 33 35  1  0  0  0  0
 35 37  1  0  0  0  0
 37 36  1  0  0  0  0
 37 34  2  0  0  0  0
 39 32  1  0  0  0  0
 39 30  1  1  0  0  0
 41 38  1  6  0  0  0
 41 33  1  0  0  0  0
 41 31  1  0  0  0  0
 42 39  1  0  0  0  0
 43 42  1  0  0  0  0
 44 41  1  0  0  0  0
 45 44  1  0  0  0  0
 47 46  1  0  0  0  0
 48 49  1  0  0  0  0
 49 47  1  0  0  0  0
 50 47  1  0  0  0  0
 51 50  1  0  0  0  0
 52 51  1  0  0  0  0
 52 53  1  0  0  0  0
 53 58  1  0  0  0  0
 53 56  2  0  0  0  0
 55 57  1  0  0  0  0
 56 59  1  0  0  0  0
 58 61  1  6  0  0  0
 58 60  1  0  0  0  0
 59 54  1  0  0  0  0
 59 55  2  0  0  0  0
 60 55  1  0  0  0  0
 61 62  1  0  0  0  0
 62 63  1  0  0  0  0
 64 65  1  0  0  0  0
 65 63  1  0  0  0  0
M  END
>  <MODEL>
3

>  <REMARK>
 VINA RESULT:      -6.1      1.731      2.587
  Name = 
  23 active torsions:
  status: ('A' for Active; 'I' for Inactive)
    1  A    between atoms: C_3  and  C_5
    2  A    between atoms: C_3  and  C_23
    3  A    between atoms: C_5  and  C_58
    4  A    between atoms: N_7  and  C_13
    5  A    between atoms: N_7  and  C_40
    6  A    between atoms: N_7  and  C_63
    7  A    between atoms: C_11  and  O_26
    8  A    between atoms: O_12  and  C_49
    9  A    between atoms: C_13  and  C_31
   10  A    between atoms: C_15  and  N_44
   11  A    between atoms: C_15  and  C_61
   12  A    between atoms: O_19  and  C_45
   13  A    between atoms: O_19  and  C_52
   14  A    between atoms: C_23  and  C_49
   15  A    between atoms: O_26  and  C_35
   16  A    between atoms: N_29  and  C_32
   17  A    between atoms: C_30  and  C_32
   18  A    between atoms: C_35  and  C_40
   19  A    between atoms: C_39  and  C_57
   20  A    between atoms: O_43  and  C_45
   21  A    between atoms: O_43  and  C_56
   22  A    between atoms: C_47  and  C_61
   23  A    between atoms: C_47  and  C_65
                            x       y       z     vdW  Elec       q    Type
                         _______ _______ _______ _____ _____    ______ ____

>  <TORSDO>
F 23

$$$$
=
 OpenBabel11062417383D

 65 69  0  0  1  0  0  0  0  0999 V2000
  187.6130  177.0580  138.7060 C   0  0  2  0  0  3  0  0  0  0  0  0
  187.9260  176.1430  136.3490 N   0  0  0  0  0  0  0  0  0  0  0  0
  183.9770  178.5420  137.5340 O   0  0  0  0  0  0  0  0  0  0  0  0
  189.7110  174.7200  135.7690 N   0  0  0  0  0  1  0  0  0  0  0  0
  187.1320  178.3630  139.3610 C   0  0  0  0  0  2  0  0  0  0  0  0
  185.1650  178.2340  137.8250 C   0  0  0  0  0  0  0  0  0  0  0  0
  189.1400  176.9030  138.8290 C   0  0  1  0  0  0  0  0  0  0  0  0
  185.9940  177.4840  136.8630 C   0  0  0  0  0  0  0  0  0  0  0  0
  185.7100  178.5870  139.1030 N   0  0  0  0  0  0  0  0  0  0  0  0
  187.1690  176.9580  137.2570 C   0  0  0  0  0  0  0  0  0  0  0  0
  189.0470  175.5840  136.6860 C   0  0  0  0  0  0  0  0  0  0  0  0
  189.6010  175.8040  137.9870 N   0  0  0  0  0  2  0  0  0  0  0  0
  189.7700  178.0840  138.4200 O   0  0  0  0  0  1  0  0  0  0  0  0
  185.5060  177.3000  135.4620 C   0  0  0  0  0  1  0  0  0  0  0  0
  184.8300  179.0600  140.1720 C   0  0  0  0  0  2  0  0  0  0  0  0
  183.8840  177.9620  140.6660 C   0  0  0  0  0  2  0  0  0  0  0  0
  183.3300  178.2320  142.0620 C   0  0  0  0  0  2  0  0  0  0  0  0
  179.3450  179.6010  141.3220 C   0  0  0  0  0  2  0  0  0  0  0  0
  179.7980  178.3550  140.5720 C   0  0  2  0  0  3  0  0  0  0  0  0
  181.3910  179.5630  142.6670 N   0  0  0  0  0  2  0  0  0  0  0  0
  179.9300  179.5850  142.7320 C   0  0  0  0  0  2  0  0  0  0  0  0
  181.3200  178.2360  140.6150 C   0  0  0  0  0  2  0  0  0  0  0  0
  181.8130  178.3020  142.0600 C   0  0  1  0  0  3  0  0  0  0  0  0
  179.3370  178.4410  139.1290 C   0  0  0  0  0  2  0  0  0  0  0  0
  181.2290  180.0500  136.4400 O   0  0  0  0  0  0  0  0  0  0  0  0
  180.1830  179.3720  138.3960 N   0  0  0  0  0  2  0  0  0  0  0  0
  180.5220  179.1860  137.0220 C   0  0  0  0  0  0  0  0  0  0  0  0
  180.0220  177.9970  136.2610 C   0  0  0  0  0  2  0  0  0  0  0  0
  181.1520  177.3280  135.5020 C   0  0  0  0  0  2  0  0  0  0  0  0
  181.7370  176.2050  136.3420 C   0  0  0  0  0  2  0  0  0  0  0  0
  181.9160  173.8830  136.8180 O   0  0  0  0  0  0  0  0  0  0  0  0
  179.8020  174.6820  135.8450 C   0  0  0  0  0  0  0  0  0  0  0  0
  180.2280  172.1170  137.0770 C   0  0  0  0  0  2  0  0  0  0  0  0
  178.9660  174.8100  139.3500 C   0  0  0  0  0  2  0  0  0  0  0  0
  179.8630  172.7700  138.4010 C   0  0  0  0  0  2  0  0  0  0  0  0
  179.0120  174.7440  137.0070 O   0  0  0  0  0  0  0  0  0  0  0  0
  179.3170  174.1610  138.2480 C   0  0  0  0  0  0  0  0  0  0  0  0
  181.7840  172.1170  135.2770 O   0  0  0  0  0  1  0  0  0  0  0  0
  181.3340  174.7840  135.8770 C   0  0  1  0  0  0  0  0  0  0  0  0
  179.2030  174.6860  134.7340 O   0  0  0  0  0  0  0  0  0  0  0  0
  181.6410  172.4950  136.6160 C   0  0  1  0  0  0  0  0  0  0  0  0
  181.9060  174.5290  134.5930 O   0  0  0  0  0  0  0  0  0  0  0  0
  183.3040  174.7080  134.5950 C   0  0  0  0  0  1  0  0  0  0  0  0
  182.6590  171.6840  137.4140 C   0  0  0  0  0  2  0  0  0  0  0  0
  183.6160  171.1050  136.5780 O   0  0  0  0  0  1  0  0  0  0  0  0
  189.4940  176.6040  140.2850 C   0  0  0  0  0  2  0  0  0  0  0  0
  190.1310  177.7520  140.9200 N   0  0  0  0  0  0  0  0  0  0  0  0
  191.8700  177.7240  142.6300 C   0  0  0  0  0  1  0  0  0  0  0  0
  191.5270  177.4180  141.1870 C   0  0  0  0  0  2  0  0  0  0  0  0
  189.4120  178.0760  142.1640 C   0  0  0  0  0  2  0  0  0  0  0  0
  188.1560  177.2360  142.4170 C   0  0  0  0  0  2  0  0  0  0  0  0
  188.3610  176.3300  143.4940 O   0  0  0  0  0  0  0  0  0  0  0  0
  188.7570  176.7530  144.7630 C   0  0  0  0  0  0  0  0  0  0  0  0
  191.7980  177.9100  146.4330 F   0  0  0  0  0  0  0  0  0  0  0  0
  189.7320  177.3610  147.3710 C   0  0  0  0  0  0  0  0  0  0  0  0
  190.0510  177.0150  144.9760 C   0  0  0  0  0  3  0  0  0  0  0  0
  190.1800  177.7500  148.5900 F   0  0  0  0  0  0  0  0  0  0  0  0
  187.7450  176.9690  145.8700 C   0  0  1  0  0  3  0  0  0  0  0  0
  190.5340  177.4340  146.3040 C   0  0  0  0  0  0  0  0  0  0  0  0
  188.3700  176.7290  147.2550 C   0  0  0  0  0  2  0  0  0  0  0  0
  187.2390  178.2730  145.8000 O   0  0  0  0  0  0  0  0  0  0  0  0
  186.1330  178.2760  146.6520 C   0  0  0  0  0  2  0  0  0  0  0  0
  185.4150  179.4610  146.4800 O   0  0  0  0  0  0  0  0  0  0  0  0
  184.6860  179.9730  144.2770 C   0  0  0  0  0  1  0  0  0  0  0  0
  184.4480  179.1470  145.5260 C   0  0  0  0  0  2  0  0  0  0  0  0
  1  7  1  0  0  0  0
  1  5  1  6  0  0  0
  2 11  2  0  0  0  0
  2 10  1  0  0  0  0
  3  6  2  0  0  0  0
  4 11  1  0  0  0  0
  6  9  1  0  0  0  0
  7 13  1  6  0  0  0
  7 46  1  0  0  0  0
  8 10  2  0  0  0  0
  8  6  1  0  0  0  0
  9  5  1  0  0  0  0
  9 15  1  0  0  0  0
 10  1  1  0  0  0  0
 11 12  1  0  0  0  0
 12  7  1  0  0  0  0
 14  8  1  0  0  0  0
 15 16  1  0  0  0  0
 16 17  1  0  0  0  0
 18 21  1  0  0  0  0
 19 24  1  6  0  0  0
 19 22  1  0  0  0  0
 19 18  1  0  0  0  0
 20 21  1  0  0  0  0
 22 23  1  0  0  0  0
 23 17  1  6  0  0  0
 23 20  1  0  0  0  0
 25 27  2  0  0  0  0
 26 24  1  0  0  0  0
 27 26  1  0  0  0  0
 28 27  1  0  0  0  0
 29 28  1  0  0  0  0
 29 30  1  0  0  0  0
 32 39  1  0  0  0  0
 32 36  1  0  0  0  0
 33 35  1  0  0  0  0
 36 37  1  0  0  0  0
 37 35  1  0  0  0  0
 37 34  2  0  0  0  0
 39 30  1  1  0  0  0
 39 31  1  0  0  0  0
 40 32  2  0  0  0  0
 41 38  1  6  0  0  0
 41 31  1  0  0  0  0
 41 33  1  0  0  0  0
 41 44  1  0  0  0  0
 42 43  1  0  0  0  0
 42 39  1  0  0  0  0
 45 44  1  0  0  0  0
 46 47  1  0  0  0  0
 47 49  1  0  0  0  0
 47 50  1  0  0  0  0
 49 48  1  0  0  0  0
 50 51  1  0  0  0  0
 51 52  1  0  0  0  0
 52 53  1  0  0  0  0
 53 56  2  0  0  0  0
 53 58  1  0  0  0  0
 55 57  1  0  0  0  0
 56 59  1  0  0  0  0
 58 61  1  1  0  0  0
 58 60  1  0  0  0  0
 59 54  1  0  0  0  0
 59 55  2  0  0  0  0
 60 55  1  0  0  0  0
 61 62  1  0  0  0  0
 63 62  1  0  0  0  0
 64 65  1  0  0  0  0
 65 63  1  0  0  0  0
M  END
>  <MODEL>
4

>  <REMARK>
 VINA RESULT:      -5.9      4.620      8.828
  Name = 
  23 active torsions:
  status: ('A' for Active; 'I' for Inactive)
    1  A    between atoms: C_3  and  C_5
    2  A    between atoms: C_3  and  C_23
    3  A    between atoms: C_5  and  C_58
    4  A    between atoms: N_7  and  C_13
    5  A    between atoms: N_7  and  C_40
    6  A    between atoms: N_7  and  C_63
    7  A    between atoms: C_11  and  O_26
    8  A    between atoms: O_12  and  C_49
    9  A    between atoms: C_13  and  C_31
   10  A    between atoms: C_15  and  N_44
   11  A    between atoms: C_15  and  C_61
   12  A    between atoms: O_19  and  C_45
   13  A    between atoms: O_19  and  C_52
   14  A    between atoms: C_23  and  C_49
   15  A    between atoms: O_26  and  C_35
   16  A    between atoms: N_29  and  C_32
   17  A    between atoms: C_30  and  C_32
   18  A    between atoms: C_35  and  C_40
   19  A    between atoms: C_39  and  C_57
   20  A    between atoms: O_43  and  C_45
   21  A    between atoms: O_43  and  C_56
   22  A    between atoms: C_47  and  C_61
   23  A    between atoms: C_47  and  C_65
                            x       y       z     vdW  Elec       q    Type
                         _______ _______ _______ _____ _____    ______ ____

>  <TORSDO>
F 23

$$$$
=
 OpenBabel11062417383D

 65 69  0  0  1  0  0  0  0  0999 V2000
  194.7980  174.4230  137.4110 C   0  0  2  0  0  3  0  0  0  0  0  0
  197.0690  173.8550  138.4180 N   0  0  0  0  0  0  0  0  0  0  0  0
  194.2380  177.1100  140.4550 O   0  0  0  0  0  0  0  0  0  0  0  0
  198.6290  172.4700  137.3250 N   0  0  0  0  0  1  0  0  0  0  0  0
  193.3610  174.6450  137.9090 C   0  0  0  0  0  2  0  0  0  0  0  0
  194.3510  176.1610  139.6320 C   0  0  0  0  0  0  0  0  0  0  0  0
  194.9310  173.0750  136.6790 C   0  0  1  0  0  0  0  0  0  0  0  0
  195.6030  175.3840  139.5620 C   0  0  0  0  0  0  0  0  0  0  0  0
  193.2730  175.8440  138.7410 N   0  0  0  0  0  0  0  0  0  0  0  0
  195.8090  174.5330  138.5400 C   0  0  0  0  0  0  0  0  0  0  0  0
  197.3330  173.0500  137.4360 C   0  0  0  0  0  0  0  0  0  0  0  0
  196.3400  172.7690  136.4450 N   0  0  0  0  0  2  0  0  0  0  0  0
  194.3680  172.0560  137.4560 O   0  0  0  0  0  1  0  0  0  0  0  0
  196.6410  175.5710  140.6220 C   0  0  0  0  0  1  0  0  0  0  0  0
  192.1520  176.7720  138.5860 C   0  0  0  0  0  2  0  0  0  0  0  0
  191.0350  176.4980  139.5970 C   0  0  0  0  0  2  0  0  0  0  0  0
  190.7230  177.6990  140.4850 C   0  0  0  0  0  2  0  0  0  0  0  0
  188.6810  177.8030  144.2430 C   0  0  0  0  0  2  0  0  0  0  0  0
  188.0830  176.9200  143.1550 C   0  0  2  0  0  3  0  0  0  0  0  0
  190.6610  178.2040  142.8600 N   0  0  0  0  0  2  0  0  0  0  0  0
  190.2040  177.7390  144.1680 C   0  0  0  0  0  2  0  0  0  0  0  0
  188.6590  177.2960  141.7920 C   0  0  0  0  0  2  0  0  0  0  0  0
  190.1850  177.2710  141.8390 C   0  0  1  0  0  3  0  0  0  0  0  0
  186.5770  177.0950  143.1360 C   0  0  0  0  0  2  0  0  0  0  0  0
  184.6240  179.7870  144.6690 O   0  0  0  0  0  0  0  0  0  0  0  0
  186.2060  178.2610  143.9280 N   0  0  0  0  0  2  0  0  0  0  0  0
  184.8840  178.7980  143.9340 C   0  0  0  0  0  0  0  0  0  0  0  0
  183.8000  178.1820  143.1040 C   0  0  0  0  0  2  0  0  0  0  0  0
  182.9320  179.2520  142.4700 C   0  0  0  0  0  2  0  0  0  0  0  0
  181.4960  179.0890  142.9370 C   0  0  0  0  0  2  0  0  0  0  0  0
  181.0460  179.9910  140.7850 O   0  0  0  0  0  0  0  0  0  0  0  0
  180.0660  177.8010  141.3230 C   0  0  0  0  0  0  0  0  0  0  0  0
  180.2480  178.9670  138.6990 C   0  0  0  0  0  2  0  0  0  0  0  0
  183.0950  176.7430  139.6800 C   0  0  0  0  0  2  0  0  0  0  0  0
  181.6200  178.3220  138.5840 C   0  0  0  0  0  2  0  0  0  0  0  0
  180.9760  176.9610  140.6560 O   0  0  0  0  0  0  0  0  0  0  0  0
  181.9210  177.3590  139.6980 C   0  0  0  0  0  0  0  0  0  0  0  0
  178.9420  180.5490  139.9040 O   0  0  0  0  0  1  0  0  0  0  0  0
  180.4400  179.2080  141.8110 C   0  0  1  0  0  0  0  0  0  0  0  0
  178.9500  177.3070  141.6490 O   0  0  0  0  0  0  0  0  0  0  0  0
  180.2640  180.2030  139.6070 C   0  0  1  0  0  0  0  0  0  0  0  0
  179.3010  179.9140  142.3060 O   0  0  0  0  0  0  0  0  0  0  0  0
  179.1510  179.7590  143.6980 C   0  0  0  0  0  1  0  0  0  0  0  0
  180.8650  181.3780  138.8380 C   0  0  0  0  0  2  0  0  0  0  0  0
  180.1160  181.6760  137.6980 O   0  0  0  0  0  1  0  0  0  0  0  0
  194.2070  173.1640  135.3370 C   0  0  0  0  0  2  0  0  0  0  0  0
  192.9630  172.4040  135.3550 N   0  0  0  0  0  0  0  0  0  0  0  0
  192.3370  170.0520  135.1910 C   0  0  0  0  0  1  0  0  0  0  0  0
  193.1620  171.1740  134.5940 C   0  0  0  0  0  2  0  0  0  0  0  0
  191.8860  173.2240  134.7760 C   0  0  0  0  0  2  0  0  0  0  0  0
  190.4720  172.6760  134.9990 C   0  0  0  0  0  2  0  0  0  0  0  0
  189.9380  173.1390  136.2320 O   0  0  0  0  0  0  0  0  0  0  0  0
  189.1450  174.2830  136.3220 C   0  0  0  0  0  0  0  0  0  0  0  0
  189.5210  177.9040  135.9720 F   0  0  0  0  0  0  0  0  0  0  0  0
  187.6860  176.6930  136.7550 C   0  0  0  0  0  0  0  0  0  0  0  0
  189.7300  175.4800  136.2030 C   0  0  0  0  0  3  0  0  0  0  0  0
  186.9710  177.8400  136.8590 F   0  0  0  0  0  0  0  0  0  0  0  0
  187.6420  174.1860  136.4940 C   0  0  1  0  0  3  0  0  0  0  0  0
  188.9500  176.7240  136.3210 C   0  0  0  0  0  0  0  0  0  0  0  0
  187.0850  175.4040  137.2500 C   0  0  0  0  0  2  0  0  0  0  0  0
  187.0290  174.0880  135.2390 O   0  0  0  0  0  0  0  0  0  0  0  0
  186.8750  172.7180  135.0200 C   0  0  0  0  0  2  0  0  0  0  0  0
  185.5170  172.4120  134.9120 O   0  0  0  0  0  0  0  0  0  0  0  0
  184.1690  173.1210  136.7370 C   0  0  0  0  0  1  0  0  0  0  0  0
  185.1320  172.0760  136.2100 C   0  0  0  0  0  2  0  0  0  0  0  0
  1  5  1  1  0  0  0
  1 10  1  0  0  0  0
  2 10  1  0  0  0  0
  4 11  1  0  0  0  0
  5  9  1  0  0  0  0
  6  3  2  0  0  0  0
  7  1  1  0  0  0  0
  7 13  1  1  0  0  0
  8  6  1  0  0  0  0
  8 14  1  0  0  0  0
  9  6  1  0  0  0  0
 10  8  2  0  0  0  0
 11  2  2  0  0  0  0
 12  7  1  0  0  0  0
 12 11  1  0  0  0  0
 15  9  1  0  0  0  0
 15 16  1  0  0  0  0
 16 17  1  0  0  0  0
 19 24  1  6  0  0  0
 19 18  1  0  0  0  0
 20 21  1  0  0  0  0
 21 18  1  0  0  0  0
 22 23  1  0  0  0  0
 22 19  1  0  0  0  0
 23 17  1  6  0  0  0
 23 20  1  0  0  0  0
 24 26  1  0  0  0  0
 26 27  1  0  0  0  0
 27 25  2  0  0  0  0
 28 27  1  0  0  0  0
 29 30  1  0  0  0  0
 29 28  1  0  0  0  0
 31 39  1  0  0  0  0
 32 40  2  0  0  0  0
 32 39  1  0  0  0  0
 33 41  1  0  0  0  0
 34 37  2  0  0  0  0
 35 33  1  0  0  0  0
 35 37  1  0  0  0  0
 36 32  1  0  0  0  0
 37 36  1  0  0  0  0
 39 42  1  0  0  0  0
 39 30  1  1  0  0  0
 41 38  1  1  0  0  0
 41 31  1  0  0  0  0
 42 43  1  0  0  0  0
 44 41  1  0  0  0  0
 45 44  1  0  0  0  0
 46 47  1  0  0  0  0
 46  7  1  0  0  0  0
 49 48  1  0  0  0  0
 49 47  1  0  0  0  0
 50 51  1  0  0  0  0
 50 47  1  0  0  0  0
 51 52  1  0  0  0  0
 52 53  1  0  0  0  0
 53 58  1  0  0  0  0
 54 59  1  0  0  0  0
 55 57  1  0  0  0  0
 55 60  1  0  0  0  0
 56 59  1  0  0  0  0
 56 53  2  0  0  0  0
 58 61  1  6  0  0  0
 58 60  1  0  0  0  0
 59 55  2  0  0  0  0
 62 61  1  0  0  0  0
 63 62  1  0  0  0  0
 63 65  1  0  0  0  0
 65 64  1  0  0  0  0
M  END
>  <MODEL>
5

>  <REMARK>
 VINA RESULT:      -5.5      3.338      6.495
  Name = 
  23 active torsions:
  status: ('A' for Active; 'I' for Inactive)
    1  A    between atoms: C_3  and  C_5
    2  A    between atoms: C_3  and  C_23
    3  A    between atoms: C_5  and  C_58
    4  A    between atoms: N_7  and  C_13
    5  A    between atoms: N_7  and  C_40
    6  A    between atoms: N_7  and  C_63
    7  A    between atoms: C_11  and  O_26
    8  A    between atoms: O_12  and  C_49
    9  A    between atoms: C_13  and  C_31
   10  A    between atoms: C_15  and  N_44
   11  A    between atoms: C_15  and  C_61
   12  A    between atoms: O_19  and  C_45
   13  A    between atoms: O_19  and  C_52
   14  A    between atoms: C_23  and  C_49
   15  A    between atoms: O_26  and  C_35
   16  A    between atoms: N_29  and  C_32
   17  A    between atoms: C_30  and  C_32
   18  A    between atoms: C_35  and  C_40
   19  A    between atoms: C_39  and  C_57
   20  A    between atoms: O_43  and  C_45
   21  A    between atoms: O_43  and  C_56
   22  A    between atoms: C_47  and  C_61
   23  A    between atoms: C_47  and  C_65
                            x       y       z     vdW  Elec       q    Type
                         _______ _______ _______ _____ _____    ______ ____

>  <TORSDO>
F 23

$$$$
=
 OpenBabel11062417383D

 65 69  0  0  1  0  0  0  0  0999 V2000
  182.6590  178.2530  140.4530 C   0  0  2  0  0  3  0  0  0  0  0  0
  181.9010  179.0420  142.7550 N   0  0  0  0  0  0  0  0  0  0  0  0
  186.5360  178.8310  141.6490 O   0  0  0  0  0  0  0  0  0  0  0  0
  179.6580  178.9110  143.4620 N   0  0  0  0  0  1  0  0  0  0  0  0
  183.6760  178.6870  139.3850 C   0  0  0  0  0  2  0  0  0  0  0  0
  185.3420  178.8270  141.2420 C   0  0  0  0  0  0  0  0  0  0  0  0
  181.2190  178.5740  140.0120 C   0  0  1  0  0  0  0  0  0  0  0  0
  184.2380  179.1020  142.1810 C   0  0  0  0  0  0  0  0  0  0  0  0
  185.0470  178.5310  139.8710 N   0  0  0  0  0  0  0  0  0  0  0  0
  182.9660  178.8720  141.8060 C   0  0  0  0  0  0  0  0  0  0  0  0
  180.6610  178.8020  142.4570 C   0  0  0  0  0  0  0  0  0  0  0  0
  180.3010  178.3960  141.1330 N   0  0  0  0  0  2  0  0  0  0  0  0
  181.1430  179.9000  139.5680 O   0  0  0  0  0  1  0  0  0  0  0  0
  184.5510  179.6140  143.5510 C   0  0  0  0  0  1  0  0  0  0  0  0
  186.0820  177.9710  139.0010 C   0  0  0  0  0  2  0  0  0  0  0  0
  186.0760  178.6170  137.6130 C   0  0  0  0  0  2  0  0  0  0  0  0
  187.4730  178.7680  137.0170 C   0  0  0  0  0  2  0  0  0  0  0  0
  190.3480  175.7520  136.0500 C   0  0  0  0  0  2  0  0  0  0  0  0
  189.6730  175.6510  137.4120 C   0  0  2  0  0  3  0  0  0  0  0  0
  188.8300  177.5610  135.4050 N   0  0  0  0  0  2  0  0  0  0  0  0
  189.3390  176.2460  135.0170 C   0  0  0  0  0  2  0  0  0  0  0  0
  189.0090  176.9790  137.7720 C   0  0  0  0  0  2  0  0  0  0  0  0
  188.0740  177.4230  136.6490 C   0  0  1  0  0  3  0  0  0  0  0  0
  190.7080  175.3000  138.4620 C   0  0  0  0  0  2  0  0  0  0  0  0
  191.3930  178.0340  140.7990 O   0  0  0  0  0  0  0  0  0  0  0  0
  191.2490  176.5180  139.0490 N   0  0  0  0  0  2  0  0  0  0  0  0
  190.8580  176.9910  140.3380 C   0  0  0  0  0  0  0  0  0  0  0  0
  189.8500  176.2450  141.1570 C   0  0  0  0  0  2  0  0  0  0  0  0
  189.3150  177.1170  142.2780 C   0  0  0  0  0  2  0  0  0  0  0  0
  189.2440  176.3100  143.5630 C   0  0  0  0  0  2  0  0  0  0  0  0
  189.3910  176.2480  145.9350 O   0  0  0  0  0  0  0  0  0  0  0  0
  191.2570  177.2810  144.7100 C   0  0  0  0  0  0  0  0  0  0  0  0
  191.2860  176.4980  147.4780 C   0  0  0  0  0  2  0  0  0  0  0  0
  192.5210  173.9230  145.0580 C   0  0  0  0  0  2  0  0  0  0  0  0
  191.7450  175.1250  147.0130 C   0  0  0  0  0  2  0  0  0  0  0  0
  192.1790  176.2200  144.7370 O   0  0  0  0  0  0  0  0  0  0  0  0
  192.1050  175.0800  145.5550 C   0  0  0  0  0  0  0  0  0  0  0  0
  189.5200  178.0900  147.3850 O   0  0  0  0  0  1  0  0  0  0  0  0
  189.7410  177.0660  144.8200 C   0  0  1  0  0  0  0  0  0  0  0  0
  191.7030  178.4320  144.4400 O   0  0  0  0  0  0  0  0  0  0  0  0
  189.7920  176.7280  147.2200 C   0  0  1  0  0  0  0  0  0  0  0  0
  189.0390  178.3060  144.9310 O   0  0  0  0  0  0  0  0  0  0  0  0
  187.6450  178.1160  145.0000 C   0  0  0  0  0  1  0  0  0  0  0  0
  188.9840  175.9850  148.2820 C   0  0  0  0  0  2  0  0  0  0  0  0
  187.8600  176.7170  148.6700 O   0  0  0  0  0  1  0  0  0  0  0  0
  180.8220  177.6260  138.8820 C   0  0  0  0  0  2  0  0  0  0  0  0
  179.7760  176.7040  139.3090 N   0  0  0  0  0  0  0  0  0  0  0  0
  179.3610  174.5070  140.2840 C   0  0  0  0  0  1  0  0  0  0  0  0
  180.4080  175.5420  139.9280 C   0  0  0  0  0  2  0  0  0  0  0  0
  178.9690  176.3140  138.1400 C   0  0  0  0  0  2  0  0  0  0  0  0
  179.1990  177.1660  136.8880 C   0  0  0  0  0  2  0  0  0  0  0  0
  179.7040  176.3720  135.8210 O   0  0  0  0  0  0  0  0  0  0  0  0
  180.8570  175.5970  135.9450 C   0  0  0  0  0  0  0  0  0  0  0  0
  184.3570  176.0400  136.9080 F   0  0  0  0  0  0  0  0  0  0  0  0
  183.3250  174.1720  135.9610 C   0  0  0  0  0  0  0  0  0  0  0  0
  182.0070  176.2040  136.2580 C   0  0  0  0  0  3  0  0  0  0  0  0
  184.4820  173.4750  136.0700 F   0  0  0  0  0  0  0  0  0  0  0  0
  180.8120  174.0910  135.7860 C   0  0  1  0  0  3  0  0  0  0  0  0
  183.2630  175.4430  136.3710 C   0  0  0  0  0  0  0  0  0  0  0  0
  182.1500  173.5420  135.2630 C   0  0  0  0  0  2  0  0  0  0  0  0
  180.5070  173.4950  137.0160 O   0  0  0  0  0  0  0  0  0  0  0  0
  180.6160  172.1220  136.7890 C   0  0  0  0  0  2  0  0  0  0  0  0
  179.5480  171.6930  135.9990 O   0  0  0  0  0  0  0  0  0  0  0  0
  181.4020  170.3230  135.4200 C   0  0  0  0  0  1  0  0  0  0  0  0
  179.9000  170.4010  135.6090 C   0  0  0  0  0  2  0  0  0  0  0  0
  1  5  1  6  0  0  0
  1 10  1  0  0  0  0
  5  9  1  0  0  0  0
  6  3  2  0  0  0  0
  6  8  1  0  0  0  0
  7 13  1  6  0  0  0
  7  1  1  0  0  0  0
  7 12  1  0  0  0  0
  8 14  1  0  0  0  0
  9  6  1  0  0  0  0
 10  8  2  0  0  0  0
 10  2  1  0  0  0  0
 11  2  2  0  0  0  0
 11  4  1  0  0  0  0
 12 11  1  0  0  0  0
 15  9  1  0  0  0  0
 16 15  1  0  0  0  0
 17 16  1  0  0  0  0
 18 19  1  0  0  0  0
 19 22  1  0  0  0  0
 19 24  1  1  0  0  0
 20 23  1  0  0  0  0
 21 20  1  0  0  0  0
 21 18  1  0  0  0  0
 23 17  1  1  0  0  0
 23 22  1  0  0  0  0
 24 26  1  0  0  0  0
 26 27  1  0  0  0  0
 27 25  2  0  0  0  0
 27 28  1  0  0  0  0
 28 29  1  0  0  0  0
 29 30  1  0  0  0  0
 31 41  1  0  0  0  0
 32 36  1  0  0  0  0
 32 39  1  0  0  0  0
 34 37  2  0  0  0  0
 35 33  1  0  0  0  0
 36 37  1  0  0  0  0
 37 35  1  0  0  0  0
 39 30  1  6  0  0  0
 39 42  1  0  0  0  0
 39 31  1  0  0  0  0
 40 32  2  0  0  0  0
 41 38  1  1  0  0  0
 41 33  1  0  0  0  0
 41 44  1  0  0  0  0
 42 43  1  0  0  0  0
 44 45  1  0  0  0  0
 46 47  1  0  0  0  0
 46  7  1  0  0  0  0
 47 49  1  0  0  0  0
 49 48  1  0  0  0  0
 50 47  1  0  0  0  0
 51 50  1  0  0  0  0
 52 53  1  0  0  0  0
 52 51  1  0  0  0  0
 53 56  2  0  0  0  0
 55 57  1  0  0  0  0
 55 59  2  0  0  0  0
 56 59  1  0  0  0  0
 58 53  1  0  0  0  0
 58 61  1  1  0  0  0
 59 54  1  0  0  0  0
 60 58  1  0  0  0  0
 60 55  1  0  0  0  0
 62 61  1  0  0  0  0
 63 62  1  0  0  0  0
 64 65  1  0  0  0  0
 65 63  1  0  0  0  0
M  END
>  <MODEL>
6

>  <REMARK>
 VINA RESULT:      -5.1      4.236     11.493
  Name = 
  23 active torsions:
  status: ('A' for Active; 'I' for Inactive)
    1  A    between atoms: C_3  and  C_5
    2  A    between atoms: C_3  and  C_23
    3  A    between atoms: C_5  and  C_58
    4  A    between atoms: N_7  and  C_13
    5  A    between atoms: N_7  and  C_40
    6  A    between atoms: N_7  and  C_63
    7  A    between atoms: C_11  and  O_26
    8  A    between atoms: O_12  and  C_49
    9  A    between atoms: C_13  and  C_31
   10  A    between atoms: C_15  and  N_44
   11  A    between atoms: C_15  and  C_61
   12  A    between atoms: O_19  and  C_45
   13  A    between atoms: O_19  and  C_52
   14  A    between atoms: C_23  and  C_49
   15  A    between atoms: O_26  and  C_35
   16  A    between atoms: N_29  and  C_32
   17  A    between atoms: C_30  and  C_32
   18  A    between atoms: C_35  and  C_40
   19  A    between atoms: C_39  and  C_57
   20  A    between atoms: O_43  and  C_45
   21  A    between atoms: O_43  and  C_56
   22  A    between atoms: C_47  and  C_61
   23  A    between atoms: C_47  and  C_65
                            x       y       z     vdW  Elec       q    Type
                         _______ _______ _______ _____ _____    ______ ____

>  <TORSDO>
F 23

$$$$
=
 OpenBabel11062417383D

 65 69  0  0  1  0  0  0  0  0999 V2000
  181.9280  178.2160  140.1180 C   0  0  2  0  0  3  0  0  0  0  0  0
  181.1920  178.9210  142.4540 N   0  0  0  0  0  0  0  0  0  0  0  0
  185.8130  178.3510  141.4180 O   0  0  0  0  0  0  0  0  0  0  0  0
  178.9310  178.9540  143.1120 N   0  0  0  0  0  1  0  0  0  0  0  0
  183.0060  178.6210  139.1000 C   0  0  0  0  0  2  0  0  0  0  0  0
  184.6340  178.4850  140.9910 C   0  0  0  0  0  0  0  0  0  0  0  0
  180.5350  178.6980  139.6740 C   0  0  1  0  0  0  0  0  0  0  0  0
  183.5370  178.7990  141.9270 C   0  0  0  0  0  0  0  0  0  0  0  0
  184.3450  178.3070  139.5980 N   0  0  0  0  0  0  0  0  0  0  0  0
  182.2590  178.7140  141.5150 C   0  0  0  0  0  0  0  0  0  0  0  0
  179.9430  178.8170  142.1190 C   0  0  0  0  0  0  0  0  0  0  0  0
  179.5780  178.5340  140.7650 N   0  0  0  0  0  2  0  0  0  0  0  0
  180.5920  180.0510  139.3190 O   0  0  0  0  0  1  0  0  0  0  0  0
  183.8640  179.1910  143.3320 C   0  0  0  0  0  1  0  0  0  0  0  0
  185.3440  177.7110  138.7100 C   0  0  0  0  0  2  0  0  0  0  0  0
  185.6710  178.6190  137.5220 C   0  0  0  0  0  2  0  0  0  0  0  0
  187.1590  178.9350  137.4010 C   0  0  0  0  0  2  0  0  0  0  0  0
  190.4570  176.3940  136.4140 C   0  0  0  0  0  2  0  0  0  0  0  0
  189.6250  176.0050  137.6290 C   0  0  2  0  0  3  0  0  0  0  0  0
  188.8430  178.1430  135.8400 N   0  0  0  0  0  2  0  0  0  0  0  0
  189.5420  176.9630  135.3330 C   0  0  0  0  0  2  0  0  0  0  0  0
  188.7750  177.1880  138.0890 C   0  0  0  0  0  2  0  0  0  0  0  0
  187.9510  177.7300  136.9220 C   0  0  1  0  0  3  0  0  0  0  0  0
  190.5460  175.5760  138.7540 C   0  0  0  0  0  2  0  0  0  0  0  0
  192.0240  178.2830  140.7280 O   0  0  0  0  0  0  0  0  0  0  0  0
  191.3830  176.6970  139.1620 N   0  0  0  0  0  2  0  0  0  0  0  0
  191.2430  177.3410  140.4270 C   0  0  0  0  0  0  0  0  0  0  0  0
  190.2040  176.8920  141.4080 C   0  0  0  0  0  2  0  0  0  0  0  0
  189.3020  178.0450  141.8030 C   0  0  0  0  0  2  0  0  0  0  0  0
  189.6660  178.5250  143.1980 C   0  0  0  0  0  2  0  0  0  0  0  0
  189.4740  178.1710  145.5410 O   0  0  0  0  0  0  0  0  0  0  0  0
  188.1910  176.6840  144.0600 C   0  0  0  0  0  0  0  0  0  0  0  0
  187.8140  176.9720  146.8980 C   0  0  0  0  0  2  0  0  0  0  0  0
  185.6890  179.1860  144.7540 C   0  0  0  0  0  2  0  0  0  0  0  0
  186.8540  178.1080  146.5850 C   0  0  0  0  0  2  0  0  0  0  0  0
  186.9220  177.2820  144.1610 O   0  0  0  0  0  0  0  0  0  0  0  0
  186.5250  178.2240  145.1230 C   0  0  0  0  0  0  0  0  0  0  0  0
  190.0690  176.2330  146.7240 O   0  0  0  0  0  1  0  0  0  0  0  0
  189.4950  177.4570  144.3070 C   0  0  1  0  0  0  0  0  0  0  0  0
  188.2440  175.5050  143.6100 O   0  0  0  0  0  0  0  0  0  0  0  0
  189.2800  177.3870  146.7200 C   0  0  1  0  0  0  0  0  0  0  0  0
  190.6300  176.5900  144.3040 O   0  0  0  0  0  0  0  0  0  0  0  0
  191.8130  177.2740  143.9580 C   0  0  0  0  0  1  0  0  0  0  0  0
  189.7110  178.2200  147.9250 C   0  0  0  0  0  2  0  0  0  0  0  0
  188.8490  178.0340  149.0070 O   0  0  0  0  0  1  0  0  0  0  0  0
  180.0790  177.8660  138.4770 C   0  0  0  0  0  2  0  0  0  0  0  0
  179.5580  176.5720  138.9000 N   0  0  0  0  0  0  0  0  0  0  0  0
  179.9470  174.8080  140.5390 C   0  0  0  0  0  1  0  0  0  0  0  0
  180.5770  175.9030  139.7030 C   0  0  0  0  0  2  0  0  0  0  0  0
  179.2090  175.7780  137.7090 C   0  0  0  0  0  2  0  0  0  0  0  0
  178.9310  176.6020  136.4480 C   0  0  0  0  0  2  0  0  0  0  0  0
  179.5420  176.0080  135.3090 O   0  0  0  0  0  0  0  0  0  0  0  0
  180.9020  175.7010  135.2640 C   0  0  0  0  0  0  0  0  0  0  0  0
  184.0980  177.4670  135.0730 F   0  0  0  0  0  0  0  0  0  0  0  0
  183.6780  175.1780  134.8860 C   0  0  0  0  0  0  0  0  0  0  0  0
  181.7790  176.6970  135.0980 C   0  0  0  0  0  3  0  0  0  0  0  0
  185.0090  174.9380  134.8090 F   0  0  0  0  0  0  0  0  0  0  0  0
  181.3920  174.2800  135.4550 C   0  0  1  0  0  3  0  0  0  0  0  0
  183.2250  176.4300  135.0110 C   0  0  0  0  0  0  0  0  0  0  0  0
  182.7120  174.0370  134.7030 C   0  0  0  0  0  2  0  0  0  0  0  0
  181.5710  174.0200  136.8190 O   0  0  0  0  0  0  0  0  0  0  0  0
  181.6150  172.6290  136.9180 C   0  0  0  0  0  2  0  0  0  0  0  0
  182.9180  172.2220  137.2090 O   0  0  0  0  0  0  0  0  0  0  0  0
  183.8680  170.7600  135.5920 C   0  0  0  0  0  1  0  0  0  0  0  0
  182.9660  170.8880  136.8040 C   0  0  0  0  0  2  0  0  0  0  0  0
  1  5  1  6  0  0  0
  1 10  1  0  0  0  0
  5  9  1  0  0  0  0
  6  3  2  0  0  0  0
  6  8  1  0  0  0  0
  7 13  1  6  0  0  0
  7  1  1  0  0  0  0
  7 12  1  0  0  0  0
  8 14  1  0  0  0  0
  9  6  1  0  0  0  0
 10  8  2  0  0  0  0
 10  2  1  0  0  0  0
 11  2  2  0  0  0  0
 11  4  1  0  0  0  0
 12 11  1  0  0  0  0
 15  9  1  0  0  0  0
 16 15  1  0  0  0  0
 17 16  1  0  0  0  0
 18 19  1  0  0  0  0
 19 22  1  0  0  0  0
 19 24  1  1  0  0  0
 20 23  1  0  0  0  0
 21 20  1  0  0  0  0
 21 18  1  0  0  0  0
 23 17  1  1  0  0  0
 23 22  1  0  0  0  0
 24 26  1  0  0  0  0
 26 27  1  0  0  0  0
 27 25  2  0  0  0  0
 27 28  1  0  0  0  0
 28 29  1  0  0  0  0
 29 30  1  0  0  0  0
 31 41  1  0  0  0  0
 32 36  1  0  0  0  0
 32 39  1  0  0  0  0
 34 37  2  0  0  0  0
 35 33  1  0  0  0  0
 36 37  1  0  0  0  0
 37 35  1  0  0  0  0
 39 30  1  6  0  0  0
 39 31  1  0  0  0  0
 40 32  2  0  0  0  0
 41 38  1  6  0  0  0
 41 33  1  0  0  0  0
 41 44  1  0  0  0  0
 42 39  1  0  0  0  0
 43 42  1  0  0  0  0
 44 45  1  0  0  0  0
 46 47  1  0  0  0  0
 46  7  1  0  0  0  0
 47 49  1  0  0  0  0
 49 48  1  0  0  0  0
 50 47  1  0  0  0  0
 51 50  1  0  0  0  0
 52 51  1  0  0  0  0
 53 52  1  0  0  0  0
 53 58  1  0  0  0  0
 55 59  2  0  0  0  0
 56 53  2  0  0  0  0
 57 55  1  0  0  0  0
 58 61  1  1  0  0  0
 59 54  1  0  0  0  0
 59 56  1  0  0  0  0
 60 55  1  0  0  0  0
 60 58  1  0  0  0  0
 61 62  1  0  0  0  0
 62 63  1  0  0  0  0
 64 65  1  0  0  0  0
 65 63  1  0  0  0  0
M  END
>  <MODEL>
7

>  <REMARK>
 VINA RESULT:      -4.7      4.261     10.976
  Name = 
  23 active torsions:
  status: ('A' for Active; 'I' for Inactive)
    1  A    between atoms: C_3  and  C_5
    2  A    between atoms: C_3  and  C_23
    3  A    between atoms: C_5  and  C_58
    4  A    between atoms: N_7  and  C_13
    5  A    between atoms: N_7  and  C_40
    6  A    between atoms: N_7  and  C_63
    7  A    between atoms: C_11  and  O_26
    8  A    between atoms: O_12  and  C_49
    9  A    between atoms: C_13  and  C_31
   10  A    between atoms: C_15  and  N_44
   11  A    between atoms: C_15  and  C_61
   12  A    between atoms: O_19  and  C_45
   13  A    between atoms: O_19  and  C_52
   14  A    between atoms: C_23  and  C_49
   15  A    between atoms: O_26  and  C_35
   16  A    between atoms: N_29  and  C_32
   17  A    between atoms: C_30  and  C_32
   18  A    between atoms: C_35  and  C_40
   19  A    between atoms: C_39  and  C_57
   20  A    between atoms: O_43  and  C_45
   21  A    between atoms: O_43  and  C_56
   22  A    between atoms: C_47  and  C_61
   23  A    between atoms: C_47  and  C_65
                            x       y       z     vdW  Elec       q    Type
                         _______ _______ _______ _____ _____    ______ ____

>  <TORSDO>
F 23

$$$$
=
 OpenBabel11062417383D

 65 69  0  0  1  0  0  0  0  0999 V2000
  186.7090  176.1280  137.1630 C   0  0  2  0  0  3  0  0  0  0  0  0
  186.4910  178.3260  138.4330 N   0  0  0  0  0  0  0  0  0  0  0  0
  190.5130  175.7700  138.6480 O   0  0  0  0  0  0  0  0  0  0  0  0
  184.4540  179.4970  138.5960 N   0  0  0  0  0  1  0  0  0  0  0  0
  187.7560  175.4280  136.2800 C   0  0  0  0  0  2  0  0  0  0  0  0
  189.4150  175.9820  138.0650 C   0  0  0  0  0  0  0  0  0  0  0  0
  185.5290  176.6460  136.3220 C   0  0  1  0  0  0  0  0  0  0  0  0
  188.5900  177.1470  138.4380 C   0  0  0  0  0  0  0  0  0  0  0  0
  188.9480  175.0800  137.0530 N   0  0  0  0  0  0  0  0  0  0  0  0
  187.3260  177.2460  137.9870 C   0  0  0  0  0  0  0  0  0  0  0  0
  185.2560  178.4500  138.0570 C   0  0  0  0  0  0  0  0  0  0  0  0
  184.6850  177.5220  137.1290 N   0  0  0  0  0  2  0  0  0  0  0  0
  186.0110  177.3660  135.2220 O   0  0  0  0  0  1  0  0  0  0  0  0
  189.1660  178.1970  139.3340 C   0  0  0  0  0  1  0  0  0  0  0  0
  189.5910  173.7780  136.8760 C   0  0  0  0  0  2  0  0  0  0  0  0
  190.8740  173.8790  136.0470 C   0  0  0  0  0  2  0  0  0  0  0  0
  192.1210  173.4580  136.8200 C   0  0  0  0  0  2  0  0  0  0  0  0
  193.4930  177.4410  137.5640 C   0  0  0  0  0  2  0  0  0  0  0  0
  193.6130  176.4430  138.7090 C   0  0  2  0  0  3  0  0  0  0  0  0
  192.8320  175.6440  136.0380 N   0  0  0  0  0  2  0  0  0  0  0  0
  193.7850  176.7350  136.2430 C   0  0  0  0  0  2  0  0  0  0  0  0
  192.7310  175.2250  138.4430 C   0  0  0  0  0  2  0  0  0  0  0  0
  193.0490  174.6330  137.0720 C   0  0  1  0  0  3  0  0  0  0  0  0
  193.1840  177.1080  140.0030 C   0  0  0  0  0  2  0  0  0  0  0  0
  190.8690  175.7390  142.4870 O   0  0  0  0  0  0  0  0  0  0  0  0
  192.4020  176.1740  140.8010 N   0  0  0  0  0  2  0  0  0  0  0  0
  191.5440  176.5980  141.8600 C   0  0  0  0  0  0  0  0  0  0  0  0
  191.4130  178.0480  142.2100 C   0  0  0  0  0  2  0  0  0  0  0  0
  189.9690  178.4020  142.5090 C   0  0  0  0  0  2  0  0  0  0  0  0
  189.7940  178.6170  144.0030 C   0  0  0  0  0  2  0  0  0  0  0  0
  187.8390  178.5480  145.3540 O   0  0  0  0  0  0  0  0  0  0  0  0
  188.0450  176.8650  143.5720 C   0  0  0  0  0  0  0  0  0  0  0  0
  185.6450  177.4910  145.0300 C   0  0  0  0  0  2  0  0  0  0  0  0
  186.1340  179.3820  141.8360 C   0  0  0  0  0  2  0  0  0  0  0  0
  185.3720  178.5600  143.9840 C   0  0  0  0  0  2  0  0  0  0  0  0
  187.2150  177.4460  142.5960 O   0  0  0  0  0  0  0  0  0  0  0  0
  186.2990  178.4900  142.8040 C   0  0  0  0  0  0  0  0  0  0  0  0
  187.1450  176.7820  146.7360 O   0  0  0  0  0  1  0  0  0  0  0  0
  188.7440  177.6890  144.6640 C   0  0  1  0  0  0  0  0  0  0  0  0
  188.3290  175.6420  143.4410 O   0  0  0  0  0  0  0  0  0  0  0  0
  186.7430  177.9110  146.0140 C   0  0  1  0  0  0  0  0  0  0  0  0
  189.3930  176.8520  145.6220 O   0  0  0  0  0  0  0  0  0  0  0  0
  190.4660  177.5100  146.2550 C   0  0  0  0  0  1  0  0  0  0  0  0
  186.1560  178.8940  147.0250 C   0  0  0  0  0  2  0  0  0  0  0  0
  184.8080  178.6270  147.2700 O   0  0  0  0  0  1  0  0  0  0  0  0
  184.7010  175.4560  135.8390 C   0  0  0  0  0  2  0  0  0  0  0  0
  183.6050  175.1680  136.7570 N   0  0  0  0  0  0  0  0  0  0  0  0
  184.6190  172.9550  136.5950 C   0  0  0  0  0  1  0  0  0  0  0  0
  183.9320  173.9550  137.5020 C   0  0  0  0  0  2  0  0  0  0  0  0
  182.3600  175.0030  135.9880 C   0  0  0  0  0  2  0  0  0  0  0  0
  181.0980  174.8320  136.8390 C   0  0  0  0  0  2  0  0  0  0  0  0
  180.2880  176.0000  136.7860 O   0  0  0  0  0  0  0  0  0  0  0  0
  180.4170  177.0420  137.7040 C   0  0  0  0  0  0  0  0  0  0  0  0
  181.9390  177.6280  140.9780 F   0  0  0  0  0  0  0  0  0  0  0  0
  180.4970  179.0080  139.7670 C   0  0  0  0  0  0  0  0  0  0  0  0
  181.0070  176.7920  138.8790 C   0  0  0  0  0  3  0  0  0  0  0  0
  180.6280  179.9740  140.7090 F   0  0  0  0  0  0  0  0  0  0  0  0
  179.9530  178.4450  137.3710 C   0  0  1  0  0  3  0  0  0  0  0  0
  181.1420  177.8440  139.9010 C   0  0  0  0  0  0  0  0  0  0  0  0
  179.5250  179.2100  138.6350 C   0  0  0  0  0  2  0  0  0  0  0  0
  180.9800  179.1410  136.7230 O   0  0  0  0  0  0  0  0  0  0  0  0
  180.3300  180.0820  135.9230 C   0  0  0  0  0  2  0  0  0  0  0  0
  181.1080  181.2390  135.8360 O   0  0  0  0  0  0  0  0  0  0  0  0
  180.7580  183.4940  135.1720 C   0  0  0  0  0  1  0  0  0  0  0  0
  180.4440  182.0350  134.9030 C   0  0  0  0  0  2  0  0  0  0  0  0
  1  5  1  6  0  0  0
  1 10  1  0  0  0  0
  5  9  1  0  0  0  0
  6  8  1  0  0  0  0
  6  3  2  0  0  0  0
  7 13  1  6  0  0  0
  7 12  1  0  0  0  0
  7  1  1  0  0  0  0
  8 14  1  0  0  0  0
  9  6  1  0  0  0  0
 10  2  1  0  0  0  0
 10  8  2  0  0  0  0
 11  2  2  0  0  0  0
 11  4  1  0  0  0  0
 12 11  1  0  0  0  0
 15  9  1  0  0  0  0
 16 17  1  0  0  0  0
 16 15  1  0  0  0  0
 18 19  1  0  0  0  0
 19 24  1  1  0  0  0
 20 21  1  0  0  0  0
 20 23  1  0  0  0  0
 21 18  1  0  0  0  0
 22 19  1  0  0  0  0
 23 17  1  6  0  0  0
 23 22  1  0  0  0  0
 24 26  1  0  0  0  0
 26 27  1  0  0  0  0
 27 28  1  0  0  0  0
 27 25  2  0  0  0  0
 28 29  1  0  0  0  0
 29 30  1  0  0  0  0
 31 41  1  0  0  0  0
 32 39  1  0  0  0  0
 33 41  1  0  0  0  0
 34 37  2  0  0  0  0
 35 33  1  0  0  0  0
 36 37  1  0  0  0  0
 36 32  1  0  0  0  0
 37 35  1  0  0  0  0
 39 30  1  6  0  0  0
 39 31  1  0  0  0  0
 39 42  1  0  0  0  0
 40 32  2  0  0  0  0
 41 38  1  1  0  0  0
 41 44  1  0  0  0  0
 42 43  1  0  0  0  0
 44 45  1  0  0  0  0
 46  7  1  0  0  0  0
 46 47  1  0  0  0  0
 47 49  1  0  0  0  0
 48 49  1  0  0  0  0
 50 47  1  0  0  0  0
 50 51  1  0  0  0  0
 52 51  1  0  0  0  0
 52 53  1  0  0  0  0
 53 56  2  0  0  0  0
 55 59  2  0  0  0  0
 55 57  1  0  0  0  0
 56 59  1  0  0  0  0
 58 61  1  1  0  0  0
 58 53  1  0  0  0  0
 58 60  1  0  0  0  0
 59 54  1  0  0  0  0
 60 55  1  0  0  0  0
 62 61  1  0  0  0  0
 63 62  1  0  0  0  0
 65 64  1  0  0  0  0
 65 63  1  0  0  0  0
M  END
>  <MODEL>
8

>  <REMARK>
 VINA RESULT:      -4.7      4.304     10.814
  Name = 
  23 active torsions:
  status: ('A' for Active; 'I' for Inactive)
    1  A    between atoms: C_3  and  C_5
    2  A    between atoms: C_3  and  C_23
    3  A    between atoms: C_5  and  C_58
    4  A    between atoms: N_7  and  C_13
    5  A    between atoms: N_7  and  C_40
    6  A    between atoms: N_7  and  C_63
    7  A    between atoms: C_11  and  O_26
    8  A    between atoms: O_12  and  C_49
    9  A    between atoms: C_13  and  C_31
   10  A    between atoms: C_15  and  N_44
   11  A    between atoms: C_15  and  C_61
   12  A    between atoms: O_19  and  C_45
   13  A    between atoms: O_19  and  C_52
   14  A    between atoms: C_23  and  C_49
   15  A    between atoms: O_26  and  C_35
   16  A    between atoms: N_29  and  C_32
   17  A    between atoms: C_30  and  C_32
   18  A    between atoms: C_35  and  C_40
   19  A    between atoms: C_39  and  C_57
   20  A    between atoms: O_43  and  C_45
   21  A    between atoms: O_43  and  C_56
   22  A    between atoms: C_47  and  C_61
   23  A    between atoms: C_47  and  C_65
                            x       y       z     vdW  Elec       q    Type
                         _______ _______ _______ _____ _____    ______ ____

>  <TORSDO>
F 23

$$$$
=
 OpenBabel11062417383D

 65 69  0  0  1  0  0  0  0  0999 V2000
  187.3180  175.1000  136.1210 C   0  0  2  0  0  3  0  0  0  0  0  0
  189.4140  173.8040  136.7690 N   0  0  0  0  0  0  0  0  0  0  0  0
  185.4770  171.5230  135.3370 O   0  0  0  0  0  0  0  0  0  0  0  0
  191.2930  174.8390  137.7420 N   0  0  0  0  0  1  0  0  0  0  0  0
  186.2690  175.0700  134.9980 C   0  0  0  0  0  2  0  0  0  0  0  0
  186.1100  172.6110  135.4140 C   0  0  0  0  0  0  0  0  0  0  0  0
  188.2670  176.3020  135.9650 C   0  0  1  0  0  0  0  0  0  0  0  0
  187.5030  172.6270  135.9000 C   0  0  0  0  0  0  0  0  0  0  0  0
  185.4730  173.8450  135.0540 N   0  0  0  0  0  0  0  0  0  0  0  0
  188.0960  173.7970  136.2000 C   0  0  0  0  0  0  0  0  0  0  0  0
  190.0190  174.9000  137.1080 C   0  0  0  0  0  0  0  0  0  0  0  0
  189.3990  176.1690  136.8780 N   0  0  0  0  0  2  0  0  0  0  0  0
  188.7470  176.3590  134.6510 O   0  0  0  0  0  1  0  0  0  0  0  0
  188.2330  171.3330  136.0730 C   0  0  0  0  0  1  0  0  0  0  0  0
  184.0240  173.8930  134.8570 C   0  0  0  0  0  2  0  0  0  0  0  0
  183.2740  174.1350  136.1690 C   0  0  0  0  0  2  0  0  0  0  0  0
  182.0260  173.2680  136.3140 C   0  0  0  0  0  2  0  0  0  0  0  0
  179.4650  176.1950  138.0960 C   0  0  0  0  0  2  0  0  0  0  0  0
  179.9020  176.4430  136.6570 C   0  0  2  0  0  3  0  0  0  0  0  0
  180.4600  173.9590  138.0370 N   0  0  0  0  0  2  0  0  0  0  0  0
  179.2300  174.7020  138.3050 C   0  0  0  0  0  2  0  0  0  0  0  0
  181.1030  175.5660  136.3120 C   0  0  0  0  0  2  0  0  0  0  0  0
  180.7950  174.1030  136.6210 C   0  0  1  0  0  3  0  0  0  0  0  0
  180.2740  177.9030  136.4890 C   0  0  0  0  0  2  0  0  0  0  0  0
  178.9690  180.6900  138.4740 O   0  0  0  0  0  0  0  0  0  0  0  0
  179.3970  178.7330  137.3030 N   0  0  0  0  0  2  0  0  0  0  0  0
  179.7920  180.0090  137.8050 C   0  0  0  0  0  0  0  0  0  0  0  0
  181.1550  180.5600  137.5180 C   0  0  0  0  0  2  0  0  0  0  0  0
  182.1680  180.0360  138.5180 C   0  0  0  0  0  2  0  0  0  0  0  0
  181.5680  180.0570  139.9140 C   0  0  0  0  0  2  0  0  0  0  0  0
  182.6650  179.6290  141.9780 O   0  0  0  0  0  0  0  0  0  0  0  0
  180.9450  178.0260  141.2550 C   0  0  0  0  0  0  0  0  0  0  0  0
  182.0840  178.2020  143.8920 C   0  0  0  0  0  2  0  0  0  0  0  0
  178.9510  180.1780  143.3500 C   0  0  0  0  0  2  0  0  0  0  0  0
  180.9980  179.2140  144.2170 C   0  0  0  0  0  2  0  0  0  0  0  0
  179.8660  178.4580  142.0470 O   0  0  0  0  0  0  0  0  0  0  0  0
  179.9440  179.3210  143.1520 C   0  0  0  0  0  0  0  0  0  0  0  0
  183.9730  177.7560  142.5160 O   0  0  0  0  0  1  0  0  0  0  0  0
  182.1050  178.9510  140.8560 C   0  0  1  0  0  0  0  0  0  0  0  0
  180.8670  176.8730  140.7450 O   0  0  0  0  0  0  0  0  0  0  0  0
  183.1920  178.8010  143.0180 C   0  0  1  0  0  0  0  0  0  0  0  0
  183.1470  178.2340  140.1940 O   0  0  0  0  0  0  0  0  0  0  0  0
  184.3800  178.9140  140.2640 C   0  0  0  0  0  1  0  0  0  0  0  0
  184.1080  179.6550  143.8920 C   0  0  0  0  0  2  0  0  0  0  0  0
  185.2100  180.1190  143.1720 O   0  0  0  0  0  1  0  0  0  0  0  0
  187.5040  177.5840  136.2940 C   0  0  0  0  0  2  0  0  0  0  0  0
  187.0110  177.5680  137.6670 N   0  0  0  0  0  0  0  0  0  0  0  0
  184.6590  177.0830  137.2390 C   0  0  0  0  0  1  0  0  0  0  0  0
  185.6630  178.1280  137.6800 C   0  0  0  0  0  2  0  0  0  0  0  0
  187.9240  178.3510  138.5180 C   0  0  0  0  0  2  0  0  0  0  0  0
  187.8490  178.0200  140.0120 C   0  0  0  0  0  2  0  0  0  0  0  0
  188.8600  177.0870  140.3750 O   0  0  0  0  0  0  0  0  0  0  0  0
  189.5030  177.1250  141.6130 C   0  0  0  0  0  0  0  0  0  0  0  0
  192.7400  178.1370  142.9810 F   0  0  0  0  0  0  0  0  0  0  0  0
  191.0030  176.9850  144.0320 C   0  0  0  0  0  0  0  0  0  0  0  0
  190.7840  177.5060  141.6580 C   0  0  0  0  0  3  0  0  0  0  0  0
  191.6870  177.0160  145.2010 F   0  0  0  0  0  0  0  0  0  0  0  0
  188.7620  176.7980  142.8930 C   0  0  1  0  0  3  0  0  0  0  0  0
  191.5260  177.5340  142.9310 C   0  0  0  0  0  0  0  0  0  0  0  0
  189.7100  176.2180  143.9570 C   0  0  0  0  0  2  0  0  0  0  0  0
  188.1460  177.9530  143.3910 O   0  0  0  0  0  0  0  0  0  0  0  0
  188.5650  178.0420  144.7190 C   0  0  0  0  0  2  0  0  0  0  0  0
  187.4650  177.8900  145.5660 O   0  0  0  0  0  0  0  0  0  0  0  0
  187.7090  177.9990  147.9280 C   0  0  0  0  0  1  0  0  0  0  0  0
  187.9670  177.1970  146.6680 C   0  0  0  0  0  2  0  0  0  0  0  0
  1  5  1  6  0  0  0
  1 10  1  0  0  0  0
  2 11  2  0  0  0  0
  3  6  2  0  0  0  0
  5  9  1  0  0  0  0
  6  8  1  0  0  0  0
  7 13  1  6  0  0  0
  7  1  1  0  0  0  0
  7 46  1  0  0  0  0
  7 12  1  0  0  0  0
  8 14  1  0  0  0  0
  8 10  2  0  0  0  0
  9  6  1  0  0  0  0
 10  2  1  0  0  0  0
 11  4  1  0  0  0  0
 12 11  1  0  0  0  0
 15  9  1  0  0  0  0
 15 16  1  0  0  0  0
 16 17  1  0  0  0  0
 18 21  1  0  0  0  0
 19 24  1  1  0  0  0
 19 18  1  0  0  0  0
 20 21  1  0  0  0  0
 22 23  1  0  0  0  0
 22 19  1  0  0  0  0
 23 17  1  1  0  0  0
 23 20  1  0  0  0  0
 24 26  1  0  0  0  0
 26 27  1  0  0  0  0
 27 25  2  0  0  0  0
 28 27  1  0  0  0  0
 28 29  1  0  0  0  0
 29 30  1  0  0  0  0
 31 41  1  0  0  0  0
 32 36  1  0  0  0  0
 33 35  1  0  0  0  0
 36 37  1  0  0  0  0
 37 34  2  0  0  0  0
 37 35  1  0  0  0  0
 39 30  1  6  0  0  0
 39 32  1  0  0  0  0
 39 31  1  0  0  0  0
 40 32  2  0  0  0  0
 41 38  1  6  0  0  0
 41 33  1  0  0  0  0
 41 44  1  0  0  0  0
 42 43  1  0  0  0  0
 42 39  1  0  0  0  0
 45 44  1  0  0  0  0
 46 47  1  0  0  0  0
 47 49  1  0  0  0  0
 47 50  1  0  0  0  0
 48 49  1  0  0  0  0
 50 51  1  0  0  0  0
 51 52  1  0  0  0  0
 52 53  1  0  0  0  0
 53 56  2  0  0  0  0
 53 58  1  0  0  0  0
 55 57  1  0  0  0  0
 56 59  1  0  0  0  0
 58 61  1  1  0  0  0
 58 60  1  0  0  0  0
 59 54  1  0  0  0  0
 59 55  2  0  0  0  0
 60 55  1  0  0  0  0
 61 62  1  0  0  0  0
 62 63  1  0  0  0  0
 63 65  1  0  0  0  0
 65 64  1  0  0  0  0
M  END
>  <MODEL>
9

>  <REMARK>
 VINA RESULT:      -4.6      4.320      8.517
  Name = 
  23 active torsions:
  status: ('A' for Active; 'I' for Inactive)
    1  A    between atoms: C_3  and  C_5
    2  A    between atoms: C_3  and  C_23
    3  A    between atoms: C_5  and  C_58
    4  A    between atoms: N_7  and  C_13
    5  A    between atoms: N_7  and  C_40
    6  A    between atoms: N_7  and  C_63
    7  A    between atoms: C_11  and  O_26
    8  A    between atoms: O_12  and  C_49
    9  A    between atoms: C_13  and  C_31
   10  A    between atoms: C_15  and  N_44
   11  A    between atoms: C_15  and  C_61
   12  A    between atoms: O_19  and  C_45
   13  A    between atoms: O_19  and  C_52
   14  A    between atoms: C_23  and  C_49
   15  A    between atoms: O_26  and  C_35
   16  A    between atoms: N_29  and  C_32
   17  A    between atoms: C_30  and  C_32
   18  A    between atoms: C_35  and  C_40
   19  A    between atoms: C_39  and  C_57
   20  A    between atoms: O_43  and  C_45
   21  A    between atoms: O_43  and  C_56
   22  A    between atoms: C_47  and  C_61
   23  A    between atoms: C_47  and  C_65
                            x       y       z     vdW  Elec       q    Type
                         _______ _______ _______ _____ _____    ______ ____

>  <TORSDO>
F 23

$$$$
