=
 OpenBabel11062412573D

 50 53  0  0  1  0  0  0  0  0999 V2000
  186.3700  178.8620  141.4480 C   0  0  2  0  0  3  0  0  0  0  0  0
  187.6890  178.6550  141.5530 O   0  0  0  0  0  0  0  0  0  0  0  0
  188.0430  178.1200  140.2760 C   0  0  0  0  0  2  0  0  0  0  0  0
  189.0300  177.0540  140.4570 C   0  0  0  0  0  2  0  0  0  0  0  0
  190.1860  177.4570  141.3490 C   0  0  1  0  0  3  0  0  0  0  0  0
  190.4820  176.4650  142.4530 C   0  0  0  0  0  0  0  0  0  0  0  0
  191.6110  176.5360  143.2800 O   0  0  0  0  0  1  0  0  0  0  0  0
  189.5620  175.6140  142.7560 O   0  0  0  0  0  0  0  0  0  0  0  0
  191.4270  177.6190  140.4690 C   0  0  0  0  0  2  0  0  0  0  0  0
  191.3840  176.7290  139.1780 C   0  0  0  0  0  2  0  0  0  0  0  0
  192.9360  176.2570  137.2760 C   0  0  0  0  0  0  0  0  0  0  0  0
  194.4510  173.6190  136.8410 C   0  0  0  0  0  0  0  0  0  0  0  0
  194.8040  172.5380  137.5210 C   0  0  0  0  0  2  0  0  0  0  0  0
  192.9160  175.2880  136.0660 C   0  0  2  0  0  0  0  0  0  0  0  0
  192.3760  172.8470  135.6990 C   0  0  0  0  0  0  0  0  0  0  0  0
  196.3840  175.0520  136.7340 O   0  0  0  0  0  1  0  0  0  0  0  0
  192.6400  176.8660  138.4110 C   0  0  0  0  0  3  0  0  0  0  0  0
  192.8250  171.5320  135.7550 O   0  0  0  0  0  1  0  0  0  0  0  0
  192.2650  175.8410  134.8050 C   0  0  0  0  0  1  0  0  0  0  0  0
  194.6410  177.0020  135.6370 F   0  0  0  0  0  0  0  0  0  0  0  0
  193.1480  173.8060  136.1740 C   0  0  0  0  0  0  0  0  0  0  0  0
  195.0500  174.9530  137.0980 C   0  0  1  0  0  3  0  0  0  0  0  0
  194.1560  175.9170  136.3680 C   0  0  1  0  0  0  0  0  0  0  0  0
  191.0630  173.1330  135.0330 C   0  0  0  0  0  2  0  0  0  0  0  0
  190.0000  172.6790  135.7980 O   0  0  0  0  0  1  0  0  0  0  0  0
  185.5170  178.0410  142.4830 C   0  0  0  0  0  2  0  0  0  0  0  0
  184.8930  178.4260  146.1290 C   0  0  0  0  0  2  0  0  0  0  0  0
  187.0080  177.4980  145.0850 C   0  0  0  0  0  0  0  0  0  0  0  0
  183.5770  178.9460  145.5540 C   0  0  0  0  0  2  0  0  0  0  0  0
  187.2480  176.6160  144.1890 O   0  0  0  0  0  0  0  0  0  0  0  0
  185.1440  178.8060  143.7780 C   0  0  2  0  0  3  0  0  0  0  0  0
  185.7990  178.2940  144.9730 N   0  0  0  0  0  0  0  0  0  0  0  0
  183.6870  178.5860  144.0830 C   0  0  2  0  0  3  0  0  0  0  0  0
  189.6550  177.8220  148.4230 C   0  0  0  0  0  3  0  0  0  0  0  0
  190.1330  177.3280  147.2050 C   0  0  0  0  0  0  0  0  0  0  0  0
  187.4660  178.0600  147.4540 C   0  0  0  0  0  3  0  0  0  0  0  0
  188.3070  178.1690  148.5540 C   0  0  0  0  0  3  0  0  0  0  0  0
  191.5000  176.9830  147.0670 N   0  0  0  0  0  1  0  0  0  0  0  0
  187.9220  177.5810  146.2170 C   0  0  0  0  0  0  0  0  0  0  0  0
  189.2760  177.1960  146.1190 C   0  0  0  0  0  3  0  0  0  0  0  0
  181.1810  178.9230  143.6190 C   0  0  0  0  0  1  0  0  0  0  0  0
  182.5990  179.1210  143.1280 C   0  0  0  0  0  2  0  0  0  0  0  0
  185.8540  178.7650  140.0050 C   0  0  0  0  0  2  0  0  0  0  0  0
  184.9110  179.7360  139.6750 O   0  0  0  0  0  0  0  0  0  0  0  0
  183.7840  178.9580  139.2550 C   0  0  0  0  0  2  0  0  0  0  0  0
  182.6710  179.8030  138.8130 C   0  0  0  0  0  2  0  0  0  0  0  0
  181.5280  179.6450  139.7000 N   0  0  0  0  0  2  0  0  0  0  0  0
  179.3410  180.3150  140.6550 N   0  0  0  0  0  1  0  0  0  0  0  0
  180.4660  180.5800  139.8090 C   0  0  0  0  0  0  0  0  0  0  0  0
  180.4340  181.6550  139.1030 O   0  0  0  0  0  0  0  0  0  0  0  0
  1 43  1  6  0  0  0
  1  2  1  0  0  0  0
  1 26  1  0  0  0  0
  3  4  1  0  0  0  0
  3  2  1  0  0  0  0
  5  4  1  6  0  0  0
  5  6  1  0  0  0  0
  6  8  2  0  0  0  0
  6  7  1  0  0  0  0
  9  5  1  0  0  0  0
 10  9  1  0  0  0  0
 11 17  2  0  0  0  0
 12 22  1  0  0  0  0
 12 13  2  0  0  0  0
 14 19  1  6  0  0  0
 14 21  1  0  0  0  0
 14 23  1  0  0  0  0
 14 11  1  0  0  0  0
 15 18  1  0  0  0  0
 15 21  2  0  0  0  0
 17 10  1  0  0  0  0
 21 12  1  0  0  0  0
 22 16  1  6  0  0  0
 23 20  1  6  0  0  0
 23 22  1  0  0  0  0
 23 11  1  0  0  0  0
 24 15  1  0  0  0  0
 24 25  1  0  0  0  0
 28 39  1  0  0  0  0
 29 27  1  0  0  0  0
 30 28  2  0  0  0  0
 31 26  1  6  0  0  0
 31 33  1  0  0  0  0
 31 32  1  0  0  0  0
 32 28  1  0  0  0  0
 32 27  1  0  0  0  0
 33 42  1  6  0  0  0
 33 29  1  0  0  0  0
 34 37  1  0  0  0  0
 35 34  2  0  0  0  0
 36 37  2  0  0  0  0
 38 35  1  0  0  0  0
 39 36  1  0  0  0  0
 40 39  2  0  0  0  0
 40 35  1  0  0  0  0
 42 41  1  0  0  0  0
 44 43  1  0  0  0  0
 45 44  1  0  0  0  0
 46 45  1  0  0  0  0
 46 47  1  0  0  0  0
 47 49  1  0  0  0  0
 49 48  1  0  0  0  0
 50 49  2  0  0  0  0
M  END
>  <MODEL>
1

>  <REMARK>
 VINA RESULT:      -8.5      0.000      0.000
  Name = 
  18 active torsions:
  status: ('A' for Active; 'I' for Inactive)
    1  A    between atoms: C_2  and  C_22
    2  A    between atoms: C_2  and  O_45
    3  A    between atoms: C_5  and  C_22
    4  A    between atoms: C_5  and  C_31
    5  A    between atoms: C_6  and  C_21
    6  A    between atoms: C_6  and  N_28
    7  A    between atoms: C_8  and  C_13
    8  A    between atoms: C_9  and  C_11
    9  A    between atoms: C_9  and  C_23
   10  A    between atoms: C_11  and  C_18
   11  A    between atoms: C_11  and  C_32
   12  A    between atoms: C_15  and  C_23
   13  A    between atoms: C_17  and  C_18
   14  A    between atoms: C_17  and  O_46
   15  A    between atoms: C_19  and  C_42
   16  A    between atoms: C_21  and  O_45
   17  A    between atoms: C_22  and  O_46
   18  A    between atoms: C_38  and  C_50
                            x       y       z     vdW  Elec       q    Type
                         _______ _______ _______ _____ _____    ______ ____

>  <TORSDO>
F 18

$$$$
=
 OpenBabel11062412573D

 50 53  0  0  1  0  0  0  0  0999 V2000
  186.2220  178.5600  141.0310 C   0  0  2  0  0  3  0  0  0  0  0  0
  185.5630  179.5920  140.4900 O   0  0  0  0  0  0  0  0  0  0  0  0
  184.9040  179.0090  139.3630 C   0  0  0  0  0  2  0  0  0  0  0  0
  185.7890  178.0190  138.7460 C   0  0  0  0  0  2  0  0  0  0  0  0
  185.9510  178.2140  137.2530 C   0  0  1  0  0  3  0  0  0  0  0  0
  187.3600  178.5690  136.8320 C   0  0  0  0  0  0  0  0  0  0  0  0
  188.2270  179.3570  137.6020 O   0  0  0  0  0  1  0  0  0  0  0  0
  187.8430  177.9760  135.7940 O   0  0  0  0  0  0  0  0  0  0  0  0
  185.5280  176.9170  136.5590 C   0  0  0  0  0  2  0  0  0  0  0  0
  184.5790  177.1590  135.3350 C   0  0  0  0  0  2  0  0  0  0  0  0
  182.1700  177.0730  136.0000 C   0  0  0  0  0  0  0  0  0  0  0  0
  181.1230  177.2470  138.8840 C   0  0  0  0  0  0  0  0  0  0  0  0
  181.5680  177.1160  140.1250 C   0  0  0  0  0  2  0  0  0  0  0  0
  181.1770  178.0790  136.6370 C   0  0  2  0  0  0  0  0  0  0  0  0
  181.2300  179.7150  138.5620 C   0  0  0  0  0  0  0  0  0  0  0  0
  179.9900  175.1980  138.3160 O   0  0  0  0  0  1  0  0  0  0  0  0
  183.2730  176.5000  135.5510 C   0  0  0  0  0  3  0  0  0  0  0  0
  181.0980  179.9080  139.9330 O   0  0  0  0  0  1  0  0  0  0  0  0
  180.4060  178.9410  135.6470 C   0  0  0  0  0  1  0  0  0  0  0  0
  179.8630  176.2230  135.6740 F   0  0  0  0  0  0  0  0  0  0  0  0
  181.2080  178.4850  138.0850 C   0  0  0  0  0  0  0  0  0  0  0  0
  180.9880  176.0930  137.9600 C   0  0  1  0  0  3  0  0  0  0  0  0
  180.7800  176.7130  136.6060 C   0  0  1  0  0  0  0  0  0  0  0  0
  181.3170  180.9180  137.6690 C   0  0  0  0  0  2  0  0  0  0  0  0
  181.4830  182.0810  138.4050 O   0  0  0  0  0  1  0  0  0  0  0  0
  185.4260  177.8300  142.1740 C   0  0  0  0  0  2  0  0  0  0  0  0
  185.0670  178.4280  145.8270 C   0  0  0  0  0  2  0  0  0  0  0  0
  187.0530  177.3260  144.7020 C   0  0  0  0  0  0  0  0  0  0  0  0
  183.7470  178.9970  145.3100 C   0  0  0  0  0  2  0  0  0  0  0  0
  187.1820  176.3890  143.8400 O   0  0  0  0  0  0  0  0  0  0  0  0
  185.1830  178.6780  143.4480 C   0  0  2  0  0  3  0  0  0  0  0  0
  185.8860  178.1860  144.6240 N   0  0  0  0  0  0  0  0  0  0  0  0
  183.7390  178.5600  143.8560 C   0  0  2  0  0  3  0  0  0  0  0  0
  189.9200  177.6470  147.8520 C   0  0  0  0  0  3  0  0  0  0  0  0
  190.3310  177.2340  146.5810 C   0  0  0  0  0  0  0  0  0  0  0  0
  187.6560  177.8080  147.0560 C   0  0  0  0  0  3  0  0  0  0  0  0
  188.5690  177.9140  148.0960 C   0  0  0  0  0  3  0  0  0  0  0  0
  191.6990  176.9700  146.3290 N   0  0  0  0  0  1  0  0  0  0  0  0
  188.0430  177.4090  145.7670 C   0  0  0  0  0  0  0  0  0  0  0  0
  189.4040  177.1030  145.5540 C   0  0  0  0  0  3  0  0  0  0  0  0
  181.2530  179.1570  143.5890 C   0  0  0  0  0  1  0  0  0  0  0  0
  182.6220  179.1120  142.9450 C   0  0  0  0  0  2  0  0  0  0  0  0
  187.6730  178.8930  141.4030 C   0  0  0  0  0  2  0  0  0  0  0  0
  188.6200  178.3340  140.5480 O   0  0  0  0  0  0  0  0  0  0  0  0
  189.3430  177.4460  141.4080 C   0  0  0  0  0  2  0  0  0  0  0  0
  190.6550  177.0980  140.8550 C   0  0  0  0  0  2  0  0  0  0  0  0
  190.7080  177.4060  139.4340 N   0  0  0  0  0  2  0  0  0  0  0  0
  190.7610  176.8140  137.0270 N   0  0  0  0  0  1  0  0  0  0  0  0
  190.7840  176.4280  138.4070 C   0  0  0  0  0  0  0  0  0  0  0  0
  190.7990  175.1700  138.6690 O   0  0  0  0  0  0  0  0  0  0  0  0
  1 43  1  1  0  0  0
  1 26  1  0  0  0  0
  2  1  1  0  0  0  0
  3  2  1  0  0  0  0
  4  3  1  0  0  0  0
  5  9  1  6  0  0  0
  5  4  1  0  0  0  0
  6  5  1  0  0  0  0
  6  7  1  0  0  0  0
  8  6  2  0  0  0  0
 10 17  1  0  0  0  0
 10  9  1  0  0  0  0
 11 23  1  0  0  0  0
 11 14  1  0  0  0  0
 12 13  2  0  0  0  0
 14 19  1  6  0  0  0
 14 21  1  0  0  0  0
 15 18  1  0  0  0  0
 17 11  2  0  0  0  0
 21 15  2  0  0  0  0
 21 12  1  0  0  0  0
 22 16  1  1  0  0  0
 22 12  1  0  0  0  0
 23 20  1  6  0  0  0
 23 14  1  0  0  0  0
 23 22  1  0  0  0  0
 24 25  1  0  0  0  0
 24 15  1  0  0  0  0
 28 39  1  0  0  0  0
 29 27  1  0  0  0  0
 30 28  2  0  0  0  0
 31 26  1  6  0  0  0
 31 33  1  0  0  0  0
 31 32  1  0  0  0  0
 32 28  1  0  0  0  0
 32 27  1  0  0  0  0
 33 42  1  6  0  0  0
 33 29  1  0  0  0  0
 34 37  1  0  0  0  0
 35 34  2  0  0  0  0
 36 37  2  0  0  0  0
 38 35  1  0  0  0  0
 39 36  1  0  0  0  0
 40 39  2  0  0  0  0
 40 35  1  0  0  0  0
 42 41  1  0  0  0  0
 44 43  1  0  0  0  0
 44 45  1  0  0  0  0
 46 45  1  0  0  0  0
 47 46  1  0  0  0  0
 48 49  1  0  0  0  0
 49 50  2  0  0  0  0
 49 47  1  0  0  0  0
M  END
>  <MODEL>
2

>  <REMARK>
 VINA RESULT:      -8.3      3.646      8.573
  Name = 
  18 active torsions:
  status: ('A' for Active; 'I' for Inactive)
    1  A    between atoms: C_2  and  C_22
    2  A    between atoms: C_2  and  O_45
    3  A    between atoms: C_5  and  C_22
    4  A    between atoms: C_5  and  C_31
    5  A    between atoms: C_6  and  C_21
    6  A    between atoms: C_6  and  N_28
    7  A    between atoms: C_8  and  C_13
    8  A    between atoms: C_9  and  C_11
    9  A    between atoms: C_9  and  C_23
   10  A    between atoms: C_11  and  C_18
   11  A    between atoms: C_11  and  C_32
   12  A    between atoms: C_15  and  C_23
   13  A    between atoms: C_17  and  C_18
   14  A    between atoms: C_17  and  O_46
   15  A    between atoms: C_19  and  C_42
   16  A    between atoms: C_21  and  O_45
   17  A    between atoms: C_22  and  O_46
   18  A    between atoms: C_38  and  C_50
                            x       y       z     vdW  Elec       q    Type
                         _______ _______ _______ _____ _____    ______ ____

>  <TORSDO>
F 18

$$$$
=
 OpenBabel11062412573D

 50 53  0  0  1  0  0  0  0  0999 V2000
  189.2150  177.1750  142.3140 C   0  0  2  0  0  3  0  0  0  0  0  0
  187.9780  176.8300  142.6920 O   0  0  0  0  0  0  0  0  0  0  0  0
  187.4760  178.0200  143.3050 C   0  0  0  0  0  2  0  0  0  0  0  0
  186.7770  177.6660  144.5420 C   0  0  0  0  0  2  0  0  0  0  0  0
  185.2950  177.9730  144.4970 C   0  0  1  0  0  3  0  0  0  0  0  0
  184.8010  178.7810  145.6770 C   0  0  0  0  0  0  0  0  0  0  0  0
  185.6400  179.2830  146.6820 O   0  0  0  0  0  1  0  0  0  0  0  0
  183.5720  179.1700  145.6650 O   0  0  0  0  0  0  0  0  0  0  0  0
  185.0100  178.7400  143.2050 C   0  0  0  0  0  2  0  0  0  0  0  0
  183.9670  178.0200  142.2810 C   0  0  0  0  0  2  0  0  0  0  0  0
  181.8660  178.7200  141.1210 C   0  0  0  0  0  0  0  0  0  0  0  0
  181.2780  178.3220  138.1310 C   0  0  0  0  0  0  0  0  0  0  0  0
  181.9250  178.0630  137.0050 C   0  0  0  0  0  2  0  0  0  0  0  0
  180.6990  177.9700  140.4300 C   0  0  2  0  0  0  0  0  0  0  0  0
  180.4820  176.0560  138.7940 C   0  0  0  0  0  0  0  0  0  0  0  0
  180.8420  180.6910  138.1710 O   0  0  0  0  0  1  0  0  0  0  0  0
  183.0160  178.9970  141.7100 C   0  0  0  0  0  3  0  0  0  0  0  0
  180.5040  175.6500  137.4640 O   0  0  0  0  0  1  0  0  0  0  0  0
  179.5370  177.6010  141.3430 C   0  0  0  0  0  1  0  0  0  0  0  0
  179.9690  180.2920  140.8410 F   0  0  0  0  0  0  0  0  0  0  0  0
  180.8100  177.2990  139.0880 C   0  0  0  0  0  0  0  0  0  0  0  0
  181.4060  179.6170  138.8450 C   0  0  1  0  0  3  0  0  0  0  0  0
  180.7940  179.3690  140.1960 C   0  0  1  0  0  0  0  0  0  0  0  0
  180.0140  175.0840  139.8370 C   0  0  0  0  0  2  0  0  0  0  0  0
  179.8670  173.8100  139.3100 O   0  0  0  0  0  1  0  0  0  0  0  0
  189.2680  177.9340  140.9380 C   0  0  0  0  0  2  0  0  0  0  0  0
  189.0450  176.8680  137.3820 C   0  0  0  0  0  2  0  0  0  0  0  0
  191.1220  176.7460  138.8300 C   0  0  0  0  0  0  0  0  0  0  0  0
  187.6200  177.3610  137.6260 C   0  0  0  0  0  2  0  0  0  0  0  0
  191.7220  177.5740  139.6000 O   0  0  0  0  0  0  0  0  0  0  0  0
  188.6900  177.1490  139.7330 C   0  0  2  0  0  3  0  0  0  0  0  0
  189.6770  176.8250  138.7140 N   0  0  0  0  0  0  0  0  0  0  0  0
  187.7230  178.0280  138.9860 C   0  0  2  0  0  3  0  0  0  0  0  0
  193.4950  174.0060  136.5690 C   0  0  0  0  0  3  0  0  0  0  0  0
  194.0500  175.2180  136.9930 C   0  0  0  0  0  0  0  0  0  0  0  0
  191.4060  174.6190  137.5930 C   0  0  0  0  0  3  0  0  0  0  0  0
  192.1570  173.7160  136.8520 C   0  0  0  0  0  3  0  0  0  0  0  0
  195.4080  175.5120  136.7140 N   0  0  0  0  0  1  0  0  0  0  0  0
  191.9420  175.8350  138.0430 C   0  0  0  0  0  0  0  0  0  0  0  0
  193.2820  176.1280  137.7090 C   0  0  0  0  0  3  0  0  0  0  0  0
  185.2020  178.4720  138.7530 C   0  0  0  0  0  1  0  0  0  0  0  0
  186.4160  178.5000  139.6570 C   0  0  0  0  0  2  0  0  0  0  0  0
  190.2270  176.0260  142.4260 C   0  0  0  0  0  2  0  0  0  0  0  0
  191.5080  176.4330  142.7960 O   0  0  0  0  0  0  0  0  0  0  0  0
  191.5260  176.1870  144.2070 C   0  0  0  0  0  2  0  0  0  0  0  0
  191.4800  177.4320  144.9780 C   0  0  0  0  0  2  0  0  0  0  0  0
  190.2420  177.5160  145.7380 N   0  0  0  0  0  2  0  0  0  0  0  0
  188.8340  177.1700  147.7490 N   0  0  0  0  0  1  0  0  0  0  0  0
  190.0660  176.9820  147.0420 C   0  0  0  0  0  0  0  0  0  0  0  0
  191.0180  176.3820  147.6620 O   0  0  0  0  0  0  0  0  0  0  0  0
  1 26  1  6  0  0  0
  1 43  1  0  0  0  0
  1  2  1  0  0  0  0
  2  3  1  0  0  0  0
  3  4  1  0  0  0  0
  5  9  1  6  0  0  0
  5  4  1  0  0  0  0
  5  6  1  0  0  0  0
  6  7  1  0  0  0  0
  8  6  2  0  0  0  0
 10  9  1  0  0  0  0
 11 17  2  0  0  0  0
 12 22  1  0  0  0  0
 12 21  1  0  0  0  0
 13 12  2  0  0  0  0
 14 11  1  0  0  0  0
 14 19  1  1  0  0  0
 15 21  2  0  0  0  0
 15 24  1  0  0  0  0
 17 10  1  0  0  0  0
 18 15  1  0  0  0  0
 21 14  1  0  0  0  0
 22 16  1  6  0  0  0
 22 23  1  0  0  0  0
 23 14  1  0  0  0  0
 23 20  1  1  0  0  0
 23 11  1  0  0  0  0
 25 24  1  0  0  0  0
 27 29  1  0  0  0  0
 27 32  1  0  0  0  0
 28 30  2  0  0  0  0
 29 33  1  0  0  0  0
 31 26  1  1  0  0  0
 32 28  1  0  0  0  0
 32 31  1  0  0  0  0
 33 42  1  1  0  0  0
 33 31  1  0  0  0  0
 34 37  2  0  0  0  0
 34 35  1  0  0  0  0
 35 40  2  0  0  0  0
 36 39  2  0  0  0  0
 37 36  1  0  0  0  0
 38 35  1  0  0  0  0
 39 28  1  0  0  0  0
 40 39  1  0  0  0  0
 41 42  1  0  0  0  0
 43 44  1  0  0  0  0
 44 45  1  0  0  0  0
 45 46  1  0  0  0  0
 46 47  1  0  0  0  0
 47 49  1  0  0  0  0
 49 50  2  0  0  0  0
 49 48  1  0  0  0  0
M  END
>  <MODEL>
3

>  <REMARK>
 VINA RESULT:      -8.1      3.931     10.421
  Name = 
  18 active torsions:
  status: ('A' for Active; 'I' for Inactive)
    1  A    between atoms: C_2  and  C_22
    2  A    between atoms: C_2  and  O_45
    3  A    between atoms: C_5  and  C_22
    4  A    between atoms: C_5  and  C_31
    5  A    between atoms: C_6  and  C_21
    6  A    between atoms: C_6  and  N_28
    7  A    between atoms: C_8  and  C_13
    8  A    between atoms: C_9  and  C_11
    9  A    between atoms: C_9  and  C_23
   10  A    between atoms: C_11  and  C_18
   11  A    between atoms: C_11  and  C_32
   12  A    between atoms: C_15  and  C_23
   13  A    between atoms: C_17  and  C_18
   14  A    between atoms: C_17  and  O_46
   15  A    between atoms: C_19  and  C_42
   16  A    between atoms: C_21  and  O_45
   17  A    between atoms: C_22  and  O_46
   18  A    between atoms: C_38  and  C_50
                            x       y       z     vdW  Elec       q    Type
                         _______ _______ _______ _____ _____    ______ ____

>  <TORSDO>
F 18

$$$$
=
 OpenBabel11062412573D

 50 53  0  0  1  0  0  0  0  0999 V2000
  190.5430  177.3160  141.5250 C   0  0  2  0  0  3  0  0  0  0  0  0
  189.4420  176.5560  141.4800 O   0  0  0  0  0  0  0  0  0  0  0  0
  188.4700  177.3420  142.1740 C   0  0  0  0  0  2  0  0  0  0  0  0
  187.9250  176.5620  143.2870 C   0  0  0  0  0  2  0  0  0  0  0  0
  186.6780  177.1740  143.8890 C   0  0  1  0  0  3  0  0  0  0  0  0
  186.8820  177.7380  145.2780 C   0  0  0  0  0  0  0  0  0  0  0  0
  187.9440  177.3740  146.1170 O   0  0  0  0  0  1  0  0  0  0  0  0
  186.1400  178.7290  145.6380 O   0  0  0  0  0  0  0  0  0  0  0  0
  186.2000  178.2880  142.9560 C   0  0  0  0  0  2  0  0  0  0  0  0
  184.7140  178.1030  142.4910 C   0  0  0  0  0  2  0  0  0  0  0  0
  183.4460  178.4670  140.3670 C   0  0  0  0  0  0  0  0  0  0  0  0
  182.5990  176.2540  138.4110 C   0  0  0  0  0  0  0  0  0  0  0  0
  182.8930  174.9940  138.1290 C   0  0  0  0  0  2  0  0  0  0  0  0
  182.0340  178.0780  139.8590 C   0  0  2  0  0  0  0  0  0  0  0  0
  180.6030  175.9950  139.8800 C   0  0  0  0  0  0  0  0  0  0  0  0
  183.7260  177.6260  136.7830 O   0  0  0  0  0  1  0  0  0  0  0  0
  184.5460  178.5550  141.0940 C   0  0  0  0  0  3  0  0  0  0  0  0
  180.3070  174.7770  139.2770 O   0  0  0  0  0  1  0  0  0  0  0  0
  180.9370  179.0920  140.1570 C   0  0  0  0  0  1  0  0  0  0  0  0
  182.9190  179.8360  138.3680 F   0  0  0  0  0  0  0  0  0  0  0  0
  181.6430  176.6840  139.4510 C   0  0  0  0  0  0  0  0  0  0  0  0
  183.5350  177.3720  138.1330 C   0  0  1  0  0  3  0  0  0  0  0  0
  182.9640  178.5410  138.8870 C   0  0  1  0  0  0  0  0  0  0  0  0
  179.6830  176.5150  140.9450 C   0  0  0  0  0  2  0  0  0  0  0  0
  179.0850  175.4790  141.6450 O   0  0  0  0  0  1  0  0  0  0  0  0
  191.1920  177.5710  140.1150 C   0  0  0  0  0  2  0  0  0  0  0  0
  190.8250  176.4390  136.5920 C   0  0  0  0  0  2  0  0  0  0  0  0
  192.9240  176.2300  137.9950 C   0  0  0  0  0  0  0  0  0  0  0  0
  189.4360  177.0200  136.8550 C   0  0  0  0  0  2  0  0  0  0  0  0
  193.5890  177.0380  138.7330 O   0  0  0  0  0  0  0  0  0  0  0  0
  190.5410  176.7940  138.9430 C   0  0  2  0  0  3  0  0  0  0  0  0
  191.4840  176.3900  137.9100 N   0  0  0  0  0  0  0  0  0  0  0  0
  189.6100  177.7100  138.1960 C   0  0  2  0  0  3  0  0  0  0  0  0
  195.0980  173.4150  135.6270 C   0  0  0  0  0  3  0  0  0  0  0  0
  194.2660  172.9600  136.6550 C   0  0  0  0  0  0  0  0  0  0  0  0
  194.5240  175.6840  136.1840 C   0  0  0  0  0  3  0  0  0  0  0  0
  195.2450  174.7880  135.4060 C   0  0  0  0  0  3  0  0  0  0  0  0
  194.1080  171.5700  136.8770 N   0  0  0  0  0  1  0  0  0  0  0  0
  193.6720  175.2540  137.2130 C   0  0  0  0  0  0  0  0  0  0  0  0
  193.5720  173.8670  137.4480 C   0  0  0  0  0  3  0  0  0  0  0  0
  187.0480  177.9150  138.1980 C   0  0  0  0  0  1  0  0  0  0  0  0
  188.3480  178.2730  138.8850 C   0  0  0  0  0  2  0  0  0  0  0  0
  191.5470  176.8690  142.5960 C   0  0  0  0  0  2  0  0  0  0  0  0
  192.0890  177.9180  143.3370 O   0  0  0  0  0  0  0  0  0  0  0  0
  191.3170  177.8890  144.5430 C   0  0  0  0  0  2  0  0  0  0  0  0
  191.0570  176.5190  144.9930 C   0  0  0  0  0  2  0  0  0  0  0  0
  192.0180  176.1260  146.0120 N   0  0  0  0  0  2  0  0  0  0  0  0
  192.8310  175.9140  148.3450 N   0  0  0  0  0  1  0  0  0  0  0  0
  191.8710  176.3980  147.3970 C   0  0  0  0  0  0  0  0  0  0  0  0
  190.8450  177.0190  147.8610 O   0  0  0  0  0  0  0  0  0  0  0  0
  1 26  1  6  0  0  0
  1 43  1  0  0  0  0
  2  1  1  0  0  0  0
  2  3  1  0  0  0  0
  3  4  1  0  0  0  0
  4  5  1  0  0  0  0
  5  9  1  6  0  0  0
  5  6  1  0  0  0  0
  6  8  2  0  0  0  0
  6  7  1  0  0  0  0
 10  9  1  0  0  0  0
 11 17  2  0  0  0  0
 12 21  1  0  0  0  0
 13 12  2  0  0  0  0
 14 19  1  1  0  0  0
 14 11  1  0  0  0  0
 15 24  1  0  0  0  0
 17 10  1  0  0  0  0
 18 15  1  0  0  0  0
 21 14  1  0  0  0  0
 21 15  2  0  0  0  0
 22 16  1  6  0  0  0
 22 12  1  0  0  0  0
 22 23  1  0  0  0  0
 23 20  1  6  0  0  0
 23 14  1  0  0  0  0
 23 11  1  0  0  0  0
 24 25  1  0  0  0  0
 27 29  1  0  0  0  0
 27 32  1  0  0  0  0
 28 30  2  0  0  0  0
 29 33  1  0  0  0  0
 31 26  1  1  0  0  0
 32 28  1  0  0  0  0
 32 31  1  0  0  0  0
 33 42  1  1  0  0  0
 33 31  1  0  0  0  0
 34 35  1  0  0  0  0
 35 38  1  0  0  0  0
 35 40  2  0  0  0  0
 36 39  2  0  0  0  0
 37 34  2  0  0  0  0
 37 36  1  0  0  0  0
 39 40  1  0  0  0  0
 39 28  1  0  0  0  0
 41 42  1  0  0  0  0
 43 44  1  0  0  0  0
 44 45  1  0  0  0  0
 45 46  1  0  0  0  0
 46 47  1  0  0  0  0
 47 49  1  0  0  0  0
 49 50  2  0  0  0  0
 49 48  1  0  0  0  0
M  END
>  <MODEL>
4

>  <REMARK>
 VINA RESULT:      -8.0      3.925     10.490
  Name = 
  18 active torsions:
  status: ('A' for Active; 'I' for Inactive)
    1  A    between atoms: C_2  and  C_22
    2  A    between atoms: C_2  and  O_45
    3  A    between atoms: C_5  and  C_22
    4  A    between atoms: C_5  and  C_31
    5  A    between atoms: C_6  and  C_21
    6  A    between atoms: C_6  and  N_28
    7  A    between atoms: C_8  and  C_13
    8  A    between atoms: C_9  and  C_11
    9  A    between atoms: C_9  and  C_23
   10  A    between atoms: C_11  and  C_18
   11  A    between atoms: C_11  and  C_32
   12  A    between atoms: C_15  and  C_23
   13  A    between atoms: C_17  and  C_18
   14  A    between atoms: C_17  and  O_46
   15  A    between atoms: C_19  and  C_42
   16  A    between atoms: C_21  and  O_45
   17  A    between atoms: C_22  and  O_46
   18  A    between atoms: C_38  and  C_50
                            x       y       z     vdW  Elec       q    Type
                         _______ _______ _______ _____ _____    ______ ____

>  <TORSDO>
F 18

$$$$
=
 OpenBabel11062412573D

 50 53  0  0  1  0  0  0  0  0999 V2000
  186.5830  178.7520  141.3200 C   0  0  2  0  0  3  0  0  0  0  0  0
  187.8980  178.6490  141.5460 O   0  0  0  0  0  0  0  0  0  0  0  0
  188.4220  178.2560  140.2760 C   0  0  0  0  0  2  0  0  0  0  0  0
  189.3410  177.1310  140.4610 C   0  0  0  0  0  2  0  0  0  0  0  0
  190.5340  177.4720  141.3280 C   0  0  1  0  0  3  0  0  0  0  0  0
  190.5590  176.7360  142.6510 C   0  0  0  0  0  0  0  0  0  0  0  0
  190.1290  175.4120  142.8120 O   0  0  0  0  0  0  0  0  0  0  0  0
  191.1650  177.3010  143.6390 O   0  0  0  0  0  1  0  0  0  0  0  0
  191.8020  177.1380  140.5400 C   0  0  0  0  0  2  0  0  0  0  0  0
  191.5090  176.7120  139.0600 C   0  0  0  0  0  2  0  0  0  0  0  0
  193.0070  176.1770  137.1300 C   0  0  0  0  0  0  0  0  0  0  0  0
  194.6540  173.6000  136.8290 C   0  0  0  0  0  0  0  0  0  0  0  0
  195.0970  172.5970  137.5720 C   0  0  0  0  0  2  0  0  0  0  0  0
  192.9930  175.1170  135.9990 C   0  0  2  0  0  0  0  0  0  0  0  0
  192.5810  172.6280  135.8450 C   0  0  0  0  0  0  0  0  0  0  0  0
  196.4940  175.1250  136.5250 O   0  0  0  0  0  1  0  0  0  0  0  0
  192.7230  176.8560  138.2280 C   0  0  0  0  0  3  0  0  0  0  0  0
  193.1080  171.3480  135.9800 O   0  0  0  0  0  1  0  0  0  0  0  0
  192.2600  175.5330  134.7320 C   0  0  0  0  0  1  0  0  0  0  0  0
  194.5960  176.8840  135.3630 F   0  0  0  0  0  0  0  0  0  0  0  0
  193.3150  173.6620  136.2090 C   0  0  0  0  0  0  0  0  0  0  0  0
  195.1830  174.9810  136.9560 C   0  0  1  0  0  3  0  0  0  0  0  0
  194.2060  175.8340  136.1960 C   0  0  1  0  0  0  0  0  0  0  0  0
  191.2270  172.7890  135.2190 C   0  0  0  0  0  2  0  0  0  0  0  0
  190.2500  172.9970  136.1800 O   0  0  0  0  0  1  0  0  0  0  0  0
  185.7020  177.9270  142.3280 C   0  0  0  0  0  2  0  0  0  0  0  0
  184.8030  178.3740  145.9090 C   0  0  0  0  0  2  0  0  0  0  0  0
  187.0020  177.4570  145.0450 C   0  0  0  0  0  0  0  0  0  0  0  0
  183.5260  178.8630  145.2270 C   0  0  0  0  0  2  0  0  0  0  0  0
  187.3190  176.5610  144.1870 O   0  0  0  0  0  0  0  0  0  0  0  0
  185.2230  178.7110  143.5760 C   0  0  2  0  0  3  0  0  0  0  0  0
  185.7940  178.2320  144.8260 N   0  0  0  0  0  0  0  0  0  0  0  0
  183.7510  178.4760  143.7770 C   0  0  2  0  0  3  0  0  0  0  0  0
  189.3920  177.8880  148.5590 C   0  0  0  0  0  3  0  0  0  0  0  0
  189.9430  177.3040  147.4140 C   0  0  0  0  0  0  0  0  0  0  0  0
  187.2970  178.1460  147.4060 C   0  0  0  0  0  3  0  0  0  0  0  0
  188.0530  178.2910  148.5610 C   0  0  0  0  0  3  0  0  0  0  0  0
  191.3010  176.9020  147.4060 N   0  0  0  0  0  1  0  0  0  0  0  0
  187.8280  177.5760  146.2390 C   0  0  0  0  0  0  0  0  0  0  0  0
  189.1690  177.1370  146.2720 C   0  0  0  0  0  3  0  0  0  0  0  0
  181.3830  179.3590  143.3060 C   0  0  0  0  0  1  0  0  0  0  0  0
  182.7290  178.9760  142.7320 C   0  0  0  0  0  2  0  0  0  0  0  0
  186.2010  178.5420  139.8480 C   0  0  0  0  0  2  0  0  0  0  0  0
  185.0290  179.1930  139.4690 O   0  0  0  0  0  0  0  0  0  0  0  0
  184.0900  178.1180  139.3500 C   0  0  0  0  0  2  0  0  0  0  0  0
  184.4340  177.2120  138.2510 C   0  0  0  0  0  2  0  0  0  0  0  0
  183.3630  176.2520  138.0270 N   0  0  0  0  0  2  0  0  0  0  0  0
  182.1930  174.4770  136.7520 N   0  0  0  0  0  1  0  0  0  0  0  0
  183.2390  175.4490  136.8630 C   0  0  0  0  0  0  0  0  0  0  0  0
  184.0950  175.5090  135.9050 O   0  0  0  0  0  0  0  0  0  0  0  0
  1 43  1  6  0  0  0
  1  2  1  0  0  0  0
  1 26  1  0  0  0  0
  3  4  1  0  0  0  0
  3  2  1  0  0  0  0
  5  4  1  6  0  0  0
  5  6  1  0  0  0  0
  6  7  2  0  0  0  0
  6  8  1  0  0  0  0
  9  5  1  0  0  0  0
 10  9  1  0  0  0  0
 11 17  2  0  0  0  0
 12 22  1  0  0  0  0
 12 13  2  0  0  0  0
 14 19  1  6  0  0  0
 14 23  1  0  0  0  0
 14 21  1  0  0  0  0
 14 11  1  0  0  0  0
 15 18  1  0  0  0  0
 15 21  2  0  0  0  0
 17 10  1  0  0  0  0
 21 12  1  0  0  0  0
 22 16  1  6  0  0  0
 23 20  1  6  0  0  0
 23 22  1  0  0  0  0
 23 11  1  0  0  0  0
 24 15  1  0  0  0  0
 24 25  1  0  0  0  0
 28 39  1  0  0  0  0
 29 27  1  0  0  0  0
 30 28  2  0  0  0  0
 31 26  1  6  0  0  0
 31 33  1  0  0  0  0
 31 32  1  0  0  0  0
 32 28  1  0  0  0  0
 32 27  1  0  0  0  0
 33 42  1  6  0  0  0
 33 29  1  0  0  0  0
 34 37  1  0  0  0  0
 35 34  2  0  0  0  0
 36 37  2  0  0  0  0
 38 35  1  0  0  0  0
 39 40  2  0  0  0  0
 39 36  1  0  0  0  0
 40 35  1  0  0  0  0
 42 41  1  0  0  0  0
 44 43  1  0  0  0  0
 45 44  1  0  0  0  0
 46 45  1  0  0  0  0
 47 46  1  0  0  0  0
 48 49  1  0  0  0  0
 49 47  1  0  0  0  0
 50 49  2  0  0  0  0
M  END
>  <MODEL>
5

>  <REMARK>
 VINA RESULT:      -7.9      1.521      2.022
  Name = 
  18 active torsions:
  status: ('A' for Active; 'I' for Inactive)
    1  A    between atoms: C_2  and  C_22
    2  A    between atoms: C_2  and  O_45
    3  A    between atoms: C_5  and  C_22
    4  A    between atoms: C_5  and  C_31
    5  A    between atoms: C_6  and  C_21
    6  A    between atoms: C_6  and  N_28
    7  A    between atoms: C_8  and  C_13
    8  A    between atoms: C_9  and  C_11
    9  A    between atoms: C_9  and  C_23
   10  A    between atoms: C_11  and  C_18
   11  A    between atoms: C_11  and  C_32
   12  A    between atoms: C_15  and  C_23
   13  A    between atoms: C_17  and  C_18
   14  A    between atoms: C_17  and  O_46
   15  A    between atoms: C_19  and  C_42
   16  A    between atoms: C_21  and  O_45
   17  A    between atoms: C_22  and  O_46
   18  A    between atoms: C_38  and  C_50
                            x       y       z     vdW  Elec       q    Type
                         _______ _______ _______ _____ _____    ______ ____

>  <TORSDO>
F 18

$$$$
=
 OpenBabel11062412573D

 50 53  0  0  1  0  0  0  0  0999 V2000
  189.9770  177.3970  141.1690 C   0  0  2  0  0  3  0  0  0  0  0  0
  188.6810  177.0660  141.1350 O   0  0  0  0  0  0  0  0  0  0  0  0
  188.0570  178.0920  141.9110 C   0  0  0  0  0  2  0  0  0  0  0  0
  187.2020  177.4760  142.9270 C   0  0  0  0  0  2  0  0  0  0  0  0
  185.7830  178.0050  142.9130 C   0  0  1  0  0  3  0  0  0  0  0  0
  185.2560  178.3820  144.2800 C   0  0  0  0  0  0  0  0  0  0  0  0
  186.0700  178.5410  145.4100 O   0  0  0  0  0  1  0  0  0  0  0  0
  184.0210  178.7400  144.3690 O   0  0  0  0  0  0  0  0  0  0  0  0
  185.7460  179.2330  142.0010 C   0  0  0  0  0  2  0  0  0  0  0  0
  184.9360  178.9910  140.6800 C   0  0  0  0  0  2  0  0  0  0  0  0
  182.5710  178.2260  140.4160 C   0  0  0  0  0  0  0  0  0  0  0  0
  180.1100  179.6490  141.5840 C   0  0  0  0  0  0  0  0  0  0  0  0
  179.8140  180.5510  142.5070 C   0  0  0  0  0  2  0  0  0  0  0  0
  181.3150  178.7870  139.7000 C   0  0  2  0  0  0  0  0  0  0  0  0
  180.1800  181.0380  139.5160 C   0  0  0  0  0  0  0  0  0  0  0  0
  179.6360  177.4850  142.5300 O   0  0  0  0  0  1  0  0  0  0  0  0
  183.7810  178.1040  140.9320 C   0  0  0  0  0  3  0  0  0  0  0  0
  179.3070  181.9540  140.0920 O   0  0  0  0  0  1  0  0  0  0  0  0
  181.1440  178.3440  138.2530 C   0  0  0  0  0  1  0  0  0  0  0  0
  180.8910  176.4120  140.2230 F   0  0  0  0  0  0  0  0  0  0  0  0
  180.5190  179.9610  140.2000 C   0  0  0  0  0  0  0  0  0  0  0  0
  180.5920  178.2870  141.9260 C   0  0  1  0  0  3  0  0  0  0  0  0
  181.1090  177.7300  140.6290 C   0  0  1  0  0  0  0  0  0  0  0  0
  180.6450  181.2710  138.1090 C   0  0  0  0  0  2  0  0  0  0  0  0
  181.0670  182.5790  137.9270 O   0  0  0  0  0  1  0  0  0  0  0  0
  190.6000  177.6570  139.7490 C   0  0  0  0  0  2  0  0  0  0  0  0
  190.4690  176.2200  136.3220 C   0  0  0  0  0  2  0  0  0  0  0  0
  192.4840  176.1830  137.8590 C   0  0  0  0  0  0  0  0  0  0  0  0
  189.0560  176.7860  136.4520 C   0  0  0  0  0  2  0  0  0  0  0  0
  193.0860  177.0680  138.5610 O   0  0  0  0  0  0  0  0  0  0  0  0
  190.0370  176.7670  138.6120 C   0  0  2  0  0  3  0  0  0  0  0  0
  191.0480  176.2990  137.6760 N   0  0  0  0  0  0  0  0  0  0  0  0
  189.1350  177.5930  137.7350 C   0  0  2  0  0  3  0  0  0  0  0  0
  194.8900  173.2520  135.8920 C   0  0  0  0  0  3  0  0  0  0  0  0
  193.6280  172.8980  136.3820 C   0  0  0  0  0  0  0  0  0  0  0  0
  194.5710  175.4880  136.7210 C   0  0  0  0  0  3  0  0  0  0  0  0
  195.3730  174.5500  136.0830 C   0  0  0  0  0  3  0  0  0  0  0  0
  193.1320  171.5860  136.1830 N   0  0  0  0  0  1  0  0  0  0  0  0
  193.2960  175.1630  137.2090 C   0  0  0  0  0  0  0  0  0  0  0  0
  192.8460  173.8360  137.0440 C   0  0  0  0  0  3  0  0  0  0  0  0
  186.6610  178.1590  137.3280 C   0  0  0  0  0  1  0  0  0  0  0  0
  187.8220  178.1810  138.2970 C   0  0  0  0  0  2  0  0  0  0  0  0
  190.8190  176.4670  142.0530 C   0  0  0  0  0  2  0  0  0  0  0  0
  191.9370  177.0800  142.6170 O   0  0  0  0  0  0  0  0  0  0  0  0
  191.3910  177.7530  143.7570 C   0  0  0  0  0  2  0  0  0  0  0  0
  190.7980  176.8150  144.7140 C   0  0  0  0  0  2  0  0  0  0  0  0
  191.7870  176.3950  145.6960 N   0  0  0  0  0  2  0  0  0  0  0  0
  192.5950  175.9660  148.0000 N   0  0  0  0  0  1  0  0  0  0  0  0
  191.5970  176.4660  147.1010 C   0  0  0  0  0  0  0  0  0  0  0  0
  190.5050  176.9060  147.6160 O   0  0  0  0  0  0  0  0  0  0  0  0
  1 26  1  6  0  0  0
  1 43  1  0  0  0  0
  2  1  1  0  0  0  0
  2  3  1  0  0  0  0
  3  4  1  0  0  0  0
  5  9  1  6  0  0  0
  5  4  1  0  0  0  0
  5  6  1  0  0  0  0
  6  8  2  0  0  0  0
  6  7  1  0  0  0  0
 10 17  1  0  0  0  0
 10  9  1  0  0  0  0
 11 23  1  0  0  0  0
 11 17  2  0  0  0  0
 12 22  1  0  0  0  0
 12 13  2  0  0  0  0
 14 19  1  6  0  0  0
 14 21  1  0  0  0  0
 14 11  1  0  0  0  0
 14 23  1  0  0  0  0
 15 18  1  0  0  0  0
 15 21  2  0  0  0  0
 21 12  1  0  0  0  0
 22 16  1  6  0  0  0
 23 20  1  6  0  0  0
 23 22  1  0  0  0  0
 24 15  1  0  0  0  0
 25 24  1  0  0  0  0
 27 29  1  0  0  0  0
 27 32  1  0  0  0  0
 28 30  2  0  0  0  0
 29 33  1  0  0  0  0
 31 26  1  1  0  0  0
 32 28  1  0  0  0  0
 32 31  1  0  0  0  0
 33 42  1  1  0  0  0
 33 31  1  0  0  0  0
 34 37  2  0  0  0  0
 34 35  1  0  0  0  0
 35 40  2  0  0  0  0
 36 39  2  0  0  0  0
 37 36  1  0  0  0  0
 38 35  1  0  0  0  0
 39 28  1  0  0  0  0
 40 39  1  0  0  0  0
 41 42  1  0  0  0  0
 43 44  1  0  0  0  0
 44 45  1  0  0  0  0
 45 46  1  0  0  0  0
 46 47  1  0  0  0  0
 47 49  1  0  0  0  0
 49 50  2  0  0  0  0
 49 48  1  0  0  0  0
M  END
>  <MODEL>
6

>  <REMARK>
 VINA RESULT:      -7.9      3.951     11.307
  Name = 
  18 active torsions:
  status: ('A' for Active; 'I' for Inactive)
    1  A    between atoms: C_2  and  C_22
    2  A    between atoms: C_2  and  O_45
    3  A    between atoms: C_5  and  C_22
    4  A    between atoms: C_5  and  C_31
    5  A    between atoms: C_6  and  C_21
    6  A    between atoms: C_6  and  N_28
    7  A    between atoms: C_8  and  C_13
    8  A    between atoms: C_9  and  C_11
    9  A    between atoms: C_9  and  C_23
   10  A    between atoms: C_11  and  C_18
   11  A    between atoms: C_11  and  C_32
   12  A    between atoms: C_15  and  C_23
   13  A    between atoms: C_17  and  C_18
   14  A    between atoms: C_17  and  O_46
   15  A    between atoms: C_19  and  C_42
   16  A    between atoms: C_21  and  O_45
   17  A    between atoms: C_22  and  O_46
   18  A    between atoms: C_38  and  C_50
                            x       y       z     vdW  Elec       q    Type
                         _______ _______ _______ _____ _____    ______ ____

>  <TORSDO>
F 18

$$$$
=
 OpenBabel11062412573D

 50 53  0  0  1  0  0  0  0  0999 V2000
  189.6330  177.5850  141.0080 C   0  0  2  0  0  3  0  0  0  0  0  0
  188.4030  177.1380  141.2880 O   0  0  0  0  0  0  0  0  0  0  0  0
  187.8210  178.2140  142.0280 C   0  0  0  0  0  2  0  0  0  0  0  0
  186.5820  178.6350  141.3720 C   0  0  0  0  0  2  0  0  0  0  0  0
  185.3360  178.1340  142.0720 C   0  0  1  0  0  3  0  0  0  0  0  0
  185.1910  178.6330  143.4930 C   0  0  0  0  0  0  0  0  0  0  0  0
  184.4770  179.7870  143.8440 O   0  0  0  0  0  0  0  0  0  0  0  0
  185.6000  177.8620  144.4430 O   0  0  0  0  0  1  0  0  0  0  0  0
  184.1230  178.5800  141.2540 C   0  0  0  0  0  2  0  0  0  0  0  0
  184.5130  179.3950  139.9720 C   0  0  0  0  0  2  0  0  0  0  0  0
  182.1130  179.3250  139.2750 C   0  0  0  0  0  0  0  0  0  0  0  0
  180.2980  176.8500  139.4240 C   0  0  0  0  0  0  0  0  0  0  0  0
  180.3990  175.5350  139.5430 C   0  0  0  0  0  2  0  0  0  0  0  0
  180.7670  179.1250  140.0170 C   0  0  2  0  0  0  0  0  0  0  0  0
  179.8790  177.5460  141.7790 C   0  0  0  0  0  0  0  0  0  0  0  0
  179.9080  177.3230  137.0940 O   0  0  0  0  0  1  0  0  0  0  0  0
  183.4030  179.3920  138.9960 C   0  0  0  0  0  3  0  0  0  0  0  0
  179.3290  176.2990  142.0580 O   0  0  0  0  0  1  0  0  0  0  0  0
  180.1130  180.4020  140.5270 C   0  0  0  0  0  1  0  0  0  0  0  0
  180.2710  180.0500  137.7830 F   0  0  0  0  0  0  0  0  0  0  0  0
  180.2940  177.8010  140.5530 C   0  0  0  0  0  0  0  0  0  0  0  0
  180.7130  177.5730  138.1950 C   0  0  1  0  0  3  0  0  0  0  0  0
  180.7430  179.0210  138.5990 C   0  0  1  0  0  0  0  0  0  0  0  0
  179.9120  178.5790  142.8660 C   0  0  0  0  0  2  0  0  0  0  0  0
  179.6640  178.0140  144.1080 O   0  0  0  0  0  1  0  0  0  0  0  0
  189.9240  177.7110  139.4670 C   0  0  0  0  0  2  0  0  0  0  0  0
  189.8460  175.4500  136.5160 C   0  0  0  0  0  2  0  0  0  0  0  0
  191.8710  175.9040  137.9710 C   0  0  0  0  0  0  0  0  0  0  0  0
  188.4060  175.9580  136.5280 C   0  0  0  0  0  2  0  0  0  0  0  0
  192.4300  176.9670  138.4150 O   0  0  0  0  0  0  0  0  0  0  0  0
  189.4020  176.5350  138.6030 C   0  0  2  0  0  3  0  0  0  0  0  0
  190.4300  175.8980  137.7940 N   0  0  0  0  0  0  0  0  0  0  0  0
  188.4500  177.0660  137.5650 C   0  0  2  0  0  3  0  0  0  0  0  0
  194.3280  172.6030  136.8220 C   0  0  0  0  0  3  0  0  0  0  0  0
  194.7290  173.4330  137.8740 C   0  0  0  0  0  0  0  0  0  0  0  0
  192.3610  173.9560  136.5220 C   0  0  0  0  0  3  0  0  0  0  0  0
  193.1460  172.8810  136.1280 C   0  0  0  0  0  3  0  0  0  0  0  0
  195.9210  173.1510  138.5850 N   0  0  0  0  0  1  0  0  0  0  0  0
  192.7330  174.7960  137.5820 C   0  0  0  0  0  0  0  0  0  0  0  0
  193.9510  174.5240  138.2410 C   0  0  0  0  0  3  0  0  0  0  0  0
  186.0660  177.7570  136.8950 C   0  0  0  0  0  1  0  0  0  0  0  0
  187.1110  177.7090  137.9880 C   0  0  0  0  0  2  0  0  0  0  0  0
  190.7370  176.8590  141.7890 C   0  0  0  0  0  2  0  0  0  0  0  0
  190.2920  175.7390  142.4890 O   0  0  0  0  0  0  0  0  0  0  0  0
  191.0710  175.7830  143.6900 C   0  0  0  0  0  2  0  0  0  0  0  0
  190.9450  177.0710  144.3760 C   0  0  0  0  0  2  0  0  0  0  0  0
  191.7270  177.0750  145.6030 N   0  0  0  0  0  2  0  0  0  0  0  0
  192.0610  176.7200  148.0340 N   0  0  0  0  0  1  0  0  0  0  0  0
  191.2050  176.7620  146.8860 C   0  0  0  0  0  0  0  0  0  0  0  0
  189.9730  176.4340  147.0540 O   0  0  0  0  0  0  0  0  0  0  0  0
  1 26  1  6  0  0  0
  1  2  1  0  0  0  0
  1 43  1  0  0  0  0
  2  3  1  0  0  0  0
  4  3  1  0  0  0  0
  4  5  1  0  0  0  0
  5  9  1  6  0  0  0
  5  6  1  0  0  0  0
  6  7  2  0  0  0  0
  6  8  1  0  0  0  0
 10  9  1  0  0  0  0
 11 14  1  0  0  0  0
 12 13  2  0  0  0  0
 12 21  1  0  0  0  0
 14 19  1  1  0  0  0
 14 21  1  0  0  0  0
 15 18  1  0  0  0  0
 15 24  1  0  0  0  0
 17 11  2  0  0  0  0
 17 10  1  0  0  0  0
 21 15  2  0  0  0  0
 22 16  1  6  0  0  0
 22 23  1  0  0  0  0
 22 12  1  0  0  0  0
 23 20  1  6  0  0  0
 23 11  1  0  0  0  0
 23 14  1  0  0  0  0
 24 25  1  0  0  0  0
 27 29  1  0  0  0  0
 27 32  1  0  0  0  0
 28 30  2  0  0  0  0
 29 33  1  0  0  0  0
 31 26  1  6  0  0  0
 32 28  1  0  0  0  0
 32 31  1  0  0  0  0
 33 42  1  1  0  0  0
 33 31  1  0  0  0  0
 34 35  1  0  0  0  0
 35 40  2  0  0  0  0
 35 38  1  0  0  0  0
 36 39  2  0  0  0  0
 37 36  1  0  0  0  0
 37 34  2  0  0  0  0
 39 28  1  0  0  0  0
 39 40  1  0  0  0  0
 41 42  1  0  0  0  0
 43 44  1  0  0  0  0
 44 45  1  0  0  0  0
 45 46  1  0  0  0  0
 46 47  1  0  0  0  0
 47 49  1  0  0  0  0
 49 50  2  0  0  0  0
 49 48  1  0  0  0  0
M  END
>  <MODEL>
7

>  <REMARK>
 VINA RESULT:      -7.5      3.938     10.965
  Name = 
  18 active torsions:
  status: ('A' for Active; 'I' for Inactive)
    1  A    between atoms: C_2  and  C_22
    2  A    between atoms: C_2  and  O_45
    3  A    between atoms: C_5  and  C_22
    4  A    between atoms: C_5  and  C_31
    5  A    between atoms: C_6  and  C_21
    6  A    between atoms: C_6  and  N_28
    7  A    between atoms: C_8  and  C_13
    8  A    between atoms: C_9  and  C_11
    9  A    between atoms: C_9  and  C_23
   10  A    between atoms: C_11  and  C_18
   11  A    between atoms: C_11  and  C_32
   12  A    between atoms: C_15  and  C_23
   13  A    between atoms: C_17  and  C_18
   14  A    between atoms: C_17  and  O_46
   15  A    between atoms: C_19  and  C_42
   16  A    between atoms: C_21  and  O_45
   17  A    between atoms: C_22  and  O_46
   18  A    between atoms: C_38  and  C_50
                            x       y       z     vdW  Elec       q    Type
                         _______ _______ _______ _____ _____    ______ ____

>  <TORSDO>
F 18

$$$$
=
 OpenBabel11062412573D

 50 53  0  0  1  0  0  0  0  0999 V2000
  188.4250  178.5150  140.4110 C   0  0  2  0  0  3  0  0  0  0  0  0
  188.2100  178.7790  139.1160 O   0  0  0  0  0  0  0  0  0  0  0  0
  187.5810  177.5880  138.6360 C   0  0  0  0  0  2  0  0  0  0  0  0
  186.2400  177.9150  138.1480 C   0  0  0  0  0  2  0  0  0  0  0  0
  185.8930  177.2210  136.8480 C   0  0  1  0  0  3  0  0  0  0  0  0
  186.4980  175.8410  136.7100 C   0  0  0  0  0  0  0  0  0  0  0  0
  185.9590  174.6920  137.3060 O   0  0  0  0  0  1  0  0  0  0  0  0
  187.4580  175.6890  135.8630 O   0  0  0  0  0  0  0  0  0  0  0  0
  184.3690  177.1150  136.7610 C   0  0  0  0  0  2  0  0  0  0  0  0
  183.6360  177.8370  137.9440 C   0  0  0  0  0  2  0  0  0  0  0  0
  181.2320  177.6260  138.5980 C   0  0  0  0  0  0  0  0  0  0  0  0
  180.0630  178.4290  141.3250 C   0  0  0  0  0  0  0  0  0  0  0  0
  180.4730  178.6910  142.5560 C   0  0  0  0  0  2  0  0  0  0  0  0
  180.1010  178.6300  138.9370 C   0  0  2  0  0  0  0  0  0  0  0  0
  179.8810  180.7140  140.3490 C   0  0  0  0  0  0  0  0  0  0  0  0
  179.2100  176.1760  141.3260 O   0  0  0  0  0  1  0  0  0  0  0  0
  182.4130  177.1000  138.3250 C   0  0  0  0  0  3  0  0  0  0  0  0
  179.6750  181.2480  141.6170 O   0  0  0  0  0  1  0  0  0  0  0  0
  179.2680  179.0910  137.7480 C   0  0  0  0  0  1  0  0  0  0  0  0
  179.0600  176.4340  138.5050 F   0  0  0  0  0  0  0  0  0  0  0  0
  180.0270  179.4090  140.2210 C   0  0  0  0  0  0  0  0  0  0  0  0
  180.1050  177.0620  140.7450 C   0  0  1  0  0  3  0  0  0  0  0  0
  179.8750  177.2670  139.2730 C   0  0  1  0  0  0  0  0  0  0  0  0
  179.8550  181.6360  139.1660 C   0  0  0  0  0  2  0  0  0  0  0  0
  181.1360  181.9130  138.7150 O   0  0  0  0  0  1  0  0  0  0  0  0
  188.7020  176.9960  140.7090 C   0  0  0  0  0  2  0  0  0  0  0  0
  191.9630  177.5170  142.4190 C   0  0  0  0  0  2  0  0  0  0  0  0
  189.7010  177.4260  143.5570 C   0  0  0  0  0  0  0  0  0  0  0  0
  192.4140  177.4070  140.9630 C   0  0  0  0  0  2  0  0  0  0  0  0
  188.5710  177.9890  143.3430 O   0  0  0  0  0  0  0  0  0  0  0  0
  190.1660  176.6590  141.0890 C   0  0  2  0  0  3  0  0  0  0  0  0
  190.5460  177.1080  142.4210 N   0  0  0  0  0  0  0  0  0  0  0  0
  191.1010  177.4360  140.2020 C   0  0  2  0  0  3  0  0  0  0  0  0
  190.9130  176.7520  147.5980 C   0  0  0  0  0  3  0  0  0  0  0  0
  189.7430  177.4720  147.3360 C   0  0  0  0  0  0  0  0  0  0  0  0
  191.2830  176.5170  145.2320 C   0  0  0  0  0  3  0  0  0  0  0  0
  191.6990  176.2910  146.5380 C   0  0  0  0  0  3  0  0  0  0  0  0
  188.9390  177.9340  148.4070 N   0  0  0  0  0  1  0  0  0  0  0  0
  190.1070  177.2250  144.9420 C   0  0  0  0  0  0  0  0  0  0  0  0
  189.3500  177.7180  146.0260 C   0  0  0  0  0  3  0  0  0  0  0  0
  192.4380  176.5500  138.1930 C   0  0  0  0  0  1  0  0  0  0  0  0
  191.1440  177.1630  138.6830 C   0  0  0  0  0  2  0  0  0  0  0  0
  187.3810  179.1480  141.3420 C   0  0  0  0  0  2  0  0  0  0  0  0
  186.0810  178.6940  141.1260 O   0  0  0  0  0  0  0  0  0  0  0  0
  185.3660  179.2330  142.2440 C   0  0  0  0  0  2  0  0  0  0  0  0
  184.9130  178.1830  143.1600 C   0  0  0  0  0  2  0  0  0  0  0  0
  185.4620  178.3950  144.4900 N   0  0  0  0  0  2  0  0  0  0  0  0
  185.3090  178.9550  146.9010 N   0  0  0  0  0  1  0  0  0  0  0  0
  184.7050  178.8390  145.6060 C   0  0  0  0  0  0  0  0  0  0  0  0
  183.4460  179.0800  145.5180 O   0  0  0  0  0  0  0  0  0  0  0  0
  1 26  1  6  0  0  0
  1 43  1  0  0  0  0
  2  1  1  0  0  0  0
  3  2  1  0  0  0  0
  4  3  1  0  0  0  0
  5  9  1  1  0  0  0
  5  4  1  0  0  0  0
  6  5  1  0  0  0  0
  6  7  1  0  0  0  0
  8  6  2  0  0  0  0
  9 10  1  0  0  0  0
 10 17  1  0  0  0  0
 11 14  1  0  0  0  0
 11 23  1  0  0  0  0
 12 13  2  0  0  0  0
 14 19  1  6  0  0  0
 14 23  1  0  0  0  0
 14 21  1  0  0  0  0
 15 18  1  0  0  0  0
 17 11  2  0  0  0  0
 21 15  2  0  0  0  0
 21 12  1  0  0  0  0
 22 12  1  0  0  0  0
 22 16  1  1  0  0  0
 23 20  1  6  0  0  0
 23 22  1  0  0  0  0
 24 15  1  0  0  0  0
 25 24  1  0  0  0  0
 27 32  1  0  0  0  0
 28 39  1  0  0  0  0
 29 27  1  0  0  0  0
 30 28  2  0  0  0  0
 31 26  1  6  0  0  0
 31 32  1  0  0  0  0
 32 28  1  0  0  0  0
 33 42  1  6  0  0  0
 33 29  1  0  0  0  0
 33 31  1  0  0  0  0
 35 34  1  0  0  0  0
 35 38  1  0  0  0  0
 36 37  1  0  0  0  0
 37 34  2  0  0  0  0
 39 36  2  0  0  0  0
 39 40  1  0  0  0  0
 40 35  2  0  0  0  0
 41 42  1  0  0  0  0
 44 43  1  0  0  0  0
 44 45  1  0  0  0  0
 45 46  1  0  0  0  0
 46 47  1  0  0  0  0
 47 49  1  0  0  0  0
 49 48  1  0  0  0  0
 50 49  2  0  0  0  0
M  END
>  <MODEL>
8

>  <REMARK>
 VINA RESULT:      -7.3      3.769      9.594
  Name = 
  18 active torsions:
  status: ('A' for Active; 'I' for Inactive)
    1  A    between atoms: C_2  and  C_22
    2  A    between atoms: C_2  and  O_45
    3  A    between atoms: C_5  and  C_22
    4  A    between atoms: C_5  and  C_31
    5  A    between atoms: C_6  and  C_21
    6  A    between atoms: C_6  and  N_28
    7  A    between atoms: C_8  and  C_13
    8  A    between atoms: C_9  and  C_11
    9  A    between atoms: C_9  and  C_23
   10  A    between atoms: C_11  and  C_18
   11  A    between atoms: C_11  and  C_32
   12  A    between atoms: C_15  and  C_23
   13  A    between atoms: C_17  and  C_18
   14  A    between atoms: C_17  and  O_46
   15  A    between atoms: C_19  and  C_42
   16  A    between atoms: C_21  and  O_45
   17  A    between atoms: C_22  and  O_46
   18  A    between atoms: C_38  and  C_50
                            x       y       z     vdW  Elec       q    Type
                         _______ _______ _______ _____ _____    ______ ____

>  <TORSDO>
F 18

$$$$
=
 OpenBabel11062412573D

 50 53  0  0  1  0  0  0  0  0999 V2000
  188.3030  178.5140  140.2370 C   0  0  2  0  0  3  0  0  0  0  0  0
  188.2600  178.6300  138.9040 O   0  0  0  0  0  0  0  0  0  0  0  0
  187.4870  177.4980  138.4980 C   0  0  0  0  0  2  0  0  0  0  0  0
  187.8970  177.0900  137.1530 C   0  0  0  0  0  2  0  0  0  0  0  0
  186.7950  176.4020  136.3770 C   0  0  1  0  0  3  0  0  0  0  0  0
  186.3150  175.1130  137.0080 C   0  0  0  0  0  0  0  0  0  0  0  0
  184.9860  174.8810  137.3890 O   0  0  0  0  0  1  0  0  0  0  0  0
  187.1350  174.1180  137.0370 O   0  0  0  0  0  0  0  0  0  0  0  0
  185.6200  177.3750  136.2600 C   0  0  0  0  0  2  0  0  0  0  0  0
  184.9600  177.3720  134.8380 C   0  0  0  0  0  2  0  0  0  0  0  0
  182.6290  177.4460  135.7380 C   0  0  0  0  0  0  0  0  0  0  0  0
  181.7680  176.4280  138.5070 C   0  0  0  0  0  0  0  0  0  0  0  0
  182.2170  175.6400  139.4730 C   0  0  0  0  0  2  0  0  0  0  0  0
  181.9310  178.1990  136.9000 C   0  0  2  0  0  0  0  0  0  0  0  0
  182.4500  178.6800  139.3260 C   0  0  0  0  0  0  0  0  0  0  0  0
  180.1570  175.1550  137.2470 O   0  0  0  0  0  1  0  0  0  0  0  0
  183.5450  176.9540  134.9220 C   0  0  0  0  0  3  0  0  0  0  0  0
  182.4220  178.2200  140.6380 O   0  0  0  0  0  1  0  0  0  0  0  0
  181.3500  179.5570  136.5330 C   0  0  0  0  0  1  0  0  0  0  0  0
  180.1750  177.3140  135.4070 F   0  0  0  0  0  0  0  0  0  0  0  0
  182.1150  177.8540  138.3530 C   0  0  0  0  0  0  0  0  0  0  0  0
  181.3250  175.9010  137.1920 C   0  0  1  0  0  3  0  0  0  0  0  0
  181.2190  177.1170  136.3120 C   0  0  1  0  0  0  0  0  0  0  0  0
  182.7870  180.1200  139.0730 C   0  0  0  0  0  2  0  0  0  0  0  0
  184.1570  180.3290  139.0980 O   0  0  0  0  0  1  0  0  0  0  0  0
  188.5450  177.0430  140.7370 C   0  0  0  0  0  2  0  0  0  0  0  0
  191.7370  177.6300  142.5520 C   0  0  0  0  0  2  0  0  0  0  0  0
  189.4360  177.5320  143.6100 C   0  0  0  0  0  0  0  0  0  0  0  0
  192.2400  177.5020  141.1150 C   0  0  0  0  0  2  0  0  0  0  0  0
  188.3090  178.0780  143.3470 O   0  0  0  0  0  0  0  0  0  0  0  0
  189.9980  176.7290  141.1740 C   0  0  2  0  0  3  0  0  0  0  0  0
  190.3250  177.2050  142.5100 N   0  0  0  0  0  0  0  0  0  0  0  0
  190.9550  177.5020  140.3070 C   0  0  2  0  0  3  0  0  0  0  0  0
  190.4650  177.1060  147.7350 C   0  0  0  0  0  3  0  0  0  0  0  0
  191.2960  176.5570  146.7530 C   0  0  0  0  0  0  0  0  0  0  0  0
  188.9720  177.8860  146.0180 C   0  0  0  0  0  3  0  0  0  0  0  0
  189.2830  177.7550  147.3650 C   0  0  0  0  0  3  0  0  0  0  0  0
  192.4980  175.9060  147.1240 N   0  0  0  0  0  1  0  0  0  0  0  0
  189.7950  177.3580  145.0120 C   0  0  0  0  0  0  0  0  0  0  0  0
  190.9600  176.6690  145.4090 C   0  0  0  0  0  3  0  0  0  0  0  0
  191.2750  175.7470  138.4570 C   0  0  0  0  0  1  0  0  0  0  0  0
  191.0550  177.2050  138.7960 C   0  0  0  0  0  2  0  0  0  0  0  0
  187.1420  179.2260  140.9460 C   0  0  0  0  0  2  0  0  0  0  0  0
  186.1310  178.3690  141.3760 O   0  0  0  0  0  0  0  0  0  0  0  0
  185.3190  179.2190  142.1940 C   0  0  0  0  0  2  0  0  0  0  0  0
  184.7040  178.4850  143.3020 C   0  0  0  0  0  2  0  0  0  0  0  0
  184.9140  179.1880  144.5590 N   0  0  0  0  0  2  0  0  0  0  0  0
  185.6850  179.3690  146.9080 N   0  0  0  0  0  1  0  0  0  0  0  0
  185.4440  178.5880  145.7320 C   0  0  0  0  0  0  0  0  0  0  0  0
  185.7950  177.3510  145.7610 O   0  0  0  0  0  0  0  0  0  0  0  0
  1 26  1  6  0  0  0
  1 43  1  0  0  0  0
  2  1  1  0  0  0  0
  3  2  1  0  0  0  0
  4  3  1  0  0  0  0
  5  9  1  1  0  0  0
  5  6  1  0  0  0  0
  5  4  1  0  0  0  0
  6  8  2  0  0  0  0
  6  7  1  0  0  0  0
 10 17  1  0  0  0  0
 10  9  1  0  0  0  0
 11 23  1  0  0  0  0
 11 14  1  0  0  0  0
 12 13  2  0  0  0  0
 14 19  1  6  0  0  0
 14 21  1  0  0  0  0
 15 18  1  0  0  0  0
 17 11  2  0  0  0  0
 21 12  1  0  0  0  0
 21 15  2  0  0  0  0
 22 16  1  1  0  0  0
 22 12  1  0  0  0  0
 23 20  1  6  0  0  0
 23 14  1  0  0  0  0
 23 22  1  0  0  0  0
 24 25  1  0  0  0  0
 24 15  1  0  0  0  0
 28 39  1  0  0  0  0
 29 27  1  0  0  0  0
 30 28  2  0  0  0  0
 31 26  1  6  0  0  0
 31 32  1  0  0  0  0
 32 27  1  0  0  0  0
 32 28  1  0  0  0  0
 33 42  1  6  0  0  0
 33 29  1  0  0  0  0
 33 31  1  0  0  0  0
 35 38  1  0  0  0  0
 35 34  2  0  0  0  0
 36 37  2  0  0  0  0
 37 34  1  0  0  0  0
 39 40  2  0  0  0  0
 39 36  1  0  0  0  0
 40 35  1  0  0  0  0
 41 42  1  0  0  0  0
 43 44  1  0  0  0  0
 44 45  1  0  0  0  0
 45 46  1  0  0  0  0
 46 47  1  0  0  0  0
 47 49  1  0  0  0  0
 49 50  2  0  0  0  0
 49 48  1  0  0  0  0
M  END
>  <MODEL>
9

>  <REMARK>
 VINA RESULT:      -7.2      3.688      8.463
  Name = 
  18 active torsions:
  status: ('A' for Active; 'I' for Inactive)
    1  A    between atoms: C_2  and  C_22
    2  A    between atoms: C_2  and  O_45
    3  A    between atoms: C_5  and  C_22
    4  A    between atoms: C_5  and  C_31
    5  A    between atoms: C_6  and  C_21
    6  A    between atoms: C_6  and  N_28
    7  A    between atoms: C_8  and  C_13
    8  A    between atoms: C_9  and  C_11
    9  A    between atoms: C_9  and  C_23
   10  A    between atoms: C_11  and  C_18
   11  A    between atoms: C_11  and  C_32
   12  A    between atoms: C_15  and  C_23
   13  A    between atoms: C_17  and  C_18
   14  A    between atoms: C_17  and  O_46
   15  A    between atoms: C_19  and  C_42
   16  A    between atoms: C_21  and  O_45
   17  A    between atoms: C_22  and  O_46
   18  A    between atoms: C_38  and  C_50
                            x       y       z     vdW  Elec       q    Type
                         _______ _______ _______ _____ _____    ______ ____

>  <TORSDO>
F 18

$$$$
