=
 OpenBabel11062413363D

 42 46  0  0  1  0  0  0  0  0999 V2000
  190.3060  175.6630  138.1350 C   0  0  0  0  0  2  0  0  0  0  0  0
  189.6240  177.0080  138.0280 C   0  0  0  0  0  0  0  0  0  0  0  0
  191.0090  176.8300  137.4560 C   0  0  0  0  0  2  0  0  0  0  0  0
  183.8980  175.9270  136.8790 C   0  0  2  0  0  0  0  0  0  0  0  0
  187.4960  178.1880  137.3390 C   0  0  0  0  0  2  0  0  0  0  0  0
  185.2570  175.1660  136.8980 C   0  0  0  0  0  2  0  0  0  0  0  0
  186.4000  176.0530  137.4320 C   0  0  1  0  0  3  0  0  0  0  0  0
  187.7560  175.7780  136.8350 C   0  0  0  0  0  2  0  0  0  0  0  0
  188.5160  177.1030  136.9760 C   0  0  2  0  0  3  0  0  0  0  0  0
  183.8840  176.9250  138.0370 C   0  0  1  0  0  3  0  0  0  0  0  0
  181.6540  176.0530  137.8150 C   0  0  0  0  0  2  0  0  0  0  0  0
  186.1580  177.5170  137.1340 C   0  0  1  0  0  3  0  0  0  0  0  0
  184.9190  178.0660  137.8790 C   0  0  2  0  0  3  0  0  0  0  0  0
  182.1540  174.3630  136.1790 O   0  0  0  0  0  1  0  0  0  0  0  0
  182.6860  175.0720  137.2560 C   0  0  1  0  0  3  0  0  0  0  0  0
  182.4300  177.3030  138.2400 C   0  0  1  0  0  3  0  0  0  0  0  0
  181.3030  178.7030  139.9650 O   0  0  0  0  0  0  0  0  0  0  0  0
  182.6710  176.9810  140.6040 O   0  0  0  0  0  1  0  0  0  0  0  0
  182.1470  177.6420  139.6680 C   0  0  0  0  0  0  0  0  0  0  0  0
  184.6830  179.9610  139.3560 O   0  0  0  0  0  1  0  0  0  0  0  0
  185.2530  178.6930  139.2360 C   0  0  0  0  0  2  0  0  0  0  0  0
  184.3310  176.0090  134.5950 C   0  0  0  0  0  1  0  0  0  0  0  0
  183.6920  176.6520  135.6690 O   0  0  0  0  0  0  0  0  0  0  0  0
  189.0620  177.2880  140.4080 C   0  0  0  0  0  3  0  0  0  0  0  0
  189.5870  177.8020  139.3000 C   0  0  0  0  0  3  0  0  0  0  0  0
  189.0290  178.0680  141.6790 C   0  0  0  0  0  2  0  0  0  0  0  0
  187.6520  177.9570  142.3150 C   0  0  0  0  0  2  0  0  0  0  0  0
  187.7360  177.2880  143.6780 C   0  0  2  0  0  3  0  0  0  0  0  0
  186.4160  177.2390  144.2860 N   0  0  0  0  0  2  0  0  0  0  0  0
  185.5750  178.1510  143.5210 C   0  0  0  0  0  2  0  0  0  0  0  0
  184.7440  179.0490  144.4290 C   0  0  2  0  0  3  0  0  0  0  0  0
  184.9550  178.6990  145.8900 C   0  0  0  0  0  1  0  0  0  0  0  0
  182.1470  178.9140  143.8100 C   0  0  0  0  0  3  0  0  0  0  0  0
  183.3180  178.9770  144.0880 C   0  0  0  0  0  0  0  0  0  0  0  0
  188.6540  178.0310  144.5320 N   0  0  0  0  0  2  0  0  0  0  0  0
  191.6560  176.2300  146.9280 C   0  0  0  0  0  3  0  0  0  0  0  0
  190.8500  176.9280  144.7530 C   0  0  0  0  0  3  0  0  0  0  0  0
  190.4840  176.7130  147.5160 C   0  0  0  0  0  3  0  0  0  0  0  0
  188.2560  177.8130  147.3910 C   0  0  0  0  0  1  0  0  0  0  0  0
  189.6680  177.4130  145.3360 C   0  0  0  0  0  0  0  0  0  0  0  0
  189.4900  177.3050  146.7280 C   0  0  0  0  0  0  0  0  0  0  0  0
  191.8390  176.3360  145.5470 C   0  0  0  0  0  3  0  0  0  0  0  0
  2  1  1  0  0  0  0
  2 25  1  0  0  0  0
  3  2  1  0  0  0  0
  3  1  1  0  0  0  0
  4 23  1  6  0  0  0
  4  6  1  0  0  0  0
  4 15  1  0  0  0  0
  4 10  1  0  0  0  0
  6  7  1  0  0  0  0
  7  8  1  6  0  0  0
  9  8  1  1  0  0  0
  9  5  1  0  0  0  0
  9  2  1  0  0  0  0
 10 16  1  0  0  0  0
 11 16  1  0  0  0  0
 12  5  1  0  0  0  0
 12  7  1  0  0  0  0
 12 13  1  0  0  0  0
 13 10  1  0  0  0  0
 13 21  1  0  0  0  0
 14 15  1  0  0  0  0
 15 11  1  0  0  0  0
 16 19  1  0  0  0  0
 19 17  2  0  0  0  0
 19 18  1  0  0  0  0
 21 20  1  0  0  0  0
 22 23  1  0  0  0  0
 24 26  1  0  0  0  0
 25 24  2  0  0  0  0
 26 27  1  0  0  0  0
 27 28  1  0  0  0  0
 28 29  1  0  0  0  0
 28 35  1  0  0  0  0
 30 29  1  0  0  0  0
 30 31  1  0  0  0  0
 31 32  1  0  0  0  0
 33 34  3  0  0  0  0
 34 31  1  0  0  0  0
 35 40  1  0  0  0  0
 36 38  1  0  0  0  0
 37 40  2  0  0  0  0
 37 42  1  0  0  0  0
 40 41  1  0  0  0  0
 41 39  1  0  0  0  0
 41 38  2  0  0  0  0
 42 36  2  0  0  0  0
M  END
>  <MODEL>
1

>  <REMARK>
 VINA RESULT:      -8.0      0.000      0.000
  Name = 
  14 active torsions:
  status: ('A' for Active; 'I' for Inactive)
    1  A    between atoms: C_1  and  O_41
    2  A    between atoms: C_3  and  C_14
    3  A    between atoms: C_3  and  C_20
    4  A    between atoms: C_6  and  C_29
    5  A    between atoms: C_6  and  C_40
    6  A    between atoms: C_9  and  C_13
    7  A    between atoms: C_9  and  C_17
    8  A    between atoms: C_17  and  C_34
    9  A    between atoms: N_18  and  C_29
   10  A    between atoms: N_18  and  C_34
   11  A    between atoms: C_24  and  C_37
   12  A    between atoms: C_28  and  C_31
   13  A    between atoms: C_32  and  N_35
   14  A    between atoms: C_34  and  N_35
                            x       y       z     vdW  Elec       q    Type
                         _______ _______ _______ _____ _____    ______ ____

>  <TORSDO>
F 14

$$$$
=
 OpenBabel11062413363D

 42 46  0  0  1  0  0  0  0  0999 V2000
  190.3880  175.3270  137.6070 C   0  0  0  0  0  2  0  0  0  0  0  0
  189.5390  176.5710  137.7420 C   0  0  0  0  0  0  0  0  0  0  0  0
  190.9090  176.6700  137.1160 C   0  0  0  0  0  2  0  0  0  0  0  0
  183.7040  175.8020  136.9470 C   0  0  2  0  0  0  0  0  0  0  0  0
  187.4510  177.8510  137.1110 C   0  0  0  0  0  2  0  0  0  0  0  0
  185.0140  174.9590  136.9290 C   0  0  0  0  0  2  0  0  0  0  0  0
  186.2350  175.7940  137.3610 C   0  0  1  0  0  3  0  0  0  0  0  0
  187.5370  175.4100  136.7070 C   0  0  0  0  0  2  0  0  0  0  0  0
  188.3830  176.6900  136.7460 C   0  0  2  0  0  3  0  0  0  0  0  0
  183.8140  176.8480  138.0570 C   0  0  1  0  0  3  0  0  0  0  0  0
  181.5270  176.1080  137.9930 C   0  0  0  0  0  2  0  0  0  0  0  0
  186.0660  177.2560  137.0090 C   0  0  1  0  0  3  0  0  0  0  0  0
  184.9060  177.9140  137.7910 C   0  0  2  0  0  3  0  0  0  0  0  0
  181.8330  174.3220  136.4130 O   0  0  0  0  0  1  0  0  0  0  0  0
  182.4650  175.0410  137.4270 C   0  0  1  0  0  3  0  0  0  0  0  0
  182.3990  177.3240  138.3180 C   0  0  1  0  0  3  0  0  0  0  0  0
  182.9250  177.0900  140.7420 O   0  0  0  0  0  1  0  0  0  0  0  0
  181.4210  178.6710  140.0440 O   0  0  0  0  0  0  0  0  0  0  0  0
  182.2160  177.7410  139.7420 C   0  0  0  0  0  0  0  0  0  0  0  0
  184.8470  179.8730  139.2000 O   0  0  0  0  0  1  0  0  0  0  0  0
  185.3510  178.5760  139.0990 C   0  0  0  0  0  2  0  0  0  0  0  0
  184.0230  175.7640  134.6430 C   0  0  0  0  0  1  0  0  0  0  0  0
  183.4750  176.4850  135.7170 O   0  0  0  0  0  0  0  0  0  0  0  0
  190.4140  176.8850  140.0220 C   0  0  0  0  0  3  0  0  0  0  0  0
  189.4600  177.1370  139.1290 C   0  0  0  0  0  3  0  0  0  0  0  0
  190.3460  177.4500  141.4000 C   0  0  0  0  0  2  0  0  0  0  0  0
  189.1060  176.9300  142.1090 C   0  0  0  0  0  2  0  0  0  0  0  0
  188.7060  177.8530  143.2510 C   0  0  2  0  0  3  0  0  0  0  0  0
  189.8770  178.1910  144.0430 N   0  0  0  0  0  2  0  0  0  0  0  0
  190.0500  177.1110  145.0070 C   0  0  0  0  0  2  0  0  0  0  0  0
  191.5010  176.6490  145.0850 C   0  0  2  0  0  3  0  0  0  0  0  0
  191.7800  175.5490  144.0780 C   0  0  0  0  0  1  0  0  0  0  0  0
  192.1270  175.8300  147.5510 C   0  0  0  0  0  3  0  0  0  0  0  0
  191.8440  176.2020  146.4390 C   0  0  0  0  0  0  0  0  0  0  0  0
  187.7080  177.1950  144.0850 N   0  0  0  0  0  2  0  0  0  0  0  0
  183.9670  178.9090  145.1120 C   0  0  0  0  0  3  0  0  0  0  0  0
  185.5000  178.0800  143.4310 C   0  0  0  0  0  3  0  0  0  0  0  0
  184.9010  178.6140  146.1080 C   0  0  0  0  0  3  0  0  0  0  0  0
  187.1070  177.7460  146.8620 C   0  0  0  0  0  1  0  0  0  0  0  0
  186.4460  177.7840  144.4260 C   0  0  0  0  0  0  0  0  0  0  0  0
  186.1380  178.0520  145.7720 C   0  0  0  0  0  0  0  0  0  0  0  0
  184.2660  178.6440  143.7730 C   0  0  0  0  0  3  0  0  0  0  0  0
  1  2  1  0  0  0  0
  2 25  1  0  0  0  0
  3  1  1  0  0  0  0
  3  2  1  0  0  0  0
  4 23  1  6  0  0  0
  4 15  1  0  0  0  0
  4 10  1  0  0  0  0
  6  4  1  0  0  0  0
  6  7  1  0  0  0  0
  7  8  1  6  0  0  0
  9  8  1  1  0  0  0
  9  5  1  0  0  0  0
  9  2  1  0  0  0  0
 10 16  1  0  0  0  0
 11 16  1  0  0  0  0
 12  5  1  0  0  0  0
 12  7  1  0  0  0  0
 12 13  1  0  0  0  0
 13 10  1  0  0  0  0
 13 21  1  0  0  0  0
 14 15  1  0  0  0  0
 15 11  1  0  0  0  0
 16 19  1  0  0  0  0
 19 18  2  0  0  0  0
 19 17  1  0  0  0  0
 21 20  1  0  0  0  0
 22 23  1  0  0  0  0
 24 26  1  0  0  0  0
 25 24  2  0  0  0  0
 26 27  1  0  0  0  0
 27 28  1  0  0  0  0
 28 29  1  0  0  0  0
 28 35  1  0  0  0  0
 29 30  1  0  0  0  0
 30 31  1  0  0  0  0
 31 34  1  0  0  0  0
 32 31  1  0  0  0  0
 34 33  3  0  0  0  0
 35 40  1  0  0  0  0
 36 38  1  0  0  0  0
 37 42  1  0  0  0  0
 37 40  2  0  0  0  0
 40 41  1  0  0  0  0
 41 38  2  0  0  0  0
 41 39  1  0  0  0  0
 42 36  2  0  0  0  0
M  END
>  <MODEL>
2

>  <REMARK>
 VINA RESULT:      -7.9      0.841      3.814
  Name = 
  14 active torsions:
  status: ('A' for Active; 'I' for Inactive)
    1  A    between atoms: C_1  and  O_41
    2  A    between atoms: C_3  and  C_14
    3  A    between atoms: C_3  and  C_20
    4  A    between atoms: C_6  and  C_29
    5  A    between atoms: C_6  and  C_40
    6  A    between atoms: C_9  and  C_13
    7  A    between atoms: C_9  and  C_17
    8  A    between atoms: C_17  and  C_34
    9  A    between atoms: N_18  and  C_29
   10  A    between atoms: N_18  and  C_34
   11  A    between atoms: C_24  and  C_37
   12  A    between atoms: C_28  and  C_31
   13  A    between atoms: C_32  and  N_35
   14  A    between atoms: C_34  and  N_35
                            x       y       z     vdW  Elec       q    Type
                         _______ _______ _______ _____ _____    ______ ____

>  <TORSDO>
F 14

$$$$
=
 OpenBabel11062413363D

 42 46  0  0  1  0  0  0  0  0999 V2000
  187.6030  176.2080  136.5460 C   0  0  0  0  0  2  0  0  0  0  0  0
  186.5890  177.1750  137.1140 C   0  0  0  0  0  0  0  0  0  0  0  0
  187.4720  177.6110  135.9690 C   0  0  0  0  0  2  0  0  0  0  0  0
  181.0450  176.5020  139.1360 C   0  0  2  0  0  0  0  0  0  0  0  0
  184.2740  178.1670  136.8840 C   0  0  0  0  0  2  0  0  0  0  0  0
  182.3440  175.6590  138.9640 C   0  0  0  0  0  2  0  0  0  0  0  0
  183.5200  176.5210  138.4620 C   0  0  1  0  0  3  0  0  0  0  0  0
  184.5090  175.8030  137.5810 C   0  0  0  0  0  2  0  0  0  0  0  0
  185.1340  176.9090  136.7200 C   0  0  2  0  0  3  0  0  0  0  0  0
  181.4390  177.9250  139.5360 C   0  0  1  0  0  3  0  0  0  0  0  0
  179.4170  177.3810  140.7180 C   0  0  0  0  0  2  0  0  0  0  0  0
  183.0440  177.6790  137.6130 C   0  0  1  0  0  3  0  0  0  0  0  0
  182.2000  178.6890  138.4230 C   0  0  2  0  0  3  0  0  0  0  0  0
  179.3180  175.0610  140.0930 O   0  0  0  0  0  1  0  0  0  0  0  0
  180.1940  176.1170  140.3480 C   0  0  1  0  0  3  0  0  0  0  0  0
  180.1840  178.5560  140.1060 C   0  0  1  0  0  3  0  0  0  0  0  0
  180.0240  180.8700  141.0170 O   0  0  0  0  0  0  0  0  0  0  0  0
  181.2280  179.2780  142.1410 O   0  0  0  0  0  1  0  0  0  0  0  0
  180.5100  179.5770  141.1490 C   0  0  0  0  0  0  0  0  0  0  0  0
  183.8670  179.3770  140.0270 O   0  0  0  0  0  1  0  0  0  0  0  0
  183.0240  179.8360  139.0150 C   0  0  0  0  0  2  0  0  0  0  0  0
  180.3960  175.3870  137.2020 C   0  0  0  0  0  1  0  0  0  0  0  0
  180.2770  176.5770  137.9380 O   0  0  0  0  0  0  0  0  0  0  0  0
  188.2370  177.9660  138.7630 C   0  0  0  0  0  3  0  0  0  0  0  0
  186.9610  177.7800  138.4350 C   0  0  0  0  0  3  0  0  0  0  0  0
  188.6150  178.5730  140.0720 C   0  0  0  0  0  2  0  0  0  0  0  0
  187.5310  178.2930  141.1010 C   0  0  0  0  0  2  0  0  0  0  0  0
  188.1340  177.7670  142.3950 C   0  0  2  0  0  3  0  0  0  0  0  0
  189.1940  176.8190  142.0940 N   0  0  0  0  0  2  0  0  0  0  0  0
  190.0170  176.7260  143.2930 C   0  0  0  0  0  2  0  0  0  0  0  0
  191.3690  177.4070  143.1050 C   0  0  2  0  0  3  0  0  0  0  0  0
  191.3610  178.8100  143.6820 C   0  0  0  0  0  1  0  0  0  0  0  0
  192.0740  177.4610  140.5270 C   0  0  0  0  0  3  0  0  0  0  0  0
  191.7560  177.4380  141.6910 C   0  0  0  0  0  0  0  0  0  0  0  0
  187.0970  177.1250  143.1930 N   0  0  0  0  0  2  0  0  0  0  0  0
  185.6950  178.6850  146.8800 C   0  0  0  0  0  3  0  0  0  0  0  0
  187.4110  177.5490  145.6030 C   0  0  0  0  0  3  0  0  0  0  0  0
  184.9070  178.7840  145.7300 C   0  0  0  0  0  3  0  0  0  0  0  0
  184.5000  178.3970  143.3070 C   0  0  0  0  0  1  0  0  0  0  0  0
  186.6240  177.6420  144.4430 C   0  0  0  0  0  0  0  0  0  0  0  0
  185.3660  178.2680  144.5130 C   0  0  0  0  0  0  0  0  0  0  0  0
  186.9460  178.0660  146.8170 C   0  0  0  0  0  3  0  0  0  0  0  0
  1  2  1  0  0  0  0
  2 25  1  0  0  0  0
  3  1  1  0  0  0  0
  3  2  1  0  0  0  0
  4 23  1  6  0  0  0
  4 10  1  0  0  0  0
  4 15  1  0  0  0  0
  5 12  1  0  0  0  0
  6  4  1  0  0  0  0
  7  8  1  6  0  0  0
  7  6  1  0  0  0  0
  9  5  1  1  0  0  0
  9  2  1  0  0  0  0
  9  8  1  0  0  0  0
 10 16  1  0  0  0  0
 12 13  1  0  0  0  0
 12  7  1  0  0  0  0
 13 21  1  0  0  0  0
 13 10  1  0  0  0  0
 14 15  1  0  0  0  0
 15 11  1  0  0  0  0
 16 11  1  0  0  0  0
 16 19  1  0  0  0  0
 17 19  2  0  0  0  0
 19 18  1  0  0  0  0
 21 20  1  0  0  0  0
 22 23  1  0  0  0  0
 24 26  1  0  0  0  0
 25 24  2  0  0  0  0
 26 27  1  0  0  0  0
 27 28  1  0  0  0  0
 28 35  1  0  0  0  0
 29 28  1  0  0  0  0
 29 30  1  0  0  0  0
 31 30  1  0  0  0  0
 31 32  1  0  0  0  0
 33 34  3  0  0  0  0
 34 31  1  0  0  0  0
 35 40  1  0  0  0  0
 37 42  2  0  0  0  0
 38 36  2  0  0  0  0
 39 41  1  0  0  0  0
 40 41  2  0  0  0  0
 40 37  1  0  0  0  0
 41 38  1  0  0  0  0
 42 36  1  0  0  0  0
M  END
>  <MODEL>
3

>  <REMARK>
 VINA RESULT:      -7.3      2.017      4.363
  Name = 
  14 active torsions:
  status: ('A' for Active; 'I' for Inactive)
    1  A    between atoms: C_1  and  O_41
    2  A    between atoms: C_3  and  C_14
    3  A    between atoms: C_3  and  C_20
    4  A    between atoms: C_6  and  C_29
    5  A    between atoms: C_6  and  C_40
    6  A    between atoms: C_9  and  C_13
    7  A    between atoms: C_9  and  C_17
    8  A    between atoms: C_17  and  C_34
    9  A    between atoms: N_18  and  C_29
   10  A    between atoms: N_18  and  C_34
   11  A    between atoms: C_24  and  C_37
   12  A    between atoms: C_28  and  C_31
   13  A    between atoms: C_32  and  N_35
   14  A    between atoms: C_34  and  N_35
                            x       y       z     vdW  Elec       q    Type
                         _______ _______ _______ _____ _____    ______ ____

>  <TORSDO>
F 14

$$$$
=
 OpenBabel11062413363D

 42 46  0  0  1  0  0  0  0  0999 V2000
  182.1020  179.0460  140.5860 C   0  0  0  0  0  2  0  0  0  0  0  0
  183.4040  178.3850  140.1960 C   0  0  0  0  0  0  0  0  0  0  0  0
  182.2000  177.5290  140.5060 C   0  0  0  0  0  2  0  0  0  0  0  0
  186.9600  176.2690  135.9360 C   0  0  2  0  0  0  0  0  0  0  0  0
  183.3160  177.1880  137.9700 C   0  0  0  0  0  2  0  0  0  0  0  0
  186.9900  177.3390  137.0680 C   0  0  0  0  0  2  0  0  0  0  0  0
  185.7150  177.2880  137.9330 C   0  0  1  0  0  3  0  0  0  0  0  0
  185.2700  178.6130  138.4950 C   0  0  0  0  0  2  0  0  0  0  0  0
  183.7590  178.4550  138.7090 C   0  0  2  0  0  3  0  0  0  0  0  0
  186.1820  175.0520  136.4370 C   0  0  1  0  0  3  0  0  0  0  0  0
  187.9810  174.2370  135.0650 C   0  0  0  0  0  2  0  0  0  0  0  0
  184.5190  176.8060  137.1410 C   0  0  1  0  0  3  0  0  0  0  0  0
  184.6790  175.3390  136.6780 C   0  0  2  0  0  3  0  0  0  0  0  0
  189.1000  176.3430  134.7550 O   0  0  0  0  0  1  0  0  0  0  0  0
  188.3120  175.6130  135.6460 C   0  0  1  0  0  3  0  0  0  0  0  0
  186.5510  173.9140  135.5070 C   0  0  1  0  0  3  0  0  0  0  0  0
  187.1380  172.4470  137.4340 O   0  0  0  0  0  1  0  0  0  0  0  0
  185.8930  171.6150  135.7000 O   0  0  0  0  0  0  0  0  0  0  0  0
  186.5010  172.5950  136.2100 C   0  0  0  0  0  0  0  0  0  0  0  0
  183.1680  173.4860  137.0110 O   0  0  0  0  0  1  0  0  0  0  0  0
  184.0790  174.3240  137.6550 C   0  0  0  0  0  2  0  0  0  0  0  0
  186.5390  178.1210  134.5940 C   0  0  0  0  0  1  0  0  0  0  0  0
  186.3250  176.7420  134.7510 O   0  0  0  0  0  0  0  0  0  0  0  0
  184.1390  178.6390  142.5320 C   0  0  0  0  0  3  0  0  0  0  0  0
  184.4540  178.3720  141.2680 C   0  0  0  0  0  3  0  0  0  0  0  0
  185.1750  178.6210  143.6050 C   0  0  0  0  0  2  0  0  0  0  0  0
  186.1540  177.4850  143.3540 C   0  0  0  0  0  2  0  0  0  0  0  0
  187.5880  177.9500  143.5590 C   0  0  2  0  0  3  0  0  0  0  0  0
  188.3120  177.8810  142.3000 N   0  0  0  0  0  2  0  0  0  0  0  0
  188.9860  176.5890  142.2810 C   0  0  0  0  0  2  0  0  0  0  0  0
  190.3470  176.6710  141.5990 C   0  0  2  0  0  3  0  0  0  0  0  0
  191.2860  177.5910  142.3560 C   0  0  0  0  0  1  0  0  0  0  0  0
  190.1090  177.4740  139.0600 C   0  0  0  0  0  3  0  0  0  0  0  0
  190.2170  177.1090  140.2050 C   0  0  0  0  0  0  0  0  0  0  0  0
  188.2370  177.1100  144.5580 N   0  0  0  0  0  2  0  0  0  0  0  0
  188.5810  178.1320  148.6610 C   0  0  0  0  0  3  0  0  0  0  0  0
  187.2260  177.9000  146.6660 C   0  0  0  0  0  3  0  0  0  0  0  0
  189.7010  177.6990  147.9490 C   0  0  0  0  0  3  0  0  0  0  0  0
  190.8090  176.9000  145.8690 C   0  0  0  0  0  1  0  0  0  0  0  0
  188.3500  177.4660  145.9420 C   0  0  0  0  0  0  0  0  0  0  0  0
  189.5920  177.3640  146.5940 C   0  0  0  0  0  0  0  0  0  0  0  0
  187.3430  178.2340  148.0200 C   0  0  0  0  0  3  0  0  0  0  0  0
  2  3  1  0  0  0  0
  2  1  1  0  0  0  0
  2 25  1  0  0  0  0
  3  1  1  0  0  0  0
  4 23  1  6  0  0  0
  4 10  1  0  0  0  0
  4  6  1  0  0  0  0
  7  6  1  6  0  0  0
  7  8  1  0  0  0  0
  8  9  1  0  0  0  0
  9  5  1  6  0  0  0
  9  2  1  0  0  0  0
 10 13  1  0  0  0  0
 11 16  1  0  0  0  0
 11 15  1  0  0  0  0
 12  7  1  0  0  0  0
 12  5  1  0  0  0  0
 13 12  1  0  0  0  0
 13 21  1  0  0  0  0
 14 15  1  0  0  0  0
 15  4  1  0  0  0  0
 16 19  1  0  0  0  0
 16 10  1  0  0  0  0
 18 19  2  0  0  0  0
 19 17  1  0  0  0  0
 20 21  1  0  0  0  0
 22 23  1  0  0  0  0
 24 26  1  0  0  0  0
 25 24  2  0  0  0  0
 27 28  1  0  0  0  0
 27 26  1  0  0  0  0
 28 35  1  0  0  0  0
 29 28  1  0  0  0  0
 30 29  1  0  0  0  0
 31 30  1  0  0  0  0
 31 32  1  0  0  0  0
 33 34  3  0  0  0  0
 34 31  1  0  0  0  0
 35 40  1  0  0  0  0
 37 42  2  0  0  0  0
 38 36  2  0  0  0  0
 39 41  1  0  0  0  0
 40 41  2  0  0  0  0
 40 37  1  0  0  0  0
 41 38  1  0  0  0  0
 42 36  1  0  0  0  0
M  END
>  <MODEL>
4

>  <REMARK>
 VINA RESULT:      -7.3      2.067      5.407
  Name = 
  14 active torsions:
  status: ('A' for Active; 'I' for Inactive)
    1  A    between atoms: C_1  and  O_41
    2  A    between atoms: C_3  and  C_14
    3  A    between atoms: C_3  and  C_20
    4  A    between atoms: C_6  and  C_29
    5  A    between atoms: C_6  and  C_40
    6  A    between atoms: C_9  and  C_13
    7  A    between atoms: C_9  and  C_17
    8  A    between atoms: C_17  and  C_34
    9  A    between atoms: N_18  and  C_29
   10  A    between atoms: N_18  and  C_34
   11  A    between atoms: C_24  and  C_37
   12  A    between atoms: C_28  and  C_31
   13  A    between atoms: C_32  and  N_35
   14  A    between atoms: C_34  and  N_35
                            x       y       z     vdW  Elec       q    Type
                         _______ _______ _______ _____ _____    ______ ____

>  <TORSDO>
F 14

$$$$
=
 OpenBabel11062413363D

 42 46  0  0  1  0  0  0  0  0999 V2000
  181.8350  178.9030  140.3340 C   0  0  0  0  0  2  0  0  0  0  0  0
  183.1340  178.2010  140.0090 C   0  0  0  0  0  0  0  0  0  0  0  0
  181.8790  177.3860  140.2100 C   0  0  0  0  0  2  0  0  0  0  0  0
  187.1560  176.3930  136.0310 C   0  0  2  0  0  0  0  0  0  0  0  0
  183.3090  177.0050  137.7870 C   0  0  0  0  0  2  0  0  0  0  0  0
  187.0140  177.4590  137.1570 C   0  0  0  0  0  2  0  0  0  0  0  0
  185.6880  177.3030  137.9270 C   0  0  1  0  0  3  0  0  0  0  0  0
  185.0950  178.5850  138.4490 C   0  0  0  0  0  2  0  0  0  0  0  0
  183.5910  178.3040  138.5510 C   0  0  2  0  0  3  0  0  0  0  0  0
  186.4460  175.1150  136.4790 C   0  0  1  0  0  3  0  0  0  0  0  0
  188.4020  174.4530  135.2470 C   0  0  0  0  0  2  0  0  0  0  0  0
  184.5970  176.7250  137.0510 C   0  0  1  0  0  3  0  0  0  0  0  0
  184.9110  175.2770  136.6080 C   0  0  2  0  0  3  0  0  0  0  0  0
  189.3640  176.6440  135.0110 O   0  0  0  0  0  1  0  0  0  0  0  0
  188.5750  175.8500  135.8450 C   0  0  1  0  0  3  0  0  0  0  0  0
  186.9750  174.0120  135.5840 C   0  0  1  0  0  3  0  0  0  0  0  0
  186.1750  171.6640  135.8200 O   0  0  0  0  0  0  0  0  0  0  0  0
  187.7030  172.5060  137.3030 O   0  0  0  0  0  1  0  0  0  0  0  0
  186.9810  172.6920  136.2870 C   0  0  0  0  0  0  0  0  0  0  0  0
  183.2010  173.6140  136.9770 O   0  0  0  0  0  1  0  0  0  0  0  0
  184.3260  174.2140  137.5420 C   0  0  0  0  0  2  0  0  0  0  0  0
  186.7950  178.1850  134.5940 C   0  0  0  0  0  1  0  0  0  0  0  0
  186.5730  176.8140  134.8000 O   0  0  0  0  0  0  0  0  0  0  0  0
  183.7610  178.5000  142.3700 C   0  0  0  0  0  3  0  0  0  0  0  0
  184.1080  178.1120  141.1460 C   0  0  0  0  0  3  0  0  0  0  0  0
  184.7210  178.4070  143.5080 C   0  0  0  0  0  2  0  0  0  0  0  0
  186.1280  178.7110  143.0200 C   0  0  0  0  0  2  0  0  0  0  0  0
  187.0620  177.5420  143.2950 C   0  0  2  0  0  3  0  0  0  0  0  0
  186.7440  176.9500  144.5840 N   0  0  0  0  0  2  0  0  0  0  0  0
  187.7460  177.4390  145.5220 C   0  0  0  0  0  2  0  0  0  0  0  0
  187.1710  177.6180  146.9230 C   0  0  2  0  0  3  0  0  0  0  0  0
  186.0680  178.6590  146.9340 C   0  0  0  0  0  1  0  0  0  0  0  0
  189.0790  178.2690  148.6790 C   0  0  0  0  0  3  0  0  0  0  0  0
  188.2180  177.9730  147.8870 C   0  0  0  0  0  0  0  0  0  0  0  0
  188.4440  178.0060  143.2830 N   0  0  0  0  0  2  0  0  0  0  0  0
  191.1850  177.2170  140.1440 C   0  0  0  0  0  3  0  0  0  0  0  0
  188.9130  177.5820  140.8980 C   0  0  0  0  0  3  0  0  0  0  0  0
  191.6430  177.3660  141.4550 C   0  0  0  0  0  3  0  0  0  0  0  0
  191.2670  177.7800  143.8790 C   0  0  0  0  0  1  0  0  0  0  0  0
  189.3650  177.7300  142.2200 C   0  0  0  0  0  0  0  0  0  0  0  0
  190.7410  177.6230  142.4940 C   0  0  0  0  0  0  0  0  0  0  0  0
  189.8200  177.3240  139.8640 C   0  0  0  0  0  3  0  0  0  0  0  0
  2  3  1  0  0  0  0
  2  1  1  0  0  0  0
  2 25  1  0  0  0  0
  3  1  1  0  0  0  0
  4 23  1  6  0  0  0
  4 10  1  0  0  0  0
  4  6  1  0  0  0  0
  7  6  1  6  0  0  0
  7  8  1  0  0  0  0
  8  9  1  0  0  0  0
  9  5  1  6  0  0  0
  9  2  1  0  0  0  0
 10 13  1  0  0  0  0
 11 16  1  0  0  0  0
 11 15  1  0  0  0  0
 12  5  1  0  0  0  0
 12  7  1  0  0  0  0
 13 12  1  0  0  0  0
 13 21  1  0  0  0  0
 14 15  1  0  0  0  0
 15  4  1  0  0  0  0
 16 19  1  0  0  0  0
 16 10  1  0  0  0  0
 17 19  2  0  0  0  0
 19 18  1  0  0  0  0
 20 21  1  0  0  0  0
 22 23  1  0  0  0  0
 24 26  1  0  0  0  0
 25 24  2  0  0  0  0
 27 28  1  0  0  0  0
 27 26  1  0  0  0  0
 28 29  1  0  0  0  0
 29 30  1  0  0  0  0
 30 31  1  0  0  0  0
 31 32  1  0  0  0  0
 31 34  1  0  0  0  0
 34 33  3  0  0  0  0
 35 28  1  0  0  0  0
 36 38  1  0  0  0  0
 37 40  2  0  0  0  0
 38 41  2  0  0  0  0
 40 41  1  0  0  0  0
 40 35  1  0  0  0  0
 41 39  1  0  0  0  0
 42 36  2  0  0  0  0
 42 37  1  0  0  0  0
M  END
>  <MODEL>
5

>  <REMARK>
 VINA RESULT:      -7.3      2.175      5.455
  Name = 
  14 active torsions:
  status: ('A' for Active; 'I' for Inactive)
    1  A    between atoms: C_1  and  O_41
    2  A    between atoms: C_3  and  C_14
    3  A    between atoms: C_3  and  C_20
    4  A    between atoms: C_6  and  C_29
    5  A    between atoms: C_6  and  C_40
    6  A    between atoms: C_9  and  C_13
    7  A    between atoms: C_9  and  C_17
    8  A    between atoms: C_17  and  C_34
    9  A    between atoms: N_18  and  C_29
   10  A    between atoms: N_18  and  C_34
   11  A    between atoms: C_24  and  C_37
   12  A    between atoms: C_28  and  C_31
   13  A    between atoms: C_32  and  N_35
   14  A    between atoms: C_34  and  N_35
                            x       y       z     vdW  Elec       q    Type
                         _______ _______ _______ _____ _____    ______ ____

>  <TORSDO>
F 14

$$$$
=
 OpenBabel11062413363D

 42 46  0  0  1  0  0  0  0  0999 V2000
  182.5810  178.9410  140.8140 C   0  0  0  0  0  2  0  0  0  0  0  0
  184.0080  178.4650  140.9600 C   0  0  0  0  0  0  0  0  0  0  0  0
  182.9600  177.5180  140.4280 C   0  0  0  0  0  2  0  0  0  0  0  0
  188.6990  177.0890  137.5870 C   0  0  2  0  0  0  0  0  0  0  0  0
  184.7220  178.3310  138.5370 C   0  0  0  0  0  2  0  0  0  0  0  0
  188.3940  177.5570  139.0410 C   0  0  0  0  0  2  0  0  0  0  0  0
  186.8780  177.6130  139.3150 C   0  0  1  0  0  3  0  0  0  0  0  0
  186.4410  178.6830  140.2830 C   0  0  0  0  0  2  0  0  0  0  0  0
  184.9860  178.9800  139.9000 C   0  0  2  0  0  3  0  0  0  0  0  0
  187.6020  176.1170  137.1490 C   0  0  1  0  0  3  0  0  0  0  0  0
  189.6720  175.3370  136.2040 C   0  0  0  0  0  2  0  0  0  0  0  0
  186.0920  177.9150  138.0570 C   0  0  1  0  0  3  0  0  0  0  0  0
  186.2100  176.7830  137.0110 C   0  0  2  0  0  3  0  0  0  0  0  0
  191.1230  176.8790  137.3420 O   0  0  0  0  0  1  0  0  0  0  0  0
  189.9220  176.1780  137.4560 C   0  0  1  0  0  3  0  0  0  0  0  0
  188.1620  175.3760  135.9510 C   0  0  1  0  0  3  0  0  0  0  0  0
  187.7660  173.1150  136.9190 O   0  0  0  0  0  1  0  0  0  0  0  0
  186.9980  173.6100  134.8190 O   0  0  0  0  0  0  0  0  0  0  0  0
  187.6050  173.9910  135.8560 C   0  0  0  0  0  0  0  0  0  0  0  0
  184.4140  175.6120  135.9020 O   0  0  0  0  0  1  0  0  0  0  0  0
  185.0940  175.7390  137.1140 C   0  0  0  0  0  2  0  0  0  0  0  0
  189.0780  179.3660  137.3050 C   0  0  0  0  0  1  0  0  0  0  0  0
  188.7290  178.1690  136.6580 O   0  0  0  0  0  0  0  0  0  0  0  0
  184.2170  179.0490  143.3420 C   0  0  0  0  0  3  0  0  0  0  0  0
  184.4370  178.1720  142.3670 C   0  0  0  0  0  3  0  0  0  0  0  0
  184.6340  178.7620  144.7450 C   0  0  0  0  0  2  0  0  0  0  0  0
  186.1440  178.8940  144.8700 C   0  0  0  0  0  2  0  0  0  0  0  0
  186.8410  177.6310  144.3870 C   0  0  2  0  0  3  0  0  0  0  0  0
  187.3570  176.8870  145.5240 N   0  0  0  0  0  2  0  0  0  0  0  0
  187.5480  177.8540  146.5980 C   0  0  0  0  0  2  0  0  0  0  0  0
  188.3040  177.2490  147.7760 C   0  0  2  0  0  3  0  0  0  0  0  0
  188.2850  178.1790  148.9750 C   0  0  0  0  0  1  0  0  0  0  0  0
  190.8210  176.6500  147.1040 C   0  0  0  0  0  3  0  0  0  0  0  0
  189.6850  176.9180  147.4080 C   0  0  0  0  0  0  0  0  0  0  0  0
  187.9290  177.9870  143.4840 N   0  0  0  0  0  2  0  0  0  0  0  0
  191.6510  175.9590  143.3310 C   0  0  0  0  0  3  0  0  0  0  0  0
  189.2410  175.9360  143.0890 C   0  0  0  0  0  3  0  0  0  0  0  0
  191.6020  177.3120  143.6770 C   0  0  0  0  0  3  0  0  0  0  0  0
  190.3630  179.4270  144.1000 C   0  0  0  0  0  1  0  0  0  0  0  0
  189.1830  177.2950  143.4400 C   0  0  0  0  0  0  0  0  0  0  0  0
  190.3750  177.9830  143.7320 C   0  0  0  0  0  0  0  0  0  0  0  0
  190.4710  175.2700  143.0380 C   0  0  0  0  0  3  0  0  0  0  0  0
  1  2  1  0  0  0  0
  2 25  1  0  0  0  0
  3  1  1  0  0  0  0
  3  2  1  0  0  0  0
  4 23  1  6  0  0  0
  4  6  1  0  0  0  0
  7  6  1  6  0  0  0
  7  8  1  0  0  0  0
  9  5  1  6  0  0  0
  9  8  1  0  0  0  0
  9  2  1  0  0  0  0
 10  4  1  0  0  0  0
 11 15  1  0  0  0  0
 12  5  1  0  0  0  0
 12  7  1  0  0  0  0
 13 21  1  0  0  0  0
 13 10  1  0  0  0  0
 13 12  1  0  0  0  0
 14 15  1  0  0  0  0
 15  4  1  0  0  0  0
 16 11  1  0  0  0  0
 16 10  1  0  0  0  0
 18 19  2  0  0  0  0
 19 16  1  0  0  0  0
 19 17  1  0  0  0  0
 20 21  1  0  0  0  0
 23 22  1  0  0  0  0
 24 26  1  0  0  0  0
 25 24  2  0  0  0  0
 26 27  1  0  0  0  0
 28 27  1  0  0  0  0
 28 29  1  0  0  0  0
 29 30  1  0  0  0  0
 30 31  1  0  0  0  0
 31 32  1  0  0  0  0
 33 34  3  0  0  0  0
 34 31  1  0  0  0  0
 35 28  1  0  0  0  0
 36 38  1  0  0  0  0
 37 40  2  0  0  0  0
 38 41  2  0  0  0  0
 40 35  1  0  0  0  0
 40 41  1  0  0  0  0
 41 39  1  0  0  0  0
 42 37  1  0  0  0  0
 42 36  2  0  0  0  0
M  END
>  <MODEL>
6

>  <REMARK>
 VINA RESULT:      -7.2      2.255      5.544
  Name = 
  14 active torsions:
  status: ('A' for Active; 'I' for Inactive)
    1  A    between atoms: C_1  and  O_41
    2  A    between atoms: C_3  and  C_14
    3  A    between atoms: C_3  and  C_20
    4  A    between atoms: C_6  and  C_29
    5  A    between atoms: C_6  and  C_40
    6  A    between atoms: C_9  and  C_13
    7  A    between atoms: C_9  and  C_17
    8  A    between atoms: C_17  and  C_34
    9  A    between atoms: N_18  and  C_29
   10  A    between atoms: N_18  and  C_34
   11  A    between atoms: C_24  and  C_37
   12  A    between atoms: C_28  and  C_31
   13  A    between atoms: C_32  and  N_35
   14  A    between atoms: C_34  and  N_35
                            x       y       z     vdW  Elec       q    Type
                         _______ _______ _______ _____ _____    ______ ____

>  <TORSDO>
F 14

$$$$
=
 OpenBabel11062413363D

 42 46  0  0  1  0  0  0  0  0999 V2000
  187.1520  175.9900  136.8680 C   0  0  0  0  0  2  0  0  0  0  0  0
  186.4530  177.2450  137.3380 C   0  0  0  0  0  0  0  0  0  0  0  0
  187.6240  177.3570  136.3920 C   0  0  0  0  0  2  0  0  0  0  0  0
  180.8230  175.4150  136.8640 C   0  0  2  0  0  0  0  0  0  0  0  0
  184.0830  178.0420  137.7200 C   0  0  0  0  0  2  0  0  0  0  0  0
  182.2200  175.0880  136.2580 C   0  0  0  0  0  2  0  0  0  0  0  0
  183.3410  175.8940  136.9430 C   0  0  1  0  0  3  0  0  0  0  0  0
  184.5020  176.2600  136.0550 C   0  0  0  0  0  2  0  0  0  0  0  0
  185.0940  177.5240  136.6910 C   0  0  2  0  0  3  0  0  0  0  0  0
  181.0030  175.7520  138.3450 C   0  0  1  0  0  3  0  0  0  0  0  0
  178.9310  174.5500  138.1290 C   0  0  0  0  0  2  0  0  0  0  0  0
  182.8400  177.2260  137.4580 C   0  0  1  0  0  3  0  0  0  0  0  0
  181.7970  177.0590  138.5870 C   0  0  2  0  0  3  0  0  0  0  0  0
  179.1700  173.9520  135.8120 O   0  0  0  0  0  1  0  0  0  0  0  0
  179.8850  174.2110  136.9820 C   0  0  1  0  0  3  0  0  0  0  0  0
  179.6260  175.6260  138.9670 C   0  0  1  0  0  3  0  0  0  0  0  0
  179.3030  176.0890  141.3940 O   0  0  0  0  0  1  0  0  0  0  0  0
  180.1520  174.0720  140.7170 O   0  0  0  0  0  0  0  0  0  0  0  0
  179.7100  175.2090  140.4010 C   0  0  0  0  0  0  0  0  0  0  0  0
  181.9090  178.1340  140.7450 O   0  0  0  0  0  1  0  0  0  0  0  0
  182.4110  177.0740  139.9900 C   0  0  0  0  0  2  0  0  0  0  0  0
  180.5460  176.5810  134.8720 C   0  0  0  0  0  1  0  0  0  0  0  0
  180.1970  176.5280  136.2310 O   0  0  0  0  0  0  0  0  0  0  0  0
  187.9940  178.0330  139.0880 C   0  0  0  0  0  3  0  0  0  0  0  0
  186.7660  177.6550  138.7470 C   0  0  0  0  0  3  0  0  0  0  0  0
  188.3120  178.4480  140.4850 C   0  0  0  0  0  2  0  0  0  0  0  0
  189.1570  177.3790  141.1600 C   0  0  0  0  0  2  0  0  0  0  0  0
  188.7420  177.1970  142.6130 C   0  0  2  0  0  3  0  0  0  0  0  0
  189.3330  175.9800  143.1450 N   0  0  0  0  0  2  0  0  0  0  0  0
  190.6350  176.3550  143.6820 C   0  0  0  0  0  2  0  0  0  0  0  0
  190.5480  177.5970  144.5620 C   0  0  2  0  0  3  0  0  0  0  0  0
  191.7490  178.5020  144.3550 C   0  0  0  0  0  1  0  0  0  0  0  0
  190.3080  176.9420  147.1430 C   0  0  0  0  0  3  0  0  0  0  0  0
  190.4180  177.2370  145.9780 C   0  0  0  0  0  0  0  0  0  0  0  0
  187.2890  177.1290  142.7020 N   0  0  0  0  0  2  0  0  0  0  0  0
  185.0600  178.8280  145.8870 C   0  0  0  0  0  3  0  0  0  0  0  0
  186.8840  177.4320  145.1170 C   0  0  0  0  0  3  0  0  0  0  0  0
  184.7070  179.0950  144.5620 C   0  0  0  0  0  3  0  0  0  0  0  0
  185.0350  178.8450  142.1080 C   0  0  0  0  0  1  0  0  0  0  0  0
  186.5330  177.6930  143.7820 C   0  0  0  0  0  0  0  0  0  0  0  0
  185.4380  178.5340  143.5090 C   0  0  0  0  0  0  0  0  0  0  0  0
  186.1470  177.9960  146.1650 C   0  0  0  0  0  3  0  0  0  0  0  0
  1  2  1  0  0  0  0
  2 25  1  0  0  0  0
  3  1  1  0  0  0  0
  3  2  1  0  0  0  0
  4 23  1  6  0  0  0
  4 15  1  0  0  0  0
  4 10  1  0  0  0  0
  6  4  1  0  0  0  0
  6  7  1  0  0  0  0
  7  8  1  6  0  0  0
  7 12  1  0  0  0  0
  9  8  1  1  0  0  0
  9  2  1  0  0  0  0
  9  5  1  0  0  0  0
 10 13  1  0  0  0  0
 10 16  1  0  0  0  0
 11 16  1  0  0  0  0
 12  5  1  0  0  0  0
 12 13  1  0  0  0  0
 13 21  1  0  0  0  0
 14 15  1  0  0  0  0
 15 11  1  0  0  0  0
 16 19  1  0  0  0  0
 19 18  2  0  0  0  0
 19 17  1  0  0  0  0
 21 20  1  0  0  0  0
 22 23  1  0  0  0  0
 24 26  1  0  0  0  0
 25 24  2  0  0  0  0
 26 27  1  0  0  0  0
 27 28  1  0  0  0  0
 28 35  1  0  0  0  0
 28 29  1  0  0  0  0
 29 30  1  0  0  0  0
 30 31  1  0  0  0  0
 31 34  1  0  0  0  0
 32 31  1  0  0  0  0
 34 33  3  0  0  0  0
 35 40  1  0  0  0  0
 36 42  1  0  0  0  0
 37 42  2  0  0  0  0
 38 36  2  0  0  0  0
 39 41  1  0  0  0  0
 40 37  1  0  0  0  0
 41 40  2  0  0  0  0
 41 38  1  0  0  0  0
M  END
>  <MODEL>
7

>  <REMARK>
 VINA RESULT:      -7.1      1.806      4.315
  Name = 
  14 active torsions:
  status: ('A' for Active; 'I' for Inactive)
    1  A    between atoms: C_1  and  O_41
    2  A    between atoms: C_3  and  C_14
    3  A    between atoms: C_3  and  C_20
    4  A    between atoms: C_6  and  C_29
    5  A    between atoms: C_6  and  C_40
    6  A    between atoms: C_9  and  C_13
    7  A    between atoms: C_9  and  C_17
    8  A    between atoms: C_17  and  C_34
    9  A    between atoms: N_18  and  C_29
   10  A    between atoms: N_18  and  C_34
   11  A    between atoms: C_24  and  C_37
   12  A    between atoms: C_28  and  C_31
   13  A    between atoms: C_32  and  N_35
   14  A    between atoms: C_34  and  N_35
                            x       y       z     vdW  Elec       q    Type
                         _______ _______ _______ _____ _____    ______ ____

>  <TORSDO>
F 14

$$$$
=
 OpenBabel11062413363D

 42 46  0  0  1  0  0  0  0  0999 V2000
  189.1070  176.8850  140.0420 C   0  0  0  0  0  2  0  0  0  0  0  0
  190.3620  177.1630  140.8370 C   0  0  0  0  0  0  0  0  0  0  0  0
  189.2950  178.2260  140.7390 C   0  0  0  0  0  2  0  0  0  0  0  0
  189.2000  177.7130  146.6360 C   0  0  2  0  0  0  0  0  0  0  0  0
  189.0520  176.0590  142.6980 C   0  0  0  0  0  2  0  0  0  0  0  0
  190.2970  178.1310  145.6120 C   0  0  0  0  0  2  0  0  0  0  0  0
  189.9040  177.7550  144.1700 C   0  0  1  0  0  3  0  0  0  0  0  0
  191.0550  177.3990  143.2650 C   0  0  0  0  0  2  0  0  0  0  0  0
  190.4420  176.4760  142.2030 C   0  0  2  0  0  3  0  0  0  0  0  0
  187.8350  177.8080  145.9510 C   0  0  1  0  0  3  0  0  0  0  0  0
  187.5420  178.5000  148.2360 C   0  0  0  0  0  2  0  0  0  0  0  0
  189.0160  176.5300  144.1330 C   0  0  1  0  0  3  0  0  0  0  0  0
  187.6480  176.7810  144.8070 C   0  0  2  0  0  3  0  0  0  0  0  0
  189.8680  178.5160  148.8460 O   0  0  0  0  0  1  0  0  0  0  0  0
  188.9870  178.7060  147.7800 C   0  0  1  0  0  3  0  0  0  0  0  0
  186.8130  177.8270  147.0700 C   0  0  1  0  0  3  0  0  0  0  0  0
  184.3600  177.9750  146.6540 O   0  0  0  0  0  1  0  0  0  0  0  0
  185.6810  179.8260  146.3820 O   0  0  0  0  0  0  0  0  0  0  0  0
  185.5960  178.6060  146.6850 C   0  0  0  0  0  0  0  0  0  0  0  0
  186.8880  178.4780  143.2690 O   0  0  0  0  0  1  0  0  0  0  0  0
  186.5630  177.2430  143.8310 C   0  0  0  0  0  2  0  0  0  0  0  0
  190.7270  176.0900  147.3000 C   0  0  0  0  0  1  0  0  0  0  0  0
  189.3660  176.3770  147.1040 O   0  0  0  0  0  0  0  0  0  0  0  0
  191.9620  176.6160  139.0480 C   0  0  0  0  0  3  0  0  0  0  0  0
  191.5840  177.4470  140.0140 C   0  0  0  0  0  3  0  0  0  0  0  0
  193.1710  176.8950  138.2200 C   0  0  0  0  0  2  0  0  0  0  0  0
  193.2680  175.8790  137.0930 C   0  0  0  0  0  2  0  0  0  0  0  0
  192.2550  174.7610  137.2820 C   0  0  2  0  0  3  0  0  0  0  0  0
  192.9320  173.4750  137.2690 N   0  0  0  0  0  2  0  0  0  0  0  0
  194.3520  173.7570  137.0990 C   0  0  0  0  0  2  0  0  0  0  0  0
  195.1950  173.0890  138.1800 C   0  0  2  0  0  3  0  0  0  0  0  0
  195.8240  174.1190  139.0990 C   0  0  0  0  0  1  0  0  0  0  0  0
  197.0800  171.5270  137.1060 C   0  0  0  0  0  3  0  0  0  0  0  0
  196.2290  172.2300  137.5920 C   0  0  0  0  0  0  0  0  0  0  0  0
  191.2610  174.8160  136.2170 N   0  0  0  0  0  2  0  0  0  0  0  0
  187.0930  174.4270  136.9000 C   0  0  0  0  0  3  0  0  0  0  0  0
  189.2750  173.4110  136.6300 C   0  0  0  0  0  3  0  0  0  0  0  0
  187.6590  175.6900  136.7150 C   0  0  0  0  0  3  0  0  0  0  0  0
  189.6030  177.1860  136.2970 C   0  0  0  0  0  1  0  0  0  0  0  0
  189.8520  174.6780  136.4380 C   0  0  0  0  0  0  0  0  0  0  0  0
  189.0340  175.8210  136.4860 C   0  0  0  0  0  0  0  0  0  0  0  0
  187.9000  173.2870  136.8570 C   0  0  0  0  0  3  0  0  0  0  0  0
  1  3  1  0  0  0  0
  1  2  1  0  0  0  0
  3  2  1  0  0  0  0
  4 23  1  1  0  0  0
  4 15  1  0  0  0  0
  5 12  1  0  0  0  0
  6  4  1  0  0  0  0
  7  8  1  6  0  0  0
  7  6  1  0  0  0  0
  9  2  1  6  0  0  0
  9  5  1  0  0  0  0
  9  8  1  0  0  0  0
 10  4  1  0  0  0  0
 10 16  1  0  0  0  0
 12  7  1  0  0  0  0
 12 13  1  0  0  0  0
 13 10  1  0  0  0  0
 15 11  1  0  0  0  0
 15 14  1  0  0  0  0
 16 11  1  0  0  0  0
 17 19  1  0  0  0  0
 18 19  2  0  0  0  0
 19 16  1  0  0  0  0
 20 21  1  0  0  0  0
 21 13  1  0  0  0  0
 23 22  1  0  0  0  0
 24 25  2  0  0  0  0
 25  2  1  0  0  0  0
 26 24  1  0  0  0  0
 27 28  1  0  0  0  0
 27 26  1  0  0  0  0
 29 28  1  0  0  0  0
 30 29  1  0  0  0  0
 30 31  1  0  0  0  0
 31 32  1  0  0  0  0
 33 34  3  0  0  0  0
 34 31  1  0  0  0  0
 35 40  1  0  0  0  0
 35 28  1  0  0  0  0
 37 42  2  0  0  0  0
 38 36  2  0  0  0  0
 39 41  1  0  0  0  0
 40 41  2  0  0  0  0
 40 37  1  0  0  0  0
 41 38  1  0  0  0  0
 42 36  1  0  0  0  0
M  END
>  <MODEL>
8

>  <REMARK>
 VINA RESULT:      -6.8      4.294      9.850
  Name = 
  14 active torsions:
  status: ('A' for Active; 'I' for Inactive)
    1  A    between atoms: C_1  and  O_41
    2  A    between atoms: C_3  and  C_14
    3  A    between atoms: C_3  and  C_20
    4  A    between atoms: C_6  and  C_29
    5  A    between atoms: C_6  and  C_40
    6  A    between atoms: C_9  and  C_13
    7  A    between atoms: C_9  and  C_17
    8  A    between atoms: C_17  and  C_34
    9  A    between atoms: N_18  and  C_29
   10  A    between atoms: N_18  and  C_34
   11  A    between atoms: C_24  and  C_37
   12  A    between atoms: C_28  and  C_31
   13  A    between atoms: C_32  and  N_35
   14  A    between atoms: C_34  and  N_35
                            x       y       z     vdW  Elec       q    Type
                         _______ _______ _______ _____ _____    ______ ____

>  <TORSDO>
F 14

$$$$
=
 OpenBabel11062413363D

 42 46  0  0  1  0  0  0  0  0999 V2000
  191.8700  177.5100  140.2710 C   0  0  0  0  0  2  0  0  0  0  0  0
  190.5240  177.1010  140.8260 C   0  0  0  0  0  0  0  0  0  0  0  0
  191.1530  176.2830  139.7240 C   0  0  0  0  0  2  0  0  0  0  0  0
  189.1520  177.7170  146.5710 C   0  0  2  0  0  0  0  0  0  0  0  0
  189.1500  176.0160  142.6510 C   0  0  0  0  0  2  0  0  0  0  0  0
  190.2840  178.1260  145.5830 C   0  0  0  0  0  2  0  0  0  0  0  0
  189.9450  177.7310  144.1320 C   0  0  1  0  0  3  0  0  0  0  0  0
  191.1280  177.3680  143.2740 C   0  0  0  0  0  2  0  0  0  0  0  0
  190.5560  176.4310  142.2020 C   0  0  2  0  0  3  0  0  0  0  0  0
  187.8130  177.8000  145.8370 C   0  0  1  0  0  3  0  0  0  0  0  0
  187.4350  178.5190  148.1010 C   0  0  0  0  0  2  0  0  0  0  0  0
  189.0610  176.5040  144.0780 C   0  0  1  0  0  3  0  0  0  0  0  0
  187.6690  176.7590  144.7000 C   0  0  2  0  0  3  0  0  0  0  0  0
  189.7370  178.5490  148.7950 O   0  0  0  0  0  1  0  0  0  0  0  0
  188.8960  178.7240  147.6960 C   0  0  1  0  0  3  0  0  0  0  0  0
  186.7500  177.8300  146.9180 C   0  0  1  0  0  3  0  0  0  0  0  0
  185.7050  179.7140  145.6660 O   0  0  0  0  0  0  0  0  0  0  0  0
  184.3910  178.2570  146.8480 O   0  0  0  0  0  1  0  0  0  0  0  0
  185.5460  178.6010  146.4800 C   0  0  0  0  0  0  0  0  0  0  0  0
  187.0400  178.3480  142.9950 O   0  0  0  0  0  1  0  0  0  0  0  0
  186.6190  177.2070  143.6790 C   0  0  0  0  0  2  0  0  0  0  0  0
  190.6580  176.1060  147.3080 C   0  0  0  0  0  1  0  0  0  0  0  0
  189.3050  176.3880  147.0620 O   0  0  0  0  0  0  0  0  0  0  0  0
  188.4800  177.4750  139.5070 C   0  0  0  0  0  3  0  0  0  0  0  0
  189.3700  177.9460  140.3750 C   0  0  0  0  0  3  0  0  0  0  0  0
  187.3250  178.3060  139.0600 C   0  0  0  0  0  2  0  0  0  0  0  0
  187.0160  178.0140  137.6000 C   0  0  0  0  0  2  0  0  0  0  0  0
  186.0100  176.8800  137.4740 C   0  0  2  0  0  3  0  0  0  0  0  0
  186.3390  176.0540  136.3250 N   0  0  0  0  0  2  0  0  0  0  0  0
  187.7740  175.8060  136.3920 C   0  0  0  0  0  2  0  0  0  0  0  0
  188.1100  174.3460  136.1070 C   0  0  2  0  0  3  0  0  0  0  0  0
  187.1110  173.4150  136.7690 C   0  0  0  0  0  1  0  0  0  0  0  0
  190.5960  173.7570  136.8920 C   0  0  0  0  0  3  0  0  0  0  0  0
  189.4740  174.0210  136.5370 C   0  0  0  0  0  0  0  0  0  0  0  0
  184.6680  177.4300  137.3290 N   0  0  0  0  0  2  0  0  0  0  0  0
  181.9410  177.9130  140.5430 C   0  0  0  0  0  3  0  0  0  0  0  0
  183.6270  178.8370  139.0690 C   0  0  0  0  0  3  0  0  0  0  0  0
  182.0600  176.6780  139.9020 C   0  0  0  0  0  3  0  0  0  0  0  0
  183.0570  175.1820  138.1810 C   0  0  0  0  0  1  0  0  0  0  0  0
  183.7550  177.5960  138.4220 C   0  0  0  0  0  0  0  0  0  0  0  0
  182.9610  176.5140  138.8440 C   0  0  0  0  0  0  0  0  0  0  0  0
  182.7250  178.9930  140.1280 C   0  0  0  0  0  3  0  0  0  0  0  0
  1  2  1  0  0  0  0
  3  1  1  0  0  0  0
  3  2  1  0  0  0  0
  4 23  1  1  0  0  0
  4 15  1  0  0  0  0
  5 12  1  0  0  0  0
  6  4  1  0  0  0  0
  7  8  1  6  0  0  0
  7  6  1  0  0  0  0
  9  2  1  6  0  0  0
  9  5  1  0  0  0  0
  9  8  1  0  0  0  0
 10  4  1  0  0  0  0
 10 16  1  0  0  0  0
 12  7  1  0  0  0  0
 12 13  1  0  0  0  0
 13 10  1  0  0  0  0
 15 11  1  0  0  0  0
 15 14  1  0  0  0  0
 16 11  1  0  0  0  0
 17 19  2  0  0  0  0
 19 18  1  0  0  0  0
 19 16  1  0  0  0  0
 20 21  1  0  0  0  0
 21 13  1  0  0  0  0
 23 22  1  0  0  0  0
 24 25  2  0  0  0  0
 25  2  1  0  0  0  0
 26 24  1  0  0  0  0
 27 26  1  0  0  0  0
 28 27  1  0  0  0  0
 29 30  1  0  0  0  0
 29 28  1  0  0  0  0
 31 30  1  0  0  0  0
 31 34  1  0  0  0  0
 31 32  1  0  0  0  0
 34 33  3  0  0  0  0
 35 28  1  0  0  0  0
 35 40  1  0  0  0  0
 37 42  2  0  0  0  0
 38 36  2  0  0  0  0
 39 41  1  0  0  0  0
 40 41  2  0  0  0  0
 40 37  1  0  0  0  0
 41 38  1  0  0  0  0
 42 36  1  0  0  0  0
M  END
>  <MODEL>
9

>  <REMARK>
 VINA RESULT:      -6.7      3.458      8.953
  Name = 
  14 active torsions:
  status: ('A' for Active; 'I' for Inactive)
    1  A    between atoms: C_1  and  O_41
    2  A    between atoms: C_3  and  C_14
    3  A    between atoms: C_3  and  C_20
    4  A    between atoms: C_6  and  C_29
    5  A    between atoms: C_6  and  C_40
    6  A    between atoms: C_9  and  C_13
    7  A    between atoms: C_9  and  C_17
    8  A    between atoms: C_17  and  C_34
    9  A    between atoms: N_18  and  C_29
   10  A    between atoms: N_18  and  C_34
   11  A    between atoms: C_24  and  C_37
   12  A    between atoms: C_28  and  C_31
   13  A    between atoms: C_32  and  N_35
   14  A    between atoms: C_34  and  N_35
                            x       y       z     vdW  Elec       q    Type
                         _______ _______ _______ _____ _____    ______ ____

>  <TORSDO>
F 14

$$$$
