=
 OpenBabel11062417023D

 26 30  0  0  1  0  0  0  0  0999 V2000
  189.9160  177.8780  140.0450 C   0  0  0  0  0  2  0  0  0  0  0  0
  187.9190  178.5530  141.0740 C   0  0  0  0  0  2  0  0  0  0  0  0
  189.5630  176.9470  144.2510 C   0  0  2  0  0  3  0  0  0  0  0  0
  191.2100  175.2710  143.9370 O   0  0  0  0  0  0  0  0  0  0  0  0
  190.5750  176.1700  143.4140 C   0  0  0  0  0  0  0  0  0  0  0  0
  188.5050  177.7770  143.4680 C   0  0  1  0  0  3  0  0  0  0  0  0
  190.0230  177.6780  141.5320 C   0  0  1  0  0  3  0  0  0  0  0  0
  188.6030  177.5350  141.9550 C   0  0  2  0  0  3  0  0  0  0  0  0
  190.7920  176.4420  141.9460 C   0  0  0  0  0  2  0  0  0  0  0  0
  188.6560  178.5840  139.8090 N   0  0  0  0  0  2  0  0  0  0  0  0
  184.8160  178.0890  143.2160 C   0  0  0  0  0  0  0  0  0  0  0  0
  182.3950  179.5700  143.6870 C   0  0  0  0  0  2  0  0  0  0  0  0
  187.0910  177.4740  143.9980 C   0  0  1  0  0  3  0  0  0  0  0  0
  184.4760  178.5450  144.5800 C   0  0  0  0  0  0  0  0  0  0  0  0
  185.4280  178.6570  145.5040 C   0  0  0  0  0  3  0  0  0  0  0  0
  183.7840  178.1690  142.1710 C   0  0  0  0  0  3  0  0  0  0  0  0
  183.0520  178.8870  144.8930 C   0  0  0  0  0  2  0  0  0  0  0  0
  186.7720  178.2880  145.1790 N   0  0  0  0  0  2  0  0  0  0  0  0
  182.6370  178.8160  142.4020 C   0  0  0  0  0  3  0  0  0  0  0  0
  186.0370  177.6350  142.9280 C   0  0  0  0  0  3  0  0  0  0  0  0
  190.2690  177.8570  145.2490 C   0  0  0  0  0  2  0  0  0  0  0  0
  191.2410  176.8170  147.3260 C   0  0  0  0  0  2  0  0  0  0  0  0
  190.1230  176.0340  146.9640 O   0  0  0  0  0  0  0  0  0  0  0  0
  190.0520  177.4110  146.6910 C   0  0  2  0  0  0  0  0  0  0  0  0
  188.2310  177.3490  148.0180 C   0  0  0  0  0  1  0  0  0  0  0  0
  189.2770  178.1720  147.5820 O   0  0  0  0  0  0  0  0  0  0  0  0
  3 21  1  1  0  0  0
  5  4  2  0  0  0  0
  5  3  1  0  0  0  0
  6 13  1  1  0  0  0
  6  3  1  0  0  0  0
  7  1  1  6  0  0  0
  7  9  1  0  0  0  0
  7  8  1  0  0  0  0
  8  2  1  6  0  0  0
  8  6  1  0  0  0  0
  9  5  1  0  0  0  0
 10  1  1  0  0  0  0
 10  2  1  0  0  0  0
 11 14  1  0  0  0  0
 12 17  1  0  0  0  0
 13 20  1  6  0  0  0
 13 18  1  0  0  0  0
 14 17  1  0  0  0  0
 14 15  2  0  0  0  0
 16 19  2  0  0  0  0
 16 11  1  0  0  0  0
 18 15  1  0  0  0  0
 19 12  1  0  0  0  0
 20 11  2  0  0  0  0
 23 22  1  0  0  0  0
 24 21  1  6  0  0  0
 24 23  1  0  0  0  0
 24 22  1  0  0  0  0
 24 26  1  0  0  0  0
 26 25  1  0  0  0  0
M  END
>  <MODEL>
1

>  <REMARK>
 VINA RESULT:      -8.4      0.000      0.000
  Name = 
  4 active torsions:
  status: ('A' for Active; 'I' for Inactive)
    1  A    between atoms: O_5  and  C_18
    2  A    between atoms: C_7  and  C_14
    3  A    between atoms: C_10  and  C_19
    4  A    between atoms: C_14  and  C_18
                            x       y       z     vdW  Elec       q    Type
                         _______ _______ _______ _____ _____    ______ ____

>  <TORSDO>
F 4

$$$$
=
 OpenBabel11062417023D

 26 30  0  0  1  0  0  0  0  0999 V2000
  183.2260  178.6310  142.9950 C   0  0  0  0  0  2  0  0  0  0  0  0
  185.1320  177.8330  141.8850 C   0  0  0  0  0  2  0  0  0  0  0  0
  186.8020  178.3010  145.4030 C   0  0  2  0  0  3  0  0  0  0  0  0
  185.8430  179.8690  146.9010 O   0  0  0  0  0  0  0  0  0  0  0  0
  185.6780  179.2130  145.8850 C   0  0  0  0  0  0  0  0  0  0  0  0
  186.7190  177.8200  143.9240 C   0  0  1  0  0  3  0  0  0  0  0  0
  184.3210  178.3750  143.9960 C   0  0  1  0  0  3  0  0  0  0  0  0
  185.5580  178.4910  143.1760 C   0  0  2  0  0  3  0  0  0  0  0  0
  184.3810  179.3730  145.1310 C   0  0  0  0  0  2  0  0  0  0  0  0
  183.7070  178.1220  141.7120 N   0  0  0  0  0  2  0  0  0  0  0  0
  188.7410  178.0570  140.8220 C   0  0  0  0  0  0  0  0  0  0  0  0
  190.2420  176.7990  138.7160 C   0  0  0  0  0  2  0  0  0  0  0  0
  188.0630  178.0570  143.2110 C   0  0  1  0  0  3  0  0  0  0  0  0
  189.8650  177.1540  141.1470 C   0  0  0  0  0  0  0  0  0  0  0  0
  189.9410  176.5860  142.3480 C   0  0  0  0  0  3  0  0  0  0  0  0
  188.5790  178.5050  139.4310 C   0  0  0  0  0  3  0  0  0  0  0  0
  190.9000  176.8840  140.0980 C   0  0  0  0  0  2  0  0  0  0  0  0
  188.9520  176.8940  143.3370 N   0  0  0  0  0  2  0  0  0  0  0  0
  189.3090  177.9560  138.4540 C   0  0  0  0  0  3  0  0  0  0  0  0
  187.8760  178.4420  141.7630 C   0  0  0  0  0  3  0  0  0  0  0  0
  186.9440  177.0870  146.3130 C   0  0  0  0  0  2  0  0  0  0  0  0
  187.8210  177.4580  148.6430 C   0  0  0  0  0  2  0  0  0  0  0  0
  188.4150  178.4440  147.8240 O   0  0  0  0  0  0  0  0  0  0  0  0
  188.1550  177.1950  147.2330 C   0  0  2  0  0  0  0  0  0  0  0  0
  190.2790  177.1060  146.4830 C   0  0  0  0  0  1  0  0  0  0  0  0
  189.2660  176.3480  147.0820 O   0  0  0  0  0  0  0  0  0  0  0  0
  3  5  1  0  0  0  0
  3 21  1  1  0  0  0
  5  4  2  0  0  0  0
  6 13  1  6  0  0  0
  6  3  1  0  0  0  0
  7  1  1  6  0  0  0
  7  9  1  0  0  0  0
  8  2  1  6  0  0  0
  8  6  1  0  0  0  0
  8  7  1  0  0  0  0
  9  5  1  0  0  0  0
 10  2  1  0  0  0  0
 10  1  1  0  0  0  0
 11 14  1  0  0  0  0
 11 20  2  0  0  0  0
 12 17  1  0  0  0  0
 13 20  1  6  0  0  0
 13 18  1  0  0  0  0
 14 15  2  0  0  0  0
 15 18  1  0  0  0  0
 16 11  1  0  0  0  0
 17 14  1  0  0  0  0
 19 12  1  0  0  0  0
 19 16  2  0  0  0  0
 23 22  1  0  0  0  0
 24 21  1  6  0  0  0
 24 23  1  0  0  0  0
 24 22  1  0  0  0  0
 25 26  1  0  0  0  0
 26 24  1  0  0  0  0
M  END
>  <MODEL>
2

>  <REMARK>
 VINA RESULT:      -8.2      1.706      5.386
  Name = 
  4 active torsions:
  status: ('A' for Active; 'I' for Inactive)
    1  A    between atoms: O_5  and  C_18
    2  A    between atoms: C_7  and  C_14
    3  A    between atoms: C_10  and  C_19
    4  A    between atoms: C_14  and  C_18
                            x       y       z     vdW  Elec       q    Type
                         _______ _______ _______ _____ _____    ______ ____

>  <TORSDO>
F 4

$$$$
=
 OpenBabel11062417023D

 26 30  0  0  1  0  0  0  0  0999 V2000
  185.2310  178.1640  146.3540 C   0  0  0  0  0  2  0  0  0  0  0  0
  186.4270  177.9260  144.3510 C   0  0  0  0  0  2  0  0  0  0  0  0
  189.4920  177.5700  146.7710 C   0  0  2  0  0  3  0  0  0  0  0  0
  189.3360  178.5380  148.9300 O   0  0  0  0  0  0  0  0  0  0  0  0
  188.7220  178.1800  147.9390 C   0  0  0  0  0  0  0  0  0  0  0  0
  188.7510  177.5170  145.4030 C   0  0  1  0  0  3  0  0  0  0  0  0
  186.6480  177.7600  146.6590 C   0  0  1  0  0  3  0  0  0  0  0  0
  187.3970  178.2380  145.4650 C   0  0  2  0  0  3  0  0  0  0  0  0
  187.2300  178.3990  147.9010 C   0  0  0  0  0  2  0  0  0  0  0  0
  185.0810  178.0920  144.9010 N   0  0  0  0  0  2  0  0  0  0  0  0
  189.6880  177.8040  141.8240 C   0  0  0  0  0  0  0  0  0  0  0  0
  191.0660  176.7890  139.5120 C   0  0  0  0  0  2  0  0  0  0  0  0
  189.6470  178.0930  144.2900 C   0  0  1  0  0  3  0  0  0  0  0  0
  191.1370  177.5210  141.8870 C   0  0  0  0  0  0  0  0  0  0  0  0
  191.7300  177.3260  143.0620 C   0  0  0  0  0  3  0  0  0  0  0  0
  189.0300  177.8150  140.5090 C   0  0  0  0  0  3  0  0  0  0  0  0
  191.9140  177.4460  140.6070 C   0  0  0  0  0  2  0  0  0  0  0  0
  190.9630  177.4390  144.2650 N   0  0  0  0  0  2  0  0  0  0  0  0
  189.6830  177.3880  139.4230 C   0  0  0  0  0  3  0  0  0  0  0  0
  188.9830  178.0250  142.9350 C   0  0  0  0  0  3  0  0  0  0  0  0
  189.9920  176.1730  147.1200 C   0  0  0  0  0  2  0  0  0  0  0  0
  192.3010  175.4200  146.4610 C   0  0  0  0  0  2  0  0  0  0  0  0
  192.0650  174.9170  147.7600 O   0  0  0  0  0  0  0  0  0  0  0  0
  191.4820  176.1560  147.4390 C   0  0  2  0  0  0  0  0  0  0  0  0
  192.6620  176.9240  149.2000 C   0  0  0  0  0  1  0  0  0  0  0  0
  192.1330  177.2890  147.9560 O   0  0  0  0  0  0  0  0  0  0  0  0
  2 10  1  0  0  0  0
  3 21  1  1  0  0  0
  3  5  1  0  0  0  0
  5  4  2  0  0  0  0
  6 13  1  6  0  0  0
  6  8  1  0  0  0  0
  6  3  1  0  0  0  0
  7  1  1  6  0  0  0
  7  9  1  0  0  0  0
  8  2  1  6  0  0  0
  8  7  1  0  0  0  0
  9  5  1  0  0  0  0
 10  1  1  0  0  0  0
 11 14  1  0  0  0  0
 11 20  2  0  0  0  0
 12 17  1  0  0  0  0
 13 20  1  6  0  0  0
 14 15  2  0  0  0  0
 15 18  1  0  0  0  0
 16 11  1  0  0  0  0
 17 14  1  0  0  0  0
 18 13  1  0  0  0  0
 19 12  1  0  0  0  0
 19 16  2  0  0  0  0
 22 24  1  0  0  0  0
 22 23  1  0  0  0  0
 24 21  1  6  0  0  0
 24 23  1  0  0  0  0
 24 26  1  0  0  0  0
 26 25  1  0  0  0  0
M  END
>  <MODEL>
3

>  <REMARK>
 VINA RESULT:      -7.9      2.262      5.537
  Name = 
  4 active torsions:
  status: ('A' for Active; 'I' for Inactive)
    1  A    between atoms: O_5  and  C_18
    2  A    between atoms: C_7  and  C_14
    3  A    between atoms: C_10  and  C_19
    4  A    between atoms: C_14  and  C_18
                            x       y       z     vdW  Elec       q    Type
                         _______ _______ _______ _____ _____    ______ ____

>  <TORSDO>
F 4

$$$$
=
 OpenBabel11062417023D

 26 30  0  0  1  0  0  0  0  0999 V2000
  189.3310  177.0910  147.2430 C   0  0  0  0  0  2  0  0  0  0  0  0
  187.2090  177.3850  146.2870 C   0  0  0  0  0  2  0  0  0  0  0  0
  189.2760  177.8200  142.9830 C   0  0  2  0  0  3  0  0  0  0  0  0
  191.5320  178.5280  143.1550 O   0  0  0  0  0  0  0  0  0  0  0  0
  190.5700  178.0720  143.7500 C   0  0  0  0  0  0  0  0  0  0  0  0
  187.9860  177.6410  143.8360 C   0  0  1  0  0  3  0  0  0  0  0  0
  189.4550  177.1250  145.7430 C   0  0  1  0  0  3  0  0  0  0  0  0
  188.2540  177.8990  145.3260 C   0  0  2  0  0  3  0  0  0  0  0  0
  190.6980  177.8200  145.2320 C   0  0  0  0  0  2  0  0  0  0  0  0
  187.8990  177.0830  147.5430 N   0  0  0  0  0  2  0  0  0  0  0  0
  184.4450  178.7490  143.8290 C   0  0  0  0  0  0  0  0  0  0  0  0
  181.7240  178.4150  142.9580 C   0  0  0  0  0  2  0  0  0  0  0  0
  186.8630  178.5470  143.2990 C   0  0  1  0  0  3  0  0  0  0  0  0
  184.1290  178.6780  142.3870 C   0  0  0  0  0  0  0  0  0  0  0  0
  185.0750  178.3500  141.5110 C   0  0  0  0  0  3  0  0  0  0  0  0
  183.3390  178.9150  144.7830 C   0  0  0  0  0  3  0  0  0  0  0  0
  182.7280  178.9670  141.9400 C   0  0  0  0  0  2  0  0  0  0  0  0
  186.4100  178.1130  141.9700 N   0  0  0  0  0  2  0  0  0  0  0  0
  182.0700  178.8080  144.3740 C   0  0  0  0  0  3  0  0  0  0  0  0
  185.7030  178.6440  144.2620 C   0  0  0  0  0  3  0  0  0  0  0  0
  189.4220  176.6250  142.0480 C   0  0  0  0  0  2  0  0  0  0  0  0
  190.7960  176.3620  139.9550 C   0  0  0  0  0  2  0  0  0  0  0  0
  190.8640  177.7250  140.3170 O   0  0  0  0  0  0  0  0  0  0  0  0
  189.6660  177.0480  140.6040 C   0  0  2  0  0  0  0  0  0  0  0  0
  188.7330  178.6180  139.2820 C   0  0  0  0  0  1  0  0  0  0  0  0
  188.5980  177.2960  139.7250 O   0  0  0  0  0  0  0  0  0  0  0  0
  1 10  1  0  0  0  0
  2 10  1  0  0  0  0
  3 21  1  1  0  0  0
  3  5  1  0  0  0  0
  3  6  1  0  0  0  0
  4  5  2  0  0  0  0
  5  9  1  0  0  0  0
  6 13  1  6  0  0  0
  6  8  1  0  0  0  0
  7  9  1  1  0  0  0
  7  1  1  0  0  0  0
  8  7  1  0  0  0  0
  8  2  1  1  0  0  0
 11 20  2  0  0  0  0
 11 16  1  0  0  0  0
 12 19  1  0  0  0  0
 13 20  1  1  0  0  0
 14 11  1  0  0  0  0
 15 18  1  0  0  0  0
 15 14  2  0  0  0  0
 17 14  1  0  0  0  0
 17 12  1  0  0  0  0
 18 13  1  0  0  0  0
 19 16  2  0  0  0  0
 22 23  1  0  0  0  0
 22 24  1  0  0  0  0
 23 24  1  0  0  0  0
 24 21  1  1  0  0  0
 25 26  1  0  0  0  0
 26 24  1  0  0  0  0
M  END
>  <MODEL>
4

>  <REMARK>
 VINA RESULT:      -7.9      2.041      4.634
  Name = 
  4 active torsions:
  status: ('A' for Active; 'I' for Inactive)
    1  A    between atoms: O_5  and  C_18
    2  A    between atoms: C_7  and  C_14
    3  A    between atoms: C_10  and  C_19
    4  A    between atoms: C_14  and  C_18
                            x       y       z     vdW  Elec       q    Type
                         _______ _______ _______ _____ _____    ______ ____

>  <TORSDO>
F 4

$$$$
=
 OpenBabel11062417023D

 26 30  0  0  1  0  0  0  0  0999 V2000
  181.7430  178.8090  143.4860 C   0  0  0  0  0  2  0  0  0  0  0  0
  183.0490  178.5850  141.5500 C   0  0  0  0  0  2  0  0  0  0  0  0
  186.0090  178.5090  144.1220 C   0  0  2  0  0  3  0  0  0  0  0  0
  185.6850  179.5340  146.2360 O   0  0  0  0  0  0  0  0  0  0  0  0
  185.1450  179.1050  145.2300 C   0  0  0  0  0  0  0  0  0  0  0  0
  185.3400  178.3640  142.7240 C   0  0  1  0  0  3  0  0  0  0  0  0
  183.1670  178.5080  143.8710 C   0  0  1  0  0  3  0  0  0  0  0  0
  183.9420  178.9960  142.6970 C   0  0  2  0  0  3  0  0  0  0  0  0
  183.6450  179.2240  145.1150 C   0  0  0  0  0  2  0  0  0  0  0  0
  181.6690  178.6800  142.0310 N   0  0  0  0  0  2  0  0  0  0  0  0
  186.6580  178.3770  139.2550 C   0  0  0  0  0  0  0  0  0  0  0  0
  188.4830  177.3720  137.2710 C   0  0  0  0  0  2  0  0  0  0  0  0
  186.2510  178.9610  141.6340 C   0  0  1  0  0  3  0  0  0  0  0  0
  188.1150  178.3970  139.5050 C   0  0  0  0  0  0  0  0  0  0  0  0
  188.5780  178.4740  140.7500 C   0  0  0  0  0  3  0  0  0  0  0  0
  186.1840  178.0900  137.8930 C   0  0  0  0  0  3  0  0  0  0  0  0
  189.0500  178.3170  138.3370 C   0  0  0  0  0  2  0  0  0  0  0  0
  187.6560  178.5830  141.8400 N   0  0  0  0  0  2  0  0  0  0  0  0
  187.0380  177.6680  136.9540 C   0  0  0  0  0  3  0  0  0  0  0  0
  185.7890  178.5910  140.2440 C   0  0  0  0  0  3  0  0  0  0  0  0
  186.5780  177.1600  144.5430 C   0  0  0  0  0  2  0  0  0  0  0  0
  188.2530  177.1460  146.4220 C   0  0  0  0  0  2  0  0  0  0  0  0
  188.4190  178.3710  145.7400 O   0  0  0  0  0  0  0  0  0  0  0  0
  188.0390  177.2580  144.9690 C   0  0  2  0  0  0  0  0  0  0  0  0
  188.4420  175.8360  143.2680 C   0  0  0  0  0  1  0  0  0  0  0  0
  189.0620  176.6580  144.2170 O   0  0  0  0  0  0  0  0  0  0  0  0
  2 10  1  0  0  0  0
  3 21  1  1  0  0  0
  3  5  1  0  0  0  0
  5  4  2  0  0  0  0
  6 13  1  6  0  0  0
  6  3  1  0  0  0  0
  7  1  1  6  0  0  0
  7  9  1  0  0  0  0
  8  2  1  6  0  0  0
  8  6  1  0  0  0  0
  8  7  1  0  0  0  0
  9  5  1  0  0  0  0
 10  1  1  0  0  0  0
 11 14  1  0  0  0  0
 11 20  2  0  0  0  0
 12 17  1  0  0  0  0
 13 20  1  6  0  0  0
 13 18  1  0  0  0  0
 14 15  2  0  0  0  0
 15 18  1  0  0  0  0
 16 11  1  0  0  0  0
 17 14  1  0  0  0  0
 19 12  1  0  0  0  0
 19 16  2  0  0  0  0
 23 22  1  0  0  0  0
 24 21  1  6  0  0  0
 24 23  1  0  0  0  0
 24 22  1  0  0  0  0
 25 26  1  0  0  0  0
 26 24  1  0  0  0  0
M  END
>  <MODEL>
5

>  <REMARK>
 VINA RESULT:      -7.7      2.374      5.755
  Name = 
  4 active torsions:
  status: ('A' for Active; 'I' for Inactive)
    1  A    between atoms: O_5  and  C_18
    2  A    between atoms: C_7  and  C_14
    3  A    between atoms: C_10  and  C_19
    4  A    between atoms: C_14  and  C_18
                            x       y       z     vdW  Elec       q    Type
                         _______ _______ _______ _____ _____    ______ ____

>  <TORSDO>
F 4

$$$$
=
 OpenBabel11062417023D

 26 30  0  0  1  0  0  0  0  0999 V2000
  186.1100  178.3720  138.5940 C   0  0  0  0  0  2  0  0  0  0  0  0
  187.3710  178.5970  140.5590 C   0  0  0  0  0  2  0  0  0  0  0  0
  189.9480  176.3820  138.6020 C   0  0  2  0  0  3  0  0  0  0  0  0
  189.1360  174.9800  136.8700 O   0  0  0  0  0  0  0  0  0  0  0  0
  188.8920  175.9280  137.5980 C   0  0  0  0  0  0  0  0  0  0  0  0
  189.4550  177.2930  139.7640 C   0  0  1  0  0  3  0  0  0  0  0  0
  187.4900  177.8110  138.3740 C   0  0  1  0  0  3  0  0  0  0  0  0
  187.9280  177.4500  139.7500 C   0  0  2  0  0  3  0  0  0  0  0  0
  187.5350  176.5780  137.4980 C   0  0  0  0  0  2  0  0  0  0  0  0
  186.1240  179.0080  139.9110 N   0  0  0  0  0  2  0  0  0  0  0  0
  189.0830  176.9050  143.4350 C   0  0  0  0  0  0  0  0  0  0  0  0
  189.4240  177.9250  146.1030 C   0  0  0  0  0  2  0  0  0  0  0  0
  189.9550  176.7500  141.1150 C   0  0  1  0  0  3  0  0  0  0  0  0
  190.4180  177.3350  143.9020 C   0  0  0  0  0  0  0  0  0  0  0  0
  191.3640  177.6530  143.0220 C   0  0  0  0  0  3  0  0  0  0  0  0
  188.0060  176.7570  144.4260 C   0  0  0  0  0  3  0  0  0  0  0  0
  190.6750  177.4180  145.3760 C   0  0  0  0  0  2  0  0  0  0  0  0
  191.0930  177.5300  141.6210 N   0  0  0  0  0  2  0  0  0  0  0  0
  188.1780  177.1860  145.6800 C   0  0  0  0  0  3  0  0  0  0  0  0
  188.8490  176.6770  142.1410 C   0  0  0  0  0  3  0  0  0  0  0  0
  191.1120  177.0650  137.8940 C   0  0  0  0  0  2  0  0  0  0  0  0
  193.3580  176.7580  138.9880 C   0  0  0  0  0  2  0  0  0  0  0  0
  193.5960  176.8850  137.6010 O   0  0  0  0  0  0  0  0  0  0  0  0
  192.4000  176.2550  137.9890 C   0  0  2  0  0  0  0  0  0  0  0  0
  192.5490  174.5320  136.5420 C   0  0  0  0  0  1  0  0  0  0  0  0
  192.3910  174.8530  137.8960 O   0  0  0  0  0  0  0  0  0  0  0  0
  1 10  1  0  0  0  0
  3 21  1  6  0  0  0
  3  6  1  0  0  0  0
  4  5  2  0  0  0  0
  5  3  1  0  0  0  0
  6 13  1  1  0  0  0
  7  9  1  6  0  0  0
  7  1  1  0  0  0  0
  7  8  1  0  0  0  0
  8  6  1  0  0  0  0
  8  2  1  1  0  0  0
  9  5  1  0  0  0  0
 10  2  1  0  0  0  0
 11 14  1  0  0  0  0
 11 16  1  0  0  0  0
 13 18  1  0  0  0  0
 13 20  1  1  0  0  0
 14 17  1  0  0  0  0
 15 14  2  0  0  0  0
 16 19  2  0  0  0  0
 17 12  1  0  0  0  0
 18 15  1  0  0  0  0
 19 12  1  0  0  0  0
 20 11  2  0  0  0  0
 23 24  1  0  0  0  0
 23 22  1  0  0  0  0
 24 21  1  6  0  0  0
 24 22  1  0  0  0  0
 25 26  1  0  0  0  0
 26 24  1  0  0  0  0
M  END
>  <MODEL>
6

>  <REMARK>
 VINA RESULT:      -7.5      4.159      6.636
  Name = 
  4 active torsions:
  status: ('A' for Active; 'I' for Inactive)
    1  A    between atoms: O_5  and  C_18
    2  A    between atoms: C_7  and  C_14
    3  A    between atoms: C_10  and  C_19
    4  A    between atoms: C_14  and  C_18
                            x       y       z     vdW  Elec       q    Type
                         _______ _______ _______ _____ _____    ______ ____

>  <TORSDO>
F 4

$$$$
=
 OpenBabel11062417023D

 26 30  0  0  1  0  0  0  0  0999 V2000
  188.3340  177.2570  146.6770 C   0  0  0  0  0  2  0  0  0  0  0  0
  186.5620  177.6030  145.1800 C   0  0  0  0  0  2  0  0  0  0  0  0
  189.4500  177.7720  142.5320 C   0  0  2  0  0  3  0  0  0  0  0  0
  191.6180  178.3800  143.2740 O   0  0  0  0  0  0  0  0  0  0  0  0
  190.5080  178.0000  143.6080 C   0  0  0  0  0  0  0  0  0  0  0  0
  187.9730  177.6980  143.0180 C   0  0  1  0  0  3  0  0  0  0  0  0
  188.8520  177.2100  145.2640 C   0  0  1  0  0  3  0  0  0  0  0  0
  187.8520  178.0180  144.5140 C   0  0  2  0  0  3  0  0  0  0  0  0
  190.2250  177.8170  145.0780 C   0  0  0  0  0  2  0  0  0  0  0  0
  186.8760  177.3330  146.5840 N   0  0  0  0  0  2  0  0  0  0  0  0
  184.6580  178.6510  141.6470 C   0  0  0  0  0  0  0  0  0  0  0  0
  182.5870  178.3420  139.6750 C   0  0  0  0  0  2  0  0  0  0  0  0
  187.0870  178.6290  142.1680 C   0  0  1  0  0  3  0  0  0  0  0  0
  184.9740  178.7840  140.2090 C   0  0  0  0  0  0  0  0  0  0  0  0
  186.2250  178.6290  139.7820 C   0  0  0  0  0  3  0  0  0  0  0  0
  183.2470  178.6280  142.0570 C   0  0  0  0  0  3  0  0  0  0  0  0
  183.8620  179.0800  139.2500 C   0  0  0  0  0  2  0  0  0  0  0  0
  187.2680  178.3800  140.7310 N   0  0  0  0  0  2  0  0  0  0  0  0
  182.2780  178.5320  141.1400 C   0  0  0  0  0  3  0  0  0  0  0  0
  185.6300  178.5330  142.5540 C   0  0  0  0  0  3  0  0  0  0  0  0
  189.7670  176.5260  141.7150 C   0  0  0  0  0  2  0  0  0  0  0  0
  189.5650  176.8180  139.2230 C   0  0  0  0  0  2  0  0  0  0  0  0
  190.5580  175.8370  139.4370 O   0  0  0  0  0  0  0  0  0  0  0  0
  190.4540  176.8610  140.3960 C   0  0  2  0  0  0  0  0  0  0  0  0
  192.6680  177.2450  140.2090 C   0  0  0  0  0  1  0  0  0  0  0  0
  191.4220  177.8760  140.3120 O   0  0  0  0  0  0  0  0  0  0  0  0
  2 10  1  0  0  0  0
  3 21  1  1  0  0  0
  3  6  1  0  0  0  0
  3  5  1  0  0  0  0
  4  5  2  0  0  0  0
  5  9  1  0  0  0  0
  6 13  1  6  0  0  0
  6  8  1  0  0  0  0
  7  9  1  1  0  0  0
  7  1  1  0  0  0  0
  8  2  1  1  0  0  0
  8  7  1  0  0  0  0
 10  1  1  0  0  0  0
 11 16  1  0  0  0  0
 11 20  2  0  0  0  0
 12 19  1  0  0  0  0
 13 20  1  1  0  0  0
 14 11  1  0  0  0  0
 15 14  2  0  0  0  0
 15 18  1  0  0  0  0
 17 12  1  0  0  0  0
 17 14  1  0  0  0  0
 18 13  1  0  0  0  0
 19 16  2  0  0  0  0
 22 23  1  0  0  0  0
 22 24  1  0  0  0  0
 23 24  1  0  0  0  0
 24 21  1  1  0  0  0
 25 26  1  0  0  0  0
 26 24  1  0  0  0  0
M  END
>  <MODEL>
7

>  <REMARK>
 VINA RESULT:      -7.4      2.082      4.891
  Name = 
  4 active torsions:
  status: ('A' for Active; 'I' for Inactive)
    1  A    between atoms: O_5  and  C_18
    2  A    between atoms: C_7  and  C_14
    3  A    between atoms: C_10  and  C_19
    4  A    between atoms: C_14  and  C_18
                            x       y       z     vdW  Elec       q    Type
                         _______ _______ _______ _____ _____    ______ ____

>  <TORSDO>
F 4

$$$$
=
 OpenBabel11062417023D

 26 30  0  0  1  0  0  0  0  0999 V2000
  185.3380  178.3920  146.9000 C   0  0  0  0  0  2  0  0  0  0  0  0
  184.5490  178.5230  144.6960 C   0  0  0  0  0  2  0  0  0  0  0  0
  188.2690  177.6570  143.8090 C   0  0  2  0  0  3  0  0  0  0  0  0
  189.9540  178.1940  145.3890 O   0  0  0  0  0  0  0  0  0  0  0  0
  188.7580  178.0440  145.2020 C   0  0  0  0  0  0  0  0  0  0  0  0
  186.7560  177.8810  143.5170 C   0  0  1  0  0  3  0  0  0  0  0  0
  186.4060  177.9130  145.9540 C   0  0  1  0  0  3  0  0  0  0  0  0
  186.0570  178.5990  144.6800 C   0  0  2  0  0  3  0  0  0  0  0  0
  187.8150  178.2920  146.3530 C   0  0  0  0  0  2  0  0  0  0  0  0
  184.1340  178.6030  146.0980 N   0  0  0  0  0  2  0  0  0  0  0  0
  184.9120  178.4920  140.3560 C   0  0  0  0  0  0  0  0  0  0  0  0
  184.3650  177.8210  137.6130 C   0  0  0  0  0  2  0  0  0  0  0  0
  186.5770  178.6450  142.1920 C   0  0  1  0  0  3  0  0  0  0  0  0
  186.0120  178.4340  139.3710 C   0  0  0  0  0  0  0  0  0  0  0  0
  187.2680  178.2750  139.7790 C   0  0  0  0  0  3  0  0  0  0  0  0
  183.5260  178.4660  139.8650 C   0  0  0  0  0  3  0  0  0  0  0  0
  185.6820  178.5460  137.9130 C   0  0  0  0  0  2  0  0  0  0  0  0
  187.5500  178.2060  141.1820 N   0  0  0  0  0  2  0  0  0  0  0  0
  183.2690  178.2020  138.5790 C   0  0  0  0  0  3  0  0  0  0  0  0
  185.1650  178.5430  141.6650 C   0  0  0  0  0  3  0  0  0  0  0  0
  188.6280  176.2110  143.4900 C   0  0  0  0  0  2  0  0  0  0  0  0
  190.9170  175.1670  143.4100 C   0  0  0  0  0  2  0  0  0  0  0  0
  191.1100  176.5660  143.4420 O   0  0  0  0  0  0  0  0  0  0  0  0
  189.9680  176.0940  142.7710 C   0  0  2  0  0  0  0  0  0  0  0  0
  190.7840  177.2060  140.9880 C   0  0  0  0  0  1  0  0  0  0  0  0
  190.0470  176.0780  141.3690 O   0  0  0  0  0  0  0  0  0  0  0  0
  2 10  1  0  0  0  0
  3 21  1  1  0  0  0
  3  5  1  0  0  0  0
  5  4  2  0  0  0  0
  5  9  1  0  0  0  0
  6 13  1  6  0  0  0
  6  3  1  0  0  0  0
  6  8  1  0  0  0  0
  7  9  1  1  0  0  0
  7  1  1  0  0  0  0
  8  2  1  6  0  0  0
  8  7  1  0  0  0  0
 10  1  1  0  0  0  0
 11 20  2  0  0  0  0
 12 17  1  0  0  0  0
 12 19  1  0  0  0  0
 13 20  1  6  0  0  0
 14 15  2  0  0  0  0
 14 11  1  0  0  0  0
 15 18  1  0  0  0  0
 16 11  1  0  0  0  0
 17 14  1  0  0  0  0
 18 13  1  0  0  0  0
 19 16  2  0  0  0  0
 22 23  1  0  0  0  0
 24 22  1  0  0  0  0
 24 23  1  0  0  0  0
 24 21  1  1  0  0  0
 25 26  1  0  0  0  0
 26 24  1  0  0  0  0
M  END
>  <MODEL>
8

>  <REMARK>
 VINA RESULT:      -7.3      2.113      4.946
  Name = 
  4 active torsions:
  status: ('A' for Active; 'I' for Inactive)
    1  A    between atoms: O_5  and  C_18
    2  A    between atoms: C_7  and  C_14
    3  A    between atoms: C_10  and  C_19
    4  A    between atoms: C_14  and  C_18
                            x       y       z     vdW  Elec       q    Type
                         _______ _______ _______ _____ _____    ______ ____

>  <TORSDO>
F 4

$$$$
=
 OpenBabel11062417023D

 26 30  0  0  1  0  0  0  0  0999 V2000
  182.9000  179.2770  144.7190 C   0  0  0  0  0  2  0  0  0  0  0  0
  185.2010  178.9510  145.0370 C   0  0  0  0  0  2  0  0  0  0  0  0
  185.1220  178.0330  141.2250 C   0  0  2  0  0  3  0  0  0  0  0  0
  183.0800  177.2630  140.2980 O   0  0  0  0  0  0  0  0  0  0  0  0
  183.6110  177.8260  141.2410 C   0  0  0  0  0  0  0  0  0  0  0  0
  185.7910  178.3650  142.5910 C   0  0  1  0  0  3  0  0  0  0  0  0
  183.5660  179.0540  143.3870 C   0  0  1  0  0  3  0  0  0  0  0  0
  184.7870  178.2820  143.7490 C   0  0  2  0  0  3  0  0  0  0  0  0
  182.7450  178.2530  142.4000 C   0  0  0  0  0  2  0  0  0  0  0  0
  183.9720  179.3770  145.7090 N   0  0  0  0  0  2  0  0  0  0  0  0
  188.6120  177.2050  144.7050 C   0  0  0  0  0  0  0  0  0  0  0  0
  191.3120  177.5040  145.6530 C   0  0  0  0  0  2  0  0  0  0  0  0
  187.0040  177.4450  142.8280 C   0  0  1  0  0  3  0  0  0  0  0  0
  189.7340  177.2790  143.7450 C   0  0  0  0  0  0  0  0  0  0  0  0
  189.5100  177.6240  142.4800 C   0  0  0  0  0  3  0  0  0  0  0  0
  188.9180  177.0190  146.1310 C   0  0  0  0  0  3  0  0  0  0  0  0
  191.1180  176.9710  144.2280 C   0  0  0  0  0  2  0  0  0  0  0  0
  188.1690  177.8790  142.0450 N   0  0  0  0  0  2  0  0  0  0  0  0
  190.1790  177.1090  146.5690 C   0  0  0  0  0  3  0  0  0  0  0  0
  187.3480  177.3280  144.2940 C   0  0  0  0  0  3  0  0  0  0  0  0
  185.5140  179.0970  140.2080 C   0  0  0  0  0  2  0  0  0  0  0  0
  185.3370  178.6150  137.7430 C   0  0  0  0  0  2  0  0  0  0  0  0
  185.5350  177.3730  138.3870 O   0  0  0  0  0  0  0  0  0  0  0  0
  186.1550  178.4960  138.9620 C   0  0  2  0  0  0  0  0  0  0  0  0
  188.0660  177.3340  138.6760 C   0  0  0  0  0  1  0  0  0  0  0  0
  187.5320  178.6280  138.7120 O   0  0  0  0  0  0  0  0  0  0  0  0
  1 10  1  0  0  0  0
  2 10  1  0  0  0  0
  3 21  1  6  0  0  0
  3  5  1  0  0  0  0
  3  6  1  0  0  0  0
  4  5  2  0  0  0  0
  5  9  1  0  0  0  0
  6 13  1  1  0  0  0
  6  8  1  0  0  0  0
  7  9  1  6  0  0  0
  7  8  1  0  0  0  0
  7  1  1  0  0  0  0
  8  2  1  1  0  0  0
 11 16  1  0  0  0  0
 12 19  1  0  0  0  0
 13 20  1  1  0  0  0
 14 17  1  0  0  0  0
 14 11  1  0  0  0  0
 15 14  2  0  0  0  0
 16 19  2  0  0  0  0
 17 12  1  0  0  0  0
 18 15  1  0  0  0  0
 18 13  1  0  0  0  0
 20 11  2  0  0  0  0
 22 23  1  0  0  0  0
 22 24  1  0  0  0  0
 23 24  1  0  0  0  0
 24 21  1  1  0  0  0
 25 26  1  0  0  0  0
 26 24  1  0  0  0  0
M  END
>  <MODEL>
9

>  <REMARK>
 VINA RESULT:      -7.2      3.233      7.219
  Name = 
  4 active torsions:
  status: ('A' for Active; 'I' for Inactive)
    1  A    between atoms: O_5  and  C_18
    2  A    between atoms: C_7  and  C_14
    3  A    between atoms: C_10  and  C_19
    4  A    between atoms: C_14  and  C_18
                            x       y       z     vdW  Elec       q    Type
                         _______ _______ _______ _____ _____    ______ ____

>  <TORSDO>
F 4

$$$$
