=
 OpenBabel11062417083D

 65 71  0  0  1  0  0  0  0  0999 V2000
  191.2600  177.5790  141.6070 C   0  0  1  0  0  3  0  0  0  0  0  0
  190.3560  178.7750  143.8520 C   0  0  1  0  0  3  0  0  0  0  0  0
  191.7310  179.1720  144.3660 C   0  0  0  0  0  1  0  0  0  0  0  0
  191.6460  176.1830  144.8890 C   0  0  0  0  0  2  0  0  0  0  0  0
  190.8890  174.8320  143.1070 O   0  0  0  0  0  0  0  0  0  0  0  0
  188.8760  178.1940  141.8320 C   0  0  1  0  0  0  0  0  0  0  0  0
  188.3260  176.7790  141.9280 C   0  0  0  0  0  2  0  0  0  0  0  0
  190.3740  176.7280  145.5290 C   0  0  0  0  0  2  0  0  0  0  0  0
  190.2760  178.5380  142.3250 C   0  0  2  0  0  3  0  0  0  0  0  0
  189.0370  177.2450  140.6710 C   0  0  2  0  0  0  0  0  0  0  0  0
  192.1870  176.7000  142.4470 C   0  0  0  0  0  2  0  0  0  0  0  0
  189.5730  177.7480  144.6960 C   0  0  1  0  0  3  0  0  0  0  0  0
  190.4780  176.7630  140.5820 C   0  0  0  0  0  2  0  0  0  0  0  0
  191.4840  175.8420  143.4490 C   0  0  0  0  0  0  0  0  0  0  0  0
  187.9480  179.2220  141.6400 O   0  0  0  0  0  1  0  0  0  0  0  0
  188.4050  178.4350  138.6130 N   0  0  0  0  0  0  0  0  0  0  0  0
  187.1690  178.3820  139.4630 C   0  0  2  0  0  3  0  0  0  0  0  0
  188.1090  177.2460  139.4560 C   0  0  2  0  0  3  0  0  0  0  0  0
  188.1600  178.1190  137.1950 C   0  0  0  0  0  2  0  0  0  0  0  0
  189.3510  172.8630  135.2860 O   0  0  0  0  0  1  0  0  0  0  0  0
  188.4040  176.6430  136.8320 C   0  0  1  0  0  3  0  0  0  0  0  0
  188.0260  174.8190  135.0570 C   0  0  0  0  0  2  0  0  0  0  0  0
  192.7550  175.7640  137.6750 C   0  0  0  0  0  0  0  0  0  0  0  0
  192.2770  176.6710  136.5930 C   0  0  0  0  0  2  0  0  0  0  0  0
  188.8520  173.9440  136.0270 C   0  0  2  0  0  0  0  0  0  0  0  0
  187.7580  176.2820  135.4920 C   0  0  1  0  0  3  0  0  0  0  0  0
  190.8510  177.0630  136.8000 C   0  0  0  0  0  3  0  0  0  0  0  0
  193.8990  176.1400  138.4330 N   0  0  0  0  0  1  0  0  0  0  0  0
  190.0150  174.7200  136.6190 C   0  0  0  0  0  0  0  0  0  0  0  0
  192.2300  174.5540  137.8600 C   0  0  0  0  0  3  0  0  0  0  0  0
  189.8400  176.1880  136.8140 C   0  0  0  0  0  0  0  0  0  0  0  0
  191.0400  174.0270  137.1580 C   0  0  0  0  0  3  0  0  0  0  0  0
  187.9340  173.4850  137.1820 C   0  0  0  0  0  3  0  0  0  0  0  0
  186.6110  172.9460  136.6630 C   0  0  0  0  0  2  0  0  0  0  0  0
  187.6750  171.9820  137.1760 C   0  0  0  0  0  2  0  0  0  0  0  0
  186.3780  176.5370  135.5220 O   0  0  0  0  0  0  0  0  0  0  0  0
  186.2040  177.5710  134.5970 C   0  0  0  0  0  1  0  0  0  0  0  0
  185.8700  178.0570  138.7070 C   0  0  0  0  0  2  0  0  0  0  0  0
  183.7410  179.0620  138.4890 O   0  0  0  0  0  1  0  0  0  0  0  0
  185.1020  179.3100  138.3190 C   0  0  0  0  0  2  0  0  0  0  0  0
  188.6580  178.4050  145.5310 O   0  0  0  0  0  0  0  0  0  0  0  0
  186.8330  177.3830  146.6800 C   0  0  0  0  0  1  0  0  0  0  0  0
  187.4240  177.7730  145.3300 C   0  0  1  0  0  3  0  0  0  0  0  0
  186.4810  178.7480  144.6420 C   0  0  0  0  0  2  0  0  0  0  0  0
  185.0360  178.4230  144.9750 C   0  0  0  0  0  2  0  0  0  0  0  0
  184.1050  179.0780  143.9570 C   0  0  1  0  0  3  0  0  0  0  0  0
  185.0730  179.7630  141.8980 O   0  0  0  0  0  1  0  0  0  0  0  0
  184.2010  177.6450  141.8920 O   0  0  0  0  0  0  0  0  0  0  0  0
  184.5110  178.8400  142.5350 C   0  0  0  0  0  0  0  0  0  0  0  0
  182.6400  178.7350  144.2090 C   0  0  0  0  0  2  0  0  0  0  0  0
  181.7380  179.5110  143.3620 N   0  0  0  0  0  2  0  0  0  0  0  0
  180.5810  178.6800  143.0430 C   0  0  1  0  0  3  0  0  0  0  0  0
  179.3850  179.1650  143.8360 C   0  0  0  0  0  1  0  0  0  0  0  0
  180.2580  178.6850  141.5470 C   0  0  2  0  0  3  0  0  0  0  0  0
  179.9880  177.3090  141.0240 C   0  0  0  0  0  0  0  0  0  0  0  0
  180.5640  176.8730  139.8350 O   0  0  0  0  0  0  0  0  0  0  0  0
  179.2690  176.5260  141.6960 O   0  0  0  0  0  1  0  0  0  0  0  0
  181.3110  179.3380  140.7790 N   0  0  0  0  0  2  0  0  0  0  0  0
  180.7270  180.5430  140.2140 C   0  0  0  0  0  2  0  0  0  0  0  0
  180.6820  180.4450  138.6980 C   0  0  0  0  0  2  0  0  0  0  0  0
  179.8860  181.5950  138.1080 C   0  0  0  0  0  2  0  0  0  0  0  0
  180.6850  182.3040  137.0250 C   0  0  0  0  0  2  0  0  0  0  0  0
  182.1640  184.1960  137.6120 F   0  0  0  0  0  0  0  0  0  0  0  0
  179.9520  184.4710  137.5900 O   0  0  0  0  0  0  0  0  0  0  0  0
  180.9050  183.7300  137.4080 C   0  0  0  0  0  0  0  0  0  0  0  0
  1 13  1  1  0  0  0
  1  9  1  0  0  0  0
  1 11  1  0  0  0  0
  2  3  1  1  0  0  0
  2 12  1  0  0  0  0
  4  8  1  0  0  0  0
  5 14  2  0  0  0  0
  6 15  1  6  0  0  0
  6  7  1  0  0  0  0
  6  9  1  0  0  0  0
  9  2  1  0  0  0  0
 10  6  1  0  0  0  0
 10  7  1  0  0  0  0
 11 14  1  0  0  0  0
 12  8  1  0  0  0  0
 12 41  1  0  0  0  0
 13 10  1  0  0  0  0
 14  4  1  0  0  0  0
 16 18  1  0  0  0  0
 16 17  1  0  0  0  0
 18 17  1  0  0  0  0
 18 10  1  0  0  0  0
 19 16  1  0  0  0  0
 20 25  1  0  0  0  0
 21 19  1  0  0  0  0
 22 26  1  0  0  0  0
 22 25  1  0  0  0  0
 23 30  2  0  0  0  0
 23 28  1  0  0  0  0
 24 27  1  0  0  0  0
 24 23  1  0  0  0  0
 25 29  1  0  0  0  0
 25 33  1  0  0  0  0
 26 36  1  0  0  0  0
 26 21  1  0  0  0  0
 27 31  2  0  0  0  0
 29 31  1  0  0  0  0
 29 32  2  0  0  0  0
 31 21  1  0  0  0  0
 32 30  1  0  0  0  0
 34 35  1  0  0  0  0
 34 33  1  0  0  0  0
 35 33  1  0  0  0  0
 37 36  1  0  0  0  0
 38 17  1  0  0  0  0
 40 39  1  0  0  0  0
 40 38  1  0  0  0  0
 43 41  1  0  0  0  0
 43 42  1  0  0  0  0
 44 45  1  0  0  0  0
 44 43  1  0  0  0  0
 46 50  1  0  0  0  0
 46 45  1  0  0  0  0
 47 49  1  0  0  0  0
 48 49  2  0  0  0  0
 49 46  1  0  0  0  0
 51 50  1  0  0  0  0
 52 51  1  0  0  0  0
 52 53  1  0  0  0  0
 54 52  1  0  0  0  0
 55 54  1  0  0  0  0
 55 57  1  0  0  0  0
 56 55  2  0  0  0  0
 58 54  1  0  0  0  0
 59 58  1  0  0  0  0
 60 59  1  0  0  0  0
 61 60  1  0  0  0  0
 62 65  1  0  0  0  0
 62 61  1  0  0  0  0
 65 64  2  0  0  0  0
 65 63  1  0  0  0  0
M  END
>  <MODEL>
1

>  <REMARK>
 VINA RESULT:      -6.4      0.000      0.000
  Name = 
  24 active torsions:
  status: ('A' for Active; 'I' for Inactive)
    1  A    between atoms: C_1  and  C_19
    2  A    between atoms: C_2  and  C_48
    3  A    between atoms: C_2  and  C_56
    4  A    between atoms: C_4  and  C_57
    5  A    between atoms: C_11  and  CA_55
    6  A    between atoms: O_15  and  C_29
    7  A    between atoms: N_18  and  C_57
    8  A    between atoms: C_22  and  C_53
    9  A    between atoms: C_22  and  C_58
   10  A    between atoms: C_25  and  N_34
   11  A    between atoms: C_25  and  CA_55
   12  A    between atoms: C_27  and  C_47
   13  A    between atoms: C_27  and  C_48
   14  A    between atoms: C_27  and  C_50
   15  A    between atoms: O_28  and  C_44
   16  A    between atoms: O_28  and  C_56
   17  A    between atoms: C_32  and  C_45
   18  A    between atoms: N_34  and  C_47
   19  A    between atoms: C_36  and  C_42
   20  A    between atoms: C_45  and  C_65
   21  A    between atoms: C_46  and  N_59
   22  A    between atoms: C_46  and  C_60
   23  A    between atoms: C_53  and  C_60
   24  A    between atoms: CA_55  and  N_59
                            x       y       z     vdW  Elec       q    Type
                         _______ _______ _______ _____ _____    ______ ____

>  <TORSDO>
F 24

$$$$
=
 OpenBabel11062417083D

 65 71  0  0  1  0  0  0  0  0999 V2000
  191.1910  177.6310  141.5590 C   0  0  1  0  0  3  0  0  0  0  0  0
  190.2180  178.7900  143.7940 C   0  0  1  0  0  3  0  0  0  0  0  0
  191.5790  179.1320  144.3810 C   0  0  0  0  0  1  0  0  0  0  0  0
  191.3860  176.1340  144.8120 C   0  0  0  0  0  2  0  0  0  0  0  0
  190.6750  174.8560  142.9590 O   0  0  0  0  0  0  0  0  0  0  0  0
  188.8180  178.3090  141.6930 C   0  0  1  0  0  0  0  0  0  0  0  0
  188.2240  176.9080  141.7220 C   0  0  0  0  0  2  0  0  0  0  0  0
  190.1020  176.6970  145.4100 C   0  0  0  0  0  2  0  0  0  0  0  0
  190.2020  178.5980  142.2590 C   0  0  2  0  0  3  0  0  0  0  0  0
  189.0060  177.3880  140.5130 C   0  0  2  0  0  0  0  0  0  0  0  0
  192.0530  176.7020  142.4140 C   0  0  0  0  0  2  0  0  0  0  0  0
  189.3690  177.7620  144.5720 C   0  0  1  0  0  3  0  0  0  0  0  0
  190.4360  176.8670  140.4750 C   0  0  0  0  0  2  0  0  0  0  0  0
  191.2820  175.8380  143.3580 C   0  0  0  0  0  0  0  0  0  0  0  0
  187.9280  179.3690  141.4890 O   0  0  0  0  0  1  0  0  0  0  0  0
  188.6500  178.5150  138.3560 N   0  0  0  0  0  0  0  0  0  0  0  0
  187.3910  178.7190  139.1480 C   0  0  2  0  0  3  0  0  0  0  0  0
  188.1350  177.4500  139.2570 C   0  0  2  0  0  3  0  0  0  0  0  0
  188.4100  178.1430  136.9500 C   0  0  0  0  0  2  0  0  0  0  0  0
  188.9850  172.6830  135.3530 O   0  0  0  0  0  1  0  0  0  0  0  0
  188.4960  176.6290  136.6810 C   0  0  1  0  0  3  0  0  0  0  0  0
  187.8170  174.7310  135.0820 C   0  0  0  0  0  2  0  0  0  0  0  0
  192.8130  175.4190  137.2460 C   0  0  0  0  0  0  0  0  0  0  0  0
  192.3240  176.2900  136.1390 C   0  0  0  0  0  2  0  0  0  0  0  0
  188.6440  173.8530  136.0480 C   0  0  2  0  0  0  0  0  0  0  0  0
  187.7110  176.2390  135.4270 C   0  0  1  0  0  3  0  0  0  0  0  0
  190.9580  176.8230  136.4270 C   0  0  0  0  0  3  0  0  0  0  0  0
  194.0440  175.7400  137.8820 N   0  0  0  0  0  1  0  0  0  0  0  0
  189.9150  174.5590  136.4870 C   0  0  0  0  0  0  0  0  0  0  0  0
  192.2050  174.2760  137.5610 C   0  0  0  0  0  3  0  0  0  0  0  0
  189.8810  176.0460  136.5850 C   0  0  0  0  0  0  0  0  0  0  0  0
  190.9190  173.8130  136.9960 C   0  0  0  0  0  3  0  0  0  0  0  0
  187.7910  173.5590  137.3020 C   0  0  0  0  0  3  0  0  0  0  0  0
  186.5010  172.8410  136.9430 C   0  0  0  0  0  2  0  0  0  0  0  0
  187.6450  172.0670  137.5870 C   0  0  0  0  0  2  0  0  0  0  0  0
  186.3650  176.6200  135.5450 O   0  0  0  0  0  0  0  0  0  0  0  0
  186.2140  177.6340  134.5940 C   0  0  0  0  0  1  0  0  0  0  0  0
  186.0850  178.5500  138.3530 C   0  0  0  0  0  2  0  0  0  0  0  0
  184.2870  179.9780  138.9160 O   0  0  0  0  0  1  0  0  0  0  0  0
  184.8540  178.7430  139.2240 C   0  0  0  0  0  2  0  0  0  0  0  0
  188.4350  178.4220  145.3830 O   0  0  0  0  0  0  0  0  0  0  0  0
  186.8020  176.7190  145.7400 C   0  0  0  0  0  1  0  0  0  0  0  0
  187.1740  177.9780  144.9650 C   0  0  1  0  0  3  0  0  0  0  0  0
  186.1490  179.0610  145.2640 C   0  0  0  0  0  2  0  0  0  0  0  0
  184.7590  178.4650  145.3940 C   0  0  0  0  0  2  0  0  0  0  0  0
  183.8240  179.0860  144.3600 C   0  0  1  0  0  3  0  0  0  0  0  0
  185.0730  179.7420  142.4470 O   0  0  0  0  0  1  0  0  0  0  0  0
  183.7960  177.8620  142.1630 O   0  0  0  0  0  0  0  0  0  0  0  0
  184.2870  178.9010  142.9470 C   0  0  0  0  0  0  0  0  0  0  0  0
  182.3740  178.6550  144.5570 C   0  0  0  0  0  2  0  0  0  0  0  0
  181.4540  179.4030  143.7050 N   0  0  0  0  0  2  0  0  0  0  0  0
  180.3340  178.5320  143.3630 C   0  0  1  0  0  3  0  0  0  0  0  0
  179.0510  179.1400  143.8910 C   0  0  0  0  0  1  0  0  0  0  0  0
  180.2220  178.2940  141.8550 C   0  0  2  0  0  3  0  0  0  0  0  0
  180.3780  179.5580  141.0720 C   0  0  0  0  0  0  0  0  0  0  0  0
  179.5470  180.6500  141.3060 O   0  0  0  0  0  1  0  0  0  0  0  0
  181.3050  179.6470  140.2260 O   0  0  0  0  0  0  0  0  0  0  0  0
  178.9740  177.6200  141.5160 N   0  0  0  0  0  2  0  0  0  0  0  0
  179.0940  177.1960  140.1320 C   0  0  0  0  0  2  0  0  0  0  0  0
  180.1170  176.0780  140.0110 C   0  0  0  0  0  2  0  0  0  0  0  0
  179.9410  175.3270  138.7020 C   0  0  0  0  0  2  0  0  0  0  0  0
  181.2700  174.7650  138.2210 C   0  0  0  0  0  2  0  0  0  0  0  0
  181.0090  175.2710  135.8150 F   0  0  0  0  0  0  0  0  0  0  0  0
  182.6890  176.1700  136.9710 O   0  0  0  0  0  0  0  0  0  0  0  0
  181.6940  175.4630  136.9720 C   0  0  0  0  0  0  0  0  0  0  0  0
  1 13  1  6  0  0  0
  1  9  1  0  0  0  0
  1 11  1  0  0  0  0
  2  3  1  1  0  0  0
  2 12  1  0  0  0  0
  4  8  1  0  0  0  0
  5 14  2  0  0  0  0
  6 15  1  6  0  0  0
  6  7  1  0  0  0  0
  6  9  1  0  0  0  0
  9  2  1  0  0  0  0
 10  6  1  0  0  0  0
 10  7  1  0  0  0  0
 11 14  1  0  0  0  0
 12 41  1  0  0  0  0
 12  8  1  0  0  0  0
 13 10  1  0  0  0  0
 14  4  1  0  0  0  0
 16 17  1  0  0  0  0
 16 18  1  0  0  0  0
 17 18  1  0  0  0  0
 18 10  1  0  0  0  0
 19 16  1  0  0  0  0
 20 25  1  0  0  0  0
 21 19  1  0  0  0  0
 22 26  1  0  0  0  0
 22 25  1  0  0  0  0
 23 30  2  0  0  0  0
 23 28  1  0  0  0  0
 24 27  1  0  0  0  0
 24 23  1  0  0  0  0
 25 29  1  0  0  0  0
 25 33  1  0  0  0  0
 26 36  1  0  0  0  0
 26 21  1  0  0  0  0
 27 31  2  0  0  0  0
 29 31  1  0  0  0  0
 29 32  2  0  0  0  0
 31 21  1  0  0  0  0
 32 30  1  0  0  0  0
 33 35  1  0  0  0  0
 34 33  1  0  0  0  0
 34 35  1  0  0  0  0
 37 36  1  0  0  0  0
 38 17  1  0  0  0  0
 38 40  1  0  0  0  0
 39 40  1  0  0  0  0
 43 44  1  0  0  0  0
 43 41  1  0  0  0  0
 43 42  1  0  0  0  0
 44 45  1  0  0  0  0
 46 50  1  0  0  0  0
 46 45  1  0  0  0  0
 47 49  1  0  0  0  0
 48 49  2  0  0  0  0
 49 46  1  0  0  0  0
 51 50  1  0  0  0  0
 52 51  1  0  0  0  0
 52 53  1  0  0  0  0
 54 52  1  0  0  0  0
 55 56  1  0  0  0  0
 55 54  1  0  0  0  0
 57 55  2  0  0  0  0
 58 54  1  0  0  0  0
 59 58  1  0  0  0  0
 60 59  1  0  0  0  0
 61 60  1  0  0  0  0
 62 61  1  0  0  0  0
 63 65  1  0  0  0  0
 64 65  2  0  0  0  0
 65 62  1  0  0  0  0
M  END
>  <MODEL>
2

>  <REMARK>
 VINA RESULT:      -5.9      1.902      2.548
  Name = 
  24 active torsions:
  status: ('A' for Active; 'I' for Inactive)
    1  A    between atoms: C_1  and  C_19
    2  A    between atoms: C_2  and  C_48
    3  A    between atoms: C_2  and  C_56
    4  A    between atoms: C_4  and  C_57
    5  A    between atoms: C_11  and  CA_55
    6  A    between atoms: O_15  and  C_29
    7  A    between atoms: N_18  and  C_57
    8  A    between atoms: C_22  and  C_53
    9  A    between atoms: C_22  and  C_58
   10  A    between atoms: C_25  and  N_34
   11  A    between atoms: C_25  and  CA_55
   12  A    between atoms: C_27  and  C_47
   13  A    between atoms: C_27  and  C_48
   14  A    between atoms: C_27  and  C_50
   15  A    between atoms: O_28  and  C_44
   16  A    between atoms: O_28  and  C_56
   17  A    between atoms: C_32  and  C_45
   18  A    between atoms: N_34  and  C_47
   19  A    between atoms: C_36  and  C_42
   20  A    between atoms: C_45  and  C_65
   21  A    between atoms: C_46  and  N_59
   22  A    between atoms: C_46  and  C_60
   23  A    between atoms: C_53  and  C_60
   24  A    between atoms: CA_55  and  N_59
                            x       y       z     vdW  Elec       q    Type
                         _______ _______ _______ _____ _____    ______ ____

>  <TORSDO>
F 24

$$$$
=
 OpenBabel11062417083D

 65 71  0  0  1  0  0  0  0  0999 V2000
  191.3680  177.6660  141.7090 C   0  0  1  0  0  3  0  0  0  0  0  0
  189.9090  178.9410  143.5880 C   0  0  1  0  0  3  0  0  0  0  0  0
  191.1030  179.3970  144.4110 C   0  0  0  0  0  1  0  0  0  0  0  0
  190.9290  176.4350  145.0490 C   0  0  0  0  0  2  0  0  0  0  0  0
  190.6670  174.9830  143.2060 O   0  0  0  0  0  0  0  0  0  0  0  0
  188.9970  178.2270  141.2920 C   0  0  1  0  0  0  0  0  0  0  0  0
  188.4600  176.8040  141.3180 C   0  0  0  0  0  2  0  0  0  0  0  0
  189.5290  176.9750  145.3180 C   0  0  0  0  0  2  0  0  0  0  0  0
  190.2210  178.6310  142.1040 C   0  0  2  0  0  3  0  0  0  0  0  0
  189.4610  177.2300  140.2600 C   0  0  2  0  0  0  0  0  0  0  0  0
  192.0640  176.8510  142.8000 C   0  0  0  0  0  2  0  0  0  0  0  0
  188.9510  177.9330  144.2590 C   0  0  1  0  0  3  0  0  0  0  0  0
  190.8840  176.7830  140.5630 C   0  0  0  0  0  2  0  0  0  0  0  0
  191.1420  176.0230  143.6350 C   0  0  0  0  0  0  0  0  0  0  0  0
  188.1340  179.2210  140.8190 O   0  0  0  0  0  1  0  0  0  0  0  0
  189.9510  177.3740  137.8540 N   0  0  0  0  0  0  0  0  0  0  0  0
  188.9320  178.4390  138.1380 C   0  0  2  0  0  3  0  0  0  0  0  0
  188.8710  177.1500  138.8510 C   0  0  2  0  0  3  0  0  0  0  0  0
  189.6720  176.6030  136.6290 C   0  0  0  0  0  2  0  0  0  0  0  0
  193.0450  171.9920  136.3840 O   0  0  0  0  0  1  0  0  0  0  0  0
  190.6320  175.4210  136.4020 C   0  0  1  0  0  3  0  0  0  0  0  0
  192.6340  174.1180  137.3580 C   0  0  0  0  0  2  0  0  0  0  0  0
  188.1090  171.8610  135.2250 C   0  0  0  0  0  0  0  0  0  0  0  0
  188.0960  172.4890  136.5770 C   0  0  0  0  0  2  0  0  0  0  0  0
  192.4250  173.2220  136.1160 C   0  0  2  0  0  0  0  0  0  0  0  0
  191.6790  175.3290  137.5140 C   0  0  1  0  0  3  0  0  0  0  0  0
  188.7180  173.8460  136.5550 C   0  0  0  0  0  3  0  0  0  0  0  0
  186.8790  171.4380  134.6490 N   0  0  0  0  0  1  0  0  0  0  0  0
  190.9490  172.9860  135.8460 C   0  0  0  0  0  0  0  0  0  0  0  0
  189.2480  171.5590  134.6020 C   0  0  0  0  0  3  0  0  0  0  0  0
  189.9950  174.0670  136.2250 C   0  0  0  0  0  0  0  0  0  0  0  0
  190.5990  171.9390  135.0690 C   0  0  0  0  0  3  0  0  0  0  0  0
  193.0390  173.9290  134.8870 C   0  0  0  0  0  3  0  0  0  0  0  0
  194.2080  174.8160  135.2800 C   0  0  0  0  0  2  0  0  0  0  0  0
  194.4670  173.4800  134.5940 C   0  0  0  0  0  2  0  0  0  0  0  0
  192.4140  176.5220  137.6030 O   0  0  0  0  0  0  0  0  0  0  0  0
  193.1920  176.3560  138.7530 C   0  0  0  0  0  1  0  0  0  0  0  0
  187.8130  178.5690  137.0920 C   0  0  0  0  0  2  0  0  0  0  0  0
  185.6490  178.5210  138.0410 O   0  0  0  0  0  1  0  0  0  0  0  0
  186.6050  177.7110  137.4320 C   0  0  0  0  0  2  0  0  0  0  0  0
  187.8450  178.6040  144.8000 O   0  0  0  0  0  0  0  0  0  0  0  0
  186.1500  177.2800  145.8350 C   0  0  0  0  0  1  0  0  0  0  0  0
  186.7300  177.8030  144.5250 C   0  0  1  0  0  3  0  0  0  0  0  0
  185.6800  178.6490  143.8230 C   0  0  0  0  0  2  0  0  0  0  0  0
  185.2870  178.0270  142.4950 C   0  0  0  0  0  2  0  0  0  0  0  0
  183.7770  178.1290  142.2950 C   0  0  1  0  0  3  0  0  0  0  0  0
  181.8760  179.2800  143.1390 O   0  0  0  0  0  0  0  0  0  0  0  0
  183.8840  179.9890  143.9840 O   0  0  0  0  0  1  0  0  0  0  0  0
  183.1230  179.1450  143.1820 C   0  0  0  0  0  0  0  0  0  0  0  0
  183.3980  178.3090  140.8280 C   0  0  0  0  0  2  0  0  0  0  0  0
  182.2340  177.5100  140.4570 N   0  0  0  0  0  2  0  0  0  0  0  0
  182.1720  177.4400  139.0000 C   0  0  1  0  0  3  0  0  0  0  0  0
  183.0690  176.3200  138.5160 C   0  0  0  0  0  1  0  0  0  0  0  0
  180.7450  177.2290  138.4890 C   0  0  2  0  0  3  0  0  0  0  0  0
  179.8450  178.3710  138.8420 C   0  0  0  0  0  0  0  0  0  0  0  0
  179.4230  179.2740  137.8700 O   0  0  0  0  0  0  0  0  0  0  0  0
  179.4290  178.4840  140.0230 O   0  0  0  0  0  1  0  0  0  0  0  0
  180.1940  175.9650  138.9610 N   0  0  0  0  0  2  0  0  0  0  0  0
  179.2140  175.5440  137.9740 C   0  0  0  0  0  2  0  0  0  0  0  0
  179.8950  175.2620  136.6440 C   0  0  0  0  0  2  0  0  0  0  0  0
  180.4530  173.8510  136.6140 C   0  0  0  0  0  2  0  0  0  0  0  0
  181.9250  173.8620  136.2300 C   0  0  0  0  0  2  0  0  0  0  0  0
  181.1820  172.0620  134.7080 F   0  0  0  0  0  0  0  0  0  0  0  0
  183.3570  172.4510  135.0020 O   0  0  0  0  0  0  0  0  0  0  0  0
  182.2050  172.7620  135.2620 C   0  0  0  0  0  0  0  0  0  0  0  0
  1 13  1  6  0  0  0
  1  9  1  0  0  0  0
  1 11  1  0  0  0  0
  2 12  1  0  0  0  0
  2  3  1  1  0  0  0
  4  8  1  0  0  0  0
  5 14  2  0  0  0  0
  6 15  1  6  0  0  0
  6  7  1  0  0  0  0
  6  9  1  0  0  0  0
  9  2  1  0  0  0  0
 10 13  1  0  0  0  0
 10  6  1  0  0  0  0
 10  7  1  0  0  0  0
 11 14  1  0  0  0  0
 12 41  1  0  0  0  0
 12  8  1  0  0  0  0
 14  4  1  0  0  0  0
 16 17  1  0  0  0  0
 16 18  1  0  0  0  0
 17 18  1  0  0  0  0
 18 10  1  0  0  0  0
 19 16  1  0  0  0  0
 21 19  1  0  0  0  0
 21 26  1  0  0  0  0
 22 26  1  0  0  0  0
 23 24  1  0  0  0  0
 25 20  1  0  0  0  0
 25 22  1  0  0  0  0
 26 36  1  0  0  0  0
 27 24  1  0  0  0  0
 28 23  1  0  0  0  0
 29 25  1  0  0  0  0
 29 31  1  0  0  0  0
 30 32  1  0  0  0  0
 30 23  2  0  0  0  0
 31 21  1  0  0  0  0
 31 27  2  0  0  0  0
 32 29  2  0  0  0  0
 33 34  1  0  0  0  0
 33 25  1  0  0  0  0
 35 33  1  0  0  0  0
 35 34  1  0  0  0  0
 36 37  1  0  0  0  0
 38 40  1  0  0  0  0
 38 17  1  0  0  0  0
 40 39  1  0  0  0  0
 43 41  1  0  0  0  0
 43 42  1  0  0  0  0
 44 43  1  0  0  0  0
 45 44  1  0  0  0  0
 46 45  1  0  0  0  0
 46 49  1  0  0  0  0
 47 49  2  0  0  0  0
 49 48  1  0  0  0  0
 50 46  1  0  0  0  0
 51 50  1  0  0  0  0
 52 51  1  0  0  0  0
 53 52  1  0  0  0  0
 54 55  1  0  0  0  0
 54 58  1  0  0  0  0
 54 52  1  0  0  0  0
 55 57  1  0  0  0  0
 56 55  2  0  0  0  0
 59 58  1  0  0  0  0
 60 59  1  0  0  0  0
 61 60  1  0  0  0  0
 62 61  1  0  0  0  0
 63 65  1  0  0  0  0
 64 65  2  0  0  0  0
 65 62  1  0  0  0  0
M  END
>  <MODEL>
3

>  <REMARK>
 VINA RESULT:      -4.8      3.005      4.698
  Name = 
  24 active torsions:
  status: ('A' for Active; 'I' for Inactive)
    1  A    between atoms: C_1  and  C_19
    2  A    between atoms: C_2  and  C_48
    3  A    between atoms: C_2  and  C_56
    4  A    between atoms: C_4  and  C_57
    5  A    between atoms: C_11  and  CA_55
    6  A    between atoms: O_15  and  C_29
    7  A    between atoms: N_18  and  C_57
    8  A    between atoms: C_22  and  C_53
    9  A    between atoms: C_22  and  C_58
   10  A    between atoms: C_25  and  N_34
   11  A    between atoms: C_25  and  CA_55
   12  A    between atoms: C_27  and  C_47
   13  A    between atoms: C_27  and  C_48
   14  A    between atoms: C_27  and  C_50
   15  A    between atoms: O_28  and  C_44
   16  A    between atoms: O_28  and  C_56
   17  A    between atoms: C_32  and  C_45
   18  A    between atoms: N_34  and  C_47
   19  A    between atoms: C_36  and  C_42
   20  A    between atoms: C_45  and  C_65
   21  A    between atoms: C_46  and  N_59
   22  A    between atoms: C_46  and  C_60
   23  A    between atoms: C_53  and  C_60
   24  A    between atoms: CA_55  and  N_59
                            x       y       z     vdW  Elec       q    Type
                         _______ _______ _______ _____ _____    ______ ____

>  <TORSDO>
F 24

$$$$
=
 OpenBabel11062417083D

 65 71  0  0  1  0  0  0  0  0999 V2000
  191.2590  177.6730  141.6240 C   0  0  1  0  0  3  0  0  0  0  0  0
  189.9050  178.8770  143.6240 C   0  0  1  0  0  3  0  0  0  0  0  0
  191.1410  179.3770  144.3540 C   0  0  0  0  0  1  0  0  0  0  0  0
  191.1370  176.4060  144.9780 C   0  0  0  0  0  2  0  0  0  0  0  0
  190.7870  174.9560  143.1480 O   0  0  0  0  0  0  0  0  0  0  0  0
  188.8420  178.1410  141.4020 C   0  0  1  0  0  0  0  0  0  0  0  0
  188.3660  176.6980  141.4590 C   0  0  0  0  0  2  0  0  0  0  0  0
  189.7430  176.8890  145.3620 C   0  0  0  0  0  2  0  0  0  0  0  0
  190.1100  178.5890  142.1180 C   0  0  2  0  0  3  0  0  0  0  0  0
  189.2610  177.1690  140.3280 C   0  0  2  0  0  0  0  0  0  0  0  0
  192.0710  176.8810  142.6490 C   0  0  0  0  0  2  0  0  0  0  0  0
  189.0450  177.8280  144.3610 C   0  0  1  0  0  3  0  0  0  0  0  0
  190.7200  176.7780  140.5120 C   0  0  0  0  0  2  0  0  0  0  0  0
  191.2530  176.0120  143.5480 C   0  0  0  0  0  0  0  0  0  0  0  0
  187.9050  179.1020  141.0080 O   0  0  0  0  0  1  0  0  0  0  0  0
  189.5540  177.3370  137.8910 N   0  0  0  0  0  0  0  0  0  0  0  0
  188.5270  178.3670  138.2610 C   0  0  2  0  0  3  0  0  0  0  0  0
  188.5650  177.0740  138.9700 C   0  0  2  0  0  3  0  0  0  0  0  0
  189.2040  176.5600  136.6880 C   0  0  0  0  0  2  0  0  0  0  0  0
  192.8120  172.1710  136.0430 O   0  0  0  0  0  1  0  0  0  0  0  0
  190.2100  175.4440  136.3500 C   0  0  1  0  0  3  0  0  0  0  0  0
  192.3640  174.2510  137.0960 C   0  0  0  0  0  2  0  0  0  0  0  0
  187.8090  171.7550  135.3220 C   0  0  0  0  0  0  0  0  0  0  0  0
  187.8800  172.3580  136.6840 C   0  0  0  0  0  2  0  0  0  0  0  0
  192.0980  173.3640  135.8580 C   0  0  2  0  0  0  0  0  0  0  0  0
  191.3560  175.3980  137.3630 C   0  0  1  0  0  3  0  0  0  0  0  0
  188.4150  173.7510  136.6370 C   0  0  0  0  0  3  0  0  0  0  0  0
  186.5600  171.2670  134.8490 N   0  0  0  0  0  1  0  0  0  0  0  0
  190.6210  173.0420  135.7150 C   0  0  0  0  0  0  0  0  0  0  0  0
  188.9030  171.5350  134.5950 C   0  0  0  0  0  3  0  0  0  0  0  0
  189.6410  174.0560  136.2000 C   0  0  0  0  0  0  0  0  0  0  0  0
  190.2660  171.9890  134.9480 C   0  0  0  0  0  3  0  0  0  0  0  0
  192.5550  174.1280  134.5960 C   0  0  0  0  0  3  0  0  0  0  0  0
  193.0430  175.5270  134.9360 C   0  0  0  0  0  2  0  0  0  0  0  0
  194.0500  174.4350  134.5940 C   0  0  0  0  0  2  0  0  0  0  0  0
  192.0230  176.6320  137.4130 O   0  0  0  0  0  0  0  0  0  0  0  0
  193.2840  176.3150  137.9280 C   0  0  0  0  0  1  0  0  0  0  0  0
  187.3250  178.4620  137.3070 C   0  0  0  0  0  2  0  0  0  0  0  0
  185.4170  177.2560  136.6020 O   0  0  0  0  0  1  0  0  0  0  0  0
  186.1830  177.5510  137.7280 C   0  0  0  0  0  2  0  0  0  0  0  0
  187.9600  178.4510  144.9940 O   0  0  0  0  0  0  0  0  0  0  0  0
  186.3130  176.9580  145.8620 C   0  0  0  0  0  1  0  0  0  0  0  0
  186.8240  177.7110  144.6390 C   0  0  1  0  0  3  0  0  0  0  0  0
  185.7440  178.6690  144.1640 C   0  0  0  0  0  2  0  0  0  0  0  0
  185.2680  178.2960  142.7720 C   0  0  0  0  0  2  0  0  0  0  0  0
  183.7450  178.3720  142.7000 C   0  0  1  0  0  3  0  0  0  0  0  0
  183.5760  180.3540  144.0010 O   0  0  0  0  0  0  0  0  0  0  0  0
  182.1520  178.6710  144.6240 O   0  0  0  0  0  1  0  0  0  0  0  0
  183.1360  179.1980  143.7920 C   0  0  0  0  0  0  0  0  0  0  0  0
  183.2500  178.7810  141.3170 C   0  0  0  0  0  2  0  0  0  0  0  0
  182.0940  177.9970  140.8900 N   0  0  0  0  0  2  0  0  0  0  0  0
  182.2210  177.7350  139.4590 C   0  0  1  0  0  3  0  0  0  0  0  0
  182.8890  176.3910  139.2560 C   0  0  0  0  0  1  0  0  0  0  0  0
  180.8700  177.7660  138.7410 C   0  0  2  0  0  3  0  0  0  0  0  0
  180.6740  176.5760  137.8580 C   0  0  0  0  0  0  0  0  0  0  0  0
  181.6630  176.1820  136.9610 O   0  0  0  0  0  0  0  0  0  0  0  0
  179.6200  175.8970  137.9640 O   0  0  0  0  0  1  0  0  0  0  0  0
  180.6950  179.0050  137.9940 N   0  0  0  0  0  2  0  0  0  0  0  0
  181.6780  179.9440  138.5080 C   0  0  0  0  0  2  0  0  0  0  0  0
  181.0550  181.3210  138.6720 C   0  0  0  0  0  2  0  0  0  0  0  0
  179.9750  181.5500  137.6290 C   0  0  0  0  0  2  0  0  0  0  0  0
  180.5920  181.8520  136.2720 C   0  0  0  0  0  2  0  0  0  0  0  0
  180.4380  183.6610  134.5940 F   0  0  0  0  0  0  0  0  0  0  0  0
  179.9880  184.0820  136.7360 O   0  0  0  0  0  0  0  0  0  0  0  0
  180.3010  183.2640  135.8860 C   0  0  0  0  0  0  0  0  0  0  0  0
  1 13  1  6  0  0  0
  1  9  1  0  0  0  0
  1 11  1  0  0  0  0
  2  3  1  1  0  0  0
  2 12  1  0  0  0  0
  4  8  1  0  0  0  0
  5 14  2  0  0  0  0
  6 15  1  6  0  0  0
  6  7  1  0  0  0  0
  6  9  1  0  0  0  0
  9  2  1  0  0  0  0
 10 13  1  0  0  0  0
 10  6  1  0  0  0  0
 10  7  1  0  0  0  0
 11 14  1  0  0  0  0
 12 41  1  0  0  0  0
 12  8  1  0  0  0  0
 14  4  1  0  0  0  0
 16 17  1  0  0  0  0
 16 18  1  0  0  0  0
 17 18  1  0  0  0  0
 18 10  1  0  0  0  0
 19 16  1  0  0  0  0
 21 19  1  0  0  0  0
 21 26  1  0  0  0  0
 22 26  1  0  0  0  0
 23 24  1  0  0  0  0
 25 20  1  0  0  0  0
 25 22  1  0  0  0  0
 26 36  1  0  0  0  0
 27 24  1  0  0  0  0
 28 23  1  0  0  0  0
 29 25  1  0  0  0  0
 29 31  1  0  0  0  0
 30 32  1  0  0  0  0
 30 23  2  0  0  0  0
 31 21  1  0  0  0  0
 31 27  2  0  0  0  0
 32 29  2  0  0  0  0
 33 34  1  0  0  0  0
 33 25  1  0  0  0  0
 35 33  1  0  0  0  0
 35 34  1  0  0  0  0
 36 37  1  0  0  0  0
 38 40  1  0  0  0  0
 38 17  1  0  0  0  0
 39 40  1  0  0  0  0
 43 41  1  0  0  0  0
 43 42  1  0  0  0  0
 44 43  1  0  0  0  0
 45 44  1  0  0  0  0
 46 45  1  0  0  0  0
 46 49  1  0  0  0  0
 49 47  2  0  0  0  0
 49 48  1  0  0  0  0
 50 46  1  0  0  0  0
 51 50  1  0  0  0  0
 52 51  1  0  0  0  0
 53 52  1  0  0  0  0
 54 52  1  0  0  0  0
 55 57  1  0  0  0  0
 55 54  1  0  0  0  0
 56 55  2  0  0  0  0
 58 59  1  0  0  0  0
 58 54  1  0  0  0  0
 59 60  1  0  0  0  0
 61 60  1  0  0  0  0
 62 61  1  0  0  0  0
 63 65  1  0  0  0  0
 65 62  1  0  0  0  0
 65 64  2  0  0  0  0
M  END
>  <MODEL>
4

>  <REMARK>
 VINA RESULT:      -4.5      2.103      3.413
  Name = 
  24 active torsions:
  status: ('A' for Active; 'I' for Inactive)
    1  A    between atoms: C_1  and  C_19
    2  A    between atoms: C_2  and  C_48
    3  A    between atoms: C_2  and  C_56
    4  A    between atoms: C_4  and  C_57
    5  A    between atoms: C_11  and  CA_55
    6  A    between atoms: O_15  and  C_29
    7  A    between atoms: N_18  and  C_57
    8  A    between atoms: C_22  and  C_53
    9  A    between atoms: C_22  and  C_58
   10  A    between atoms: C_25  and  N_34
   11  A    between atoms: C_25  and  CA_55
   12  A    between atoms: C_27  and  C_47
   13  A    between atoms: C_27  and  C_48
   14  A    between atoms: C_27  and  C_50
   15  A    between atoms: O_28  and  C_44
   16  A    between atoms: O_28  and  C_56
   17  A    between atoms: C_32  and  C_45
   18  A    between atoms: N_34  and  C_47
   19  A    between atoms: C_36  and  C_42
   20  A    between atoms: C_45  and  C_65
   21  A    between atoms: C_46  and  N_59
   22  A    between atoms: C_46  and  C_60
   23  A    between atoms: C_53  and  C_60
   24  A    between atoms: CA_55  and  N_59
                            x       y       z     vdW  Elec       q    Type
                         _______ _______ _______ _____ _____    ______ ____

>  <TORSDO>
F 24

$$$$
=
 OpenBabel11062417083D

 65 71  0  0  1  0  0  0  0  0999 V2000
  187.9660  176.3950  143.6590 C   0  0  1  0  0  3  0  0  0  0  0  0
  190.2660  176.3600  142.2480 C   0  0  1  0  0  3  0  0  0  0  0  0
  190.9490  175.3120  143.1130 C   0  0  0  0  0  1  0  0  0  0  0  0
  191.0440  177.7970  144.8530 C   0  0  0  0  0  2  0  0  0  0  0  0
  189.0320  179.0200  145.0390 O   0  0  0  0  0  0  0  0  0  0  0  0
  188.0640  177.3700  141.3900 C   0  0  1  0  0  0  0  0  0  0  0  0
  187.9140  178.8260  141.8040 C   0  0  0  0  0  2  0  0  0  0  0  0
  191.6390  178.2320  143.5180 C   0  0  0  0  0  2  0  0  0  0  0  0
  188.7200  176.3450  142.3060 C   0  0  2  0  0  3  0  0  0  0  0  0
  186.8010  177.8300  142.0740 C   0  0  2  0  0  0  0  0  0  0  0  0
  188.7540  176.6710  144.9400 C   0  0  0  0  0  2  0  0  0  0  0  0
  190.8890  177.7720  142.2540 C   0  0  1  0  0  3  0  0  0  0  0  0
  186.7730  177.3350  143.5130 C   0  0  0  0  0  2  0  0  0  0  0  0
  189.5620  177.9270  144.9090 C   0  0  0  0  0  0  0  0  0  0  0  0
  187.9350  177.0840  140.0270 O   0  0  0  0  0  1  0  0  0  0  0  0
  185.5040  179.6450  141.0390 N   0  0  0  0  0  0  0  0  0  0  0  0
  184.6210  179.0510  142.0990 C   0  0  2  0  0  3  0  0  0  0  0  0
  185.5210  178.1840  141.3160 C   0  0  2  0  0  3  0  0  0  0  0  0
  184.8050  179.9070  139.7680 C   0  0  0  0  0  2  0  0  0  0  0  0
  182.1160  175.6680  137.0310 O   0  0  0  0  0  1  0  0  0  0  0  0
  184.0790  178.6790  139.1890 C   0  0  1  0  0  3  0  0  0  0  0  0
  181.9970  177.8690  137.9140 C   0  0  0  0  0  2  0  0  0  0  0  0
  187.1500  176.2700  136.9110 C   0  0  0  0  0  0  0  0  0  0  0  0
  186.6640  177.6170  136.4960 C   0  0  0  0  0  2  0  0  0  0  0  0
  182.6790  176.4860  138.0220 C   0  0  2  0  0  0  0  0  0  0  0  0
  182.7380  179.0660  138.5630 C   0  0  1  0  0  3  0  0  0  0  0  0
  185.9680  178.3150  137.6180 C   0  0  0  0  0  3  0  0  0  0  0  0
  188.5330  175.9650  136.7770 N   0  0  0  0  0  1  0  0  0  0  0  0
  184.1770  176.5880  137.7900 C   0  0  0  0  0  0  0  0  0  0  0  0
  186.3100  175.3010  137.2700 C   0  0  0  0  0  3  0  0  0  0  0  0
  184.8550  177.8520  138.1980 C   0  0  0  0  0  0  0  0  0  0  0  0
  184.8520  175.4670  137.4620 C   0  0  0  0  0  3  0  0  0  0  0  0
  182.4430  175.9280  139.4430 C   0  0  0  0  0  3  0  0  0  0  0  0
  181.0280  176.2030  139.9220 C   0  0  0  0  0  2  0  0  0  0  0  0
  181.4170  174.7990  139.4760 C   0  0  0  0  0  2  0  0  0  0  0  0
  181.9130  179.6960  139.5070 O   0  0  0  0  0  0  0  0  0  0  0  0
  180.8780  180.2430  138.7420 C   0  0  0  0  0  1  0  0  0  0  0  0
  183.1490  178.8650  141.6940 C   0  0  0  0  0  2  0  0  0  0  0  0
  180.9580  178.5230  142.5130 O   0  0  0  0  0  1  0  0  0  0  0  0
  182.2040  179.0330  142.8730 C   0  0  0  0  0  2  0  0  0  0  0  0
  191.7230  177.9380  141.1390 O   0  0  0  0  0  0  0  0  0  0  0  0
  190.4330  177.8410  139.1330 C   0  0  0  0  0  1  0  0  0  0  0  0
  191.2440  177.0580  140.1600 C   0  0  1  0  0  3  0  0  0  0  0  0
  192.4290  176.4100  139.4610 C   0  0  0  0  0  2  0  0  0  0  0  0
  192.2180  176.3830  137.9580 C   0  0  0  0  0  2  0  0  0  0  0  0
  192.4610  174.9760  137.4190 C   0  0  1  0  0  3  0  0  0  0  0  0
  191.6510  175.7530  135.3240 O   0  0  0  0  0  0  0  0  0  0  0  0
  191.5930  173.4790  135.5940 O   0  0  0  0  0  1  0  0  0  0  0  0
  191.9050  174.7580  136.0450 C   0  0  0  0  0  0  0  0  0  0  0  0
  193.9240  174.5590  137.5280 C   0  0  0  0  0  2  0  0  0  0  0  0
  194.4740  174.1340  136.2430 N   0  0  0  0  0  2  0  0  0  0  0  0
  195.7740  173.5150  136.4830 C   0  0  1  0  0  3  0  0  0  0  0  0
  195.5910  172.2960  137.3640 C   0  0  0  0  0  1  0  0  0  0  0  0
  196.4790  173.1230  135.1830 C   0  0  2  0  0  3  0  0  0  0  0  0
  196.3370  171.6650  134.8810 C   0  0  0  0  0  0  0  0  0  0  0  0
  195.0920  171.1140  134.5930 O   0  0  0  0  0  0  0  0  0  0  0  0
  197.3650  170.9420  134.8410 O   0  0  0  0  0  1  0  0  0  0  0  0
  197.8820  173.5180  135.2010 N   0  0  0  0  0  2  0  0  0  0  0  0
  197.9850  174.6470  136.1100 C   0  0  0  0  0  2  0  0  0  0  0  0
  199.1220  174.4270  137.0960 C   0  0  0  0  0  2  0  0  0  0  0  0
  198.5860  173.9700  138.4410 C   0  0  0  0  0  2  0  0  0  0  0  0
  198.7210  175.0740  139.4780 C   0  0  0  0  0  2  0  0  0  0  0  0
  197.3550  176.0960  141.2670 F   0  0  0  0  0  0  0  0  0  0  0  0
  196.4730  174.5410  139.9360 O   0  0  0  0  0  0  0  0  0  0  0  0
  197.4390  175.2290  140.2250 C   0  0  0  0  0  0  0  0  0  0  0  0
  1 13  1  6  0  0  0
  1 11  1  0  0  0  0
  2 12  1  0  0  0  0
  2  9  1  0  0  0  0
  2  3  1  1  0  0  0
  4 14  1  0  0  0  0
  6 15  1  6  0  0  0
  6  7  1  0  0  0  0
  6 10  1  0  0  0  0
  6  9  1  0  0  0  0
  7 10  1  0  0  0  0
  8  4  1  0  0  0  0
  9  1  1  0  0  0  0
 10 13  1  0  0  0  0
 12  8  1  0  0  0  0
 14 11  1  0  0  0  0
 14  5  2  0  0  0  0
 16 18  1  0  0  0  0
 16 17  1  0  0  0  0
 18 10  1  0  0  0  0
 18 17  1  0  0  0  0
 19 16  1  0  0  0  0
 20 25  1  0  0  0  0
 21 19  1  0  0  0  0
 22 25  1  0  0  0  0
 22 26  1  0  0  0  0
 23 30  2  0  0  0  0
 24 23  1  0  0  0  0
 24 27  1  0  0  0  0
 25 33  1  0  0  0  0
 26 21  1  0  0  0  0
 26 36  1  0  0  0  0
 27 31  2  0  0  0  0
 28 23  1  0  0  0  0
 29 25  1  0  0  0  0
 29 31  1  0  0  0  0
 30 32  1  0  0  0  0
 31 21  1  0  0  0  0
 32 29  2  0  0  0  0
 33 35  1  0  0  0  0
 33 34  1  0  0  0  0
 35 34  1  0  0  0  0
 37 36  1  0  0  0  0
 38 17  1  0  0  0  0
 38 40  1  0  0  0  0
 39 40  1  0  0  0  0
 41 12  1  0  0  0  0
 42 43  1  0  0  0  0
 43 41  1  0  0  0  0
 44 43  1  0  0  0  0
 45 44  1  0  0  0  0
 46 50  1  0  0  0  0
 46 45  1  0  0  0  0
 47 49  2  0  0  0  0
 48 49  1  0  0  0  0
 49 46  1  0  0  0  0
 51 52  1  0  0  0  0
 51 50  1  0  0  0  0
 52 53  1  0  0  0  0
 54 58  1  0  0  0  0
 54 52  1  0  0  0  0
 55 54  1  0  0  0  0
 56 55  2  0  0  0  0
 57 55  1  0  0  0  0
 58 59  1  0  0  0  0
 59 60  1  0  0  0  0
 60 61  1  0  0  0  0
 61 62  1  0  0  0  0
 62 65  1  0  0  0  0
 64 65  2  0  0  0  0
 65 63  1  0  0  0  0
M  END
>  <MODEL>
5

>  <REMARK>
 VINA RESULT:      -3.6      3.906     10.486
  Name = 
  24 active torsions:
  status: ('A' for Active; 'I' for Inactive)
    1  A    between atoms: C_1  and  C_19
    2  A    between atoms: C_2  and  C_48
    3  A    between atoms: C_2  and  C_56
    4  A    between atoms: C_4  and  C_57
    5  A    between atoms: C_11  and  CA_55
    6  A    between atoms: O_15  and  C_29
    7  A    between atoms: N_18  and  C_57
    8  A    between atoms: C_22  and  C_53
    9  A    between atoms: C_22  and  C_58
   10  A    between atoms: C_25  and  N_34
   11  A    between atoms: C_25  and  CA_55
   12  A    between atoms: C_27  and  C_47
   13  A    between atoms: C_27  and  C_48
   14  A    between atoms: C_27  and  C_50
   15  A    between atoms: O_28  and  C_44
   16  A    between atoms: O_28  and  C_56
   17  A    between atoms: C_32  and  C_45
   18  A    between atoms: N_34  and  C_47
   19  A    between atoms: C_36  and  C_42
   20  A    between atoms: C_45  and  C_65
   21  A    between atoms: C_46  and  N_59
   22  A    between atoms: C_46  and  C_60
   23  A    between atoms: C_53  and  C_60
   24  A    between atoms: CA_55  and  N_59
                            x       y       z     vdW  Elec       q    Type
                         _______ _______ _______ _____ _____    ______ ____

>  <TORSDO>
F 24

$$$$
