=
 OpenBabel11062418003D

 40 43  0  0  1  0  0  0  0  0999 V2000
  183.0480  178.3730  142.4230 N   0  0  1  0  0  0  0  0  0  0  0  0
  185.0280  179.5200  139.9590 N   0  0  0  0  0  2  0  0  0  0  0  0
  184.8770  178.6460  140.8880 C   0  0  0  0  0  0  0  0  0  0  0  0
  184.0780  179.1170  143.1560 C   0  0  2  0  0  3  0  0  0  0  0  0
  181.9550  179.3000  142.1520 C   0  0  0  0  0  2  0  0  0  0  0  0
  182.5150  178.2760  140.0590 C   0  0  1  0  0  3  0  0  0  0  0  0
  185.7260  178.8600  142.4220 S   0  0  0  0  0  0  0  0  0  0  0  0
  181.3830  178.9560  140.7950 C   0  0  0  0  0  2  0  0  0  0  0  0
  183.5690  177.9660  141.1150 C   0  0  2  0  0  3  0  0  0  0  0  0
  181.1330  174.6380  138.1960 C   0  0  0  0  0  3  0  0  0  0  0  0
  180.5030  175.1360  139.3360 C   0  0  0  0  0  3  0  0  0  0  0  0
  182.2160  175.3230  137.6440 C   0  0  0  0  0  3  0  0  0  0  0  0
  182.0440  177.0230  139.3700 C   0  0  0  0  0  0  0  0  0  0  0  0
  182.6920  176.5160  138.2120 C   0  0  0  0  0  0  0  0  0  0  0  0
  180.9580  176.3160  139.9190 C   0  0  0  0  0  3  0  0  0  0  0  0
  183.7200  178.2480  136.9180 O   0  0  0  0  0  0  0  0  0  0  0  0
  185.1570  176.5900  137.6890 N   0  0  0  0  0  2  0  0  0  0  0  0
  183.8570  177.1740  137.5670 C   0  0  0  0  0  0  0  0  0  0  0  0
  186.3390  177.1500  137.0500 C   0  0  0  0  0  2  0  0  0  0  0  0
  187.5900  176.5190  137.6350 C   0  0  0  0  0  2  0  0  0  0  0  0
  188.8090  177.3590  137.2960 C   0  0  0  0  0  2  0  0  0  0  0  0
  188.9290  179.7330  137.4630 O   0  0  0  0  0  0  0  0  0  0  0  0
  188.6720  178.6140  139.4820 N   0  0  0  0  0  1  0  0  0  0  0  0
  188.7960  178.6350  138.0640 C   0  0  0  0  0  0  0  0  0  0  0  0
  182.9750  178.5640  145.1940 O   0  0  0  0  0  0  0  0  0  0  0  0
  184.0760  178.7100  144.5990 C   0  0  0  0  0  0  0  0  0  0  0  0
  185.3380  178.4860  145.3280 C   0  0  0  0  0  0  0  0  0  0  0  0
  187.5650  177.7550  146.9690 C   0  0  2  0  0  3  0  0  0  0  0  0
  186.2180  177.3250  144.9120 C   0  0  0  0  0  2  0  0  0  0  0  0
  187.6380  177.3940  145.4830 C   0  0  1  0  0  3  0  0  0  0  0  0
  186.9380  179.1330  147.1450 C   0  0  0  0  0  2  0  0  0  0  0  0
  185.6500  179.2550  146.3840 C   0  0  0  0  0  3  0  0  0  0  0  0
  188.5020  178.3690  144.6800 C   0  0  0  0  0  2  0  0  0  0  0  0
  188.9870  177.7320  143.3830 C   0  0  0  0  0  2  0  0  0  0  0  0
  189.1050  176.2230  143.5230 C   0  0  0  0  0  2  0  0  0  0  0  0
  190.3830  175.7260  142.8740 C   0  0  0  0  0  2  0  0  0  0  0  0
  191.5490  176.5580  143.3650 C   0  0  0  0  0  1  0  0  0  0  0  0
  188.9280  177.6920  147.6540 C   0  0  0  0  0  2  0  0  0  0  0  0
  191.0350  176.5930  146.9910 C   0  0  0  0  0  2  0  0  0  0  0  0
  189.7200  176.5120  147.1770 C   0  0  0  0  0  3  0  0  0  0  0  0
  1  5  1  6  0  0  0
  1  4  1  0  0  0  0
  2  3  2  0  0  0  0
  3  7  1  0  0  0  0
  4 26  1  1  0  0  0
  6 13  1  1  0  0  0
  6  8  1  0  0  0  0
  6  9  1  0  0  0  0
  7  4  1  0  0  0  0
  8  5  1  0  0  0  0
  9  3  1  6  0  0  0
  9  1  1  0  0  0  0
 10 11  1  0  0  0  0
 11 15  2  0  0  0  0
 12 10  2  0  0  0  0
 12 14  1  0  0  0  0
 13 15  1  0  0  0  0
 14 13  2  0  0  0  0
 16 18  2  0  0  0  0
 18 17  1  0  0  0  0
 18 14  1  0  0  0  0
 19 20  1  0  0  0  0
 19 17  1  0  0  0  0
 21 20  1  0  0  0  0
 21 24  1  0  0  0  0
 22 24  2  0  0  0  0
 24 23  1  0  0  0  0
 26 25  2  0  0  0  0
 26 27  1  0  0  0  0
 27 32  2  0  0  0  0
 28 31  1  0  0  0  0
 28 38  1  6  0  0  0
 29 27  1  0  0  0  0
 29 30  1  0  0  0  0
 30 33  1  6  0  0  0
 30 28  1  0  0  0  0
 32 31  1  0  0  0  0
 34 35  1  0  0  0  0
 34 33  1  0  0  0  0
 36 37  1  0  0  0  0
 36 35  1  0  0  0  0
 39 40  2  0  0  0  0
 40 38  1  0  0  0  0
M  END
>  <MODEL>
1

>  <REMARK>
 VINA RESULT:      -7.7      0.000      0.000
  Name = 
  14 active torsions:
  status: ('A' for Active; 'I' for Inactive)
    1  A    between atoms: C_7  and  C_8
    2  A    between atoms: C_7  and  C_23
    3  A    between atoms: C_8  and  N_31
    4  A    between atoms: C_9  and  C_11
    5  A    between atoms: C_11  and  C_18
    6  A    between atoms: C_14  and  C_16
    7  A    between atoms: C_15  and  C_19
    8  A    between atoms: C_15  and  C_29
    9  A    between atoms: C_19  and  C_36
   10  A    between atoms: C_20  and  C_29
   11  A    between atoms: C_23  and  C_40
   12  A    between atoms: C_24  and  C_25
   13  A    between atoms: C_24  and  C_26
   14  A    between atoms: C_27  and  C_35
                            x       y       z     vdW  Elec       q    Type
                         _______ _______ _______ _____ _____    ______ ____

>  <TORSDO>
F 14

$$$$
=
 OpenBabel11062418003D

 40 43  0  0  1  0  0  0  0  0999 V2000
  187.6030  177.4750  139.3180 N   0  0  1  0  0  0  0  0  0  0  0  0
  187.4950  179.7170  136.8140 N   0  0  0  0  0  2  0  0  0  0  0  0
  187.8430  178.5350  137.1740 C   0  0  0  0  0  0  0  0  0  0  0  0
  188.9830  177.9730  139.2690 C   0  0  2  0  0  3  0  0  0  0  0  0
  186.8770  178.3090  140.2700 C   0  0  0  0  0  2  0  0  0  0  0  0
  185.5720  178.2730  138.2600 C   0  0  1  0  0  3  0  0  0  0  0  0
  189.5380  178.2100  137.5500 S   0  0  0  0  0  0  0  0  0  0  0  0
  185.4650  178.4750  139.7540 C   0  0  0  0  0  2  0  0  0  0  0  0
  186.9570  177.6830  138.0190 C   0  0  2  0  0  3  0  0  0  0  0  0
  182.5390  175.6270  136.7040 C   0  0  0  0  0  3  0  0  0  0  0  0
  183.8810  175.4430  136.3730 C   0  0  0  0  0  3  0  0  0  0  0  0
  182.1690  176.6720  137.5510 C   0  0  0  0  0  3  0  0  0  0  0  0
  184.4910  177.3550  137.7530 C   0  0  0  0  0  0  0  0  0  0  0  0
  183.1250  177.5500  138.0880 C   0  0  0  0  0  0  0  0  0  0  0  0
  184.8470  176.3010  136.8910 C   0  0  0  0  0  3  0  0  0  0  0  0
  182.6770  179.8460  138.5980 O   0  0  0  0  0  0  0  0  0  0  0  0
  182.1230  178.3250  140.2680 N   0  0  0  0  0  2  0  0  0  0  0  0
  182.6430  178.6410  138.9730 C   0  0  0  0  0  0  0  0  0  0  0  0
  181.6730  179.3390  141.2090 C   0  0  0  0  0  2  0  0  0  0  0  0
  181.9860  178.9010  142.6290 C   0  0  0  0  0  2  0  0  0  0  0  0
  183.4760  178.6560  142.7870 C   0  0  0  0  0  2  0  0  0  0  0  0
  184.9390  180.1840  143.8830 O   0  0  0  0  0  0  0  0  0  0  0  0
  183.4600  179.0610  145.2790 N   0  0  0  0  0  1  0  0  0  0  0  0
  183.9980  179.3560  143.9940 C   0  0  0  0  0  0  0  0  0  0  0  0
  190.4530  176.0990  139.3440 O   0  0  0  0  0  0  0  0  0  0  0  0
  189.8960  177.0260  139.9900 C   0  0  0  0  0  0  0  0  0  0  0  0
  190.1420  177.1620  141.4380 C   0  0  0  0  0  0  0  0  0  0  0  0
  190.8650  177.7670  144.1390 C   0  0  2  0  0  3  0  0  0  0  0  0
  189.3140  178.1580  142.2240 C   0  0  0  0  0  2  0  0  0  0  0  0
  189.4000  177.9690  143.7410 C   0  0  1  0  0  3  0  0  0  0  0  0
  191.4160  176.5020  143.4920 C   0  0  0  0  0  2  0  0  0  0  0  0
  191.1350  176.4680  142.0180 C   0  0  0  0  0  3  0  0  0  0  0  0
  188.5000  176.8190  144.2010 C   0  0  0  0  0  2  0  0  0  0  0  0
  187.0980  177.3180  144.5260 C   0  0  0  0  0  2  0  0  0  0  0  0
  187.0750  178.0700  145.8470 C   0  0  0  0  0  2  0  0  0  0  0  0
  187.8120  177.2880  146.9180 C   0  0  0  0  0  2  0  0  0  0  0  0
  188.0420  178.1810  148.1190 C   0  0  0  0  0  1  0  0  0  0  0  0
  191.0600  177.7260  145.6530 C   0  0  0  0  0  2  0  0  0  0  0  0
  191.7020  176.0520  147.3470 C   0  0  0  0  0  2  0  0  0  0  0  0
  191.7290  176.4550  146.0790 C   0  0  0  0  0  3  0  0  0  0  0  0
  1  5  1  1  0  0  0
  2  3  2  0  0  0  0
  3  7  1  0  0  0  0
  4  1  1  0  0  0  0
  4 26  1  6  0  0  0
  6 13  1  1  0  0  0
  6  8  1  0  0  0  0
  7  4  1  0  0  0  0
  8  5  1  0  0  0  0
  9  3  1  6  0  0  0
  9  6  1  0  0  0  0
  9  1  1  0  0  0  0
 10 12  1  0  0  0  0
 11 10  2  0  0  0  0
 11 15  1  0  0  0  0
 12 14  2  0  0  0  0
 13 14  1  0  0  0  0
 14 18  1  0  0  0  0
 15 13  2  0  0  0  0
 16 18  2  0  0  0  0
 17 19  1  0  0  0  0
 18 17  1  0  0  0  0
 19 20  1  0  0  0  0
 20 21  1  0  0  0  0
 21 24  1  0  0  0  0
 22 24  2  0  0  0  0
 24 23  1  0  0  0  0
 25 26  2  0  0  0  0
 26 27  1  0  0  0  0
 27 32  2  0  0  0  0
 27 29  1  0  0  0  0
 28 38  1  1  0  0  0
 29 30  1  0  0  0  0
 30 28  1  0  0  0  0
 30 33  1  6  0  0  0
 31 28  1  0  0  0  0
 32 31  1  0  0  0  0
 33 34  1  0  0  0  0
 34 35  1  0  0  0  0
 35 36  1  0  0  0  0
 36 37  1  0  0  0  0
 38 40  1  0  0  0  0
 40 39  2  0  0  0  0
M  END
>  <MODEL>
2

>  <REMARK>
 VINA RESULT:      -7.7      2.035      5.238
  Name = 
  14 active torsions:
  status: ('A' for Active; 'I' for Inactive)
    1  A    between atoms: C_7  and  C_8
    2  A    between atoms: C_7  and  C_23
    3  A    between atoms: C_8  and  N_31
    4  A    between atoms: C_9  and  C_11
    5  A    between atoms: C_11  and  C_18
    6  A    between atoms: C_14  and  C_16
    7  A    between atoms: C_15  and  C_19
    8  A    between atoms: C_15  and  C_29
    9  A    between atoms: C_19  and  C_36
   10  A    between atoms: C_20  and  C_29
   11  A    between atoms: C_23  and  C_40
   12  A    between atoms: C_24  and  C_25
   13  A    between atoms: C_24  and  C_26
   14  A    between atoms: C_27  and  C_35
                            x       y       z     vdW  Elec       q    Type
                         _______ _______ _______ _____ _____    ______ ____

>  <TORSDO>
F 14

$$$$
=
 OpenBabel11062418003D

 40 43  0  0  1  0  0  0  0  0999 V2000
  188.3540  176.8560  138.6500 N   0  0  1  0  0  0  0  0  0  0  0  0
  189.1430  176.7810  135.3820 N   0  0  0  0  0  2  0  0  0  0  0  0
  189.3260  176.2490  136.5370 C   0  0  0  0  0  0  0  0  0  0  0  0
  189.6800  177.4860  138.6230 C   0  0  2  0  0  3  0  0  0  0  0  0
  187.3680  177.9230  138.5200 C   0  0  0  0  0  2  0  0  0  0  0  0
  186.8160  176.2770  136.8670 C   0  0  1  0  0  3  0  0  0  0  0  0
  190.7880  176.6400  137.4480 S   0  0  0  0  0  0  0  0  0  0  0  0
  186.2160  177.3870  137.6990 C   0  0  0  0  0  2  0  0  0  0  0  0
  188.1890  176.0030  137.4710 C   0  0  2  0  0  3  0  0  0  0  0  0
  184.4340  172.6800  136.9030 C   0  0  0  0  0  3  0  0  0  0  0  0
  185.7930  172.6360  137.2120 C   0  0  0  0  0  3  0  0  0  0  0  0
  183.8320  173.8980  136.5850 C   0  0  0  0  0  3  0  0  0  0  0  0
  185.9510  175.0460  136.8930 C   0  0  0  0  0  0  0  0  0  0  0  0
  184.5680  175.0940  136.5720 C   0  0  0  0  0  0  0  0  0  0  0  0
  186.5440  173.8080  137.2030 C   0  0  0  0  0  3  0  0  0  0  0  0
  184.0360  176.9020  135.0950 O   0  0  0  0  0  0  0  0  0  0  0  0
  182.9310  176.9240  137.1410 N   0  0  0  0  0  2  0  0  0  0  0  0
  183.8510  176.3450  136.2120 C   0  0  0  0  0  0  0  0  0  0  0  0
  182.2240  178.1700  136.8820 C   0  0  0  0  0  2  0  0  0  0  0  0
  182.0410  178.9400  138.1780 C   0  0  0  0  0  2  0  0  0  0  0  0
  182.8490  178.2950  139.2900 C   0  0  0  0  0  2  0  0  0  0  0  0
  184.4700  179.0120  140.8830 O   0  0  0  0  0  0  0  0  0  0  0  0
  184.2420  180.3840  139.0230 N   0  0  0  0  0  1  0  0  0  0  0  0
  183.9030  179.2280  139.7800 C   0  0  0  0  0  0  0  0  0  0  0  0
  191.5280  177.5400  140.1250 O   0  0  0  0  0  0  0  0  0  0  0  0
  190.2760  177.4870  139.9990 C   0  0  0  0  0  0  0  0  0  0  0  0
  189.4200  177.4220  141.1990 C   0  0  0  0  0  0  0  0  0  0  0  0
  187.5350  176.9970  143.3080 C   0  0  2  0  0  3  0  0  0  0  0  0
  189.6700  176.3190  142.2070 C   0  0  0  0  0  2  0  0  0  0  0  0
  188.9780  176.5490  143.5540 C   0  0  1  0  0  3  0  0  0  0  0  0
  187.5170  178.3220  142.5560 C   0  0  0  0  0  2  0  0  0  0  0  0
  188.3990  178.2820  141.3420 C   0  0  0  0  0  3  0  0  0  0  0  0
  189.7670  177.5440  144.4100 C   0  0  0  0  0  2  0  0  0  0  0  0
  190.3560  176.8640  145.6390 C   0  0  0  0  0  2  0  0  0  0  0  0
  189.9480  177.5850  146.9140 C   0  0  0  0  0  2  0  0  0  0  0  0
  188.7400  176.9160  147.5410 C   0  0  0  0  0  2  0  0  0  0  0  0
  187.9460  177.9470  148.3160 C   0  0  0  0  0  1  0  0  0  0  0  0
  186.7260  177.0990  144.5980 C   0  0  0  0  0  2  0  0  0  0  0  0
  185.4790  178.9420  145.6620 C   0  0  0  0  0  2  0  0  0  0  0  0
  185.7870  178.2670  144.5580 C   0  0  0  0  0  3  0  0  0  0  0  0
  1  5  1  6  0  0  0
  2  3  2  0  0  0  0
  3  7  1  0  0  0  0
  4  1  1  0  0  0  0
  4 26  1  1  0  0  0
  6 13  1  1  0  0  0
  6  9  1  0  0  0  0
  6  8  1  0  0  0  0
  7  4  1  0  0  0  0
  8  5  1  0  0  0  0
  9  3  1  6  0  0  0
  9  1  1  0  0  0  0
 10 11  1  0  0  0  0
 12 10  2  0  0  0  0
 13 15  1  0  0  0  0
 14 12  1  0  0  0  0
 14 13  2  0  0  0  0
 15 11  2  0  0  0  0
 16 18  2  0  0  0  0
 18 14  1  0  0  0  0
 18 17  1  0  0  0  0
 19 17  1  0  0  0  0
 19 20  1  0  0  0  0
 20 21  1  0  0  0  0
 21 24  1  0  0  0  0
 23 24  1  0  0  0  0
 24 22  2  0  0  0  0
 26 25  2  0  0  0  0
 26 27  1  0  0  0  0
 27 32  2  0  0  0  0
 27 29  1  0  0  0  0
 28 30  1  0  0  0  0
 28 38  1  1  0  0  0
 29 30  1  0  0  0  0
 30 33  1  6  0  0  0
 31 28  1  0  0  0  0
 32 31  1  0  0  0  0
 33 34  1  0  0  0  0
 34 35  1  0  0  0  0
 35 36  1  0  0  0  0
 36 37  1  0  0  0  0
 40 38  1  0  0  0  0
 40 39  2  0  0  0  0
M  END
>  <MODEL>
3

>  <REMARK>
 VINA RESULT:      -7.5      2.453      5.443
  Name = 
  14 active torsions:
  status: ('A' for Active; 'I' for Inactive)
    1  A    between atoms: C_7  and  C_8
    2  A    between atoms: C_7  and  C_23
    3  A    between atoms: C_8  and  N_31
    4  A    between atoms: C_9  and  C_11
    5  A    between atoms: C_11  and  C_18
    6  A    between atoms: C_14  and  C_16
    7  A    between atoms: C_15  and  C_19
    8  A    between atoms: C_15  and  C_29
    9  A    between atoms: C_19  and  C_36
   10  A    between atoms: C_20  and  C_29
   11  A    between atoms: C_23  and  C_40
   12  A    between atoms: C_24  and  C_25
   13  A    between atoms: C_24  and  C_26
   14  A    between atoms: C_27  and  C_35
                            x       y       z     vdW  Elec       q    Type
                         _______ _______ _______ _____ _____    ______ ____

>  <TORSDO>
F 14

$$$$
=
 OpenBabel11062418003D

 40 43  0  0  1  0  0  0  0  0999 V2000
  183.4780  178.6010  140.9990 N   0  0  1  0  0  0  0  0  0  0  0  0
  180.4080  178.0420  142.2520 N   0  0  0  0  0  2  0  0  0  0  0  0
  181.3590  178.8910  142.0950 C   0  0  0  0  0  0  0  0  0  0  0  0
  183.7410  178.4250  142.4330 C   0  0  2  0  0  3  0  0  0  0  0  0
  183.6030  177.2890  140.3740 C   0  0  0  0  0  2  0  0  0  0  0  0
  181.4940  178.1840  139.6680 C   0  0  1  0  0  3  0  0  0  0  0  0
  182.4510  179.2240  143.4430 S   0  0  0  0  0  0  0  0  0  0  0  0
  182.5750  177.2060  139.2680 C   0  0  0  0  0  2  0  0  0  0  0  0
  182.0870  179.0160  140.7990 C   0  0  2  0  0  3  0  0  0  0  0  0
  180.2990  180.7630  136.4230 C   0  0  0  0  0  3  0  0  0  0  0  0
  180.9950  181.2740  137.5180 C   0  0  0  0  0  3  0  0  0  0  0  0
  179.9900  179.4040  136.3680 C   0  0  0  0  0  3  0  0  0  0  0  0
  181.0820  179.0500  138.5090 C   0  0  0  0  0  0  0  0  0  0  0  0
  180.3690  178.5270  137.3980 C   0  0  0  0  0  0  0  0  0  0  0  0
  181.3800  180.4250  138.5520 C   0  0  0  0  0  3  0  0  0  0  0  0
  178.9970  176.6260  137.8840 O   0  0  0  0  0  0  0  0  0  0  0  0
  180.7560  176.2390  136.4130 N   0  0  0  0  0  2  0  0  0  0  0  0
  179.9900  177.0970  137.2640 C   0  0  0  0  0  0  0  0  0  0  0  0
  180.4770  174.8180  136.2640 C   0  0  0  0  0  2  0  0  0  0  0  0
  181.2540  174.0260  137.3000 C   0  0  0  0  0  2  0  0  0  0  0  0
  182.7450  174.2620  137.1310 C   0  0  0  0  0  2  0  0  0  0  0  0
  182.9210  171.8910  136.9820 O   0  0  0  0  0  0  0  0  0  0  0  0
  184.8470  172.9800  137.6890 N   0  0  0  0  0  1  0  0  0  0  0  0
  183.4950  172.9800  137.2450 C   0  0  0  0  0  0  0  0  0  0  0  0
  185.5880  179.8820  142.0600 O   0  0  0  0  0  0  0  0  0  0  0  0
  185.0930  178.9720  142.7780 C   0  0  0  0  0  0  0  0  0  0  0  0
  185.8490  178.4590  143.9360 C   0  0  0  0  0  0  0  0  0  0  0  0
  187.0060  177.1620  146.2080 C   0  0  2  0  0  3  0  0  0  0  0  0
  186.7930  177.2930  143.7250 C   0  0  0  0  0  2  0  0  0  0  0  0
  187.7690  177.0740  144.8840 C   0  0  1  0  0  3  0  0  0  0  0  0
  186.4040  178.5520  146.3770 C   0  0  0  0  0  2  0  0  0  0  0  0
  185.6380  178.9750  145.1580 C   0  0  0  0  0  3  0  0  0  0  0  0
  188.9350  178.0640  144.8090 C   0  0  0  0  0  2  0  0  0  0  0  0
  190.2210  177.3640  144.3840 C   0  0  0  0  0  2  0  0  0  0  0  0
  191.2840  177.4640  145.4660 C   0  0  0  0  0  2  0  0  0  0  0  0
  191.6840  176.0830  145.9490 C   0  0  0  0  0  2  0  0  0  0  0  0
  191.9210  176.1270  147.4440 C   0  0  0  0  0  1  0  0  0  0  0  0
  187.8750  176.8020  147.4100 C   0  0  0  0  0  2  0  0  0  0  0  0
  189.2670  178.4800  148.5640 C   0  0  0  0  0  2  0  0  0  0  0  0
  188.0590  177.9800  148.3180 C   0  0  0  0  0  3  0  0  0  0  0  0
  1  5  1  6  0  0  0
  1  4  1  0  0  0  0
  3  2  2  0  0  0  0
  3  7  1  0  0  0  0
  4 26  1  1  0  0  0
  4  7  1  0  0  0  0
  6 13  1  6  0  0  0
  6  9  1  0  0  0  0
  8  6  1  0  0  0  0
  8  5  1  0  0  0  0
  9  1  1  0  0  0  0
  9  3  1  1  0  0  0
 10 11  1  0  0  0  0
 11 15  2  0  0  0  0
 12 10  2  0  0  0  0
 12 14  1  0  0  0  0
 13 15  1  0  0  0  0
 14 13  2  0  0  0  0
 17 18  1  0  0  0  0
 18 14  1  0  0  0  0
 18 16  2  0  0  0  0
 19 17  1  0  0  0  0
 19 20  1  0  0  0  0
 21 24  1  0  0  0  0
 21 20  1  0  0  0  0
 22 24  2  0  0  0  0
 24 23  1  0  0  0  0
 25 26  2  0  0  0  0
 26 27  1  0  0  0  0
 27 32  2  0  0  0  0
 28 31  1  0  0  0  0
 28 38  1  1  0  0  0
 29 27  1  0  0  0  0
 29 30  1  0  0  0  0
 30 33  1  1  0  0  0
 30 28  1  0  0  0  0
 32 31  1  0  0  0  0
 34 33  1  0  0  0  0
 34 35  1  0  0  0  0
 35 36  1  0  0  0  0
 36 37  1  0  0  0  0
 38 40  1  0  0  0  0
 40 39  2  0  0  0  0
M  END
>  <MODEL>
4

>  <REMARK>
 VINA RESULT:      -7.4      2.770      4.223
  Name = 
  14 active torsions:
  status: ('A' for Active; 'I' for Inactive)
    1  A    between atoms: C_7  and  C_8
    2  A    between atoms: C_7  and  C_23
    3  A    between atoms: C_8  and  N_31
    4  A    between atoms: C_9  and  C_11
    5  A    between atoms: C_11  and  C_18
    6  A    between atoms: C_14  and  C_16
    7  A    between atoms: C_15  and  C_19
    8  A    between atoms: C_15  and  C_29
    9  A    between atoms: C_19  and  C_36
   10  A    between atoms: C_20  and  C_29
   11  A    between atoms: C_23  and  C_40
   12  A    between atoms: C_24  and  C_25
   13  A    between atoms: C_24  and  C_26
   14  A    between atoms: C_27  and  C_35
                            x       y       z     vdW  Elec       q    Type
                         _______ _______ _______ _____ _____    ______ ____

>  <TORSDO>
F 14

$$$$
=
 OpenBabel11062418003D

 40 43  0  0  1  0  0  0  0  0999 V2000
  188.4250  176.9170  138.7330 N   0  0  1  0  0  0  0  0  0  0  0  0
  189.1510  177.0650  135.4530 N   0  0  0  0  0  2  0  0  0  0  0  0
  189.3700  176.4680  136.5690 C   0  0  0  0  0  0  0  0  0  0  0  0
  189.7340  177.5820  138.7220 C   0  0  2  0  0  3  0  0  0  0  0  0
  187.4100  177.9630  138.6880 C   0  0  0  0  0  2  0  0  0  0  0  0
  186.8670  176.4090  136.9460 C   0  0  1  0  0  3  0  0  0  0  0  0
  190.8390  176.8410  137.4760 S   0  0  0  0  0  0  0  0  0  0  0  0
  186.2560  177.4490  137.8560 C   0  0  0  0  0  2  0  0  0  0  0  0
  188.2580  176.1340  137.5060 C   0  0  2  0  0  3  0  0  0  0  0  0
  184.5830  172.7500  136.8260 C   0  0  0  0  0  3  0  0  0  0  0  0
  185.8810  172.7610  137.3350 C   0  0  0  0  0  3  0  0  0  0  0  0
  184.0090  173.9330  136.3560 C   0  0  0  0  0  3  0  0  0  0  0  0
  186.0340  175.1550  136.9110 C   0  0  0  0  0  0  0  0  0  0  0  0
  184.7140  175.1470  136.3860 C   0  0  0  0  0  0  0  0  0  0  0  0
  186.6000  173.9530  137.3730 C   0  0  0  0  0  3  0  0  0  0  0  0
  184.5330  177.0230  134.9090 O   0  0  0  0  0  0  0  0  0  0  0  0
  182.7850  176.7700  136.4220 N   0  0  0  0  0  2  0  0  0  0  0  0
  184.0330  176.3560  135.8570 C   0  0  0  0  0  0  0  0  0  0  0  0
  182.0790  177.9670  135.9890 C   0  0  0  0  0  2  0  0  0  0  0  0
  181.6630  178.7870  137.1970 C   0  0  0  0  0  2  0  0  0  0  0  0
  182.7170  178.6890  138.2870 C   0  0  0  0  0  2  0  0  0  0  0  0
  184.2810  180.2210  139.2270 O   0  0  0  0  0  0  0  0  0  0  0  0
  182.2280  181.1390  138.6460 N   0  0  0  0  0  1  0  0  0  0  0  0
  183.1350  180.0460  138.7350 C   0  0  0  0  0  0  0  0  0  0  0  0
  191.6120  177.5140  140.1850 O   0  0  0  0  0  0  0  0  0  0  0  0
  190.3570  177.5140  140.0840 C   0  0  0  0  0  0  0  0  0  0  0  0
  189.5230  177.4430  141.2980 C   0  0  0  0  0  0  0  0  0  0  0  0
  188.2570  177.4540  143.8640 C   0  0  2  0  0  3  0  0  0  0  0  0
  188.8490  178.7080  141.7890 C   0  0  0  0  0  2  0  0  0  0  0  0
  187.7490  178.4570  142.8250 C   0  0  1  0  0  3  0  0  0  0  0  0
  188.5660  176.1180  143.1970 C   0  0  0  0  0  2  0  0  0  0  0  0
  189.4360  176.2930  141.9860 C   0  0  0  0  0  3  0  0  0  0  0  0
  186.4550  178.0010  142.1460 C   0  0  0  0  0  2  0  0  0  0  0  0
  185.3480  179.0330  142.3270 C   0  0  0  0  0  2  0  0  0  0  0  0
  183.9880  178.3650  142.4370 C   0  0  0  0  0  2  0  0  0  0  0  0
  183.2080  178.9330  143.6080 C   0  0  0  0  0  2  0  0  0  0  0  0
  184.1270  179.0590  144.8050 C   0  0  0  0  0  1  0  0  0  0  0  0
  187.2790  177.2640  145.0200 C   0  0  0  0  0  2  0  0  0  0  0  0
  189.0500  177.3570  146.7350 C   0  0  0  0  0  2  0  0  0  0  0  0
  187.8590  177.7680  146.3080 C   0  0  0  0  0  3  0  0  0  0  0  0
  1  5  1  6  0  0  0
  2  3  2  0  0  0  0
  3  7  1  0  0  0  0
  4  1  1  0  0  0  0
  4 26  1  1  0  0  0
  6 13  1  1  0  0  0
  6  9  1  0  0  0  0
  6  8  1  0  0  0  0
  7  4  1  0  0  0  0
  8  5  1  0  0  0  0
  9  3  1  6  0  0  0
  9  1  1  0  0  0  0
 10 11  1  0  0  0  0
 11 15  2  0  0  0  0
 12 14  1  0  0  0  0
 12 10  2  0  0  0  0
 13 15  1  0  0  0  0
 14 13  2  0  0  0  0
 16 18  2  0  0  0  0
 18 14  1  0  0  0  0
 18 17  1  0  0  0  0
 19 17  1  0  0  0  0
 19 20  1  0  0  0  0
 20 21  1  0  0  0  0
 21 24  1  0  0  0  0
 23 24  1  0  0  0  0
 24 22  2  0  0  0  0
 26 25  2  0  0  0  0
 26 27  1  0  0  0  0
 27 29  1  0  0  0  0
 27 32  2  0  0  0  0
 28 38  1  1  0  0  0
 29 30  1  0  0  0  0
 30 33  1  6  0  0  0
 30 28  1  0  0  0  0
 31 28  1  0  0  0  0
 32 31  1  0  0  0  0
 33 34  1  0  0  0  0
 34 35  1  0  0  0  0
 35 36  1  0  0  0  0
 36 37  1  0  0  0  0
 38 40  1  0  0  0  0
 40 39  2  0  0  0  0
M  END
>  <MODEL>
5

>  <REMARK>
 VINA RESULT:      -7.3      2.668      5.622
  Name = 
  14 active torsions:
  status: ('A' for Active; 'I' for Inactive)
    1  A    between atoms: C_7  and  C_8
    2  A    between atoms: C_7  and  C_23
    3  A    between atoms: C_8  and  N_31
    4  A    between atoms: C_9  and  C_11
    5  A    between atoms: C_11  and  C_18
    6  A    between atoms: C_14  and  C_16
    7  A    between atoms: C_15  and  C_19
    8  A    between atoms: C_15  and  C_29
    9  A    between atoms: C_19  and  C_36
   10  A    between atoms: C_20  and  C_29
   11  A    between atoms: C_23  and  C_40
   12  A    between atoms: C_24  and  C_25
   13  A    between atoms: C_24  and  C_26
   14  A    between atoms: C_27  and  C_35
                            x       y       z     vdW  Elec       q    Type
                         _______ _______ _______ _____ _____    ______ ____

>  <TORSDO>
F 14

$$$$
=
 OpenBabel11062418003D

 40 43  0  0  1  0  0  0  0  0999 V2000
  187.4110  177.6260  139.3390 N   0  0  1  0  0  0  0  0  0  0  0  0
  187.0500  179.6920  136.7100 N   0  0  0  0  0  2  0  0  0  0  0  0
  187.4510  178.5420  137.1170 C   0  0  0  0  0  0  0  0  0  0  0  0
  188.7720  178.1380  139.1410 C   0  0  2  0  0  3  0  0  0  0  0  0
  186.7500  178.5120  140.2910 C   0  0  0  0  0  2  0  0  0  0  0  0
  185.2830  178.3220  138.4050 C   0  0  1  0  0  3  0  0  0  0  0  0
  189.1780  178.2670  137.3690 S   0  0  0  0  0  0  0  0  0  0  0  0
  185.2980  178.6230  139.8860 C   0  0  0  0  0  2  0  0  0  0  0  0
  186.6550  177.7370  138.0880 C   0  0  2  0  0  3  0  0  0  0  0  0
  182.1990  175.5110  137.3060 C   0  0  0  0  0  3  0  0  0  0  0  0
  183.5460  175.1880  137.1440 C   0  0  0  0  0  3  0  0  0  0  0  0
  181.8400  176.7520  137.8340 C   0  0  0  0  0  3  0  0  0  0  0  0
  184.1830  177.3570  138.0530 C   0  0  0  0  0  0  0  0  0  0  0  0
  182.8120  177.6920  138.2140 C   0  0  0  0  0  0  0  0  0  0  0  0
  184.5280  176.1040  137.5120 C   0  0  0  0  0  3  0  0  0  0  0  0
  182.2760  179.1910  140.0030 O   0  0  0  0  0  0  0  0  0  0  0  0
  181.9660  180.0400  137.8600 N   0  0  0  0  0  2  0  0  0  0  0  0
  182.3420  178.9920  138.7580 C   0  0  0  0  0  0  0  0  0  0  0  0
  181.4550  181.3250  138.3140 C   0  0  0  0  0  2  0  0  0  0  0  0
  180.5520  181.9260  137.2510 C   0  0  0  0  0  2  0  0  0  0  0  0
  180.2820  183.3890  137.5580 C   0  0  0  0  0  2  0  0  0  0  0  0
  181.1950  184.4210  135.6140 O   0  0  0  0  0  0  0  0  0  0  0  0
  182.3170  184.8830  137.5950 N   0  0  0  0  0  1  0  0  0  0  0  0
  181.2680  184.2610  136.8600 C   0  0  0  0  0  0  0  0  0  0  0  0
  190.5440  176.5460  139.1590 O   0  0  0  0  0  0  0  0  0  0  0  0
  189.7600  177.2560  139.8440 C   0  0  0  0  0  0  0  0  0  0  0  0
  189.8200  177.2040  141.3160 C   0  0  0  0  0  0  0  0  0  0  0  0
  190.2410  177.4110  144.1390 C   0  0  2  0  0  3  0  0  0  0  0  0
  189.0440  178.2350  142.1100 C   0  0  0  0  0  2  0  0  0  0  0  0
  188.8910  177.8830  143.5930 C   0  0  1  0  0  3  0  0  0  0  0  0
  190.6870  176.1460  143.4160 C   0  0  0  0  0  2  0  0  0  0  0  0
  190.6110  176.3050  141.9250 C   0  0  0  0  0  3  0  0  0  0  0  0
  187.7780  176.8520  143.7970 C   0  0  0  0  0  2  0  0  0  0  0  0
  186.5120  177.5090  144.3320 C   0  0  0  0  0  2  0  0  0  0  0  0
  186.7340  178.0720  145.7270 C   0  0  0  0  0  2  0  0  0  0  0  0
  185.4570  178.6940  146.2600 C   0  0  0  0  0  2  0  0  0  0  0  0
  184.5630  179.0720  145.0980 C   0  0  0  0  0  1  0  0  0  0  0  0
  190.2150  177.1870  145.6490 C   0  0  0  0  0  2  0  0  0  0  0  0
  191.6660  176.1460  147.3510 C   0  0  0  0  0  2  0  0  0  0  0  0
  191.5420  176.6970  146.1460 C   0  0  0  0  0  3  0  0  0  0  0  0
  1  5  1  1  0  0  0
  2  3  2  0  0  0  0
  3  7  1  0  0  0  0
  4  1  1  0  0  0  0
  4 26  1  1  0  0  0
  6 13  1  1  0  0  0
  6  8  1  0  0  0  0
  7  4  1  0  0  0  0
  8  5  1  0  0  0  0
  9  3  1  6  0  0  0
  9  6  1  0  0  0  0
  9  1  1  0  0  0  0
 10 12  1  0  0  0  0
 11 10  2  0  0  0  0
 11 15  1  0  0  0  0
 12 14  2  0  0  0  0
 13 14  1  0  0  0  0
 14 18  1  0  0  0  0
 15 13  2  0  0  0  0
 17 19  1  0  0  0  0
 17 18  1  0  0  0  0
 18 16  2  0  0  0  0
 20 21  1  0  0  0  0
 20 19  1  0  0  0  0
 22 24  2  0  0  0  0
 24 21  1  0  0  0  0
 24 23  1  0  0  0  0
 25 26  2  0  0  0  0
 26 27  1  0  0  0  0
 27 32  2  0  0  0  0
 27 29  1  0  0  0  0
 28 38  1  1  0  0  0
 29 30  1  0  0  0  0
 30 33  1  6  0  0  0
 30 28  1  0  0  0  0
 31 28  1  0  0  0  0
 32 31  1  0  0  0  0
 33 34  1  0  0  0  0
 34 35  1  0  0  0  0
 35 36  1  0  0  0  0
 37 36  1  0  0  0  0
 38 40  1  0  0  0  0
 40 39  2  0  0  0  0
M  END
>  <MODEL>
6

>  <REMARK>
 VINA RESULT:      -7.3      2.919      5.587
  Name = 
  14 active torsions:
  status: ('A' for Active; 'I' for Inactive)
    1  A    between atoms: C_7  and  C_8
    2  A    between atoms: C_7  and  C_23
    3  A    between atoms: C_8  and  N_31
    4  A    between atoms: C_9  and  C_11
    5  A    between atoms: C_11  and  C_18
    6  A    between atoms: C_14  and  C_16
    7  A    between atoms: C_15  and  C_19
    8  A    between atoms: C_15  and  C_29
    9  A    between atoms: C_19  and  C_36
   10  A    between atoms: C_20  and  C_29
   11  A    between atoms: C_23  and  C_40
   12  A    between atoms: C_24  and  C_25
   13  A    between atoms: C_24  and  C_26
   14  A    between atoms: C_27  and  C_35
                            x       y       z     vdW  Elec       q    Type
                         _______ _______ _______ _____ _____    ______ ____

>  <TORSDO>
F 14

$$$$
=
 OpenBabel11062418003D

 40 43  0  0  1  0  0  0  0  0999 V2000
  185.2570  178.2900  140.4730 N   0  0  1  0  0  0  0  0  0  0  0  0
  188.2660  178.9610  139.1300 N   0  0  0  0  0  2  0  0  0  0  0  0
  187.5750  178.1550  139.8530 C   0  0  0  0  0  0  0  0  0  0  0  0
  186.0090  178.8230  141.6160 C   0  0  2  0  0  3  0  0  0  0  0  0
  184.5790  179.4150  139.8400 C   0  0  0  0  0  2  0  0  0  0  0  0
  185.7520  178.2570  138.1000 C   0  0  1  0  0  3  0  0  0  0  0  0
  187.7300  178.2220  141.6110 S   0  0  0  0  0  0  0  0  0  0  0  0
  184.5720  179.1670  138.3480 C   0  0  0  0  0  2  0  0  0  0  0  0
  186.1880  177.7600  139.4730 C   0  0  2  0  0  3  0  0  0  0  0  0
  184.6070  174.9370  135.5940 C   0  0  0  0  0  3  0  0  0  0  0  0
  183.6840  175.5290  136.4550 C   0  0  0  0  0  3  0  0  0  0  0  0
  185.9130  175.4230  135.5340 C   0  0  0  0  0  3  0  0  0  0  0  0
  185.3810  177.1130  137.1950 C   0  0  0  0  0  0  0  0  0  0  0  0
  186.3260  176.5080  136.3240 C   0  0  0  0  0  0  0  0  0  0  0  0
  184.0690  176.6050  137.2500 C   0  0  0  0  0  3  0  0  0  0  0  0
  188.0250  178.0710  135.6890 O   0  0  0  0  0  0  0  0  0  0  0  0
  188.7890  176.1150  136.6890 N   0  0  0  0  0  2  0  0  0  0  0  0
  187.7370  176.9550  136.2050 C   0  0  0  0  0  0  0  0  0  0  0  0
  190.1970  176.4620  136.5690 C   0  0  0  0  0  2  0  0  0  0  0  0
  190.8550  176.4320  137.9370 C   0  0  0  0  0  2  0  0  0  0  0  0
  192.0380  175.4780  137.9300 C   0  0  0  0  0  2  0  0  0  0  0  0
  194.2320  176.0970  137.2370 O   0  0  0  0  0  0  0  0  0  0  0  0
  193.5180  177.0590  139.2280 N   0  0  0  0  0  1  0  0  0  0  0  0
  193.3150  176.2270  138.0910 C   0  0  0  0  0  0  0  0  0  0  0  0
  184.0670  178.4420  142.9410 O   0  0  0  0  0  0  0  0  0  0  0  0
  185.3260  178.4530  142.8980 C   0  0  0  0  0  0  0  0  0  0  0  0
  186.1040  178.1110  144.1030 C   0  0  0  0  0  0  0  0  0  0  0  0
  187.3290  177.1230  146.4930 C   0  0  2  0  0  3  0  0  0  0  0  0
  187.1400  177.0090  144.0070 C   0  0  0  0  0  2  0  0  0  0  0  0
  188.1150  176.9770  145.1880 C   0  0  1  0  0  3  0  0  0  0  0  0
  186.6170  178.4700  146.5290 C   0  0  0  0  0  2  0  0  0  0  0  0
  185.8360  178.7170  145.2710 C   0  0  0  0  0  3  0  0  0  0  0  0
  189.2000  178.0460  145.0290 C   0  0  0  0  0  2  0  0  0  0  0  0
  190.4490  177.4660  144.3770 C   0  0  0  0  0  2  0  0  0  0  0  0
  191.5950  177.3730  145.3720 C   0  0  0  0  0  2  0  0  0  0  0  0
  191.6860  175.9730  145.9500 C   0  0  0  0  0  2  0  0  0  0  0  0
  191.9000  176.0640  147.4470 C   0  0  0  0  0  1  0  0  0  0  0  0
  188.2070  176.9460  147.7290 C   0  0  0  0  0  2  0  0  0  0  0  0
  189.6750  178.6460  148.7480 C   0  0  0  0  0  2  0  0  0  0  0  0
  188.4470  178.2560  148.4160 C   0  0  0  0  0  3  0  0  0  0  0  0
  1  5  1  6  0  0  0
  1  4  1  0  0  0  0
  2  3  2  0  0  0  0
  3  7  1  0  0  0  0
  4 26  1  1  0  0  0
  6 13  1  6  0  0  0
  6  8  1  0  0  0  0
  6  9  1  0  0  0  0
  7  4  1  0  0  0  0
  8  5  1  0  0  0  0
  9  3  1  1  0  0  0
  9  1  1  0  0  0  0
 10 11  1  0  0  0  0
 11 15  2  0  0  0  0
 12 10  2  0  0  0  0
 12 14  1  0  0  0  0
 13 15  1  0  0  0  0
 14 13  2  0  0  0  0
 16 18  2  0  0  0  0
 18 14  1  0  0  0  0
 18 17  1  0  0  0  0
 19 17  1  0  0  0  0
 19 20  1  0  0  0  0
 21 20  1  0  0  0  0
 21 24  1  0  0  0  0
 22 24  2  0  0  0  0
 24 23  1  0  0  0  0
 26 25  2  0  0  0  0
 26 27  1  0  0  0  0
 27 32  2  0  0  0  0
 28 31  1  0  0  0  0
 28 38  1  1  0  0  0
 29 27  1  0  0  0  0
 29 30  1  0  0  0  0
 30 33  1  6  0  0  0
 30 28  1  0  0  0  0
 32 31  1  0  0  0  0
 34 33  1  0  0  0  0
 34 35  1  0  0  0  0
 35 36  1  0  0  0  0
 36 37  1  0  0  0  0
 38 40  1  0  0  0  0
 40 39  2  0  0  0  0
M  END
>  <MODEL>
7

>  <REMARK>
 VINA RESULT:      -7.3      2.312      3.396
  Name = 
  14 active torsions:
  status: ('A' for Active; 'I' for Inactive)
    1  A    between atoms: C_7  and  C_8
    2  A    between atoms: C_7  and  C_23
    3  A    between atoms: C_8  and  N_31
    4  A    between atoms: C_9  and  C_11
    5  A    between atoms: C_11  and  C_18
    6  A    between atoms: C_14  and  C_16
    7  A    between atoms: C_15  and  C_19
    8  A    between atoms: C_15  and  C_29
    9  A    between atoms: C_19  and  C_36
   10  A    between atoms: C_20  and  C_29
   11  A    between atoms: C_23  and  C_40
   12  A    between atoms: C_24  and  C_25
   13  A    between atoms: C_24  and  C_26
   14  A    between atoms: C_27  and  C_35
                            x       y       z     vdW  Elec       q    Type
                         _______ _______ _______ _____ _____    ______ ____

>  <TORSDO>
F 14

$$$$
=
 OpenBabel11062418003D

 40 43  0  0  1  0  0  0  0  0999 V2000
  189.4140  177.2470  142.2070 N   0  0  1  0  0  0  0  0  0  0  0  0
  190.1270  178.6280  145.1890 N   0  0  0  0  0  2  0  0  0  0  0  0
  189.9640  178.8290  143.9310 C   0  0  0  0  0  0  0  0  0  0  0  0
  190.8700  177.4170  142.1440 C   0  0  2  0  0  3  0  0  0  0  0  0
  189.1580  175.9130  142.7400 C   0  0  0  0  0  2  0  0  0  0  0  0
  187.8540  177.4350  144.0550 C   0  0  1  0  0  3  0  0  0  0  0  0
  191.3820  178.9990  142.8910 S   0  0  0  0  0  0  0  0  0  0  0  0
  187.9220  175.9930  143.6080 C   0  0  0  0  0  2  0  0  0  0  0  0
  188.8480  178.1880  143.1770 C   0  0  2  0  0  3  0  0  0  0  0  0
  183.8960  179.0650  143.5140 C   0  0  0  0  0  3  0  0  0  0  0  0
  184.6170  178.5740  142.4260 C   0  0  0  0  0  3  0  0  0  0  0  0
  184.4520  179.0250  144.7930 C   0  0  0  0  0  3  0  0  0  0  0  0
  186.4630  177.9900  143.9050 C   0  0  0  0  0  0  0  0  0  0  0  0
  185.7340  178.4940  145.0150 C   0  0  0  0  0  0  0  0  0  0  0  0
  185.8900  178.0450  142.6210 C   0  0  0  0  0  3  0  0  0  0  0  0
  185.8360  179.3360  147.2540 O   0  0  0  0  0  0  0  0  0  0  0  0
  187.2370  177.5370  146.7980 N   0  0  0  0  0  2  0  0  0  0  0  0
  186.2540  178.4990  146.4060 C   0  0  0  0  0  0  0  0  0  0  0  0
  187.8280  177.5050  148.1270 C   0  0  0  0  0  2  0  0  0  0  0  0
  189.3400  177.6050  148.0240 C   0  0  0  0  0  2  0  0  0  0  0  0
  189.9010  176.3760  147.3300 C   0  0  0  0  0  2  0  0  0  0  0  0
  192.0550  175.6480  146.6180 O   0  0  0  0  0  0  0  0  0  0  0  0
  192.0570  177.1280  148.4090 N   0  0  0  0  0  1  0  0  0  0  0  0
  191.3890  176.3640  147.4110 C   0  0  0  0  0  0  0  0  0  0  0  0
  192.5660  177.1940  140.4850 O   0  0  0  0  0  0  0  0  0  0  0  0
  191.3360  177.3330  140.7210 C   0  0  0  0  0  0  0  0  0  0  0  0
  190.3800  177.4160  139.6010 C   0  0  0  0  0  0  0  0  0  0  0  0
  188.7440  177.9310  137.3120 C   0  0  2  0  0  3  0  0  0  0  0  0
  190.7940  176.8640  138.2530 C   0  0  0  0  0  2  0  0  0  0  0  0
  189.6280  176.6810  137.2780 C   0  0  1  0  0  3  0  0  0  0  0  0
  188.1480  178.1150  138.7020 C   0  0  0  0  0  2  0  0  0  0  0  0
  189.2010  178.0370  139.7690 C   0  0  0  0  0  3  0  0  0  0  0  0
  188.8500  175.4000  137.5910 C   0  0  0  0  0  2  0  0  0  0  0  0
  188.9580  174.4000  136.4460 C   0  0  0  0  0  2  0  0  0  0  0  0
  187.6650  173.6180  136.2770 C   0  0  0  0  0  2  0  0  0  0  0  0
  186.5990  174.1390  137.2220 C   0  0  0  0  0  2  0  0  0  0  0  0
  185.6650  173.0070  137.5940 C   0  0  0  0  0  1  0  0  0  0  0  0
  187.6430  177.8980  136.2550 C   0  0  0  0  0  2  0  0  0  0  0  0
  185.2610  177.2610  136.3320 C   0  0  0  0  0  2  0  0  0  0  0  0
  186.2840  177.9050  136.8880 C   0  0  0  0  0  3  0  0  0  0  0  0
  1  5  1  1  0  0  0
  1  9  1  0  0  0  0
  3  2  2  0  0  0  0
  4 26  1  6  0  0  0
  4  1  1  0  0  0  0
  4  7  1  0  0  0  0
  5  8  1  0  0  0  0
  6 13  1  6  0  0  0
  7  3  1  0  0  0  0
  8  6  1  0  0  0  0
  9  3  1  1  0  0  0
  9  6  1  0  0  0  0
 10 12  1  0  0  0  0
 11 15  1  0  0  0  0
 11 10  2  0  0  0  0
 12 14  2  0  0  0  0
 13 14  1  0  0  0  0
 14 18  1  0  0  0  0
 15 13  2  0  0  0  0
 17 19  1  0  0  0  0
 18 17  1  0  0  0  0
 18 16  2  0  0  0  0
 20 19  1  0  0  0  0
 21 24  1  0  0  0  0
 21 20  1  0  0  0  0
 22 24  2  0  0  0  0
 24 23  1  0  0  0  0
 25 26  2  0  0  0  0
 27 32  2  0  0  0  0
 27 26  1  0  0  0  0
 28 38  1  6  0  0  0
 28 31  1  0  0  0  0
 29 27  1  0  0  0  0
 30 28  1  0  0  0  0
 30 33  1  1  0  0  0
 30 29  1  0  0  0  0
 31 32  1  0  0  0  0
 34 33  1  0  0  0  0
 35 34  1  0  0  0  0
 35 36  1  0  0  0  0
 36 37  1  0  0  0  0
 38 40  1  0  0  0  0
 39 40  2  0  0  0  0
M  END
>  <MODEL>
8

>  <REMARK>
 VINA RESULT:      -7.2      3.417      8.600
  Name = 
  14 active torsions:
  status: ('A' for Active; 'I' for Inactive)
    1  A    between atoms: C_7  and  C_8
    2  A    between atoms: C_7  and  C_23
    3  A    between atoms: C_8  and  N_31
    4  A    between atoms: C_9  and  C_11
    5  A    between atoms: C_11  and  C_18
    6  A    between atoms: C_14  and  C_16
    7  A    between atoms: C_15  and  C_19
    8  A    between atoms: C_15  and  C_29
    9  A    between atoms: C_19  and  C_36
   10  A    between atoms: C_20  and  C_29
   11  A    between atoms: C_23  and  C_40
   12  A    between atoms: C_24  and  C_25
   13  A    between atoms: C_24  and  C_26
   14  A    between atoms: C_27  and  C_35
                            x       y       z     vdW  Elec       q    Type
                         _______ _______ _______ _____ _____    ______ ____

>  <TORSDO>
F 14

$$$$
=
 OpenBabel11062418003D

 40 43  0  0  1  0  0  0  0  0999 V2000
  189.4830  177.1900  142.1700 N   0  0  1  0  0  0  0  0  0  0  0  0
  190.1340  178.6180  145.1430 N   0  0  0  0  0  2  0  0  0  0  0  0
  189.9850  178.8010  143.8810 C   0  0  0  0  0  0  0  0  0  0  0  0
  190.9380  177.3830  142.1240 C   0  0  2  0  0  3  0  0  0  0  0  0
  189.2420  175.8590  142.7150 C   0  0  0  0  0  2  0  0  0  0  0  0
  187.8960  177.3750  143.9940 C   0  0  1  0  0  3  0  0  0  0  0  0
  191.4140  178.9820  142.8580 S   0  0  0  0  0  0  0  0  0  0  0  0
  187.9930  175.9290  143.5660 C   0  0  0  0  0  2  0  0  0  0  0  0
  188.8890  178.1330  143.1200 C   0  0  2  0  0  3  0  0  0  0  0  0
  183.9200  178.9340  143.3800 C   0  0  0  0  0  3  0  0  0  0  0  0
  184.6630  178.4390  142.3090 C   0  0  0  0  0  3  0  0  0  0  0  0
  184.4600  178.9210  144.6670 C   0  0  0  0  0  3  0  0  0  0  0  0
  186.4980  177.9050  143.8190 C   0  0  0  0  0  0  0  0  0  0  0  0
  185.7470  178.4130  144.9120 C   0  0  0  0  0  0  0  0  0  0  0  0
  185.9410  177.9330  142.5270 C   0  0  0  0  0  3  0  0  0  0  0  0
  185.7830  179.2650  147.1500 O   0  0  0  0  0  0  0  0  0  0  0  0
  187.2720  177.5330  146.7160 N   0  0  0  0  0  2  0  0  0  0  0  0
  186.2490  178.4460  146.3100 C   0  0  0  0  0  0  0  0  0  0  0  0
  187.8480  177.5320  148.0530 C   0  0  0  0  0  2  0  0  0  0  0  0
  189.3610  177.6260  147.9640 C   0  0  0  0  0  2  0  0  0  0  0  0
  189.9450  176.2930  147.5290 C   0  0  0  0  0  2  0  0  0  0  0  0
  192.1400  176.9420  148.1910 O   0  0  0  0  0  0  0  0  0  0  0  0
  191.9920  175.9600  146.0900 N   0  0  0  0  0  1  0  0  0  0  0  0
  191.4130  176.4110  147.3100 C   0  0  0  0  0  0  0  0  0  0  0  0
  192.5990  177.6540  140.4380 O   0  0  0  0  0  0  0  0  0  0  0  0
  191.4240  177.2890  140.7090 C   0  0  0  0  0  0  0  0  0  0  0  0
  190.5470  176.7850  139.6350 C   0  0  0  0  0  0  0  0  0  0  0  0
  188.7200  175.5090  137.8410 C   0  0  2  0  0  3  0  0  0  0  0  0
  189.0940  177.2150  139.6240 C   0  0  0  0  0  2  0  0  0  0  0  0
  188.3780  176.9290  138.3010 C   0  0  1  0  0  3  0  0  0  0  0  0
  190.2170  175.3860  137.5830 C   0  0  0  0  0  2  0  0  0  0  0  0
  191.0220  175.9040  138.7390 C   0  0  0  0  0  3  0  0  0  0  0  0
  188.7260  177.9880  137.2520 C   0  0  0  0  0  2  0  0  0  0  0  0
  187.4660  178.6300  136.6830 C   0  0  0  0  0  2  0  0  0  0  0  0
  186.2450  178.2760  137.5160 C   0  0  0  0  0  2  0  0  0  0  0  0
  185.2380  177.5030  136.6850 C   0  0  0  0  0  2  0  0  0  0  0  0
  184.1130  177.0290  137.5800 C   0  0  0  0  0  1  0  0  0  0  0  0
  187.9240  175.0850  136.6100 C   0  0  0  0  0  2  0  0  0  0  0  0
  185.9150  173.8100  137.2600 C   0  0  0  0  0  2  0  0  0  0  0  0
  187.1830  173.8050  136.8570 C   0  0  0  0  0  3  0  0  0  0  0  0
  1  5  1  1  0  0  0
  1  9  1  0  0  0  0
  3  2  2  0  0  0  0
  4 26  1  6  0  0  0
  4  1  1  0  0  0  0
  4  7  1  0  0  0  0
  5  8  1  0  0  0  0
  6 13  1  6  0  0  0
  7  3  1  0  0  0  0
  8  6  1  0  0  0  0
  9  3  1  1  0  0  0
  9  6  1  0  0  0  0
 10 12  1  0  0  0  0
 11 15  1  0  0  0  0
 11 10  2  0  0  0  0
 12 14  2  0  0  0  0
 13 14  1  0  0  0  0
 14 18  1  0  0  0  0
 15 13  2  0  0  0  0
 17 19  1  0  0  0  0
 18 17  1  0  0  0  0
 18 16  2  0  0  0  0
 20 19  1  0  0  0  0
 21 20  1  0  0  0  0
 23 24  1  0  0  0  0
 24 21  1  0  0  0  0
 24 22  2  0  0  0  0
 25 26  2  0  0  0  0
 27 26  1  0  0  0  0
 28 38  1  6  0  0  0
 28 30  1  0  0  0  0
 29 27  1  0  0  0  0
 30 33  1  6  0  0  0
 30 29  1  0  0  0  0
 31 28  1  0  0  0  0
 31 32  1  0  0  0  0
 32 27  2  0  0  0  0
 34 33  1  0  0  0  0
 34 35  1  0  0  0  0
 36 35  1  0  0  0  0
 36 37  1  0  0  0  0
 38 40  1  0  0  0  0
 40 39  2  0  0  0  0
M  END
>  <MODEL>
9

>  <REMARK>
 VINA RESULT:      -7.2      3.162      8.593
  Name = 
  14 active torsions:
  status: ('A' for Active; 'I' for Inactive)
    1  A    between atoms: C_7  and  C_8
    2  A    between atoms: C_7  and  C_23
    3  A    between atoms: C_8  and  N_31
    4  A    between atoms: C_9  and  C_11
    5  A    between atoms: C_11  and  C_18
    6  A    between atoms: C_14  and  C_16
    7  A    between atoms: C_15  and  C_19
    8  A    between atoms: C_15  and  C_29
    9  A    between atoms: C_19  and  C_36
   10  A    between atoms: C_20  and  C_29
   11  A    between atoms: C_23  and  C_40
   12  A    between atoms: C_24  and  C_25
   13  A    between atoms: C_24  and  C_26
   14  A    between atoms: C_27  and  C_35
                            x       y       z     vdW  Elec       q    Type
                         _______ _______ _______ _____ _____    ______ ____

>  <TORSDO>
F 14

$$$$
