=
 OpenBabel11062415243D

 48 52  0  0  1  0  0  0  0  0999 V2000
  185.8500  173.7060  134.5940 C   0  0  0  0  0  3  0  0  0  0  0  0
  183.6550  172.8490  135.1020 O   0  0  0  0  0  0  0  0  0  0  0  0
  183.0550  170.3740  137.0470 N   0  0  0  0  0  1  0  0  0  0  0  0
  184.2060  179.5740  139.2100 C   0  0  0  0  0  0  0  0  0  0  0  0
  181.8700  179.2320  138.9520 O   0  0  0  0  0  0  0  0  0  0  0  0
  187.1040  174.1650  135.0060 C   0  0  0  0  0  3  0  0  0  0  0  0
  186.5030  173.7380  137.3120 C   0  0  0  0  0  3  0  0  0  0  0  0
  184.9120  173.2710  135.5360 C   0  0  0  0  0  0  0  0  0  0  0  0
  181.4170  178.4400  140.0080 C   0  0  0  0  0  0  0  0  0  0  0  0
  181.3070  173.0280  135.5540 C   0  0  1  0  0  3  0  0  0  0  0  0
  180.9930  177.0610  139.7370 C   0  0  0  0  0  0  0  0  0  0  0  0
  180.9670  170.9420  136.1840 O   0  0  0  0  0  0  0  0  0  0  0  0
  180.0850  175.0370  139.9610 C   0  0  0  0  0  0  0  0  0  0  0  0
  188.7530  174.7160  136.8450 C   0  0  2  0  0  3  0  0  0  0  0  0
  181.3920  178.8970  141.1840 O   0  0  0  0  0  0  0  0  0  0  0  0
  183.5030  177.0470  137.4470 C   0  0  0  0  0  2  0  0  0  0  0  0
  180.7670  173.7630  137.9210 C   0  0  0  0  0  2  0  0  0  0  0  0
  180.7060  174.9810  138.7890 C   0  0  0  0  0  0  0  0  0  0  0  0
  182.6270  172.5010  136.0190 C   0  0  1  0  0  3  0  0  0  0  0  0
  185.9670  177.0460  136.9690 C   0  0  1  0  0  3  0  0  0  0  0  0
  185.2490  173.2830  136.8990 C   0  0  0  0  0  3  0  0  0  0  0  0
  184.8630  177.5540  137.9000 C   0  0  1  0  0  3  0  0  0  0  0  0
  181.3910  176.2840  138.5160 C   0  0  2  0  0  3  0  0  0  0  0  0
  180.4080  171.9460  135.5080 O   0  0  0  0  0  0  0  0  0  0  0  0
  180.2550  176.3390  140.5770 C   0  0  0  0  0  3  0  0  0  0  0  0
  184.8550  179.0820  137.9560 C   0  0  0  0  0  2  0  0  0  0  0  0
  182.9050  176.1050  138.4770 C   0  0  0  0  0  2  0  0  0  0  0  0
  187.4300  174.1900  136.3700 C   0  0  0  0  0  0  0  0  0  0  0  0
  179.3420  173.9670  140.5330 N   0  0  0  0  0  1  0  0  0  0  0  0
  182.3440  171.0450  135.9740 C   0  0  1  0  0  3  0  0  0  0  0  0
  184.7440  179.3920  140.2950 O   0  0  0  0  0  0  0  0  0  0  0  0
  188.4570  177.2490  136.5100 C   0  0  0  0  0  0  0  0  0  0  0  0
  188.8380  178.2690  135.8820 O   0  0  0  0  0  0  0  0  0  0  0  0
  180.7950  174.1530  136.4470 C   0  0  0  0  0  2  0  0  0  0  0  0
  185.7940  177.5650  135.6810 O   0  0  0  0  0  1  0  0  0  0  0  0
  187.3520  177.4070  137.5190 C   0  0  2  0  0  3  0  0  0  0  0  0
  189.0770  175.9910  136.2130 N   0  0  0  0  0  2  0  0  0  0  0  0
  182.8630  180.2310  139.1420 C   0  0  0  0  0  2  0  0  0  0  0  0
  187.6250  176.6860  138.6850 O   0  0  0  0  0  1  0  0  0  0  0  0
  189.8790  173.7420  136.6290 C   0  0  0  0  0  0  0  0  0  0  0  0
  191.6120  175.0890  137.9540 C   0  0  0  0  0  0  0  0  0  0  0  0
  190.7420  175.6740  138.7080 N   0  0  0  0  0  2  0  0  0  0  0  0
  189.6790  172.6840  135.9710 O   0  0  0  0  0  0  0  0  0  0  0  0
  191.2150  174.0460  137.0480 N   0  0  0  0  0  2  0  0  0  0  0  0
  192.9580  175.4540  138.0600 O   0  0  0  0  0  0  0  0  0  0  0  0
  195.1070  174.4430  138.4160 C   0  0  0  0  0  1  0  0  0  0  0  0
  193.9980  174.7270  137.4180 C   0  0  0  0  0  3  0  0  0  0  0  0
  194.5660  175.5460  136.2680 C   0  0  0  0  0  1  0  0  0  0  0  0
  1  6  2  0  0  0  0
  1  8  1  0  0  0  0
  2  8  1  0  0  0  0
  4 31  2  0  0  0  0
  5 38  1  0  0  0  0
  5  9  1  0  0  0  0
  6 28  1  0  0  0  0
  8 21  2  0  0  0  0
  9 15  2  0  0  0  0
 10 19  1  0  0  0  0
 10 34  1  1  0  0  0
 11  9  1  0  0  0  0
 11 25  2  0  0  0  0
 13 29  1  0  0  0  0
 13 25  1  0  0  0  0
 14 40  1  6  0  0  0
 16 27  1  0  0  0  0
 17 18  1  0  0  0  0
 18 13  2  0  0  0  0
 19  2  1  6  0  0  0
 20 35  1  6  0  0  0
 20 36  1  0  0  0  0
 20 22  1  0  0  0  0
 21  7  1  0  0  0  0
 22 16  1  6  0  0  0
 22 26  1  0  0  0  0
 23 27  1  1  0  0  0
 23 18  1  0  0  0  0
 23 11  1  0  0  0  0
 24 10  1  0  0  0  0
 24 12  1  0  0  0  0
 26  4  1  0  0  0  0
 28 14  1  0  0  0  0
 28  7  2  0  0  0  0
 30 19  1  0  0  0  0
 30 12  1  0  0  0  0
 30  3  1  1  0  0  0
 32 36  1  0  0  0  0
 33 32  2  0  0  0  0
 34 17  1  0  0  0  0
 36 39  1  1  0  0  0
 37 32  1  0  0  0  0
 37 14  1  0  0  0  0
 38  4  1  0  0  0  0
 40 44  1  0  0  0  0
 41 45  1  0  0  0  0
 41 42  2  0  0  0  0
 43 40  2  0  0  0  0
 44 41  1  0  0  0  0
 47 45  1  0  0  0  0
 47 46  1  0  0  0  0
 48 47  1  0  0  0  0
M  END
>  <MODEL>
1

>  <REMARK>
 VINA RESULT:      -7.3      0.000      0.000
  Name = 
  3 active torsions:
  status: ('A' for Active; 'I' for Inactive)
    1  A    between atoms: C_5  and  O_40
    2  A    between atoms: C_11  and  C_19
    3  A    between atoms: C_17  and  O_40
                            x       y       z     vdW  Elec       q    Type
                         _______ _______ _______ _____ _____    ______ ____

>  <TORSDO>
F 3

$$$$
=
 OpenBabel11062415243D

 48 52  0  0  1  0  0  0  0  0999 V2000
  182.9700  179.1810  138.5100 C   0  0  0  0  0  3  0  0  0  0  0  0
  182.8820  179.4350  140.9060 O   0  0  0  0  0  0  0  0  0  0  0  0
  181.4090  177.4180  142.9130 N   0  0  0  0  0  1  0  0  0  0  0  0
  190.2470  177.0090  139.3950 C   0  0  0  0  0  0  0  0  0  0  0  0
  190.4090  178.1120  141.4920 O   0  0  0  0  0  0  0  0  0  0  0  0
  183.2240  178.4050  137.3760 C   0  0  0  0  0  3  0  0  0  0  0  0
  183.7410  176.5080  138.7880 C   0  0  0  0  0  3  0  0  0  0  0  0
  183.1090  178.6300  139.7880 C   0  0  0  0  0  0  0  0  0  0  0  0
  190.1430  177.1870  142.5020 C   0  0  0  0  0  0  0  0  0  0  0  0
  183.7570  180.0240  143.0580 C   0  0  1  0  0  3  0  0  0  0  0  0
  188.8970  177.3030  143.2680 C   0  0  0  0  0  0  0  0  0  0  0  0
  182.1430  179.1540  144.2830 O   0  0  0  0  0  0  0  0  0  0  0  0
  187.3400  177.0370  144.8430 C   0  0  0  0  0  0  0  0  0  0  0  0
  183.9400  176.2210  136.3160 C   0  0  2  0  0  3  0  0  0  0  0  0
  190.9550  176.2500  142.7410 O   0  0  0  0  0  0  0  0  0  0  0  0
  187.5250  178.3170  140.3300 C   0  0  0  0  0  2  0  0  0  0  0  0
  185.3400  178.2980  144.0340 C   0  0  0  0  0  2  0  0  0  0  0  0
  186.7530  177.8130  143.9410 C   0  0  0  0  0  0  0  0  0  0  0  0
  183.1130  178.9630  142.2250 C   0  0  1  0  0  3  0  0  0  0  0  0
  186.7760  177.7420  138.0040 C   0  0  1  0  0  3  0  0  0  0  0  0
  183.4890  177.2850  139.9210 C   0  0  0  0  0  3  0  0  0  0  0  0
  187.8120  177.4720  139.0980 C   0  0  1  0  0  3  0  0  0  0  0  0
  187.6880  178.0600  142.7980 C   0  0  2  0  0  3  0  0  0  0  0  0
  182.9700  180.1970  144.2120 O   0  0  0  0  0  0  0  0  0  0  0  0
  188.6920  176.7000  144.4380 C   0  0  0  0  0  3  0  0  0  0  0  0
  189.2270  177.7540  138.5930 C   0  0  0  0  0  2  0  0  0  0  0  0
  187.1490  177.4410  141.5120 C   0  0  0  0  0  2  0  0  0  0  0  0
  183.6200  177.0660  137.5140 C   0  0  0  0  0  0  0  0  0  0  0  0
  186.7310  176.5990  146.0520 N   0  0  0  0  0  1  0  0  0  0  0  0
  181.8370  178.8040  142.9650 C   0  0  1  0  0  3  0  0  0  0  0  0
  190.3100  175.7880  139.3290 O   0  0  0  0  0  0  0  0  0  0  0  0
  186.2120  177.1840  135.5910 C   0  0  0  0  0  0  0  0  0  0  0  0
  186.8450  177.8070  134.7010 O   0  0  0  0  0  0  0  0  0  0  0  0
  185.2020  179.6800  143.4040 C   0  0  0  0  0  2  0  0  0  0  0  0
  186.8660  179.0680  137.5670 O   0  0  0  0  0  1  0  0  0  0  0  0
  186.9550  176.7690  136.8320 C   0  0  2  0  0  3  0  0  0  0  0  0
  184.8180  176.9250  135.3870 N   0  0  0  0  0  2  0  0  0  0  0  0
  191.1460  177.7550  140.3300 C   0  0  0  0  0  2  0  0  0  0  0  0
  186.6160  175.4680  137.2140 O   0  0  0  0  0  1  0  0  0  0  0  0
  182.7090  175.7470  135.5920 C   0  0  0  0  0  0  0  0  0  0  0  0
  183.2280  173.2500  135.8580 C   0  0  0  0  0  0  0  0  0  0  0  0
  183.9310  173.3990  136.9310 N   0  0  0  0  0  2  0  0  0  0  0  0
  181.8810  176.5860  135.1410 O   0  0  0  0  0  0  0  0  0  0  0  0
  182.5140  174.3600  135.2880 N   0  0  0  0  0  2  0  0  0  0  0  0
  183.1360  171.9810  135.2770 O   0  0  0  0  0  0  0  0  0  0  0  0
  183.5750  169.7260  135.9760 C   0  0  0  0  0  1  0  0  0  0  0  0
  182.5740  170.8690  135.9620 C   0  0  0  0  0  3  0  0  0  0  0  0
  181.3110  170.4090  135.2490 C   0  0  0  0  0  1  0  0  0  0  0  0
  1  8  1  0  0  0  0
  4 38  1  0  0  0  0
  5  9  1  0  0  0  0
  6 28  1  0  0  0  0
  6  1  2  0  0  0  0
  7 21  1  0  0  0  0
  8 21  2  0  0  0  0
  8  2  1  0  0  0  0
  9 15  2  0  0  0  0
  9 11  1  0  0  0  0
 10 34  1  1  0  0  0
 10 24  1  0  0  0  0
 11 25  2  0  0  0  0
 13 29  1  0  0  0  0
 14 40  1  6  0  0  0
 14 28  1  0  0  0  0
 16 27  1  0  0  0  0
 18 17  1  0  0  0  0
 18 13  2  0  0  0  0
 19  2  1  6  0  0  0
 19 30  1  0  0  0  0
 19 10  1  0  0  0  0
 20 35  1  6  0  0  0
 20 22  1  0  0  0  0
 22 26  1  6  0  0  0
 22 16  1  0  0  0  0
 23 27  1  6  0  0  0
 23 11  1  0  0  0  0
 23 18  1  0  0  0  0
 24 12  1  0  0  0  0
 25 13  1  0  0  0  0
 26  4  1  0  0  0  0
 28  7  2  0  0  0  0
 30  3  1  1  0  0  0
 30 12  1  0  0  0  0
 31  4  2  0  0  0  0
 32 36  1  0  0  0  0
 33 32  2  0  0  0  0
 34 17  1  0  0  0  0
 36 39  1  1  0  0  0
 36 20  1  0  0  0  0
 37 32  1  0  0  0  0
 37 14  1  0  0  0  0
 38  5  1  0  0  0  0
 41 42  2  0  0  0  0
 43 40  2  0  0  0  0
 44 40  1  0  0  0  0
 44 41  1  0  0  0  0
 45 41  1  0  0  0  0
 45 47  1  0  0  0  0
 47 46  1  0  0  0  0
 48 47  1  0  0  0  0
M  END
>  <MODEL>
2

>  <REMARK>
 VINA RESULT:      -5.8      3.624      8.122
  Name = 
  3 active torsions:
  status: ('A' for Active; 'I' for Inactive)
    1  A    between atoms: C_5  and  O_40
    2  A    between atoms: C_11  and  C_19
    3  A    between atoms: C_17  and  O_40
                            x       y       z     vdW  Elec       q    Type
                         _______ _______ _______ _____ _____    ______ ____

>  <TORSDO>
F 3

$$$$
=
 OpenBabel11062415243D

 48 52  0  0  1  0  0  0  0  0999 V2000
  184.0230  179.8500  138.3570 C   0  0  0  0  0  3  0  0  0  0  0  0
  186.1900  179.1680  137.5500 O   0  0  0  0  0  0  0  0  0  0  0  0
  188.7190  178.5180  139.4060 N   0  0  0  0  0  1  0  0  0  0  0  0
  181.6120  172.7830  136.7140 C   0  0  0  0  0  0  0  0  0  0  0  0
  183.3670  172.4580  135.1490 O   0  0  0  0  0  0  0  0  0  0  0  0
  182.9260  179.6690  139.2040 C   0  0  0  0  0  3  0  0  0  0  0  0
  184.0240  177.7660  140.2210 C   0  0  0  0  0  3  0  0  0  0  0  0
  185.1200  178.9870  138.4290 C   0  0  0  0  0  0  0  0  0  0  0  0
  184.4230  171.8110  135.7920 C   0  0  0  0  0  0  0  0  0  0  0  0
  187.6920  178.0050  136.0880 C   0  0  1  0  0  3  0  0  0  0  0  0
  185.6640  172.5510  136.0510 C   0  0  0  0  0  0  0  0  0  0  0  0
  189.5450  178.3480  137.2330 O   0  0  0  0  0  0  0  0  0  0  0  0
  187.7800  173.0330  136.5620 C   0  0  0  0  0  0  0  0  0  0  0  0
  181.7400  178.3750  141.0260 C   0  0  2  0  0  3  0  0  0  0  0  0
  184.3050  170.6110  136.1650 O   0  0  0  0  0  0  0  0  0  0  0  0
  183.6240  175.2170  136.5730 C   0  0  0  0  0  2  0  0  0  0  0  0
  187.9130  175.5290  136.5960 C   0  0  0  0  0  2  0  0  0  0  0  0
  187.2110  174.2210  136.4000 C   0  0  0  0  0  0  0  0  0  0  0  0
  187.2790  178.2580  137.5020 C   0  0  1  0  0  3  0  0  0  0  0  0
  181.9090  176.3540  138.0110 C   0  0  1  0  0  3  0  0  0  0  0  0
  185.1180  177.9470  139.3720 C   0  0  0  0  0  3  0  0  0  0  0  0
  182.4280  175.0110  137.4900 C   0  0  1  0  0  3  0  0  0  0  0  0
  185.7610  174.0490  136.0700 C   0  0  2  0  0  3  0  0  0  0  0  0
  189.0700  178.2760  135.9900 O   0  0  0  0  0  0  0  0  0  0  0  0
  186.8220  171.9660  136.3500 C   0  0  0  0  0  3  0  0  0  0  0  0
  181.3290  174.2520  136.7460 C   0  0  0  0  0  2  0  0  0  0  0  0
  184.8810  174.6180  137.1790 C   0  0  0  0  0  2  0  0  0  0  0  0
  182.9210  178.6190  140.1330 C   0  0  0  0  0  0  0  0  0  0  0  0
  189.1500  172.8310  136.8920 N   0  0  0  0  0  1  0  0  0  0  0  0
  188.5210  178.8880  138.0160 C   0  0  1  0  0  3  0  0  0  0  0  0
  181.5700  172.1260  137.7460 O   0  0  0  0  0  0  0  0  0  0  0  0
  180.0330  177.3880  139.3750 C   0  0  0  0  0  0  0  0  0  0  0  0
  178.9310  177.5500  138.7930 O   0  0  0  0  0  0  0  0  0  0  0  0
  187.3610  176.5840  135.6420 C   0  0  0  0  0  2  0  0  0  0  0  0
  181.4290  177.1340  136.9530 O   0  0  0  0  0  1  0  0  0  0  0  0
  180.8210  176.1430  139.0700 C   0  0  2  0  0  3  0  0  0  0  0  0
  180.4890  178.4050  140.2760 N   0  0  0  0  0  2  0  0  0  0  0  0
  182.0120  172.1320  135.4280 C   0  0  0  0  0  2  0  0  0  0  0  0
  181.3620  175.5880  140.2330 O   0  0  0  0  0  1  0  0  0  0  0  0
  181.6670  179.3450  142.1740 C   0  0  0  0  0  0  0  0  0  0  0  0
  183.6370  178.3310  143.4650 C   0  0  0  0  0  0  0  0  0  0  0  0
  184.2170  177.8490  142.4160 N   0  0  0  0  0  2  0  0  0  0  0  0
  180.7990  180.2610  142.1700 O   0  0  0  0  0  0  0  0  0  0  0  0
  182.4830  179.1790  143.3400 N   0  0  0  0  0  2  0  0  0  0  0  0
  184.1710  178.0490  144.7260 O   0  0  0  0  0  0  0  0  0  0  0  0
  186.4940  177.4610  144.8830 C   0  0  0  0  0  1  0  0  0  0  0  0
  185.4450  178.5290  145.1380 C   0  0  0  0  0  3  0  0  0  0  0  0
  185.4180  178.8490  146.6250 C   0  0  0  0  0  1  0  0  0  0  0  0
  1  8  2  0  0  0  0
  1  6  1  0  0  0  0
  2  8  1  0  0  0  0
  4 26  1  0  0  0  0
  4 31  2  0  0  0  0
  5 38  1  0  0  0  0
  5  9  1  0  0  0  0
  6 28  2  0  0  0  0
  8 21  1  0  0  0  0
  9 11  1  0  0  0  0
  9 15  2  0  0  0  0
 10 34  1  1  0  0  0
 10 19  1  0  0  0  0
 11 23  1  0  0  0  0
 11 25  2  0  0  0  0
 12 30  1  0  0  0  0
 13 29  1  0  0  0  0
 14 40  1  1  0  0  0
 16 27  1  0  0  0  0
 18 13  2  0  0  0  0
 18 17  1  0  0  0  0
 19  2  1  6  0  0  0
 19 30  1  0  0  0  0
 20 35  1  6  0  0  0
 20 36  1  0  0  0  0
 21  7  2  0  0  0  0
 22 16  1  6  0  0  0
 22 20  1  0  0  0  0
 23 18  1  0  0  0  0
 23 27  1  1  0  0  0
 24 10  1  0  0  0  0
 24 12  1  0  0  0  0
 25 13  1  0  0  0  0
 26 22  1  0  0  0  0
 28  7  1  0  0  0  0
 28 14  1  0  0  0  0
 30  3  1  1  0  0  0
 32 37  1  0  0  0  0
 33 32  2  0  0  0  0
 34 17  1  0  0  0  0
 36 32  1  0  0  0  0
 36 39  1  1  0  0  0
 37 14  1  0  0  0  0
 38  4  1  0  0  0  0
 40 44  1  0  0  0  0
 41 45  1  0  0  0  0
 42 41  2  0  0  0  0
 43 40  2  0  0  0  0
 44 41  1  0  0  0  0
 45 47  1  0  0  0  0
 46 47  1  0  0  0  0
 47 48  1  0  0  0  0
M  END
>  <MODEL>
3

>  <REMARK>
 VINA RESULT:      -5.1      2.914      8.684
  Name = 
  3 active torsions:
  status: ('A' for Active; 'I' for Inactive)
    1  A    between atoms: C_5  and  O_40
    2  A    between atoms: C_11  and  C_19
    3  A    between atoms: C_17  and  O_40
                            x       y       z     vdW  Elec       q    Type
                         _______ _______ _______ _____ _____    ______ ____

>  <TORSDO>
F 3

$$$$
=
 OpenBabel11062415243D

 48 52  0  0  1  0  0  0  0  0999 V2000
  181.2570  178.4580  138.4990 C   0  0  0  0  0  3  0  0  0  0  0  0
  181.0570  178.8880  140.8620 O   0  0  0  0  0  0  0  0  0  0  0  0
  179.9350  176.8010  143.0190 N   0  0  0  0  0  1  0  0  0  0  0  0
  188.7850  177.7860  139.6500 C   0  0  0  0  0  0  0  0  0  0  0  0
  188.6790  179.0690  141.6460 O   0  0  0  0  0  0  0  0  0  0  0  0
  181.6840  177.6530  137.4390 C   0  0  0  0  0  3  0  0  0  0  0  0
  182.5090  176.0120  139.0160 C   0  0  0  0  0  3  0  0  0  0  0  0
  181.4620  178.0510  139.8210 C   0  0  0  0  0  0  0  0  0  0  0  0
  188.5640  178.1980  142.7290 C   0  0  0  0  0  0  0  0  0  0  0  0
  181.7460  179.8080  142.9650 C   0  0  1  0  0  3  0  0  0  0  0  0
  187.2980  178.1380  143.4690 C   0  0  0  0  0  0  0  0  0  0  0  0
  180.2910  178.7520  144.2420 O   0  0  0  0  0  0  0  0  0  0  0  0
  185.7770  177.7130  145.0430 C   0  0  0  0  0  0  0  0  0  0  0  0
  182.8260  175.5650  136.5790 C   0  0  2  0  0  3  0  0  0  0  0  0
  189.5310  177.4550  143.0570 O   0  0  0  0  0  0  0  0  0  0  0  0
  185.8410  178.6270  140.4380 C   0  0  0  0  0  2  0  0  0  0  0  0
  183.5980  178.5000  144.1050 C   0  0  0  0  0  2  0  0  0  0  0  0
  185.0790  178.2870  144.0700 C   0  0  0  0  0  0  0  0  0  0  0  0
  181.3360  178.5790  142.2200 C   0  0  1  0  0  3  0  0  0  0  0  0
  185.2780  177.7300  138.1620 C   0  0  1  0  0  3  0  0  0  0  0  0
  182.0840  176.8190  140.0740 C   0  0  0  0  0  3  0  0  0  0  0  0
  186.3160  177.7530  139.2870 C   0  0  1  0  0  3  0  0  0  0  0  0
  185.9820  178.6100  142.9210 C   0  0  2  0  0  3  0  0  0  0  0  0
  180.9100  179.9230  144.0920 O   0  0  0  0  0  0  0  0  0  0  0  0
  187.1780  177.6060  144.6840 C   0  0  0  0  0  3  0  0  0  0  0  0
  187.6660  178.2560  138.7760 C   0  0  0  0  0  2  0  0  0  0  0  0
  185.6050  177.7970  141.6870 C   0  0  0  0  0  2  0  0  0  0  0  0
  182.3200  176.4300  137.6960 C   0  0  0  0  0  0  0  0  0  0  0  0
  185.2270  177.2690  146.2780 N   0  0  0  0  0  1  0  0  0  0  0  0
  180.0930  178.2420  142.9570 C   0  0  1  0  0  3  0  0  0  0  0  0
  189.0780  176.5980  139.6910 O   0  0  0  0  0  0  0  0  0  0  0  0
  184.8960  176.8780  135.8000 C   0  0  0  0  0  0  0  0  0  0  0  0
  185.4250  177.5330  134.8670 O   0  0  0  0  0  0  0  0  0  0  0  0
  183.2200  179.7750  143.3560 C   0  0  0  0  0  2  0  0  0  0  0  0
  185.1290  179.0090  137.6130 O   0  0  0  0  0  1  0  0  0  0  0  0
  185.6690  176.7150  137.0810 C   0  0  2  0  0  3  0  0  0  0  0  0
  183.5810  176.3430  135.6030 N   0  0  0  0  0  2  0  0  0  0  0  0
  189.5020  178.7640  140.5280 C   0  0  0  0  0  2  0  0  0  0  0  0
  185.5710  175.4090  137.5700 O   0  0  0  0  0  1  0  0  0  0  0  0
  181.7270  174.8070  135.8850 C   0  0  0  0  0  0  0  0  0  0  0  0
  183.1240  172.6990  135.4640 C   0  0  0  0  0  0  0  0  0  0  0  0
  183.9170  172.8930  136.4650 N   0  0  0  0  0  2  0  0  0  0  0  0
  180.5900  175.3360  135.7440 O   0  0  0  0  0  0  0  0  0  0  0  0
  181.9760  173.5400  135.2650 N   0  0  0  0  0  2  0  0  0  0  0  0
  183.3750  171.6320  134.5960 O   0  0  0  0  0  0  0  0  0  0  0  0
  181.5150  170.2760  135.2850 C   0  0  0  0  0  1  0  0  0  0  0  0
  182.9840  170.2980  134.8960 C   0  0  0  0  0  3  0  0  0  0  0  0
  183.8100  169.7680  136.0590 C   0  0  0  0  0  1  0  0  0  0  0  0
  1  8  1  0  0  0  0
  4 31  2  0  0  0  0
  4 38  1  0  0  0  0
  5  9  1  0  0  0  0
  6 28  1  0  0  0  0
  6  1  2  0  0  0  0
  7 21  1  0  0  0  0
  8 21  2  0  0  0  0
  8  2  1  0  0  0  0
  9 15  2  0  0  0  0
  9 11  1  0  0  0  0
 10 34  1  1  0  0  0
 10 24  1  0  0  0  0
 11 25  2  0  0  0  0
 13 29  1  0  0  0  0
 14 40  1  6  0  0  0
 14 28  1  0  0  0  0
 16 27  1  0  0  0  0
 18 17  1  0  0  0  0
 18 13  2  0  0  0  0
 19  2  1  6  0  0  0
 19 30  1  0  0  0  0
 19 10  1  0  0  0  0
 20 35  1  6  0  0  0
 20 22  1  0  0  0  0
 22 26  1  6  0  0  0
 22 16  1  0  0  0  0
 23 27  1  6  0  0  0
 23 11  1  0  0  0  0
 23 18  1  0  0  0  0
 24 12  1  0  0  0  0
 25 13  1  0  0  0  0
 26  4  1  0  0  0  0
 28  7  2  0  0  0  0
 30  3  1  1  0  0  0
 30 12  1  0  0  0  0
 32 36  1  0  0  0  0
 33 32  2  0  0  0  0
 34 17  1  0  0  0  0
 36 39  1  1  0  0  0
 36 20  1  0  0  0  0
 37 32  1  0  0  0  0
 37 14  1  0  0  0  0
 38  5  1  0  0  0  0
 41 42  2  0  0  0  0
 43 40  2  0  0  0  0
 44 41  1  0  0  0  0
 44 40  1  0  0  0  0
 45 47  1  0  0  0  0
 45 41  1  0  0  0  0
 47 46  1  0  0  0  0
 47 48  1  0  0  0  0
M  END
>  <MODEL>
4

>  <REMARK>
 VINA RESULT:      -4.4      3.458      7.834
  Name = 
  3 active torsions:
  status: ('A' for Active; 'I' for Inactive)
    1  A    between atoms: C_5  and  O_40
    2  A    between atoms: C_11  and  C_19
    3  A    between atoms: C_17  and  O_40
                            x       y       z     vdW  Elec       q    Type
                         _______ _______ _______ _____ _____    ______ ____

>  <TORSDO>
F 3

$$$$
