=
 OpenBabel11062417053D

 47 53  0  0  1  0  0  0  0  0999 V2000
  184.6890  173.9130  135.1340 C   0  0  0  0  0  2  0  0  0  0  0  0
  185.4600  179.4130  142.3040 C   0  0  2  0  0  3  0  0  0  0  0  0
  186.5790  178.4520  140.6140 C   0  0  2  0  0  3  0  0  0  0  0  0
  188.3120  176.1720  136.1470 C   0  0  0  0  0  0  0  0  0  0  0  0
  182.3080  173.5530  136.0380 C   0  0  2  0  0  0  0  0  0  0  0  0
  185.9210  179.6490  140.9920 O   0  0  0  0  0  0  0  0  0  0  0  0
  186.1170  178.1730  142.8500 C   0  0  0  0  0  2  0  0  0  0  0  0
  182.1470  177.1640  138.6790 C   0  0  0  0  0  2  0  0  0  0  0  0
  181.6160  172.4410  136.8250 C   0  0  0  0  0  2  0  0  0  0  0  0
  188.5260  177.3900  136.5440 C   0  0  0  0  0  0  0  0  0  0  0  0
  181.8630  173.3530  134.5950 C   0  0  0  0  0  1  0  0  0  0  0  0
  189.3270  175.4130  135.5560 O   0  0  0  0  0  1  0  0  0  0  0  0
  184.0130  174.0110  137.5470 C   0  0  0  0  0  0  0  0  0  0  0  0
  183.2980  176.1510  138.6600 C   0  0  0  0  0  2  0  0  0  0  0  0
  183.6960  177.1470  141.2210 O   0  0  0  0  0  1  0  0  0  0  0  0
  187.1750  178.6180  138.1160 C   0  0  1  0  0  3  0  0  0  0  0  0
  186.1810  173.5430  135.1990 C   0  0  0  0  0  2  0  0  0  0  0  0
  186.9370  175.6280  136.4860 C   0  0  2  0  0  3  0  0  0  0  0  0
  183.9430  171.7840  136.3730 C   0  0  0  0  0  2  0  0  0  0  0  0
  186.0410  177.5840  137.8730 C   0  0  0  0  0  2  0  0  0  0  0  0
  182.6070  171.2810  136.8990 C   0  0  0  0  0  2  0  0  0  0  0  0
  183.7940  173.2940  136.2420 C   0  0  2  0  0  0  0  0  0  0  0  0
  186.4890  176.0970  137.8800 C   0  0  0  0  0  2  0  0  0  0  0  0
  183.1100  179.1260  139.9890 C   0  0  0  0  0  3  0  0  0  0  0  0
  186.9540  177.6490  141.7890 N   0  0  2  0  0  0  0  0  0  0  0  0
  182.0100  174.9450  136.6880 C   0  0  1  0  0  3  0  0  0  0  0  0
  187.6940  178.6520  139.5700 C   0  0  0  0  0  2  0  0  0  0  0  0
  182.6480  178.5740  138.8370 C   0  0  0  0  0  3  0  0  0  0  0  0
  184.6570  173.4970  138.4970 O   0  0  0  0  0  0  0  0  0  0  0  0
  186.9010  174.0930  136.4350 C   0  0  0  0  0  2  0  0  0  0  0  0
  183.9570  179.2630  142.3490 C   0  0  0  0  0  0  0  0  0  0  0  0
  188.3400  178.5270  137.1510 C   0  0  0  0  0  3  0  0  0  0  0  0
  183.3640  179.7120  143.3290 O   0  0  0  0  0  0  0  0  0  0  0  0
  183.1910  178.4510  141.3260 C   0  0  2  0  0  3  0  0  0  0  0  0
  183.0660  175.0530  137.7220 N   0  0  0  0  0  0  0  0  0  0  0  0
  190.6600  176.3000  144.6040 C   0  0  2  0  0  3  0  0  0  0  0  0
  188.8450  177.2540  143.5160 C   0  0  1  0  0  3  0  0  0  0  0  0
  192.0650  175.6900  144.4780 C   0  0  0  0  0  1  0  0  0  0  0  0
  188.4170  177.7060  142.0920 C   0  0  1  0  0  3  0  0  0  0  0  0
  190.5620  176.3990  142.1590 C   0  0  0  0  0  2  0  0  0  0  0  0
  189.8190  176.1680  143.4040 N   0  0  1  0  0  0  0  0  0  0  0  0
  189.3760  176.7920  140.8260 S   0  0  0  0  0  0  0  0  0  0  0  0
  190.6670  177.7520  145.0750 C   0  0  0  0  0  2  0  0  0  0  0  0
  189.4450  178.3690  144.3920 C   0  0  0  0  0  2  0  0  0  0  0  0
  181.1110  177.1580  135.9800 F   0  0  0  0  0  0  0  0  0  0  0  0
  183.3220  176.7550  135.7770 F   0  0  0  0  0  0  0  0  0  0  0  0
  182.0580  176.1840  135.7230 C   0  0  0  0  0  3  0  0  0  0  0  0
  1 17  1  0  0  0  0
  2 31  1  0  0  0  0
  2  7  1  6  0  0  0
  3 27  1  1  0  0  0
  3  6  1  0  0  0  0
  3 25  1  0  0  0  0
  4 18  1  0  0  0  0
  4 10  2  0  0  0  0
  5 11  1  6  0  0  0
  5 22  1  0  0  0  0
  5 26  1  0  0  0  0
  5  9  1  0  0  0  0
  6  2  1  0  0  0  0
  8 28  1  0  0  0  0
  9 21  1  0  0  0  0
 10 32  2  0  0  0  0
 12  4  1  0  0  0  0
 13 35  1  0  0  0  0
 13 29  2  0  0  0  0
 14  8  1  0  0  0  0
 16 32  1  6  0  0  0
 16 27  1  0  0  0  0
 17 30  1  0  0  0  0
 18 30  1  1  0  0  0
 18 23  1  0  0  0  0
 19 21  1  0  0  0  0
 20 23  1  0  0  0  0
 20 16  1  0  0  0  0
 22  1  1  6  0  0  0
 22 19  1  0  0  0  0
 22 13  1  0  0  0  0
 24 34  1  0  0  0  0
 25 39  1  0  0  0  0
 25  7  1  1  0  0  0
 26 47  1  6  0  0  0
 26 35  1  0  0  0  0
 28 24  2  0  0  0  0
 31 33  2  0  0  0  0
 34 15  1  6  0  0  0
 34 31  1  0  0  0  0
 35 14  1  0  0  0  0
 36 38  1  6  0  0  0
 36 43  1  0  0  0  0
 37 44  1  6  0  0  0
 39 42  1  6  0  0  0
 39 37  1  0  0  0  0
 41 40  1  6  0  0  0
 41 37  1  0  0  0  0
 41 36  1  0  0  0  0
 42 40  1  0  0  0  0
 44 43  1  0  0  0  0
 47 46  1  0  0  0  0
 47 45  1  0  0  0  0
M  END
>  <MODEL>
1

>  <REMARK>
 VINA RESULT:      -6.8      0.000      0.000
  Name = 
  2 active torsions:
  status: ('A' for Active; 'I' for Inactive)
    1  A    between atoms: C_11  and  N_37
    2  A    between atoms: C_33  and  C_38
                            x       y       z     vdW  Elec       q    Type
                         _______ _______ _______ _____ _____    ______ ____

>  <TORSDO>
F 2

$$$$
=
 OpenBabel11062417053D

 47 53  0  0  1  0  0  0  0  0999 V2000
  184.2100  174.8120  135.1840 C   0  0  0  0  0  2  0  0  0  0  0  0
  185.7320  179.2970  142.9180 C   0  0  2  0  0  3  0  0  0  0  0  0
  186.7110  178.3630  141.1280 C   0  0  2  0  0  3  0  0  0  0  0  0
  188.1300  176.3430  136.4310 C   0  0  0  0  0  0  0  0  0  0  0  0
  181.7900  174.7360  136.0490 C   0  0  2  0  0  0  0  0  0  0  0  0
  186.2440  179.6000  141.6380 O   0  0  0  0  0  0  0  0  0  0  0  0
  186.1780  177.9160  143.3200 C   0  0  0  0  0  2  0  0  0  0  0  0
  182.1600  178.0140  139.0750 C   0  0  0  0  0  2  0  0  0  0  0  0
  180.9190  173.6680  136.7090 C   0  0  0  0  0  2  0  0  0  0  0  0
  188.5260  177.4600  136.9610 C   0  0  0  0  0  0  0  0  0  0  0  0
  181.3400  174.7680  134.5940 C   0  0  0  0  0  1  0  0  0  0  0  0
  189.0200  175.5030  135.7560 O   0  0  0  0  0  1  0  0  0  0  0  0
  183.5230  174.7490  137.5950 C   0  0  0  0  0  0  0  0  0  0  0  0
  183.1370  176.8400  138.9400 C   0  0  0  0  0  2  0  0  0  0  0  0
  183.6490  177.4710  141.5940 O   0  0  0  0  0  1  0  0  0  0  0  0
  187.3620  178.7070  138.6620 C   0  0  1  0  0  3  0  0  0  0  0  0
  185.6250  174.2050  135.2030 C   0  0  0  0  0  2  0  0  0  0  0  0
  186.6810  175.9900  136.7110 C   0  0  2  0  0  3  0  0  0  0  0  0
  183.1210  172.7040  136.1800 C   0  0  0  0  0  2  0  0  0  0  0  0
  186.0840  177.8980  138.3090 C   0  0  0  0  0  2  0  0  0  0  0  0
  181.7140  172.3640  136.6510 C   0  0  0  0  0  2  0  0  0  0  0  0
  183.2130  174.2240  136.2190 C   0  0  2  0  0  0  0  0  0  0  0  0
  186.2910  176.3670  138.1500 C   0  0  0  0  0  2  0  0  0  0  0  0
  183.4010  179.6420  140.5920 C   0  0  0  0  0  3  0  0  0  0  0  0
  186.9370  177.3860  142.2060 N   0  0  2  0  0  0  0  0  0  0  0  0
  181.7050  176.0770  136.8500 C   0  0  1  0  0  3  0  0  0  0  0  0
  187.8580  178.4980  140.1100 C   0  0  0  0  0  2  0  0  0  0  0  0
  182.8750  179.3010  139.3860 C   0  0  0  0  0  3  0  0  0  0  0  0
  184.0640  174.0380  138.4790 O   0  0  0  0  0  0  0  0  0  0  0  0
  186.4050  174.4950  136.4900 C   0  0  0  0  0  2  0  0  0  0  0  0
  184.2240  179.3830  142.9500 C   0  0  0  0  0  0  0  0  0  0  0  0
  188.5130  178.5390  137.6900 C   0  0  0  0  0  3  0  0  0  0  0  0
  183.6940  179.8090  143.9750 O   0  0  0  0  0  0  0  0  0  0  0  0
  183.3550  178.8190  141.8450 C   0  0  2  0  0  3  0  0  0  0  0  0
  182.7490  175.9020  137.8860 N   0  0  0  0  0  0  0  0  0  0  0  0
  190.6860  178.0640  145.2010 C   0  0  2  0  0  3  0  0  0  0  0  0
  189.0010  178.0940  143.6040 C   0  0  1  0  0  3  0  0  0  0  0  0
  191.7910  177.2530  145.8940 C   0  0  0  0  0  1  0  0  0  0  0  0
  188.3860  177.1770  142.5090 C   0  0  1  0  0  3  0  0  0  0  0  0
  190.0320  176.0230  144.0150 C   0  0  0  0  0  2  0  0  0  0  0  0
  189.5780  177.2600  144.6600 N   0  0  1  0  0  0  0  0  0  0  0  0
  188.7180  175.4180  142.8990 S   0  0  0  0  0  0  0  0  0  0  0  0
  191.2100  179.0140  144.1280 C   0  0  0  0  0  2  0  0  0  0  0  0
  190.0800  179.0670  143.0970 C   0  0  0  0  0  2  0  0  0  0  0  0
  183.2800  177.6010  135.6640 F   0  0  0  0  0  0  0  0  0  0  0  0
  181.1740  177.3760  134.8870 F   0  0  0  0  0  0  0  0  0  0  0  0
  181.9620  177.3910  136.0280 C   0  0  0  0  0  3  0  0  0  0  0  0
  1 17  1  0  0  0  0
  2 31  1  0  0  0  0
  2  7  1  6  0  0  0
  3 27  1  1  0  0  0
  3  6  1  0  0  0  0
  3 25  1  0  0  0  0
  4 18  1  0  0  0  0
  4 10  2  0  0  0  0
  5 11  1  6  0  0  0
  5 22  1  0  0  0  0
  5  9  1  0  0  0  0
  5 26  1  0  0  0  0
  6  2  1  0  0  0  0
  8 28  1  0  0  0  0
 10 32  2  0  0  0  0
 12  4  1  0  0  0  0
 13 35  1  0  0  0  0
 13 29  2  0  0  0  0
 14  8  1  0  0  0  0
 16 32  1  6  0  0  0
 16 27  1  0  0  0  0
 17 30  1  0  0  0  0
 18 30  1  1  0  0  0
 18 23  1  0  0  0  0
 19 22  1  0  0  0  0
 19 21  1  0  0  0  0
 20 16  1  0  0  0  0
 21  9  1  0  0  0  0
 22  1  1  6  0  0  0
 22 13  1  0  0  0  0
 23 20  1  0  0  0  0
 24 34  1  0  0  0  0
 25 39  1  0  0  0  0
 25  7  1  1  0  0  0
 26 47  1  6  0  0  0
 26 35  1  0  0  0  0
 28 24  2  0  0  0  0
 31 33  2  0  0  0  0
 34 15  1  6  0  0  0
 34 31  1  0  0  0  0
 35 14  1  0  0  0  0
 36 38  1  6  0  0  0
 37 44  1  6  0  0  0
 37 41  1  0  0  0  0
 39 42  1  1  0  0  0
 39 37  1  0  0  0  0
 41 40  1  6  0  0  0
 41 36  1  0  0  0  0
 42 40  1  0  0  0  0
 43 36  1  0  0  0  0
 44 43  1  0  0  0  0
 45 47  1  0  0  0  0
 46 47  1  0  0  0  0
M  END
>  <MODEL>
2

>  <REMARK>
 VINA RESULT:      -5.0      0.982      1.181
  Name = 
  2 active torsions:
  status: ('A' for Active; 'I' for Inactive)
    1  A    between atoms: C_11  and  N_37
    2  A    between atoms: C_33  and  C_38
                            x       y       z     vdW  Elec       q    Type
                         _______ _______ _______ _____ _____    ______ ____

>  <TORSDO>
F 2

$$$$
