=
 OpenBabel11062417313D

 47 50  0  0  1  0  0  0  0  0999 V2000
  187.5460  177.1050  136.8740 C   0  0  0  0  0  0  0  0  0  0  0  0
  185.5600  177.8090  137.7270 N   0  0  0  0  0  0  0  0  0  0  0  0
  187.0400  178.4280  140.2250 F   0  0  0  0  0  0  0  0  0  0  0  0
  186.9440  177.6240  137.9780 C   0  0  0  0  0  0  0  0  0  0  0  0
  189.0510  177.5990  139.1590 C   0  0  0  0  0  0  0  0  0  0  0  0
  188.9060  176.8200  136.8380 C   0  0  0  0  0  3  0  0  0  0  0  0
  186.6180  176.9390  135.8190 N   0  0  0  0  0  0  0  0  0  0  0  0
  189.6560  177.0690  137.9950 C   0  0  0  0  0  3  0  0  0  0  0  0
  187.6640  177.8970  139.1460 C   0  0  0  0  0  0  0  0  0  0  0  0
  185.3280  177.4110  136.3330 C   0  0  0  0  0  3  0  0  0  0  0  0
  189.3210  178.3210  141.5700 N   0  0  0  0  0  2  0  0  0  0  0  0
  191.1010  177.4600  140.3420 O   0  0  0  0  0  0  0  0  0  0  0  0
  189.8850  177.7930  140.3650 C   0  0  0  0  0  0  0  0  0  0  0  0
  190.0590  178.3680  142.8250 C   0  0  0  0  0  2  0  0  0  0  0  0
  189.6360  177.2130  143.7300 C   0  0  2  0  0  3  0  0  0  0  0  0
  190.6120  176.0520  143.6390 C   0  0  0  0  0  1  0  0  0  0  0  0
  188.1850  175.4220  143.1580 F   0  0  0  0  0  0  0  0  0  0  0  0
  188.1900  176.7640  143.4930 C   0  0  1  0  0  3  0  0  0  0  0  0
  187.2470  177.0230  144.6750 C   0  0  2  0  0  3  0  0  0  0  0  0
  185.4050  178.6320  145.0890 C   0  0  0  0  0  0  0  0  0  0  0  0
  187.8770  178.4590  148.3020 Cl  0  0  0  0  0  0  0  0  0  0  0  0
  184.0510  179.5780  144.5140 Cl  0  0  0  0  0  0  0  0  0  0  0  0
  186.0620  177.8420  144.2270 C   0  0  0  0  0  3  0  0  0  0  0  0
  187.0100  177.8620  146.8690 C   0  0  2  0  0  3  0  0  0  0  0  0
  187.9470  177.7050  145.7590 N   0  0  0  0  0  2  0  0  0  0  0  0
  185.9070  178.8520  146.4920 C   0  0  0  0  0  2  0  0  0  0  0  0
  184.7170  178.7680  138.4350 C   0  0  0  0  0  2  0  0  0  0  0  0
  183.5750  176.7220  138.9560 O   0  0  0  0  0  1  0  0  0  0  0  0
  181.5320  179.0200  141.1180 C   0  0  1  0  0  3  0  0  0  0  0  0
  183.6140  178.0830  139.2680 C   0  0  1  0  0  0  0  0  0  0  0  0
  183.9120  178.2140  140.7810 C   0  0  1  0  0  3  0  0  0  0  0  0
  184.4910  179.4490  141.0890 O   0  0  0  0  0  1  0  0  0  0  0  0
  180.2970  178.3700  141.0560 O   0  0  0  0  0  1  0  0  0  0  0  0
  182.6300  178.0520  141.6000 C   0  0  0  0  0  2  0  0  0  0  0  0
  181.8260  179.6570  139.8870 O   0  0  0  0  0  0  0  0  0  0  0  0
  182.2050  178.6690  138.9580 C   0  0  1  0  0  3  0  0  0  0  0  0
  181.7740  178.0010  136.6750 O   0  0  0  0  0  1  0  0  0  0  0  0
  181.8960  179.1060  137.5170 C   0  0  1  0  0  3  0  0  0  0  0  0
  180.6530  179.9800  137.4140 C   0  0  0  0  0  2  0  0  0  0  0  0
  180.9500  181.2920  136.6980 C   0  0  1  0  0  3  0  0  0  0  0  0
  180.5350  181.1940  135.3700 O   0  0  0  0  0  1  0  0  0  0  0  0
  180.2500  182.4650  137.3820 C   0  0  1  0  0  3  0  0  0  0  0  0
  179.9640  182.1400  138.7690 N   0  0  0  0  0  1  0  0  0  0  0  0
  181.1230  183.7110  137.3440 C   0  0  0  0  0  2  0  0  0  0  0  0
  179.8210  185.6220  136.7680 O   0  0  0  0  0  1  0  0  0  0  0  0
  180.5840  184.7040  136.3730 C   0  0  0  0  0  0  0  0  0  0  0  0
  180.9280  184.6220  135.0320 O   0  0  0  0  0  0  0  0  0  0  0  0
  1  4  1  0  0  0  0
  2  4  1  0  0  0  0
  2 27  1  0  0  0  0
  4  9  2  0  0  0  0
  5 13  1  0  0  0  0
  6  1  2  0  0  0  0
  6  8  1  0  0  0  0
  7 10  2  0  0  0  0
  7  1  1  0  0  0  0
  8  5  2  0  0  0  0
  9  5  1  0  0  0  0
  9  3  1  0  0  0  0
 10  2  1  0  0  0  0
 11 14  1  0  0  0  0
 12 13  2  0  0  0  0
 13 11  1  0  0  0  0
 14 15  1  0  0  0  0
 15 16  1  6  0  0  0
 18 17  1  1  0  0  0
 18 15  1  0  0  0  0
 19 18  1  6  0  0  0
 19 25  1  0  0  0  0
 20 26  1  0  0  0  0
 22 20  1  0  0  0  0
 23 19  1  0  0  0  0
 23 20  2  0  0  0  0
 24 21  1  1  0  0  0
 25 24  1  0  0  0  0
 26 24  1  0  0  0  0
 27 30  1  0  0  0  0
 29 33  1  6  0  0  0
 29 34  1  0  0  0  0
 30 28  1  6  0  0  0
 30 31  1  0  0  0  0
 31 32  1  6  0  0  0
 31 34  1  0  0  0  0
 35 29  1  0  0  0  0
 36 38  1  6  0  0  0
 36 30  1  0  0  0  0
 36 35  1  0  0  0  0
 38 37  1  6  0  0  0
 39 38  1  0  0  0  0
 40 41  1  6  0  0  0
 40 42  1  0  0  0  0
 40 39  1  0  0  0  0
 42 43  1  1  0  0  0
 44 42  1  0  0  0  0
 46 45  1  0  0  0  0
 46 44  1  0  0  0  0
 47 46  2  0  0  0  0
M  END
>  <MODEL>
1

>  <REMARK>
 VINA RESULT:      -8.3      0.000      0.000
  Name = 
  13 active torsions:
  status: ('A' for Active; 'I' for Inactive)
    1  A    between atoms: C_5  and  C_18
    2  A    between atoms: N_7  and  C_18
    3  A    between atoms: C_8  and  C_12
    4  A    between atoms: C_10  and  C_14
    5  A    between atoms: C_10  and  C_29
    6  A    between atoms: C_12  and  C_36
    7  A    between atoms: C_14  and  C_23
    8  A    between atoms: N_19  and  C_33
    9  A    between atoms: C_20  and  C_23
   10  A    between atoms: C_28  and  C_31
   11  A    between atoms: C_29  and  C_41
   12  A    between atoms: C_33  and  C_36
   13  A    between atoms: C_38  and  C_41
                            x       y       z     vdW  Elec       q    Type
                         _______ _______ _______ _____ _____    ______ ____

>  <TORSDO>
F 13

$$$$
=
 OpenBabel11062417313D

 47 50  0  0  1  0  0  0  0  0999 V2000
  186.4170  178.2130  145.5930 C   0  0  0  0  0  0  0  0  0  0  0  0
  187.5970  176.9150  144.1480 N   0  0  0  0  0  0  0  0  0  0  0  0
  185.3960  177.3610  142.2070 F   0  0  0  0  0  0  0  0  0  0  0  0
  186.4170  177.6770  144.3430 C   0  0  0  0  0  0  0  0  0  0  0  0
  184.2670  178.6830  143.8940 C   0  0  0  0  0  0  0  0  0  0  0  0
  185.3760  179.0080  146.0570 C   0  0  0  0  0  3  0  0  0  0  0  0
  187.5970  177.8700  146.2940 N   0  0  0  0  0  0  0  0  0  0  0  0
  184.2950  179.2370  145.1950 C   0  0  0  0  0  3  0  0  0  0  0  0
  185.3610  177.8950  143.4520 C   0  0  0  0  0  0  0  0  0  0  0  0
  188.3940  177.0510  145.3740 C   0  0  0  0  0  3  0  0  0  0  0  0
  183.1520  178.8000  141.6250 N   0  0  0  0  0  2  0  0  0  0  0  0
  181.9720  179.1960  143.5910 O   0  0  0  0  0  0  0  0  0  0  0  0
  183.0760  178.9190  143.0490 C   0  0  0  0  0  0  0  0  0  0  0  0
  181.9740  178.8540  140.7700 C   0  0  0  0  0  2  0  0  0  0  0  0
  182.3170  178.3620  139.3650 C   0  0  2  0  0  3  0  0  0  0  0  0
  181.0880  178.3320  138.4730 C   0  0  0  0  0  1  0  0  0  0  0  0
  182.4100  176.1500  140.2240 F   0  0  0  0  0  0  0  0  0  0  0  0
  183.0570  177.0200  139.3660 C   0  0  1  0  0  3  0  0  0  0  0  0
  183.2100  176.3840  137.9770 C   0  0  2  0  0  3  0  0  0  0  0  0
  184.2120  174.2690  137.1540 C   0  0  0  0  0  0  0  0  0  0  0  0
  185.3760  177.3830  134.8280 Cl  0  0  0  0  0  0  0  0  0  0  0  0
  184.5760  172.5710  137.3650 Cl  0  0  0  0  0  0  0  0  0  0  0  0
  183.5290  174.9150  138.1100 C   0  0  0  0  0  3  0  0  0  0  0  0
  184.3000  176.4410  135.8850 C   0  0  2  0  0  3  0  0  0  0  0  0
  184.2530  177.0560  137.2090 N   0  0  0  0  0  2  0  0  0  0  0  0
  184.8170  175.0050  135.9870 C   0  0  0  0  0  2  0  0  0  0  0  0
  188.1840  176.6270  142.8430 C   0  0  0  0  0  2  0  0  0  0  0  0
  189.4750  178.6050  143.2740 O   0  0  0  0  0  1  0  0  0  0  0  0
  191.9140  176.8830  140.9920 C   0  0  1  0  0  3  0  0  0  0  0  0
  189.5150  177.3740  142.6150 C   0  0  1  0  0  0  0  0  0  0  0  0
  190.7010  176.5650  143.1940 C   0  0  1  0  0  3  0  0  0  0  0  0
  190.5200  175.1890  143.0230 O   0  0  0  0  0  1  0  0  0  0  0  0
  192.5060  177.9970  140.3920 O   0  0  0  0  0  1  0  0  0  0  0  0
  192.0130  176.9780  142.5270 C   0  0  0  0  0  2  0  0  0  0  0  0
  190.5950  176.6950  140.5100 O   0  0  0  0  0  0  0  0  0  0  0  0
  189.7660  177.6650  141.1070 C   0  0  1  0  0  3  0  0  0  0  0  0
  187.7710  178.9940  140.7870 O   0  0  0  0  0  1  0  0  0  0  0  0
  188.5580  177.9940  140.2150 C   0  0  1  0  0  3  0  0  0  0  0  0
  188.9530  178.3880  138.7980 C   0  0  0  0  0  2  0  0  0  0  0  0
  187.9360  177.8960  137.7760 C   0  0  1  0  0  3  0  0  0  0  0  0
  187.2920  178.9930  137.2050 O   0  0  0  0  0  1  0  0  0  0  0  0
  188.6070  177.0570  136.6900 C   0  0  1  0  0  3  0  0  0  0  0  0
  188.7590  177.8370  135.4730 N   0  0  0  0  0  1  0  0  0  0  0  0
  189.9820  176.5880  137.1430 C   0  0  0  0  0  2  0  0  0  0  0  0
  188.9810  174.4260  137.0920 O   0  0  0  0  0  0  0  0  0  0  0  0
  189.9800  175.1210  137.4040 C   0  0  0  0  0  0  0  0  0  0  0  0
  191.0850  174.5180  137.9880 O   0  0  0  0  0  1  0  0  0  0  0  0
  1  6  1  0  0  0  0
  1  7  1  0  0  0  0
  2  4  1  0  0  0  0
  2 10  1  0  0  0  0
  3  9  1  0  0  0  0
  4  1  2  0  0  0  0
  5  8  1  0  0  0  0
  8  6  2  0  0  0  0
  9  5  2  0  0  0  0
  9  4  1  0  0  0  0
 10  7  2  0  0  0  0
 11 13  1  0  0  0  0
 13 12  2  0  0  0  0
 13  5  1  0  0  0  0
 14 11  1  0  0  0  0
 15 16  1  6  0  0  0
 15 18  1  0  0  0  0
 15 14  1  0  0  0  0
 18 17  1  1  0  0  0
 19 23  1  0  0  0  0
 19 18  1  1  0  0  0
 20 22  1  0  0  0  0
 20 23  2  0  0  0  0
 24 21  1  6  0  0  0
 24 26  1  0  0  0  0
 24 25  1  0  0  0  0
 25 19  1  0  0  0  0
 26 20  1  0  0  0  0
 27  2  1  0  0  0  0
 29 33  1  6  0  0  0
 29 34  1  0  0  0  0
 30 27  1  0  0  0  0
 30 31  1  0  0  0  0
 30 28  1  1  0  0  0
 31 32  1  6  0  0  0
 34 31  1  0  0  0  0
 35 29  1  0  0  0  0
 35 36  1  0  0  0  0
 36 38  1  6  0  0  0
 36 30  1  0  0  0  0
 38 37  1  1  0  0  0
 39 38  1  0  0  0  0
 40 41  1  6  0  0  0
 40 39  1  0  0  0  0
 42 43  1  6  0  0  0
 42 44  1  0  0  0  0
 42 40  1  0  0  0  0
 44 46  1  0  0  0  0
 45 46  2  0  0  0  0
 46 47  1  0  0  0  0
M  END
>  <MODEL>
2

>  <REMARK>
 VINA RESULT:      -7.8      4.108      9.220
  Name = 
  13 active torsions:
  status: ('A' for Active; 'I' for Inactive)
    1  A    between atoms: C_5  and  C_18
    2  A    between atoms: N_7  and  C_18
    3  A    between atoms: C_8  and  C_12
    4  A    between atoms: C_10  and  C_14
    5  A    between atoms: C_10  and  C_29
    6  A    between atoms: C_12  and  C_36
    7  A    between atoms: C_14  and  C_23
    8  A    between atoms: N_19  and  C_33
    9  A    between atoms: C_20  and  C_23
   10  A    between atoms: C_28  and  C_31
   11  A    between atoms: C_29  and  C_41
   12  A    between atoms: C_33  and  C_36
   13  A    between atoms: C_38  and  C_41
                            x       y       z     vdW  Elec       q    Type
                         _______ _______ _______ _____ _____    ______ ____

>  <TORSDO>
F 13

$$$$
=
 OpenBabel11062417313D

 47 50  0  0  1  0  0  0  0  0999 V2000
  180.4220  178.6700  141.8840 C   0  0  0  0  0  0  0  0  0  0  0  0
  180.8440  178.3530  139.6720 N   0  0  0  0  0  0  0  0  0  0  0  0
  183.7250  178.3740  140.3870 F   0  0  0  0  0  0  0  0  0  0  0  0
  181.4110  178.5190  140.9620 C   0  0  0  0  0  0  0  0  0  0  0  0
  183.0820  178.7490  142.6920 C   0  0  0  0  0  0  0  0  0  0  0  0
  180.6920  178.8520  143.2350 C   0  0  0  0  0  3  0  0  0  0  0  0
  179.1460  178.5880  141.2790 N   0  0  0  0  0  0  0  0  0  0  0  0
  182.0350  178.8940  143.6330 C   0  0  0  0  0  3  0  0  0  0  0  0
  182.7620  178.5430  141.3250 C   0  0  0  0  0  0  0  0  0  0  0  0
  179.3860  178.3570  139.8500 C   0  0  0  0  0  3  0  0  0  0  0  0
  184.9120  178.1450  144.3320 N   0  0  0  0  0  2  0  0  0  0  0  0
  185.3080  179.5440  142.5150 O   0  0  0  0  0  0  0  0  0  0  0  0
  184.4790  178.8510  143.1660 C   0  0  0  0  0  0  0  0  0  0  0  0
  186.3100  178.0790  144.7340 C   0  0  0  0  0  2  0  0  0  0  0  0
  186.4180  177.7250  146.2160 C   0  0  2  0  0  3  0  0  0  0  0  0
  185.3320  178.4080  147.0300 C   0  0  0  0  0  1  0  0  0  0  0  0
  187.8020  177.6940  148.1460 F   0  0  0  0  0  0  0  0  0  0  0  0
  187.8140  177.9840  146.7940 C   0  0  1  0  0  3  0  0  0  0  0  0
  188.9400  177.2120  146.0930 C   0  0  2  0  0  3  0  0  0  0  0  0
  191.2230  176.5110  146.7630 C   0  0  0  0  0  0  0  0  0  0  0  0
  191.2790  178.1260  143.0420 Cl  0  0  0  0  0  0  0  0  0  0  0  0
  192.3520  175.9610  147.9810 Cl  0  0  0  0  0  0  0  0  0  0  0  0
  189.9430  176.7200  147.1060 C   0  0  0  0  0  3  0  0  0  0  0  0
  190.6160  177.2350  144.4310 C   0  0  2  0  0  3  0  0  0  0  0  0
  189.6020  178.0490  145.0970 N   0  0  0  0  0  2  0  0  0  0  0  0
  191.7450  176.8960  145.4050 C   0  0  0  0  0  2  0  0  0  0  0  0
  181.5110  177.6840  138.5600 C   0  0  0  0  0  2  0  0  0  0  0  0
  181.0110  175.6560  139.7450 O   0  0  0  0  0  1  0  0  0  0  0  0
  180.8650  174.2670  136.2550 C   0  0  1  0  0  3  0  0  0  0  0  0
  181.1380  176.1900  138.4600 C   0  0  1  0  0  0  0  0  0  0  0  0
  179.7800  176.0130  137.7370 C   0  0  1  0  0  3  0  0  0  0  0  0
  179.6180  176.9460  136.7080 O   0  0  0  0  0  1  0  0  0  0  0  0
  181.3080  172.9640  136.5000 O   0  0  0  0  0  1  0  0  0  0  0  0
  179.6590  174.6060  137.1530 C   0  0  0  0  0  2  0  0  0  0  0  0
  181.9370  175.1880  136.3590 O   0  0  0  0  0  0  0  0  0  0  0  0
  182.2340  175.3660  137.7230 C   0  0  1  0  0  3  0  0  0  0  0  0
  184.5430  174.6510  137.8090 O   0  0  0  0  0  1  0  0  0  0  0  0
  183.7060  175.7610  137.9280 C   0  0  1  0  0  3  0  0  0  0  0  0
  184.1640  176.8640  136.9840 C   0  0  0  0  0  2  0  0  0  0  0  0
  185.6250  176.6910  136.5870 C   0  0  1  0  0  3  0  0  0  0  0  0
  185.7130  176.5740  135.2000 O   0  0  0  0  0  1  0  0  0  0  0  0
  186.4710  177.8680  137.0700 C   0  0  1  0  0  3  0  0  0  0  0  0
  185.6900  178.7210  137.9490 N   0  0  0  0  0  1  0  0  0  0  0  0
  187.6950  177.3760  137.8300 C   0  0  0  0  0  2  0  0  0  0  0  0
  189.0290  179.3430  137.6560 O   0  0  0  0  0  0  0  0  0  0  0  0
  188.4500  178.5210  138.4110 C   0  0  0  0  0  0  0  0  0  0  0  0
  188.5110  178.6870  139.7870 O   0  0  0  0  0  1  0  0  0  0  0  0
  1  6  1  0  0  0  0
  2 10  1  0  0  0  0
  2  4  1  0  0  0  0
  3  9  1  0  0  0  0
  4  9  1  0  0  0  0
  4  1  2  0  0  0  0
  5 13  1  0  0  0  0
  5  8  1  0  0  0  0
  6  8  2  0  0  0  0
  7  1  1  0  0  0  0
  9  5  2  0  0  0  0
 10  7  2  0  0  0  0
 11 14  1  0  0  0  0
 12 13  2  0  0  0  0
 13 11  1  0  0  0  0
 14 15  1  0  0  0  0
 15 18  1  0  0  0  0
 15 16  1  1  0  0  0
 18 17  1  1  0  0  0
 19 18  1  1  0  0  0
 19 23  1  0  0  0  0
 20 23  2  0  0  0  0
 20 22  1  0  0  0  0
 24 21  1  6  0  0  0
 24 25  1  0  0  0  0
 24 26  1  0  0  0  0
 25 19  1  0  0  0  0
 26 20  1  0  0  0  0
 27  2  1  0  0  0  0
 29 35  1  0  0  0  0
 29 33  1  1  0  0  0
 29 34  1  0  0  0  0
 30 27  1  0  0  0  0
 30 28  1  1  0  0  0
 31 32  1  6  0  0  0
 31 30  1  0  0  0  0
 34 31  1  0  0  0  0
 35 36  1  0  0  0  0
 36 38  1  6  0  0  0
 36 30  1  0  0  0  0
 38 37  1  6  0  0  0
 39 38  1  0  0  0  0
 40 41  1  6  0  0  0
 40 39  1  0  0  0  0
 40 42  1  0  0  0  0
 42 44  1  0  0  0  0
 42 43  1  1  0  0  0
 44 46  1  0  0  0  0
 45 46  2  0  0  0  0
 46 47  1  0  0  0  0
M  END
>  <MODEL>
3

>  <REMARK>
 VINA RESULT:      -7.8      3.484      6.601
  Name = 
  13 active torsions:
  status: ('A' for Active; 'I' for Inactive)
    1  A    between atoms: C_5  and  C_18
    2  A    between atoms: N_7  and  C_18
    3  A    between atoms: C_8  and  C_12
    4  A    between atoms: C_10  and  C_14
    5  A    between atoms: C_10  and  C_29
    6  A    between atoms: C_12  and  C_36
    7  A    between atoms: C_14  and  C_23
    8  A    between atoms: N_19  and  C_33
    9  A    between atoms: C_20  and  C_23
   10  A    between atoms: C_28  and  C_31
   11  A    between atoms: C_29  and  C_41
   12  A    between atoms: C_33  and  C_36
   13  A    between atoms: C_38  and  C_41
                            x       y       z     vdW  Elec       q    Type
                         _______ _______ _______ _____ _____    ______ ____

>  <TORSDO>
F 13

$$$$
=
 OpenBabel11062417313D

 47 50  0  0  1  0  0  0  0  0999 V2000
  183.5240  178.7490  143.5110 C   0  0  0  0  0  0  0  0  0  0  0  0
  182.3280  178.8170  141.5780 N   0  0  0  0  0  0  0  0  0  0  0  0
  184.9070  178.4340  140.1610 F   0  0  0  0  0  0  0  0  0  0  0  0
  183.6170  178.6830  142.1550 C   0  0  0  0  0  0  0  0  0  0  0  0
  186.0140  178.4260  142.3160 C   0  0  0  0  0  0  0  0  0  0  0  0
  184.6380  178.6470  144.3340 C   0  0  0  0  0  3  0  0  0  0  0  0
  182.1790  178.9020  143.9210 N   0  0  0  0  0  0  0  0  0  0  0  0
  185.8890  178.4880  143.7240 C   0  0  0  0  0  3  0  0  0  0  0  0
  184.8480  178.5120  141.5120 C   0  0  0  0  0  0  0  0  0  0  0  0
  181.3770  178.9230  142.6930 C   0  0  0  0  0  3  0  0  0  0  0  0
  188.1880  177.1690  142.0050 N   0  0  0  0  0  2  0  0  0  0  0  0
  187.7870  179.2030  140.9470 O   0  0  0  0  0  0  0  0  0  0  0  0
  187.3660  178.3070  141.7280 C   0  0  0  0  0  0  0  0  0  0  0  0
  189.4490  176.9280  141.3170 C   0  0  0  0  0  2  0  0  0  0  0  0
  190.6220  177.3460  142.2010 C   0  0  2  0  0  3  0  0  0  0  0  0
  191.9020  177.4850  141.3950 C   0  0  0  0  0  1  0  0  0  0  0  0
  192.0530  175.8350  143.3450 F   0  0  0  0  0  0  0  0  0  0  0  0
  190.8090  176.4350  143.4190 C   0  0  1  0  0  3  0  0  0  0  0  0
  190.6370  177.1430  144.7690 C   0  0  2  0  0  3  0  0  0  0  0  0
  191.3370  176.6180  147.0900 C   0  0  0  0  0  0  0  0  0  0  0  0
  187.4640  177.8220  147.0230 Cl  0  0  0  0  0  0  0  0  0  0  0  0
  192.4890  175.9360  148.2170 Cl  0  0  0  0  0  0  0  0  0  0  0  0
  191.6100  176.5840  145.7780 C   0  0  0  0  0  3  0  0  0  0  0  0
  189.1660  177.7500  146.5120 C   0  0  2  0  0  3  0  0  0  0  0  0
  189.2700  177.0040  145.2610 N   0  0  0  0  0  2  0  0  0  0  0  0
  189.9960  177.0720  147.6020 C   0  0  0  0  0  2  0  0  0  0  0  0
  181.9590  178.3100  140.2600 C   0  0  0  0  0  2  0  0  0  0  0  0
  179.9390  179.6060  140.2860 O   0  0  0  0  0  1  0  0  0  0  0  0
  180.9920  180.3600  136.7580 C   0  0  1  0  0  3  0  0  0  0  0  0
  181.0390  179.2790  139.4890 C   0  0  1  0  0  0  0  0  0  0  0  0
  181.7880  180.5920  139.1530 C   0  0  1  0  0  3  0  0  0  0  0  0
  183.1310  180.3560  138.8470 O   0  0  0  0  0  1  0  0  0  0  0  0
  179.7370  180.5050  136.1610 O   0  0  0  0  0  1  0  0  0  0  0  0
  181.1280  181.3010  137.9700 C   0  0  0  0  0  2  0  0  0  0  0  0
  181.2520  178.9990  137.0540 O   0  0  0  0  0  0  0  0  0  0  0  0
  180.4880  178.6400  138.1810 C   0  0  1  0  0  3  0  0  0  0  0  0
  178.9310  176.8920  138.7870 O   0  0  0  0  0  1  0  0  0  0  0  0
  180.1640  177.1370  138.1820 C   0  0  1  0  0  3  0  0  0  0  0  0
  180.1950  176.5200  136.7910 C   0  0  0  0  0  2  0  0  0  0  0  0
  179.8440  175.0380  136.8280 C   0  0  1  0  0  3  0  0  0  0  0  0
  179.9290  174.5140  135.5380 O   0  0  0  0  0  1  0  0  0  0  0  0
  180.7740  174.2730  137.7680 C   0  0  1  0  0  3  0  0  0  0  0  0
  180.0500  173.2000  138.4290 N   0  0  0  0  0  1  0  0  0  0  0  0
  181.9420  173.6710  137.0000 C   0  0  0  0  0  2  0  0  0  0  0  0
  184.1360  174.3920  136.4140 O   0  0  0  0  0  0  0  0  0  0  0  0
  183.1880  174.4530  137.2370 C   0  0  0  0  0  0  0  0  0  0  0  0
  183.3020  175.2530  138.3640 O   0  0  0  0  0  1  0  0  0  0  0  0
  1  7  1  0  0  0  0
  1  6  1  0  0  0  0
  2  4  1  0  0  0  0
  2 10  1  0  0  0  0
  3  9  1  0  0  0  0
  4  1  2  0  0  0  0
  5  8  1  0  0  0  0
  8  6  2  0  0  0  0
  9  4  1  0  0  0  0
  9  5  2  0  0  0  0
 10  7  2  0  0  0  0
 12 13  2  0  0  0  0
 13 11  1  0  0  0  0
 13  5  1  0  0  0  0
 14 11  1  0  0  0  0
 14 15  1  0  0  0  0
 15 16  1  6  0  0  0
 15 18  1  0  0  0  0
 18 17  1  1  0  0  0
 19 18  1  6  0  0  0
 19 25  1  0  0  0  0
 19 23  1  0  0  0  0
 20 26  1  0  0  0  0
 20 22  1  0  0  0  0
 23 20  2  0  0  0  0
 24 21  1  1  0  0  0
 24 26  1  0  0  0  0
 25 24  1  0  0  0  0
 27  2  1  0  0  0  0
 29 33  1  1  0  0  0
 29 35  1  0  0  0  0
 29 34  1  0  0  0  0
 30 27  1  0  0  0  0
 30 28  1  1  0  0  0
 31 32  1  6  0  0  0
 31 30  1  0  0  0  0
 34 31  1  0  0  0  0
 35 36  1  0  0  0  0
 36 38  1  1  0  0  0
 36 30  1  0  0  0  0
 38 37  1  6  0  0  0
 39 40  1  0  0  0  0
 39 38  1  0  0  0  0
 40 41  1  6  0  0  0
 40 42  1  0  0  0  0
 42 43  1  6  0  0  0
 44 46  1  0  0  0  0
 44 42  1  0  0  0  0
 45 46  2  0  0  0  0
 46 47  1  0  0  0  0
M  END
>  <MODEL>
4

>  <REMARK>
 VINA RESULT:      -7.8      2.956      5.827
  Name = 
  13 active torsions:
  status: ('A' for Active; 'I' for Inactive)
    1  A    between atoms: C_5  and  C_18
    2  A    between atoms: N_7  and  C_18
    3  A    between atoms: C_8  and  C_12
    4  A    between atoms: C_10  and  C_14
    5  A    between atoms: C_10  and  C_29
    6  A    between atoms: C_12  and  C_36
    7  A    between atoms: C_14  and  C_23
    8  A    between atoms: N_19  and  C_33
    9  A    between atoms: C_20  and  C_23
   10  A    between atoms: C_28  and  C_31
   11  A    between atoms: C_29  and  C_41
   12  A    between atoms: C_33  and  C_36
   13  A    between atoms: C_38  and  C_41
                            x       y       z     vdW  Elec       q    Type
                         _______ _______ _______ _____ _____    ______ ____

>  <TORSDO>
F 13

$$$$
=
 OpenBabel11062417313D

 47 50  0  0  1  0  0  0  0  0999 V2000
  190.5780  176.9320  139.2140 C   0  0  0  0  0  0  0  0  0  0  0  0
  190.3820  177.9570  141.2340 N   0  0  0  0  0  0  0  0  0  0  0  0
  187.5710  178.5420  140.4790 F   0  0  0  0  0  0  0  0  0  0  0  0
  189.7220  177.6090  140.0270 C   0  0  0  0  0  0  0  0  0  0  0  0
  187.9820  177.4440  138.3590 C   0  0  0  0  0  0  0  0  0  0  0  0
  190.1970  176.4690  137.9610 C   0  0  0  0  0  3  0  0  0  0  0  0
  191.8400  176.7640  139.8320 N   0  0  0  0  0  0  0  0  0  0  0  0
  188.8890  176.7340  137.5370 C   0  0  0  0  0  3  0  0  0  0  0  0
  188.4050  177.8800  139.6410 C   0  0  0  0  0  0  0  0  0  0  0  0
  191.7360  177.3940  141.1530 C   0  0  0  0  0  3  0  0  0  0  0  0
  185.7760  176.6820  137.3820 N   0  0  0  0  0  2  0  0  0  0  0  0
  186.2120  178.9250  137.8210 O   0  0  0  0  0  0  0  0  0  0  0  0
  186.6300  177.7360  137.8370 C   0  0  0  0  0  0  0  0  0  0  0  0
  184.3820  176.9030  137.0230 C   0  0  0  0  0  2  0  0  0  0  0  0
  183.5180  175.7430  137.5150 C   0  0  2  0  0  3  0  0  0  0  0  0
  183.0970  174.8400  136.3690 C   0  0  0  0  0  1  0  0  0  0  0  0
  182.2650  175.4490  139.5100 F   0  0  0  0  0  0  0  0  0  0  0  0
  182.3200  176.2030  138.3520 C   0  0  1  0  0  3  0  0  0  0  0  0
  182.3230  177.7000  138.6900 C   0  0  2  0  0  3  0  0  0  0  0  0
  181.4120  179.0440  140.5660 C   0  0  0  0  0  0  0  0  0  0  0  0
  180.5320  180.7990  137.0150 Cl  0  0  0  0  0  0  0  0  0  0  0  0
  181.0200  179.2240  142.2610 Cl  0  0  0  0  0  0  0  0  0  0  0  0
  181.9850  177.9060  140.1460 C   0  0  0  0  0  3  0  0  0  0  0  0
  181.4780  179.8440  138.1810 C   0  0  2  0  0  3  0  0  0  0  0  0
  181.3760  178.4250  137.8480 N   0  0  0  0  0  2  0  0  0  0  0  0
  180.9470  180.0950  139.5930 C   0  0  0  0  0  2  0  0  0  0  0  0
  189.7000  178.2160  142.4980 C   0  0  0  0  0  2  0  0  0  0  0  0
  190.0330  175.8910  142.9950 O   0  0  0  0  0  1  0  0  0  0  0  0
  190.4240  177.2270  146.4870 C   0  0  1  0  0  3  0  0  0  0  0  0
  190.0310  177.1620  143.5750 C   0  0  1  0  0  0  0  0  0  0  0  0
  191.4370  177.4130  144.1710 C   0  0  1  0  0  3  0  0  0  0  0  0
  191.7150  178.7790  144.2810 O   0  0  0  0  0  1  0  0  0  0  0  0
  189.9200  176.1460  147.2130 O   0  0  0  0  0  1  0  0  0  0  0  0
  191.5610  176.7700  145.5530 C   0  0  0  0  0  2  0  0  0  0  0  0
  189.3770  177.9170  145.8250 O   0  0  0  0  0  0  0  0  0  0  0  0
  188.9730  177.1470  144.7170 C   0  0  1  0  0  3  0  0  0  0  0  0
  186.7090  176.3030  144.6350 O   0  0  0  0  0  1  0  0  0  0  0  0
  187.5030  177.4150  144.3560 C   0  0  1  0  0  3  0  0  0  0  0  0
  186.9360  178.6480  145.0450 C   0  0  0  0  0  2  0  0  0  0  0  0
  185.5680  178.3690  145.6560 C   0  0  1  0  0  3  0  0  0  0  0  0
  185.3920  179.1790  146.7770 O   0  0  0  0  0  1  0  0  0  0  0  0
  184.4500  178.6220  144.6450 C   0  0  1  0  0  3  0  0  0  0  0  0
  183.2910  179.1930  145.3090 N   0  0  0  0  0  1  0  0  0  0  0  0
  184.9120  179.5820  143.5590 C   0  0  0  0  0  2  0  0  0  0  0  0
  184.6580  177.6990  142.1210 O   0  0  0  0  0  1  0  0  0  0  0  0
  184.8310  178.9400  142.2170 C   0  0  0  0  0  0  0  0  0  0  0  0
  184.9410  179.7120  141.0700 O   0  0  0  0  0  0  0  0  0  0  0  0
  1  7  1  0  0  0  0
  1  4  1  0  0  0  0
  2 27  1  0  0  0  0
  4  2  1  0  0  0  0
  5  9  1  0  0  0  0
  6  1  2  0  0  0  0
  7 10  2  0  0  0  0
  8  6  1  0  0  0  0
  8  5  2  0  0  0  0
  9  4  2  0  0  0  0
  9  3  1  0  0  0  0
 10  2  1  0  0  0  0
 11 13  1  0  0  0  0
 12 13  2  0  0  0  0
 13  5  1  0  0  0  0
 14 11  1  0  0  0  0
 14 15  1  0  0  0  0
 15 16  1  6  0  0  0
 15 18  1  0  0  0  0
 18 17  1  1  0  0  0
 19 18  1  6  0  0  0
 19 23  1  0  0  0  0
 20 22  1  0  0  0  0
 23 20  2  0  0  0  0
 24 21  1  6  0  0  0
 24 26  1  0  0  0  0
 25 24  1  0  0  0  0
 25 19  1  0  0  0  0
 26 20  1  0  0  0  0
 27 30  1  0  0  0  0
 29 33  1  6  0  0  0
 30 28  1  6  0  0  0
 30 31  1  0  0  0  0
 30 36  1  0  0  0  0
 31 32  1  1  0  0  0
 31 34  1  0  0  0  0
 34 29  1  0  0  0  0
 35 29  1  0  0  0  0
 36 38  1  6  0  0  0
 36 35  1  0  0  0  0
 38 37  1  1  0  0  0
 38 39  1  0  0  0  0
 39 40  1  0  0  0  0
 40 41  1  1  0  0  0
 42 43  1  1  0  0  0
 42 40  1  0  0  0  0
 44 42  1  0  0  0  0
 45 46  1  0  0  0  0
 46 44  1  0  0  0  0
 47 46  2  0  0  0  0
M  END
>  <MODEL>
5

>  <REMARK>
 VINA RESULT:      -7.8      3.335      8.113
  Name = 
  13 active torsions:
  status: ('A' for Active; 'I' for Inactive)
    1  A    between atoms: C_5  and  C_18
    2  A    between atoms: N_7  and  C_18
    3  A    between atoms: C_8  and  C_12
    4  A    between atoms: C_10  and  C_14
    5  A    between atoms: C_10  and  C_29
    6  A    between atoms: C_12  and  C_36
    7  A    between atoms: C_14  and  C_23
    8  A    between atoms: N_19  and  C_33
    9  A    between atoms: C_20  and  C_23
   10  A    between atoms: C_28  and  C_31
   11  A    between atoms: C_29  and  C_41
   12  A    between atoms: C_33  and  C_36
   13  A    between atoms: C_38  and  C_41
                            x       y       z     vdW  Elec       q    Type
                         _______ _______ _______ _____ _____    ______ ____

>  <TORSDO>
F 13

$$$$
=
 OpenBabel11062417313D

 47 50  0  0  1  0  0  0  0  0999 V2000
  190.6130  176.8360  138.6490 C   0  0  0  0  0  0  0  0  0  0  0  0
  190.4120  177.9190  140.6380 N   0  0  0  0  0  0  0  0  0  0  0  0
  187.6070  178.4950  139.8540 F   0  0  0  0  0  0  0  0  0  0  0  0
  189.7560  177.5390  139.4390 C   0  0  0  0  0  0  0  0  0  0  0  0
  188.0220  177.3340  137.7690 C   0  0  0  0  0  0  0  0  0  0  0  0
  190.2350  176.3390  137.4080 C   0  0  0  0  0  3  0  0  0  0  0  0
  191.8710  176.6800  139.2770 N   0  0  0  0  0  0  0  0  0  0  0  0
  188.9290  176.5970  136.9710 C   0  0  0  0  0  3  0  0  0  0  0  0
  188.4420  177.8050  139.0400 C   0  0  0  0  0  0  0  0  0  0  0  0
  191.7640  177.3480  140.5780 C   0  0  0  0  0  3  0  0  0  0  0  0
  185.5020  177.2870  137.9830 N   0  0  0  0  0  2  0  0  0  0  0  0
  186.5560  178.1870  136.1140 O   0  0  0  0  0  0  0  0  0  0  0  0
  186.6740  177.6170  137.2320 C   0  0  0  0  0  0  0  0  0  0  0  0
  184.1660  177.7010  137.5730 C   0  0  0  0  0  2  0  0  0  0  0  0
  183.4040  178.2800  138.7630 C   0  0  2  0  0  3  0  0  0  0  0  0
  184.3520  178.8390  139.8100 C   0  0  0  0  0  1  0  0  0  0  0  0
  183.0560  176.4890  140.2820 F   0  0  0  0  0  0  0  0  0  0  0  0
  182.4000  177.2930  139.3690 C   0  0  1  0  0  3  0  0  0  0  0  0
  181.1790  177.9560  140.0210 C   0  0  2  0  0  3  0  0  0  0  0  0
  180.3110  180.2790  140.0880 C   0  0  0  0  0  0  0  0  0  0  0  0
  180.2360  178.6380  143.7970 Cl  0  0  0  0  0  0  0  0  0  0  0  0
  180.0580  181.8340  139.3260 Cl  0  0  0  0  0  0  0  0  0  0  0  0
  180.9240  179.3060  139.3980 C   0  0  0  0  0  3  0  0  0  0  0  0
  180.1530  178.6760  142.0210 C   0  0  2  0  0  3  0  0  0  0  0  0
  181.3720  178.0980  141.4620 N   0  0  0  0  0  2  0  0  0  0  0  0
  179.9900  180.1220  141.5500 C   0  0  0  0  0  2  0  0  0  0  0  0
  189.7260  178.2170  141.8920 C   0  0  0  0  0  2  0  0  0  0  0  0
  190.6420  176.1080  142.5840 O   0  0  0  0  0  1  0  0  0  0  0  0
  190.3420  177.6830  145.9830 C   0  0  1  0  0  3  0  0  0  0  0  0
  190.2390  177.3560  143.0650 C   0  0  1  0  0  0  0  0  0  0  0  0
  191.4640  178.0230  143.7360 C   0  0  1  0  0  3  0  0  0  0  0  0
  191.3450  179.4160  143.7620 O   0  0  0  0  0  1  0  0  0  0  0  0
  190.0940  176.5440  146.7520 O   0  0  0  0  0  1  0  0  0  0  0  0
  191.6390  177.5150  145.1680 C   0  0  0  0  0  2  0  0  0  0  0  0
  189.2090  178.0160  145.2000 O   0  0  0  0  0  0  0  0  0  0  0  0
  189.1310  177.1060  144.1290 C   0  0  1  0  0  3  0  0  0  0  0  0
  187.4500  175.6250  143.2180 O   0  0  0  0  0  1  0  0  0  0  0  0
  187.6810  176.9320  143.6470 C   0  0  1  0  0  3  0  0  0  0  0  0
  186.6530  177.3250  144.6990 C   0  0  0  0  0  2  0  0  0  0  0  0
  185.7310  178.4290  144.1950 C   0  0  1  0  0  3  0  0  0  0  0  0
  184.8630  177.9020  143.2390 O   0  0  0  0  0  1  0  0  0  0  0  0
  184.9350  179.0500  145.3420 C   0  0  1  0  0  3  0  0  0  0  0  0
  183.5140  179.0240  145.0380 N   0  0  0  0  0  1  0  0  0  0  0  0
  185.1710  178.2870  146.6370 C   0  0  0  0  0  2  0  0  0  0  0  0
  186.0570  180.1770  147.7850 O   0  0  0  0  0  0  0  0  0  0  0  0
  186.2000  178.9690  147.4710 C   0  0  0  0  0  0  0  0  0  0  0  0
  187.3140  178.2690  147.9090 O   0  0  0  0  0  1  0  0  0  0  0  0
  1  7  1  0  0  0  0
  1  4  1  0  0  0  0
  2 27  1  0  0  0  0
  4  2  1  0  0  0  0
  5  9  1  0  0  0  0
  6  1  2  0  0  0  0
  7 10  2  0  0  0  0
  8  6  1  0  0  0  0
  8  5  2  0  0  0  0
  9  4  2  0  0  0  0
  9  3  1  0  0  0  0
 10  2  1  0  0  0  0
 12 13  2  0  0  0  0
 13  5  1  0  0  0  0
 13 11  1  0  0  0  0
 14 11  1  0  0  0  0
 14 15  1  0  0  0  0
 15 18  1  0  0  0  0
 15 16  1  1  0  0  0
 18 17  1  1  0  0  0
 19 18  1  6  0  0  0
 19 25  1  0  0  0  0
 20 26  1  0  0  0  0
 22 20  1  0  0  0  0
 23 19  1  0  0  0  0
 23 20  2  0  0  0  0
 24 21  1  1  0  0  0
 25 24  1  0  0  0  0
 26 24  1  0  0  0  0
 27 30  1  0  0  0  0
 29 33  1  6  0  0  0
 30 28  1  6  0  0  0
 30 31  1  0  0  0  0
 30 36  1  0  0  0  0
 31 32  1  1  0  0  0
 31 34  1  0  0  0  0
 34 29  1  0  0  0  0
 35 29  1  0  0  0  0
 36 38  1  6  0  0  0
 36 35  1  0  0  0  0
 38 37  1  1  0  0  0
 38 39  1  0  0  0  0
 40 41  1  6  0  0  0
 40 39  1  0  0  0  0
 40 42  1  0  0  0  0
 42 43  1  6  0  0  0
 42 44  1  0  0  0  0
 44 46  1  0  0  0  0
 46 45  2  0  0  0  0
 46 47  1  0  0  0  0
M  END
>  <MODEL>
6

>  <REMARK>
 VINA RESULT:      -7.7      3.613      8.159
  Name = 
  13 active torsions:
  status: ('A' for Active; 'I' for Inactive)
    1  A    between atoms: C_5  and  C_18
    2  A    between atoms: N_7  and  C_18
    3  A    between atoms: C_8  and  C_12
    4  A    between atoms: C_10  and  C_14
    5  A    between atoms: C_10  and  C_29
    6  A    between atoms: C_12  and  C_36
    7  A    between atoms: C_14  and  C_23
    8  A    between atoms: N_19  and  C_33
    9  A    between atoms: C_20  and  C_23
   10  A    between atoms: C_28  and  C_31
   11  A    between atoms: C_29  and  C_41
   12  A    between atoms: C_33  and  C_36
   13  A    between atoms: C_38  and  C_41
                            x       y       z     vdW  Elec       q    Type
                         _______ _______ _______ _____ _____    ______ ____

>  <TORSDO>
F 13

$$$$
=
 OpenBabel11062417313D

 47 50  0  0  1  0  0  0  0  0999 V2000
  180.5740  178.4290  142.1770 C   0  0  0  0  0  0  0  0  0  0  0  0
  181.4530  178.9220  140.1390 N   0  0  0  0  0  0  0  0  0  0  0  0
  183.9640  179.6010  141.5680 F   0  0  0  0  0  0  0  0  0  0  0  0
  181.6930  178.8630  141.5360 C   0  0  0  0  0  0  0  0  0  0  0  0
  182.8460  179.0680  143.6490 C   0  0  0  0  0  0  0  0  0  0  0  0
  180.5250  178.2780  143.5580 C   0  0  0  0  0  3  0  0  0  0  0  0
  179.5380  178.1470  141.2570 N   0  0  0  0  0  0  0  0  0  0  0  0
  181.6730  178.6050  144.2920 C   0  0  0  0  0  3  0  0  0  0  0  0
  182.8610  179.1870  142.2360 C   0  0  0  0  0  0  0  0  0  0  0  0
  180.0850  178.4310  139.9260 C   0  0  0  0  0  3  0  0  0  0  0  0
  184.3370  178.7030  145.6610 N   0  0  0  0  0  2  0  0  0  0  0  0
  184.7390  180.4100  144.1310 O   0  0  0  0  0  0  0  0  0  0  0  0
  184.0080  179.4440  144.4820 C   0  0  0  0  0  0  0  0  0  0  0  0
  185.5650  178.9300  146.4120 C   0  0  0  0  0  2  0  0  0  0  0  0
  186.7460  178.2670  145.7060 C   0  0  2  0  0  3  0  0  0  0  0  0
  186.2970  177.0840  144.8650 C   0  0  0  0  0  1  0  0  0  0  0  0
  187.3580  177.1560  147.7130 F   0  0  0  0  0  0  0  0  0  0  0  0
  187.8810  177.8890  146.6640 C   0  0  1  0  0  3  0  0  0  0  0  0
  189.0360  177.1250  146.0030 C   0  0  2  0  0  3  0  0  0  0  0  0
  191.3160  176.4780  146.7380 C   0  0  0  0  0  0  0  0  0  0  0  0
  191.4270  178.0230  142.9880 Cl  0  0  0  0  0  0  0  0  0  0  0  0
  192.4260  175.9730  147.9910 Cl  0  0  0  0  0  0  0  0  0  0  0  0
  190.0250  176.6710  147.0480 C   0  0  0  0  0  3  0  0  0  0  0  0
  190.7490  177.1470  144.3790 C   0  0  2  0  0  3  0  0  0  0  0  0
  189.7060  177.9550  145.0060 N   0  0  0  0  0  2  0  0  0  0  0  0
  191.8620  176.8470  145.3840 C   0  0  0  0  0  2  0  0  0  0  0  0
  182.4960  178.8440  139.1210 C   0  0  0  0  0  2  0  0  0  0  0  0
  183.0870  176.7030  140.0330 O   0  0  0  0  0  1  0  0  0  0  0  0
  183.6740  175.9010  136.4080 C   0  0  1  0  0  3  0  0  0  0  0  0
  182.9300  177.3930  138.8280 C   0  0  1  0  0  0  0  0  0  0  0  0
  181.8500  176.6570  137.9980 C   0  0  1  0  0  3  0  0  0  0  0  0
  181.2410  177.5090  137.0710 O   0  0  0  0  0  1  0  0  0  0  0  0
  184.7140  174.9770  136.5350 O   0  0  0  0  0  1  0  0  0  0  0  0
  182.4590  175.4690  137.2520 C   0  0  0  0  0  2  0  0  0  0  0  0
  184.1320  177.2130  136.6880 O   0  0  0  0  0  0  0  0  0  0  0  0
  184.2950  177.3350  138.0820 C   0  0  1  0  0  3  0  0  0  0  0  0
  185.7020  178.3210  139.7830 O   0  0  0  0  0  1  0  0  0  0  0  0
  185.3640  178.3830  138.4310 C   0  0  1  0  0  3  0  0  0  0  0  0
  186.6170  178.2630  137.5730 C   0  0  0  0  0  2  0  0  0  0  0  0
  187.6750  177.3970  138.2460 C   0  0  1  0  0  3  0  0  0  0  0  0
  187.5750  176.0930  137.7630 O   0  0  0  0  0  1  0  0  0  0  0  0
  189.0790  177.9450  137.9930 C   0  0  1  0  0  3  0  0  0  0  0  0
  189.0530  179.3980  137.9630 N   0  0  0  0  0  1  0  0  0  0  0  0
  190.0380  177.4970  139.0870 C   0  0  0  0  0  2  0  0  0  0  0  0
  192.1870  176.7910  138.3390 O   0  0  0  0  0  0  0  0  0  0  0  0
  190.9920  176.4780  138.5670 C   0  0  0  0  0  0  0  0  0  0  0  0
  190.5630  175.1780  138.3410 O   0  0  0  0  0  1  0  0  0  0  0  0
  1  6  1  0  0  0  0
  2  4  1  0  0  0  0
  3  9  1  0  0  0  0
  4  1  2  0  0  0  0
  4  9  1  0  0  0  0
  5  8  1  0  0  0  0
  5 13  1  0  0  0  0
  6  8  2  0  0  0  0
  7  1  1  0  0  0  0
  9  5  2  0  0  0  0
 10  2  1  0  0  0  0
 10  7  2  0  0  0  0
 11 14  1  0  0  0  0
 12 13  2  0  0  0  0
 13 11  1  0  0  0  0
 15 16  1  1  0  0  0
 15 14  1  0  0  0  0
 15 18  1  0  0  0  0
 18 17  1  1  0  0  0
 19 18  1  1  0  0  0
 19 23  1  0  0  0  0
 20 23  2  0  0  0  0
 20 22  1  0  0  0  0
 24 21  1  6  0  0  0
 24 25  1  0  0  0  0
 24 26  1  0  0  0  0
 25 19  1  0  0  0  0
 26 20  1  0  0  0  0
 27  2  1  0  0  0  0
 29 33  1  1  0  0  0
 29 35  1  0  0  0  0
 29 34  1  0  0  0  0
 30 27  1  0  0  0  0
 30 28  1  1  0  0  0
 31 32  1  6  0  0  0
 31 30  1  0  0  0  0
 34 31  1  0  0  0  0
 35 36  1  0  0  0  0
 36 38  1  6  0  0  0
 36 30  1  0  0  0  0
 38 37  1  1  0  0  0
 39 40  1  0  0  0  0
 39 38  1  0  0  0  0
 40 41  1  6  0  0  0
 42 43  1  1  0  0  0
 42 40  1  0  0  0  0
 42 44  1  0  0  0  0
 45 46  2  0  0  0  0
 46 44  1  0  0  0  0
 47 46  1  0  0  0  0
M  END
>  <MODEL>
7

>  <REMARK>
 VINA RESULT:      -7.7      3.323      7.247
  Name = 
  13 active torsions:
  status: ('A' for Active; 'I' for Inactive)
    1  A    between atoms: C_5  and  C_18
    2  A    between atoms: N_7  and  C_18
    3  A    between atoms: C_8  and  C_12
    4  A    between atoms: C_10  and  C_14
    5  A    between atoms: C_10  and  C_29
    6  A    between atoms: C_12  and  C_36
    7  A    between atoms: C_14  and  C_23
    8  A    between atoms: N_19  and  C_33
    9  A    between atoms: C_20  and  C_23
   10  A    between atoms: C_28  and  C_31
   11  A    between atoms: C_29  and  C_41
   12  A    between atoms: C_33  and  C_36
   13  A    between atoms: C_38  and  C_41
                            x       y       z     vdW  Elec       q    Type
                         _______ _______ _______ _____ _____    ______ ____

>  <TORSDO>
F 13

$$$$
=
 OpenBabel11062417313D

 47 50  0  0  1  0  0  0  0  0999 V2000
  190.9460  177.0050  139.2480 C   0  0  0  0  0  0  0  0  0  0  0  0
  190.5490  177.9700  141.2680 N   0  0  0  0  0  0  0  0  0  0  0  0
  187.8310  178.5950  140.2500 F   0  0  0  0  0  0  0  0  0  0  0  0
  190.0140  177.6620  139.9900 C   0  0  0  0  0  0  0  0  0  0  0  0
  188.4520  177.5580  138.1500 C   0  0  0  0  0  0  0  0  0  0  0  0
  190.6930  176.5820  137.9490 C   0  0  0  0  0  3  0  0  0  0  0  0
  192.1380  176.8110  139.9840 N   0  0  0  0  0  0  0  0  0  0  0  0
  189.4340  176.8680  137.4020 C   0  0  0  0  0  3  0  0  0  0  0  0
  188.7440  177.9530  139.4810 C   0  0  0  0  0  0  0  0  0  0  0  0
  191.9020  177.4020  141.3060 C   0  0  0  0  0  3  0  0  0  0  0  0
  186.2030  176.8440  137.2340 N   0  0  0  0  0  2  0  0  0  0  0  0
  186.8850  179.0690  137.2130 O   0  0  0  0  0  0  0  0  0  0  0  0
  187.1600  177.8740  137.5030 C   0  0  0  0  0  0  0  0  0  0  0  0
  184.8570  177.1310  136.7580 C   0  0  0  0  0  2  0  0  0  0  0  0
  183.8230  176.4590  137.6600 C   0  0  2  0  0  3  0  0  0  0  0  0
  182.6190  175.9850  136.8650 C   0  0  0  0  0  1  0  0  0  0  0  0
  183.8130  178.6310  138.6180 F   0  0  0  0  0  0  0  0  0  0  0  0
  183.4140  177.3280  138.8540 C   0  0  1  0  0  3  0  0  0  0  0  0
  181.9170  177.2800  139.1860 C   0  0  2  0  0  3  0  0  0  0  0  0
  180.4950  178.3850  140.8920 C   0  0  0  0  0  0  0  0  0  0  0  0
  179.6230  174.4280  140.6760 Cl  0  0  0  0  0  0  0  0  0  0  0  0
  180.1090  179.7700  141.8890 Cl  0  0  0  0  0  0  0  0  0  0  0  0
  181.5370  178.4560  140.0500 C   0  0  0  0  0  3  0  0  0  0  0  0
  180.1300  176.0280  140.0880 C   0  0  2  0  0  3  0  0  0  0  0  0
  181.5730  176.0310  139.8590 N   0  0  0  0  0  2  0  0  0  0  0  0
  179.7570  177.0930  141.1210 C   0  0  0  0  0  2  0  0  0  0  0  0
  189.7430  178.1950  142.4640 C   0  0  0  0  0  2  0  0  0  0  0  0
  190.0370  175.8910  143.0710 O   0  0  0  0  0  1  0  0  0  0  0  0
  190.4710  177.3860  146.4910 C   0  0  1  0  0  3  0  0  0  0  0  0
  190.0610  177.1880  143.5890 C   0  0  1  0  0  0  0  0  0  0  0  0
  191.4750  177.4420  144.1650 C   0  0  1  0  0  3  0  0  0  0  0  0
  191.7790  178.8060  144.2080 O   0  0  0  0  0  1  0  0  0  0  0  0
  189.9520  176.3500  147.2710 O   0  0  0  0  0  1  0  0  0  0  0  0
  191.5950  176.8640  145.5750 C   0  0  0  0  0  2  0  0  0  0  0  0
  189.4340  178.0630  145.8020 O   0  0  0  0  0  0  0  0  0  0  0  0
  189.0100  177.2470  144.7350 C   0  0  1  0  0  3  0  0  0  0  0  0
  186.7760  176.3630  144.4600 O   0  0  0  0  0  1  0  0  0  0  0  0
  187.5430  177.5250  144.3680 C   0  0  1  0  0  3  0  0  0  0  0  0
  186.9180  178.6310  145.2080 C   0  0  0  0  0  2  0  0  0  0  0  0
  185.5580  178.2160  145.7560 C   0  0  1  0  0  3  0  0  0  0  0  0
  185.3300  178.8750  146.9640 O   0  0  0  0  0  1  0  0  0  0  0  0
  184.4410  178.5380  144.7640 C   0  0  1  0  0  3  0  0  0  0  0  0
  183.2660  179.0210  145.4690 N   0  0  0  0  0  1  0  0  0  0  0  0
  184.8890  179.6040  143.7750 C   0  0  0  0  0  2  0  0  0  0  0  0
  185.4010  179.7330  141.4510 O   0  0  0  0  0  0  0  0  0  0  0  0
  184.8800  179.0710  142.3840 C   0  0  0  0  0  0  0  0  0  0  0  0
  184.3010  177.8390  142.1160 O   0  0  0  0  0  1  0  0  0  0  0  0
  1  7  1  0  0  0  0
  1  4  1  0  0  0  0
  2 10  1  0  0  0  0
  2 27  1  0  0  0  0
  4  2  1  0  0  0  0
  5  9  1  0  0  0  0
  6  1  2  0  0  0  0
  7 10  2  0  0  0  0
  8  6  1  0  0  0  0
  8  5  2  0  0  0  0
  9  4  2  0  0  0  0
  9  3  1  0  0  0  0
 11 13  1  0  0  0  0
 12 13  2  0  0  0  0
 13  5  1  0  0  0  0
 14 11  1  0  0  0  0
 14 15  1  0  0  0  0
 15 16  1  6  0  0  0
 15 18  1  0  0  0  0
 18 17  1  6  0  0  0
 19 18  1  1  0  0  0
 19 25  1  0  0  0  0
 19 23  1  0  0  0  0
 20 26  1  0  0  0  0
 20 22  1  0  0  0  0
 23 20  2  0  0  0  0
 24 21  1  1  0  0  0
 24 26  1  0  0  0  0
 25 24  1  0  0  0  0
 27 30  1  0  0  0  0
 29 33  1  6  0  0  0
 30 28  1  6  0  0  0
 30 31  1  0  0  0  0
 30 36  1  0  0  0  0
 31 32  1  1  0  0  0
 31 34  1  0  0  0  0
 34 29  1  0  0  0  0
 35 29  1  0  0  0  0
 36 38  1  6  0  0  0
 36 35  1  0  0  0  0
 38 37  1  1  0  0  0
 38 39  1  0  0  0  0
 39 40  1  0  0  0  0
 40 41  1  1  0  0  0
 42 43  1  1  0  0  0
 42 40  1  0  0  0  0
 44 42  1  0  0  0  0
 45 46  2  0  0  0  0
 46 44  1  0  0  0  0
 47 46  1  0  0  0  0
M  END
>  <MODEL>
8

>  <REMARK>
 VINA RESULT:      -7.6      3.823      8.028
  Name = 
  13 active torsions:
  status: ('A' for Active; 'I' for Inactive)
    1  A    between atoms: C_5  and  C_18
    2  A    between atoms: N_7  and  C_18
    3  A    between atoms: C_8  and  C_12
    4  A    between atoms: C_10  and  C_14
    5  A    between atoms: C_10  and  C_29
    6  A    between atoms: C_12  and  C_36
    7  A    between atoms: C_14  and  C_23
    8  A    between atoms: N_19  and  C_33
    9  A    between atoms: C_20  and  C_23
   10  A    between atoms: C_28  and  C_31
   11  A    between atoms: C_29  and  C_41
   12  A    between atoms: C_33  and  C_36
   13  A    between atoms: C_38  and  C_41
                            x       y       z     vdW  Elec       q    Type
                         _______ _______ _______ _____ _____    ______ ____

>  <TORSDO>
F 13

$$$$
=
 OpenBabel11062417313D

 47 50  0  0  1  0  0  0  0  0999 V2000
  189.0350  177.1380  142.8630 C   0  0  0  0  0  0  0  0  0  0  0  0
  189.3730  177.3300  140.6230 N   0  0  0  0  0  0  0  0  0  0  0  0
  186.7170  178.6510  140.5030 F   0  0  0  0  0  0  0  0  0  0  0  0
  188.4880  177.5880  141.7020 C   0  0  0  0  0  0  0  0  0  0  0  0
  186.5190  178.3220  142.8950 C   0  0  0  0  0  0  0  0  0  0  0  0
  188.3830  177.2600  144.0840 C   0  0  0  0  0  3  0  0  0  0  0  0
  190.3170  176.5820  142.6400 N   0  0  0  0  0  0  0  0  0  0  0  0
  187.1140  177.8550  144.0900 C   0  0  0  0  0  3  0  0  0  0  0  0
  187.2300  178.1980  141.6730 C   0  0  0  0  0  0  0  0  0  0  0  0
  190.5750  176.7160  141.2020 C   0  0  0  0  0  3  0  0  0  0  0  0
  184.0800  178.3080  142.2230 N   0  0  0  0  0  2  0  0  0  0  0  0
  184.9370  179.8950  143.6940 O   0  0  0  0  0  0  0  0  0  0  0  0
  185.1580  178.8960  142.9580 C   0  0  0  0  0  0  0  0  0  0  0  0
  182.6960  178.7330  142.3880 C   0  0  0  0  0  2  0  0  0  0  0  0
  181.9420  178.6030  141.0660 C   0  0  2  0  0  3  0  0  0  0  0  0
  180.6260  177.8670  141.2480 C   0  0  0  0  0  1  0  0  0  0  0  0
  182.5240  176.6330  139.8760 F   0  0  0  0  0  0  0  0  0  0  0  0
  182.7920  177.9880  139.9500 C   0  0  1  0  0  3  0  0  0  0  0  0
  182.6010  178.6450  138.5760 C   0  0  2  0  0  3  0  0  0  0  0  0
  181.4860  180.7210  137.8010 C   0  0  0  0  0  0  0  0  0  0  0  0
  180.4800  177.6000  135.4100 Cl  0  0  0  0  0  0  0  0  0  0  0  0
  181.0340  182.3920  138.0500 Cl  0  0  0  0  0  0  0  0  0  0  0  0
  182.2060  180.0910  138.7410 C   0  0  0  0  0  3  0  0  0  0  0  0
  181.5080  178.5750  136.4850 C   0  0  2  0  0  3  0  0  0  0  0  0
  181.5920  177.9350  137.7960 N   0  0  0  0  0  2  0  0  0  0  0  0
  180.9170  179.9790  136.6200 C   0  0  0  0  0  2  0  0  0  0  0  0
  189.3830  178.0790  139.3710 C   0  0  0  0  0  2  0  0  0  0  0  0
  187.9170  176.2790  138.7620 O   0  0  0  0  0  1  0  0  0  0  0  0
  188.6990  177.5060  135.2960 C   0  0  1  0  0  3  0  0  0  0  0  0
  188.6640  177.3330  138.2290 C   0  0  1  0  0  0  0  0  0  0  0  0
  187.6880  178.2780  137.4880 C   0  0  1  0  0  3  0  0  0  0  0  0
  188.1980  179.5770  137.3930 O   0  0  0  0  0  1  0  0  0  0  0  0
  188.6240  176.3000  134.5940 O   0  0  0  0  0  1  0  0  0  0  0  0
  187.3960  177.7580  136.0800 C   0  0  0  0  0  2  0  0  0  0  0  0
  189.8690  177.5490  136.0940 O   0  0  0  0  0  0  0  0  0  0  0  0
  189.6700  176.7180  137.2130 C   0  0  1  0  0  3  0  0  0  0  0  0
  190.8310  174.9160  138.3320 O   0  0  0  0  0  1  0  0  0  0  0  0
  191.0040  176.1690  137.7460 C   0  0  1  0  0  3  0  0  0  0  0  0
  192.0890  176.1010  136.6800 C   0  0  0  0  0  2  0  0  0  0  0  0
  193.4810  176.0660  137.2990 C   0  0  1  0  0  3  0  0  0  0  0  0
  193.4240  176.6020  138.5850 O   0  0  0  0  0  1  0  0  0  0  0  0
  194.0280  174.6400  137.3470 C   0  0  1  0  0  3  0  0  0  0  0  0
  193.4310  173.8370  136.2930 N   0  0  0  0  0  1  0  0  0  0  0  0
  195.5390  174.6350  137.1670 C   0  0  0  0  0  2  0  0  0  0  0  0
  197.2040  174.9920  138.8340 O   0  0  0  0  0  0  0  0  0  0  0  0
  196.2220  174.3080  138.4500 C   0  0  0  0  0  0  0  0  0  0  0  0
  195.7720  173.2510  139.2270 O   0  0  0  0  0  1  0  0  0  0  0  0
  1  6  1  0  0  0  0
  2 10  1  0  0  0  0
  2  4  1  0  0  0  0
  3  9  1  0  0  0  0
  4  1  2  0  0  0  0
  5 13  1  0  0  0  0
  5  8  1  0  0  0  0
  6  8  2  0  0  0  0
  7  1  1  0  0  0  0
  9  4  1  0  0  0  0
  9  5  2  0  0  0  0
 10  7  2  0  0  0  0
 11 14  1  0  0  0  0
 11 13  1  0  0  0  0
 13 12  2  0  0  0  0
 15 16  1  1  0  0  0
 15 14  1  0  0  0  0
 18 17  1  6  0  0  0
 18 15  1  0  0  0  0
 19 23  1  0  0  0  0
 19 18  1  1  0  0  0
 20 22  1  0  0  0  0
 20 23  2  0  0  0  0
 24 21  1  6  0  0  0
 24 26  1  0  0  0  0
 24 25  1  0  0  0  0
 25 19  1  0  0  0  0
 26 20  1  0  0  0  0
 27  2  1  0  0  0  0
 29 33  1  1  0  0  0
 29 34  1  0  0  0  0
 29 35  1  0  0  0  0
 30 28  1  1  0  0  0
 30 27  1  0  0  0  0
 31 32  1  6  0  0  0
 31 30  1  0  0  0  0
 34 31  1  0  0  0  0
 35 36  1  0  0  0  0
 36 38  1  1  0  0  0
 36 30  1  0  0  0  0
 38 37  1  6  0  0  0
 39 40  1  0  0  0  0
 39 38  1  0  0  0  0
 40 42  1  0  0  0  0
 40 41  1  1  0  0  0
 42 43  1  6  0  0  0
 44 42  1  0  0  0  0
 44 46  1  0  0  0  0
 46 45  2  0  0  0  0
 46 47  1  0  0  0  0
M  END
>  <MODEL>
9

>  <REMARK>
 VINA RESULT:      -7.6      4.157     10.061
  Name = 
  13 active torsions:
  status: ('A' for Active; 'I' for Inactive)
    1  A    between atoms: C_5  and  C_18
    2  A    between atoms: N_7  and  C_18
    3  A    between atoms: C_8  and  C_12
    4  A    between atoms: C_10  and  C_14
    5  A    between atoms: C_10  and  C_29
    6  A    between atoms: C_12  and  C_36
    7  A    between atoms: C_14  and  C_23
    8  A    between atoms: N_19  and  C_33
    9  A    between atoms: C_20  and  C_23
   10  A    between atoms: C_28  and  C_31
   11  A    between atoms: C_29  and  C_41
   12  A    between atoms: C_33  and  C_36
   13  A    between atoms: C_38  and  C_41
                            x       y       z     vdW  Elec       q    Type
                         _______ _______ _______ _____ _____    ______ ____

>  <TORSDO>
F 13

$$$$
