=
 OpenBabel11062414543D

 56 60  0  0  1  0  0  0  0  0999 V2000
  192.1650  175.2870  143.9210 O   0  0  0  0  0  0  0  0  0  0  0  0
  188.7190  178.0210  144.8680 C   0  0  1  0  0  3  0  0  0  0  0  0
  191.4690  177.9290  145.5630 O   0  0  0  0  0  1  0  0  0  0  0  0
  191.3310  176.1780  143.9310 C   0  0  0  0  0  0  0  0  0  0  0  0
  190.8510  176.7190  142.6030 C   0  0  2  0  0  3  0  0  0  0  0  0
  191.9060  177.5530  141.8800 C   0  0  0  0  0  2  0  0  0  0  0  0
  189.6370  176.9710  140.0220 C   0  0  1  0  0  3  0  0  0  0  0  0
  190.8720  177.6420  139.6330 N   0  0  0  0  0  2  0  0  0  0  0  0
  189.4210  177.2940  142.5440 C   0  0  1  0  0  3  0  0  0  0  0  0
  189.3590  176.7400  145.4110 C   0  0  0  0  0  2  0  0  0  0  0  0
  189.2490  178.4580  143.5040 C   0  0  0  0  0  2  0  0  0  0  0  0
  188.9920  177.7650  141.1530 C   0  0  0  0  0  2  0  0  0  0  0  0
  190.8780  176.6980  145.2660 C   0  0  2  0  0  3  0  0  0  0  0  0
  191.9800  177.1060  140.4200 C   0  0  0  0  0  2  0  0  0  0  0  0
  186.9190  177.8550  144.8560 S   0  0  2  0  0  0  0  0  0  0  0  0
  186.6720  176.4060  144.4510 O   0  0  0  0  0  0  0  0  0  0  0  0
  186.3710  178.8080  143.4160 C   0  0  0  0  0  2  0  0  0  0  0  0
  184.4190  180.0140  144.0640 O   0  0  0  0  0  0  0  0  0  0  0  0
  184.8950  179.0240  143.4440 C   0  0  0  0  0  0  0  0  0  0  0  0
  184.0590  178.1010  142.8190 O   0  0  0  0  0  0  0  0  0  0  0  0
  184.0150  177.9400  141.4110 C   0  0  0  0  0  2  0  0  0  0  0  0
  183.4970  179.2320  140.7930 C   0  0  1  0  0  3  0  0  0  0  0  0
  184.4610  179.7400  139.9170 O   0  0  0  0  0  0  0  0  0  0  0  0
  185.3460  178.6830  139.6970 C   0  0  0  0  0  1  0  0  0  0  0  0
  182.1320  179.1300  140.0680 C   0  0  1  0  0  3  0  0  0  0  0  0
  180.8650  179.2650  140.9570 C   0  0  0  0  0  0  0  0  0  0  0  0
  179.7990  180.1150  140.2820 C   0  0  0  0  0  1  0  0  0  0  0  0
  180.2730  177.8940  141.2430 C   0  0  0  0  0  1  0  0  0  0  0  0
  181.2010  179.8390  142.1820 O   0  0  0  0  0  1  0  0  0  0  0  0
  182.0960  180.1460  138.9210 C   0  0  0  0  0  2  0  0  0  0  0  0
  182.2640  179.4790  137.5640 C   0  0  0  0  0  2  0  0  0  0  0  0
  181.0150  178.6960  137.1950 C   0  0  0  0  0  2  0  0  0  0  0  0
  181.1290  176.1530  136.7000 C   0  0  1  0  0  3  0  0  0  0  0  0
  180.0670  176.8310  135.8560 C   0  0  0  0  0  2  0  0  0  0  0  0
  181.3350  177.5860  136.1920 C   0  0  1  0  0  3  0  0  0  0  0  0
  181.7620  175.4900  138.9980 C   0  0  0  0  0  2  0  0  0  0  0  0
  180.6440  176.0430  138.1390 C   0  0  0  0  0  3  0  0  0  0  0  0
  180.6410  174.5840  138.5450 C   0  0  0  0  0  2  0  0  0  0  0  0
  188.6930  176.8900  138.8290 C   0  0  0  0  0  2  0  0  0  0  0  0
  189.4790  176.6580  137.5410 C   0  0  2  0  0  3  0  0  0  0  0  0
  187.2610  176.6090  136.3450 N   0  0  0  0  0  2  0  0  0  0  0  0
  189.1640  177.4790  135.3110 O   0  0  0  0  0  0  0  0  0  0  0  0
  188.6490  176.9390  136.3270 C   0  0  0  0  0  0  0  0  0  0  0  0
  186.3850  176.8990  135.2200 C   0  0  0  0  0  2  0  0  0  0  0  0
  184.9370  176.9030  135.6770 C   0  0  0  0  0  2  0  0  0  0  0  0
  184.8290  176.3420  137.0830 C   0  0  0  0  0  1  0  0  0  0  0  0
  189.2500  174.2880  137.0600 O   0  0  0  0  0  1  0  0  0  0  0  0
  190.1270  175.2720  137.5200 C   0  0  1  0  0  3  0  0  0  0  0  0
  191.4140  175.2710  136.7110 C   0  0  0  0  0  2  0  0  0  0  0  0
  194.8500  174.1980  137.5510 C   0  0  2  0  0  3  0  0  0  0  0  0
  192.4340  174.3640  137.3800 C   0  0  1  0  0  3  0  0  0  0  0  0
  192.9020  173.2740  136.4450 C   0  0  0  0  0  2  0  0  0  0  0  0
  193.6760  175.1420  137.7460 C   0  0  0  0  0  2  0  0  0  0  0  0
  194.2970  172.9300  136.9200 C   0  0  0  0  0  2  0  0  0  0  0  0
  195.7590  175.0650  139.5840 O   0  0  0  0  0  1  0  0  0  0  0  0
  195.4890  173.8840  138.8920 C   0  0  0  0  0  2  0  0  0  0  0  0
  1  4  2  0  0  0  0
  2 15  1  6  0  0  0
  2 10  1  0  0  0  0
  4 13  1  0  0  0  0
  5  6  1  1  0  0  0
  5  4  1  0  0  0  0
  7 39  1  6  0  0  0
  7 12  1  0  0  0  0
  8  7  1  0  0  0  0
  8 14  1  0  0  0  0
  9 12  1  6  0  0  0
  9  5  1  0  0  0  0
  9 11  1  0  0  0  0
 11  2  1  0  0  0  0
 13 10  1  0  0  0  0
 13  3  1  6  0  0  0
 14  6  1  0  0  0  0
 15 16  2  6  0  0  0
 17 19  1  0  0  0  0
 17 15  1  0  0  0  0
 19 18  2  0  0  0  0
 20 19  1  0  0  0  0
 21 20  1  0  0  0  0
 22 21  1  6  0  0  0
 23 22  1  0  0  0  0
 24 23  1  0  0  0  0
 25 30  1  6  0  0  0
 25 22  1  0  0  0  0
 25 26  1  0  0  0  0
 26 28  1  0  0  0  0
 26 29  1  0  0  0  0
 27 26  1  0  0  0  0
 31 30  1  0  0  0  0
 32 31  1  0  0  0  0
 33 37  1  1  0  0  0
 34 35  1  0  0  0  0
 34 33  1  0  0  0  0
 35 33  1  0  0  0  0
 35 32  1  1  0  0  0
 37 38  1  0  0  0  0
 37 36  1  0  0  0  0
 38 36  1  0  0  0  0
 40 39  1  1  0  0  0
 42 43  2  0  0  0  0
 43 41  1  0  0  0  0
 43 40  1  0  0  0  0
 44 45  1  0  0  0  0
 44 41  1  0  0  0  0
 45 46  1  0  0  0  0
 48 47  1  6  0  0  0
 48 40  1  0  0  0  0
 49 48  1  0  0  0  0
 50 53  1  0  0  0  0
 50 56  1  1  0  0  0
 51 49  1  6  0  0  0
 51 53  1  0  0  0  0
 52 54  1  0  0  0  0
 52 51  1  0  0  0  0
 54 50  1  0  0  0  0
 56 55  1  0  0  0  0
M  END
>  <MODEL>
1

>  <REMARK>
 VINA RESULT:      -5.9      0.000      0.000
  Name = 
  23 active torsions:
  status: ('A' for Active; 'I' for Inactive)
    1  A    between atoms: C_1  and  C_15
    2  A    between atoms: C_2  and  C_47
    3  A    between atoms: S_7  and  C_17
    4  A    between atoms: S_7  and  C_51
    5  A    between atoms: C_8  and  C_27
    6  A    between atoms: C_10  and  C_38
    7  A    between atoms: C_10  and  C_40
    8  A    between atoms: C_10  and  C_50
    9  A    between atoms: C_11  and  C_26
   10  A    between atoms: C_12  and  C_22
   11  A    between atoms: C_12  and  C_37
   12  A    between atoms: C_15  and  C_29
   13  A    between atoms: C_15  and  C_31
   14  A    between atoms: C_18  and  C_31
   15  A    between atoms: C_18  and  O_34
   16  A    between atoms: O_23  and  C_31
   17  A    between atoms: C_24  and  C_54
   18  A    between atoms: N_25  and  C_54
   19  A    between atoms: C_26  and  C_50
   20  A    between atoms: C_28  and  O_34
   21  A    between atoms: C_28  and  C_51
   22  A    between atoms: C_29  and  C_37
   23  A    between atoms: C_36  and  C_38
                            x       y       z     vdW  Elec       q    Type
                         _______ _______ _______ _____ _____    ______ ____

>  <TORSDO>
F 23

$$$$
=
 OpenBabel11062414543D

 56 60  0  0  1  0  0  0  0  0999 V2000
  190.4160  175.8610  142.1140 O   0  0  0  0  0  0  0  0  0  0  0  0
  187.7880  178.3980  139.4860 C   0  0  1  0  0  3  0  0  0  0  0  0
  189.0720  178.7490  141.9920 O   0  0  0  0  0  1  0  0  0  0  0  0
  189.9710  176.6410  141.2880 C   0  0  0  0  0  0  0  0  0  0  0  0
  190.7080  176.7850  139.9760 C   0  0  2  0  0  3  0  0  0  0  0  0
  192.0440  177.5100  140.1160 C   0  0  0  0  0  2  0  0  0  0  0  0
  191.8560  176.2650  137.4030 C   0  0  1  0  0  3  0  0  0  0  0  0
  193.0430  176.9350  137.9250 N   0  0  0  0  0  2  0  0  0  0  0  0
  189.8830  177.1850  138.7350 C   0  0  1  0  0  3  0  0  0  0  0  0
  187.6450  177.3610  140.6040 C   0  0  0  0  0  2  0  0  0  0  0  0
  189.2040  178.5300  138.9290 C   0  0  0  0  0  2  0  0  0  0  0  0
  190.6920  177.2510  137.4380 C   0  0  0  0  0  2  0  0  0  0  0  0
  188.7470  177.4310  141.6570 C   0  0  2  0  0  3  0  0  0  0  0  0
  193.1210  176.7230  139.3680 C   0  0  0  0  0  2  0  0  0  0  0  0
  186.5910  178.0600  138.1740 S   0  0  2  0  0  0  0  0  0  0  0  0
  186.7900  179.1930  137.1740 O   0  0  0  0  0  0  0  0  0  0  0  0
  184.9740  178.4100  138.9130 C   0  0  0  0  0  2  0  0  0  0  0  0
  183.9340  177.8460  136.8440 O   0  0  0  0  0  0  0  0  0  0  0  0
  183.8720  177.8150  138.1030 C   0  0  0  0  0  0  0  0  0  0  0  0
  182.7660  177.2720  138.7530 O   0  0  0  0  0  0  0  0  0  0  0  0
  182.5800  177.3660  140.1550 C   0  0  0  0  0  2  0  0  0  0  0  0
  181.1310  177.7520  140.4260 C   0  0  1  0  0  3  0  0  0  0  0  0
  180.4800  176.6780  141.0400 O   0  0  0  0  0  0  0  0  0  0  0  0
  179.8870  175.9650  139.9960 C   0  0  0  0  0  1  0  0  0  0  0  0
  180.9230  179.0380  141.2620 C   0  0  1  0  0  3  0  0  0  0  0  0
  180.0710  180.1590  140.6060 C   0  0  0  0  0  0  0  0  0  0  0  0
  179.1550  179.6040  139.5260 C   0  0  0  0  0  1  0  0  0  0  0  0
  179.2120  180.8490  141.6540 C   0  0  0  0  0  1  0  0  0  0  0  0
  180.9060  181.1270  140.0480 O   0  0  0  0  0  1  0  0  0  0  0  0
  180.3510  178.6590  142.6330 C   0  0  0  0  0  2  0  0  0  0  0  0
  181.2750  179.0700  143.7700 C   0  0  0  0  0  2  0  0  0  0  0  0
  182.6820  178.5480  143.5300 C   0  0  0  0  0  2  0  0  0  0  0  0
  184.9660  179.4720  144.3400 C   0  0  1  0  0  3  0  0  0  0  0  0
  184.9740  179.2160  142.8450 C   0  0  0  0  0  2  0  0  0  0  0  0
  183.6980  179.6920  143.5040 C   0  0  1  0  0  3  0  0  0  0  0  0
  185.1400  178.4180  146.5710 C   0  0  0  0  0  2  0  0  0  0  0  0
  185.0230  178.1460  145.0860 C   0  0  0  0  0  3  0  0  0  0  0  0
  186.3660  178.0320  145.7780 C   0  0  0  0  0  2  0  0  0  0  0  0
  192.1100  175.7990  135.9760 C   0  0  0  0  0  2  0  0  0  0  0  0
  191.8040  174.3100  135.8380 C   0  0  2  0  0  3  0  0  0  0  0  0
  189.3060  174.0090  135.6870 N   0  0  0  0  0  2  0  0  0  0  0  0
  190.4500  173.5840  137.6770 O   0  0  0  0  0  0  0  0  0  0  0  0
  190.4970  173.9510  136.4720 C   0  0  0  0  0  0  0  0  0  0  0  0
  188.0090  173.6270  136.2240 C   0  0  0  0  0  2  0  0  0  0  0  0
  187.1990  174.8680  136.5550 C   0  0  0  0  0  2  0  0  0  0  0  0
  185.8220  174.4760  137.0590 C   0  0  0  0  0  1  0  0  0  0  0  0
  192.7150  172.0840  136.1840 O   0  0  0  0  0  1  0  0  0  0  0  0
  192.9700  173.4480  136.3320 C   0  0  1  0  0  3  0  0  0  0  0  0
  194.2720  173.8320  135.6510 C   0  0  0  0  0  2  0  0  0  0  0  0
  197.2180  173.5210  137.8620 C   0  0  2  0  0  3  0  0  0  0  0  0
  195.2580  174.3430  136.6890 C   0  0  1  0  0  3  0  0  0  0  0  0
  194.8440  173.9490  138.0870 C   0  0  0  0  0  2  0  0  0  0  0  0
  196.6180  173.7200  136.4800 C   0  0  0  0  0  2  0  0  0  0  0  0
  196.1370  173.8820  138.8690 C   0  0  0  0  0  2  0  0  0  0  0  0
  198.0370  175.6390  138.6070 O   0  0  0  0  0  1  0  0  0  0  0  0
  198.4250  174.4260  138.0370 C   0  0  0  0  0  2  0  0  0  0  0  0
  2 15  1  6  0  0  0
  2 10  1  0  0  0  0
  4 13  1  0  0  0  0
  4  1  2  0  0  0  0
  5  6  1  1  0  0  0
  5  4  1  0  0  0  0
  7 39  1  6  0  0  0
  7 12  1  0  0  0  0
  7  8  1  0  0  0  0
  8 14  1  0  0  0  0
  9 12  1  6  0  0  0
  9 11  1  0  0  0  0
  9  5  1  0  0  0  0
 10 13  1  0  0  0  0
 11  2  1  0  0  0  0
 13  3  1  6  0  0  0
 14  6  1  0  0  0  0
 15 16  2  6  0  0  0
 15 17  1  0  0  0  0
 18 19  2  0  0  0  0
 19 20  1  0  0  0  0
 19 17  1  0  0  0  0
 20 21  1  0  0  0  0
 22 21  1  1  0  0  0
 22 23  1  0  0  0  0
 22 25  1  0  0  0  0
 24 23  1  0  0  0  0
 25 30  1  1  0  0  0
 26 25  1  0  0  0  0
 26 28  1  0  0  0  0
 27 26  1  0  0  0  0
 29 26  1  0  0  0  0
 30 31  1  0  0  0  0
 32 31  1  0  0  0  0
 33 37  1  1  0  0  0
 34 35  1  0  0  0  0
 34 33  1  0  0  0  0
 35 32  1  1  0  0  0
 35 33  1  0  0  0  0
 37 38  1  0  0  0  0
 37 36  1  0  0  0  0
 38 36  1  0  0  0  0
 40 39  1  1  0  0  0
 40 48  1  0  0  0  0
 40 43  1  0  0  0  0
 41 44  1  0  0  0  0
 41 43  1  0  0  0  0
 43 42  2  0  0  0  0
 44 45  1  0  0  0  0
 45 46  1  0  0  0  0
 48 47  1  6  0  0  0
 49 48  1  0  0  0  0
 50 56  1  6  0  0  0
 50 54  1  0  0  0  0
 51 49  1  6  0  0  0
 51 52  1  0  0  0  0
 52 54  1  0  0  0  0
 53 51  1  0  0  0  0
 53 50  1  0  0  0  0
 56 55  1  0  0  0  0
M  END
>  <MODEL>
2

>  <REMARK>
 VINA RESULT:      -5.8      2.597      4.839
  Name = 
  23 active torsions:
  status: ('A' for Active; 'I' for Inactive)
    1  A    between atoms: C_1  and  C_15
    2  A    between atoms: C_2  and  C_47
    3  A    between atoms: S_7  and  C_17
    4  A    between atoms: S_7  and  C_51
    5  A    between atoms: C_8  and  C_27
    6  A    between atoms: C_10  and  C_38
    7  A    between atoms: C_10  and  C_40
    8  A    between atoms: C_10  and  C_50
    9  A    between atoms: C_11  and  C_26
   10  A    between atoms: C_12  and  C_22
   11  A    between atoms: C_12  and  C_37
   12  A    between atoms: C_15  and  C_29
   13  A    between atoms: C_15  and  C_31
   14  A    between atoms: C_18  and  C_31
   15  A    between atoms: C_18  and  O_34
   16  A    between atoms: O_23  and  C_31
   17  A    between atoms: C_24  and  C_54
   18  A    between atoms: N_25  and  C_54
   19  A    between atoms: C_26  and  C_50
   20  A    between atoms: C_28  and  O_34
   21  A    between atoms: C_28  and  C_51
   22  A    between atoms: C_29  and  C_37
   23  A    between atoms: C_36  and  C_38
                            x       y       z     vdW  Elec       q    Type
                         _______ _______ _______ _____ _____    ______ ____

>  <TORSDO>
F 23

$$$$
=
 OpenBabel11062414543D

 56 60  0  0  1  0  0  0  0  0999 V2000
  190.4500  176.1200  142.4830 O   0  0  0  0  0  0  0  0  0  0  0  0
  187.8480  178.3030  139.5320 C   0  0  1  0  0  3  0  0  0  0  0  0
  189.0270  178.9370  142.0340 O   0  0  0  0  0  1  0  0  0  0  0  0
  190.0140  176.8020  141.5700 C   0  0  0  0  0  0  0  0  0  0  0  0
  190.7950  176.8420  140.2770 C   0  0  2  0  0  3  0  0  0  0  0  0
  192.1030  177.6220  140.3910 C   0  0  0  0  0  2  0  0  0  0  0  0
  192.0530  176.1160  137.8080 C   0  0  1  0  0  3  0  0  0  0  0  0
  193.1990  176.8710  138.3020 N   0  0  0  0  0  2  0  0  0  0  0  0
  190.0050  177.0940  138.9750 C   0  0  1  0  0  3  0  0  0  0  0  0
  187.6950  177.3750  140.7400 C   0  0  0  0  0  2  0  0  0  0  0  0
  189.2800  178.4270  139.0130 C   0  0  0  0  0  2  0  0  0  0  0  0
  190.8600  177.0600  137.7070 C   0  0  0  0  0  2  0  0  0  0  0  0
  188.7540  177.5830  141.8190 C   0  0  2  0  0  3  0  0  0  0  0  0
  193.2290  176.8020  139.7610 C   0  0  0  0  0  2  0  0  0  0  0  0
  186.7110  177.8000  138.2190 S   0  0  2  0  0  0  0  0  0  0  0  0
  186.6490  179.0040  137.2870 O   0  0  0  0  0  0  0  0  0  0  0  0
  185.0770  177.7690  139.0010 C   0  0  0  0  0  2  0  0  0  0  0  0
  185.2310  179.7940  140.2490 O   0  0  0  0  0  0  0  0  0  0  0  0
  184.6240  179.1460  139.3540 C   0  0  0  0  0  0  0  0  0  0  0  0
  183.5050  179.6800  138.7180 O   0  0  0  0  0  0  0  0  0  0  0  0
  182.2880  178.9640  138.5840 C   0  0  0  0  0  2  0  0  0  0  0  0
  181.3320  179.4290  139.6750 C   0  0  1  0  0  3  0  0  0  0  0  0
  180.2140  180.0220  139.0810 O   0  0  0  0  0  0  0  0  0  0  0  0
  180.3820  181.3940  139.2760 C   0  0  0  0  0  1  0  0  0  0  0  0
  180.8770  178.3400  140.6780 C   0  0  1  0  0  3  0  0  0  0  0  0
  180.4250  176.9850  140.0690 C   0  0  0  0  0  0  0  0  0  0  0  0
  181.6130  176.0790  139.7810 C   0  0  0  0  0  1  0  0  0  0  0  0
  179.4930  176.2610  141.0280 C   0  0  0  0  0  1  0  0  0  0  0  0
  179.7190  177.2050  138.8870 O   0  0  0  0  0  1  0  0  0  0  0  0
  181.9820  178.1220  141.7170 C   0  0  0  0  0  2  0  0  0  0  0  0
  181.9270  179.1550  142.8330 C   0  0  0  0  0  2  0  0  0  0  0  0
  182.9500  178.8330  143.9100 C   0  0  0  0  0  2  0  0  0  0  0  0
  185.3710  179.3270  144.6980 C   0  0  1  0  0  3  0  0  0  0  0  0
  185.3630  178.5860  143.3750 C   0  0  0  0  0  2  0  0  0  0  0  0
  184.2610  179.5810  143.6680 C   0  0  1  0  0  3  0  0  0  0  0  0
  185.6640  178.8290  147.1030 C   0  0  0  0  0  2  0  0  0  0  0  0
  184.9980  178.3710  145.8230 C   0  0  0  0  0  3  0  0  0  0  0  0
  186.2540  177.6830  146.3160 C   0  0  0  0  0  2  0  0  0  0  0  0
  192.3730  175.5220  136.4420 C   0  0  0  0  0  2  0  0  0  0  0  0
  192.0420  174.0320  136.4160 C   0  0  2  0  0  3  0  0  0  0  0  0
  193.4230  171.9330  136.2220 N   0  0  0  0  0  2  0  0  0  0  0  0
  193.7180  173.7070  134.7340 O   0  0  0  0  0  0  0  0  0  0  0  0
  193.1130  173.2380  135.7360 C   0  0  0  0  0  0  0  0  0  0  0  0
  194.4170  171.0870  135.5790 C   0  0  0  0  0  2  0  0  0  0  0  0
  195.6780  171.0330  136.4230 C   0  0  0  0  0  2  0  0  0  0  0  0
  196.8200  171.7280  135.7050 C   0  0  0  0  0  1  0  0  0  0  0  0
  190.6440  172.7430  134.9040 O   0  0  0  0  0  1  0  0  0  0  0  0
  190.6460  173.7770  135.8430 C   0  0  1  0  0  3  0  0  0  0  0  0
  189.6330  173.5100  136.9430 C   0  0  0  0  0  2  0  0  0  0  0  0
  186.3340  174.4410  135.5600 C   0  0  2  0  0  3  0  0  0  0  0  0
  188.4380  174.4340  136.7700 C   0  0  1  0  0  3  0  0  0  0  0  0
  188.5920  175.3170  135.5550 C   0  0  0  0  0  2  0  0  0  0  0  0
  187.1800  173.6340  136.5300 C   0  0  0  0  0  2  0  0  0  0  0  0
  187.1770  175.6270  135.1200 C   0  0  0  0  0  2  0  0  0  0  0  0
  184.1520  175.3840  135.3090 O   0  0  0  0  0  1  0  0  0  0  0  0
  185.0700  174.9210  136.2520 C   0  0  0  0  0  2  0  0  0  0  0  0
  2 15  1  6  0  0  0
  2 10  1  0  0  0  0
  4 13  1  0  0  0  0
  4  1  2  0  0  0  0
  5  6  1  1  0  0  0
  5  4  1  0  0  0  0
  7 39  1  6  0  0  0
  7  8  1  0  0  0  0
  8 14  1  0  0  0  0
  9 12  1  6  0  0  0
  9 11  1  0  0  0  0
  9  5  1  0  0  0  0
 10 13  1  0  0  0  0
 11  2  1  0  0  0  0
 12  7  1  0  0  0  0
 13  3  1  6  0  0  0
 14  6  1  0  0  0  0
 15 16  2  6  0  0  0
 15 17  1  0  0  0  0
 17 19  1  0  0  0  0
 19 18  2  0  0  0  0
 20 19  1  0  0  0  0
 21 20  1  0  0  0  0
 22 21  1  6  0  0  0
 22 25  1  0  0  0  0
 23 24  1  0  0  0  0
 23 22  1  0  0  0  0
 25 30  1  1  0  0  0
 26 25  1  0  0  0  0
 26 28  1  0  0  0  0
 27 26  1  0  0  0  0
 29 26  1  0  0  0  0
 30 31  1  0  0  0  0
 31 32  1  0  0  0  0
 33 37  1  1  0  0  0
 34 35  1  0  0  0  0
 34 33  1  0  0  0  0
 35 32  1  1  0  0  0
 35 33  1  0  0  0  0
 37 38  1  0  0  0  0
 37 36  1  0  0  0  0
 38 36  1  0  0  0  0
 40 39  1  6  0  0  0
 42 43  2  0  0  0  0
 43 41  1  0  0  0  0
 43 40  1  0  0  0  0
 44 41  1  0  0  0  0
 44 45  1  0  0  0  0
 46 45  1  0  0  0  0
 48 47  1  6  0  0  0
 48 40  1  0  0  0  0
 48 49  1  0  0  0  0
 50 56  1  1  0  0  0
 50 53  1  0  0  0  0
 51 49  1  6  0  0  0
 52 51  1  0  0  0  0
 53 51  1  0  0  0  0
 54 52  1  0  0  0  0
 54 50  1  0  0  0  0
 55 56  1  0  0  0  0
M  END
>  <MODEL>
3

>  <REMARK>
 VINA RESULT:      -5.5      2.629      6.251
  Name = 
  23 active torsions:
  status: ('A' for Active; 'I' for Inactive)
    1  A    between atoms: C_1  and  C_15
    2  A    between atoms: C_2  and  C_47
    3  A    between atoms: S_7  and  C_17
    4  A    between atoms: S_7  and  C_51
    5  A    between atoms: C_8  and  C_27
    6  A    between atoms: C_10  and  C_38
    7  A    between atoms: C_10  and  C_40
    8  A    between atoms: C_10  and  C_50
    9  A    between atoms: C_11  and  C_26
   10  A    between atoms: C_12  and  C_22
   11  A    between atoms: C_12  and  C_37
   12  A    between atoms: C_15  and  C_29
   13  A    between atoms: C_15  and  C_31
   14  A    between atoms: C_18  and  C_31
   15  A    between atoms: C_18  and  O_34
   16  A    between atoms: O_23  and  C_31
   17  A    between atoms: C_24  and  C_54
   18  A    between atoms: N_25  and  C_54
   19  A    between atoms: C_26  and  C_50
   20  A    between atoms: C_28  and  O_34
   21  A    between atoms: C_28  and  C_51
   22  A    between atoms: C_29  and  C_37
   23  A    between atoms: C_36  and  C_38
                            x       y       z     vdW  Elec       q    Type
                         _______ _______ _______ _____ _____    ______ ____

>  <TORSDO>
F 23

$$$$
=
 OpenBabel11062414543D

 56 60  0  0  1  0  0  0  0  0999 V2000
  191.2220  176.0310  146.9770 O   0  0  0  0  0  0  0  0  0  0  0  0
  187.3380  178.2220  146.3790 C   0  0  1  0  0  3  0  0  0  0  0  0
  189.6810  178.6590  147.9170 O   0  0  0  0  0  1  0  0  0  0  0  0
  190.3260  176.7660  146.5940 C   0  0  0  0  0  0  0  0  0  0  0  0
  190.2550  177.0930  145.1200 C   0  0  2  0  0  3  0  0  0  0  0  0
  191.3750  178.0220  144.6580 C   0  0  0  0  0  2  0  0  0  0  0  0
  189.9570  176.8970  142.2780 C   0  0  1  0  0  3  0  0  0  0  0  0
  191.1540  177.7270  142.2100 N   0  0  0  0  0  2  0  0  0  0  0  0
  188.8660  177.4110  144.5270 C   0  0  1  0  0  3  0  0  0  0  0  0
  187.9160  177.1230  147.2750 C   0  0  0  0  0  2  0  0  0  0  0  0
  188.2340  178.6140  145.2060 C   0  0  0  0  0  2  0  0  0  0  0  0
  188.8730  177.6730  143.0200 C   0  0  0  0  0  2  0  0  0  0  0  0
  189.3880  177.3240  147.6280 C   0  0  2  0  0  3  0  0  0  0  0  0
  191.9920  177.4610  143.3770 C   0  0  0  0  0  2  0  0  0  0  0  0
  185.6830  177.7550  145.8190 S   0  0  2  0  0  0  0  0  0  0  0  0
  185.7850  176.2620  145.5330 O   0  0  0  0  0  0  0  0  0  0  0  0
  185.5160  178.5030  144.1780 C   0  0  0  0  0  2  0  0  0  0  0  0
  183.2370  179.0650  144.5900 O   0  0  0  0  0  0  0  0  0  0  0  0
  184.0830  178.6050  143.7760 C   0  0  0  0  0  0  0  0  0  0  0  0
  183.6930  178.1480  142.5190 O   0  0  0  0  0  0  0  0  0  0  0  0
  184.1350  178.7520  141.3150 C   0  0  0  0  0  2  0  0  0  0  0  0
  182.9440  178.8860  140.3750 C   0  0  1  0  0  3  0  0  0  0  0  0
  183.4060  179.1690  139.0870 O   0  0  0  0  0  0  0  0  0  0  0  0
  183.0700  180.5050  138.8640 C   0  0  0  0  0  1  0  0  0  0  0  0
  181.9830  177.6720  140.3320 C   0  0  1  0  0  3  0  0  0  0  0  0
  180.4910  177.9590  140.6520 C   0  0  0  0  0  0  0  0  0  0  0  0
  180.2410  178.0090  142.1520 C   0  0  0  0  0  1  0  0  0  0  0  0
  180.0690  179.2920  140.0530 C   0  0  0  0  0  1  0  0  0  0  0  0
  179.6840  176.9730  140.0850 O   0  0  0  0  0  1  0  0  0  0  0  0
  182.1180  176.9730  138.9740 C   0  0  0  0  0  2  0  0  0  0  0  0
  182.8280  175.6330  139.0910 C   0  0  0  0  0  2  0  0  0  0  0  0
  182.9170  174.9550  137.7330 C   0  0  0  0  0  2  0  0  0  0  0  0
  183.7860  172.6280  136.9890 C   0  0  1  0  0  3  0  0  0  0  0  0
  184.4980  173.7440  136.2490 C   0  0  0  0  0  2  0  0  0  0  0  0
  184.0800  173.9640  137.6860 C   0  0  1  0  0  3  0  0  0  0  0  0
  181.5910  171.5480  137.3580 C   0  0  0  0  0  2  0  0  0  0  0  0
  182.3690  172.4800  136.4530 C   0  0  0  0  0  3  0  0  0  0  0  0
  182.1470  171.0380  136.0490 C   0  0  0  0  0  2  0  0  0  0  0  0
  189.4870  176.5490  140.8720 C   0  0  0  0  0  2  0  0  0  0  0  0
  190.0450  177.5460  139.8600 C   0  0  2  0  0  3  0  0  0  0  0  0
  187.7010  177.5680  138.9330 N   0  0  0  0  0  2  0  0  0  0  0  0
  189.1310  179.3880  138.6270 O   0  0  0  0  0  0  0  0  0  0  0  0
  188.9540  178.2320  139.0980 C   0  0  0  0  0  0  0  0  0  0  0  0
  186.5810  178.1940  138.2480 C   0  0  0  0  0  2  0  0  0  0  0  0
  185.9150  177.1940  137.3190 C   0  0  0  0  0  2  0  0  0  0  0  0
  186.9640  176.3500  136.6190 C   0  0  0  0  0  1  0  0  0  0  0  0
  192.3800  176.9760  139.5040 O   0  0  0  0  0  1  0  0  0  0  0  0
  191.0980  176.9010  138.9550 C   0  0  1  0  0  3  0  0  0  0  0  0
  190.7370  175.4640  138.6190 C   0  0  0  0  0  2  0  0  0  0  0  0
  193.0430  174.1730  136.0350 C   0  0  2  0  0  3  0  0  0  0  0  0
  191.1470  175.1580  137.1880 C   0  0  1  0  0  3  0  0  0  0  0  0
  191.9770  176.2730  136.5990 C   0  0  0  0  0  2  0  0  0  0  0  0
  192.0280  173.9310  137.1400 C   0  0  0  0  0  2  0  0  0  0  0  0
  192.8440  175.6020  135.5570 C   0  0  0  0  0  2  0  0  0  0  0  0
  192.8800  171.8850  135.3610 O   0  0  0  0  0  1  0  0  0  0  0  0
  192.8060  173.1980  134.8940 C   0  0  0  0  0  2  0  0  0  0  0  0
  2 15  1  6  0  0  0
  2 10  1  0  0  0  0
  4  1  2  0  0  0  0
  4 13  1  0  0  0  0
  5  6  1  1  0  0  0
  5  4  1  0  0  0  0
  7 39  1  6  0  0  0
  7 12  1  0  0  0  0
  8  7  1  0  0  0  0
  8 14  1  0  0  0  0
  9 12  1  6  0  0  0
  9  5  1  0  0  0  0
  9 11  1  0  0  0  0
 10 13  1  0  0  0  0
 11  2  1  0  0  0  0
 13  3  1  6  0  0  0
 14  6  1  0  0  0  0
 15 16  2  6  0  0  0
 17 15  1  0  0  0  0
 19 17  1  0  0  0  0
 19 18  2  0  0  0  0
 20 19  1  0  0  0  0
 21 20  1  0  0  0  0
 22 21  1  1  0  0  0
 23 22  1  0  0  0  0
 24 23  1  0  0  0  0
 25 30  1  6  0  0  0
 25 22  1  0  0  0  0
 25 26  1  0  0  0  0
 26 27  1  0  0  0  0
 28 26  1  0  0  0  0
 29 26  1  0  0  0  0
 30 31  1  0  0  0  0
 32 31  1  0  0  0  0
 33 37  1  6  0  0  0
 33 35  1  0  0  0  0
 34 33  1  0  0  0  0
 34 35  1  0  0  0  0
 35 32  1  6  0  0  0
 37 36  1  0  0  0  0
 38 37  1  0  0  0  0
 38 36  1  0  0  0  0
 40 39  1  6  0  0  0
 41 43  1  0  0  0  0
 42 43  2  0  0  0  0
 43 40  1  0  0  0  0
 44 41  1  0  0  0  0
 45 44  1  0  0  0  0
 46 45  1  0  0  0  0
 48 47  1  1  0  0  0
 48 40  1  0  0  0  0
 49 48  1  0  0  0  0
 50 56  1  6  0  0  0
 50 53  1  0  0  0  0
 51 49  1  1  0  0  0
 52 51  1  0  0  0  0
 53 51  1  0  0  0  0
 54 50  1  0  0  0  0
 54 52  1  0  0  0  0
 56 55  1  0  0  0  0
M  END
>  <MODEL>
4

>  <REMARK>
 VINA RESULT:      -4.9      2.089      3.020
  Name = 
  23 active torsions:
  status: ('A' for Active; 'I' for Inactive)
    1  A    between atoms: C_1  and  C_15
    2  A    between atoms: C_2  and  C_47
    3  A    between atoms: S_7  and  C_17
    4  A    between atoms: S_7  and  C_51
    5  A    between atoms: C_8  and  C_27
    6  A    between atoms: C_10  and  C_38
    7  A    between atoms: C_10  and  C_40
    8  A    between atoms: C_10  and  C_50
    9  A    between atoms: C_11  and  C_26
   10  A    between atoms: C_12  and  C_22
   11  A    between atoms: C_12  and  C_37
   12  A    between atoms: C_15  and  C_29
   13  A    between atoms: C_15  and  C_31
   14  A    between atoms: C_18  and  C_31
   15  A    between atoms: C_18  and  O_34
   16  A    between atoms: O_23  and  C_31
   17  A    between atoms: C_24  and  C_54
   18  A    between atoms: N_25  and  C_54
   19  A    between atoms: C_26  and  C_50
   20  A    between atoms: C_28  and  O_34
   21  A    between atoms: C_28  and  C_51
   22  A    between atoms: C_29  and  C_37
   23  A    between atoms: C_36  and  C_38
                            x       y       z     vdW  Elec       q    Type
                         _______ _______ _______ _____ _____    ______ ____

>  <TORSDO>
F 23

$$$$
=
 OpenBabel11062414543D

 56 60  0  0  1  0  0  0  0  0999 V2000
  190.8600  174.8780  142.8910 O   0  0  0  0  0  0  0  0  0  0  0  0
  188.2780  178.2470  144.3850 C   0  0  1  0  0  3  0  0  0  0  0  0
  190.9650  177.4330  144.7950 O   0  0  0  0  0  1  0  0  0  0  0  0
  190.2750  175.9370  143.0530 C   0  0  0  0  0  0  0  0  0  0  0  0
  189.8430  176.7060  141.8260 C   0  0  2  0  0  3  0  0  0  0  0  0
  191.0110  177.3320  141.0690 C   0  0  0  0  0  2  0  0  0  0  0  0
  188.5330  177.4960  139.4040 C   0  0  1  0  0  3  0  0  0  0  0  0
  189.8620  177.8890  138.9480 N   0  0  0  0  0  2  0  0  0  0  0  0
  188.5980  177.6090  141.9520 C   0  0  1  0  0  3  0  0  0  0  0  0
  188.6220  176.8030  144.7600 C   0  0  0  0  0  2  0  0  0  0  0  0
  188.7920  178.6790  143.0120 C   0  0  0  0  0  2  0  0  0  0  0  0
  188.1930  178.3050  140.6520 C   0  0  0  0  0  2  0  0  0  0  0  0
  190.0680  176.4140  144.4630 C   0  0  2  0  0  3  0  0  0  0  0  0
  190.8610  177.0290  139.5780 C   0  0  0  0  0  2  0  0  0  0  0  0
  186.4970  178.5170  144.5370 S   0  0  2  0  0  0  0  0  0  0  0  0
  186.0490  177.5190  145.5980 O   0  0  0  0  0  0  0  0  0  0  0  0
  185.7910  177.8650  143.0010 C   0  0  0  0  0  2  0  0  0  0  0  0
  184.0490  179.4390  143.4110 O   0  0  0  0  0  0  0  0  0  0  0  0
  184.4440  178.4500  142.7370 C   0  0  0  0  0  0  0  0  0  0  0  0
  183.6240  177.8650  141.7750 O   0  0  0  0  0  0  0  0  0  0  0  0
  183.4000  178.4500  140.5020 C   0  0  0  0  0  2  0  0  0  0  0  0
  182.1610  179.3320  140.5880 C   0  0  1  0  0  3  0  0  0  0  0  0
  181.9540  179.9510  139.3510 O   0  0  0  0  0  0  0  0  0  0  0  0
  183.1720  179.8380  138.6780 C   0  0  0  0  0  1  0  0  0  0  0  0
  180.8620  178.6240  141.0430 C   0  0  1  0  0  3  0  0  0  0  0  0
  180.2350  179.1170  142.3750 C   0  0  0  0  0  0  0  0  0  0  0  0
  178.9310  179.8640  142.1350 C   0  0  0  0  0  1  0  0  0  0  0  0
  179.9490  177.9390  143.2920 C   0  0  0  0  0  1  0  0  0  0  0  0
  181.1280  179.9570  143.0400 O   0  0  0  0  0  1  0  0  0  0  0  0
  179.8330  178.6850  139.9080 C   0  0  0  0  0  2  0  0  0  0  0  0
  180.0050  177.5400  138.9200 C   0  0  0  0  0  2  0  0  0  0  0  0
  180.5710  176.3140  139.6180 C   0  0  0  0  0  2  0  0  0  0  0  0
  181.6560  174.7820  137.8290 C   0  0  1  0  0  3  0  0  0  0  0  0
  181.8290  176.2470  137.4770 C   0  0  0  0  0  2  0  0  0  0  0  0
  181.8500  175.8310  138.9320 C   0  0  1  0  0  3  0  0  0  0  0  0
  180.0290  172.9300  138.0340 C   0  0  0  0  0  2  0  0  0  0  0  0
  180.2130  174.3640  137.5840 C   0  0  0  0  0  3  0  0  0  0  0  0
  180.1930  173.2430  136.5660 C   0  0  0  0  0  2  0  0  0  0  0  0
  187.5100  177.7620  138.3070 C   0  0  0  0  0  2  0  0  0  0  0  0
  187.2610  176.4970  137.4900 C   0  0  2  0  0  3  0  0  0  0  0  0
  189.1420  175.3930  136.2270 N   0  0  0  0  0  2  0  0  0  0  0  0
  188.0320  177.2500  135.3500 O   0  0  0  0  0  0  0  0  0  0  0  0
  188.1580  176.4240  136.2940 C   0  0  0  0  0  0  0  0  0  0  0  0
  190.0130  175.2320  135.0740 C   0  0  0  0  0  2  0  0  0  0  0  0
  191.3820  174.7510  135.5200 C   0  0  0  0  0  2  0  0  0  0  0  0
  191.2600  173.9300  136.7910 C   0  0  0  0  0  1  0  0  0  0  0  0
  185.0860  177.5450  137.2180 O   0  0  0  0  0  1  0  0  0  0  0  0
  185.7780  176.3350  137.1430 C   0  0  1  0  0  3  0  0  0  0  0  0
  185.5940  175.6890  135.7800 C   0  0  0  0  0  2  0  0  0  0  0  0
  184.6050  172.1680  135.2420 C   0  0  2  0  0  3  0  0  0  0  0  0
  184.6500  174.5040  135.9030 C   0  0  1  0  0  3  0  0  0  0  0  0
  183.7650  174.3720  134.6870 C   0  0  0  0  0  2  0  0  0  0  0  0
  185.4290  173.2120  135.9780 C   0  0  0  0  0  2  0  0  0  0  0  0
  183.4310  172.8980  134.6100 C   0  0  0  0  0  2  0  0  0  0  0  0
  183.3080  171.7140  137.1980 O   0  0  0  0  0  1  0  0  0  0  0  0
  184.1070  171.1190  136.2210 C   0  0  0  0  0  2  0  0  0  0  0  0
  1  4  2  0  0  0  0
  2 15  1  6  0  0  0
  2 10  1  0  0  0  0
  4 13  1  0  0  0  0
  5  6  1  1  0  0  0
  5  9  1  0  0  0  0
  5  4  1  0  0  0  0
  7 39  1  6  0  0  0
  7 12  1  0  0  0  0
  8  7  1  0  0  0  0
  8 14  1  0  0  0  0
  9 12  1  6  0  0  0
  9 11  1  0  0  0  0
 11  2  1  0  0  0  0
 13 10  1  0  0  0  0
 13  3  1  6  0  0  0
 14  6  1  0  0  0  0
 15 16  2  1  0  0  0
 17 15  1  0  0  0  0
 19 17  1  0  0  0  0
 19 18  2  0  0  0  0
 20 19  1  0  0  0  0
 21 20  1  0  0  0  0
 22 21  1  6  0  0  0
 22 25  1  0  0  0  0
 23 22  1  0  0  0  0
 24 23  1  0  0  0  0
 25 30  1  6  0  0  0
 25 26  1  0  0  0  0
 26 29  1  0  0  0  0
 26 28  1  0  0  0  0
 27 26  1  0  0  0  0
 31 32  1  0  0  0  0
 31 30  1  0  0  0  0
 33 37  1  1  0  0  0
 33 35  1  0  0  0  0
 34 33  1  0  0  0  0
 34 35  1  0  0  0  0
 35 32  1  1  0  0  0
 37 36  1  0  0  0  0
 38 37  1  0  0  0  0
 38 36  1  0  0  0  0
 40 39  1  6  0  0  0
 41 43  1  0  0  0  0
 42 43  2  0  0  0  0
 43 40  1  0  0  0  0
 44 45  1  0  0  0  0
 44 41  1  0  0  0  0
 45 46  1  0  0  0  0
 48 47  1  6  0  0  0
 48 40  1  0  0  0  0
 49 48  1  0  0  0  0
 50 53  1  0  0  0  0
 50 56  1  1  0  0  0
 51 49  1  6  0  0  0
 51 53  1  0  0  0  0
 52 51  1  0  0  0  0
 54 52  1  0  0  0  0
 54 50  1  0  0  0  0
 56 55  1  0  0  0  0
M  END
>  <MODEL>
5

>  <REMARK>
 VINA RESULT:      -4.8      2.067      4.466
  Name = 
  23 active torsions:
  status: ('A' for Active; 'I' for Inactive)
    1  A    between atoms: C_1  and  C_15
    2  A    between atoms: C_2  and  C_47
    3  A    between atoms: S_7  and  C_17
    4  A    between atoms: S_7  and  C_51
    5  A    between atoms: C_8  and  C_27
    6  A    between atoms: C_10  and  C_38
    7  A    between atoms: C_10  and  C_40
    8  A    between atoms: C_10  and  C_50
    9  A    between atoms: C_11  and  C_26
   10  A    between atoms: C_12  and  C_22
   11  A    between atoms: C_12  and  C_37
   12  A    between atoms: C_15  and  C_29
   13  A    between atoms: C_15  and  C_31
   14  A    between atoms: C_18  and  C_31
   15  A    between atoms: C_18  and  O_34
   16  A    between atoms: O_23  and  C_31
   17  A    between atoms: C_24  and  C_54
   18  A    between atoms: N_25  and  C_54
   19  A    between atoms: C_26  and  C_50
   20  A    between atoms: C_28  and  O_34
   21  A    between atoms: C_28  and  C_51
   22  A    between atoms: C_29  and  C_37
   23  A    between atoms: C_36  and  C_38
                            x       y       z     vdW  Elec       q    Type
                         _______ _______ _______ _____ _____    ______ ____

>  <TORSDO>
F 23

$$$$
=
 OpenBabel11062414543D

 56 60  0  0  1  0  0  0  0  0999 V2000
  194.3420  177.4340  136.1690 O   0  0  0  0  0  0  0  0  0  0  0  0
  191.9300  173.6540  135.7980 C   0  0  1  0  0  3  0  0  0  0  0  0
  194.6920  174.2690  135.9970 O   0  0  0  0  0  1  0  0  0  0  0  0
  193.6970  176.4190  136.3740 C   0  0  0  0  0  0  0  0  0  0  0  0
  192.7890  176.3840  137.5810 C   0  0  2  0  0  3  0  0  0  0  0  0
  193.5510  176.3070  138.9020 C   0  0  0  0  0  2  0  0  0  0  0  0
  190.6720  176.9120  139.4370 C   0  0  1  0  0  3  0  0  0  0  0  0
  191.7140  176.8840  140.4570 N   0  0  0  0  0  2  0  0  0  0  0  0
  191.5370  175.4860  137.5060 C   0  0  1  0  0  3  0  0  0  0  0  0
  192.5770  174.7030  134.8900 C   0  0  0  0  0  2  0  0  0  0  0  0
  191.9080  174.0310  137.2780 C   0  0  0  0  0  2  0  0  0  0  0  0
  190.6410  175.5530  138.7430 C   0  0  0  0  0  2  0  0  0  0  0  0
  193.8900  175.2640  135.4310 C   0  0  2  0  0  3  0  0  0  0  0  0
  192.9730  177.3380  139.8720 C   0  0  0  0  0  2  0  0  0  0  0  0
  190.2730  173.2530  135.1950 S   0  0  2  0  0  0  0  0  0  0  0  0
  189.7580  174.5570  134.5970 O   0  0  0  0  0  0  0  0  0  0  0  0
  189.2710  173.0340  136.6890 C   0  0  0  0  0  2  0  0  0  0  0  0
  187.6170  171.9870  135.3300 O   0  0  0  0  0  0  0  0  0  0  0  0
  187.8600  172.6930  136.3450 C   0  0  0  0  0  0  0  0  0  0  0  0
  186.8260  173.1990  137.1310 O   0  0  0  0  0  0  0  0  0  0  0  0
  185.4760  172.7950  136.9690 C   0  0  0  0  0  2  0  0  0  0  0  0
  184.7050  173.9370  136.3200 C   0  0  1  0  0  3  0  0  0  0  0  0
  183.4070  173.5060  136.0300 O   0  0  0  0  0  0  0  0  0  0  0  0
  183.3670  172.1710  136.4350 C   0  0  0  0  0  1  0  0  0  0  0  0
  184.6500  175.2560  137.1300 C   0  0  1  0  0  3  0  0  0  0  0  0
  185.3290  176.4940  136.4830 C   0  0  0  0  0  0  0  0  0  0  0  0
  185.7590  177.5070  137.5330 C   0  0  0  0  0  1  0  0  0  0  0  0
  186.5580  176.0700  135.6950 C   0  0  0  0  0  1  0  0  0  0  0  0
  184.4500  177.1060  135.5890 O   0  0  0  0  0  1  0  0  0  0  0  0
  183.1910  175.5660  137.4860 C   0  0  0  0  0  2  0  0  0  0  0  0
  182.9400  175.4820  138.9840 C   0  0  0  0  0  2  0  0  0  0  0  0
  181.9570  176.5550  139.4220 C   0  0  0  0  0  2  0  0  0  0  0  0
  179.6840  176.8700  140.6290 C   0  0  1  0  0  3  0  0  0  0  0  0
  179.4920  176.6590  139.1400 C   0  0  0  0  0  2  0  0  0  0  0  0
  180.6220  175.9420  139.8460 C   0  0  1  0  0  3  0  0  0  0  0  0
  180.0740  178.6030  142.3500 C   0  0  0  0  0  2  0  0  0  0  0  0
  180.2270  178.2700  140.8810 C   0  0  0  0  0  3  0  0  0  0  0  0
  179.0920  179.1580  141.3470 C   0  0  0  0  0  2  0  0  0  0  0  0
  189.3240  177.2060  140.0810 C   0  0  0  0  0  2  0  0  0  0  0  0
  189.5110  177.9900  141.3780 C   0  0  2  0  0  3  0  0  0  0  0  0
  190.5040  177.5840  143.6590 N   0  0  0  0  0  2  0  0  0  0  0  0
  189.3350  175.9010  142.5400 O   0  0  0  0  0  0  0  0  0  0  0  0
  189.7730  177.0830  142.5400 C   0  0  0  0  0  0  0  0  0  0  0  0
  190.7530  176.7740  144.8420 C   0  0  0  0  0  2  0  0  0  0  0  0
  189.9620  177.3180  146.0180 C   0  0  0  0  0  2  0  0  0  0  0  0
  188.5490  177.6620  145.5860 C   0  0  0  0  0  1  0  0  0  0  0  0
  188.5880  180.2130  141.0510 O   0  0  0  0  0  1  0  0  0  0  0  0
  188.3520  178.9610  141.6200 C   0  0  1  0  0  3  0  0  0  0  0  0
  187.0330  178.3860  141.1340 C   0  0  0  0  0  2  0  0  0  0  0  0
  184.6060  178.2690  143.9200 C   0  0  2  0  0  3  0  0  0  0  0  0
  185.8950  178.9400  141.9750 C   0  0  1  0  0  3  0  0  0  0  0  0
  184.5560  178.4270  141.5030 C   0  0  0  0  0  2  0  0  0  0  0  0
  186.0210  178.4800  143.4080 C   0  0  0  0  0  2  0  0  0  0  0  0
  183.6750  178.4560  142.7330 C   0  0  0  0  0  2  0  0  0  0  0  0
  184.0630  178.6430  146.2180 O   0  0  0  0  0  1  0  0  0  0  0  0
  184.2920  179.2880  145.0020 C   0  0  0  0  0  2  0  0  0  0  0  0
  1  4  2  0  0  0  0
  2 15  1  6  0  0  0
  2 11  1  0  0  0  0
  4  5  1  0  0  0  0
  5  6  1  1  0  0  0
  6 14  1  0  0  0  0
  7 39  1  1  0  0  0
  7  8  1  0  0  0  0
  9 11  1  1  0  0  0
  9  5  1  0  0  0  0
  9 12  1  0  0  0  0
 10 13  1  0  0  0  0
 10  2  1  0  0  0  0
 12  7  1  0  0  0  0
 13  3  1  1  0  0  0
 13  4  1  0  0  0  0
 14  8  1  0  0  0  0
 15 16  2  6  0  0  0
 15 17  1  0  0  0  0
 18 19  2  0  0  0  0
 19 17  1  0  0  0  0
 19 20  1  0  0  0  0
 21 20  1  0  0  0  0
 22 21  1  1  0  0  0
 22 25  1  0  0  0  0
 23 22  1  0  0  0  0
 23 24  1  0  0  0  0
 25 30  1  6  0  0  0
 26 25  1  0  0  0  0
 26 27  1  0  0  0  0
 28 26  1  0  0  0  0
 29 26  1  0  0  0  0
 30 31  1  0  0  0  0
 31 32  1  0  0  0  0
 33 37  1  6  0  0  0
 34 35  1  0  0  0  0
 34 33  1  0  0  0  0
 35 32  1  6  0  0  0
 35 33  1  0  0  0  0
 37 38  1  0  0  0  0
 37 36  1  0  0  0  0
 38 36  1  0  0  0  0
 40 39  1  6  0  0  0
 40 48  1  0  0  0  0
 40 43  1  0  0  0  0
 41 44  1  0  0  0  0
 42 43  2  0  0  0  0
 43 41  1  0  0  0  0
 44 45  1  0  0  0  0
 46 45  1  0  0  0  0
 48 47  1  6  0  0  0
 49 48  1  0  0  0  0
 50 56  1  1  0  0  0
 51 49  1  6  0  0  0
 51 53  1  0  0  0  0
 52 51  1  0  0  0  0
 52 54  1  0  0  0  0
 53 50  1  0  0  0  0
 54 50  1  0  0  0  0
 56 55  1  0  0  0  0
M  END
>  <MODEL>
6

>  <REMARK>
 VINA RESULT:      -4.6      2.802      8.133
  Name = 
  23 active torsions:
  status: ('A' for Active; 'I' for Inactive)
    1  A    between atoms: C_1  and  C_15
    2  A    between atoms: C_2  and  C_47
    3  A    between atoms: S_7  and  C_17
    4  A    between atoms: S_7  and  C_51
    5  A    between atoms: C_8  and  C_27
    6  A    between atoms: C_10  and  C_38
    7  A    between atoms: C_10  and  C_40
    8  A    between atoms: C_10  and  C_50
    9  A    between atoms: C_11  and  C_26
   10  A    between atoms: C_12  and  C_22
   11  A    between atoms: C_12  and  C_37
   12  A    between atoms: C_15  and  C_29
   13  A    between atoms: C_15  and  C_31
   14  A    between atoms: C_18  and  C_31
   15  A    between atoms: C_18  and  O_34
   16  A    between atoms: O_23  and  C_31
   17  A    between atoms: C_24  and  C_54
   18  A    between atoms: N_25  and  C_54
   19  A    between atoms: C_26  and  C_50
   20  A    between atoms: C_28  and  O_34
   21  A    between atoms: C_28  and  C_51
   22  A    between atoms: C_29  and  C_37
   23  A    between atoms: C_36  and  C_38
                            x       y       z     vdW  Elec       q    Type
                         _______ _______ _______ _____ _____    ______ ____

>  <TORSDO>
F 23

$$$$
=
 OpenBabel11062414543D

 56 60  0  0  1  0  0  0  0  0999 V2000
  190.7820  179.4830  145.3440 O   0  0  0  0  0  0  0  0  0  0  0  0
  190.8780  176.4890  141.9870 C   0  0  1  0  0  3  0  0  0  0  0  0
  192.2470  176.7950  144.4530 O   0  0  0  0  0  1  0  0  0  0  0  0
  190.5980  178.5300  144.6050 C   0  0  0  0  0  0  0  0  0  0  0  0
  189.2030  177.9520  144.5210 C   0  0  2  0  0  3  0  0  0  0  0  0
  188.7900  177.2020  145.7850 C   0  0  0  0  0  2  0  0  0  0  0  0
  186.4030  177.6040  144.0280 C   0  0  1  0  0  3  0  0  0  0  0  0
  186.3550  177.0320  145.3690 N   0  0  0  0  0  2  0  0  0  0  0  0
  188.7940  177.2670  143.2010 C   0  0  1  0  0  3  0  0  0  0  0  0
  191.5390  177.8160  142.3680 C   0  0  0  0  0  2  0  0  0  0  0  0
  189.7020  176.0930  142.8780 C   0  0  0  0  0  2  0  0  0  0  0  0
  187.3500  176.7630  143.1780 C   0  0  0  0  0  2  0  0  0  0  0  0
  191.7840  177.9770  143.8660 C   0  0  2  0  0  3  0  0  0  0  0  0
  187.3870  177.6530  146.1960 C   0  0  0  0  0  2  0  0  0  0  0  0
  190.4050  176.5130  140.2420 S   0  0  2  0  0  0  0  0  0  0  0  0
  191.7040  176.8000  139.4980 O   0  0  0  0  0  0  0  0  0  0  0  0
  189.4420  178.0350  140.0400 C   0  0  0  0  0  2  0  0  0  0  0  0
  188.6860  179.2850  138.1560 O   0  0  0  0  0  0  0  0  0  0  0  0
  188.8980  178.1470  138.6550 C   0  0  0  0  0  0  0  0  0  0  0  0
  188.5890  176.9860  137.9480 O   0  0  0  0  0  0  0  0  0  0  0  0
  187.2650  176.6530  137.5650 C   0  0  0  0  0  2  0  0  0  0  0  0
  187.2800  176.2160  136.1050 C   0  0  1  0  0  3  0  0  0  0  0  0
  188.5990  175.9550  135.7200 O   0  0  0  0  0  0  0  0  0  0  0  0
  188.9350  176.9900  134.8450 C   0  0  0  0  0  1  0  0  0  0  0  0
  186.3830  175.0030  135.7590 C   0  0  1  0  0  3  0  0  0  0  0  0
  186.7850  173.6420  136.3910 C   0  0  0  0  0  0  0  0  0  0  0  0
  186.4090  172.4760  135.4890 C   0  0  0  0  0  1  0  0  0  0  0  0
  188.2850  173.5950  136.6330 C   0  0  0  0  0  1  0  0  0  0  0  0
  186.1570  173.4870  137.6260 O   0  0  0  0  0  1  0  0  0  0  0  0
  184.9260  175.3440  136.0940 C   0  0  0  0  0  2  0  0  0  0  0  0
  183.9460  174.4600  135.3390 C   0  0  0  0  0  2  0  0  0  0  0  0
  182.7660  174.0930  136.2240 C   0  0  0  0  0  2  0  0  0  0  0  0
  181.5660  171.9170  136.9650 C   0  0  1  0  0  3  0  0  0  0  0  0
  182.3680  171.6990  135.6970 C   0  0  0  0  0  2  0  0  0  0  0  0
  182.8900  172.6600  136.7430 C   0  0  1  0  0  3  0  0  0  0  0  0
  179.4980  172.8950  137.9090 C   0  0  0  0  0  2  0  0  0  0  0  0
  180.3140  172.7240  136.6450 C   0  0  0  0  0  3  0  0  0  0  0  0
  179.0970  171.8560  136.8900 C   0  0  0  0  0  2  0  0  0  0  0  0
  185.0080  177.6100  143.4170 C   0  0  0  0  0  2  0  0  0  0  0  0
  184.6460  179.0090  142.9260 C   0  0  2  0  0  3  0  0  0  0  0  0
  182.1610  178.6810  143.1970 N   0  0  0  0  0  2  0  0  0  0  0  0
  183.2450  180.5050  144.1700 O   0  0  0  0  0  0  0  0  0  0  0  0
  183.3250  179.4610  143.4670 C   0  0  0  0  0  0  0  0  0  0  0  0
  180.8550  179.0340  143.7310 C   0  0  0  0  0  2  0  0  0  0  0  0
  180.1090  179.9120  142.7430 C   0  0  0  0  0  2  0  0  0  0  0  0
  178.9430  179.1500  142.1400 C   0  0  0  0  0  1  0  0  0  0  0  0
  185.9930  179.5610  140.9810 O   0  0  0  0  0  1  0  0  0  0  0  0
  184.7400  179.1120  141.4020 C   0  0  1  0  0  3  0  0  0  0  0  0
  184.3850  177.7950  140.7320 C   0  0  0  0  0  2  0  0  0  0  0  0
  182.1230  177.1390  137.8830 C   0  0  2  0  0  3  0  0  0  0  0  0
  183.0860  177.9510  139.9580 C   0  0  1  0  0  3  0  0  0  0  0  0
  183.1850  179.0500  138.9270 C   0  0  0  0  0  2  0  0  0  0  0  0
  182.7790  176.6940  139.1800 C   0  0  0  0  0  2  0  0  0  0  0  0
  182.2010  178.6570  137.8470 C   0  0  0  0  0  2  0  0  0  0  0  0
  179.8240  177.7790  138.0090 O   0  0  0  0  0  1  0  0  0  0  0  0
  180.6750  176.6840  137.8530 C   0  0  0  0  0  2  0  0  0  0  0  0
  2 15  1  6  0  0  0
  2 10  1  0  0  0  0
  2 11  1  0  0  0  0
  4  1  2  0  0  0  0
  5  4  1  0  0  0  0
  5  6  1  1  0  0  0
  6 14  1  0  0  0  0
  7 39  1  6  0  0  0
  7  8  1  0  0  0  0
  8 14  1  0  0  0  0
  9 11  1  1  0  0  0
  9  5  1  0  0  0  0
 10 13  1  0  0  0  0
 12  9  1  0  0  0  0
 12  7  1  0  0  0  0
 13  3  1  1  0  0  0
 13  4  1  0  0  0  0
 15 16  2  6  0  0  0
 17 15  1  0  0  0  0
 18 19  2  0  0  0  0
 19 17  1  0  0  0  0
 20 19  1  0  0  0  0
 21 20  1  0  0  0  0
 22 21  1  1  0  0  0
 23 22  1  0  0  0  0
 24 23  1  0  0  0  0
 25 30  1  1  0  0  0
 25 22  1  0  0  0  0
 25 26  1  0  0  0  0
 26 28  1  0  0  0  0
 26 29  1  0  0  0  0
 27 26  1  0  0  0  0
 31 30  1  0  0  0  0
 31 32  1  0  0  0  0
 33 37  1  6  0  0  0
 34 35  1  0  0  0  0
 34 33  1  0  0  0  0
 35 32  1  6  0  0  0
 35 33  1  0  0  0  0
 37 38  1  0  0  0  0
 37 36  1  0  0  0  0
 38 36  1  0  0  0  0
 40 39  1  6  0  0  0
 40 43  1  0  0  0  0
 41 43  1  0  0  0  0
 41 44  1  0  0  0  0
 43 42  2  0  0  0  0
 45 44  1  0  0  0  0
 46 45  1  0  0  0  0
 48 47  1  1  0  0  0
 48 40  1  0  0  0  0
 49 48  1  0  0  0  0
 50 56  1  1  0  0  0
 50 53  1  0  0  0  0
 51 49  1  6  0  0  0
 52 51  1  0  0  0  0
 53 51  1  0  0  0  0
 54 50  1  0  0  0  0
 54 52  1  0  0  0  0
 56 55  1  0  0  0  0
M  END
>  <MODEL>
7

>  <REMARK>
 VINA RESULT:      -4.5      3.058      7.737
  Name = 
  23 active torsions:
  status: ('A' for Active; 'I' for Inactive)
    1  A    between atoms: C_1  and  C_15
    2  A    between atoms: C_2  and  C_47
    3  A    between atoms: S_7  and  C_17
    4  A    between atoms: S_7  and  C_51
    5  A    between atoms: C_8  and  C_27
    6  A    between atoms: C_10  and  C_38
    7  A    between atoms: C_10  and  C_40
    8  A    between atoms: C_10  and  C_50
    9  A    between atoms: C_11  and  C_26
   10  A    between atoms: C_12  and  C_22
   11  A    between atoms: C_12  and  C_37
   12  A    between atoms: C_15  and  C_29
   13  A    between atoms: C_15  and  C_31
   14  A    between atoms: C_18  and  C_31
   15  A    between atoms: C_18  and  O_34
   16  A    between atoms: O_23  and  C_31
   17  A    between atoms: C_24  and  C_54
   18  A    between atoms: N_25  and  C_54
   19  A    between atoms: C_26  and  C_50
   20  A    between atoms: C_28  and  O_34
   21  A    between atoms: C_28  and  C_51
   22  A    between atoms: C_29  and  C_37
   23  A    between atoms: C_36  and  C_38
                            x       y       z     vdW  Elec       q    Type
                         _______ _______ _______ _____ _____    ______ ____

>  <TORSDO>
F 23

$$$$
=
 OpenBabel11062414543D

 56 60  0  0  1  0  0  0  0  0999 V2000
  192.1550  177.8090  140.4040 O   0  0  0  0  0  0  0  0  0  0  0  0
  189.1720  176.4480  137.3230 C   0  0  1  0  0  3  0  0  0  0  0  0
  191.3740  175.2580  138.6590 O   0  0  0  0  0  1  0  0  0  0  0  0
  191.1900  177.3500  139.8160 C   0  0  0  0  0  0  0  0  0  0  0  0
  189.8300  177.4870  140.4630 C   0  0  2  0  0  3  0  0  0  0  0  0
  189.6580  176.5910  141.6870 C   0  0  0  0  0  2  0  0  0  0  0  0
  187.4050  178.5530  141.5520 C   0  0  1  0  0  3  0  0  0  0  0  0
  187.6260  177.6230  142.6540 N   0  0  0  0  0  2  0  0  0  0  0  0
  188.6010  177.5510  139.5330 C   0  0  1  0  0  3  0  0  0  0  0  0
  190.5350  177.1430  137.3810 C   0  0  0  0  0  2  0  0  0  0  0  0
  188.4830  176.3010  138.6790 C   0  0  0  0  0  2  0  0  0  0  0  0
  187.2720  177.7490  140.2630 C   0  0  0  0  0  2  0  0  0  0  0  0
  191.4340  176.6470  138.5100 C   0  0  2  0  0  3  0  0  0  0  0  0
  189.0620  177.4150  142.8290 C   0  0  0  0  0  2  0  0  0  0  0  0
  188.1030  177.2820  136.1270 S   0  0  2  0  0  0  0  0  0  0  0  0
  189.0290  178.2490  135.3980 O   0  0  0  0  0  0  0  0  0  0  0  0
  187.0410  178.3620  137.1210 C   0  0  0  0  0  2  0  0  0  0  0  0
  184.8250  178.3260  138.0000 O   0  0  0  0  0  0  0  0  0  0  0  0
  185.6430  177.8420  137.1720 C   0  0  0  0  0  0  0  0  0  0  0  0
  185.2750  176.7950  136.3290 O   0  0  0  0  0  0  0  0  0  0  0  0
  184.8920  175.5190  136.8180 C   0  0  0  0  0  2  0  0  0  0  0  0
  184.6790  174.5910  135.6290 C   0  0  1  0  0  3  0  0  0  0  0  0
  185.6610  173.5960  135.6440 O   0  0  0  0  0  0  0  0  0  0  0  0
  186.6790  174.0760  134.8180 C   0  0  0  0  0  1  0  0  0  0  0  0
  183.2770  173.9420  135.5270 C   0  0  1  0  0  3  0  0  0  0  0  0
  183.1700  172.4540  135.9600 C   0  0  0  0  0  0  0  0  0  0  0  0
  183.9700  172.1830  137.2250 C   0  0  0  0  0  1  0  0  0  0  0  0
  181.7190  172.0840  136.2230 C   0  0  0  0  0  1  0  0  0  0  0  0
  183.6330  171.6260  134.9380 O   0  0  0  0  0  1  0  0  0  0  0  0
  182.2680  174.8010  136.2990 C   0  0  0  0  0  2  0  0  0  0  0  0
  181.5210  175.7620  135.3850 C   0  0  0  0  0  2  0  0  0  0  0  0
  180.8640  176.8670  136.1960 C   0  0  0  0  0  2  0  0  0  0  0  0
  181.4320  178.0020  138.4570 C   0  0  1  0  0  3  0  0  0  0  0  0
  180.0560  177.3680  138.4900 C   0  0  0  0  0  2  0  0  0  0  0  0
  181.1540  176.7030  137.6880 C   0  0  1  0  0  3  0  0  0  0  0  0
  181.7360  180.4570  138.4880 C   0  0  0  0  0  2  0  0  0  0  0  0
  181.3910  179.2700  137.6140 C   0  0  0  0  0  3  0  0  0  0  0  0
  180.2940  180.1720  138.1410 C   0  0  0  0  0  2  0  0  0  0  0  0
  186.1400  179.3620  141.8040 C   0  0  0  0  0  2  0  0  0  0  0  0
  185.2050  178.6130  142.7500 C   0  0  2  0  0  3  0  0  0  0  0  0
  182.7130  178.9390  142.5610 N   0  0  0  0  0  2  0  0  0  0  0  0
  183.8450  177.4740  141.1390 O   0  0  0  0  0  0  0  0  0  0  0  0
  183.8970  178.2910  142.0980 C   0  0  0  0  0  0  0  0  0  0  0  0
  181.4170  178.7110  141.9420 C   0  0  0  0  0  2  0  0  0  0  0  0
  180.3150  178.8530  142.9760 C   0  0  0  0  0  2  0  0  0  0  0  0
  179.6740  180.2250  142.8740 C   0  0  0  0  0  1  0  0  0  0  0  0
  183.8830  180.1140  144.1290 O   0  0  0  0  0  1  0  0  0  0  0  0
  185.0490  179.3480  144.0840 C   0  0  1  0  0  3  0  0  0  0  0  0
  185.1110  178.3870  145.2590 C   0  0  0  0  0  2  0  0  0  0  0  0
  188.0650  177.2240  147.1520 C   0  0  2  0  0  3  0  0  0  0  0  0
  186.4120  178.5930  146.0170 C   0  0  1  0  0  3  0  0  0  0  0  0
  186.1770  178.7010  147.5050 C   0  0  0  0  0  2  0  0  0  0  0  0
  187.3240  177.4020  145.8380 C   0  0  0  0  0  2  0  0  0  0  0  0
  187.4630  178.2150  148.1360 C   0  0  0  0  0  2  0  0  0  0  0  0
  190.3010  176.3940  147.3070 O   0  0  0  0  0  1  0  0  0  0  0  0
  189.5430  177.5110  146.9540 C   0  0  0  0  0  2  0  0  0  0  0  0
  2 15  1  6  0  0  0
  2 10  1  0  0  0  0
  2 11  1  0  0  0  0
  4  1  2  0  0  0  0
  4  5  1  0  0  0  0
  5  6  1  1  0  0  0
  6 14  1  0  0  0  0
  7 39  1  1  0  0  0
  7  8  1  0  0  0  0
  8 14  1  0  0  0  0
  9 11  1  1  0  0  0
  9 12  1  0  0  0  0
  9  5  1  0  0  0  0
 10 13  1  0  0  0  0
 12  7  1  0  0  0  0
 13  3  1  1  0  0  0
 13  4  1  0  0  0  0
 15 16  2  6  0  0  0
 15 17  1  0  0  0  0
 17 19  1  0  0  0  0
 19 18  2  0  0  0  0
 20 21  1  0  0  0  0
 20 19  1  0  0  0  0
 22 23  1  0  0  0  0
 22 21  1  1  0  0  0
 24 23  1  0  0  0  0
 25 22  1  0  0  0  0
 25 26  1  0  0  0  0
 25 30  1  1  0  0  0
 26 28  1  0  0  0  0
 26 27  1  0  0  0  0
 29 26  1  0  0  0  0
 31 32  1  0  0  0  0
 31 30  1  0  0  0  0
 33 37  1  6  0  0  0
 33 34  1  0  0  0  0
 35 32  1  6  0  0  0
 35 33  1  0  0  0  0
 35 34  1  0  0  0  0
 37 38  1  0  0  0  0
 37 36  1  0  0  0  0
 38 36  1  0  0  0  0
 40 39  1  6  0  0  0
 40 48  1  0  0  0  0
 42 43  2  0  0  0  0
 43 41  1  0  0  0  0
 43 40  1  0  0  0  0
 44 41  1  0  0  0  0
 44 45  1  0  0  0  0
 46 45  1  0  0  0  0
 48 47  1  6  0  0  0
 48 49  1  0  0  0  0
 50 56  1  6  0  0  0
 50 54  1  0  0  0  0
 51 49  1  6  0  0  0
 51 52  1  0  0  0  0
 52 54  1  0  0  0  0
 53 51  1  0  0  0  0
 53 50  1  0  0  0  0
 56 55  1  0  0  0  0
M  END
>  <MODEL>
8

>  <REMARK>
 VINA RESULT:      -4.5      2.866      7.579
  Name = 
  23 active torsions:
  status: ('A' for Active; 'I' for Inactive)
    1  A    between atoms: C_1  and  C_15
    2  A    between atoms: C_2  and  C_47
    3  A    between atoms: S_7  and  C_17
    4  A    between atoms: S_7  and  C_51
    5  A    between atoms: C_8  and  C_27
    6  A    between atoms: C_10  and  C_38
    7  A    between atoms: C_10  and  C_40
    8  A    between atoms: C_10  and  C_50
    9  A    between atoms: C_11  and  C_26
   10  A    between atoms: C_12  and  C_22
   11  A    between atoms: C_12  and  C_37
   12  A    between atoms: C_15  and  C_29
   13  A    between atoms: C_15  and  C_31
   14  A    between atoms: C_18  and  C_31
   15  A    between atoms: C_18  and  O_34
   16  A    between atoms: O_23  and  C_31
   17  A    between atoms: C_24  and  C_54
   18  A    between atoms: N_25  and  C_54
   19  A    between atoms: C_26  and  C_50
   20  A    between atoms: C_28  and  O_34
   21  A    between atoms: C_28  and  C_51
   22  A    between atoms: C_29  and  C_37
   23  A    between atoms: C_36  and  C_38
                            x       y       z     vdW  Elec       q    Type
                         _______ _______ _______ _____ _____    ______ ____

>  <TORSDO>
F 23

$$$$
=
 OpenBabel11062414543D

 56 60  0  0  1  0  0  0  0  0999 V2000
  190.9680  176.1270  143.0320 O   0  0  0  0  0  0  0  0  0  0  0  0
  187.8820  178.4580  140.7330 C   0  0  1  0  0  3  0  0  0  0  0  0
  189.5630  178.9880  142.9560 O   0  0  0  0  0  1  0  0  0  0  0  0
  190.3750  176.8460  142.2450 C   0  0  0  0  0  0  0  0  0  0  0  0
  190.8760  176.9100  140.8210 C   0  0  2  0  0  3  0  0  0  0  0  0
  192.2010  177.6560  140.6860 C   0  0  0  0  0  2  0  0  0  0  0  0
  191.5840  176.2320  138.1290 C   0  0  1  0  0  3  0  0  0  0  0  0
  192.8270  176.9460  138.3980 N   0  0  0  0  0  2  0  0  0  0  0  0
  189.8460  177.2190  139.7150 C   0  0  1  0  0  3  0  0  0  0  0  0
  187.9520  177.4970  141.9220 C   0  0  0  0  0  2  0  0  0  0  0  0
  189.1810  178.5670  139.9360 C   0  0  0  0  0  2  0  0  0  0  0  0
  190.4220  177.2060  138.2990 C   0  0  0  0  0  2  0  0  0  0  0  0
  189.2150  177.6470  142.7670 C   0  0  2  0  0  3  0  0  0  0  0  0
  193.1520  176.8310  139.8180 C   0  0  0  0  0  2  0  0  0  0  0  0
  186.4880  178.0220  139.6670 S   0  0  2  0  0  0  0  0  0  0  0  0
  186.7490  178.7780  138.3690 O   0  0  0  0  0  0  0  0  0  0  0  0
  185.0620  178.8760  140.3890 C   0  0  0  0  0  2  0  0  0  0  0  0
  184.2920  180.5680  138.8970 O   0  0  0  0  0  0  0  0  0  0  0  0
  184.1500  179.3910  139.3270 C   0  0  0  0  0  0  0  0  0  0  0  0
  183.1230  178.5750  138.8560 O   0  0  0  0  0  0  0  0  0  0  0  0
  182.4950  177.5930  139.6640 C   0  0  0  0  0  2  0  0  0  0  0  0
  181.0200  177.5310  139.2900 C   0  0  1  0  0  3  0  0  0  0  0  0
  180.4880  176.3130  139.7250 O   0  0  0  0  0  0  0  0  0  0  0  0
  181.4820  175.3680  139.4650 C   0  0  0  0  0  1  0  0  0  0  0  0
  180.1460  178.6990  139.8080 C   0  0  1  0  0  3  0  0  0  0  0  0
  180.2820  179.0490  141.3160 C   0  0  0  0  0  0  0  0  0  0  0  0
  179.6580  180.4000  141.6340 C   0  0  0  0  0  1  0  0  0  0  0  0
  179.5960  177.9930  142.1670 C   0  0  0  0  0  1  0  0  0  0  0  0
  181.6280  179.0690  141.6800 O   0  0  0  0  0  1  0  0  0  0  0  0
  180.4010  179.9390  138.9430 C   0  0  0  0  0  2  0  0  0  0  0  0
  179.4160  180.0390  137.7870 C   0  0  0  0  0  2  0  0  0  0  0  0
  180.0090  180.8550  136.6500 C   0  0  0  0  0  2  0  0  0  0  0  0
  179.3610  183.2900  136.0380 C   0  0  1  0  0  3  0  0  0  0  0  0
  179.5270  182.4360  134.7960 C   0  0  0  0  0  2  0  0  0  0  0  0
  178.9700  181.8060  136.0540 C   0  0  1  0  0  3  0  0  0  0  0  0
  180.6140  184.8130  137.5320 C   0  0  0  0  0  2  0  0  0  0  0  0
  180.7280  183.6020  136.6300 C   0  0  0  0  0  3  0  0  0  0  0  0
  181.1760  184.9630  136.1390 C   0  0  0  0  0  2  0  0  0  0  0  0
  191.6030  175.6740  136.7120 C   0  0  0  0  0  2  0  0  0  0  0  0
  191.7730  174.1570  136.7370 C   0  0  2  0  0  3  0  0  0  0  0  0
  194.1040  173.3820  137.3040 N   0  0  0  0  0  2  0  0  0  0  0  0
  193.4500  173.7040  135.0860 O   0  0  0  0  0  0  0  0  0  0  0  0
  193.1480  173.7470  136.3090 C   0  0  0  0  0  0  0  0  0  0  0  0
  195.4410  172.9260  136.9570 C   0  0  0  0  0  2  0  0  0  0  0  0
  196.4770  173.8950  137.5000 C   0  0  0  0  0  2  0  0  0  0  0  0
  197.6400  174.0140  136.5330 C   0  0  0  0  0  1  0  0  0  0  0  0
  191.1310  172.3280  135.2730 O   0  0  0  0  0  1  0  0  0  0  0  0
  190.6620  173.4540  135.9530 C   0  0  1  0  0  3  0  0  0  0  0  0
  189.4900  173.0950  136.8500 C   0  0  0  0  0  2  0  0  0  0  0  0
  186.6580  175.4700  136.8620 C   0  0  2  0  0  3  0  0  0  0  0  0
  188.2140  173.6990  136.2860 C   0  0  1  0  0  3  0  0  0  0  0  0
  186.9860  173.0700  136.8990 C   0  0  0  0  0  2  0  0  0  0  0  0
  188.1280  175.1680  136.6250 C   0  0  0  0  0  2  0  0  0  0  0  0
  185.9210  174.1410  136.8160 C   0  0  0  0  0  2  0  0  0  0  0  0
  184.9380  176.9830  136.1790 O   0  0  0  0  0  1  0  0  0  0  0  0
  186.1400  176.3980  135.7780 C   0  0  0  0  0  2  0  0  0  0  0  0
  2 15  1  6  0  0  0
  2 10  1  0  0  0  0
  4 13  1  0  0  0  0
  4  1  2  0  0  0  0
  5  6  1  1  0  0  0
  5  4  1  0  0  0  0
  7 39  1  6  0  0  0
  7 12  1  0  0  0  0
  7  8  1  0  0  0  0
  8 14  1  0  0  0  0
  9 12  1  6  0  0  0
  9 11  1  0  0  0  0
  9  5  1  0  0  0  0
 10 13  1  0  0  0  0
 11  2  1  0  0  0  0
 13  3  1  6  0  0  0
 14  6  1  0  0  0  0
 15 16  2  6  0  0  0
 15 17  1  0  0  0  0
 18 19  2  0  0  0  0
 19 17  1  0  0  0  0
 20 19  1  0  0  0  0
 20 21  1  0  0  0  0
 22 21  1  1  0  0  0
 22 23  1  0  0  0  0
 22 25  1  0  0  0  0
 24 23  1  0  0  0  0
 25 30  1  6  0  0  0
 25 26  1  0  0  0  0
 26 27  1  0  0  0  0
 26 29  1  0  0  0  0
 26 28  1  0  0  0  0
 31 30  1  0  0  0  0
 32 31  1  0  0  0  0
 33 35  1  0  0  0  0
 33 37  1  1  0  0  0
 34 33  1  0  0  0  0
 34 35  1  0  0  0  0
 35 32  1  1  0  0  0
 37 36  1  0  0  0  0
 38 37  1  0  0  0  0
 38 36  1  0  0  0  0
 40 39  1  6  0  0  0
 42 43  2  0  0  0  0
 43 40  1  0  0  0  0
 43 41  1  0  0  0  0
 44 41  1  0  0  0  0
 44 45  1  0  0  0  0
 46 45  1  0  0  0  0
 48 47  1  1  0  0  0
 48 40  1  0  0  0  0
 48 49  1  0  0  0  0
 50 56  1  6  0  0  0
 51 53  1  0  0  0  0
 51 49  1  1  0  0  0
 51 52  1  0  0  0  0
 53 50  1  0  0  0  0
 54 50  1  0  0  0  0
 54 52  1  0  0  0  0
 56 55  1  0  0  0  0
M  END
>  <MODEL>
9

>  <REMARK>
 VINA RESULT:      -4.4      2.709      5.636
  Name = 
  23 active torsions:
  status: ('A' for Active; 'I' for Inactive)
    1  A    between atoms: C_1  and  C_15
    2  A    between atoms: C_2  and  C_47
    3  A    between atoms: S_7  and  C_17
    4  A    between atoms: S_7  and  C_51
    5  A    between atoms: C_8  and  C_27
    6  A    between atoms: C_10  and  C_38
    7  A    between atoms: C_10  and  C_40
    8  A    between atoms: C_10  and  C_50
    9  A    between atoms: C_11  and  C_26
   10  A    between atoms: C_12  and  C_22
   11  A    between atoms: C_12  and  C_37
   12  A    between atoms: C_15  and  C_29
   13  A    between atoms: C_15  and  C_31
   14  A    between atoms: C_18  and  C_31
   15  A    between atoms: C_18  and  O_34
   16  A    between atoms: O_23  and  C_31
   17  A    between atoms: C_24  and  C_54
   18  A    between atoms: N_25  and  C_54
   19  A    between atoms: C_26  and  C_50
   20  A    between atoms: C_28  and  O_34
   21  A    between atoms: C_28  and  C_51
   22  A    between atoms: C_29  and  C_37
   23  A    between atoms: C_36  and  C_38
                            x       y       z     vdW  Elec       q    Type
                         _______ _______ _______ _____ _____    ______ ____

>  <TORSDO>
F 23

$$$$
