=
 OpenBabel11062412423D

 32 34  0  0  1  0  0  0  0  0999 V2000
  189.1010  177.4870  141.5850 C   0  0  1  0  0  3  0  0  0  0  0  0
  187.2980  178.7980  139.3550 O   0  0  0  0  0  0  0  0  0  0  0  0
  188.4460  177.5980  138.7790 S   0  0  0  0  0  0  0  0  0  0  0  0
  187.4330  179.1700  141.7370 O   0  0  0  0  0  0  0  0  0  0  0  0
  188.6700  178.7140  142.0870 O   0  0  0  0  0  0  0  0  0  0  0  0
  190.9940  177.4330  140.0170 O   0  0  0  0  0  0  0  0  0  0  0  0
  186.4450  178.1720  141.5710 C   0  0  2  0  0  3  0  0  0  0  0  0
  189.7440  177.5340  140.1390 C   0  0  0  0  0  0  0  0  0  0  0  0
  186.2410  178.1220  140.0230 C   0  0  1  0  0  3  0  0  0  0  0  0
  183.0040  177.0960  136.8130 C   0  0  0  0  0  2  0  0  0  0  0  0
  183.9810  177.7880  139.0330 N   0  0  0  0  0  0  0  0  0  0  0  0
  184.9820  178.6780  139.4730 C   0  0  0  0  0  0  0  0  0  0  0  0
  181.5580  176.9740  138.9010 C   0  0  1  0  0  3  0  0  0  0  0  0
  184.6760  179.9720  139.4570 O   0  0  0  0  0  0  0  0  0  0  0  0
  184.2080  177.4320  137.7000 C   0  0  0  0  0  2  0  0  0  0  0  0
  182.3650  174.7630  137.6760 C   0  0  0  0  0  1  0  0  0  0  0  0
  182.0650  176.2710  137.6840 C   0  0  2  0  0  3  0  0  0  0  0  0
  182.6490  177.8570  139.7500 C   0  0  0  0  0  2  0  0  0  0  0  0
  180.0820  177.5660  138.7900 C   0  0  0  0  0  1  0  0  0  0  0  0
  185.1420  178.7830  145.0010 C   0  0  0  0  0  2  0  0  0  0  0  0
  185.2910  178.3440  142.5590 N   0  0  0  0  0  0  0  0  0  0  0  0
  184.8110  179.6470  142.8480 C   0  0  0  0  0  2  0  0  0  0  0  0
  184.1730  179.6890  144.2350 C   0  0  0  0  0  2  0  0  0  0  0  0
  185.6120  177.7630  143.9630 C   0  0  0  0  0  2  0  0  0  0  0  0
  190.5760  175.4770  142.9340 C   0  0  0  0  0  1  0  0  0  0  0  0
  190.0350  176.8890  142.7270 C   0  0  2  0  0  3  0  0  0  0  0  0
  190.2340  177.6360  144.0300 N   0  0  0  0  0  2  0  0  0  0  0  0
  188.7080  178.0790  145.6320 O   0  0  0  0  0  1  0  0  0  0  0  0
  189.6110  177.1370  145.2190 C   0  0  2  0  0  3  0  0  0  0  0  0
  190.6360  177.1070  146.3150 C   0  0  0  0  0  0  0  0  0  0  0  0
  191.8520  177.1120  146.0260 O   0  0  0  0  0  0  0  0  0  0  0  0
  190.3110  177.1770  147.7560 O   0  0  0  0  0  1  0  0  0  0  0  0
  1  5  1  0  0  0  0
  1 26  1  1  0  0  0
  2  9  1  0  0  0  0
  3  2  1  0  0  0  0
  3  8  1  0  0  0  0
  4  5  1  0  0  0  0
  6  8  2  0  0  0  0
  7  4  1  0  0  0  0
  7 21  1  1  0  0  0
  8  1  1  0  0  0  0
  9 12  1  1  0  0  0
  9  7  1  0  0  0  0
 10 17  1  0  0  0  0
 10 15  1  0  0  0  0
 11 12  1  0  0  0  0
 11 18  1  0  0  0  0
 13 19  1  6  0  0  0
 13 18  1  0  0  0  0
 14 12  2  0  0  0  0
 15 11  1  0  0  0  0
 17 16  1  1  0  0  0
 17 13  1  0  0  0  0
 21 22  1  0  0  0  0
 21 24  1  0  0  0  0
 22 23  1  0  0  0  0
 23 20  1  0  0  0  0
 24 20  1  0  0  0  0
 26 25  1  1  0  0  0
 26 27  1  0  0  0  0
 27 29  1  0  0  0  0
 29 28  1  1  0  0  0
 29 30  1  0  0  0  0
 30 32  1  0  0  0  0
 31 30  2  0  0  0  0
M  END
>  <MODEL>
1

>  <REMARK>
 VINA RESULT:      -7.2      0.000      0.000
  Name = 
  6 active torsions:
  status: ('A' for Active; 'I' for Inactive)
    1  A    between atoms: C_4  and  C_27
    2  A    between atoms: C_5  and  C_29
    3  A    between atoms: C_10  and  C_25
    4  A    between atoms: N_11  and  C_18
    5  A    between atoms: N_21  and  C_27
    6  A    between atoms: N_21  and  C_29
                            x       y       z     vdW  Elec       q    Type
                         _______ _______ _______ _____ _____    ______ ____

>  <TORSDO>
F 6

$$$$
=
 OpenBabel11062412423D

 32 34  0  0  1  0  0  0  0  0999 V2000
  186.2910  178.1590  143.6690 C   0  0  1  0  0  3  0  0  0  0  0  0
  186.4140  177.9890  140.5230 O   0  0  0  0  0  0  0  0  0  0  0  0
  185.1560  179.0350  141.1670 S   0  0  0  0  0  0  0  0  0  0  0  0
  187.7120  176.9010  142.2430 O   0  0  0  0  0  0  0  0  0  0  0  0
  186.9260  176.9580  143.3560 O   0  0  0  0  0  0  0  0  0  0  0  0
  183.8380  178.2790  143.5630 O   0  0  0  0  0  0  0  0  0  0  0  0
  188.4180  178.0870  141.9380 C   0  0  2  0  0  3  0  0  0  0  0  0
  184.9170  178.4130  142.9260 C   0  0  0  0  0  0  0  0  0  0  0  0
  187.6660  178.6400  140.6860 C   0  0  1  0  0  3  0  0  0  0  0  0
  188.9520  175.4260  137.5470 C   0  0  0  0  0  2  0  0  0  0  0  0
  187.9550  177.5540  138.4640 N   0  0  0  0  0  0  0  0  0  0  0  0
  188.3510  178.5550  139.3740 C   0  0  0  0  0  0  0  0  0  0  0  0
  187.2890  176.7300  136.1330 C   0  0  1  0  0  3  0  0  0  0  0  0
  189.2540  179.4290  138.9400 O   0  0  0  0  0  0  0  0  0  0  0  0
  188.6580  176.3710  138.7170 C   0  0  0  0  0  2  0  0  0  0  0  0
  186.6470  174.3650  137.1490 C   0  0  0  0  0  1  0  0  0  0  0  0
  187.6850  175.4060  136.7000 C   0  0  2  0  0  3  0  0  0  0  0  0
  187.3990  178.0240  137.1360 C   0  0  0  0  0  2  0  0  0  0  0  0
  187.6740  176.9690  134.6050 C   0  0  0  0  0  1  0  0  0  0  0  0
  191.6440  177.8750  143.7770 C   0  0  0  0  0  2  0  0  0  0  0  0
  189.9320  177.8750  141.9760 N   0  0  0  0  0  0  0  0  0  0  0  0
  190.4460  176.5800  142.2360 C   0  0  0  0  0  2  0  0  0  0  0  0
  191.8400  176.6700  142.8540 C   0  0  0  0  0  2  0  0  0  0  0  0
  190.6340  178.7580  143.0430 C   0  0  0  0  0  2  0  0  0  0  0  0
  185.5690  179.1690  146.2170 C   0  0  0  0  0  1  0  0  0  0  0  0
  186.2200  178.1760  145.2590 C   0  0  2  0  0  3  0  0  0  0  0  0
  187.1550  177.3140  146.0820 N   0  0  0  0  0  2  0  0  0  0  0  0
  189.2870  176.7230  145.6370 O   0  0  0  0  0  1  0  0  0  0  0  0
  188.5270  177.7050  146.2110 C   0  0  2  0  0  3  0  0  0  0  0  0
  188.9000  177.6550  147.6640 C   0  0  0  0  0  0  0  0  0  0  0  0
  190.0920  177.4660  147.9920 O   0  0  0  0  0  0  0  0  0  0  0  0
  187.9570  177.9220  148.7710 O   0  0  0  0  0  1  0  0  0  0  0  0
  1 26  1  1  0  0  0
  2  9  1  0  0  0  0
  2  3  1  0  0  0  0
  3  8  1  0  0  0  0
  4  5  1  0  0  0  0
  5  1  1  0  0  0  0
  7 21  1  6  0  0  0
  7  4  1  0  0  0  0
  8  6  2  0  0  0  0
  8  1  1  0  0  0  0
  9 12  1  6  0  0  0
  9  7  1  0  0  0  0
 10 15  1  0  0  0  0
 11 15  1  0  0  0  0
 11 12  1  0  0  0  0
 13 19  1  6  0  0  0
 13 17  1  0  0  0  0
 13 18  1  0  0  0  0
 14 12  2  0  0  0  0
 17 16  1  1  0  0  0
 17 10  1  0  0  0  0
 18 11  1  0  0  0  0
 21 22  1  0  0  0  0
 21 24  1  0  0  0  0
 22 23  1  0  0  0  0
 23 20  1  0  0  0  0
 24 20  1  0  0  0  0
 26 27  1  0  0  0  0
 26 25  1  1  0  0  0
 27 29  1  0  0  0  0
 29 28  1  6  0  0  0
 29 30  1  0  0  0  0
 30 31  2  0  0  0  0
 30 32  1  0  0  0  0
M  END
>  <MODEL>
2

>  <REMARK>
 VINA RESULT:      -7.1      3.000      4.914
  Name = 
  6 active torsions:
  status: ('A' for Active; 'I' for Inactive)
    1  A    between atoms: C_4  and  C_27
    2  A    between atoms: C_5  and  C_29
    3  A    between atoms: C_10  and  C_25
    4  A    between atoms: N_11  and  C_18
    5  A    between atoms: N_21  and  C_27
    6  A    between atoms: N_21  and  C_29
                            x       y       z     vdW  Elec       q    Type
                         _______ _______ _______ _____ _____    ______ ____

>  <TORSDO>
F 6

$$$$
=
 OpenBabel11062412423D

 32 34  0  0  1  0  0  0  0  0999 V2000
  186.6210  178.0410  145.5920 C   0  0  1  0  0  3  0  0  0  0  0  0
  184.6320  178.2570  143.1550 O   0  0  0  0  0  0  0  0  0  0  0  0
  184.3370  179.3920  144.4650 S   0  0  0  0  0  0  0  0  0  0  0  0
  186.4870  176.7730  143.5900 O   0  0  0  0  0  0  0  0  0  0  0  0
  186.6450  176.8070  144.9440 O   0  0  0  0  0  0  0  0  0  0  0  0
  184.7770  178.5460  147.1380 O   0  0  0  0  0  0  0  0  0  0  0  0
  187.0420  177.8670  142.8880 C   0  0  2  0  0  3  0  0  0  0  0  0
  185.1810  178.5940  145.9450 C   0  0  0  0  0  0  0  0  0  0  0  0
  185.7860  178.6840  142.4450 C   0  0  1  0  0  3  0  0  0  0  0  0
  182.5180  176.8770  139.6350 C   0  0  0  0  0  2  0  0  0  0  0  0
  184.0550  178.5960  140.6560 N   0  0  0  0  0  0  0  0  0  0  0  0
  185.4180  178.6630  141.0090 C   0  0  0  0  0  0  0  0  0  0  0  0
  182.0130  179.3480  139.3080 C   0  0  1  0  0  3  0  0  0  0  0  0
  186.2840  178.8090  140.0100 O   0  0  0  0  0  0  0  0  0  0  0  0
  183.6380  177.2620  140.6090 C   0  0  0  0  0  2  0  0  0  0  0  0
  180.4510  177.8320  140.8230 C   0  0  0  0  0  1  0  0  0  0  0  0
  181.4960  178.0050  139.7100 C   0  0  2  0  0  3  0  0  0  0  0  0
  183.5020  179.7600  139.8610 C   0  0  0  0  0  2  0  0  0  0  0  0
  181.6400  179.8170  137.8310 C   0  0  0  0  0  1  0  0  0  0  0  0
  190.5510  177.9450  141.6570 C   0  0  0  0  0  2  0  0  0  0  0  0
  188.1340  177.4240  141.9140 N   0  0  0  0  0  0  0  0  0  0  0  0
  188.9660  176.3270  142.2540 C   0  0  0  0  0  2  0  0  0  0  0  0
  190.3150  176.4370  141.5480 C   0  0  0  0  0  2  0  0  0  0  0  0
  189.1500  178.5560  141.5970 C   0  0  0  0  0  2  0  0  0  0  0  0
  187.6730  178.6060  148.1640 C   0  0  0  0  0  1  0  0  0  0  0  0
  187.6060  177.8650  146.8310 C   0  0  2  0  0  3  0  0  0  0  0  0
  188.9090  177.1070  146.6790 N   0  0  0  0  0  2  0  0  0  0  0  0
  189.9180  178.2940  145.0460 O   0  0  0  0  0  1  0  0  0  0  0  0
  190.0940  177.8270  146.3200 C   0  0  2  0  0  3  0  0  0  0  0  0
  191.2250  176.8480  146.1990 C   0  0  0  0  0  0  0  0  0  0  0  0
  191.5410  176.4010  145.0750 O   0  0  0  0  0  0  0  0  0  0  0  0
  192.0890  176.4360  147.3270 O   0  0  0  0  0  1  0  0  0  0  0  0
  1  8  1  0  0  0  0
  1 26  1  1  0  0  0
  2  3  1  0  0  0  0
  3  8  1  0  0  0  0
  4  5  1  0  0  0  0
  5  1  1  0  0  0  0
  7 21  1  6  0  0  0
  7  4  1  0  0  0  0
  8  6  2  0  0  0  0
  9 12  1  6  0  0  0
  9  7  1  0  0  0  0
  9  2  1  0  0  0  0
 10 17  1  0  0  0  0
 10 15  1  0  0  0  0
 11 12  1  0  0  0  0
 13 19  1  6  0  0  0
 13 17  1  0  0  0  0
 13 18  1  0  0  0  0
 14 12  2  0  0  0  0
 15 11  1  0  0  0  0
 17 16  1  1  0  0  0
 18 11  1  0  0  0  0
 21 22  1  0  0  0  0
 23 20  1  0  0  0  0
 23 22  1  0  0  0  0
 24 20  1  0  0  0  0
 24 21  1  0  0  0  0
 26 25  1  6  0  0  0
 27 26  1  0  0  0  0
 29 28  1  6  0  0  0
 29 27  1  0  0  0  0
 30 29  1  0  0  0  0
 30 32  1  0  0  0  0
 31 30  2  0  0  0  0
M  END
>  <MODEL>
3

>  <REMARK>
 VINA RESULT:      -6.9      2.425      4.313
  Name = 
  6 active torsions:
  status: ('A' for Active; 'I' for Inactive)
    1  A    between atoms: C_4  and  C_27
    2  A    between atoms: C_5  and  C_29
    3  A    between atoms: C_10  and  C_25
    4  A    between atoms: N_11  and  C_18
    5  A    between atoms: N_21  and  C_27
    6  A    between atoms: N_21  and  C_29
                            x       y       z     vdW  Elec       q    Type
                         _______ _______ _______ _____ _____    ______ ____

>  <TORSDO>
F 6

$$$$
=
 OpenBabel11062412423D

 32 34  0  0  1  0  0  0  0  0999 V2000
  187.7840  177.2070  137.6120 C   0  0  1  0  0  3  0  0  0  0  0  0
  189.1860  178.4250  140.1600 O   0  0  0  0  0  0  0  0  0  0  0  0
  187.4390  178.2530  140.2770 S   0  0  0  0  0  0  0  0  0  0  0  0
  190.0650  177.7140  138.0270 O   0  0  0  0  0  0  0  0  0  0  0  0
  188.9940  177.7500  137.1840 O   0  0  0  0  0  0  0  0  0  0  0  0
  185.8600  178.6980  137.9620 O   0  0  0  0  0  0  0  0  0  0  0  0
  190.1430  176.5750  138.8600 C   0  0  2  0  0  3  0  0  0  0  0  0
  186.8790  178.1700  138.4830 C   0  0  0  0  0  0  0  0  0  0  0  0
  189.7710  177.1350  140.2700 C   0  0  1  0  0  3  0  0  0  0  0  0
  190.4600  178.8220  144.5740 C   0  0  0  0  0  2  0  0  0  0  0  0
  190.5240  177.2000  142.6430 N   0  0  0  0  0  0  0  0  0  0  0  0
  190.8550  177.2570  141.2740 C   0  0  0  0  0  0  0  0  0  0  0  0
  190.8680  176.3540  145.0350 C   0  0  1  0  0  3  0  0  0  0  0  0
  192.1500  177.3150  140.9780 O   0  0  0  0  0  0  0  0  0  0  0  0
  190.1810  178.4740  143.1070 C   0  0  0  0  0  2  0  0  0  0  0  0
  188.6020  177.5180  145.7750 C   0  0  0  0  0  1  0  0  0  0  0  0
  190.0840  177.5800  145.3740 C   0  0  2  0  0  3  0  0  0  0  0  0
  191.1310  176.0650  143.4410 C   0  0  0  0  0  2  0  0  0  0  0  0
  192.0550  175.9960  146.0360 C   0  0  0  0  0  1  0  0  0  0  0  0
  192.2920  174.5060  136.6380 C   0  0  0  0  0  2  0  0  0  0  0  0
  191.4090  175.7600  138.5940 N   0  0  0  0  0  0  0  0  0  0  0  0
  192.5320  176.3930  138.0060 C   0  0  0  0  0  2  0  0  0  0  0  0
  193.3900  175.3770  137.2550 C   0  0  0  0  0  2  0  0  0  0  0  0
  191.1550  174.5450  137.6600 C   0  0  0  0  0  2  0  0  0  0  0  0
  187.0910  177.1900  134.8630 C   0  0  0  0  0  1  0  0  0  0  0  0
  187.1020  176.6440  136.2880 C   0  0  2  0  0  3  0  0  0  0  0  0
  186.0140  175.5940  136.3680 N   0  0  0  0  0  2  0  0  0  0  0  0
  186.6500  173.4480  136.0800 O   0  0  0  0  0  1  0  0  0  0  0  0
  186.2900  174.3570  137.0370 C   0  0  2  0  0  3  0  0  0  0  0  0
  185.0020  173.8180  137.5880 C   0  0  0  0  0  0  0  0  0  0  0  0
  184.9400  172.6280  137.9680 O   0  0  0  0  0  1  0  0  0  0  0  0
  183.7920  174.6360  137.8180 O   0  0  0  0  0  0  0  0  0  0  0  0
  1 26  1  6  0  0  0
  1  8  1  0  0  0  0
  2  9  1  0  0  0  0
  2  3  1  0  0  0  0
  4  7  1  0  0  0  0
  5  1  1  0  0  0  0
  5  4  1  0  0  0  0
  6  8  2  0  0  0  0
  7 21  1  1  0  0  0
  7  9  1  0  0  0  0
  8  3  1  0  0  0  0
  9 12  1  1  0  0  0
 10 17  1  0  0  0  0
 11 15  1  0  0  0  0
 11 18  1  0  0  0  0
 12 11  1  0  0  0  0
 13 17  1  0  0  0  0
 13 19  1  1  0  0  0
 14 12  2  0  0  0  0
 15 10  1  0  0  0  0
 17 16  1  6  0  0  0
 18 13  1  0  0  0  0
 20 23  1  0  0  0  0
 20 24  1  0  0  0  0
 22 21  1  0  0  0  0
 23 22  1  0  0  0  0
 24 21  1  0  0  0  0
 26 25  1  1  0  0  0
 26 27  1  0  0  0  0
 27 29  1  0  0  0  0
 29 28  1  6  0  0  0
 29 30  1  0  0  0  0
 30 32  2  0  0  0  0
 30 31  1  0  0  0  0
M  END
>  <MODEL>
4

>  <REMARK>
 VINA RESULT:      -6.8      3.580      8.817
  Name = 
  6 active torsions:
  status: ('A' for Active; 'I' for Inactive)
    1  A    between atoms: C_4  and  C_27
    2  A    between atoms: C_5  and  C_29
    3  A    between atoms: C_10  and  C_25
    4  A    between atoms: N_11  and  C_18
    5  A    between atoms: N_21  and  C_27
    6  A    between atoms: N_21  and  C_29
                            x       y       z     vdW  Elec       q    Type
                         _______ _______ _______ _____ _____    ______ ____

>  <TORSDO>
F 6

$$$$
=
 OpenBabel11062412423D

 32 34  0  0  1  0  0  0  0  0999 V2000
  189.7710  177.6380  142.5400 C   0  0  1  0  0  3  0  0  0  0  0  0
  187.8930  177.4670  140.0130 O   0  0  0  0  0  0  0  0  0  0  0  0
  187.3280  178.5300  141.2940 S   0  0  0  0  0  0  0  0  0  0  0  0
  189.9720  176.3620  140.5490 O   0  0  0  0  0  0  0  0  0  0  0  0
  190.0570  176.4290  141.9080 O   0  0  0  0  0  0  0  0  0  0  0  0
  187.7940  177.7900  143.9940 O   0  0  0  0  0  0  0  0  0  0  0  0
  190.3430  177.5390  139.8590 C   0  0  2  0  0  3  0  0  0  0  0  0
  188.2370  177.9100  142.8200 C   0  0  0  0  0  0  0  0  0  0  0  0
  188.9780  178.1020  139.3500 C   0  0  1  0  0  3  0  0  0  0  0  0
  187.7390  174.9100  136.1690 C   0  0  0  0  0  2  0  0  0  0  0  0
  187.7250  177.0790  137.4570 N   0  0  0  0  0  0  0  0  0  0  0  0
  188.6880  178.0080  137.8990 C   0  0  0  0  0  0  0  0  0  0  0  0
  185.6840  176.4040  136.0660 C   0  0  1  0  0  3  0  0  0  0  0  0
  189.2010  178.8180  136.9770 O   0  0  0  0  0  0  0  0  0  0  0  0
  188.3220  175.8320  137.2460 C   0  0  0  0  0  2  0  0  0  0  0  0
  185.6030  174.0660  137.3170 C   0  0  0  0  0  1  0  0  0  0  0  0
  186.2250  175.0310  136.2950 C   0  0  2  0  0  3  0  0  0  0  0  0
  186.5100  177.6450  136.7520 C   0  0  0  0  0  2  0  0  0  0  0  0
  185.0570  176.6660  134.6250 C   0  0  0  0  0  1  0  0  0  0  0  0
  193.7740  176.2490  139.2290 C   0  0  0  0  0  2  0  0  0  0  0  0
  191.5440  177.3070  138.9410 N   0  0  0  0  0  0  0  0  0  0  0  0
  191.6560  176.0800  138.2410 C   0  0  0  0  0  2  0  0  0  0  0  0
  193.1200  175.7720  137.9300 C   0  0  0  0  0  2  0  0  0  0  0  0
  192.9000  177.4160  139.6900 C   0  0  0  0  0  2  0  0  0  0  0  0
  191.8000  178.6370  144.2490 C   0  0  0  0  0  1  0  0  0  0  0  0
  190.7120  177.6560  143.8240 C   0  0  0  0  0  0  0  0  0  0  0  0
  190.8800  176.4130  144.6730 N   0  0  0  0  0  0  0  0  0  0  0  0
  192.2920  175.1490  145.8990 O   0  0  0  0  0  1  0  0  0  0  0  0
  191.8280  176.4270  145.7470 C   0  0  2  0  0  3  0  0  0  0  0  0
  191.0920  176.7050  147.0260 C   0  0  0  0  0  0  0  0  0  0  0  0
  191.7250  177.0830  148.0350 O   0  0  0  0  0  1  0  0  0  0  0  0
  189.6200  176.6620  147.1600 O   0  0  0  0  0  0  0  0  0  0  0  0
  1  8  1  0  0  0  0
  1 26  1  1  0  0  0
  2  3  1  0  0  0  0
  3  8  1  0  0  0  0
  4  5  1  0  0  0  0
  5  1  1  0  0  0  0
  7 21  1  6  0  0  0
  7  4  1  0  0  0  0
  8  6  2  0  0  0  0
  9 12  1  6  0  0  0
  9  7  1  0  0  0  0
  9  2  1  0  0  0  0
 10 17  1  0  0  0  0
 10 15  1  0  0  0  0
 11 12  1  0  0  0  0
 13 19  1  6  0  0  0
 13 17  1  0  0  0  0
 13 18  1  0  0  0  0
 14 12  2  0  0  0  0
 15 11  1  0  0  0  0
 17 16  1  1  0  0  0
 18 11  1  0  0  0  0
 20 24  1  0  0  0  0
 21 24  1  0  0  0  0
 22 21  1  0  0  0  0
 23 22  1  0  0  0  0
 23 20  1  0  0  0  0
 26 25  1  0  0  0  0
 26 27  2  0  0  0  0
 27 29  1  0  0  0  0
 29 28  1  1  0  0  0
 29 30  1  0  0  0  0
 30 32  2  0  0  0  0
 30 31  1  0  0  0  0
M  END
>  <MODEL>
5

>  <REMARK>
 VINA RESULT:      -6.6      3.209      5.113
  Name = 
  6 active torsions:
  status: ('A' for Active; 'I' for Inactive)
    1  A    between atoms: C_4  and  C_27
    2  A    between atoms: C_5  and  C_29
    3  A    between atoms: C_10  and  C_25
    4  A    between atoms: N_11  and  C_18
    5  A    between atoms: N_21  and  C_27
    6  A    between atoms: N_21  and  C_29
                            x       y       z     vdW  Elec       q    Type
                         _______ _______ _______ _____ _____    ______ ____

>  <TORSDO>
F 6

$$$$
=
 OpenBabel11062412423D

 32 34  0  0  1  0  0  0  0  0999 V2000
  188.3600  178.0350  141.3250 C   0  0  1  0  0  3  0  0  0  0  0  0
  190.8160  177.7410  139.3700 O   0  0  0  0  0  0  0  0  0  0  0  0
  191.0770  177.1280  140.9970 S   0  0  0  0  0  0  0  0  0  0  0  0
  188.6240  178.7060  139.0640 O   0  0  0  0  0  0  0  0  0  0  0  0
  188.1940  178.9920  140.3260 O   0  0  0  0  0  0  0  0  0  0  0  0
  189.9000  178.5000  143.1850 O   0  0  0  0  0  0  0  0  0  0  0  0
  188.4940  177.3540  138.6720 C   0  0  2  0  0  3  0  0  0  0  0  0
  189.7800  178.0230  142.0240 C   0  0  0  0  0  0  0  0  0  0  0  0
  189.9670  176.8340  138.6810 C   0  0  1  0  0  3  0  0  0  0  0  0
  194.1910  175.8480  136.9410 C   0  0  0  0  0  2  0  0  0  0  0  0
  191.7030  175.6760  137.3220 N   0  0  0  0  0  0  0  0  0  0  0  0
  190.6160  176.5720  137.3740 C   0  0  0  0  0  0  0  0  0  0  0  0
  192.9810  173.7030  136.3080 C   0  0  1  0  0  3  0  0  0  0  0  0
  190.1790  177.0450  136.2110 O   0  0  0  0  0  0  0  0  0  0  0  0
  192.8970  176.3560  137.5870 C   0  0  0  0  0  2  0  0  0  0  0  0
  194.6800  173.7540  138.3440 C   0  0  0  0  0  1  0  0  0  0  0  0
  194.1300  174.3280  137.0290 C   0  0  2  0  0  3  0  0  0  0  0  0
  191.5220  174.4370  136.4700 C   0  0  0  0  0  2  0  0  0  0  0  0
  193.3190  173.0810  134.8800 C   0  0  0  0  0  1  0  0  0  0  0  0
  185.6510  175.6970  136.9380 C   0  0  0  0  0  2  0  0  0  0  0  0
  187.5610  177.1950  137.4710 N   0  0  0  0  0  0  0  0  0  0  0  0
  186.3200  177.8810  137.4590 C   0  0  0  0  0  2  0  0  0  0  0  0
  185.3090  177.1460  136.5820 C   0  0  0  0  0  2  0  0  0  0  0  0
  187.1540  175.7170  137.2190 C   0  0  0  0  0  2  0  0  0  0  0  0
  186.6430  177.4390  143.5010 C   0  0  0  0  0  1  0  0  0  0  0  0
  187.1210  178.2530  142.3020 C   0  0  2  0  0  3  0  0  0  0  0  0
  185.9880  179.1810  141.9150 N   0  0  0  0  0  2  0  0  0  0  0  0
  184.8580  179.7520  140.0470 O   0  0  0  0  0  1  0  0  0  0  0  0
  185.0260  178.7390  140.9510 C   0  0  2  0  0  3  0  0  0  0  0  0
  183.6910  178.6280  141.6290 C   0  0  0  0  0  0  0  0  0  0  0  0
  182.6870  178.2830  140.9690 O   0  0  0  0  0  0  0  0  0  0  0  0
  183.4840  178.8010  143.0830 O   0  0  0  0  0  1  0  0  0  0  0  0
  1  8  1  0  0  0  0
  1 26  1  1  0  0  0
  2  3  1  0  0  0  0
  3  8  1  0  0  0  0
  4  5  1  0  0  0  0
  5  1  1  0  0  0  0
  7 21  1  6  0  0  0
  7  9  1  0  0  0  0
  7  4  1  0  0  0  0
  8  6  2  0  0  0  0
  9 12  1  6  0  0  0
  9  2  1  0  0  0  0
 10 17  1  0  0  0  0
 10 15  1  0  0  0  0
 11 12  1  0  0  0  0
 11 15  1  0  0  0  0
 13 19  1  6  0  0  0
 13 18  1  0  0  0  0
 13 17  1  0  0  0  0
 14 12  2  0  0  0  0
 17 16  1  1  0  0  0
 18 11  1  0  0  0  0
 20 24  1  0  0  0  0
 22 21  1  0  0  0  0
 23 20  1  0  0  0  0
 23 22  1  0  0  0  0
 24 21  1  0  0  0  0
 26 25  1  6  0  0  0
 27 26  1  0  0  0  0
 29 28  1  6  0  0  0
 29 30  1  0  0  0  0
 29 27  1  0  0  0  0
 30 32  1  0  0  0  0
 31 30  2  0  0  0  0
M  END
>  <MODEL>
6

>  <REMARK>
 VINA RESULT:      -6.5      3.690      7.642
  Name = 
  6 active torsions:
  status: ('A' for Active; 'I' for Inactive)
    1  A    between atoms: C_4  and  C_27
    2  A    between atoms: C_5  and  C_29
    3  A    between atoms: C_10  and  C_25
    4  A    between atoms: N_11  and  C_18
    5  A    between atoms: N_21  and  C_27
    6  A    between atoms: N_21  and  C_29
                            x       y       z     vdW  Elec       q    Type
                         _______ _______ _______ _____ _____    ______ ____

>  <TORSDO>
F 6

$$$$
=
 OpenBabel11062412423D

 32 34  0  0  1  0  0  0  0  0999 V2000
  186.9270  178.0480  144.4330 C   0  0  1  0  0  3  0  0  0  0  0  0
  184.4130  178.2200  142.5370 O   0  0  0  0  0  0  0  0  0  0  0  0
  184.2020  178.9420  144.1270 S   0  0  0  0  0  0  0  0  0  0  0  0
  186.5930  177.2290  142.2300 O   0  0  0  0  0  0  0  0  0  0  0  0
  187.0600  177.0260  143.4950 O   0  0  0  0  0  0  0  0  0  0  0  0
  185.4420  177.7140  146.3650 O   0  0  0  0  0  0  0  0  0  0  0  0
  186.7140  178.5510  141.7460 C   0  0  2  0  0  3  0  0  0  0  0  0
  185.5280  178.1120  145.1720 C   0  0  0  0  0  0  0  0  0  0  0  0
  185.2430  179.0760  141.7640 C   0  0  1  0  0  3  0  0  0  0  0  0
  182.6660  176.6160  138.7390 C   0  0  0  0  0  2  0  0  0  0  0  0
  183.3660  178.5350  140.2180 N   0  0  0  0  0  0  0  0  0  0  0  0
  184.5550  179.2520  140.4620 C   0  0  0  0  0  0  0  0  0  0  0  0
  180.9400  178.3530  139.4230 C   0  0  1  0  0  3  0  0  0  0  0  0
  184.9220  180.1280  139.5320 O   0  0  0  0  0  0  0  0  0  0  0  0
  183.6670  177.2730  139.6960 C   0  0  0  0  0  2  0  0  0  0  0  0
  180.8160  175.8740  140.3580 C   0  0  0  0  0  1  0  0  0  0  0  0
  181.2860  176.9040  139.3190 C   0  0  2  0  0  3  0  0  0  0  0  0
  182.1160  179.3550  139.9750 C   0  0  0  0  0  2  0  0  0  0  0  0
  179.9940  178.9200  138.2710 C   0  0  0  0  0  1  0  0  0  0  0  0
  189.6480  177.4140  139.7630 C   0  0  0  0  0  2  0  0  0  0  0  0
  187.6100  178.6250  140.5090 N   0  0  0  0  0  0  0  0  0  0  0  0
  187.3570  177.7600  139.4150 C   0  0  0  0  0  2  0  0  0  0  0  0
  188.6370  177.5130  138.6180 C   0  0  0  0  0  2  0  0  0  0  0  0
  189.1050  178.3590  140.8350 C   0  0  0  0  0  2  0  0  0  0  0  0
  188.3110  177.9490  146.9050 C   0  0  0  0  0  1  0  0  0  0  0  0
  188.1940  177.8920  145.3850 C   0  0  2  0  0  3  0  0  0  0  0  0
  189.5960  178.0140  144.8260 N   0  0  0  0  0  2  0  0  0  0  0  0
  191.6690  177.3270  145.3940 O   0  0  0  0  0  1  0  0  0  0  0  0
  190.4740  176.8840  144.8970 C   0  0  2  0  0  3  0  0  0  0  0  0
  190.7970  176.4470  143.4980 C   0  0  0  0  0  0  0  0  0  0  0  0
  191.6810  177.0480  142.8490 O   0  0  0  0  0  1  0  0  0  0  0  0
  190.2060  175.2600  142.8430 O   0  0  0  0  0  0  0  0  0  0  0  0
  1  8  1  0  0  0  0
  1 26  1  1  0  0  0
  2  3  1  0  0  0  0
  3  8  1  0  0  0  0
  4  5  1  0  0  0  0
  5  1  1  0  0  0  0
  7 21  1  6  0  0  0
  7  9  1  0  0  0  0
  7  4  1  0  0  0  0
  8  6  2  0  0  0  0
  9 12  1  6  0  0  0
  9  2  1  0  0  0  0
 10 17  1  0  0  0  0
 10 15  1  0  0  0  0
 11 12  1  0  0  0  0
 13 19  1  6  0  0  0
 13 18  1  0  0  0  0
 14 12  2  0  0  0  0
 15 11  1  0  0  0  0
 17 13  1  0  0  0  0
 17 16  1  1  0  0  0
 18 11  1  0  0  0  0
 20 24  1  0  0  0  0
 21 24  1  0  0  0  0
 22 21  1  0  0  0  0
 23 22  1  0  0  0  0
 23 20  1  0  0  0  0
 26 25  1  1  0  0  0
 27 29  1  0  0  0  0
 27 26  1  0  0  0  0
 29 28  1  6  0  0  0
 30 29  1  0  0  0  0
 31 30  1  0  0  0  0
 32 30  2  0  0  0  0
M  END
>  <MODEL>
7

>  <REMARK>
 VINA RESULT:      -6.3      2.197      3.962
  Name = 
  6 active torsions:
  status: ('A' for Active; 'I' for Inactive)
    1  A    between atoms: C_4  and  C_27
    2  A    between atoms: C_5  and  C_29
    3  A    between atoms: C_10  and  C_25
    4  A    between atoms: N_11  and  C_18
    5  A    between atoms: N_21  and  C_27
    6  A    between atoms: N_21  and  C_29
                            x       y       z     vdW  Elec       q    Type
                         _______ _______ _______ _____ _____    ______ ____

>  <TORSDO>
F 6

$$$$
=
 OpenBabel11062412423D

 32 34  0  0  1  0  0  0  0  0999 V2000
  188.2990  177.9690  139.9080 C   0  0  1  0  0  3  0  0  0  0  0  0
  185.6960  179.2120  138.6350 O   0  0  0  0  0  0  0  0  0  0  0  0
  186.6730  178.2410  137.5420 S   0  0  0  0  0  0  0  0  0  0  0  0
  186.6400  179.3810  140.8510 O   0  0  0  0  0  0  0  0  0  0  0  0
  187.9590  179.0730  140.6880 O   0  0  0  0  0  0  0  0  0  0  0  0
  189.4990  178.3230  137.7920 O   0  0  0  0  0  0  0  0  0  0  0  0
  185.7620  178.2750  140.9040 C   0  0  2  0  0  3  0  0  0  0  0  0
  188.3720  178.2360  138.3500 C   0  0  0  0  0  0  0  0  0  0  0  0
  185.0220  178.3380  139.5290 C   0  0  1  0  0  3  0  0  0  0  0  0
  180.9360  177.0620  137.6540 C   0  0  0  0  0  2  0  0  0  0  0  0
  182.5990  177.7750  139.4110 N   0  0  0  0  0  0  0  0  0  0  0  0
  183.6000  178.7590  139.5270 C   0  0  0  0  0  0  0  0  0  0  0  0
  180.3930  176.6790  140.1090 C   0  0  1  0  0  3  0  0  0  0  0  0
  183.1880  180.0070  139.7330 O   0  0  0  0  0  0  0  0  0  0  0  0
  182.3450  177.5050  138.0630 C   0  0  0  0  0  2  0  0  0  0  0  0
  180.8940  174.6360  138.4930 C   0  0  0  0  0  1  0  0  0  0  0  0
  180.4740  176.0940  138.7370 C   0  0  2  0  0  3  0  0  0  0  0  0
  181.6310  177.6520  140.5700 C   0  0  0  0  0  2  0  0  0  0  0  0
  178.9330  177.0930  140.5960 C   0  0  0  0  0  1  0  0  0  0  0  0
  185.7150  178.4250  144.6200 C   0  0  0  0  0  2  0  0  0  0  0  0
  185.0280  178.1930  142.2430 N   0  0  0  0  0  0  0  0  0  0  0  0
  184.5330  179.3810  142.8370 C   0  0  0  0  0  2  0  0  0  0  0  0
  184.4360  179.2220  144.3540 C   0  0  0  0  0  2  0  0  0  0  0  0
  185.8990  177.5680  143.3670 C   0  0  0  0  0  2  0  0  0  0  0  0
  190.6820  176.4370  140.0240 C   0  0  0  0  0  1  0  0  0  0  0  0
  189.6350  177.4060  140.5670 C   0  0  2  0  0  3  0  0  0  0  0  0
  189.8630  177.5150  142.0600 N   0  0  0  0  0  2  0  0  0  0  0  0
  188.6940  175.7510  142.8450 O   0  0  0  0  0  1  0  0  0  0  0  0
  189.9400  176.3170  142.8410 C   0  0  2  0  0  3  0  0  0  0  0  0
  190.1750  176.6980  144.2740 C   0  0  0  0  0  0  0  0  0  0  0  0
  189.2020  176.8220  145.0490 O   0  0  0  0  0  1  0  0  0  0  0  0
  191.5140  176.8450  144.8840 O   0  0  0  0  0  0  0  0  0  0  0  0
  1 26  1  1  0  0  0
  1  5  1  0  0  0  0
  2  9  1  0  0  0  0
  3  8  1  0  0  0  0
  3  2  1  0  0  0  0
  4  7  1  0  0  0  0
  5  4  1  0  0  0  0
  6  8  2  0  0  0  0
  7 21  1  1  0  0  0
  8  1  1  0  0  0  0
  9 12  1  1  0  0  0
  9  7  1  0  0  0  0
 10 15  1  0  0  0  0
 10 17  1  0  0  0  0
 11 12  1  0  0  0  0
 11 18  1  0  0  0  0
 12 14  2  0  0  0  0
 13 18  1  0  0  0  0
 13 19  1  6  0  0  0
 15 11  1  0  0  0  0
 17 16  1  1  0  0  0
 17 13  1  0  0  0  0
 21 22  1  0  0  0  0
 21 24  1  0  0  0  0
 22 23  1  0  0  0  0
 23 20  1  0  0  0  0
 24 20  1  0  0  0  0
 26 25  1  1  0  0  0
 26 27  1  0  0  0  0
 27 29  1  0  0  0  0
 29 28  1  1  0  0  0
 29 30  1  0  0  0  0
 30 32  2  0  0  0  0
 30 31  1  0  0  0  0
M  END
>  <MODEL>
8

>  <REMARK>
 VINA RESULT:      -6.3      1.512      1.980
  Name = 
  6 active torsions:
  status: ('A' for Active; 'I' for Inactive)
    1  A    between atoms: C_4  and  C_27
    2  A    between atoms: C_5  and  C_29
    3  A    between atoms: C_10  and  C_25
    4  A    between atoms: N_11  and  C_18
    5  A    between atoms: N_21  and  C_27
    6  A    between atoms: N_21  and  C_29
                            x       y       z     vdW  Elec       q    Type
                         _______ _______ _______ _____ _____    ______ ____

>  <TORSDO>
F 6

$$$$
=
 OpenBabel11062412423D

 32 34  0  0  1  0  0  0  0  0999 V2000
  189.1070  176.9610  137.8650 C   0  0  1  0  0  3  0  0  0  0  0  0
  186.5570  178.7690  138.2770 O   0  0  0  0  0  0  0  0  0  0  0  0
  186.3880  177.5010  137.0710 S   0  0  0  0  0  0  0  0  0  0  0  0
  188.7480  178.8260  139.2890 O   0  0  0  0  0  0  0  0  0  0  0  0
  189.5520  178.1660  138.4070 O   0  0  0  0  0  0  0  0  0  0  0  0
  188.6260  176.8380  135.4570 O   0  0  0  0  0  0  0  0  0  0  0  0
  187.9700  178.0020  140.1330 C   0  0  2  0  0  3  0  0  0  0  0  0
  188.1630  177.0940  136.6010 C   0  0  0  0  0  0  0  0  0  0  0  0
  186.5240  178.1690  139.5650 C   0  0  1  0  0  3  0  0  0  0  0  0
  182.3090  180.1350  139.1080 C   0  0  0  0  0  2  0  0  0  0  0  0
  184.1750  178.7780  140.1260 N   0  0  0  0  0  0  0  0  0  0  0  0
  185.5530  178.9560  140.3630 C   0  0  0  0  0  0  0  0  0  0  0  0
  181.7620  178.4130  140.8970 C   0  0  1  0  0  3  0  0  0  0  0  0
  185.8850  179.7540  141.3730 O   0  0  0  0  0  0  0  0  0  0  0  0
  183.7530  179.6220  139.0940 C   0  0  0  0  0  2  0  0  0  0  0  0
  181.0110  178.0430  138.3800 C   0  0  0  0  0  1  0  0  0  0  0  0
  181.4520  178.9510  139.5390 C   0  0  2  0  0  3  0  0  0  0  0  0
  183.3490  178.2610  141.2850 C   0  0  0  0  0  2  0  0  0  0  0  0
  180.7770  178.8740  142.0630 C   0  0  0  0  0  1  0  0  0  0  0  0
  188.7710  176.6880  143.5190 C   0  0  0  0  0  2  0  0  0  0  0  0
  188.3150  178.2100  141.6080 N   0  0  0  0  0  0  0  0  0  0  0  0
  189.6750  178.2330  142.0080 C   0  0  0  0  0  2  0  0  0  0  0  0
  189.8130  177.8080  143.4680 C   0  0  0  0  0  2  0  0  0  0  0  0
  187.6910  177.1250  142.5280 C   0  0  0  0  0  2  0  0  0  0  0  0
  190.6460  174.5960  137.5940 C   0  0  0  0  0  1  0  0  0  0  0  0
  190.4310  176.1060  137.6400 C   0  0  0  0  0  0  0  0  0  0  0  0
  191.7960  176.7440  137.7960 N   0  0  0  0  0  0  0  0  0  0  0  0
  193.8940  176.3870  138.5470 O   0  0  0  0  0  1  0  0  0  0  0  0
  192.9650  175.9280  137.6530 C   0  0  2  0  0  3  0  0  0  0  0  0
  193.5770  176.2060  136.3120 C   0  0  0  0  0  0  0  0  0  0  0  0
  193.0700  175.7080  135.2830 O   0  0  0  0  0  0  0  0  0  0  0  0
  194.7080  177.1340  136.0930 O   0  0  0  0  0  1  0  0  0  0  0  0
  1 26  1  6  0  0  0
  1  5  1  0  0  0  0
  2  9  1  0  0  0  0
  3  2  1  0  0  0  0
  4  7  1  0  0  0  0
  5  4  1  0  0  0  0
  6  8  2  0  0  0  0
  7 21  1  1  0  0  0
  8  3  1  0  0  0  0
  8  1  1  0  0  0  0
  9  7  1  0  0  0  0
  9 12  1  1  0  0  0
 10 17  1  0  0  0  0
 11 12  1  0  0  0  0
 11 18  1  0  0  0  0
 12 14  2  0  0  0  0
 13 18  1  0  0  0  0
 13 19  1  1  0  0  0
 15 10  1  0  0  0  0
 15 11  1  0  0  0  0
 17 16  1  6  0  0  0
 17 13  1  0  0  0  0
 21 22  1  0  0  0  0
 21 24  1  0  0  0  0
 22 23  1  0  0  0  0
 23 20  1  0  0  0  0
 24 20  1  0  0  0  0
 25 26  1  0  0  0  0
 26 27  2  0  0  0  0
 29 27  1  0  0  0  0
 29 28  1  1  0  0  0
 30 29  1  0  0  0  0
 31 30  2  0  0  0  0
 32 30  1  0  0  0  0
M  END
>  <MODEL>
9

>  <REMARK>
 VINA RESULT:      -6.2      3.107      5.301
  Name = 
  6 active torsions:
  status: ('A' for Active; 'I' for Inactive)
    1  A    between atoms: C_4  and  C_27
    2  A    between atoms: C_5  and  C_29
    3  A    between atoms: C_10  and  C_25
    4  A    between atoms: N_11  and  C_18
    5  A    between atoms: N_21  and  C_27
    6  A    between atoms: N_21  and  C_29
                            x       y       z     vdW  Elec       q    Type
                         _______ _______ _______ _____ _____    ______ ____

>  <TORSDO>
F 6

$$$$
