=
 OpenBabel11062417323D

 47 54  0  0  1  0  0  0  0  0999 V2000
  185.3890  178.2280  142.8800 F   0  0  0  0  0  0  0  0  0  0  0  0
  184.7930  178.9260  143.9240 C   0  0  0  0  0  0  0  0  0  0  0  0
  185.2490  180.2340  143.8790 F   0  0  0  0  0  0  0  0  0  0  0  0
  182.7930  180.2270  143.9570 O   0  0  0  0  0  1  0  0  0  0  0  0
  182.6680  178.0810  144.6460 F   0  0  0  0  0  0  0  0  0  0  0  0
  183.2640  178.9310  143.7270 C   0  0  2  0  0  0  0  0  0  0  0  0
  180.2930  177.2010  138.4000 C   0  0  0  0  0  2  0  0  0  0  0  0
  181.7780  177.5830  138.4940 C   0  0  0  0  0  2  0  0  0  0  0  0
  182.0990  178.5110  139.6780 C   0  0  2  0  0  3  0  0  0  0  0  0
  183.7380  179.0860  141.3600 O   0  0  0  0  0  0  0  0  0  0  0  0
  183.5620  178.3830  140.1490 C   0  0  2  0  0  3  0  0  0  0  0  0
  181.5500  178.9060  142.0100 O   0  0  0  0  0  0  0  0  0  0  0  0
  181.1780  178.1840  140.8640 C   0  0  1  0  0  3  0  0  0  0  0  0
  179.7120  178.4670  140.5150 C   0  0  0  0  0  2  0  0  0  0  0  0
  182.8670  178.5090  142.3050 C   0  0  2  0  0  3  0  0  0  0  0  0
  179.3960  178.2680  139.0250 C   0  0  0  0  0  2  0  0  0  0  0  0
  184.5290  178.9380  139.0970 C   0  0  1  0  0  3  0  0  0  0  0  0
  184.3510  180.3180  138.9510 O   0  0  0  0  0  1  0  0  0  0  0  0
  185.9720  178.6660  139.4940 C   0  0  0  0  0  2  0  0  0  0  0  0
  187.8670  178.7450  136.9340 N   0  0  0  0  0  0  0  0  0  0  0  0
  188.0900  178.2120  138.2940 C   0  0  1  0  0  3  0  0  0  0  0  0
  188.4120  177.9080  135.8680 C   0  0  0  0  0  1  0  0  0  0  0  0
  186.4650  178.3740  137.0680 C   0  0  0  0  0  2  0  0  0  0  0  0
  186.6520  177.7880  138.4540 C   0  0  2  0  0  3  0  0  0  0  0  0
  190.2280  177.3910  139.0010 O   0  0  0  0  0  1  0  0  0  0  0  0
  189.0300  177.0040  138.4010 C   0  0  0  0  0  2  0  0  0  0  0  0
  185.2110  179.3250  146.2300 O   0  0  0  0  0  0  0  0  0  0  0  0
  185.1850  178.3430  145.2920 C   0  0  2  0  0  3  0  0  0  0  0  0
  186.4380  178.8820  145.7620 N   0  0  0  0  0  0  0  0  0  0  0  0
  186.9480  177.9530  146.7530 C   0  0  0  0  0  2  0  0  0  0  0  0
  188.4570  178.1190  146.8730 C   0  0  2  0  0  3  0  0  0  0  0  0
  189.0830  176.7880  147.2630 C   0  0  2  0  0  3  0  0  0  0  0  0
  187.9820  177.6180  149.2060 O   0  0  0  0  0  1  0  0  0  0  0  0
  188.9940  177.9070  148.2870 C   0  0  2  0  0  3  0  0  0  0  0  0
  191.4130  175.6590  147.3190 C   0  0  0  0  0  2  0  0  0  0  0  0
  190.4810  176.6480  146.6350 C   0  0  0  0  0  0  0  0  0  0  0  0
  191.5440  177.1470  147.5990 C   0  0  0  0  0  2  0  0  0  0  0  0
  188.7210  176.3220  143.6150 C   0  0  0  0  0  3  0  0  0  0  0  0
  191.2270  178.9940  143.8760 N   0  0  0  0  0  2  0  0  0  0  0  0
  191.4790  175.8170  144.4650 C   0  0  0  0  0  1  0  0  0  0  0  0
  190.7610  176.9840  145.1390 C   0  0  2  0  0  0  0  0  0  0  0  0
  188.1840  176.6010  142.4200 C   0  0  0  0  0  3  0  0  0  0  0  0
  191.6670  178.2340  145.0400 C   0  0  0  0  0  2  0  0  0  0  0  0
  190.0010  178.4500  143.4420 C   0  0  0  0  0  0  0  0  0  0  0  0
  189.4680  178.6790  142.2450 C   0  0  0  0  0  3  0  0  0  0  0  0
  189.5000  177.3920  144.3430 C   0  0  1  0  0  3  0  0  0  0  0  0
  188.4480  177.8300  141.7860 O   0  0  0  0  0  0  0  0  0  0  0  0
  1  2  1  0  0  0  0
  3  2  1  0  0  0  0
  6  2  1  0  0  0  0
  6  4  1  1  0  0  0
  6  5  1  0  0  0  0
  7  8  1  0  0  0  0
  7 16  1  0  0  0  0
  9  8  1  6  0  0  0
  9 11  1  0  0  0  0
  9 13  1  0  0  0  0
 10 15  1  0  0  0  0
 11 17  1  6  0  0  0
 11 10  1  0  0  0  0
 12 15  1  0  0  0  0
 13 14  1  6  0  0  0
 13 12  1  0  0  0  0
 15  6  1  1  0  0  0
 16 14  1  0  0  0  0
 17 18  1  1  0  0  0
 17 19  1  0  0  0  0
 20 23  1  0  0  0  0
 20 21  1  0  0  0  0
 21 26  1  6  0  0  0
 21 24  1  0  0  0  0
 22 20  1  0  0  0  0
 23 24  1  0  0  0  0
 24 19  1  1  0  0  0
 26 25  1  0  0  0  0
 28  2  1  6  0  0  0
 28 29  1  0  0  0  0
 28 27  1  0  0  0  0
 29 27  1  0  0  0  0
 29 30  1  0  0  0  0
 31 30  1  1  0  0  0
 31 32  1  0  0  0  0
 31 34  1  0  0  0  0
 32 36  1  6  0  0  0
 32 34  1  0  0  0  0
 34 33  1  1  0  0  0
 35 37  1  0  0  0  0
 36 35  1  0  0  0  0
 36 37  1  0  0  0  0
 39 43  1  0  0  0  0
 41 40  1  6  0  0  0
 41 36  1  0  0  0  0
 42 38  2  0  0  0  0
 43 41  1  0  0  0  0
 44 39  1  0  0  0  0
 44 46  1  0  0  0  0
 45 44  2  0  0  0  0
 46 38  1  6  0  0  0
 46 41  1  0  0  0  0
 47 45  1  0  0  0  0
 47 42  1  0  0  0  0
M  END
>  <MODEL>
1

>  <REMARK>
 VINA RESULT:      -9.0      0.000      0.000
  Name = 
  11 active torsions:
  status: ('A' for Active; 'I' for Inactive)
    1  A    between atoms: C_1  and  C_7
    2  A    between atoms: C_1  and  C_47
    3  A    between atoms: C_7  and  C_24
    4  A    between atoms: C_11  and  C_41
    5  A    between atoms: C_14  and  C_40
    6  A    between atoms: C_15  and  C_23
    7  A    between atoms: C_15  and  C_28
    8  A    between atoms: C_20  and  C_21
    9  A    between atoms: C_20  and  C_22
   10  A    between atoms: N_26  and  C_40
   11  A    between atoms: C_28  and  C_38
                            x       y       z     vdW  Elec       q    Type
                         _______ _______ _______ _____ _____    ______ ____

>  <TORSDO>
F 11

$$$$
=
 OpenBabel11062417323D

 47 54  0  0  1  0  0  0  0  0999 V2000
  185.8500  179.5630  143.1960 F   0  0  0  0  0  0  0  0  0  0  0  0
  185.0350  178.8870  144.0970 C   0  0  0  0  0  0  0  0  0  0  0  0
  184.8630  177.5930  143.6310 F   0  0  0  0  0  0  0  0  0  0  0  0
  185.0570  177.8980  146.2690 O   0  0  0  0  0  1  0  0  0  0  0  0
  185.6620  180.0660  146.0890 F   0  0  0  0  0  0  0  0  0  0  0  0
  185.7320  178.8260  145.4700 C   0  0  2  0  0  0  0  0  0  0  0  0
  191.7340  177.0130  146.4100 C   0  0  0  0  0  2  0  0  0  0  0  0
  191.0340  177.0620  145.0430 C   0  0  0  0  0  2  0  0  0  0  0  0
  189.5040  176.9330  145.1330 C   0  0  2  0  0  3  0  0  0  0  0  0
  187.3950  177.6360  144.1800 O   0  0  0  0  0  0  0  0  0  0  0  0
  188.7850  177.5930  143.9380 C   0  0  2  0  0  3  0  0  0  0  0  0
  187.5940  177.6280  146.4610 O   0  0  0  0  0  0  0  0  0  0  0  0
  188.9980  177.5900  146.4260 C   0  0  1  0  0  3  0  0  0  0  0  0
  189.5370  176.8590  147.6610 C   0  0  0  0  0  2  0  0  0  0  0  0
  187.2010  178.3950  145.3500 C   0  0  2  0  0  3  0  0  0  0  0  0
  190.9170  176.2240  147.4330 C   0  0  0  0  0  2  0  0  0  0  0  0
  189.0490  176.8190  142.6410 C   0  0  1  0  0  3  0  0  0  0  0  0
  188.5190  175.5280  142.7280 O   0  0  0  0  0  1  0  0  0  0  0  0
  188.4230  177.5320  141.4520 C   0  0  0  0  0  2  0  0  0  0  0  0
  190.5130  176.2420  139.4220 N   0  0  0  0  0  0  0  0  0  0  0  0
  189.2840  177.0270  139.1850 C   0  0  1  0  0  3  0  0  0  0  0  0
  191.6170  176.5770  138.5250 C   0  0  0  0  0  1  0  0  0  0  0  0
  190.7220  177.0210  140.6360 C   0  0  0  0  0  2  0  0  0  0  0  0
  189.4860  177.8730  140.4180 C   0  0  2  0  0  3  0  0  0  0  0  0
  189.0600  179.2330  138.2740 O   0  0  0  0  0  1  0  0  0  0  0  0
  189.2700  177.8990  137.9240 C   0  0  0  0  0  2  0  0  0  0  0  0
  182.9500  178.9950  145.2350 O   0  0  0  0  0  0  0  0  0  0  0  0
  183.6430  179.5330  144.1980 C   0  0  2  0  0  3  0  0  0  0  0  0
  182.5910  178.5740  143.9640 N   0  0  0  0  0  0  0  0  0  0  0  0
  181.4090  179.3300  143.5960 C   0  0  0  0  0  2  0  0  0  0  0  0
  180.8380  178.7760  142.2960 C   0  0  2  0  0  3  0  0  0  0  0  0
  181.3270  179.6210  141.1290 C   0  0  2  0  0  3  0  0  0  0  0  0
  179.7000  180.9270  142.2800 O   0  0  0  0  0  1  0  0  0  0  0  0
  179.8810  179.7290  141.5830 C   0  0  2  0  0  3  0  0  0  0  0  0
  180.6160  179.1050  138.6930 C   0  0  0  0  0  2  0  0  0  0  0  0
  181.5060  178.7470  139.8740 C   0  0  0  0  0  0  0  0  0  0  0  0
  180.2430  177.9480  139.6040 C   0  0  0  0  0  2  0  0  0  0  0  0
  182.9860  177.3130  137.0320 C   0  0  0  0  0  3  0  0  0  0  0  0
  185.1900  178.4820  139.7270 N   0  0  0  0  0  2  0  0  0  0  0  0
  182.6370  176.4870  139.8210 C   0  0  0  0  0  1  0  0  0  0  0  0
  182.8290  177.9820  139.5720 C   0  0  2  0  0  0  0  0  0  0  0  0
  183.8880  176.9790  136.1000 C   0  0  0  0  0  3  0  0  0  0  0  0
  183.9560  178.4880  140.5020 C   0  0  0  0  0  2  0  0  0  0  0  0
  184.8520  178.2680  138.3760 C   0  0  0  0  0  0  0  0  0  0  0  0
  185.7220  177.8960  137.4410 C   0  0  0  0  0  3  0  0  0  0  0  0
  183.3920  178.2390  138.1550 C   0  0  1  0  0  3  0  0  0  0  0  0
  185.2330  177.3770  136.2310 O   0  0  0  0  0  0  0  0  0  0  0  0
  1  2  1  0  0  0  0
  2  6  1  0  0  0  0
  3  2  1  0  0  0  0
  6  5  1  1  0  0  0
  6  4  1  0  0  0  0
  7 16  1  0  0  0  0
  8  7  1  0  0  0  0
  9  8  1  6  0  0  0
  9 13  1  0  0  0  0
 10 15  1  0  0  0  0
 11 17  1  6  0  0  0
 11 10  1  0  0  0  0
 11  9  1  0  0  0  0
 13 12  1  0  0  0  0
 13 14  1  1  0  0  0
 15  6  1  1  0  0  0
 15 12  1  0  0  0  0
 16 14  1  0  0  0  0
 17 18  1  1  0  0  0
 19 17  1  0  0  0  0
 20 23  1  0  0  0  0
 21 26  1  6  0  0  0
 21 20  1  0  0  0  0
 21 24  1  0  0  0  0
 22 20  1  0  0  0  0
 24 23  1  0  0  0  0
 24 19  1  1  0  0  0
 26 25  1  0  0  0  0
 28  2  1  1  0  0  0
 28 27  1  0  0  0  0
 29 28  1  0  0  0  0
 29 27  1  0  0  0  0
 30 29  1  0  0  0  0
 31 30  1  1  0  0  0
 32 36  1  6  0  0  0
 32 34  1  0  0  0  0
 32 31  1  0  0  0  0
 34 33  1  1  0  0  0
 34 31  1  0  0  0  0
 35 37  1  0  0  0  0
 35 36  1  0  0  0  0
 37 36  1  0  0  0  0
 39 43  1  0  0  0  0
 41 40  1  1  0  0  0
 41 36  1  0  0  0  0
 41 43  1  0  0  0  0
 42 47  1  0  0  0  0
 42 38  2  0  0  0  0
 44 39  1  0  0  0  0
 45 44  2  0  0  0  0
 46 38  1  6  0  0  0
 46 44  1  0  0  0  0
 46 41  1  0  0  0  0
 47 45  1  0  0  0  0
M  END
>  <MODEL>
2

>  <REMARK>
 VINA RESULT:      -9.0      1.980      7.953
  Name = 
  11 active torsions:
  status: ('A' for Active; 'I' for Inactive)
    1  A    between atoms: C_1  and  C_7
    2  A    between atoms: C_1  and  C_47
    3  A    between atoms: C_7  and  C_24
    4  A    between atoms: C_11  and  C_41
    5  A    between atoms: C_14  and  C_40
    6  A    between atoms: C_15  and  C_23
    7  A    between atoms: C_15  and  C_28
    8  A    between atoms: C_20  and  C_21
    9  A    between atoms: C_20  and  C_22
   10  A    between atoms: N_26  and  C_40
   11  A    between atoms: C_28  and  C_38
                            x       y       z     vdW  Elec       q    Type
                         _______ _______ _______ _____ _____    ______ ____

>  <TORSDO>
F 11

$$$$
=
 OpenBabel11062417323D

 47 54  0  0  1  0  0  0  0  0999 V2000
  188.6380  176.8120  140.7670 F   0  0  0  0  0  0  0  0  0  0  0  0
  189.6690  177.1590  141.6320 C   0  0  0  0  0  0  0  0  0  0  0  0
  189.6600  178.5370  141.7790 F   0  0  0  0  0  0  0  0  0  0  0  0
  190.4670  176.8710  143.8620 O   0  0  0  0  0  1  0  0  0  0  0  0
  189.4020  175.1340  142.8890 F   0  0  0  0  0  0  0  0  0  0  0  0
  189.4170  176.5160  143.0100 C   0  0  2  0  0  0  0  0  0  0  0  0
  184.6780  178.3130  146.8180 C   0  0  0  0  0  2  0  0  0  0  0  0
  184.6700  178.4360  145.2860 C   0  0  0  0  0  2  0  0  0  0  0  0
  186.0770  178.5190  144.6700 C   0  0  2  0  0  3  0  0  0  0  0  0
  187.4530  177.9070  142.7780 O   0  0  0  0  0  0  0  0  0  0  0  0
  186.1150  178.0130  143.2140 C   0  0  2  0  0  3  0  0  0  0  0  0
  188.3180  177.6080  144.8770 O   0  0  0  0  0  0  0  0  0  0  0  0
  187.0610  177.6800  145.5000 C   0  0  1  0  0  3  0  0  0  0  0  0
  187.2070  178.2460  146.9170 C   0  0  0  0  0  2  0  0  0  0  0  0
  188.0960  176.9910  143.6320 C   0  0  2  0  0  3  0  0  0  0  0  0
  185.9330  178.9360  147.4260 C   0  0  0  0  0  2  0  0  0  0  0  0
  185.3520  178.9620  142.2820 C   0  0  1  0  0  3  0  0  0  0  0  0
  186.0670  179.1580  141.0960 O   0  0  0  0  0  1  0  0  0  0  0  0
  183.9800  178.3980  141.9440 C   0  0  0  0  0  2  0  0  0  0  0  0
  181.8170  177.8480  139.6700 N   0  0  0  0  0  0  0  0  0  0  0  0
  182.5230  179.0850  140.0640 C   0  0  1  0  0  3  0  0  0  0  0  0
  181.6700  177.6780  138.2260 C   0  0  0  0  0  1  0  0  0  0  0  0
  183.0100  177.1020  140.0490 C   0  0  0  0  0  2  0  0  0  0  0  0
  183.7840  178.3470  140.4370 C   0  0  2  0  0  3  0  0  0  0  0  0
  184.1440  180.4510  138.9440 O   0  0  0  0  0  1  0  0  0  0  0  0
  182.7950  180.0950  138.9420 C   0  0  0  0  0  2  0  0  0  0  0  0
  191.8170  177.8630  140.8960 O   0  0  0  0  0  0  0  0  0  0  0  0
  191.0420  176.7600  141.0640 C   0  0  2  0  0  3  0  0  0  0  0  0
  191.2580  177.3170  139.7510 N   0  0  0  0  0  0  0  0  0  0  0  0
  192.2950  176.5200  139.1230 C   0  0  0  0  0  2  0  0  0  0  0  0
  192.0830  176.5110  137.6150 C   0  0  2  0  0  3  0  0  0  0  0  0
  191.0210  175.4800  137.2600 C   0  0  2  0  0  3  0  0  0  0  0  0
  192.9830  174.2620  137.8480 O   0  0  0  0  0  1  0  0  0  0  0  0
  192.4800  175.1990  136.9410 C   0  0  2  0  0  3  0  0  0  0  0  0
  190.1590  174.9700  134.8720 C   0  0  0  0  0  2  0  0  0  0  0  0
  190.2100  175.9470  136.0370 C   0  0  0  0  0  0  0  0  0  0  0  0
  191.1260  176.1410  134.8410 C   0  0  0  0  0  2  0  0  0  0  0  0
  186.7070  175.8730  135.8200 C   0  0  0  0  0  3  0  0  0  0  0  0
  188.2590  178.5050  137.8580 N   0  0  0  0  0  2  0  0  0  0  0  0
  188.8060  177.6360  134.7840 C   0  0  0  0  0  1  0  0  0  0  0  0
  189.0640  176.9960  136.1470 C   0  0  2  0  0  0  0  0  0  0  0  0
  185.4120  176.0790  136.0920 C   0  0  0  0  0  3  0  0  0  0  0  0
  189.4650  178.1140  137.1380 C   0  0  0  0  0  2  0  0  0  0  0  0
  187.2560  177.5580  137.5690 C   0  0  0  0  0  0  0  0  0  0  0  0
  185.9600  177.7560  137.7920 C   0  0  0  0  0  3  0  0  0  0  0  0
  187.7570  176.4340  136.7510 C   0  0  1  0  0  3  0  0  0  0  0  0
  185.0290  176.9160  137.1580 O   0  0  0  0  0  0  0  0  0  0  0  0
  1  2  1  0  0  0  0
  2  3  1  0  0  0  0
  2  6  1  0  0  0  0
  6  5  1  6  0  0  0
  6  4  1  0  0  0  0
  7 16  1  0  0  0  0
  8  7  1  0  0  0  0
  9  8  1  1  0  0  0
  9 13  1  0  0  0  0
 10 11  1  0  0  0  0
 10 15  1  0  0  0  0
 11 17  1  6  0  0  0
 11  9  1  0  0  0  0
 12 13  1  0  0  0  0
 13 14  1  1  0  0  0
 14 16  1  0  0  0  0
 15  6  1  6  0  0  0
 15 12  1  0  0  0  0
 17 18  1  6  0  0  0
 19 17  1  0  0  0  0
 20 23  1  0  0  0  0
 20 21  1  0  0  0  0
 21 26  1  6  0  0  0
 21 24  1  0  0  0  0
 22 20  1  0  0  0  0
 23 24  1  0  0  0  0
 24 19  1  1  0  0  0
 26 25  1  0  0  0  0
 27 28  1  0  0  0  0
 28  2  1  1  0  0  0
 29 27  1  0  0  0  0
 29 28  1  0  0  0  0
 30 29  1  0  0  0  0
 31 30  1  1  0  0  0
 32 36  1  6  0  0  0
 32 31  1  0  0  0  0
 34 32  1  0  0  0  0
 34 31  1  0  0  0  0
 34 33  1  1  0  0  0
 35 36  1  0  0  0  0
 36 41  1  0  0  0  0
 37 35  1  0  0  0  0
 37 36  1  0  0  0  0
 38 42  2  0  0  0  0
 41 40  1  6  0  0  0
 41 46  1  0  0  0  0
 41 43  1  0  0  0  0
 42 47  1  0  0  0  0
 43 39  1  0  0  0  0
 44 45  2  0  0  0  0
 44 39  1  0  0  0  0
 46 38  1  6  0  0  0
 46 44  1  0  0  0  0
 47 45  1  0  0  0  0
M  END
>  <MODEL>
3

>  <REMARK>
 VINA RESULT:      -8.8      2.964      7.898
  Name = 
  11 active torsions:
  status: ('A' for Active; 'I' for Inactive)
    1  A    between atoms: C_1  and  C_7
    2  A    between atoms: C_1  and  C_47
    3  A    between atoms: C_7  and  C_24
    4  A    between atoms: C_11  and  C_41
    5  A    between atoms: C_14  and  C_40
    6  A    between atoms: C_15  and  C_23
    7  A    between atoms: C_15  and  C_28
    8  A    between atoms: C_20  and  C_21
    9  A    between atoms: C_20  and  C_22
   10  A    between atoms: N_26  and  C_40
   11  A    between atoms: C_28  and  C_38
                            x       y       z     vdW  Elec       q    Type
                         _______ _______ _______ _____ _____    ______ ____

>  <TORSDO>
F 11

$$$$
=
 OpenBabel11062417323D

 47 54  0  0  1  0  0  0  0  0999 V2000
  183.7180  180.4560  144.0180 F   0  0  0  0  0  0  0  0  0  0  0  0
  183.5820  179.0840  143.8380 C   0  0  0  0  0  0  0  0  0  0  0  0
  182.2280  178.7860  143.8350 F   0  0  0  0  0  0  0  0  0  0  0  0
  184.9480  177.5340  142.6450 O   0  0  0  0  0  1  0  0  0  0  0  0
  185.0020  179.6990  142.0060 F   0  0  0  0  0  0  0  0  0  0  0  0
  184.1760  178.6870  142.4730 C   0  0  2  0  0  0  0  0  0  0  0  0
  179.3580  178.8810  138.3560 C   0  0  0  0  0  2  0  0  0  0  0  0
  180.3140  177.6920  138.5350 C   0  0  0  0  0  2  0  0  0  0  0  0
  181.6900  178.0900  139.0980 C   0  0  2  0  0  3  0  0  0  0  0  0
  183.5200  177.4110  140.5260 O   0  0  0  0  0  0  0  0  0  0  0  0
  182.3760  176.9320  139.8520 C   0  0  2  0  0  3  0  0  0  0  0  0
  182.7480  179.5590  140.7150 O   0  0  0  0  0  0  0  0  0  0  0  0
  181.5350  179.2740  140.0660 C   0  0  1  0  0  3  0  0  0  0  0  0
  181.0240  180.5200  139.3330 C   0  0  0  0  0  2  0  0  0  0  0  0
  183.0840  178.3970  141.4330 C   0  0  2  0  0  3  0  0  0  0  0  0
  180.1200  180.1880  138.1370 C   0  0  0  0  0  2  0  0  0  0  0  0
  182.7890  175.8160  138.8850 C   0  0  1  0  0  3  0  0  0  0  0  0
  181.7060  174.9710  138.6260 O   0  0  0  0  0  1  0  0  0  0  0  0
  183.2870  176.3990  137.5710 C   0  0  0  0  0  2  0  0  0  0  0  0
  185.5480  176.0880  135.3470 N   0  0  0  0  0  0  0  0  0  0  0  0
  185.3810  177.0750  136.4350 C   0  0  1  0  0  3  0  0  0  0  0  0
  186.9260  175.6470  135.1480 C   0  0  0  0  0  1  0  0  0  0  0  0
  184.9220  175.0970  136.2120 C   0  0  0  0  0  2  0  0  0  0  0  0
  184.7580  176.0660  137.3670 C   0  0  2  0  0  3  0  0  0  0  0  0
  186.4130  178.8830  137.6230 O   0  0  0  0  0  1  0  0  0  0  0  0
  186.6730  177.6450  137.0350 C   0  0  0  0  0  2  0  0  0  0  0  0
  184.0290  178.9380  146.1680 O   0  0  0  0  0  0  0  0  0  0  0  0
  184.2300  178.2950  144.9880 C   0  0  2  0  0  3  0  0  0  0  0  0
  185.2950  179.0420  145.6130 N   0  0  0  0  0  0  0  0  0  0  0  0
  186.1310  178.0790  146.3050 C   0  0  0  0  0  2  0  0  0  0  0  0
  187.5940  178.3620  145.9920 C   0  0  2  0  0  3  0  0  0  0  0  0
  188.3690  177.0530  145.9690 C   0  0  2  0  0  3  0  0  0  0  0  0
  187.8860  177.5180  148.2550 O   0  0  0  0  0  1  0  0  0  0  0  0
  188.5510  178.0150  147.1310 C   0  0  2  0  0  3  0  0  0  0  0  0
  190.9180  177.1250  145.5140 C   0  0  0  0  0  2  0  0  0  0  0  0
  189.5100  177.1240  144.9370 C   0  0  0  0  0  0  0  0  0  0  0  0
  190.2710  178.4300  145.0820 C   0  0  0  0  0  2  0  0  0  0  0  0
  188.1330  178.4640  141.9990 C   0  0  0  0  0  3  0  0  0  0  0  0
  190.8210  175.9840  141.6740 N   0  0  0  0  0  2  0  0  0  0  0  0
  188.0340  175.8530  143.3240 C   0  0  0  0  0  1  0  0  0  0  0  0
  189.3350  176.6410  143.4660 C   0  0  2  0  0  0  0  0  0  0  0  0
  187.9770  178.8320  140.7210 C   0  0  0  0  0  3  0  0  0  0  0  0
  190.5100  175.7140  143.0720 C   0  0  0  0  0  2  0  0  0  0  0  0
  190.1230  177.1460  141.2910 C   0  0  0  0  0  0  0  0  0  0  0  0
  189.9200  177.5100  140.0280 C   0  0  0  0  0  3  0  0  0  0  0  0
  189.4110  177.7770  142.4210 C   0  0  1  0  0  3  0  0  0  0  0  0
  188.9320  178.4700  139.7510 O   0  0  0  0  0  0  0  0  0  0  0  0
  2  1  1  0  0  0  0
  3  2  1  0  0  0  0
  6  5  1  6  0  0  0
  6  4  1  0  0  0  0
  6  2  1  0  0  0  0
  7  8  1  0  0  0  0
  9  8  1  1  0  0  0
  9 11  1  0  0  0  0
  9 13  1  0  0  0  0
 10 15  1  0  0  0  0
 11 17  1  6  0  0  0
 11 10  1  0  0  0  0
 12 15  1  0  0  0  0
 13 14  1  6  0  0  0
 13 12  1  0  0  0  0
 15  6  1  1  0  0  0
 16  7  1  0  0  0  0
 16 14  1  0  0  0  0
 17 18  1  6  0  0  0
 19 17  1  0  0  0  0
 20 23  1  0  0  0  0
 20 21  1  0  0  0  0
 21 26  1  1  0  0  0
 21 24  1  0  0  0  0
 22 20  1  0  0  0  0
 23 24  1  0  0  0  0
 24 19  1  6  0  0  0
 26 25  1  0  0  0  0
 28  2  1  6  0  0  0
 28 29  1  0  0  0  0
 28 27  1  0  0  0  0
 29 27  1  0  0  0  0
 29 30  1  0  0  0  0
 31 30  1  1  0  0  0
 31 34  1  0  0  0  0
 32 36  1  6  0  0  0
 32 31  1  0  0  0  0
 32 34  1  0  0  0  0
 34 33  1  1  0  0  0
 36 37  1  0  0  0  0
 36 35  1  0  0  0  0
 37 35  1  0  0  0  0
 39 43  1  0  0  0  0
 41 40  1  6  0  0  0
 41 36  1  0  0  0  0
 42 38  2  0  0  0  0
 43 41  1  0  0  0  0
 44 39  1  0  0  0  0
 44 46  1  0  0  0  0
 45 44  2  0  0  0  0
 46 38  1  6  0  0  0
 46 41  1  0  0  0  0
 47 45  1  0  0  0  0
 47 42  1  0  0  0  0
M  END
>  <MODEL>
4

>  <REMARK>
 VINA RESULT:      -8.8      1.935      2.705
  Name = 
  11 active torsions:
  status: ('A' for Active; 'I' for Inactive)
    1  A    between atoms: C_1  and  C_7
    2  A    between atoms: C_1  and  C_47
    3  A    between atoms: C_7  and  C_24
    4  A    between atoms: C_11  and  C_41
    5  A    between atoms: C_14  and  C_40
    6  A    between atoms: C_15  and  C_23
    7  A    between atoms: C_15  and  C_28
    8  A    between atoms: C_20  and  C_21
    9  A    between atoms: C_20  and  C_22
   10  A    between atoms: N_26  and  C_40
   11  A    between atoms: C_28  and  C_38
                            x       y       z     vdW  Elec       q    Type
                         _______ _______ _______ _____ _____    ______ ____

>  <TORSDO>
F 11

$$$$
=
 OpenBabel11062417323D

 47 54  0  0  1  0  0  0  0  0999 V2000
  185.1530  179.1160  142.5210 F   0  0  0  0  0  0  0  0  0  0  0  0
  184.4040  179.2640  143.6830 C   0  0  0  0  0  0  0  0  0  0  0  0
  184.5080  180.5840  144.0940 F   0  0  0  0  0  0  0  0  0  0  0  0
  182.2080  180.1580  143.4200 O   0  0  0  0  0  1  0  0  0  0  0  0
  182.4100  178.1100  144.3480 F   0  0  0  0  0  0  0  0  0  0  0  0
  182.9250  178.9580  143.3790 C   0  0  2  0  0  0  0  0  0  0  0  0
  180.8710  175.9990  138.1620 C   0  0  0  0  0  2  0  0  0  0  0  0
  182.1710  176.8110  138.2570 C   0  0  0  0  0  2  0  0  0  0  0  0
  182.1440  177.8850  139.3580 C   0  0  2  0  0  3  0  0  0  0  0  0
  183.4540  179.0550  141.0210 O   0  0  0  0  0  0  0  0  0  0  0  0
  183.5540  178.2360  139.8760 C   0  0  2  0  0  3  0  0  0  0  0  0
  181.3840  178.2860  141.6290 O   0  0  0  0  0  0  0  0  0  0  0  0
  181.3000  177.3960  140.5450 C   0  0  1  0  0  3  0  0  0  0  0  0
  179.8360  177.2020  140.1350 C   0  0  0  0  0  2  0  0  0  0  0  0
  182.7430  178.3230  141.9920 C   0  0  2  0  0  3  0  0  0  0  0  0
  179.6690  176.7990  138.6620 C   0  0  0  0  0  2  0  0  0  0  0  0
  184.3690  178.9660  138.8020 C   0  0  1  0  0  3  0  0  0  0  0  0
  184.4830  180.3240  139.1160 O   0  0  0  0  0  1  0  0  0  0  0  0
  185.7630  178.3670  138.6840 C   0  0  0  0  0  2  0  0  0  0  0  0
  187.7460  176.7030  136.8260 N   0  0  0  0  0  0  0  0  0  0  0  0
  186.3070  176.5300  137.1150 C   0  0  1  0  0  3  0  0  0  0  0  0
  188.1060  176.4700  135.4300 C   0  0  0  0  0  1  0  0  0  0  0  0
  187.5540  178.1400  136.9650 C   0  0  0  0  0  2  0  0  0  0  0  0
  186.0670  178.0150  137.2350 C   0  0  2  0  0  3  0  0  0  0  0  0
  184.6030  176.9070  135.4710 O   0  0  0  0  0  1  0  0  0  0  0  0
  185.4570  175.9310  135.9870 C   0  0  0  0  0  2  0  0  0  0  0  0
  184.7600  178.9940  146.0180 O   0  0  0  0  0  0  0  0  0  0  0  0
  184.9420  178.3790  144.8200 C   0  0  2  0  0  3  0  0  0  0  0  0
  186.0480  179.0040  145.5050 N   0  0  0  0  0  0  0  0  0  0  0  0
  186.7730  177.9460  146.1830 C   0  0  0  0  0  2  0  0  0  0  0  0
  188.2700  178.1530  145.9880 C   0  0  2  0  0  3  0  0  0  0  0  0
  188.9190  176.8280  145.6170 C   0  0  2  0  0  3  0  0  0  0  0  0
  188.3760  176.6950  147.9330 O   0  0  0  0  0  1  0  0  0  0  0  0
  189.1360  177.4110  147.0030 C   0  0  2  0  0  3  0  0  0  0  0  0
  191.2580  176.0740  144.7970 C   0  0  0  0  0  2  0  0  0  0  0  0
  190.1080  177.0620  144.6670 C   0  0  0  0  0  0  0  0  0  0  0  0
  191.3490  177.4390  145.4580 C   0  0  0  0  0  2  0  0  0  0  0  0
  191.9980  177.3350  141.7200 C   0  0  0  0  0  3  0  0  0  0  0  0
  188.3620  177.8000  141.4930 N   0  0  0  0  0  2  0  0  0  0  0  0
  190.5420  179.2220  143.4250 C   0  0  0  0  0  1  0  0  0  0  0  0
  189.9570  177.8150  143.3110 C   0  0  2  0  0  0  0  0  0  0  0  0
  192.3340  177.3670  140.4240 C   0  0  0  0  0  3  0  0  0  0  0  0
  188.4610  177.9400  142.9410 C   0  0  0  0  0  2  0  0  0  0  0  0
  189.6100  177.3540  141.0150 C   0  0  0  0  0  0  0  0  0  0  0  0
  189.9830  177.4140  139.7390 C   0  0  0  0  0  3  0  0  0  0  0  0
  190.5620  177.0610  142.1050 C   0  0  1  0  0  3  0  0  0  0  0  0
  191.3450  177.2770  139.4260 O   0  0  0  0  0  0  0  0  0  0  0  0
  1  2  1  0  0  0  0
  2  3  1  0  0  0  0
  6  4  1  1  0  0  0
  6  2  1  0  0  0  0
  6  5  1  0  0  0  0
  7  8  1  0  0  0  0
  7 16  1  0  0  0  0
  9  8  1  6  0  0  0
  9 11  1  0  0  0  0
  9 13  1  0  0  0  0
 10 15  1  0  0  0  0
 11 17  1  6  0  0  0
 11 10  1  0  0  0  0
 12 15  1  0  0  0  0
 13 14  1  6  0  0  0
 13 12  1  0  0  0  0
 15  6  1  1  0  0  0
 16 14  1  0  0  0  0
 17 18  1  1  0  0  0
 19 17  1  0  0  0  0
 20 23  1  0  0  0  0
 20 21  1  0  0  0  0
 21 26  1  6  0  0  0
 21 24  1  0  0  0  0
 22 20  1  0  0  0  0
 23 24  1  0  0  0  0
 24 19  1  1  0  0  0
 25 26  1  0  0  0  0
 28  2  1  6  0  0  0
 28 29  1  0  0  0  0
 28 27  1  0  0  0  0
 29 27  1  0  0  0  0
 29 30  1  0  0  0  0
 31 30  1  1  0  0  0
 31 34  1  0  0  0  0
 32 36  1  6  0  0  0
 32 31  1  0  0  0  0
 32 34  1  0  0  0  0
 34 33  1  1  0  0  0
 35 37  1  0  0  0  0
 36 35  1  0  0  0  0
 36 37  1  0  0  0  0
 39 43  1  0  0  0  0
 41 40  1  1  0  0  0
 41 36  1  0  0  0  0
 42 38  2  0  0  0  0
 43 41  1  0  0  0  0
 44 39  1  0  0  0  0
 44 46  1  0  0  0  0
 45 44  2  0  0  0  0
 46 38  1  6  0  0  0
 46 41  1  0  0  0  0
 47 45  1  0  0  0  0
 47 42  1  0  0  0  0
M  END
>  <MODEL>
5

>  <REMARK>
 VINA RESULT:      -8.7      1.566      2.261
  Name = 
  11 active torsions:
  status: ('A' for Active; 'I' for Inactive)
    1  A    between atoms: C_1  and  C_7
    2  A    between atoms: C_1  and  C_47
    3  A    between atoms: C_7  and  C_24
    4  A    between atoms: C_11  and  C_41
    5  A    between atoms: C_14  and  C_40
    6  A    between atoms: C_15  and  C_23
    7  A    between atoms: C_15  and  C_28
    8  A    between atoms: C_20  and  C_21
    9  A    between atoms: C_20  and  C_22
   10  A    between atoms: N_26  and  C_40
   11  A    between atoms: C_28  and  C_38
                            x       y       z     vdW  Elec       q    Type
                         _______ _______ _______ _____ _____    ______ ____

>  <TORSDO>
F 11

$$$$
=
 OpenBabel11062417323D

 47 54  0  0  1  0  0  0  0  0999 V2000
  184.5670  180.3700  145.0850 F   0  0  0  0  0  0  0  0  0  0  0  0
  184.3640  179.0160  144.8460 C   0  0  0  0  0  0  0  0  0  0  0  0
  183.0130  178.7510  145.0070 F   0  0  0  0  0  0  0  0  0  0  0  0
  185.3710  177.4330  143.3720 O   0  0  0  0  0  1  0  0  0  0  0  0
  185.6700  179.6270  142.9300 F   0  0  0  0  0  0  0  0  0  0  0  0
  184.7580  178.6900  143.3920 C   0  0  2  0  0  0  0  0  0  0  0  0
  178.9880  178.7180  140.7660 C   0  0  0  0  0  2  0  0  0  0  0  0
  180.3090  178.7720  139.9840 C   0  0  0  0  0  2  0  0  0  0  0  0
  181.4790  179.3530  140.7970 C   0  0  2  0  0  3  0  0  0  0  0  0
  183.8580  179.2320  141.2140 O   0  0  0  0  0  0  0  0  0  0  0  0
  182.8500  178.8440  140.3060 C   0  0  2  0  0  3  0  0  0  0  0  0
  182.4550  179.3580  143.0200 O   0  0  0  0  0  0  0  0  0  0  0  0
  181.3250  178.9770  142.2790 C   0  0  1  0  0  3  0  0  0  0  0  0
  180.0630  179.6100  142.8780 C   0  0  0  0  0  2  0  0  0  0  0  0
  183.5390  178.6570  142.4590 C   0  0  2  0  0  3  0  0  0  0  0  0
  178.9330  179.7890  141.8540 C   0  0  0  0  0  2  0  0  0  0  0  0
  183.1780  179.4020  138.9160 C   0  0  1  0  0  3  0  0  0  0  0  0
  184.4170  180.0500  138.9320 O   0  0  0  0  0  1  0  0  0  0  0  0
  183.2180  178.2860  137.8830 C   0  0  0  0  0  2  0  0  0  0  0  0
  185.2570  176.2680  136.4960 N   0  0  0  0  0  0  0  0  0  0  0  0
  185.4740  177.5760  137.1480 C   0  0  1  0  0  3  0  0  0  0  0  0
  186.2880  175.2760  136.7910 C   0  0  0  0  0  1  0  0  0  0  0  0
  184.1760  176.0270  137.4430 C   0  0  0  0  0  2  0  0  0  0  0  0
  184.3810  177.3460  138.1620 C   0  0  2  0  0  3  0  0  0  0  0  0
  187.3750  179.0000  137.4730 O   0  0  0  0  0  1  0  0  0  0  0  0
  186.8280  177.7710  137.8410 C   0  0  0  0  0  2  0  0  0  0  0  0
  185.3350  178.8260  147.0070 O   0  0  0  0  0  0  0  0  0  0  0  0
  185.1330  178.1420  145.8500 C   0  0  2  0  0  3  0  0  0  0  0  0
  186.4270  178.7010  146.1620 N   0  0  0  0  0  0  0  0  0  0  0  0
  187.2360  177.6170  146.6870 C   0  0  0  0  0  2  0  0  0  0  0  0
  188.7030  177.8870  146.3810 C   0  0  2  0  0  3  0  0  0  0  0  0
  189.3390  176.6300  145.8050 C   0  0  2  0  0  3  0  0  0  0  0  0
  189.0180  176.2260  148.1310 O   0  0  0  0  0  1  0  0  0  0  0  0
  189.6740  177.0620  147.2230 C   0  0  2  0  0  3  0  0  0  0  0  0
  191.6650  176.1150  144.7900 C   0  0  0  0  0  2  0  0  0  0  0  0
  190.4290  177.0010  144.7830 C   0  0  0  0  0  0  0  0  0  0  0  0
  191.6890  177.4580  145.4990 C   0  0  0  0  0  2  0  0  0  0  0  0
  191.9910  177.4220  141.6670 C   0  0  0  0  0  3  0  0  0  0  0  0
  188.3380  177.7630  141.8310 N   0  0  0  0  0  2  0  0  0  0  0  0
  190.6600  179.2080  143.5700 C   0  0  0  0  0  1  0  0  0  0  0  0
  190.1130  177.7850  143.4740 C   0  0  2  0  0  0  0  0  0  0  0  0
  192.1890  177.5010  140.3450 C   0  0  0  0  0  3  0  0  0  0  0  0
  188.5830  177.8660  143.2640 C   0  0  0  0  0  2  0  0  0  0  0  0
  189.5430  177.3750  141.2130 C   0  0  0  0  0  0  0  0  0  0  0  0
  189.7790  177.4820  139.9080 C   0  0  0  0  0  3  0  0  0  0  0  0
  190.6130  177.0860  142.1890 C   0  0  1  0  0  3  0  0  0  0  0  0
  191.1050  177.4030  139.4520 O   0  0  0  0  0  0  0  0  0  0  0  0
  2  3  1  0  0  0  0
  2  1  1  0  0  0  0
  4  6  1  0  0  0  0
  6  5  1  6  0  0  0
  6  2  1  0  0  0  0
  7 16  1  0  0  0  0
  8  7  1  0  0  0  0
  9  8  1  6  0  0  0
  9 13  1  0  0  0  0
 10 15  1  0  0  0  0
 11 17  1  6  0  0  0
 11  9  1  0  0  0  0
 11 10  1  0  0  0  0
 13 14  1  1  0  0  0
 13 12  1  0  0  0  0
 15 12  1  0  0  0  0
 15  6  1  1  0  0  0
 16 14  1  0  0  0  0
 17 18  1  1  0  0  0
 19 17  1  0  0  0  0
 20 22  1  0  0  0  0
 20 21  1  0  0  0  0
 20 23  1  0  0  0  0
 21 26  1  1  0  0  0
 21 24  1  0  0  0  0
 23 24  1  0  0  0  0
 24 19  1  6  0  0  0
 25 26  1  0  0  0  0
 28  2  1  6  0  0  0
 28 29  1  0  0  0  0
 28 27  1  0  0  0  0
 29 30  1  0  0  0  0
 29 27  1  0  0  0  0
 31 30  1  1  0  0  0
 31 34  1  0  0  0  0
 32 36  1  6  0  0  0
 32 31  1  0  0  0  0
 32 34  1  0  0  0  0
 34 33  1  1  0  0  0
 35 37  1  0  0  0  0
 36 35  1  0  0  0  0
 36 37  1  0  0  0  0
 39 43  1  0  0  0  0
 41 40  1  1  0  0  0
 41 36  1  0  0  0  0
 42 38  2  0  0  0  0
 43 41  1  0  0  0  0
 44 39  1  0  0  0  0
 44 46  1  0  0  0  0
 45 44  2  0  0  0  0
 46 38  1  6  0  0  0
 46 41  1  0  0  0  0
 47 45  1  0  0  0  0
 47 42  1  0  0  0  0
M  END
>  <MODEL>
6

>  <REMARK>
 VINA RESULT:      -8.6      1.778      2.577
  Name = 
  11 active torsions:
  status: ('A' for Active; 'I' for Inactive)
    1  A    between atoms: C_1  and  C_7
    2  A    between atoms: C_1  and  C_47
    3  A    between atoms: C_7  and  C_24
    4  A    between atoms: C_11  and  C_41
    5  A    between atoms: C_14  and  C_40
    6  A    between atoms: C_15  and  C_23
    7  A    between atoms: C_15  and  C_28
    8  A    between atoms: C_20  and  C_21
    9  A    between atoms: C_20  and  C_22
   10  A    between atoms: N_26  and  C_40
   11  A    between atoms: C_28  and  C_38
                            x       y       z     vdW  Elec       q    Type
                         _______ _______ _______ _____ _____    ______ ____

>  <TORSDO>
F 11

$$$$
=
 OpenBabel11062417323D

 47 54  0  0  1  0  0  0  0  0999 V2000
  187.3030  175.7170  137.3240 F   0  0  0  0  0  0  0  0  0  0  0  0
  187.8630  176.9060  136.8710 C   0  0  0  0  0  0  0  0  0  0  0  0
  188.3560  176.6870  135.5940 F   0  0  0  0  0  0  0  0  0  0  0  0
  185.9640  177.7300  135.6850 O   0  0  0  0  0  1  0  0  0  0  0  0
  187.3530  179.2370  136.6320 F   0  0  0  0  0  0  0  0  0  0  0  0
  186.7700  177.9900  136.7980 C   0  0  2  0  0  0  0  0  0  0  0  0
  184.3690  178.2540  142.6600 C   0  0  0  0  0  2  0  0  0  0  0  0
  183.5360  178.2260  141.3690 C   0  0  0  0  0  2  0  0  0  0  0  0
  184.2900  178.7650  140.1410 C   0  0  2  0  0  3  0  0  0  0  0  0
  184.6170  178.5340  137.7560 O   0  0  0  0  0  0  0  0  0  0  0  0
  183.7570  178.1780  138.8170 C   0  0  2  0  0  3  0  0  0  0  0  0
  186.4720  178.7650  139.0780 O   0  0  0  0  0  0  0  0  0  0  0  0
  185.7840  178.4260  140.2550 C   0  0  1  0  0  3  0  0  0  0  0  0
  186.4180  179.1320  141.4590 C   0  0  0  0  0  2  0  0  0  0  0  0
  185.8860  178.0000  138.0540 C   0  0  2  0  0  3  0  0  0  0  0  0
  185.4340  179.3480  142.6180 C   0  0  0  0  0  2  0  0  0  0  0  0
  182.3440  178.6920  138.5170 C   0  0  1  0  0  3  0  0  0  0  0  0
  182.0780  178.6140  137.1470 O   0  0  0  0  0  1  0  0  0  0  0  0
  181.3030  177.8750  139.2690 C   0  0  0  0  0  2  0  0  0  0  0  0
  180.2680  179.7530  141.6250 N   0  0  0  0  0  0  0  0  0  0  0  0
  180.6770  180.0650  140.2400 C   0  0  1  0  0  3  0  0  0  0  0  0
  179.0990  180.5000  142.0850 C   0  0  0  0  0  1  0  0  0  0  0  0
  179.7700  178.4720  141.1420 C   0  0  0  0  0  2  0  0  0  0  0  0
  180.1440  178.7610  139.7010 C   0  0  2  0  0  3  0  0  0  0  0  0
  180.7780  181.7780  138.5650 O   0  0  0  0  0  1  0  0  0  0  0  0
  179.9720  181.2560  139.5780 C   0  0  0  0  0  2  0  0  0  0  0  0
  189.8270  176.2840  138.0580 O   0  0  0  0  0  0  0  0  0  0  0  0
  189.0410  177.3500  137.7550 C   0  0  2  0  0  3  0  0  0  0  0  0
  188.9870  176.7410  139.0610 N   0  0  0  0  0  0  0  0  0  0  0  0
  189.7990  177.5610  139.9410 C   0  0  0  0  0  2  0  0  0  0  0  0
  190.4430  176.6800  141.0030 C   0  0  2  0  0  3  0  0  0  0  0  0
  190.9620  177.5520  142.1360 C   0  0  2  0  0  3  0  0  0  0  0  0
  192.4390  177.8780  140.2950 O   0  0  0  0  0  1  0  0  0  0  0  0
  191.9430  176.9080  141.1720 C   0  0  2  0  0  3  0  0  0  0  0  0
  191.6820  175.5360  143.5950 C   0  0  0  0  0  2  0  0  0  0  0  0
  190.8520  176.8060  143.4790 C   0  0  0  0  0  0  0  0  0  0  0  0
  190.1980  175.4510  143.2770 C   0  0  0  0  0  2  0  0  0  0  0  0
  187.8440  177.8810  144.9370 C   0  0  0  0  0  3  0  0  0  0  0  0
  190.6410  177.0380  147.1630 N   0  0  0  0  0  2  0  0  0  0  0  0
  190.5160  179.0400  144.6170 C   0  0  0  0  0  1  0  0  0  0  0  0
  190.4480  177.5250  144.8020 C   0  0  2  0  0  0  0  0  0  0  0  0
  186.8710  178.0960  145.8310 C   0  0  0  0  0  3  0  0  0  0  0  0
  191.4220  177.1300  145.9360 C   0  0  0  0  0  2  0  0  0  0  0  0
  189.2770  177.0880  146.8120 C   0  0  0  0  0  0  0  0  0  0  0  0
  188.2960  177.3410  147.6740 C   0  0  0  0  0  3  0  0  0  0  0  0
  189.0680  177.0960  145.3500 C   0  0  1  0  0  3  0  0  0  0  0  0
  187.0370  177.7120  147.1750 O   0  0  0  0  0  0  0  0  0  0  0  0
  2  1  1  0  0  0  0
  3  2  1  0  0  0  0
  5  6  1  0  0  0  0
  6  4  1  6  0  0  0
  6  2  1  0  0  0  0
  8  7  1  0  0  0  0
  9 13  1  0  0  0  0
  9  8  1  1  0  0  0
 10 15  1  0  0  0  0
 10 11  1  0  0  0  0
 11 17  1  6  0  0  0
 11  9  1  0  0  0  0
 12 13  1  0  0  0  0
 13 14  1  1  0  0  0
 14 16  1  0  0  0  0
 15  6  1  6  0  0  0
 15 12  1  0  0  0  0
 16  7  1  0  0  0  0
 17 18  1  6  0  0  0
 17 19  1  0  0  0  0
 20 22  1  0  0  0  0
 21 26  1  6  0  0  0
 21 20  1  0  0  0  0
 23 20  1  0  0  0  0
 24 19  1  1  0  0  0
 24 21  1  0  0  0  0
 24 23  1  0  0  0  0
 25 26  1  0  0  0  0
 27 29  1  0  0  0  0
 28  2  1  6  0  0  0
 28 27  1  0  0  0  0
 28 29  1  0  0  0  0
 29 30  1  0  0  0  0
 31 30  1  6  0  0  0
 31 34  1  0  0  0  0
 31 32  1  0  0  0  0
 32 36  1  1  0  0  0
 34 33  1  6  0  0  0
 34 32  1  0  0  0  0
 36 35  1  0  0  0  0
 36 41  1  0  0  0  0
 37 36  1  0  0  0  0
 37 35  1  0  0  0  0
 38 42  2  0  0  0  0
 41 40  1  6  0  0  0
 41 46  1  0  0  0  0
 41 43  1  0  0  0  0
 42 47  1  0  0  0  0
 43 39  1  0  0  0  0
 44 39  1  0  0  0  0
 44 45  2  0  0  0  0
 46 38  1  1  0  0  0
 46 44  1  0  0  0  0
 47 45  1  0  0  0  0
M  END
>  <MODEL>
7

>  <REMARK>
 VINA RESULT:      -8.4      2.858      6.512
  Name = 
  11 active torsions:
  status: ('A' for Active; 'I' for Inactive)
    1  A    between atoms: C_1  and  C_7
    2  A    between atoms: C_1  and  C_47
    3  A    between atoms: C_7  and  C_24
    4  A    between atoms: C_11  and  C_41
    5  A    between atoms: C_14  and  C_40
    6  A    between atoms: C_15  and  C_23
    7  A    between atoms: C_15  and  C_28
    8  A    between atoms: C_20  and  C_21
    9  A    between atoms: C_20  and  C_22
   10  A    between atoms: N_26  and  C_40
   11  A    between atoms: C_28  and  C_38
                            x       y       z     vdW  Elec       q    Type
                         _______ _______ _______ _____ _____    ______ ____

>  <TORSDO>
F 11

$$$$
=
 OpenBabel11062417323D

 47 54  0  0  1  0  0  0  0  0999 V2000
  187.3540  175.8880  137.5000 F   0  0  0  0  0  0  0  0  0  0  0  0
  187.7140  177.1440  137.0240 C   0  0  0  0  0  0  0  0  0  0  0  0
  188.2900  176.9790  135.7740 F   0  0  0  0  0  0  0  0  0  0  0  0
  185.6770  177.4920  135.8290 O   0  0  0  0  0  1  0  0  0  0  0  0
  186.8080  179.3110  136.5420 F   0  0  0  0  0  0  0  0  0  0  0  0
  186.4500  178.0130  136.8720 C   0  0  2  0  0  0  0  0  0  0  0  0
  184.2250  178.2530  142.8040 C   0  0  0  0  0  2  0  0  0  0  0  0
  183.3550  178.2550  141.5380 C   0  0  0  0  0  2  0  0  0  0  0  0
  184.0820  178.7940  140.2940 C   0  0  2  0  0  3  0  0  0  0  0  0
  184.3360  178.5850  137.8980 O   0  0  0  0  0  0  0  0  0  0  0  0
  183.5010  178.2330  138.9800 C   0  0  2  0  0  3  0  0  0  0  0  0
  186.2330  178.7670  139.1680 O   0  0  0  0  0  0  0  0  0  0  0  0
  185.5730  178.4270  140.3610 C   0  0  1  0  0  3  0  0  0  0  0  0
  186.2540  179.1080  141.5530 C   0  0  0  0  0  2  0  0  0  0  0  0
  185.6030  178.0240  138.1530 C   0  0  2  0  0  3  0  0  0  0  0  0
  185.3090  179.3280  142.7440 C   0  0  0  0  0  2  0  0  0  0  0  0
  182.0900  178.7760  138.7280 C   0  0  1  0  0  3  0  0  0  0  0  0
  182.1530  180.0150  138.0840 O   0  0  0  0  0  1  0  0  0  0  0  0
  181.2880  177.8110  137.8650 C   0  0  0  0  0  2  0  0  0  0  0  0
  179.9750  174.9100  137.7690 N   0  0  0  0  0  0  0  0  0  0  0  0
  181.2600  175.4150  137.2420 C   0  0  1  0  0  3  0  0  0  0  0  0
  180.0560  173.5800  138.3670 C   0  0  0  0  0  1  0  0  0  0  0  0
  180.1040  175.8600  138.8660 C   0  0  0  0  0  2  0  0  0  0  0  0
  181.4400  176.3880  138.3810 C   0  0  2  0  0  3  0  0  0  0  0  0
  183.4800  174.8770  137.9710 O   0  0  0  0  0  1  0  0  0  0  0  0
  182.4160  174.4070  137.2000 C   0  0  0  0  0  2  0  0  0  0  0  0
  189.9800  177.2610  137.7330 O   0  0  0  0  0  0  0  0  0  0  0  0
  188.7560  177.8170  137.9320 C   0  0  2  0  0  3  0  0  0  0  0  0
  189.3100  176.8880  138.8880 N   0  0  0  0  0  0  0  0  0  0  0  0
  189.8710  177.6810  139.9660 C   0  0  0  0  0  2  0  0  0  0  0  0
  190.4740  176.7540  141.0140 C   0  0  2  0  0  3  0  0  0  0  0  0
  191.0270  177.5840  142.1630 C   0  0  2  0  0  3  0  0  0  0  0  0
  192.5220  177.8780  140.3310 O   0  0  0  0  0  1  0  0  0  0  0  0
  191.9820  176.9150  141.1890 C   0  0  2  0  0  3  0  0  0  0  0  0
  191.6820  175.5320  143.6010 C   0  0  0  0  0  2  0  0  0  0  0  0
  190.8820  176.8210  143.4930 C   0  0  0  0  0  0  0  0  0  0  0  0
  190.2020  175.4830  143.2610 C   0  0  0  0  0  2  0  0  0  0  0  0
  187.8690  177.8770  144.9540 C   0  0  0  0  0  3  0  0  0  0  0  0
  190.6650  177.0230  147.1780 N   0  0  0  0  0  2  0  0  0  0  0  0
  190.5390  179.0450  144.6480 C   0  0  0  0  0  1  0  0  0  0  0  0
  190.4740  177.5280  144.8200 C   0  0  2  0  0  0  0  0  0  0  0  0
  186.8940  178.0830  145.8480 C   0  0  0  0  0  3  0  0  0  0  0  0
  191.4470  177.1270  145.9530 C   0  0  0  0  0  2  0  0  0  0  0  0
  189.3010  177.0730  146.8260 C   0  0  0  0  0  0  0  0  0  0  0  0
  188.3180  177.3170  147.6880 C   0  0  0  0  0  3  0  0  0  0  0  0
  189.0940  177.0920  145.3630 C   0  0  1  0  0  3  0  0  0  0  0  0
  187.0590  177.6890  147.1900 O   0  0  0  0  0  0  0  0  0  0  0  0
  2  1  1  0  0  0  0
  3  2  1  0  0  0  0
  5  6  1  0  0  0  0
  6  4  1  6  0  0  0
  6  2  1  0  0  0  0
  8  7  1  0  0  0  0
  9 13  1  0  0  0  0
  9  8  1  1  0  0  0
 10 15  1  0  0  0  0
 10 11  1  0  0  0  0
 11 17  1  6  0  0  0
 11  9  1  0  0  0  0
 12 13  1  0  0  0  0
 13 14  1  1  0  0  0
 14 16  1  0  0  0  0
 15  6  1  6  0  0  0
 15 12  1  0  0  0  0
 16  7  1  0  0  0  0
 17 18  1  6  0  0  0
 19 17  1  0  0  0  0
 20 22  1  0  0  0  0
 20 23  1  0  0  0  0
 21 26  1  1  0  0  0
 21 20  1  0  0  0  0
 21 24  1  0  0  0  0
 24 19  1  6  0  0  0
 24 23  1  0  0  0  0
 26 25  1  0  0  0  0
 27 28  1  0  0  0  0
 27 29  1  0  0  0  0
 28  2  1  6  0  0  0
 28 29  1  0  0  0  0
 29 30  1  0  0  0  0
 31 30  1  6  0  0  0
 31 34  1  0  0  0  0
 31 32  1  0  0  0  0
 32 36  1  1  0  0  0
 34 33  1  6  0  0  0
 34 32  1  0  0  0  0
 36 35  1  0  0  0  0
 36 41  1  0  0  0  0
 37 36  1  0  0  0  0
 37 35  1  0  0  0  0
 38 42  2  0  0  0  0
 41 40  1  6  0  0  0
 41 46  1  0  0  0  0
 41 43  1  0  0  0  0
 42 47  1  0  0  0  0
 43 39  1  0  0  0  0
 44 39  1  0  0  0  0
 44 45  2  0  0  0  0
 46 38  1  1  0  0  0
 46 44  1  0  0  0  0
 47 45  1  0  0  0  0
M  END
>  <MODEL>
8

>  <REMARK>
 VINA RESULT:      -8.4      2.975      6.152
  Name = 
  11 active torsions:
  status: ('A' for Active; 'I' for Inactive)
    1  A    between atoms: C_1  and  C_7
    2  A    between atoms: C_1  and  C_47
    3  A    between atoms: C_7  and  C_24
    4  A    between atoms: C_11  and  C_41
    5  A    between atoms: C_14  and  C_40
    6  A    between atoms: C_15  and  C_23
    7  A    between atoms: C_15  and  C_28
    8  A    between atoms: C_20  and  C_21
    9  A    between atoms: C_20  and  C_22
   10  A    between atoms: N_26  and  C_40
   11  A    between atoms: C_28  and  C_38
                            x       y       z     vdW  Elec       q    Type
                         _______ _______ _______ _____ _____    ______ ____

>  <TORSDO>
F 11

$$$$
=
 OpenBabel11062417323D

 47 54  0  0  1  0  0  0  0  0999 V2000
  188.7110  176.7240  141.0780 F   0  0  0  0  0  0  0  0  0  0  0  0
  189.8560  177.3470  141.5610 C   0  0  0  0  0  0  0  0  0  0  0  0
  189.5200  178.6450  141.9140 F   0  0  0  0  0  0  0  0  0  0  0  0
  191.6020  177.1140  143.1700 O   0  0  0  0  0  1  0  0  0  0  0  0
  190.4840  175.2540  142.5480 F   0  0  0  0  0  0  0  0  0  0  0  0
  190.3470  176.6070  142.8200 C   0  0  2  0  0  0  0  0  0  0  0  0
  187.6190  177.3810  148.4910 C   0  0  0  0  0  2  0  0  0  0  0  0
  186.8920  177.4990  147.1430 C   0  0  0  0  0  2  0  0  0  0  0  0
  187.8220  177.8720  145.9750 C   0  0  2  0  0  3  0  0  0  0  0  0
  188.2730  177.5590  143.6200 O   0  0  0  0  0  0  0  0  0  0  0  0
  187.2860  177.3840  144.6140 C   0  0  2  0  0  3  0  0  0  0  0  0
  190.0370  177.4480  145.0750 O   0  0  0  0  0  0  0  0  0  0  0  0
  189.2130  177.2570  146.1970 C   0  0  1  0  0  3  0  0  0  0  0  0
  189.8800  177.8430  147.4470 C   0  0  0  0  0  2  0  0  0  0  0  0
  189.3920  176.7970  144.0080 C   0  0  2  0  0  3  0  0  0  0  0  0
  188.8740  178.2530  148.5320 C   0  0  0  0  0  2  0  0  0  0  0  0
  186.0220  178.1530  144.2130 C   0  0  1  0  0  3  0  0  0  0  0  0
  185.8630  179.2840  145.0200 O   0  0  0  0  0  1  0  0  0  0  0  0
  186.0970  178.5920  142.7580 C   0  0  0  0  0  2  0  0  0  0  0  0
  183.4010  178.1160  141.1280 N   0  0  0  0  0  0  0  0  0  0  0  0
  183.6440  178.3110  142.5720 C   0  0  1  0  0  3  0  0  0  0  0  0
  182.2140  178.8030  140.6240 C   0  0  0  0  0  1  0  0  0  0  0  0
  184.5270  179.0030  140.8660 C   0  0  0  0  0  2  0  0  0  0  0  0
  184.7950  179.2570  142.3360 C   0  0  2  0  0  3  0  0  0  0  0  0
  182.6580  178.7190  144.7190 O   0  0  0  0  0  1  0  0  0  0  0  0
  182.5240  179.0030  143.3590 C   0  0  0  0  0  2  0  0  0  0  0  0
  190.4390  177.9100  139.3260 O   0  0  0  0  0  0  0  0  0  0  0  0
  190.9530  177.4260  140.4870 C   0  0  2  0  0  3  0  0  0  0  0  0
  190.6770  176.5460  139.3770 N   0  0  0  0  0  0  0  0  0  0  0  0
  191.9390  176.3200  138.6970 C   0  0  0  0  0  2  0  0  0  0  0  0
  191.6700  175.8730  137.2660 C   0  0  2  0  0  3  0  0  0  0  0  0
  190.9750  174.5200  137.2810 C   0  0  2  0  0  3  0  0  0  0  0  0
  193.2480  174.1250  137.8790 O   0  0  0  0  0  1  0  0  0  0  0  0
  192.4310  174.6150  136.8560 C   0  0  2  0  0  3  0  0  0  0  0  0
  189.5480  172.9930  135.7510 C   0  0  0  0  0  2  0  0  0  0  0  0
  190.0020  174.4040  136.0940 C   0  0  0  0  0  0  0  0  0  0  0  0
  190.6550  173.6530  134.9470 C   0  0  0  0  0  2  0  0  0  0  0  0
  187.4690  176.3190  137.5930 C   0  0  0  0  0  3  0  0  0  0  0  0
  189.4310  177.8540  134.8940 N   0  0  0  0  0  2  0  0  0  0  0  0
  187.8220  175.0420  134.9800 C   0  0  0  0  0  1  0  0  0  0  0  0
  189.0840  175.5830  135.6500 C   0  0  2  0  0  0  0  0  0  0  0  0
  186.7340  177.3650  137.9930 C   0  0  0  0  0  3  0  0  0  0  0  0
  189.8290  176.4770  134.6310 C   0  0  0  0  0  2  0  0  0  0  0  0
  188.7330  177.8770  136.1180 C   0  0  0  0  0  0  0  0  0  0  0  0
  187.9640  178.8860  136.5180 C   0  0  0  0  0  3  0  0  0  0  0  0
  188.7270  176.5620  136.7920 C   0  0  1  0  0  3  0  0  0  0  0  0
  187.0520  178.6680  137.5630 O   0  0  0  0  0  0  0  0  0  0  0  0
  1  2  1  0  0  0  0
  2  3  1  0  0  0  0
  2  6  1  0  0  0  0
  6  5  1  6  0  0  0
  6  4  1  0  0  0  0
  7 16  1  0  0  0  0
  8  7  1  0  0  0  0
  9 13  1  0  0  0  0
  9  8  1  1  0  0  0
 10 15  1  0  0  0  0
 10 11  1  0  0  0  0
 11 17  1  6  0  0  0
 11  9  1  0  0  0  0
 12 13  1  0  0  0  0
 13 14  1  1  0  0  0
 14 16  1  0  0  0  0
 15  6  1  6  0  0  0
 15 12  1  0  0  0  0
 17 18  1  1  0  0  0
 19 17  1  0  0  0  0
 20 21  1  0  0  0  0
 21 26  1  1  0  0  0
 22 20  1  0  0  0  0
 23 20  1  0  0  0  0
 23 24  1  0  0  0  0
 24 21  1  0  0  0  0
 24 19  1  1  0  0  0
 26 25  1  0  0  0  0
 27 29  1  0  0  0  0
 27 28  1  0  0  0  0
 28  2  1  1  0  0  0
 29 28  1  0  0  0  0
 30 29  1  0  0  0  0
 31 32  1  0  0  0  0
 31 30  1  1  0  0  0
 32 36  1  6  0  0  0
 34 31  1  0  0  0  0
 34 32  1  0  0  0  0
 34 33  1  1  0  0  0
 35 36  1  0  0  0  0
 37 35  1  0  0  0  0
 37 36  1  0  0  0  0
 38 42  2  0  0  0  0
 39 44  1  0  0  0  0
 41 40  1  6  0  0  0
 41 36  1  0  0  0  0
 41 46  1  0  0  0  0
 43 39  1  0  0  0  0
 43 41  1  0  0  0  0
 44 45  2  0  0  0  0
 44 46  1  0  0  0  0
 45 47  1  0  0  0  0
 46 38  1  6  0  0  0
 47 42  1  0  0  0  0
M  END
>  <MODEL>
9

>  <REMARK>
 VINA RESULT:      -8.4      2.805      8.695
  Name = 
  11 active torsions:
  status: ('A' for Active; 'I' for Inactive)
    1  A    between atoms: C_1  and  C_7
    2  A    between atoms: C_1  and  C_47
    3  A    between atoms: C_7  and  C_24
    4  A    between atoms: C_11  and  C_41
    5  A    between atoms: C_14  and  C_40
    6  A    between atoms: C_15  and  C_23
    7  A    between atoms: C_15  and  C_28
    8  A    between atoms: C_20  and  C_21
    9  A    between atoms: C_20  and  C_22
   10  A    between atoms: N_26  and  C_40
   11  A    between atoms: C_28  and  C_38
                            x       y       z     vdW  Elec       q    Type
                         _______ _______ _______ _____ _____    ______ ____

>  <TORSDO>
F 11

$$$$
