=
 OpenBabel11062415473D

 44 48  0  0  1  0  0  0  0  0999 V2000
  190.1290  177.5160  142.0360 C   0  0  2  0  0  3  0  0  0  0  0  0
  181.9510  177.6630  138.3790 C   0  0  0  0  0  0  0  0  0  0  0  0
  189.0900  179.6550  141.9080 F   0  0  0  0  0  0  0  0  0  0  0  0
  181.7900  178.6940  137.4670 F   0  0  0  0  0  0  0  0  0  0  0  0
  182.4160  178.2200  139.7340 C   0  0  1  0  0  3  0  0  0  0  0  0
  187.8020  177.7850  141.0650 C   0  0  2  0  0  3  0  0  0  0  0  0
  188.8190  178.3130  142.1110 C   0  0  1  0  0  3  0  0  0  0  0  0
  190.6810  175.2070  138.0330 O   0  0  0  0  0  1  0  0  0  0  0  0
  182.8370  177.2180  140.5930 F   0  0  0  0  0  0  0  0  0  0  0  0
  185.5760  178.0890  140.0380 C   0  0  0  0  0  2  0  0  0  0  0  0
  189.9820  177.3770  138.1630 C   0  0  1  0  0  3  0  0  0  0  0  0
  189.0500  175.8180  136.4830 C   0  0  2  0  0  3  0  0  0  0  0  0
  188.3670  177.1040  139.9570 O   0  0  0  0  0  0  0  0  0  0  0  0
  183.6120  174.3210  137.4210 C   0  0  0  0  0  3  0  0  0  0  0  0
  186.7770  178.8160  140.6110 C   0  0  0  0  0  2  0  0  0  0  0  0
  183.4170  179.3770  139.6640 C   0  0  0  0  0  2  0  0  0  0  0  0
  190.6660  177.4290  140.5960 C   0  0  0  0  0  2  0  0  0  0  0  0
  184.7040  178.4760  137.6740 C   0  0  0  0  0  2  0  0  0  0  0  0
  189.5860  175.9860  137.8510 N   0  0  0  0  0  0  0  0  0  0  0  0
  185.2800  176.0630  137.3180 C   0  0  0  0  0  0  0  0  0  0  0  0
  189.4080  178.4380  137.2250 C   0  0  0  0  0  1  0  0  0  0  0  0
  189.5680  177.7410  139.5840 C   0  0  1  0  0  3  0  0  0  0  0  0
  184.2910  177.0290  137.5920 C   0  0  0  0  0  0  0  0  0  0  0  0
  184.9430  174.7040  137.3240 C   0  0  0  0  0  0  0  0  0  0  0  0
  185.9570  173.7070  137.1730 N   0  0  0  0  0  2  0  0  0  0  0  0
  180.7030  177.1260  138.6200 F   0  0  0  0  0  0  0  0  0  0  0  0
  182.6000  175.2630  137.6170 C   0  0  0  0  0  0  0  0  0  0  0  0
  182.9430  176.6350  137.8190 C   0  0  0  0  0  0  0  0  0  0  0  0
  187.3690  174.0650  137.2180 C   0  0  0  0  0  2  0  0  0  0  0  0
  187.5810  175.3820  136.4750 C   0  0  1  0  0  3  0  0  0  0  0  0
  186.7210  176.4740  137.1210 C   0  0  0  0  0  2  0  0  0  0  0  0
  184.7870  179.0020  139.1070 C   0  0  2  0  0  3  0  0  0  0  0  0
  180.7090  174.0950  138.4540 O   0  0  0  0  0  0  0  0  0  0  0  0
  181.2170  174.7580  137.5110 C   0  0  0  0  0  0  0  0  0  0  0  0
  180.4870  174.9170  136.2960 N   0  0  0  0  0  1  0  0  0  0  0  0
  189.9690  175.1280  135.4570 C   0  0  0  0  0  2  0  0  0  0  0  0
  190.8360  176.0940  134.6640 C   0  0  0  0  0  2  0  0  0  0  0  0
  192.1590  176.0030  135.0950 O   0  0  0  0  0  1  0  0  0  0  0  0
  189.9280  176.2300  142.5470 O   0  0  0  0  0  0  0  0  0  0  0  0
  189.9650  176.3760  143.9380 C   0  0  0  0  0  2  0  0  0  0  0  0
  192.0550  175.2520  143.9690 O   0  0  0  0  0  1  0  0  0  0  0  0
  191.4250  176.4040  145.8240 O   0  0  0  0  0  1  0  0  0  0  0  0
  192.0500  177.5130  143.9470 F   0  0  0  0  0  0  0  0  0  0  0  0
  191.4020  176.3920  144.4290 C   0  0  0  0  0  0  0  0  0  0  0  0
  1  7  1  0  0  0  0
  1 39  1  6  0  0  0
  2 26  1  0  0  0  0
  2  5  1  0  0  0  0
  4  2  1  0  0  0  0
  5  9  1  1  0  0  0
  6 15  1  6  0  0  0
  6  7  1  0  0  0  0
  7  3  1  6  0  0  0
 10 15  1  0  0  0  0
 11 21  1  6  0  0  0
 11 22  1  0  0  0  0
 12 36  1  1  0  0  0
 12 19  1  0  0  0  0
 13  6  1  0  0  0  0
 14 27  1  0  0  0  0
 16  5  1  0  0  0  0
 17  1  1  0  0  0  0
 19  8  1  0  0  0  0
 19 11  1  0  0  0  0
 20 24  1  0  0  0  0
 20 23  2  0  0  0  0
 22 13  1  0  0  0  0
 22 17  1  1  0  0  0
 23 18  1  0  0  0  0
 23 28  1  0  0  0  0
 24 14  2  0  0  0  0
 25 29  1  0  0  0  0
 25 24  1  0  0  0  0
 27 28  2  0  0  0  0
 28  2  1  0  0  0  0
 30 12  1  0  0  0  0
 30 31  1  1  0  0  0
 30 29  1  0  0  0  0
 31 20  1  0  0  0  0
 32 18  1  6  0  0  0
 32 16  1  0  0  0  0
 32 10  1  0  0  0  0
 34 27  1  0  0  0  0
 34 33  2  0  0  0  0
 35 34  1  0  0  0  0
 37 38  1  0  0  0  0
 37 36  1  0  0  0  0
 39 40  1  0  0  0  0
 40 44  1  0  0  0  0
 41 44  1  0  0  0  0
 43 44  1  0  0  0  0
 44 42  1  0  0  0  0
M  END
>  <MODEL>
1

>  <REMARK>
 VINA RESULT:      -6.8      0.000      0.000
  Name = 
  6 active torsions:
  status: ('A' for Active; 'I' for Inactive)
    1  A    between atoms: C_1  and  O_35
    2  A    between atoms: C_4  and  C_23
    3  A    between atoms: C_16  and  C_23
    4  A    between atoms: C_19  and  C_37
    5  A    between atoms: C_33  and  C_44
    6  A    between atoms: O_35  and  C_44
                            x       y       z     vdW  Elec       q    Type
                         _______ _______ _______ _____ _____    ______ ____

>  <TORSDO>
F 6

$$$$
=
 OpenBabel11062415473D

 44 48  0  0  1  0  0  0  0  0999 V2000
  179.6200  173.1780  137.4540 C   0  0  2  0  0  3  0  0  0  0  0  0
  187.8190  176.7130  136.7040 C   0  0  0  0  0  0  0  0  0  0  0  0
  180.7250  172.8010  135.3780 F   0  0  0  0  0  0  0  0  0  0  0  0
  188.0160  177.3570  135.4930 F   0  0  0  0  0  0  0  0  0  0  0  0
  187.3640  175.2650  136.4670 C   0  0  1  0  0  3  0  0  0  0  0  0
  181.9600  174.0630  137.0360 C   0  0  2  0  0  3  0  0  0  0  0  0
  180.9540  172.9200  136.7390 C   0  0  1  0  0  3  0  0  0  0  0  0
  179.0200  177.6110  138.7390 O   0  0  0  0  0  1  0  0  0  0  0  0
  186.9070  174.6650  137.6290 F   0  0  0  0  0  0  0  0  0  0  0  0
  184.1990  174.9940  136.5680 C   0  0  0  0  0  2  0  0  0  0  0  0
  179.7840  176.9750  136.6840 C   0  0  1  0  0  3  0  0  0  0  0  0
  180.6770  178.9770  137.8320 C   0  0  2  0  0  3  0  0  0  0  0  0
  181.3800  175.2990  137.4200 O   0  0  0  0  0  0  0  0  0  0  0  0
  186.0620  178.4280  139.6740 C   0  0  0  0  0  3  0  0  0  0  0  0
  183.0180  174.2630  135.9600 C   0  0  0  0  0  2  0  0  0  0  0  0
  186.3990  175.0580  135.2950 C   0  0  0  0  0  2  0  0  0  0  0  0
  179.0890  174.5970  137.1840 C   0  0  0  0  0  2  0  0  0  0  0  0
  185.0950  177.2020  135.6630 C   0  0  0  0  0  2  0  0  0  0  0  0
  180.1390  177.6060  137.9740 N   0  0  0  0  0  0  0  0  0  0  0  0
  184.4480  178.1140  137.9060 C   0  0  0  0  0  0  0  0  0  0  0  0
  180.3950  177.6390  135.4500 C   0  0  0  0  0  1  0  0  0  0  0  0
  180.2010  175.5090  136.6770 C   0  0  1  0  0  3  0  0  0  0  0  0
  185.4650  177.6230  137.0630 C   0  0  0  0  0  0  0  0  0  0  0  0
  184.7440  178.4290  139.2380 C   0  0  0  0  0  0  0  0  0  0  0  0
  183.7010  178.8080  140.1400 N   0  0  0  0  0  2  0  0  0  0  0  0
  189.0480  176.6070  137.3210 F   0  0  0  0  0  0  0  0  0  0  0  0
  187.1010  178.0170  138.8370 C   0  0  0  0  0  0  0  0  0  0  0  0
  186.7990  177.4980  137.5410 C   0  0  0  0  0  0  0  0  0  0  0  0
  182.3010  178.6770  139.7590 C   0  0  0  0  0  2  0  0  0  0  0  0
  182.1320  179.0890  138.2990 C   0  0  1  0  0  3  0  0  0  0  0  0
  183.0220  178.2070  137.4160 C   0  0  0  0  0  2  0  0  0  0  0  0
  185.0200  175.6850  135.4870 C   0  0  2  0  0  3  0  0  0  0  0  0
  189.1830  179.1600  138.8620 O   0  0  0  0  0  0  0  0  0  0  0  0
  188.4690  178.2410  139.3450 C   0  0  0  0  0  0  0  0  0  0  0  0
  189.0320  177.3490  140.3050 N   0  0  0  0  0  1  0  0  0  0  0  0
  179.7430  180.1350  138.2330 C   0  0  0  0  0  2  0  0  0  0  0  0
  180.3270  181.5130  137.9650 C   0  0  0  0  0  2  0  0  0  0  0  0
  180.4570  181.7120  136.5910 O   0  0  0  0  0  1  0  0  0  0  0  0
  179.7790  172.9840  138.8300 O   0  0  0  0  0  0  0  0  0  0  0  0
  179.0090  173.9840  139.4340 C   0  0  0  0  0  2  0  0  0  0  0  0
  179.9750  173.5010  141.5480 O   0  0  0  0  0  1  0  0  0  0  0  0
  178.9310  175.5020  141.2720 O   0  0  0  0  0  1  0  0  0  0  0  0
  180.9270  175.1060  140.2720 F   0  0  0  0  0  0  0  0  0  0  0  0
  179.7270  174.5380  140.6530 C   0  0  0  0  0  0  0  0  0  0  0  0
  1 39  1  1  0  0  0
  2 26  1  0  0  0  0
  2 28  1  0  0  0  0
  4  2  1  0  0  0  0
  5  2  1  0  0  0  0
  5  9  1  1  0  0  0
  6 15  1  6  0  0  0
  6 13  1  0  0  0  0
  7  3  1  6  0  0  0
  7  6  1  0  0  0  0
  7  1  1  0  0  0  0
 11 21  1  6  0  0  0
 11 19  1  0  0  0  0
 12 19  1  0  0  0  0
 12 36  1  1  0  0  0
 12 30  1  0  0  0  0
 15 10  1  0  0  0  0
 16  5  1  0  0  0  0
 17  1  1  0  0  0  0
 18 23  1  0  0  0  0
 19  8  1  0  0  0  0
 20 24  2  0  0  0  0
 22 11  1  0  0  0  0
 22 17  1  1  0  0  0
 22 13  1  0  0  0  0
 23 28  2  0  0  0  0
 23 20  1  0  0  0  0
 24 14  1  0  0  0  0
 24 25  1  0  0  0  0
 27 34  1  0  0  0  0
 27 14  2  0  0  0  0
 28 27  1  0  0  0  0
 29 25  1  0  0  0  0
 30 31  1  6  0  0  0
 30 29  1  0  0  0  0
 31 20  1  0  0  0  0
 32 16  1  1  0  0  0
 32 18  1  0  0  0  0
 32 10  1  0  0  0  0
 33 34  2  0  0  0  0
 34 35  1  0  0  0  0
 37 36  1  0  0  0  0
 38 37  1  0  0  0  0
 39 40  1  0  0  0  0
 40 44  1  0  0  0  0
 43 44  1  0  0  0  0
 44 42  1  0  0  0  0
 44 41  1  0  0  0  0
M  END
>  <MODEL>
2

>  <REMARK>
 VINA RESULT:      -6.6      3.425      9.019
  Name = 
  6 active torsions:
  status: ('A' for Active; 'I' for Inactive)
    1  A    between atoms: C_1  and  O_35
    2  A    between atoms: C_4  and  C_23
    3  A    between atoms: C_16  and  C_23
    4  A    between atoms: C_19  and  C_37
    5  A    between atoms: C_33  and  C_44
    6  A    between atoms: O_35  and  C_44
                            x       y       z     vdW  Elec       q    Type
                         _______ _______ _______ _____ _____    ______ ____

>  <TORSDO>
F 6

$$$$
=
 OpenBabel11062415473D

 44 48  0  0  1  0  0  0  0  0999 V2000
  190.2490  177.6010  139.8090 C   0  0  2  0  0  3  0  0  0  0  0  0
  182.5560  175.2760  135.8480 C   0  0  0  0  0  0  0  0  0  0  0  0
  189.0380  179.3730  138.7770 F   0  0  0  0  0  0  0  0  0  0  0  0
  182.4040  175.8480  134.5950 F   0  0  0  0  0  0  0  0  0  0  0  0
  182.8120  176.3660  136.9010 C   0  0  1  0  0  3  0  0  0  0  0  0
  188.0310  177.1740  138.6560 C   0  0  2  0  0  3  0  0  0  0  0  0
  188.8710  178.1890  139.4750 C   0  0  1  0  0  3  0  0  0  0  0  0
  191.4580  174.0230  137.0890 O   0  0  0  0  0  1  0  0  0  0  0  0
  183.2240  175.8350  138.1110 F   0  0  0  0  0  0  0  0  0  0  0  0
  185.9170  176.7700  137.4440 C   0  0  0  0  0  2  0  0  0  0  0  0
  190.5520  175.9660  136.3050 C   0  0  1  0  0  3  0  0  0  0  0  0
  189.9630  173.7750  135.3170 C   0  0  2  0  0  3  0  0  0  0  0  0
  188.7780  176.1980  137.9470 O   0  0  0  0  0  0  0  0  0  0  0  0
  184.6150  172.0660  136.4010 C   0  0  0  0  0  3  0  0  0  0  0  0
  186.9730  177.8100  137.7640 C   0  0  0  0  0  2  0  0  0  0  0  0
  183.7030  177.5260  136.4480 C   0  0  0  0  0  2  0  0  0  0  0  0
  190.9500  177.0370  138.5600 C   0  0  0  0  0  2  0  0  0  0  0  0
  185.2840  176.1030  135.0670 C   0  0  0  0  0  2  0  0  0  0  0  0
  190.3230  174.5240  136.5410 N   0  0  0  0  0  0  0  0  0  0  0  0
  186.1170  173.8350  135.7320 C   0  0  0  0  0  0  0  0  0  0  0  0
  189.9920  176.5010  134.9870 C   0  0  0  0  0  1  0  0  0  0  0  0
  189.9490  176.7920  137.4350 C   0  0  1  0  0  3  0  0  0  0  0  0
  185.0180  174.6960  135.5340 C   0  0  0  0  0  0  0  0  0  0  0  0
  185.9070  172.5510  136.2510 C   0  0  0  0  0  0  0  0  0  0  0  0
  187.0200  171.7120  136.5740 N   0  0  0  0  0  2  0  0  0  0  0  0
  181.3430  174.7170  136.1970 F   0  0  0  0  0  0  0  0  0  0  0  0
  183.5050  172.8730  136.1410 C   0  0  0  0  0  0  0  0  0  0  0  0
  183.6950  174.2490  135.8080 C   0  0  0  0  0  0  0  0  0  0  0  0
  188.3780  172.2390  136.5700 C   0  0  0  0  0  2  0  0  0  0  0  0
  188.5500  173.1840  135.3840 C   0  0  1  0  0  3  0  0  0  0  0  0
  187.5260  174.3200  135.4860 C   0  0  0  0  0  2  0  0  0  0  0  0
  185.1570  177.1460  136.1780 C   0  0  2  0  0  3  0  0  0  0  0  0
  181.6540  171.8710  137.2410 O   0  0  0  0  0  0  0  0  0  0  0  0
  182.1950  172.1920  136.1500 C   0  0  0  0  0  0  0  0  0  0  0  0
  181.5870  171.7910  134.9230 N   0  0  0  0  0  1  0  0  0  0  0  0
  191.0510  172.8690  134.7120 C   0  0  0  0  0  2  0  0  0  0  0  0
  192.4110  173.5400  134.5940 C   0  0  0  0  0  2  0  0  0  0  0  0
  193.4200  172.6050  134.8220 O   0  0  0  0  0  1  0  0  0  0  0  0
  190.1110  176.5960  140.7700 O   0  0  0  0  0  0  0  0  0  0  0  0
  189.2500  177.1260  141.7370 C   0  0  0  0  0  2  0  0  0  0  0  0
  190.0360  177.2100  143.9750 O   0  0  0  0  0  1  0  0  0  0  0  0
  190.1820  175.2370  142.8560 O   0  0  0  0  0  1  0  0  0  0  0  0
  188.1650  176.0180  143.5360 F   0  0  0  0  0  0  0  0  0  0  0  0
  189.4070  176.3790  143.0510 C   0  0  0  0  0  0  0  0  0  0  0  0
  1 39  1  1  0  0  0
  2 26  1  0  0  0  0
  2  5  1  0  0  0  0
  4  2  1  0  0  0  0
  5  9  1  1  0  0  0
  6 15  1  6  0  0  0
  6  7  1  0  0  0  0
  7  3  1  6  0  0  0
  7  1  1  0  0  0  0
 10 15  1  0  0  0  0
 11 21  1  6  0  0  0
 11 19  1  0  0  0  0
 11 22  1  0  0  0  0
 12 36  1  1  0  0  0
 12 30  1  0  0  0  0
 12 19  1  0  0  0  0
 13  6  1  0  0  0  0
 16  5  1  0  0  0  0
 17  1  1  0  0  0  0
 18 23  1  0  0  0  0
 19  8  1  0  0  0  0
 20 24  2  0  0  0  0
 22 13  1  0  0  0  0
 22 17  1  1  0  0  0
 23 20  1  0  0  0  0
 23 28  2  0  0  0  0
 24 14  1  0  0  0  0
 24 25  1  0  0  0  0
 27 34  1  0  0  0  0
 27 14  2  0  0  0  0
 28  2  1  0  0  0  0
 28 27  1  0  0  0  0
 29 25  1  0  0  0  0
 30 31  1  1  0  0  0
 30 29  1  0  0  0  0
 31 20  1  0  0  0  0
 32 18  1  6  0  0  0
 32 16  1  0  0  0  0
 32 10  1  0  0  0  0
 34 33  2  0  0  0  0
 35 34  1  0  0  0  0
 37 36  1  0  0  0  0
 37 38  1  0  0  0  0
 39 40  1  0  0  0  0
 40 44  1  0  0  0  0
 42 44  1  0  0  0  0
 44 43  1  0  0  0  0
 44 41  1  0  0  0  0
M  END
>  <MODEL>
3

>  <REMARK>
 VINA RESULT:      -6.1      2.207      2.925
  Name = 
  6 active torsions:
  status: ('A' for Active; 'I' for Inactive)
    1  A    between atoms: C_1  and  O_35
    2  A    between atoms: C_4  and  C_23
    3  A    between atoms: C_16  and  C_23
    4  A    between atoms: C_19  and  C_37
    5  A    between atoms: C_33  and  C_44
    6  A    between atoms: O_35  and  C_44
                            x       y       z     vdW  Elec       q    Type
                         _______ _______ _______ _____ _____    ______ ____

>  <TORSDO>
F 6

$$$$
=
 OpenBabel11062415473D

 44 48  0  0  1  0  0  0  0  0999 V2000
  187.6790  174.6810  136.1870 C   0  0  2  0  0  3  0  0  0  0  0  0
  190.4580  177.9110  144.0680 C   0  0  0  0  0  0  0  0  0  0  0  0
  189.8660  175.6240  136.2070 F   0  0  0  0  0  0  0  0  0  0  0  0
  191.0620  179.1530  143.9560 F   0  0  0  0  0  0  0  0  0  0  0  0
  191.1470  176.8990  143.1390 C   0  0  1  0  0  3  0  0  0  0  0  0
  188.6780  175.6260  138.3170 C   0  0  2  0  0  3  0  0  0  0  0  0
  188.9750  174.8990  136.9800 C   0  0  1  0  0  3  0  0  0  0  0  0
  184.1860  177.4520  137.5250 O   0  0  0  0  0  1  0  0  0  0  0  0
  190.4250  175.7230  143.0220 F   0  0  0  0  0  0  0  0  0  0  0  0
  189.6370  176.6390  140.3550 C   0  0  0  0  0  2  0  0  0  0  0  0
  186.3240  178.1770  137.1800 C   0  0  1  0  0  3  0  0  0  0  0  0
  184.9340  179.0800  139.0170 C   0  0  2  0  0  3  0  0  0  0  0  0
  187.4800  176.3860  138.3430 O   0  0  0  0  0  0  0  0  0  0  0  0
  186.6300  177.5020  144.2440 C   0  0  0  0  0  3  0  0  0  0  0  0
  189.8480  176.4290  138.8690 C   0  0  0  0  0  2  0  0  0  0  0  0
  191.5850  177.4450  141.7770 C   0  0  0  0  0  2  0  0  0  0  0  0
  186.8640  175.9800  136.0510 C   0  0  0  0  0  2  0  0  0  0  0  0
  189.5660  178.9420  141.4450 C   0  0  0  0  0  2  0  0  0  0  0  0
  185.2790  177.9030  138.1900 N   0  0  0  0  0  0  0  0  0  0  0  0
  187.2130  178.3250  142.0500 C   0  0  0  0  0  0  0  0  0  0  0  0
  187.1400  179.4460  137.4220 C   0  0  0  0  0  1  0  0  0  0  0  0
  187.2980  177.0080  137.0920 C   0  0  1  0  0  3  0  0  0  0  0  0
  188.5610  178.4350  142.4480 C   0  0  0  0  0  0  0  0  0  0  0  0
  186.2740  177.7730  142.9300 C   0  0  0  0  0  0  0  0  0  0  0  0
  184.9300  177.5390  142.4990 N   0  0  0  0  0  2  0  0  0  0  0  0
  190.6990  177.4480  145.3460 F   0  0  0  0  0  0  0  0  0  0  0  0
  187.9440  177.6730  144.6880 C   0  0  0  0  0  0  0  0  0  0  0  0
  188.9610  178.0390  143.7550 C   0  0  0  0  0  0  0  0  0  0  0  0
  184.5630  177.6710  141.0950 C   0  0  0  0  0  2  0  0  0  0  0  0
  185.2780  178.8800  140.4970 C   0  0  1  0  0  3  0  0  0  0  0  0
  186.7930  178.7020  140.6490 C   0  0  0  0  0  2  0  0  0  0  0  0
  190.4380  177.8380  140.8490 C   0  0  2  0  0  3  0  0  0  0  0  0
  188.8580  176.5960  146.5960 O   0  0  0  0  0  0  0  0  0  0  0  0
  188.1570  177.5380  146.1420 C   0  0  0  0  0  0  0  0  0  0  0  0
  187.4800  178.4060  147.0500 N   0  0  0  0  0  1  0  0  0  0  0  0
  183.5890  179.7680  138.7190 C   0  0  0  0  0  2  0  0  0  0  0  0
  182.5030  179.4560  139.7370 C   0  0  0  0  0  2  0  0  0  0  0  0
  181.5760  178.5730  139.1830 O   0  0  0  0  0  1  0  0  0  0  0  0
  186.9050  173.6980  136.8100 O   0  0  0  0  0  0  0  0  0  0  0  0
  185.5930  173.9390  136.3880 C   0  0  0  0  0  2  0  0  0  0  0  0
  183.7510  172.4720  136.6870 O   0  0  0  0  0  1  0  0  0  0  0  0
  183.8530  174.3480  137.9680 O   0  0  0  0  0  1  0  0  0  0  0  0
  185.2820  172.6280  138.3430 F   0  0  0  0  0  0  0  0  0  0  0  0
  184.6030  173.3350  137.3700 C   0  0  0  0  0  0  0  0  0  0  0  0
  1 39  1  1  0  0  0
  1  7  1  0  0  0  0
  2 26  1  0  0  0  0
  4  2  1  0  0  0  0
  5  9  1  6  0  0  0
  5  2  1  0  0  0  0
  6 13  1  0  0  0  0
  6 15  1  6  0  0  0
  7  3  1  6  0  0  0
  7  6  1  0  0  0  0
  8 19  1  0  0  0  0
 11 21  1  1  0  0  0
 11 19  1  0  0  0  0
 12 36  1  1  0  0  0
 12 30  1  0  0  0  0
 14 27  1  0  0  0  0
 15 10  1  0  0  0  0
 16  5  1  0  0  0  0
 17  1  1  0  0  0  0
 18 23  1  0  0  0  0
 19 12  1  0  0  0  0
 20 23  2  0  0  0  0
 20 24  1  0  0  0  0
 22 17  1  6  0  0  0
 22 11  1  0  0  0  0
 22 13  1  0  0  0  0
 23 28  1  0  0  0  0
 24 14  2  0  0  0  0
 25 24  1  0  0  0  0
 27 34  1  0  0  0  0
 28  2  1  0  0  0  0
 28 27  2  0  0  0  0
 29 25  1  0  0  0  0
 30 31  1  6  0  0  0
 30 29  1  0  0  0  0
 31 20  1  0  0  0  0
 32 10  1  1  0  0  0
 32 18  1  0  0  0  0
 32 16  1  0  0  0  0
 34 33  2  0  0  0  0
 34 35  1  0  0  0  0
 36 37  1  0  0  0  0
 38 37  1  0  0  0  0
 40 39  1  0  0  0  0
 40 44  1  0  0  0  0
 41 44  1  0  0  0  0
 44 42  1  0  0  0  0
 44 43  1  0  0  0  0
M  END
>  <MODEL>
4

>  <REMARK>
 VINA RESULT:      -5.9      3.111      8.076
  Name = 
  6 active torsions:
  status: ('A' for Active; 'I' for Inactive)
    1  A    between atoms: C_1  and  O_35
    2  A    between atoms: C_4  and  C_23
    3  A    between atoms: C_16  and  C_23
    4  A    between atoms: C_19  and  C_37
    5  A    between atoms: C_33  and  C_44
    6  A    between atoms: O_35  and  C_44
                            x       y       z     vdW  Elec       q    Type
                         _______ _______ _______ _____ _____    ______ ____

>  <TORSDO>
F 6

$$$$
=
 OpenBabel11062415473D

 44 48  0  0  1  0  0  0  0  0999 V2000
  188.4420  178.1880  141.9330 C   0  0  2  0  0  3  0  0  0  0  0  0
  180.4640  176.9980  138.0330 C   0  0  0  0  0  0  0  0  0  0  0  0
  187.1000  180.1410  141.7040 F   0  0  0  0  0  0  0  0  0  0  0  0
  180.1820  177.9680  137.0830 F   0  0  0  0  0  0  0  0  0  0  0  0
  180.7940  177.6570  139.3820 C   0  0  1  0  0  3  0  0  0  0  0  0
  186.1360  178.0760  140.8860 C   0  0  2  0  0  3  0  0  0  0  0  0
  187.0260  178.7800  141.9430 C   0  0  1  0  0  3  0  0  0  0  0  0
  189.4700  175.8770  138.0270 O   0  0  0  0  0  1  0  0  0  0  0  0
  181.3310  176.7550  140.2850 F   0  0  0  0  0  0  0  0  0  0  0  0
  183.9260  178.0120  139.7840 C   0  0  0  0  0  2  0  0  0  0  0  0
  188.4500  177.9190  138.0640 C   0  0  1  0  0  3  0  0  0  0  0  0
  187.8210  176.1910  136.4090 C   0  0  2  0  0  3  0  0  0  0  0  0
  186.8350  177.4570  139.8180 O   0  0  0  0  0  0  0  0  0  0  0  0
  182.6390  173.9190  137.2350 C   0  0  0  0  0  3  0  0  0  0  0  0
  184.9850  178.9280  140.3680 C   0  0  0  0  0  2  0  0  0  0  0  0
  181.6120  178.9500  139.3040 C   0  0  0  0  0  2  0  0  0  0  0  0
  189.0350  178.1420  140.5140 C   0  0  0  0  0  2  0  0  0  0  0  0
  183.0880  178.1970  137.3840 C   0  0  0  0  0  2  0  0  0  0  0  0
  188.2780  176.4770  137.7870 N   0  0  0  0  0  0  0  0  0  0  0  0
  184.0300  175.8890  137.1240 C   0  0  0  0  0  0  0  0  0  0  0  0
  187.7570  178.8550  137.0750 C   0  0  0  0  0  1  0  0  0  0  0  0
  187.9380  178.2570  139.4600 C   0  0  1  0  0  3  0  0  0  0  0  0
  182.8990  176.7020  137.3360 C   0  0  0  0  0  0  0  0  0  0  0  0
  183.9000  174.4960  137.1650 C   0  0  0  0  0  0  0  0  0  0  0  0
  185.0570  173.6590  137.0770 N   0  0  0  0  0  2  0  0  0  0  0  0
  179.3040  176.2860  138.2550 F   0  0  0  0  0  0  0  0  0  0  0  0
  181.4910  174.7030  137.3700 C   0  0  0  0  0  0  0  0  0  0  0  0
  181.6180  176.1160  137.5370 C   0  0  0  0  0  0  0  0  0  0  0  0
  186.3960  174.2270  137.1520 C   0  0  0  0  0  2  0  0  0  0  0  0
  186.4350  175.5390  136.3730 C   0  0  1  0  0  3  0  0  0  0  0  0
  185.3990  176.5070  136.9570 C   0  0  0  0  0  2  0  0  0  0  0  0
  183.0420  178.7690  138.8000 C   0  0  2  0  0  3  0  0  0  0  0  0
  179.5070  174.1280  136.1990 O   0  0  0  0  0  0  0  0  0  0  0  0
  180.2040  173.9930  137.2400 C   0  0  0  0  0  0  0  0  0  0  0  0
  179.6860  173.2400  138.3360 N   0  0  0  0  0  1  0  0  0  0  0  0
  188.8670  175.6190  135.4350 C   0  0  0  0  0  2  0  0  0  0  0  0
  189.6230  176.6830  134.6540 C   0  0  0  0  0  2  0  0  0  0  0  0
  190.9760  176.3530  134.5940 O   0  0  0  0  0  1  0  0  0  0  0  0
  188.4190  176.9020  142.4800 O   0  0  0  0  0  0  0  0  0  0  0  0
  188.0860  177.0800  143.8270 C   0  0  0  0  0  2  0  0  0  0  0  0
  190.3540  176.4500  144.1390 O   0  0  0  0  0  1  0  0  0  0  0  0
  189.0890  176.8710  145.9810 O   0  0  0  0  0  1  0  0  0  0  0  0
  189.7480  178.5710  144.6340 F   0  0  0  0  0  0  0  0  0  0  0  0
  189.3430  177.2510  144.6640 C   0  0  0  0  0  0  0  0  0  0  0  0
  1  7  1  0  0  0  0
  1 39  1  6  0  0  0
  2 26  1  0  0  0  0
  2  5  1  0  0  0  0
  4  2  1  0  0  0  0
  5  9  1  1  0  0  0
  6 15  1  6  0  0  0
  6  7  1  0  0  0  0
  7  3  1  6  0  0  0
 10 15  1  0  0  0  0
 11 21  1  6  0  0  0
 11 22  1  0  0  0  0
 12 36  1  1  0  0  0
 12 19  1  0  0  0  0
 13  6  1  0  0  0  0
 14 27  1  0  0  0  0
 16  5  1  0  0  0  0
 17  1  1  0  0  0  0
 19  8  1  0  0  0  0
 19 11  1  0  0  0  0
 20 24  1  0  0  0  0
 20 23  2  0  0  0  0
 22 13  1  0  0  0  0
 22 17  1  1  0  0  0
 23 18  1  0  0  0  0
 23 28  1  0  0  0  0
 24 14  2  0  0  0  0
 25 29  1  0  0  0  0
 25 24  1  0  0  0  0
 27 28  2  0  0  0  0
 28  2  1  0  0  0  0
 30 12  1  0  0  0  0
 30 31  1  1  0  0  0
 30 29  1  0  0  0  0
 31 20  1  0  0  0  0
 32 18  1  6  0  0  0
 32 16  1  0  0  0  0
 32 10  1  0  0  0  0
 33 34  2  0  0  0  0
 34 27  1  0  0  0  0
 34 35  1  0  0  0  0
 37 36  1  0  0  0  0
 38 37  1  0  0  0  0
 39 40  1  0  0  0  0
 40 44  1  0  0  0  0
 41 44  1  0  0  0  0
 43 44  1  0  0  0  0
 44 42  1  0  0  0  0
M  END
>  <MODEL>
5

>  <REMARK>
 VINA RESULT:      -5.7      1.499      1.706
  Name = 
  6 active torsions:
  status: ('A' for Active; 'I' for Inactive)
    1  A    between atoms: C_1  and  O_35
    2  A    between atoms: C_4  and  C_23
    3  A    between atoms: C_16  and  C_23
    4  A    between atoms: C_19  and  C_37
    5  A    between atoms: C_33  and  C_44
    6  A    between atoms: O_35  and  C_44
                            x       y       z     vdW  Elec       q    Type
                         _______ _______ _______ _____ _____    ______ ____

>  <TORSDO>
F 6

$$$$
=
 OpenBabel11062415473D

 44 48  0  0  1  0  0  0  0  0999 V2000
  184.7540  178.6880  143.0020 C   0  0  2  0  0  3  0  0  0  0  0  0
  179.6930  174.0860  137.2150 C   0  0  0  0  0  0  0  0  0  0  0  0
  182.5100  179.4480  142.7550 F   0  0  0  0  0  0  0  0  0  0  0  0
  178.9530  174.9080  136.3780 F   0  0  0  0  0  0  0  0  0  0  0  0
  179.4100  174.4330  138.6850 C   0  0  1  0  0  3  0  0  0  0  0  0
  183.1370  177.5140  141.4390 C   0  0  2  0  0  3  0  0  0  0  0  0
  183.2860  178.3020  142.7670 C   0  0  1  0  0  3  0  0  0  0  0  0
  187.3580  178.5440  139.1470 O   0  0  0  0  0  1  0  0  0  0  0  0
  180.3090  173.8250  139.5460 F   0  0  0  0  0  0  0  0  0  0  0  0
  181.5710  176.4480  139.8550 C   0  0  0  0  0  2  0  0  0  0  0  0
  185.2840  179.4940  139.2450 C   0  0  1  0  0  3  0  0  0  0  0  0
  186.0340  178.2320  137.2530 C   0  0  2  0  0  3  0  0  0  0  0  0
  184.1640  177.7310  140.4850 O   0  0  0  0  0  0  0  0  0  0  0  0
  183.3800  173.2230  136.5030 C   0  0  0  0  0  3  0  0  0  0  0  0
  181.7600  177.6200  140.7980 C   0  0  0  0  0  2  0  0  0  0  0  0
  179.2380  175.9240  138.9910 C   0  0  0  0  0  2  0  0  0  0  0  0
  185.3710  179.3720  141.7690 C   0  0  0  0  0  2  0  0  0  0  0  0
  181.0270  176.7190  137.3790 C   0  0  0  0  0  2  0  0  0  0  0  0
  186.0820  178.3620  138.7260 N   0  0  0  0  0  0  0  0  0  0  0  0
  183.2290  175.5790  137.0110 C   0  0  0  0  0  0  0  0  0  0  0  0
  184.2510  180.0570  138.2700 C   0  0  0  0  0  1  0  0  0  0  0  0
  184.5480  179.0860  140.5170 C   0  0  1  0  0  3  0  0  0  0  0  0
  181.8240  175.4770  137.0700 C   0  0  0  0  0  0  0  0  0  0  0  0
  183.9990  174.4260  136.8150 C   0  0  0  0  0  0  0  0  0  0  0  0
  185.4270  174.4920  136.8780 N   0  0  0  0  0  2  0  0  0  0  0  0
  179.2220  172.7990  137.0520 F   0  0  0  0  0  0  0  0  0  0  0  0
  181.9880  173.1100  136.4800 C   0  0  0  0  0  0  0  0  0  0  0  0
  181.1840  174.2210  136.8770 C   0  0  0  0  0  0  0  0  0  0  0  0
  186.0980  175.6970  137.3460 C   0  0  0  0  0  2  0  0  0  0  0  0
  185.3760  176.9250  136.7990 C   0  0  1  0  0  3  0  0  0  0  0  0
  183.9140  176.9020  137.2600 C   0  0  0  0  0  2  0  0  0  0  0  0
  180.5020  176.7610  138.8140 C   0  0  2  0  0  3  0  0  0  0  0  0
  181.4950  170.7930  136.6460 O   0  0  0  0  0  0  0  0  0  0  0  0
  181.4520  171.8420  135.9500 C   0  0  0  0  0  0  0  0  0  0  0  0
  180.9840  171.7680  134.6040 N   0  0  0  0  0  1  0  0  0  0  0  0
  187.2920  178.6660  136.4770 C   0  0  0  0  0  2  0  0  0  0  0  0
  187.3500  178.1260  135.0560 C   0  0  0  0  0  2  0  0  0  0  0  0
  188.4110  177.2290  134.9350 O   0  0  0  0  0  1  0  0  0  0  0  0
  185.4930  177.5490  143.3330 O   0  0  0  0  0  0  0  0  0  0  0  0
  186.8160  177.8580  143.0010 C   0  0  0  0  0  2  0  0  0  0  0  0
  188.0690  175.8540  143.2210 O   0  0  0  0  0  1  0  0  0  0  0  0
  187.1950  176.7900  145.1000 O   0  0  0  0  0  1  0  0  0  0  0  0
  188.9470  177.7680  144.0450 F   0  0  0  0  0  0  0  0  0  0  0  0
  187.7780  177.0560  143.8610 C   0  0  0  0  0  0  0  0  0  0  0  0
  1 39  1  6  0  0  0
  2  5  1  0  0  0  0
  4  2  1  0  0  0  0
  5 16  1  0  0  0  0
  5  9  1  1  0  0  0
  6 15  1  6  0  0  0
  6  7  1  0  0  0  0
  7  3  1  6  0  0  0
  7  1  1  0  0  0  0
 10 15  1  0  0  0  0
 11 21  1  6  0  0  0
 11 22  1  0  0  0  0
 12 36  1  1  0  0  0
 12 19  1  0  0  0  0
 13 22  1  0  0  0  0
 13  6  1  0  0  0  0
 14 24  1  0  0  0  0
 17  1  1  0  0  0  0
 19  8  1  0  0  0  0
 19 11  1  0  0  0  0
 20 23  1  0  0  0  0
 20 31  1  0  0  0  0
 22 17  1  1  0  0  0
 23 18  1  0  0  0  0
 24 25  1  0  0  0  0
 24 20  2  0  0  0  0
 25 29  1  0  0  0  0
 26  2  1  0  0  0  0
 27 14  2  0  0  0  0
 27 28  1  0  0  0  0
 28 23  2  0  0  0  0
 28  2  1  0  0  0  0
 30 12  1  0  0  0  0
 30 31  1  1  0  0  0
 30 29  1  0  0  0  0
 32 18  1  6  0  0  0
 32 16  1  0  0  0  0
 32 10  1  0  0  0  0
 34 27  1  0  0  0  0
 34 33  2  0  0  0  0
 35 34  1  0  0  0  0
 37 36  1  0  0  0  0
 38 37  1  0  0  0  0
 40 39  1  0  0  0  0
 40 44  1  0  0  0  0
 41 44  1  0  0  0  0
 44 43  1  0  0  0  0
 44 42  1  0  0  0  0
M  END
>  <MODEL>
6

>  <REMARK>
 VINA RESULT:      -5.3      2.815      4.230
  Name = 
  6 active torsions:
  status: ('A' for Active; 'I' for Inactive)
    1  A    between atoms: C_1  and  O_35
    2  A    between atoms: C_4  and  C_23
    3  A    between atoms: C_16  and  C_23
    4  A    between atoms: C_19  and  C_37
    5  A    between atoms: C_33  and  C_44
    6  A    between atoms: O_35  and  C_44
                            x       y       z     vdW  Elec       q    Type
                         _______ _______ _______ _____ _____    ______ ____

>  <TORSDO>
F 6

$$$$
=
 OpenBabel11062415473D

 44 48  0  0  1  0  0  0  0  0999 V2000
  181.1630  174.8250  136.2820 C   0  0  2  0  0  3  0  0  0  0  0  0
  189.0090  178.0440  139.1750 C   0  0  0  0  0  0  0  0  0  0  0  0
  182.6330  175.6410  134.5960 F   0  0  0  0  0  0  0  0  0  0  0  0
  189.3470  179.2470  138.5760 F   0  0  0  0  0  0  0  0  0  0  0  0
  188.7360  176.9760  138.1030 C   0  0  1  0  0  3  0  0  0  0  0  0
  183.4480  175.7530  136.8740 C   0  0  2  0  0  3  0  0  0  0  0  0
  182.6170  174.9830  135.8140 C   0  0  1  0  0  3  0  0  0  0  0  0
  179.9480  177.8150  139.6350 O   0  0  0  0  0  1  0  0  0  0  0  0
  188.1470  175.8420  138.6350 F   0  0  0  0  0  0  0  0  0  0  0  0
  185.6390  176.7490  137.4300 C   0  0  0  0  0  2  0  0  0  0  0  0
  181.1040  178.4100  137.7590 C   0  0  1  0  0  3  0  0  0  0  0  0
  181.6010  179.4270  139.9590 C   0  0  2  0  0  3  0  0  0  0  0  0
  182.7000  176.5800  137.7500 O   0  0  0  0  0  0  0  0  0  0  0  0
  186.6240  177.8580  142.1960 C   0  0  0  0  0  3  0  0  0  0  0  0
  184.6500  176.4980  136.3080 C   0  0  0  0  0  2  0  0  0  0  0  0
  188.0060  177.4690  136.8500 C   0  0  0  0  0  2  0  0  0  0  0  0
  180.5570  176.1650  136.7340 C   0  0  0  0  0  2  0  0  0  0  0  0
  186.4670  179.0730  138.0700 C   0  0  0  0  0  2  0  0  0  0  0  0
  181.1760  178.2160  139.2230 N   0  0  0  0  0  0  0  0  0  0  0  0
  185.3680  178.6030  140.2730 C   0  0  0  0  0  0  0  0  0  0  0  0
  181.8510  179.6360  137.2320 C   0  0  0  0  0  1  0  0  0  0  0  0
  181.6500  177.1860  137.0320 C   0  0  1  0  0  3  0  0  0  0  0  0
  186.5540  178.6430  139.5120 C   0  0  0  0  0  0  0  0  0  0  0  0
  185.4040  178.1220  141.5870 C   0  0  0  0  0  0  0  0  0  0  0  0
  184.1930  177.9570  142.3300 N   0  0  0  0  0  2  0  0  0  0  0  0
  190.1200  177.5930  139.8560 F   0  0  0  0  0  0  0  0  0  0  0  0
  187.8230  177.9610  141.4880 C   0  0  0  0  0  0  0  0  0  0  0  0
  187.7940  178.2510  140.0890 C   0  0  0  0  0  0  0  0  0  0  0  0
  182.8950  178.0820  141.6790 C   0  0  0  0  0  2  0  0  0  0  0  0
  182.9390  179.2370  140.6810 C   0  0  1  0  0  3  0  0  0  0  0  0
  184.0430  178.9750  139.6500 C   0  0  0  0  0  2  0  0  0  0  0  0
  186.5630  177.9090  137.0830 C   0  0  2  0  0  3  0  0  0  0  0  0
  189.7570  178.8630  142.5310 O   0  0  0  0  0  0  0  0  0  0  0  0
  189.0580  177.8440  142.2870 C   0  0  0  0  0  0  0  0  0  0  0  0
  189.5300  176.5600  142.6920 N   0  0  0  0  0  1  0  0  0  0  0  0
  180.5100  180.1850  140.7390 C   0  0  0  0  0  2  0  0  0  0  0  0
  179.7130  181.1590  139.8850 C   0  0  0  0  0  2  0  0  0  0  0  0
  180.5770  181.8870  139.0680 O   0  0  0  0  0  1  0  0  0  0  0  0
  181.1040  173.9000  137.3290 O   0  0  0  0  0  0  0  0  0  0  0  0
  180.0040  173.0860  137.0400 C   0  0  0  0  0  2  0  0  0  0  0  0
  181.7690  171.4980  137.0520 O   0  0  0  0  0  1  0  0  0  0  0  0
  180.4390  171.6170  135.2110 O   0  0  0  0  0  1  0  0  0  0  0  0
  179.6400  170.7410  137.1450 F   0  0  0  0  0  0  0  0  0  0  0  0
  180.4670  171.7060  136.6030 C   0  0  0  0  0  0  0  0  0  0  0  0
  1 17  1  0  0  0  0
  1 39  1  1  0  0  0
  2 26  1  0  0  0  0
  2 28  1  0  0  0  0
  4  2  1  0  0  0  0
  5  9  1  1  0  0  0
  5  2  1  0  0  0  0
  6 15  1  6  0  0  0
  6 13  1  0  0  0  0
  7  3  1  6  0  0  0
  7  1  1  0  0  0  0
  7  6  1  0  0  0  0
 11 21  1  1  0  0  0
 11 19  1  0  0  0  0
 12 30  1  0  0  0  0
 12 36  1  1  0  0  0
 15 10  1  0  0  0  0
 16  5  1  0  0  0  0
 18 23  1  0  0  0  0
 19  8  1  0  0  0  0
 19 12  1  0  0  0  0
 20 24  2  0  0  0  0
 22 17  1  1  0  0  0
 22 13  1  0  0  0  0
 22 11  1  0  0  0  0
 23 28  2  0  0  0  0
 23 20  1  0  0  0  0
 24 14  1  0  0  0  0
 24 25  1  0  0  0  0
 27 14  2  0  0  0  0
 27 34  1  0  0  0  0
 28 27  1  0  0  0  0
 29 25  1  0  0  0  0
 30 31  1  6  0  0  0
 30 29  1  0  0  0  0
 31 20  1  0  0  0  0
 32 16  1  1  0  0  0
 32 10  1  0  0  0  0
 32 18  1  0  0  0  0
 34 33  2  0  0  0  0
 34 35  1  0  0  0  0
 37 36  1  0  0  0  0
 38 37  1  0  0  0  0
 40 39  1  0  0  0  0
 42 44  1  0  0  0  0
 44 40  1  0  0  0  0
 44 41  1  0  0  0  0
 44 43  1  0  0  0  0
M  END
>  <MODEL>
7

>  <REMARK>
 VINA RESULT:      -5.2      3.232      9.187
  Name = 
  6 active torsions:
  status: ('A' for Active; 'I' for Inactive)
    1  A    between atoms: C_1  and  O_35
    2  A    between atoms: C_4  and  C_23
    3  A    between atoms: C_16  and  C_23
    4  A    between atoms: C_19  and  C_37
    5  A    between atoms: C_33  and  C_44
    6  A    between atoms: O_35  and  C_44
                            x       y       z     vdW  Elec       q    Type
                         _______ _______ _______ _____ _____    ______ ____

>  <TORSDO>
F 6

$$$$
=
 OpenBabel11062415473D

 44 48  0  0  1  0  0  0  0  0999 V2000
  190.2310  177.3350  139.7400 C   0  0  2  0  0  3  0  0  0  0  0  0
  181.4930  177.1290  137.7680 C   0  0  0  0  0  0  0  0  0  0  0  0
  189.2800  179.4000  139.0320 F   0  0  0  0  0  0  0  0  0  0  0  0
  181.1940  177.7930  136.5890 F   0  0  0  0  0  0  0  0  0  0  0  0
  182.2480  178.0640  138.7260 C   0  0  1  0  0  3  0  0  0  0  0  0
  187.7680  177.5120  139.1610 C   0  0  2  0  0  3  0  0  0  0  0  0
  188.9990  178.2500  139.7500 C   0  0  1  0  0  3  0  0  0  0  0  0
  189.8560  173.7370  136.8120 O   0  0  0  0  0  1  0  0  0  0  0  0
  182.7920  177.3810  139.8010 F   0  0  0  0  0  0  0  0  0  0  0  0
  185.3950  177.6910  138.4990 C   0  0  0  0  0  2  0  0  0  0  0  0
  189.2920  175.8820  136.2690 C   0  0  1  0  0  3  0  0  0  0  0  0
  187.9720  173.9540  135.4560 C   0  0  2  0  0  3  0  0  0  0  0  0
  188.0670  176.4300  138.2930 O   0  0  0  0  0  0  0  0  0  0  0  0
  182.7800  173.4970  137.8070 C   0  0  0  0  0  3  0  0  0  0  0  0
  186.7180  178.4310  138.5520 C   0  0  0  0  0  2  0  0  0  0  0  0
  183.2620  179.0050  138.0690 C   0  0  0  0  0  2  0  0  0  0  0  0
  190.4590  176.6950  138.3590 C   0  0  0  0  0  2  0  0  0  0  0  0
  184.0780  177.3320  136.3470 C   0  0  0  0  0  2  0  0  0  0  0  0
  188.7820  174.5230  136.5550 N   0  0  0  0  0  0  0  0  0  0  0  0
  184.4650  174.8960  136.7920 C   0  0  0  0  0  0  0  0  0  0  0  0
  188.5850  176.6100  135.1260 C   0  0  0  0  0  1  0  0  0  0  0  0
  189.1920  176.7590  137.5120 C   0  0  1  0  0  3  0  0  0  0  0  0
  183.5940  176.0020  136.8670 C   0  0  0  0  0  0  0  0  0  0  0  0
  184.0780  173.6710  137.3480 C   0  0  0  0  0  0  0  0  0  0  0  0
  184.9970  172.5750  137.3920 N   0  0  0  0  0  2  0  0  0  0  0  0
  180.2990  176.8530  138.4020 F   0  0  0  0  0  0  0  0  0  0  0  0
  181.8700  174.5570  137.8240 C   0  0  0  0  0  0  0  0  0  0  0  0
  182.3050  175.8660  137.4530 C   0  0  0  0  0  0  0  0  0  0  0  0
  186.4020  172.7650  137.0580 C   0  0  0  0  0  2  0  0  0  0  0  0
  186.5150  173.7100  135.8640 C   0  0  1  0  0  3  0  0  0  0  0  0
  185.8510  175.0480  136.2110 C   0  0  0  0  0  2  0  0  0  0  0  0
  184.4730  178.3080  137.4550 C   0  0  2  0  0  3  0  0  0  0  0  0
  180.1400  173.9800  139.3440 O   0  0  0  0  0  0  0  0  0  0  0  0
  180.4740  174.2060  138.1510 C   0  0  0  0  0  0  0  0  0  0  0  0
  179.5210  174.0090  137.1080 N   0  0  0  0  0  1  0  0  0  0  0  0
  188.6320  172.8520  134.6050 C   0  0  0  0  0  2  0  0  0  0  0  0
  188.6540  171.4890  135.2790 C   0  0  0  0  0  2  0  0  0  0  0  0
  187.8160  170.6100  134.5950 O   0  0  0  0  0  1  0  0  0  0  0  0
  190.0830  176.3370  140.7080 O   0  0  0  0  0  0  0  0  0  0  0  0
  189.3280  176.9220  141.7290 C   0  0  0  0  0  2  0  0  0  0  0  0
  190.5660  178.1420  143.3460 O   0  0  0  0  0  1  0  0  0  0  0  0
  191.1610  175.9860  142.9350 O   0  0  0  0  0  1  0  0  0  0  0  0
  189.2440  176.4500  144.0550 F   0  0  0  0  0  0  0  0  0  0  0  0
  190.0870  176.8700  143.0440 C   0  0  0  0  0  0  0  0  0  0  0  0
  1  7  1  0  0  0  0
  1 39  1  1  0  0  0
  2 26  1  0  0  0  0
  2  5  1  0  0  0  0
  4  2  1  0  0  0  0
  5  9  1  1  0  0  0
  6 15  1  6  0  0  0
  6  7  1  0  0  0  0
  7  3  1  6  0  0  0
 10 15  1  0  0  0  0
 11 21  1  6  0  0  0
 11 19  1  0  0  0  0
 11 22  1  0  0  0  0
 12 36  1  1  0  0  0
 12 30  1  0  0  0  0
 12 19  1  0  0  0  0
 13  6  1  0  0  0  0
 14 27  1  0  0  0  0
 16  5  1  0  0  0  0
 17  1  1  0  0  0  0
 18 23  1  0  0  0  0
 19  8  1  0  0  0  0
 20 23  2  0  0  0  0
 20 24  1  0  0  0  0
 22 13  1  0  0  0  0
 22 17  1  1  0  0  0
 23 28  1  0  0  0  0
 24 25  1  0  0  0  0
 24 14  2  0  0  0  0
 27 34  1  0  0  0  0
 28  2  1  0  0  0  0
 28 27  2  0  0  0  0
 29 25  1  0  0  0  0
 30 31  1  1  0  0  0
 30 29  1  0  0  0  0
 31 20  1  0  0  0  0
 32 18  1  6  0  0  0
 32 16  1  0  0  0  0
 32 10  1  0  0  0  0
 34 33  2  0  0  0  0
 35 34  1  0  0  0  0
 36 37  1  0  0  0  0
 38 37  1  0  0  0  0
 39 40  1  0  0  0  0
 40 44  1  0  0  0  0
 42 44  1  0  0  0  0
 44 41  1  0  0  0  0
 44 43  1  0  0  0  0
M  END
>  <MODEL>
8

>  <REMARK>
 VINA RESULT:      -5.0      1.842      2.330
  Name = 
  6 active torsions:
  status: ('A' for Active; 'I' for Inactive)
    1  A    between atoms: C_1  and  O_35
    2  A    between atoms: C_4  and  C_23
    3  A    between atoms: C_16  and  C_23
    4  A    between atoms: C_19  and  C_37
    5  A    between atoms: C_33  and  C_44
    6  A    between atoms: O_35  and  C_44
                            x       y       z     vdW  Elec       q    Type
                         _______ _______ _______ _____ _____    ______ ____

>  <TORSDO>
F 6

$$$$
