=
 OpenBabel11062417503D

 58 63  0  0  1  0  0  0  0  0999 V2000
  184.0880  176.9990  138.9090 C   0  0  0  0  0  3  0  0  0  0  0  0
  183.2730  177.9220  139.4540 C   0  0  0  0  0  0  0  0  0  0  0  0
  181.9650  178.2550  138.7460 C   0  0  2  0  0  3  0  0  0  0  0  0
  182.9590  177.2350  136.7320 C   0  0  0  0  0  3  0  0  0  0  0  0
  182.7870  175.1200  137.9770 C   0  0  0  0  0  1  0  0  0  0  0  0
  182.1430  178.1760  137.2290 C   0  0  0  0  0  0  0  0  0  0  0  0
  183.7090  176.2840  137.6370 C   0  0  2  0  0  0  0  0  0  0  0  0
  187.5700  175.0640  135.8910 O   0  0  0  0  0  0  0  0  0  0  0  0
  186.1580  176.5570  137.0140 N   0  0  0  0  0  2  0  0  0  0  0  0
  184.9590  175.7690  136.9720 C   0  0  0  0  0  0  0  0  0  0  0  0
  187.4130  176.1930  136.4240 C   0  0  0  0  0  0  0  0  0  0  0  0
  184.9290  174.6950  136.3110 O   0  0  0  0  0  0  0  0  0  0  0  0
  188.5400  177.1310  136.4420 C   0  0  0  0  0  3  0  0  0  0  0  0
  188.7890  177.9120  137.4860 C   0  0  0  0  0  2  0  0  0  0  0  0
  181.4310  179.0130  136.2490 C   0  0  0  0  0  3  0  0  0  0  0  0
  180.1710  179.4020  136.3780 C   0  0  0  0  0  3  0  0  0  0  0  0
  179.5190  180.2470  135.3360 C   0  0  0  0  0  2  0  0  0  0  0  0
  179.6500  181.6570  135.6700 N   0  0  0  0  0  0  0  0  0  0  0  0
  178.9300  181.5850  137.9210 O   0  0  0  0  0  0  0  0  0  0  0  0
  179.3300  182.2420  136.9230 C   0  0  0  0  0  0  0  0  0  0  0  0
  179.8540  183.9580  135.5740 C   0  0  0  0  0  0  0  0  0  0  0  0
  178.9430  184.5710  137.9050 C   0  0  0  0  0  1  0  0  0  0  0  0
  179.9800  182.7230  134.7290 C   0  0  0  0  0  2  0  0  0  0  0  0
  179.4740  183.6480  136.9140 N   0  0  0  0  0  0  0  0  0  0  0  0
  179.9600  185.1920  135.1030 C   0  0  0  0  0  2  0  0  0  0  0  0
  185.0650  179.2910  140.5890 C   0  0  0  0  0  1  0  0  0  0  0  0
  183.6830  178.6610  140.7040 C   0  0  2  0  0  3  0  0  0  0  0  0
  183.4940  177.8650  142.0000 C   0  0  0  0  0  2  0  0  0  0  0  0
  184.6740  177.9650  142.9630 C   0  0  0  0  0  2  0  0  0  0  0  0
  183.3870  179.7000  144.2480 C   0  0  0  0  0  1  0  0  0  0  0  0
  184.2200  178.4300  144.3440 C   0  0  2  0  0  3  0  0  0  0  0  0
  185.3920  178.6190  145.3060 C   0  0  1  0  0  3  0  0  0  0  0  0
  184.9620  179.2770  146.4610 O   0  0  0  0  0  1  0  0  0  0  0  0
  186.0660  177.3020  145.6830 C   0  0  0  0  0  2  0  0  0  0  0  0
  187.4960  177.3030  145.2450 C   0  0  0  0  0  0  0  0  0  0  0  0
  188.5620  177.2580  146.1620 C   0  0  0  0  0  0  0  0  0  0  0  0
  191.5810  177.4650  143.9890 C   0  0  0  0  0  1  0  0  0  0  0  0
  190.1390  177.4100  144.3730 C   0  0  0  0  0  0  0  0  0  0  0  0
  187.7800  177.3920  143.8830 C   0  0  0  0  0  3  0  0  0  0  0  0
  189.8400  177.3260  145.6970 N   0  0  0  0  0  0  0  0  0  0  0  0
  189.0980  177.4410  143.4170 C   0  0  0  0  0  0  0  0  0  0  0  0
  188.3170  177.2080  147.6450 C   0  0  0  0  0  3  0  0  0  0  0  0
  187.8850  178.5680  148.1690 C   0  0  0  0  0  2  0  0  0  0  0  0
  189.3100  178.1050  148.3640 C   0  0  0  0  0  2  0  0  0  0  0  0
  189.3200  177.5340  141.9510 C   0  0  0  0  0  0  0  0  0  0  0  0
  189.9420  176.6340  141.3270 O   0  0  0  0  0  0  0  0  0  0  0  0
  188.8280  178.6570  141.2260 N   0  0  0  0  0  1  0  0  0  0  0  0
  181.4560  179.4890  139.1860 O   0  0  0  0  0  0  0  0  0  0  0  0
  179.7150  177.7970  139.3240 C   0  0  0  0  0  2  0  0  0  0  0  0
  179.6040  180.4940  143.0190 C   0  0  0  0  0  2  0  0  0  0  0  0
  180.1170  176.7440  140.3750 C   0  0  1  0  0  3  0  0  0  0  0  0
  180.1760  179.2270  139.7040 C   0  0  1  0  0  3  0  0  0  0  0  0
  180.2120  179.3670  141.2290 C   0  0  2  0  0  3  0  0  0  0  0  0
  179.6990  177.1510  141.8050 C   0  0  0  0  0  2  0  0  0  0  0  0
  179.5070  175.4050  140.0210 C   0  0  0  0  0  1  0  0  0  0  0  0
  179.2020  178.5270  141.8360 N   0  0  1  0  0  0  0  0  0  0  0  0
  179.1930  179.0420  143.1800 C   0  0  0  0  0  2  0  0  0  0  0  0
  180.0230  180.6740  141.6880 O   0  0  0  0  0  0  0  0  0  0  0  0
  1  2  2  0  0  0  0
  2 27  1  0  0  0  0
  3 48  1  6  0  0  0
  3  2  1  0  0  0  0
  4  6  2  0  0  0  0
  4  7  1  0  0  0  0
  6  3  1  0  0  0  0
  7  5  1  1  0  0  0
  7  1  1  0  0  0  0
  8 11  2  0  0  0  0
 10  9  1  0  0  0  0
 10  7  1  0  0  0  0
 11 13  1  0  0  0  0
 11  9  1  0  0  0  0
 12 10  2  0  0  0  0
 13 14  2  0  0  0  0
 15 16  2  0  0  0  0
 15  6  1  0  0  0  0
 17 18  1  0  0  0  0
 17 16  1  0  0  0  0
 18 20  1  0  0  0  0
 20 19  2  0  0  0  0
 21 24  1  0  0  0  0
 23 21  1  0  0  0  0
 23 18  1  0  0  0  0
 24 20  1  0  0  0  0
 24 22  1  0  0  0  0
 25 21  2  0  0  0  0
 27 26  1  6  0  0  0
 27 28  1  0  0  0  0
 28 29  1  0  0  0  0
 29 31  1  0  0  0  0
 31 30  1  6  0  0  0
 31 32  1  0  0  0  0
 32 34  1  0  0  0  0
 32 33  1  1  0  0  0
 35 34  1  0  0  0  0
 35 36  1  0  0  0  0
 36 42  1  0  0  0  0
 37 38  1  0  0  0  0
 38 40  1  0  0  0  0
 39 35  2  0  0  0  0
 40 36  2  0  0  0  0
 41 39  1  0  0  0  0
 41 38  2  0  0  0  0
 42 43  1  0  0  0  0
 42 44  1  0  0  0  0
 43 44  1  0  0  0  0
 45 41  1  0  0  0  0
 46 45  2  0  0  0  0
 47 45  1  0  0  0  0
 49 52  1  0  0  0  0
 49 51  1  0  0  0  0
 50 57  1  0  0  0  0
 51 55  1  6  0  0  0
 51 54  1  0  0  0  0
 52 48  1  1  0  0  0
 52 53  1  0  0  0  0
 53 58  1  6  0  0  0
 53 56  1  0  0  0  0
 56 54  1  1  0  0  0
 56 57  1  0  0  0  0
 58 50  1  0  0  0  0
M  END
>  <MODEL>
1

>  <REMARK>
 VINA RESULT:      -8.1      0.000      0.000
  Name = 
  16 active torsions:
  status: ('A' for Active; 'I' for Inactive)
    1  A    between atoms: C_1  and  C_14
    2  A    between atoms: N_3  and  C_39
    3  A    between atoms: C_5  and  C_10
    4  A    between atoms: C_8  and  C_52
    5  A    between atoms: C_12  and  C_44
    6  A    between atoms: C_14  and  C_41
    7  A    between atoms: C_17  and  C_42
    8  A    between atoms: O_18  and  C_22
    9  A    between atoms: O_18  and  C_35
   10  A    between atoms: C_21  and  C_33
   11  A    between atoms: C_21  and  C_44
   12  A    between atoms: C_27  and  C_43
   13  A    between atoms: C_31  and  C_39
   14  A    between atoms: C_33  and  C_55
   15  A    between atoms: C_41  and  C_55
   16  A    between atoms: C_46  and  C_50
                            x       y       z     vdW  Elec       q    Type
                         _______ _______ _______ _____ _____    ______ ____

>  <TORSDO>
F 16

$$$$
=
 OpenBabel11062417503D

 58 63  0  0  1  0  0  0  0  0999 V2000
  187.9170  177.8430  138.2750 C   0  0  0  0  0  3  0  0  0  0  0  0
  189.0320  177.1160  138.0690 C   0  0  0  0  0  0  0  0  0  0  0  0
  189.0650  176.1380  136.9010 C   0  0  2  0  0  3  0  0  0  0  0  0
  186.6030  176.2830  136.8930 C   0  0  0  0  0  3  0  0  0  0  0  0
  186.9530  178.5960  136.1300 C   0  0  0  0  0  1  0  0  0  0  0  0
  187.6840  175.5180  136.6840 C   0  0  0  0  0  0  0  0  0  0  0  0
  186.7300  177.7170  137.3550 C   0  0  2  0  0  0  0  0  0  0  0  0
  183.0180  178.6400  139.5490 O   0  0  0  0  0  0  0  0  0  0  0  0
  184.4480  177.2190  138.3580 N   0  0  0  0  0  2  0  0  0  0  0  0
  185.4910  178.1660  138.0870 C   0  0  0  0  0  0  0  0  0  0  0  0
  183.2210  177.5070  139.0410 C   0  0  0  0  0  0  0  0  0  0  0  0
  185.3370  179.3830  138.3830 O   0  0  0  0  0  0  0  0  0  0  0  0
  182.1830  176.4780  139.1650 C   0  0  0  0  0  3  0  0  0  0  0  0
  180.9160  176.7140  138.8460 C   0  0  0  0  0  2  0  0  0  0  0  0
  187.4380  174.1530  136.1900 C   0  0  0  0  0  3  0  0  0  0  0  0
  186.3260  173.7700  135.5800 C   0  0  0  0  0  3  0  0  0  0  0  0
  186.1520  172.3640  135.1130 C   0  0  0  0  0  2  0  0  0  0  0  0
  184.7410  172.0140  135.0710 N   0  0  0  0  0  0  0  0  0  0  0  0
  183.8030  174.1780  135.2350 O   0  0  0  0  0  0  0  0  0  0  0  0
  183.6590  172.9300  135.1560 C   0  0  0  0  0  0  0  0  0  0  0  0
  182.7230  170.8890  135.1610 C   0  0  0  0  0  0  0  0  0  0  0  0
  181.1360  172.8790  135.5700 C   0  0  0  0  0  1  0  0  0  0  0  0
  184.2040  170.6560  135.0940 C   0  0  0  0  0  2  0  0  0  0  0  0
  182.4040  172.2800  135.1810 N   0  0  0  0  0  0  0  0  0  0  0  0
  181.8260  169.9240  135.3100 C   0  0  0  0  0  2  0  0  0  0  0  0
  190.9830  175.9190  139.1330 C   0  0  0  0  0  1  0  0  0  0  0  0
  190.1980  177.2190  139.0210 C   0  0  2  0  0  3  0  0  0  0  0  0
  189.8490  177.8260  140.3850 C   0  0  0  0  0  2  0  0  0  0  0  0
  190.9780  177.7360  141.4080 C   0  0  0  0  0  2  0  0  0  0  0  0
  191.5790  178.0500  143.8280 C   0  0  0  0  0  1  0  0  0  0  0  0
  190.4440  177.8750  142.8310 C   0  0  2  0  0  3  0  0  0  0  0  0
  189.5430  176.7060  143.2290 C   0  0  1  0  0  3  0  0  0  0  0  0
  190.1540  175.4960  142.8910 O   0  0  0  0  0  1  0  0  0  0  0  0
  189.1890  176.7100  144.7130 C   0  0  0  0  0  2  0  0  0  0  0  0
  187.8420  177.3250  144.9270 C   0  0  0  0  0  0  0  0  0  0  0  0
  187.2970  177.5110  146.2100 C   0  0  0  0  0  0  0  0  0  0  0  0
  183.9280  178.9420  145.5180 C   0  0  0  0  0  1  0  0  0  0  0  0
  185.2880  178.3850  145.2560 C   0  0  0  0  0  0  0  0  0  0  0  0
  187.0880  177.6910  143.8130 C   0  0  0  0  0  3  0  0  0  0  0  0
  186.0390  178.0200  146.3290 N   0  0  0  0  0  0  0  0  0  0  0  0
  185.8050  178.2310  143.9490 C   0  0  0  0  0  0  0  0  0  0  0  0
  188.0450  177.0940  147.4460 C   0  0  0  0  0  3  0  0  0  0  0  0
  188.1100  178.2330  148.4500 C   0  0  0  0  0  2  0  0  0  0  0  0
  189.3120  177.9220  147.5880 C   0  0  0  0  0  2  0  0  0  0  0  0
  185.0640  178.5960  142.7150 C   0  0  0  0  0  0  0  0  0  0  0  0
  183.8980  178.1690  142.5030 O   0  0  0  0  0  0  0  0  0  0  0  0
  185.6710  179.4430  141.7430 N   0  0  0  0  0  1  0  0  0  0  0  0
  190.0850  175.1860  137.0730 O   0  0  0  0  0  0  0  0  0  0  0  0
  191.8430  176.0550  135.6330 C   0  0  0  0  0  2  0  0  0  0  0  0
  191.1280  171.6180  134.7680 C   0  0  0  0  0  2  0  0  0  0  0  0
  193.2030  175.5160  136.1180 C   0  0  1  0  0  3  0  0  0  0  0  0
  190.6950  175.0300  135.8160 C   0  0  1  0  0  3  0  0  0  0  0  0
  191.2530  173.6070  135.7020 C   0  0  2  0  0  3  0  0  0  0  0  0
  193.5330  174.1300  135.5210 C   0  0  0  0  0  2  0  0  0  0  0  0
  194.2980  176.5010  135.7710 C   0  0  0  0  0  1  0  0  0  0  0  0
  192.3850  173.5810  134.8000 N   0  0  1  0  0  0  0  0  0  0  0  0
  192.5340  172.1640  134.5940 C   0  0  0  0  0  2  0  0  0  0  0  0
  190.3220  172.6620  135.2590 O   0  0  0  0  0  0  0  0  0  0  0  0
  2  1  2  0  0  0  0
  2 27  1  0  0  0  0
  3 48  1  1  0  0  0
  3  2  1  0  0  0  0
  4  7  1  0  0  0  0
  6  4  2  0  0  0  0
  6  3  1  0  0  0  0
  7  5  1  6  0  0  0
  7 10  1  0  0  0  0
  7  1  1  0  0  0  0
  9 11  1  0  0  0  0
 10  9  1  0  0  0  0
 10 12  2  0  0  0  0
 11 13  1  0  0  0  0
 11  8  2  0  0  0  0
 14 13  2  0  0  0  0
 15  6  1  0  0  0  0
 16 15  2  0  0  0  0
 17 16  1  0  0  0  0
 18 23  1  0  0  0  0
 18 17  1  0  0  0  0
 18 20  1  0  0  0  0
 20 24  1  0  0  0  0
 20 19  2  0  0  0  0
 21 24  1  0  0  0  0
 21 25  2  0  0  0  0
 23 21  1  0  0  0  0
 24 22  1  0  0  0  0
 27 26  1  1  0  0  0
 27 28  1  0  0  0  0
 28 29  1  0  0  0  0
 29 31  1  0  0  0  0
 31 32  1  0  0  0  0
 31 30  1  1  0  0  0
 32 33  1  1  0  0  0
 32 34  1  0  0  0  0
 34 35  1  0  0  0  0
 35 36  1  0  0  0  0
 36 40  2  0  0  0  0
 36 42  1  0  0  0  0
 38 37  1  0  0  0  0
 38 40  1  0  0  0  0
 39 41  1  0  0  0  0
 39 35  2  0  0  0  0
 41 38  2  0  0  0  0
 42 44  1  0  0  0  0
 42 43  1  0  0  0  0
 44 43  1  0  0  0  0
 45 41  1  0  0  0  0
 46 45  2  0  0  0  0
 47 45  1  0  0  0  0
 49 52  1  0  0  0  0
 49 51  1  0  0  0  0
 50 58  1  0  0  0  0
 51 55  1  6  0  0  0
 52 48  1  1  0  0  0
 53 58  1  6  0  0  0
 53 52  1  0  0  0  0
 54 51  1  0  0  0  0
 56 57  1  1  0  0  0
 56 54  1  0  0  0  0
 56 53  1  0  0  0  0
 57 50  1  0  0  0  0
M  END
>  <MODEL>
2

>  <REMARK>
 VINA RESULT:      -7.6      3.675      9.019
  Name = 
  16 active torsions:
  status: ('A' for Active; 'I' for Inactive)
    1  A    between atoms: C_1  and  C_14
    2  A    between atoms: N_3  and  C_39
    3  A    between atoms: C_5  and  C_10
    4  A    between atoms: C_8  and  C_52
    5  A    between atoms: C_12  and  C_44
    6  A    between atoms: C_14  and  C_41
    7  A    between atoms: C_17  and  C_42
    8  A    between atoms: O_18  and  C_22
    9  A    between atoms: O_18  and  C_35
   10  A    between atoms: C_21  and  C_33
   11  A    between atoms: C_21  and  C_44
   12  A    between atoms: C_27  and  C_43
   13  A    between atoms: C_31  and  C_39
   14  A    between atoms: C_33  and  C_55
   15  A    between atoms: C_41  and  C_55
   16  A    between atoms: C_46  and  C_50
                            x       y       z     vdW  Elec       q    Type
                         _______ _______ _______ _____ _____    ______ ____

>  <TORSDO>
F 16

$$$$
=
 OpenBabel11062417503D

 58 63  0  0  1  0  0  0  0  0999 V2000
  180.3210  179.3740  136.4950 C   0  0  0  0  0  3  0  0  0  0  0  0
  180.6950  178.1080  136.7590 C   0  0  0  0  0  0  0  0  0  0  0  0
  181.5330  177.8340  138.0020 C   0  0  2  0  0  3  0  0  0  0  0  0
  182.0710  180.2400  137.9970 C   0  0  0  0  0  3  0  0  0  0  0  0
  179.6990  180.5560  138.5710 C   0  0  0  0  0  1  0  0  0  0  0  0
  182.4900  178.9970  138.2670 C   0  0  0  0  0  0  0  0  0  0  0  0
  180.6970  180.5020  137.4210 C   0  0  2  0  0  0  0  0  0  0  0  0
  180.6460  184.4850  135.5310 O   0  0  0  0  0  0  0  0  0  0  0  0
  180.4900  183.0340  137.3620 N   0  0  0  0  0  2  0  0  0  0  0  0
  180.6640  181.7990  136.6540 C   0  0  0  0  0  0  0  0  0  0  0  0
  180.4380  184.3360  136.7630 C   0  0  0  0  0  0  0  0  0  0  0  0
  180.7030  181.7900  135.3930 O   0  0  0  0  0  0  0  0  0  0  0  0
  180.1500  185.5180  137.5830 C   0  0  0  0  0  3  0  0  0  0  0  0
  179.2290  185.5030  138.5380 C   0  0  0  0  0  2  0  0  0  0  0  0
  183.8280  178.8700  138.8690 C   0  0  0  0  0  3  0  0  0  0  0  0
  184.0840  179.0340  140.1590 C   0  0  0  0  0  3  0  0  0  0  0  0
  185.4700  178.8930  140.6900 C   0  0  0  0  0  2  0  0  0  0  0  0
  185.4510  178.7980  142.1410 N   0  0  0  0  0  0  0  0  0  0  0  0
  187.4490  177.5780  142.4720 O   0  0  0  0  0  0  0  0  0  0  0  0
  186.4200  178.1340  142.9380 C   0  0  0  0  0  0  0  0  0  0  0  0
  184.8120  178.7840  144.3630 C   0  0  0  0  0  0  0  0  0  0  0  0
  186.6720  177.2910  145.3400 C   0  0  0  0  0  1  0  0  0  0  0  0
  184.3560  179.2300  143.0040 C   0  0  0  0  0  2  0  0  0  0  0  0
  186.0800  178.1320  144.3110 N   0  0  0  0  0  0  0  0  0  0  0  0
  184.0720  178.8730  145.4590 C   0  0  0  0  0  2  0  0  0  0  0  0
  179.0930  176.2350  136.2110 C   0  0  0  0  0  1  0  0  0  0  0  0
  180.3490  176.9930  135.8030 C   0  0  2  0  0  3  0  0  0  0  0  0
  181.5220  176.0660  135.4610 C   0  0  0  0  0  2  0  0  0  0  0  0
  182.6760  176.7680  134.7500 C   0  0  0  0  0  2  0  0  0  0  0  0
  183.5190  174.4140  135.0000 C   0  0  0  0  0  1  0  0  0  0  0  0
  183.8750  175.8360  134.5960 C   0  0  2  0  0  3  0  0  0  0  0  0
  185.0980  176.3330  135.3670 C   0  0  1  0  0  3  0  0  0  0  0  0
  184.8600  177.6170  135.8630 O   0  0  0  0  0  1  0  0  0  0  0  0
  185.4940  175.4020  136.5100 C   0  0  0  0  0  2  0  0  0  0  0  0
  186.9210  175.6300  136.8980 C   0  0  0  0  0  0  0  0  0  0  0  0
  187.9030  174.6330  136.7650 C   0  0  0  0  0  0  0  0  0  0  0  0
  190.9610  176.2420  138.1560 C   0  0  0  0  0  1  0  0  0  0  0  0
  189.5390  176.0830  137.7320 C   0  0  0  0  0  0  0  0  0  0  0  0
  187.2770  176.8610  137.4470 C   0  0  0  0  0  3  0  0  0  0  0  0
  189.1700  174.8880  137.1960 N   0  0  0  0  0  0  0  0  0  0  0  0
  188.5860  177.1170  137.8690 C   0  0  0  0  0  0  0  0  0  0  0  0
  187.5680  173.2720  136.2210 C   0  0  0  0  0  3  0  0  0  0  0  0
  188.4770  172.9140  135.0570 C   0  0  0  0  0  2  0  0  0  0  0  0
  187.0690  173.3940  134.7920 C   0  0  0  0  0  2  0  0  0  0  0  0
  188.8890  178.4540  138.4430 C   0  0  0  0  0  0  0  0  0  0  0  0
  188.9730  178.6250  139.6880 O   0  0  0  0  0  0  0  0  0  0  0  0
  189.0870  179.5710  137.5820 N   0  0  0  0  0  1  0  0  0  0  0  0
  182.1780  176.5880  137.9080 O   0  0  0  0  0  0  0  0  0  0  0  0
  181.3440  176.7890  140.1850 C   0  0  0  0  0  2  0  0  0  0  0  0
  179.8200  172.9220  138.2690 C   0  0  0  0  0  2  0  0  0  0  0  0
  179.8440  177.1420  140.1430 C   0  0  1  0  0  3  0  0  0  0  0  0
  181.7680  175.8460  139.0300 C   0  0  1  0  0  3  0  0  0  0  0  0
  180.5880  174.9520  138.6360 C   0  0  2  0  0  3  0  0  0  0  0  0
  178.9480  175.8890  140.0280 C   0  0  0  0  0  2  0  0  0  0  0  0
  179.4690  177.9340  141.3760 C   0  0  0  0  0  1  0  0  0  0  0  0
  179.7500  174.6900  139.7870 N   0  0  1  0  0  0  0  0  0  0  0  0
  178.9320  173.6150  139.2870 C   0  0  0  0  0  2  0  0  0  0  0  0
  180.9610  173.7230  138.0820 O   0  0  0  0  0  0  0  0  0  0  0  0
  1  2  2  0  0  0  0
  1  7  1  0  0  0  0
  2  3  1  0  0  0  0
  3 48  1  6  0  0  0
  3  6  1  0  0  0  0
  4  6  2  0  0  0  0
  6 15  1  0  0  0  0
  7  4  1  0  0  0  0
  7  5  1  1  0  0  0
  8 11  2  0  0  0  0
 10  9  1  0  0  0  0
 10  7  1  0  0  0  0
 11  9  1  0  0  0  0
 11 13  1  0  0  0  0
 12 10  2  0  0  0  0
 13 14  2  0  0  0  0
 15 16  2  0  0  0  0
 16 17  1  0  0  0  0
 17 18  1  0  0  0  0
 18 20  1  0  0  0  0
 18 23  1  0  0  0  0
 19 20  2  0  0  0  0
 20 24  1  0  0  0  0
 21 25  2  0  0  0  0
 23 21  1  0  0  0  0
 24 21  1  0  0  0  0
 24 22  1  0  0  0  0
 27 26  1  1  0  0  0
 27  2  1  0  0  0  0
 28 27  1  0  0  0  0
 29 28  1  0  0  0  0
 31 29  1  0  0  0  0
 31 30  1  1  0  0  0
 31 32  1  0  0  0  0
 32 33  1  1  0  0  0
 32 34  1  0  0  0  0
 34 35  1  0  0  0  0
 35 39  1  0  0  0  0
 36 35  2  0  0  0  0
 36 40  1  0  0  0  0
 38 41  1  0  0  0  0
 38 37  1  0  0  0  0
 39 41  2  0  0  0  0
 40 38  2  0  0  0  0
 41 45  1  0  0  0  0
 42 36  1  0  0  0  0
 43 42  1  0  0  0  0
 44 43  1  0  0  0  0
 44 42  1  0  0  0  0
 45 46  2  0  0  0  0
 47 45  1  0  0  0  0
 50 57  1  0  0  0  0
 51 49  1  0  0  0  0
 51 55  1  1  0  0  0
 52 48  1  6  0  0  0
 52 49  1  0  0  0  0
 53 58  1  1  0  0  0
 53 52  1  0  0  0  0
 53 56  1  0  0  0  0
 54 51  1  0  0  0  0
 56 57  1  6  0  0  0
 56 54  1  0  0  0  0
 58 50  1  0  0  0  0
M  END
>  <MODEL>
3

>  <REMARK>
 VINA RESULT:      -6.9      2.470      8.283
  Name = 
  16 active torsions:
  status: ('A' for Active; 'I' for Inactive)
    1  A    between atoms: C_1  and  C_14
    2  A    between atoms: N_3  and  C_39
    3  A    between atoms: C_5  and  C_10
    4  A    between atoms: C_8  and  C_52
    5  A    between atoms: C_12  and  C_44
    6  A    between atoms: C_14  and  C_41
    7  A    between atoms: C_17  and  C_42
    8  A    between atoms: O_18  and  C_22
    9  A    between atoms: O_18  and  C_35
   10  A    between atoms: C_21  and  C_33
   11  A    between atoms: C_21  and  C_44
   12  A    between atoms: C_27  and  C_43
   13  A    between atoms: C_31  and  C_39
   14  A    between atoms: C_33  and  C_55
   15  A    between atoms: C_41  and  C_55
   16  A    between atoms: C_46  and  C_50
                            x       y       z     vdW  Elec       q    Type
                         _______ _______ _______ _____ _____    ______ ____

>  <TORSDO>
F 16

$$$$
=
 OpenBabel11062417503D

 58 63  0  0  1  0  0  0  0  0999 V2000
  184.9840  178.3610  138.2120 C   0  0  0  0  0  3  0  0  0  0  0  0
  186.2590  178.3840  138.6450 C   0  0  0  0  0  0  0  0  0  0  0  0
  186.5310  178.2060  140.1340 C   0  0  2  0  0  3  0  0  0  0  0  0
  184.1640  178.7950  140.4950 C   0  0  0  0  0  3  0  0  0  0  0  0
  183.6820  176.6400  139.4100 C   0  0  0  0  0  1  0  0  0  0  0  0
  185.4190  178.8510  140.9620 C   0  0  0  0  0  0  0  0  0  0  0  0
  183.8430  178.1360  139.1720 C   0  0  2  0  0  0  0  0  0  0  0  0
  180.1390  180.0420  137.7280 O   0  0  0  0  0  0  0  0  0  0  0  0
  181.7600  179.5800  139.3540 N   0  0  0  0  0  2  0  0  0  0  0  0
  182.5800  178.6980  138.5730 C   0  0  0  0  0  0  0  0  0  0  0  0
  180.5350  180.1830  138.9140 C   0  0  0  0  0  0  0  0  0  0  0  0
  182.2020  178.3280  137.4280 O   0  0  0  0  0  0  0  0  0  0  0  0
  179.7300  180.9840  139.8420 C   0  0  0  0  0  3  0  0  0  0  0  0
  179.6640  180.7060  141.1380 C   0  0  0  0  0  2  0  0  0  0  0  0
  185.6020  179.4760  142.2820 C   0  0  0  0  0  3  0  0  0  0  0  0
  185.1690  178.9540  143.4200 C   0  0  0  0  0  3  0  0  0  0  0  0
  185.3900  179.6540  144.7190 C   0  0  0  0  0  2  0  0  0  0  0  0
  186.2620  178.8680  145.5770 N   0  0  0  0  0  0  0  0  0  0  0  0
  185.6720  179.7920  147.6720 O   0  0  0  0  0  0  0  0  0  0  0  0
  186.3680  178.9970  146.9870 C   0  0  0  0  0  0  0  0  0  0  0  0
  187.9470  177.5140  146.3980 C   0  0  0  0  0  0  0  0  0  0  0  0
  187.9430  178.2640  148.8630 C   0  0  0  0  0  1  0  0  0  0  0  0
  187.2830  177.9300  145.1180 C   0  0  0  0  0  2  0  0  0  0  0  0
  187.3680  178.1590  147.5310 N   0  0  0  0  0  0  0  0  0  0  0  0
  189.0210  176.7400  146.4580 C   0  0  0  0  0  2  0  0  0  0  0  0
  187.4220  180.0980  137.2020 C   0  0  0  0  0  1  0  0  0  0  0  0
  187.3890  178.6530  137.6820 C   0  0  2  0  0  3  0  0  0  0  0  0
  187.4970  177.6410  136.5360 C   0  0  0  0  0  2  0  0  0  0  0  0
  186.9250  176.2660  136.8710 C   0  0  0  0  0  2  0  0  0  0  0  0
  185.3450  176.8950  135.0210 C   0  0  0  0  0  1  0  0  0  0  0  0
  186.0370  175.7480  135.7420 C   0  0  2  0  0  3  0  0  0  0  0  0
  185.0190  174.7180  136.2320 C   0  0  1  0  0  3  0  0  0  0  0  0
  185.3870  174.2460  137.4930 O   0  0  0  0  0  1  0  0  0  0  0  0
  183.5960  175.2680  136.2800 C   0  0  0  0  0  2  0  0  0  0  0  0
  182.6050  174.1490  136.3230 C   0  0  0  0  0  0  0  0  0  0  0  0
  181.2990  174.3220  136.8150 C   0  0  0  0  0  0  0  0  0  0  0  0
  179.8300  170.9060  136.5850 C   0  0  0  0  0  1  0  0  0  0  0  0
  180.8360  172.0020  136.4700 C   0  0  0  0  0  0  0  0  0  0  0  0
  183.0040  172.8840  135.8950 C   0  0  0  0  0  3  0  0  0  0  0  0
  180.4680  173.2450  136.8840 N   0  0  0  0  0  0  0  0  0  0  0  0
  182.1350  171.7890  135.9530 C   0  0  0  0  0  0  0  0  0  0  0  0
  180.8270  175.6530  137.3310 C   0  0  0  0  0  3  0  0  0  0  0  0
  179.7800  175.4720  138.4180 C   0  0  0  0  0  2  0  0  0  0  0  0
  179.3520  175.8370  137.0150 C   0  0  0  0  0  2  0  0  0  0  0  0
  182.6330  170.4720  135.4780 C   0  0  0  0  0  0  0  0  0  0  0  0
  183.7790  170.0560  135.7930 O   0  0  0  0  0  0  0  0  0  0  0  0
  181.8110  169.6560  134.6490 N   0  0  0  0  0  1  0  0  0  0  0  0
  187.8170  178.6670  140.4670 O   0  0  0  0  0  0  0  0  0  0  0  0
  188.9940  176.6630  139.7510 C   0  0  0  0  0  2  0  0  0  0  0  0
  190.7520  178.2200  143.6790 C   0  0  0  0  0  2  0  0  0  0  0  0
  190.3880  177.0590  139.2250 C   0  0  1  0  0  3  0  0  0  0  0  0
  188.5290  177.5490  140.9340 C   0  0  1  0  0  3  0  0  0  0  0  0
  189.7480  178.0270  141.7290 C   0  0  2  0  0  3  0  0  0  0  0  0
  191.4370  177.1540  140.3540 C   0  0  0  0  0  2  0  0  0  0  0  0
  190.8430  176.0630  138.1800 C   0  0  0  0  0  1  0  0  0  0  0  0
  190.8060  177.0410  141.6690 N   0  0  1  0  0  0  0  0  0  0  0  0
  191.6830  177.5200  142.7050 C   0  0  0  0  0  2  0  0  0  0  0  0
  189.4830  178.2970  143.0760 O   0  0  0  0  0  0  0  0  0  0  0  0
  1  2  2  0  0  0  0
  1  7  1  0  0  0  0
  2  3  1  0  0  0  0
  3 48  1  1  0  0  0
  3  6  1  0  0  0  0
  4  6  2  0  0  0  0
  6 15  1  0  0  0  0
  7  5  1  1  0  0  0
  7  4  1  0  0  0  0
  8 11  2  0  0  0  0
 10  7  1  0  0  0  0
 10  9  1  0  0  0  0
 11  9  1  0  0  0  0
 11 13  1  0  0  0  0
 12 10  2  0  0  0  0
 13 14  2  0  0  0  0
 15 16  2  0  0  0  0
 16 17  1  0  0  0  0
 17 18  1  0  0  0  0
 18 20  1  0  0  0  0
 20 24  1  0  0  0  0
 20 19  2  0  0  0  0
 21 25  2  0  0  0  0
 21 24  1  0  0  0  0
 23 18  1  0  0  0  0
 23 21  1  0  0  0  0
 24 22  1  0  0  0  0
 27 26  1  6  0  0  0
 27  2  1  0  0  0  0
 28 29  1  0  0  0  0
 28 27  1  0  0  0  0
 31 30  1  1  0  0  0
 31 32  1  0  0  0  0
 31 29  1  0  0  0  0
 32 34  1  0  0  0  0
 32 33  1  1  0  0  0
 34 35  1  0  0  0  0
 35 36  1  0  0  0  0
 36 40  2  0  0  0  0
 36 42  1  0  0  0  0
 38 37  1  0  0  0  0
 38 40  1  0  0  0  0
 39 41  1  0  0  0  0
 39 35  2  0  0  0  0
 41 38  2  0  0  0  0
 42 43  1  0  0  0  0
 44 42  1  0  0  0  0
 44 43  1  0  0  0  0
 45 46  2  0  0  0  0
 45 41  1  0  0  0  0
 47 45  1  0  0  0  0
 49 52  1  0  0  0  0
 51 55  1  6  0  0  0
 51 49  1  0  0  0  0
 51 54  1  0  0  0  0
 52 48  1  6  0  0  0
 52 53  1  0  0  0  0
 53 58  1  1  0  0  0
 56 54  1  6  0  0  0
 56 53  1  0  0  0  0
 56 57  1  0  0  0  0
 57 50  1  0  0  0  0
 58 50  1  0  0  0  0
M  END
>  <MODEL>
4

>  <REMARK>
 VINA RESULT:      -6.3      2.704     10.400
  Name = 
  16 active torsions:
  status: ('A' for Active; 'I' for Inactive)
    1  A    between atoms: C_1  and  C_14
    2  A    between atoms: N_3  and  C_39
    3  A    between atoms: C_5  and  C_10
    4  A    between atoms: C_8  and  C_52
    5  A    between atoms: C_12  and  C_44
    6  A    between atoms: C_14  and  C_41
    7  A    between atoms: C_17  and  C_42
    8  A    between atoms: O_18  and  C_22
    9  A    between atoms: O_18  and  C_35
   10  A    between atoms: C_21  and  C_33
   11  A    between atoms: C_21  and  C_44
   12  A    between atoms: C_27  and  C_43
   13  A    between atoms: C_31  and  C_39
   14  A    between atoms: C_33  and  C_55
   15  A    between atoms: C_41  and  C_55
   16  A    between atoms: C_46  and  C_50
                            x       y       z     vdW  Elec       q    Type
                         _______ _______ _______ _____ _____    ______ ____

>  <TORSDO>
F 16

$$$$
=
 OpenBabel11062417503D

 58 63  0  0  1  0  0  0  0  0999 V2000
  181.5580  179.4780  137.0900 C   0  0  0  0  0  3  0  0  0  0  0  0
  181.9520  178.2010  136.9250 C   0  0  0  0  0  0  0  0  0  0  0  0
  182.5600  177.4610  138.1100 C   0  0  2  0  0  3  0  0  0  0  0  0
  182.9430  179.6790  139.1180 C   0  0  0  0  0  3  0  0  0  0  0  0
  180.4920  179.7870  139.2950 C   0  0  0  0  0  1  0  0  0  0  0  0
  183.3800  178.4200  138.9750 C   0  0  0  0  0  0  0  0  0  0  0  0
  181.6870  180.1610  138.4280 C   0  0  2  0  0  0  0  0  0  0  0  0
  181.4070  184.4930  137.6550 O   0  0  0  0  0  0  0  0  0  0  0  0
  180.7280  182.2690  137.3800 N   0  0  0  0  0  2  0  0  0  0  0  0
  181.7190  181.6530  138.2160 C   0  0  0  0  0  0  0  0  0  0  0  0
  180.6400  183.6700  137.0900 C   0  0  0  0  0  0  0  0  0  0  0  0
  182.6580  182.3420  138.6990 O   0  0  0  0  0  0  0  0  0  0  0  0
  179.6450  184.1680  136.1350 C   0  0  0  0  0  3  0  0  0  0  0  0
  179.8000  185.3190  135.4920 C   0  0  0  0  0  2  0  0  0  0  0  0
  184.5880  178.0530  139.7320 C   0  0  0  0  0  3  0  0  0  0  0  0
  185.2030  178.8550  140.5880 C   0  0  0  0  0  3  0  0  0  0  0  0
  186.4280  178.4090  141.3140 C   0  0  0  0  0  2  0  0  0  0  0  0
  186.2130  178.4600  142.7520 N   0  0  0  0  0  0  0  0  0  0  0  0
  188.2640  177.5350  143.4790 O   0  0  0  0  0  0  0  0  0  0  0  0
  187.1250  178.0040  143.7400 C   0  0  0  0  0  0  0  0  0  0  0  0
  185.2700  178.5950  144.8580 C   0  0  0  0  0  0  0  0  0  0  0  0
  187.1230  177.4490  146.2360 C   0  0  0  0  0  1  0  0  0  0  0  0
  184.9660  178.8400  143.4090 C   0  0  0  0  0  2  0  0  0  0  0  0
  186.5960  178.1010  145.0470 N   0  0  0  0  0  0  0  0  0  0  0  0
  184.3770  178.7030  145.8320 C   0  0  0  0  0  2  0  0  0  0  0  0
  180.7520  176.4960  135.5010 C   0  0  0  0  0  1  0  0  0  0  0  0
  181.8580  177.5410  135.5710 C   0  0  2  0  0  3  0  0  0  0  0  0
  183.1950  177.0340  135.0200 C   0  0  0  0  0  2  0  0  0  0  0  0
  184.4150  177.6930  135.6590 C   0  0  0  0  0  2  0  0  0  0  0  0
  185.4860  175.5610  134.8670 C   0  0  0  0  0  1  0  0  0  0  0  0
  185.7080  177.0310  135.1870 C   0  0  2  0  0  3  0  0  0  0  0  0
  186.8470  177.2050  136.1920 C   0  0  1  0  0  3  0  0  0  0  0  0
  186.6890  178.4040  136.8910 O   0  0  0  0  0  1  0  0  0  0  0  0
  186.9510  176.0420  137.1750 C   0  0  0  0  0  2  0  0  0  0  0  0
  188.3220  175.4460  137.1350 C   0  0  0  0  0  0  0  0  0  0  0  0
  188.5680  174.1650  136.6090 C   0  0  0  0  0  0  0  0  0  0  0  0
  192.2200  173.6880  137.1680 C   0  0  0  0  0  1  0  0  0  0  0  0
  190.8820  174.3490  137.1800 C   0  0  0  0  0  0  0  0  0  0  0  0
  189.3840  176.1700  137.6730 C   0  0  0  0  0  3  0  0  0  0  0  0
  189.8310  173.6570  136.6610 N   0  0  0  0  0  0  0  0  0  0  0  0
  190.6810  175.6460  137.7040 C   0  0  0  0  0  0  0  0  0  0  0  0
  187.4550  173.3190  136.0560 C   0  0  0  0  0  3  0  0  0  0  0  0
  186.7360  172.5750  137.1690 C   0  0  0  0  0  2  0  0  0  0  0  0
  187.7460  171.8490  136.3110 C   0  0  0  0  0  2  0  0  0  0  0  0
  191.7600  176.4790  138.2930 C   0  0  0  0  0  0  0  0  0  0  0  0
  191.6060  177.0600  139.4000 O   0  0  0  0  0  0  0  0  0  0  0  0
  192.9970  176.6350  137.6040 N   0  0  0  0  0  1  0  0  0  0  0  0
  183.2850  176.3360  137.6810 O   0  0  0  0  0  0  0  0  0  0  0  0
  181.7100  175.7080  139.4250 C   0  0  0  0  0  2  0  0  0  0  0  0
  182.4370  172.1840  136.5970 C   0  0  0  0  0  2  0  0  0  0  0  0
  180.2960  175.6190  138.8170 C   0  0  1  0  0  3  0  0  0  0  0  0
  182.8130  175.2490  138.4370 C   0  0  1  0  0  3  0  0  0  0  0  0
  182.2460  174.1860  137.4910 C   0  0  2  0  0  3  0  0  0  0  0  0
  180.0090  174.2350  138.1950 C   0  0  0  0  0  2  0  0  0  0  0  0
  179.2620  175.9330  139.8770 C   0  0  0  0  0  1  0  0  0  0  0  0
  181.2190  173.4150  138.1570 N   0  0  1  0  0  0  0  0  0  0  0  0
  181.0690  172.3150  137.2400 C   0  0  0  0  0  2  0  0  0  0  0  0
  183.2030  173.2970  136.9920 O   0  0  0  0  0  0  0  0  0  0  0  0
  1  7  1  0  0  0  0
  2  1  2  0  0  0  0
  2  3  1  0  0  0  0
  3 48  1  6  0  0  0
  3  6  1  0  0  0  0
  6  4  2  0  0  0  0
  6 15  1  0  0  0  0
  7  4  1  0  0  0  0
  7  5  1  1  0  0  0
  9 10  1  0  0  0  0
 10  7  1  0  0  0  0
 10 12  2  0  0  0  0
 11  9  1  0  0  0  0
 11  8  2  0  0  0  0
 13 11  1  0  0  0  0
 14 13  2  0  0  0  0
 15 16  2  0  0  0  0
 16 17  1  0  0  0  0
 17 18  1  0  0  0  0
 18 23  1  0  0  0  0
 18 20  1  0  0  0  0
 19 20  2  0  0  0  0
 20 24  1  0  0  0  0
 21 24  1  0  0  0  0
 21 25  2  0  0  0  0
 23 21  1  0  0  0  0
 24 22  1  0  0  0  0
 27 26  1  1  0  0  0
 27  2  1  0  0  0  0
 28 27  1  0  0  0  0
 28 29  1  0  0  0  0
 31 30  1  1  0  0  0
 31 29  1  0  0  0  0
 31 32  1  0  0  0  0
 32 33  1  1  0  0  0
 32 34  1  0  0  0  0
 35 34  1  0  0  0  0
 35 39  1  0  0  0  0
 36 40  1  0  0  0  0
 36 35  2  0  0  0  0
 37 38  1  0  0  0  0
 38 41  1  0  0  0  0
 39 41  2  0  0  0  0
 40 38  2  0  0  0  0
 41 45  1  0  0  0  0
 42 44  1  0  0  0  0
 42 36  1  0  0  0  0
 42 43  1  0  0  0  0
 44 43  1  0  0  0  0
 45 46  2  0  0  0  0
 47 45  1  0  0  0  0
 50 58  1  0  0  0  0
 50 57  1  0  0  0  0
 51 49  1  0  0  0  0
 51 55  1  1  0  0  0
 52 48  1  6  0  0  0
 52 49  1  0  0  0  0
 53 58  1  1  0  0  0
 53 56  1  0  0  0  0
 53 52  1  0  0  0  0
 54 51  1  0  0  0  0
 56 57  1  6  0  0  0
 56 54  1  0  0  0  0
M  END
>  <MODEL>
5

>  <REMARK>
 VINA RESULT:      -6.2      2.583      8.485
  Name = 
  16 active torsions:
  status: ('A' for Active; 'I' for Inactive)
    1  A    between atoms: C_1  and  C_14
    2  A    between atoms: N_3  and  C_39
    3  A    between atoms: C_5  and  C_10
    4  A    between atoms: C_8  and  C_52
    5  A    between atoms: C_12  and  C_44
    6  A    between atoms: C_14  and  C_41
    7  A    between atoms: C_17  and  C_42
    8  A    between atoms: O_18  and  C_22
    9  A    between atoms: O_18  and  C_35
   10  A    between atoms: C_21  and  C_33
   11  A    between atoms: C_21  and  C_44
   12  A    between atoms: C_27  and  C_43
   13  A    between atoms: C_31  and  C_39
   14  A    between atoms: C_33  and  C_55
   15  A    between atoms: C_41  and  C_55
   16  A    between atoms: C_46  and  C_50
                            x       y       z     vdW  Elec       q    Type
                         _______ _______ _______ _____ _____    ______ ____

>  <TORSDO>
F 16

$$$$
=
 OpenBabel11062417503D

 58 63  0  0  1  0  0  0  0  0999 V2000
  186.0120  177.7850  139.2470 C   0  0  0  0  0  3  0  0  0  0  0  0
  185.0130  178.1110  140.0890 C   0  0  0  0  0  0  0  0  0  0  0  0
  183.5820  178.1100  139.5670 C   0  0  2  0  0  3  0  0  0  0  0  0
  184.5570  178.2080  137.3040 C   0  0  0  0  0  3  0  0  0  0  0  0
  185.3400  175.9220  137.7720 C   0  0  0  0  0  1  0  0  0  0  0  0
  183.5450  178.5650  138.1070 C   0  0  0  0  0  0  0  0  0  0  0  0
  185.7240  177.3960  137.8190 C   0  0  2  0  0  0  0  0  0  0  0  0
  189.5070  177.7640  135.5830 O   0  0  0  0  0  0  0  0  0  0  0  0
  188.1910  176.9910  137.3590 N   0  0  0  0  0  2  0  0  0  0  0  0
  186.9600  177.6280  136.9880 C   0  0  0  0  0  0  0  0  0  0  0  0
  189.4380  177.1240  136.6650 C   0  0  0  0  0  0  0  0  0  0  0  0
  186.9330  178.4440  136.0260 O   0  0  0  0  0  0  0  0  0  0  0  0
  190.6550  176.5060  137.2020 C   0  0  0  0  0  3  0  0  0  0  0  0
  191.1110  176.7900  138.4160 C   0  0  0  0  0  2  0  0  0  0  0  0
  182.4430  179.3140  137.4820 C   0  0  0  0  0  3  0  0  0  0  0  0
  181.3800  178.7510  136.9250 C   0  0  0  0  0  3  0  0  0  0  0  0
  180.3070  179.5810  136.3080 C   0  0  0  0  0  2  0  0  0  0  0  0
  179.8450  180.5940  137.2450 N   0  0  0  0  0  0  0  0  0  0  0  0
  180.1850  182.5240  135.9230 O   0  0  0  0  0  0  0  0  0  0  0  0
  179.8320  181.9930  137.0090 C   0  0  0  0  0  0  0  0  0  0  0  0
  179.2050  181.7370  139.1500 C   0  0  0  0  0  0  0  0  0  0  0  0
  179.5810  184.1580  138.3480 C   0  0  0  0  0  1  0  0  0  0  0  0
  179.4680  180.3520  138.6350 C   0  0  0  0  0  2  0  0  0  0  0  0
  179.4140  182.7270  138.1430 N   0  0  0  0  0  0  0  0  0  0  0  0
  178.9340  182.0190  140.4160 C   0  0  0  0  0  2  0  0  0  0  0  0
  185.3210  180.0540  141.6720 C   0  0  0  0  0  1  0  0  0  0  0  0
  185.3170  178.5400  141.5040 C   0  0  2  0  0  3  0  0  0  0  0  0
  186.5500  177.8670  142.1170 C   0  0  0  0  0  2  0  0  0  0  0  0
  187.7510  178.7970  142.2650 C   0  0  0  0  0  2  0  0  0  0  0  0
  188.7530  176.7600  141.1880 C   0  0  0  0  0  1  0  0  0  0  0  0
  189.0430  178.0980  141.8490 C   0  0  2  0  0  3  0  0  0  0  0  0
  190.0140  177.9310  143.0180 C   0  0  1  0  0  3  0  0  0  0  0  0
  190.0170  179.0850  143.8050 O   0  0  0  0  0  1  0  0  0  0  0  0
  189.6940  176.7150  143.8840 C   0  0  0  0  0  2  0  0  0  0  0  0
  189.2530  177.1460  145.2460 C   0  0  0  0  0  0  0  0  0  0  0  0
  190.0940  177.0570  146.3700 C   0  0  0  0  0  0  0  0  0  0  0  0
  187.9300  178.2350  149.1640 C   0  0  0  0  0  1  0  0  0  0  0  0
  188.3410  177.8710  147.7760 C   0  0  0  0  0  0  0  0  0  0  0  0
  187.9510  177.6150  145.4130 C   0  0  0  0  0  3  0  0  0  0  0  0
  189.6070  177.4090  147.5930 N   0  0  0  0  0  0  0  0  0  0  0  0
  187.4680  177.9910  146.6710 C   0  0  0  0  0  0  0  0  0  0  0  0
  191.4930  176.5170  146.2600 C   0  0  0  0  0  3  0  0  0  0  0  0
  191.6580  175.2640  147.1040 C   0  0  0  0  0  2  0  0  0  0  0  0
  192.1820  176.5870  147.6120 C   0  0  0  0  0  2  0  0  0  0  0  0
  186.0690  178.4820  146.7670 C   0  0  0  0  0  0  0  0  0  0  0  0
  185.1070  177.8020  146.3220 O   0  0  0  0  0  0  0  0  0  0  0  0
  185.7970  179.7430  147.3690 N   0  0  0  0  0  1  0  0  0  0  0  0
  182.7400  178.8580  140.4080 O   0  0  0  0  0  0  0  0  0  0  0  0
  181.4840  178.5830  142.4730 C   0  0  0  0  0  2  0  0  0  0  0  0
  179.9200  175.7160  139.2660 C   0  0  0  0  0  2  0  0  0  0  0  0
  180.0820  179.1980  142.2950 C   0  0  1  0  0  3  0  0  0  0  0  0
  182.0180  177.9270  141.1730 C   0  0  1  0  0  3  0  0  0  0  0  0
  180.8430  177.3990  140.3440 C   0  0  2  0  0  3  0  0  0  0  0  0
  179.0800  178.2040  141.6670 C   0  0  0  0  0  2  0  0  0  0  0  0
  179.5610  179.6810  143.6310 C   0  0  0  0  0  1  0  0  0  0  0  0
  179.7580  176.9910  141.2110 N   0  0  1  0  0  0  0  0  0  0  0  0
  178.9340  176.2560  140.2870 C   0  0  0  0  0  2  0  0  0  0  0  0
  181.1660  176.3200  139.5160 O   0  0  0  0  0  0  0  0  0  0  0  0
  1  2  2  0  0  0  0
  2 27  1  0  0  0  0
  3  2  1  0  0  0  0
  3 48  1  1  0  0  0
  4  7  1  0  0  0  0
  4  6  2  0  0  0  0
  6  3  1  0  0  0  0
  7  5  1  6  0  0  0
  7  1  1  0  0  0  0
  8 11  2  0  0  0  0
 10  9  1  0  0  0  0
 10  7  1  0  0  0  0
 11 13  1  0  0  0  0
 11  9  1  0  0  0  0
 12 10  2  0  0  0  0
 13 14  2  0  0  0  0
 15  6  1  0  0  0  0
 16 15  2  0  0  0  0
 17 16  1  0  0  0  0
 17 18  1  0  0  0  0
 18 23  1  0  0  0  0
 19 20  2  0  0  0  0
 20 18  1  0  0  0  0
 20 24  1  0  0  0  0
 21 25  2  0  0  0  0
 23 21  1  0  0  0  0
 24 22  1  0  0  0  0
 24 21  1  0  0  0  0
 27 26  1  6  0  0  0
 27 28  1  0  0  0  0
 28 29  1  0  0  0  0
 31 30  1  1  0  0  0
 31 29  1  0  0  0  0
 31 32  1  0  0  0  0
 32 33  1  1  0  0  0
 32 34  1  0  0  0  0
 34 35  1  0  0  0  0
 35 39  2  0  0  0  0
 35 36  1  0  0  0  0
 36 40  2  0  0  0  0
 38 37  1  0  0  0  0
 39 41  1  0  0  0  0
 40 38  1  0  0  0  0
 41 45  1  0  0  0  0
 41 38  2  0  0  0  0
 42 36  1  0  0  0  0
 42 43  1  0  0  0  0
 42 44  1  0  0  0  0
 43 44  1  0  0  0  0
 45 47  1  0  0  0  0
 46 45  2  0  0  0  0
 50 58  1  0  0  0  0
 50 57  1  0  0  0  0
 51 49  1  0  0  0  0
 51 55  1  1  0  0  0
 52 48  1  6  0  0  0
 52 49  1  0  0  0  0
 53 58  1  1  0  0  0
 53 52  1  0  0  0  0
 53 56  1  0  0  0  0
 54 51  1  0  0  0  0
 56 57  1  6  0  0  0
 56 54  1  0  0  0  0
M  END
>  <MODEL>
6

>  <REMARK>
 VINA RESULT:      -6.1      1.967      3.675
  Name = 
  16 active torsions:
  status: ('A' for Active; 'I' for Inactive)
    1  A    between atoms: C_1  and  C_14
    2  A    between atoms: N_3  and  C_39
    3  A    between atoms: C_5  and  C_10
    4  A    between atoms: C_8  and  C_52
    5  A    between atoms: C_12  and  C_44
    6  A    between atoms: C_14  and  C_41
    7  A    between atoms: C_17  and  C_42
    8  A    between atoms: O_18  and  C_22
    9  A    between atoms: O_18  and  C_35
   10  A    between atoms: C_21  and  C_33
   11  A    between atoms: C_21  and  C_44
   12  A    between atoms: C_27  and  C_43
   13  A    between atoms: C_31  and  C_39
   14  A    between atoms: C_33  and  C_55
   15  A    between atoms: C_41  and  C_55
   16  A    between atoms: C_46  and  C_50
                            x       y       z     vdW  Elec       q    Type
                         _______ _______ _______ _____ _____    ______ ____

>  <TORSDO>
F 16

$$$$
=
 OpenBabel11062417503D

 58 63  0  0  1  0  0  0  0  0999 V2000
  184.1780  176.7200  138.2840 C   0  0  0  0  0  3  0  0  0  0  0  0
  183.4930  177.6410  138.9880 C   0  0  0  0  0  0  0  0  0  0  0  0
  182.1340  178.0990  138.4730 C   0  0  2  0  0  3  0  0  0  0  0  0
  182.8140  177.1870  136.2850 C   0  0  0  0  0  3  0  0  0  0  0  0
  182.6570  174.9930  137.3880 C   0  0  0  0  0  1  0  0  0  0  0  0
  182.1260  178.1290  136.9440 C   0  0  0  0  0  0  0  0  0  0  0  0
  183.6050  176.1290  137.0210 C   0  0  2  0  0  0  0  0  0  0  0  0
  187.0870  174.4740  134.8800 O   0  0  0  0  0  0  0  0  0  0  0  0
  185.9890  175.2790  136.7860 N   0  0  0  0  0  2  0  0  0  0  0  0
  184.7320  175.5990  136.1720 C   0  0  0  0  0  0  0  0  0  0  0  0
  187.1420  174.7710  136.1020 C   0  0  0  0  0  0  0  0  0  0  0  0
  184.5990  175.5200  134.9200 O   0  0  0  0  0  0  0  0  0  0  0  0
  188.4060  174.5810  136.8210 C   0  0  0  0  0  3  0  0  0  0  0  0
  189.0680  173.4310  136.7900 C   0  0  0  0  0  2  0  0  0  0  0  0
  181.3570  179.0780  136.1210 C   0  0  0  0  0  3  0  0  0  0  0  0
  180.0440  179.2350  136.1960 C   0  0  0  0  0  3  0  0  0  0  0  0
  179.3370  180.2160  135.3220 C   0  0  0  0  0  2  0  0  0  0  0  0
  179.7310  181.5740  135.6610 N   0  0  0  0  0  0  0  0  0  0  0  0
  178.9320  181.6620  137.8840 O   0  0  0  0  0  0  0  0  0  0  0  0
  179.4890  182.2200  136.9020 C   0  0  0  0  0  0  0  0  0  0  0  0
  180.3880  183.7890  135.5730 C   0  0  0  0  0  0  0  0  0  0  0  0
  179.5340  184.5860  137.8710 C   0  0  0  0  0  1  0  0  0  0  0  0
  180.2980  182.5490  134.7330 C   0  0  0  0  0  2  0  0  0  0  0  0
  179.9070  183.5700  136.8990 N   0  0  0  0  0  0  0  0  0  0  0  0
  180.7530  184.9760  135.1070 C   0  0  0  0  0  2  0  0  0  0  0  0
  184.0940  179.7800  140.1870 C   0  0  0  0  0  1  0  0  0  0  0  0
  184.0950  178.2570  140.2270 C   0  0  2  0  0  3  0  0  0  0  0  0
  185.4530  177.6710  140.6290 C   0  0  0  0  0  2  0  0  0  0  0  0
  186.4010  178.6860  141.2620 C   0  0  0  0  0  2  0  0  0  0  0  0
  187.7920  177.7380  139.3950 C   0  0  0  0  0  1  0  0  0  0  0  0
  187.8010  178.5800  140.6620 C   0  0  2  0  0  3  0  0  0  0  0  0
  188.8220  178.0440  141.6650 C   0  0  1  0  0  3  0  0  0  0  0  0
  189.2190  179.0640  142.5330 O   0  0  0  0  0  1  0  0  0  0  0  0
  188.2970  176.8570  142.4680 C   0  0  0  0  0  2  0  0  0  0  0  0
  188.1520  177.2250  143.9110 C   0  0  0  0  0  0  0  0  0  0  0  0
  189.1840  177.0230  144.8440 C   0  0  0  0  0  0  0  0  0  0  0  0
  187.6720  178.1370  148.0610 C   0  0  0  0  0  1  0  0  0  0  0  0
  187.7860  177.8390  146.6030 C   0  0  0  0  0  0  0  0  0  0  0  0
  186.9380  177.7510  144.3500 C   0  0  0  0  0  3  0  0  0  0  0  0
  188.9630  177.3230  146.1540 N   0  0  0  0  0  0  0  0  0  0  0  0
  186.7290  178.0730  145.6950 C   0  0  0  0  0  0  0  0  0  0  0  0
  190.4990  176.4170  144.4370 C   0  0  0  0  0  3  0  0  0  0  0  0
  191.5750  176.7170  145.4680 C   0  0  0  0  0  2  0  0  0  0  0  0
  191.5190  177.5160  144.1870 C   0  0  0  0  0  2  0  0  0  0  0  0
  185.4080  178.6300  146.0850 C   0  0  0  0  0  0  0  0  0  0  0  0
  184.9250  178.4230  147.2300 O   0  0  0  0  0  0  0  0  0  0  0  0
  184.6620  179.4120  145.1570 N   0  0  0  0  0  1  0  0  0  0  0  0
  181.7620  179.3210  139.0590 O   0  0  0  0  0  0  0  0  0  0  0  0
  179.8020  177.8810  139.0970 C   0  0  0  0  0  2  0  0  0  0  0  0
  180.6990  179.4560  143.3000 C   0  0  0  0  0  2  0  0  0  0  0  0
  180.1750  176.5400  139.7580 C   0  0  1  0  0  3  0  0  0  0  0  0
  180.5480  179.0850  139.7270 C   0  0  1  0  0  3  0  0  0  0  0  0
  180.8350  178.7970  141.2040 C   0  0  2  0  0  3  0  0  0  0  0  0
  180.0500  176.5870  141.2970 C   0  0  0  0  0  2  0  0  0  0  0  0
  179.3040  175.4340  139.2030 C   0  0  0  0  0  1  0  0  0  0  0  0
  179.8010  177.9520  141.7620 N   0  0  1  0  0  0  0  0  0  0  0  0
  180.0790  178.0760  143.1690 C   0  0  0  0  0  2  0  0  0  0  0  0
  180.9370  179.9410  142.0000 O   0  0  0  0  0  0  0  0  0  0  0  0
  1  2  2  0  0  0  0
  2 27  1  0  0  0  0
  3  2  1  0  0  0  0
  3 48  1  1  0  0  0
  4  6  2  0  0  0  0
  4  7  1  0  0  0  0
  6  3  1  0  0  0  0
  7  5  1  1  0  0  0
  7  1  1  0  0  0  0
  8 11  2  0  0  0  0
 10  9  1  0  0  0  0
 10  7  1  0  0  0  0
 11  9  1  0  0  0  0
 11 13  1  0  0  0  0
 12 10  2  0  0  0  0
 14 13  2  0  0  0  0
 15 16  2  0  0  0  0
 15  6  1  0  0  0  0
 17 18  1  0  0  0  0
 17 16  1  0  0  0  0
 18 20  1  0  0  0  0
 20 19  2  0  0  0  0
 21 24  1  0  0  0  0
 23 21  1  0  0  0  0
 23 18  1  0  0  0  0
 24 20  1  0  0  0  0
 24 22  1  0  0  0  0
 25 21  2  0  0  0  0
 27 26  1  6  0  0  0
 27 28  1  0  0  0  0
 28 29  1  0  0  0  0
 31 30  1  6  0  0  0
 31 29  1  0  0  0  0
 31 32  1  0  0  0  0
 32 34  1  0  0  0  0
 32 33  1  1  0  0  0
 34 35  1  0  0  0  0
 35 39  2  0  0  0  0
 35 36  1  0  0  0  0
 36 40  2  0  0  0  0
 38 37  1  0  0  0  0
 39 41  1  0  0  0  0
 40 38  1  0  0  0  0
 41 45  1  0  0  0  0
 41 38  2  0  0  0  0
 42 36  1  0  0  0  0
 42 43  1  0  0  0  0
 44 42  1  0  0  0  0
 44 43  1  0  0  0  0
 45 46  2  0  0  0  0
 47 45  1  0  0  0  0
 49 52  1  0  0  0  0
 49 51  1  0  0  0  0
 51 55  1  6  0  0  0
 51 54  1  0  0  0  0
 52 48  1  6  0  0  0
 52 53  1  0  0  0  0
 53 56  1  0  0  0  0
 53 58  1  1  0  0  0
 56 54  1  6  0  0  0
 56 57  1  0  0  0  0
 57 50  1  0  0  0  0
 58 50  1  0  0  0  0
M  END
>  <MODEL>
7

>  <REMARK>
 VINA RESULT:      -6.1      1.356      2.830
  Name = 
  16 active torsions:
  status: ('A' for Active; 'I' for Inactive)
    1  A    between atoms: C_1  and  C_14
    2  A    between atoms: N_3  and  C_39
    3  A    between atoms: C_5  and  C_10
    4  A    between atoms: C_8  and  C_52
    5  A    between atoms: C_12  and  C_44
    6  A    between atoms: C_14  and  C_41
    7  A    between atoms: C_17  and  C_42
    8  A    between atoms: O_18  and  C_22
    9  A    between atoms: O_18  and  C_35
   10  A    between atoms: C_21  and  C_33
   11  A    between atoms: C_21  and  C_44
   12  A    between atoms: C_27  and  C_43
   13  A    between atoms: C_31  and  C_39
   14  A    between atoms: C_33  and  C_55
   15  A    between atoms: C_41  and  C_55
   16  A    between atoms: C_46  and  C_50
                            x       y       z     vdW  Elec       q    Type
                         _______ _______ _______ _____ _____    ______ ____

>  <TORSDO>
F 16

$$$$
=
 OpenBabel11062417503D

 58 63  0  0  1  0  0  0  0  0999 V2000
  184.0810  176.9980  138.0880 C   0  0  0  0  0  3  0  0  0  0  0  0
  183.2500  177.8120  138.7660 C   0  0  0  0  0  0  0  0  0  0  0  0
  181.8910  178.1400  138.1620 C   0  0  2  0  0  3  0  0  0  0  0  0
  182.8230  177.3910  136.0060 C   0  0  0  0  0  3  0  0  0  0  0  0
  182.8290  175.1520  137.0290 C   0  0  0  0  0  1  0  0  0  0  0  0
  181.9890  178.2270  136.6390 C   0  0  0  0  0  0  0  0  0  0  0  0
  183.6700  176.3960  136.7680 C   0  0  2  0  0  0  0  0  0  0  0  0
  187.4980  175.3680  134.8360 O   0  0  0  0  0  0  0  0  0  0  0  0
  186.2000  176.3050  136.5450 N   0  0  0  0  0  2  0  0  0  0  0  0
  184.9070  176.0230  135.9920 C   0  0  0  0  0  0  0  0  0  0  0  0
  187.4550  176.0090  135.9180 C   0  0  0  0  0  0  0  0  0  0  0  0
  184.8050  175.5470  134.8280 O   0  0  0  0  0  0  0  0  0  0  0  0
  188.7130  176.4410  136.5370 C   0  0  0  0  0  3  0  0  0  0  0  0
  189.5200  175.5910  137.1590 C   0  0  0  0  0  2  0  0  0  0  0  0
  181.1820  179.1180  135.7880 C   0  0  0  0  0  3  0  0  0  0  0  0
  180.0810  179.7360  136.1900 C   0  0  0  0  0  3  0  0  0  0  0  0
  179.3160  180.6200  135.2640 C   0  0  0  0  0  2  0  0  0  0  0  0
  179.3440  181.9960  135.7360 N   0  0  0  0  0  0  0  0  0  0  0  0
  179.3400  181.6020  138.0670 O   0  0  0  0  0  0  0  0  0  0  0  0
  179.3320  182.4030  137.0960 C   0  0  0  0  0  0  0  0  0  0  0  0
  179.1910  184.2970  135.8990 C   0  0  0  0  0  0  0  0  0  0  0  0
  178.9350  184.5350  138.4520 C   0  0  0  0  0  1  0  0  0  0  0  0
  179.2300  183.1830  134.8930 C   0  0  0  0  0  2  0  0  0  0  0  0
  179.2710  183.8090  137.2370 N   0  0  0  0  0  0  0  0  0  0  0  0
  178.9820  185.5690  135.5880 C   0  0  0  0  0  2  0  0  0  0  0  0
  183.6860  179.9640  140.0120 C   0  0  0  0  0  1  0  0  0  0  0  0
  183.6900  178.4420  140.0650 C   0  0  2  0  0  3  0  0  0  0  0  0
  184.9900  177.8670  140.6380 C   0  0  0  0  0  2  0  0  0  0  0  0
  185.8590  178.8990  141.3530 C   0  0  0  0  0  2  0  0  0  0  0  0
  187.4690  178.2380  139.5400 C   0  0  0  0  0  1  0  0  0  0  0  0
  187.3280  178.7440  140.9670 C   0  0  2  0  0  3  0  0  0  0  0  0
  188.0910  177.8490  141.9430 C   0  0  1  0  0  3  0  0  0  0  0  0
  189.0490  178.5980  142.6290 O   0  0  0  0  0  1  0  0  0  0  0  0
  187.1750  177.1420  142.9380 C   0  0  0  0  0  2  0  0  0  0  0  0
  187.7130  177.2760  144.3280 C   0  0  0  0  0  0  0  0  0  0  0  0
  186.8970  177.6310  145.4170 C   0  0  0  0  0  0  0  0  0  0  0  0
  189.2890  177.8080  148.2670 C   0  0  0  0  0  1  0  0  0  0  0  0
  188.7910  177.6080  146.8740 C   0  0  0  0  0  0  0  0  0  0  0  0
  189.0770  177.0810  144.5410 C   0  0  0  0  0  3  0  0  0  0  0  0
  187.4640  177.7960  146.6450 N   0  0  0  0  0  0  0  0  0  0  0  0
  189.6440  177.2350  145.8100 C   0  0  0  0  0  0  0  0  0  0  0  0
  185.4280  177.8980  145.2400 C   0  0  0  0  0  3  0  0  0  0  0  0
  185.1680  179.3820  145.0390 C   0  0  0  0  0  2  0  0  0  0  0  0
  184.9150  178.7510  146.3890 C   0  0  0  0  0  2  0  0  0  0  0  0
  191.1050  177.0090  145.9570 C   0  0  0  0  0  0  0  0  0  0  0  0
  191.6730  177.1210  147.0750 O   0  0  0  0  0  0  0  0  0  0  0  0
  191.8900  176.6610  144.8200 N   0  0  0  0  0  1  0  0  0  0  0  0
  181.3440  179.2930  138.7540 O   0  0  0  0  0  0  0  0  0  0  0  0
  179.8770  177.3860  139.1140 C   0  0  0  0  0  2  0  0  0  0  0  0
  179.2800  180.4960  142.4190 C   0  0  0  0  0  2  0  0  0  0  0  0
  180.4130  176.5540  140.2960 C   0  0  1  0  0  3  0  0  0  0  0  0
  180.1080  178.9070  139.3010 C   0  0  1  0  0  3  0  0  0  0  0  0
  180.0900  179.2500  140.7940 C   0  0  2  0  0  3  0  0  0  0  0  0
  179.9070  177.0770  141.6590 C   0  0  0  0  0  2  0  0  0  0  0  0
  180.0200  175.1030  140.1220 C   0  0  0  0  0  1  0  0  0  0  0  0
  179.2070  178.3520  141.5070 N   0  0  1  0  0  0  0  0  0  0  0  0
  179.0910  179.0310  142.7710 C   0  0  0  0  0  2  0  0  0  0  0  0
  179.6940  180.5620  141.0750 O   0  0  0  0  0  0  0  0  0  0  0  0
  1  2  2  0  0  0  0
  2 27  1  0  0  0  0
  3 48  1  1  0  0  0
  3  2  1  0  0  0  0
  4  6  2  0  0  0  0
  4  7  1  0  0  0  0
  6  3  1  0  0  0  0
  7  5  1  1  0  0  0
  7  1  1  0  0  0  0
  8 11  2  0  0  0  0
 10  9  1  0  0  0  0
 10  7  1  0  0  0  0
 11 13  1  0  0  0  0
 11  9  1  0  0  0  0
 12 10  2  0  0  0  0
 13 14  2  0  0  0  0
 15 16  2  0  0  0  0
 15  6  1  0  0  0  0
 17 18  1  0  0  0  0
 17 16  1  0  0  0  0
 18 20  1  0  0  0  0
 20 24  1  0  0  0  0
 20 19  2  0  0  0  0
 21 24  1  0  0  0  0
 23 18  1  0  0  0  0
 23 21  1  0  0  0  0
 24 22  1  0  0  0  0
 25 21  2  0  0  0  0
 27 26  1  6  0  0  0
 27 28  1  0  0  0  0
 28 29  1  0  0  0  0
 31 30  1  6  0  0  0
 31 29  1  0  0  0  0
 31 32  1  0  0  0  0
 32 33  1  1  0  0  0
 32 34  1  0  0  0  0
 34 35  1  0  0  0  0
 35 39  2  0  0  0  0
 35 36  1  0  0  0  0
 36 40  2  0  0  0  0
 38 37  1  0  0  0  0
 39 41  1  0  0  0  0
 40 38  1  0  0  0  0
 41 45  1  0  0  0  0
 41 38  2  0  0  0  0
 42 36  1  0  0  0  0
 42 44  1  0  0  0  0
 43 42  1  0  0  0  0
 43 44  1  0  0  0  0
 45 46  2  0  0  0  0
 47 45  1  0  0  0  0
 49 52  1  0  0  0  0
 49 51  1  0  0  0  0
 50 57  1  0  0  0  0
 51 55  1  6  0  0  0
 51 54  1  0  0  0  0
 52 48  1  1  0  0  0
 52 53  1  0  0  0  0
 53 58  1  6  0  0  0
 53 56  1  0  0  0  0
 56 54  1  1  0  0  0
 56 57  1  0  0  0  0
 58 50  1  0  0  0  0
M  END
>  <MODEL>
8

>  <REMARK>
 VINA RESULT:      -6.0      1.453      2.446
  Name = 
  16 active torsions:
  status: ('A' for Active; 'I' for Inactive)
    1  A    between atoms: C_1  and  C_14
    2  A    between atoms: N_3  and  C_39
    3  A    between atoms: C_5  and  C_10
    4  A    between atoms: C_8  and  C_52
    5  A    between atoms: C_12  and  C_44
    6  A    between atoms: C_14  and  C_41
    7  A    between atoms: C_17  and  C_42
    8  A    between atoms: O_18  and  C_22
    9  A    between atoms: O_18  and  C_35
   10  A    between atoms: C_21  and  C_33
   11  A    between atoms: C_21  and  C_44
   12  A    between atoms: C_27  and  C_43
   13  A    between atoms: C_31  and  C_39
   14  A    between atoms: C_33  and  C_55
   15  A    between atoms: C_41  and  C_55
   16  A    between atoms: C_46  and  C_50
                            x       y       z     vdW  Elec       q    Type
                         _______ _______ _______ _____ _____    ______ ____

>  <TORSDO>
F 16

$$$$
=
 OpenBabel11062417503D

 58 63  0  0  1  0  0  0  0  0999 V2000
  183.6200  178.7040  140.9000 C   0  0  0  0  0  3  0  0  0  0  0  0
  183.7850  178.2620  139.6390 C   0  0  0  0  0  0  0  0  0  0  0  0
  182.5670  177.7650  138.8700 C   0  0  2  0  0  3  0  0  0  0  0  0
  181.4490  177.5490  141.0570 C   0  0  0  0  0  3  0  0  0  0  0  0
  181.5330  180.0080  141.1050 C   0  0  0  0  0  1  0  0  0  0  0  0
  181.5870  177.0680  139.8140 C   0  0  0  0  0  0  0  0  0  0  0  0
  182.2540  178.7360  141.5370 C   0  0  2  0  0  0  0  0  0  0  0  0
  183.0860  178.8320  145.8660 O   0  0  0  0  0  0  0  0  0  0  0  0
  183.7170  178.8630  143.6110 N   0  0  0  0  0  2  0  0  0  0  0  0
  182.4100  178.7210  143.0350 C   0  0  0  0  0  0  0  0  0  0  0  0
  184.0120  178.8640  145.0140 C   0  0  0  0  0  0  0  0  0  0  0  0
  181.4120  178.4980  143.7740 O   0  0  0  0  0  0  0  0  0  0  0  0
  185.4020  178.9100  145.4790 C   0  0  0  0  0  3  0  0  0  0  0  0
  186.2770  177.9580  145.1780 C   0  0  0  0  0  2  0  0  0  0  0  0
  180.7170  175.9390  139.4460 C   0  0  0  0  0  3  0  0  0  0  0  0
  181.1480  174.8130  138.8950 C   0  0  0  0  0  3  0  0  0  0  0  0
  180.1990  173.7170  138.5470 C   0  0  0  0  0  2  0  0  0  0  0  0
  180.7090  172.9410  137.4270 N   0  0  0  0  0  0  0  0  0  0  0  0
  178.9730  171.3470  137.2440 O   0  0  0  0  0  0  0  0  0  0  0  0
  180.0830  171.8000  136.8600 C   0  0  0  0  0  0  0  0  0  0  0  0
  182.0590  171.9870  135.8100 C   0  0  0  0  0  0  0  0  0  0  0  0
  180.6780  169.8760  135.2840 C   0  0  0  0  0  1  0  0  0  0  0  0
  182.0180  173.1110  136.8040 C   0  0  0  0  0  2  0  0  0  0  0  0
  180.8650  171.2060  135.8430 N   0  0  0  0  0  0  0  0  0  0  0  0
  183.1210  171.6820  135.0800 C   0  0  0  0  0  2  0  0  0  0  0  0
  186.2550  178.6550  139.9830 C   0  0  0  0  0  1  0  0  0  0  0  0
  185.1630  178.1940  139.0270 C   0  0  2  0  0  3  0  0  0  0  0  0
  185.2710  178.8400  137.6410 C   0  0  0  0  0  2  0  0  0  0  0  0
  185.8240  177.9060  136.5670 C   0  0  0  0  0  2  0  0  0  0  0  0
  187.9530  177.8710  135.2320 C   0  0  0  0  0  1  0  0  0  0  0  0
  187.3480  177.8390  136.6270 C   0  0  2  0  0  3  0  0  0  0  0  0
  187.8430  176.6220  137.4080 C   0  0  1  0  0  3  0  0  0  0  0  0
  187.1480  175.4800  137.0050 O   0  0  0  0  0  1  0  0  0  0  0  0
  189.3450  176.3940  137.2580 C   0  0  0  0  0  2  0  0  0  0  0  0
  190.0530  176.7200  138.5350 C   0  0  0  0  0  0  0  0  0  0  0  0
  191.4560  176.7270  138.6340 C   0  0  0  0  0  0  0  0  0  0  0  0
  192.0630  177.5020  142.2270 C   0  0  0  0  0  1  0  0  0  0  0  0
  191.3120  177.2380  140.9650 C   0  0  0  0  0  0  0  0  0  0  0  0
  189.2930  176.9880  139.6730 C   0  0  0  0  0  3  0  0  0  0  0  0
  192.0340  176.9720  139.8430 N   0  0  0  0  0  0  0  0  0  0  0  0
  189.9000  177.2570  140.9040 C   0  0  0  0  0  0  0  0  0  0  0  0
  192.3260  176.4020  137.4510 C   0  0  0  0  0  3  0  0  0  0  0  0
  192.8590  174.9820  137.5460 C   0  0  0  0  0  2  0  0  0  0  0  0
  193.7510  176.1460  137.9130 C   0  0  0  0  0  2  0  0  0  0  0  0
  189.0230  177.5330  142.0710 C   0  0  0  0  0  0  0  0  0  0  0  0
  188.5980  176.6010  142.8040 O   0  0  0  0  0  0  0  0  0  0  0  0
  188.6470  178.8730  142.3780 N   0  0  0  0  0  1  0  0  0  0  0  0
  182.9540  176.9700  137.7770 O   0  0  0  0  0  0  0  0  0  0  0  0
  181.8940  176.5870  135.6210 C   0  0  0  0  0  2  0  0  0  0  0  0
  180.7350  180.7030  137.2530 C   0  0  0  0  0  2  0  0  0  0  0  0
  180.3910  176.3210  135.8390 C   0  0  1  0  0  3  0  0  0  0  0  0
  182.4700  177.6160  136.6270 C   0  0  1  0  0  3  0  0  0  0  0  0
  181.3740  178.6080  137.0310 C   0  0  2  0  0  3  0  0  0  0  0  0
  179.5660  177.6250  135.9040 C   0  0  0  0  0  2  0  0  0  0  0  0
  179.8630  175.4300  134.7360 C   0  0  0  0  0  1  0  0  0  0  0  0
  180.4400  178.7980  135.9430 N   0  0  1  0  0  0  0  0  0  0  0  0
  179.7230  179.9600  136.4000 C   0  0  0  0  0  2  0  0  0  0  0  0
  181.8530  179.8640  137.4170 O   0  0  0  0  0  0  0  0  0  0  0  0
  1  7  1  0  0  0  0
  2  1  2  0  0  0  0
  3 48  1  6  0  0  0
  3  2  1  0  0  0  0
  3  6  1  0  0  0  0
  4  7  1  0  0  0  0
  6  4  2  0  0  0  0
  7  5  1  6  0  0  0
  7 10  1  0  0  0  0
  9 11  1  0  0  0  0
 10  9  1  0  0  0  0
 10 12  2  0  0  0  0
 11 13  1  0  0  0  0
 11  8  2  0  0  0  0
 14 13  2  0  0  0  0
 15  6  1  0  0  0  0
 16 15  2  0  0  0  0
 17 16  1  0  0  0  0
 18 17  1  0  0  0  0
 20 19  2  0  0  0  0
 20 18  1  0  0  0  0
 21 24  1  0  0  0  0
 21 23  1  0  0  0  0
 22 24  1  0  0  0  0
 23 18  1  0  0  0  0
 24 20  1  0  0  0  0
 25 21  2  0  0  0  0
 27  2  1  0  0  0  0
 27 26  1  1  0  0  0
 28 27  1  0  0  0  0
 29 31  1  0  0  0  0
 29 28  1  0  0  0  0
 31 30  1  6  0  0  0
 31 32  1  0  0  0  0
 32 33  1  6  0  0  0
 34 32  1  0  0  0  0
 34 35  1  0  0  0  0
 35 36  2  0  0  0  0
 35 39  1  0  0  0  0
 36 40  1  0  0  0  0
 38 37  1  0  0  0  0
 39 41  2  0  0  0  0
 40 38  2  0  0  0  0
 41 38  1  0  0  0  0
 41 45  1  0  0  0  0
 42 43  1  0  0  0  0
 42 44  1  0  0  0  0
 42 36  1  0  0  0  0
 43 44  1  0  0  0  0
 45 47  1  0  0  0  0
 45 46  2  0  0  0  0
 49 51  1  0  0  0  0
 49 52  1  0  0  0  0
 50 58  1  0  0  0  0
 51 55  1  6  0  0  0
 51 54  1  0  0  0  0
 52 53  1  0  0  0  0
 52 48  1  1  0  0  0
 53 58  1  6  0  0  0
 56 54  1  1  0  0  0
 56 57  1  0  0  0  0
 56 53  1  0  0  0  0
 57 50  1  0  0  0  0
M  END
>  <MODEL>
9

>  <REMARK>
 VINA RESULT:      -5.6      2.982      7.550
  Name = 
  16 active torsions:
  status: ('A' for Active; 'I' for Inactive)
    1  A    between atoms: C_1  and  C_14
    2  A    between atoms: N_3  and  C_39
    3  A    between atoms: C_5  and  C_10
    4  A    between atoms: C_8  and  C_52
    5  A    between atoms: C_12  and  C_44
    6  A    between atoms: C_14  and  C_41
    7  A    between atoms: C_17  and  C_42
    8  A    between atoms: O_18  and  C_22
    9  A    between atoms: O_18  and  C_35
   10  A    between atoms: C_21  and  C_33
   11  A    between atoms: C_21  and  C_44
   12  A    between atoms: C_27  and  C_43
   13  A    between atoms: C_31  and  C_39
   14  A    between atoms: C_33  and  C_55
   15  A    between atoms: C_41  and  C_55
   16  A    between atoms: C_46  and  C_50
                            x       y       z     vdW  Elec       q    Type
                         _______ _______ _______ _____ _____    ______ ____

>  <TORSDO>
F 16

$$$$
