=
 OpenBabel11062415383D

 34 35  0  0  1  0  0  0  0  0999 V2000
  185.4460  180.0700  142.2230 O   0  0  0  0  0  0  0  0  0  0  0  0
  185.0920  178.9200  141.8430 C   0  0  0  0  0  0  0  0  0  0  0  0
  184.5760  177.9780  142.7940 N   0  0  0  0  0  2  0  0  0  0  0  0
  186.5580  178.4000  139.8200 C   0  0  0  0  0  0  0  0  0  0  0  0
  186.6080  178.1440  138.4460 C   0  0  0  0  0  3  0  0  0  0  0  0
  184.1470  178.3470  139.6440 C   0  0  0  0  0  3  0  0  0  0  0  0
  184.2680  178.0840  138.3180 N   0  0  0  0  0  0  0  0  0  0  0  0
  185.2870  178.5270  140.4330 C   0  0  0  0  0  0  0  0  0  0  0  0
  185.4630  177.9960  137.7350 N   0  0  0  0  0  0  0  0  0  0  0  0
  187.8370  178.4400  140.5610 C   0  0  0  0  0  0  0  0  0  0  0  0
  188.5710  177.2300  140.7710 N   0  0  0  0  0  2  0  0  0  0  0  0
  188.2580  179.5240  141.0530 O   0  0  0  0  0  0  0  0  0  0  0  0
  189.8090  177.1780  141.5410 C   0  0  2  0  0  3  0  0  0  0  0  0
  190.8400  176.1500  139.4820 N   0  0  0  0  0  1  0  0  0  0  0  0
  190.9760  176.9810  140.6290 C   0  0  0  0  0  0  0  0  0  0  0  0
  192.0710  177.5620  140.8540 O   0  0  0  0  0  0  0  0  0  0  0  0
  189.7500  176.0940  142.5720 C   0  0  0  0  0  0  0  0  0  0  0  0
  190.9120  175.7060  143.2250 O   0  0  0  0  0  1  0  0  0  0  0  0
  188.6610  175.5240  142.8430 O   0  0  0  0  0  0  0  0  0  0  0  0
  182.9990  178.8450  144.4560 C   0  0  0  0  0  1  0  0  0  0  0  0
  184.3770  178.2500  144.2140 C   0  0  2  0  0  3  0  0  0  0  0  0
  185.4750  179.1660  144.7450 C   0  0  0  0  0  2  0  0  0  0  0  0
  187.1030  178.5450  147.9130 N   0  0  0  0  0  0  0  0  0  0  0  0
  188.6540  177.2060  145.6780 C   0  0  0  0  0  3  0  0  0  0  0  0
  186.4640  178.4060  145.5720 C   0  0  0  0  0  0  0  0  0  0  0  0
  187.5820  177.9610  144.9960 C   0  0  0  0  0  3  0  0  0  0  0  0
  188.9820  177.2540  146.9800 C   0  0  0  0  0  0  0  0  0  0  0  0
  184.8610  178.4710  147.3320 F   0  0  0  0  0  0  0  0  0  0  0  0
  188.3510  178.1850  147.9390 C   0  0  0  0  0  3  0  0  0  0  0  0
  186.1200  178.0180  146.9780 C   0  0  2  0  0  3  0  0  0  0  0  0
  191.4490  176.5230  147.0220 C   0  0  0  0  0  0  0  0  0  0  0  0
  192.4540  175.6430  147.6690 C   0  0  0  0  0  1  0  0  0  0  0  0
  190.0890  176.4850  147.4740 N   0  0  0  0  0  2  0  0  0  0  0  0
  191.8070  177.2830  146.0830 O   0  0  0  0  0  0  0  0  0  0  0  0
  2  1  2  0  0  0  0
  2  3  1  0  0  0  0
  3 21  1  0  0  0  0
  4  8  1  0  0  0  0
  4 10  1  0  0  0  0
  5  4  2  0  0  0  0
  6  8  2  0  0  0  0
  7  6  1  0  0  0  0
  8  2  1  0  0  0  0
  9  7  2  0  0  0  0
  9  5  1  0  0  0  0
 10 11  1  0  0  0  0
 10 12  2  0  0  0  0
 11 13  1  0  0  0  0
 13 15  1  6  0  0  0
 13 17  1  0  0  0  0
 14 15  1  0  0  0  0
 15 16  2  0  0  0  0
 17 19  2  0  0  0  0
 17 18  1  0  0  0  0
 21 20  1  6  0  0  0
 21 22  1  0  0  0  0
 22 25  1  0  0  0  0
 23 29  2  0  0  0  0
 24 27  2  0  0  0  0
 25 30  1  0  0  0  0
 26 25  2  0  0  0  0
 26 24  1  0  0  0  0
 27 33  1  0  0  0  0
 27 29  1  0  0  0  0
 30 28  1  1  0  0  0
 30 23  1  0  0  0  0
 31 33  1  0  0  0  0
 31 32  1  0  0  0  0
 34 31  2  0  0  0  0
M  END
>  <MODEL>
1

>  <REMARK>
 VINA RESULT:      -8.7      0.000      0.000
  Name = 
  9 active torsions:
  status: ('A' for Active; 'I' for Inactive)
    1  A    between atoms: C_2  and  C_20
    2  A    between atoms: C_8  and  CA_9
    3  A    between atoms: CA_9  and  C_10
    4  A    between atoms: CA_9  and  N_23
    5  A    between atoms: C_12  and  C_13
    6  A    between atoms: C_12  and  C_26
    7  A    between atoms: C_16  and  C_29
    8  A    between atoms: N_17  and  C_24
    9  A    between atoms: N_22  and  C_26
                            x       y       z     vdW  Elec       q    Type
                         _______ _______ _______ _____ _____    ______ ____

>  <TORSDO>
F 9

$$$$
=
 OpenBabel11062415383D

 34 35  0  0  1  0  0  0  0  0999 V2000
  187.0430  176.7200  143.3750 O   0  0  0  0  0  0  0  0  0  0  0  0
  186.9690  177.5710  144.3030 C   0  0  0  0  0  0  0  0  0  0  0  0
  188.1470  177.9430  145.0320 N   0  0  0  0  0  2  0  0  0  0  0  0
  184.7880  178.7900  143.7850 C   0  0  0  0  0  0  0  0  0  0  0  0
  183.6240  179.3750  144.2950 C   0  0  0  0  0  3  0  0  0  0  0  0
  185.2770  178.0370  146.0300 C   0  0  0  0  0  3  0  0  0  0  0  0
  184.1240  178.6130  146.4550 N   0  0  0  0  0  0  0  0  0  0  0  0
  185.6520  178.1190  144.6860 C   0  0  0  0  0  0  0  0  0  0  0  0
  183.3280  179.2710  145.6140 N   0  0  0  0  0  0  0  0  0  0  0  0
  185.0010  178.8400  142.3230 C   0  0  0  0  0  0  0  0  0  0  0  0
  184.0300  178.2590  141.4470 N   0  0  0  0  0  2  0  0  0  0  0  0
  186.0550  179.3450  141.8460 O   0  0  0  0  0  0  0  0  0  0  0  0
  184.1960  178.2160  139.9980 C   0  0  2  0  0  3  0  0  0  0  0  0
  182.3180  179.7200  139.2420 N   0  0  0  0  0  1  0  0  0  0  0  0
  183.7150  179.4920  139.3850 C   0  0  0  0  0  0  0  0  0  0  0  0
  184.5340  180.3750  139.0160 O   0  0  0  0  0  0  0  0  0  0  0  0
  183.4750  177.0410  139.4140 C   0  0  0  0  0  0  0  0  0  0  0  0
  182.5010  176.3930  140.1610 O   0  0  0  0  0  1  0  0  0  0  0  0
  183.7530  176.6290  138.2570 O   0  0  0  0  0  0  0  0  0  0  0  0
  190.2500  177.2180  146.0600 C   0  0  0  0  0  1  0  0  0  0  0  0
  189.4900  177.4360  144.7620 C   0  0  2  0  0  3  0  0  0  0  0  0
  190.2430  178.3810  143.8330 C   0  0  0  0  0  2  0  0  0  0  0  0
  191.9310  177.3040  140.8220 N   0  0  0  0  0  0  0  0  0  0  0  0
  189.0360  177.9560  140.2020 C   0  0  0  0  0  3  0  0  0  0  0  0
  190.1960  177.9030  142.4150 C   0  0  0  0  0  0  0  0  0  0  0  0
  189.2130  178.3290  141.6200 C   0  0  0  0  0  3  0  0  0  0  0  0
  189.9910  177.5870  139.3320 C   0  0  0  0  0  0  0  0  0  0  0  0
  191.9970  176.4470  142.9740 F   0  0  0  0  0  0  0  0  0  0  0  0
  191.4320  177.5990  139.6600 C   0  0  0  0  0  3  0  0  0  0  0  0
  191.1460  176.8380  141.9550 C   0  0  2  0  0  3  0  0  0  0  0  0
  189.1810  178.2180  136.9720 C   0  0  0  0  0  0  0  0  0  0  0  0
  188.8830  177.7200  135.6050 C   0  0  0  0  0  1  0  0  0  0  0  0
  189.6520  177.2990  137.9670 N   0  0  0  0  0  2  0  0  0  0  0  0
  189.0080  179.4380  137.2360 O   0  0  0  0  0  0  0  0  0  0  0  0
  1  2  2  0  0  0  0
  2  8  1  0  0  0  0
  2  3  1  0  0  0  0
  4  5  2  0  0  0  0
  4  8  1  0  0  0  0
  5  9  1  0  0  0  0
  6  7  1  0  0  0  0
  8  6  2  0  0  0  0
  9  7  2  0  0  0  0
 10  4  1  0  0  0  0
 11 10  1  0  0  0  0
 12 10  2  0  0  0  0
 13 15  1  6  0  0  0
 13 11  1  0  0  0  0
 14 15  1  0  0  0  0
 16 15  2  0  0  0  0
 17 13  1  0  0  0  0
 17 18  1  0  0  0  0
 19 17  2  0  0  0  0
 21  3  1  0  0  0  0
 21 20  1  1  0  0  0
 22 21  1  0  0  0  0
 23 30  1  0  0  0  0
 24 26  1  0  0  0  0
 25 22  1  0  0  0  0
 26 25  2  0  0  0  0
 27 29  1  0  0  0  0
 27 24  2  0  0  0  0
 29 23  2  0  0  0  0
 30 25  1  0  0  0  0
 30 28  1  1  0  0  0
 31 34  2  0  0  0  0
 31 33  1  0  0  0  0
 32 31  1  0  0  0  0
 33 27  1  0  0  0  0
M  END
>  <MODEL>
2

>  <REMARK>
 VINA RESULT:      -8.5      2.827      7.152
  Name = 
  9 active torsions:
  status: ('A' for Active; 'I' for Inactive)
    1  A    between atoms: C_2  and  C_20
    2  A    between atoms: C_8  and  CA_9
    3  A    between atoms: CA_9  and  C_10
    4  A    between atoms: CA_9  and  N_23
    5  A    between atoms: C_12  and  C_13
    6  A    between atoms: C_12  and  C_26
    7  A    between atoms: C_16  and  C_29
    8  A    between atoms: N_17  and  C_24
    9  A    between atoms: N_22  and  C_26
                            x       y       z     vdW  Elec       q    Type
                         _______ _______ _______ _____ _____    ______ ____

>  <TORSDO>
F 9

$$$$
=
 OpenBabel11062415383D

 34 35  0  0  1  0  0  0  0  0999 V2000
  189.4150  177.9710  141.3020 O   0  0  0  0  0  0  0  0  0  0  0  0
  188.2530  178.1710  140.8530 C   0  0  0  0  0  0  0  0  0  0  0  0
  188.0360  178.2570  139.4370 N   0  0  0  0  0  2  0  0  0  0  0  0
  187.0000  177.7120  143.0270 C   0  0  0  0  0  0  0  0  0  0  0  0
  185.8350  177.9180  143.7730 C   0  0  0  0  0  3  0  0  0  0  0  0
  186.1210  179.2710  141.4020 C   0  0  0  0  0  3  0  0  0  0  0  0
  185.0230  179.4360  142.1810 N   0  0  0  0  0  0  0  0  0  0  0  0
  187.1370  178.3940  141.7930 C   0  0  0  0  0  0  0  0  0  0  0  0
  184.8790  178.7710  143.3270 N   0  0  0  0  0  0  0  0  0  0  0  0
  188.0540  176.8580  143.6170 C   0  0  0  0  0  0  0  0  0  0  0  0
  188.9570  177.4120  144.5780 N   0  0  0  0  0  2  0  0  0  0  0  0
  188.1920  175.6610  143.2410 O   0  0  0  0  0  0  0  0  0  0  0  0
  190.0570  176.6510  145.1610 C   0  0  2  0  0  3  0  0  0  0  0  0
  191.5930  176.8210  147.1530 N   0  0  0  0  0  1  0  0  0  0  0  0
  190.3480  177.1400  146.5430 C   0  0  0  0  0  0  0  0  0  0  0  0
  189.5120  177.8510  147.1620 O   0  0  0  0  0  0  0  0  0  0  0  0
  191.2780  176.7340  144.2990 C   0  0  0  0  0  0  0  0  0  0  0  0
  191.9180  175.5670  143.9010 O   0  0  0  0  0  0  0  0  0  0  0  0
  191.7360  177.8510  143.9410 O   0  0  0  0  0  1  0  0  0  0  0  0
  188.7560  178.9220  137.1920 C   0  0  0  0  0  1  0  0  0  0  0  0
  189.0720  178.0880  138.4220 C   0  0  2  0  0  3  0  0  0  0  0  0
  189.2380  176.6160  138.0640 C   0  0  0  0  0  2  0  0  0  0  0  0
  191.7160  174.4560  136.5570 N   0  0  0  0  0  0  0  0  0  0  0  0
  193.0540  176.3580  138.5020 C   0  0  0  0  0  3  0  0  0  0  0  0
  190.6670  176.2860  137.7640 C   0  0  0  0  0  0  0  0  0  0  0  0
  191.6080  176.6210  138.6490 C   0  0  0  0  0  3  0  0  0  0  0  0
  193.6350  175.3690  137.8020 C   0  0  0  0  0  0  0  0  0  0  0  0
  189.9290  175.5860  135.6100 F   0  0  0  0  0  0  0  0  0  0  0  0
  192.8700  174.2970  137.1310 C   0  0  0  0  0  3  0  0  0  0  0  0
  191.0410  175.7380  136.4200 C   0  0  2  0  0  3  0  0  0  0  0  0
  195.8420  174.2350  138.4820 C   0  0  0  0  0  0  0  0  0  0  0  0
  197.3210  174.2590  138.3530 C   0  0  0  0  0  1  0  0  0  0  0  0
  195.0630  175.2280  137.8010 N   0  0  0  0  0  2  0  0  0  0  0  0
  195.2990  173.3480  139.1920 O   0  0  0  0  0  0  0  0  0  0  0  0
  2  1  2  0  0  0  0
  2  8  1  0  0  0  0
  3  2  1  0  0  0  0
  4 10  1  0  0  0  0
  4  5  1  0  0  0  0
  6  8  1  0  0  0  0
  6  7  2  0  0  0  0
  7  9  1  0  0  0  0
  8  4  2  0  0  0  0
  9  5  2  0  0  0  0
 10 11  1  0  0  0  0
 11 13  1  0  0  0  0
 12 10  2  0  0  0  0
 13 17  1  6  0  0  0
 13 15  1  0  0  0  0
 15 14  1  0  0  0  0
 15 16  2  0  0  0  0
 18 17  2  0  0  0  0
 19 17  1  0  0  0  0
 21 20  1  6  0  0  0
 21  3  1  0  0  0  0
 22 21  1  0  0  0  0
 23 29  2  0  0  0  0
 24 26  1  0  0  0  0
 25 22  1  0  0  0  0
 25 26  2  0  0  0  0
 27 24  2  0  0  0  0
 29 27  1  0  0  0  0
 30 28  1  6  0  0  0
 30 23  1  0  0  0  0
 30 25  1  0  0  0  0
 31 34  2  0  0  0  0
 32 31  1  0  0  0  0
 33 27  1  0  0  0  0
 33 31  1  0  0  0  0
M  END
>  <MODEL>
3

>  <REMARK>
 VINA RESULT:      -8.4      3.798      7.571
  Name = 
  9 active torsions:
  status: ('A' for Active; 'I' for Inactive)
    1  A    between atoms: C_2  and  C_20
    2  A    between atoms: C_8  and  CA_9
    3  A    between atoms: CA_9  and  C_10
    4  A    between atoms: CA_9  and  N_23
    5  A    between atoms: C_12  and  C_13
    6  A    between atoms: C_12  and  C_26
    7  A    between atoms: C_16  and  C_29
    8  A    between atoms: N_17  and  C_24
    9  A    between atoms: N_22  and  C_26
                            x       y       z     vdW  Elec       q    Type
                         _______ _______ _______ _____ _____    ______ ____

>  <TORSDO>
F 9

$$$$
=
 OpenBabel11062415383D

 34 35  0  0  1  0  0  0  0  0999 V2000
  185.8380  180.1870  142.2060 O   0  0  0  0  0  0  0  0  0  0  0  0
  185.7340  179.0020  141.7860 C   0  0  0  0  0  0  0  0  0  0  0  0
  185.0940  178.0060  142.5960 N   0  0  0  0  0  2  0  0  0  0  0  0
  185.6420  178.6320  139.2630 C   0  0  0  0  0  0  0  0  0  0  0  0
  186.2940  178.1410  138.1270 C   0  0  0  0  0  3  0  0  0  0  0  0
  187.6680  178.1820  140.5030 C   0  0  0  0  0  3  0  0  0  0  0  0
  188.2470  177.7330  139.3600 N   0  0  0  0  0  0  0  0  0  0  0  0
  186.3450  178.6320  140.4930 C   0  0  0  0  0  0  0  0  0  0  0  0
  187.5760  177.7040  138.2090 N   0  0  0  0  0  0  0  0  0  0  0  0
  184.2860  179.1960  139.0890 C   0  0  0  0  0  0  0  0  0  0  0  0
  183.1700  178.3160  138.9290 N   0  0  0  0  0  2  0  0  0  0  0  0
  184.1160  180.4450  139.0300 O   0  0  0  0  0  0  0  0  0  0  0  0
  181.8120  178.7950  138.6950 C   0  0  2  0  0  3  0  0  0  0  0  0
  181.0450  177.9580  140.9470 N   0  0  0  0  0  1  0  0  0  0  0  0
  181.1100  179.0140  139.9960 C   0  0  0  0  0  0  0  0  0  0  0  0
  180.5950  180.1320  140.2670 O   0  0  0  0  0  0  0  0  0  0  0  0
  181.0490  177.8360  137.8340 C   0  0  0  0  0  0  0  0  0  0  0  0
  179.6790  177.6970  138.0090 O   0  0  0  0  0  1  0  0  0  0  0  0
  181.6410  177.1480  136.9610 O   0  0  0  0  0  0  0  0  0  0  0  0
  183.0930  178.8320  143.7430 C   0  0  0  0  0  1  0  0  0  0  0  0
  184.4900  178.2550  143.9020 C   0  0  2  0  0  3  0  0  0  0  0  0
  185.3750  179.1750  144.7360 C   0  0  0  0  0  2  0  0  0  0  0  0
  187.0280  178.4370  147.8660 N   0  0  0  0  0  0  0  0  0  0  0  0
  188.5890  177.2250  145.5660 C   0  0  0  0  0  3  0  0  0  0  0  0
  186.3800  178.3940  145.5240 C   0  0  0  0  0  0  0  0  0  0  0  0
  187.5020  177.9930  144.9240 C   0  0  0  0  0  3  0  0  0  0  0  0
  188.9220  177.2190  146.8680 C   0  0  0  0  0  0  0  0  0  0  0  0
  184.7850  178.3540  147.2920 F   0  0  0  0  0  0  0  0  0  0  0  0
  188.2820  178.0960  147.8710 C   0  0  0  0  0  3  0  0  0  0  0  0
  186.0490  177.9380  146.9130 C   0  0  2  0  0  3  0  0  0  0  0  0
  191.3990  176.5200  146.8610 C   0  0  0  0  0  0  0  0  0  0  0  0
  192.4210  175.6290  147.4640 C   0  0  0  0  0  1  0  0  0  0  0  0
  190.0430  176.4460  147.3230 N   0  0  0  0  0  2  0  0  0  0  0  0
  191.7390  177.3210  145.9490 O   0  0  0  0  0  0  0  0  0  0  0  0
  2  1  2  0  0  0  0
  2  3  1  0  0  0  0
  3 21  1  0  0  0  0
  4  8  1  0  0  0  0
  5  9  1  0  0  0  0
  5  4  2  0  0  0  0
  7  6  1  0  0  0  0
  8  6  2  0  0  0  0
  8  2  1  0  0  0  0
  9  7  2  0  0  0  0
 10  4  1  0  0  0  0
 11 10  1  0  0  0  0
 12 10  2  0  0  0  0
 13 17  1  6  0  0  0
 13 11  1  0  0  0  0
 13 15  1  0  0  0  0
 15 16  2  0  0  0  0
 15 14  1  0  0  0  0
 17 18  1  0  0  0  0
 19 17  2  0  0  0  0
 21 20  1  6  0  0  0
 21 22  1  0  0  0  0
 22 25  1  0  0  0  0
 23 29  2  0  0  0  0
 24 27  2  0  0  0  0
 25 30  1  0  0  0  0
 26 25  2  0  0  0  0
 26 24  1  0  0  0  0
 27 33  1  0  0  0  0
 27 29  1  0  0  0  0
 30 28  1  1  0  0  0
 30 23  1  0  0  0  0
 31 33  1  0  0  0  0
 31 32  1  0  0  0  0
 34 31  2  0  0  0  0
M  END
>  <MODEL>
4

>  <REMARK>
 VINA RESULT:      -8.3      2.460      5.065
  Name = 
  9 active torsions:
  status: ('A' for Active; 'I' for Inactive)
    1  A    between atoms: C_2  and  C_20
    2  A    between atoms: C_8  and  CA_9
    3  A    between atoms: CA_9  and  C_10
    4  A    between atoms: CA_9  and  N_23
    5  A    between atoms: C_12  and  C_13
    6  A    between atoms: C_12  and  C_26
    7  A    between atoms: C_16  and  C_29
    8  A    between atoms: N_17  and  C_24
    9  A    between atoms: N_22  and  C_26
                            x       y       z     vdW  Elec       q    Type
                         _______ _______ _______ _____ _____    ______ ____

>  <TORSDO>
F 9

$$$$
=
 OpenBabel11062415383D

 34 35  0  0  1  0  0  0  0  0999 V2000
  185.1040  179.9150  140.3340 O   0  0  0  0  0  0  0  0  0  0  0  0
  185.0430  178.6990  140.0020 C   0  0  0  0  0  0  0  0  0  0  0  0
  184.1950  177.7980  140.7280 N   0  0  0  0  0  2  0  0  0  0  0  0
  187.3170  178.0900  139.0180 C   0  0  0  0  0  0  0  0  0  0  0  0
  188.0380  177.7190  137.8780 C   0  0  0  0  0  3  0  0  0  0  0  0
  185.3040  177.8850  137.6940 C   0  0  0  0  0  3  0  0  0  0  0  0
  186.0630  177.5160  136.6310 N   0  0  0  0  0  0  0  0  0  0  0  0
  185.9080  178.1970  138.9160 C   0  0  0  0  0  0  0  0  0  0  0  0
  187.3910  177.4460  136.7180 N   0  0  0  0  0  0  0  0  0  0  0  0
  188.0670  178.2670  140.2800 C   0  0  0  0  0  0  0  0  0  0  0  0
  188.7660  177.1560  140.8480 N   0  0  0  0  0  2  0  0  0  0  0  0
  188.0510  179.3750  140.8840 O   0  0  0  0  0  0  0  0  0  0  0  0
  189.4790  177.2350  142.1190 C   0  0  2  0  0  3  0  0  0  0  0  0
  191.4900  177.4360  140.6100 N   0  0  0  0  0  1  0  0  0  0  0  0
  190.9000  177.6370  141.8900 C   0  0  0  0  0  0  0  0  0  0  0  0
  191.5730  178.1710  142.8110 O   0  0  0  0  0  0  0  0  0  0  0  0
  189.4060  175.9320  142.8530 C   0  0  0  0  0  0  0  0  0  0  0  0
  190.5740  175.2310  143.1240 O   0  0  0  0  0  0  0  0  0  0  0  0
  188.2960  175.4620  143.2170 O   0  0  0  0  0  1  0  0  0  0  0  0
  181.9590  178.6000  141.3280 C   0  0  0  0  0  1  0  0  0  0  0  0
  183.3290  178.1810  141.8390 C   0  0  2  0  0  3  0  0  0  0  0  0
  183.9720  179.2890  142.6650 C   0  0  0  0  0  2  0  0  0  0  0  0
  184.8470  179.2870  146.1740 N   0  0  0  0  0  0  0  0  0  0  0  0
  186.8780  177.6740  144.6050 C   0  0  0  0  0  3  0  0  0  0  0  0
  184.7570  178.7280  143.8100 C   0  0  0  0  0  0  0  0  0  0  0  0
  185.9810  178.2500  143.5830 C   0  0  0  0  0  3  0  0  0  0  0  0
  186.9020  177.9540  145.9190 C   0  0  0  0  0  0  0  0  0  0  0  0
  182.7960  179.0060  145.1330 F   0  0  0  0  0  0  0  0  0  0  0  0
  186.0600  179.0000  146.5380 C   0  0  0  0  0  3  0  0  0  0  0  0
  184.1070  178.5640  145.1510 C   0  0  2  0  0  3  0  0  0  0  0  0
  189.3030  177.3690  146.6360 C   0  0  0  0  0  0  0  0  0  0  0  0
  190.1450  176.6590  147.6310 C   0  0  0  0  0  1  0  0  0  0  0  0
  187.8760  177.3350  146.7720 N   0  0  0  0  0  2  0  0  0  0  0  0
  189.8570  177.9830  145.6850 O   0  0  0  0  0  0  0  0  0  0  0  0
  2  1  2  0  0  0  0
  2  3  1  0  0  0  0
  3 21  1  0  0  0  0
  4 10  1  0  0  0  0
  5  4  2  0  0  0  0
  6  8  2  0  0  0  0
  7  9  2  0  0  0  0
  7  6  1  0  0  0  0
  8  4  1  0  0  0  0
  8  2  1  0  0  0  0
  9  5  1  0  0  0  0
 10 11  1  0  0  0  0
 10 12  2  0  0  0  0
 13 11  1  6  0  0  0
 13 17  1  0  0  0  0
 14 15  1  0  0  0  0
 15 13  1  0  0  0  0
 15 16  2  0  0  0  0
 17 18  2  0  0  0  0
 17 19  1  0  0  0  0
 21 20  1  6  0  0  0
 21 22  1  0  0  0  0
 22 25  1  0  0  0  0
 23 29  2  0  0  0  0
 24 27  2  0  0  0  0
 25 30  1  0  0  0  0
 26 25  2  0  0  0  0
 26 24  1  0  0  0  0
 27 29  1  0  0  0  0
 27 33  1  0  0  0  0
 30 28  1  6  0  0  0
 30 23  1  0  0  0  0
 31 33  1  0  0  0  0
 31 32  1  0  0  0  0
 34 31  2  0  0  0  0
M  END
>  <MODEL>
5

>  <REMARK>
 VINA RESULT:      -8.0      1.541      2.086
  Name = 
  9 active torsions:
  status: ('A' for Active; 'I' for Inactive)
    1  A    between atoms: C_2  and  C_20
    2  A    between atoms: C_8  and  CA_9
    3  A    between atoms: CA_9  and  C_10
    4  A    between atoms: CA_9  and  N_23
    5  A    between atoms: C_12  and  C_13
    6  A    between atoms: C_12  and  C_26
    7  A    between atoms: C_16  and  C_29
    8  A    between atoms: N_17  and  C_24
    9  A    between atoms: N_22  and  C_26
                            x       y       z     vdW  Elec       q    Type
                         _______ _______ _______ _____ _____    ______ ____

>  <TORSDO>
F 9

$$$$
=
 OpenBabel11062415383D

 34 35  0  0  1  0  0  0  0  0999 V2000
  188.6240  179.0590  140.4370 O   0  0  0  0  0  0  0  0  0  0  0  0
  188.8640  177.8260  140.5500 C   0  0  0  0  0  0  0  0  0  0  0  0
  188.7570  177.1870  141.8300 N   0  0  0  0  0  2  0  0  0  0  0  0
  188.6070  176.9730  138.1590 C   0  0  0  0  0  0  0  0  0  0  0  0
  189.0920  176.1190  137.1620 C   0  0  0  0  0  3  0  0  0  0  0  0
  190.5150  176.3330  139.4990 C   0  0  0  0  0  3  0  0  0  0  0  0
  190.9370  175.5360  138.4860 N   0  0  0  0  0  0  0  0  0  0  0  0
  189.3310  177.0650  139.3740 C   0  0  0  0  0  0  0  0  0  0  0  0
  190.2400  175.4240  137.3560 N   0  0  0  0  0  0  0  0  0  0  0  0
  187.4130  177.7870  137.8480 C   0  0  0  0  0  0  0  0  0  0  0  0
  186.1140  177.1890  137.9100 N   0  0  0  0  0  2  0  0  0  0  0  0
  187.5350  178.9880  137.4810 O   0  0  0  0  0  0  0  0  0  0  0  0
  184.8940  177.9100  137.5620 C   0  0  2  0  0  3  0  0  0  0  0  0
  184.5640  179.8180  139.1770 N   0  0  0  0  0  1  0  0  0  0  0  0
  184.2640  178.4820  138.7900 C   0  0  0  0  0  0  0  0  0  0  0  0
  183.4520  177.8010  139.4720 O   0  0  0  0  0  0  0  0  0  0  0  0
  183.9350  177.0150  136.8400 C   0  0  0  0  0  0  0  0  0  0  0  0
  184.1210  175.6400  136.8740 O   0  0  0  0  0  1  0  0  0  0  0  0
  182.9690  177.4990  136.1930 O   0  0  0  0  0  0  0  0  0  0  0  0
  189.5150  177.9910  144.0170 C   0  0  0  0  0  1  0  0  0  0  0  0
  188.3410  177.8520  143.0620 C   0  0  2  0  0  3  0  0  0  0  0  0
  187.1850  177.1020  143.7130 C   0  0  0  0  0  2  0  0  0  0  0  0
  184.4630  178.5270  145.6190 N   0  0  0  0  0  0  0  0  0  0  0  0
  183.9040  178.8130  142.6530 C   0  0  0  0  0  3  0  0  0  0  0  0
  185.9570  177.9550  143.7900 C   0  0  0  0  0  0  0  0  0  0  0  0
  185.1500  178.0250  142.7290 C   0  0  0  0  0  3  0  0  0  0  0  0
  183.0980  179.1630  143.6700 C   0  0  0  0  0  0  0  0  0  0  0  0
  186.7550  178.7030  145.9050 F   0  0  0  0  0  0  0  0  0  0  0  0
  183.3040  178.7030  145.0590 C   0  0  0  0  0  3  0  0  0  0  0  0
  185.7340  178.8370  144.9810 C   0  0  2  0  0  3  0  0  0  0  0  0
  180.7520  179.4670  142.6570 C   0  0  0  0  0  0  0  0  0  0  0  0
  179.5910  180.3810  142.5090 C   0  0  0  0  0  1  0  0  0  0  0  0
  181.8910  179.8970  143.4150 N   0  0  0  0  0  2  0  0  0  0  0  0
  180.7190  178.3330  142.1090 O   0  0  0  0  0  0  0  0  0  0  0  0
  1  2  2  0  0  0  0
  2  3  1  0  0  0  0
  3 21  1  0  0  0  0
  4  8  1  0  0  0  0
  5  9  1  0  0  0  0
  5  4  2  0  0  0  0
  7  6  1  0  0  0  0
  8  6  2  0  0  0  0
  8  2  1  0  0  0  0
  9  7  2  0  0  0  0
 10 11  1  0  0  0  0
 10  4  1  0  0  0  0
 12 10  2  0  0  0  0
 13 17  1  1  0  0  0
 13 11  1  0  0  0  0
 13 15  1  0  0  0  0
 15 14  1  0  0  0  0
 15 16  2  0  0  0  0
 17 18  1  0  0  0  0
 19 17  2  0  0  0  0
 21 22  1  0  0  0  0
 21 20  1  1  0  0  0
 22 25  1  0  0  0  0
 24 26  1  0  0  0  0
 24 27  2  0  0  0  0
 25 30  1  0  0  0  0
 26 25  2  0  0  0  0
 27 29  1  0  0  0  0
 29 23  2  0  0  0  0
 30 23  1  0  0  0  0
 30 28  1  1  0  0  0
 31 33  1  0  0  0  0
 32 31  1  0  0  0  0
 33 27  1  0  0  0  0
 34 31  2  0  0  0  0
M  END
>  <MODEL>
6

>  <REMARK>
 VINA RESULT:      -8.0      2.927      6.692
  Name = 
  9 active torsions:
  status: ('A' for Active; 'I' for Inactive)
    1  A    between atoms: C_2  and  C_20
    2  A    between atoms: C_8  and  CA_9
    3  A    between atoms: CA_9  and  C_10
    4  A    between atoms: CA_9  and  N_23
    5  A    between atoms: C_12  and  C_13
    6  A    between atoms: C_12  and  C_26
    7  A    between atoms: C_16  and  C_29
    8  A    between atoms: N_17  and  C_24
    9  A    between atoms: N_22  and  C_26
                            x       y       z     vdW  Elec       q    Type
                         _______ _______ _______ _____ _____    ______ ____

>  <TORSDO>
F 9

$$$$
=
 OpenBabel11062415383D

 34 35  0  0  1  0  0  0  0  0999 V2000
  186.8460  179.2700  141.7610 O   0  0  0  0  0  0  0  0  0  0  0  0
  185.6550  179.0490  142.1150 C   0  0  0  0  0  0  0  0  0  0  0  0
  184.6090  179.0160  141.1340 N   0  0  0  0  0  2  0  0  0  0  0  0
  186.0750  178.0880  144.4410 C   0  0  0  0  0  0  0  0  0  0  0  0
  185.6010  177.9350  145.7480 C   0  0  0  0  0  3  0  0  0  0  0  0
  184.1970  179.5540  144.0330 C   0  0  0  0  0  3  0  0  0  0  0  0
  183.8010  179.3750  145.3180 N   0  0  0  0  0  0  0  0  0  0  0  0
  185.3370  178.9060  143.5500 C   0  0  0  0  0  0  0  0  0  0  0  0
  184.4770  178.5810  146.1470 N   0  0  0  0  0  0  0  0  0  0  0  0
  187.3640  177.4490  144.0970 C   0  0  0  0  0  0  0  0  0  0  0  0
  188.5600  177.8700  144.7600 N   0  0  0  0  0  2  0  0  0  0  0  0
  187.4230  176.5750  143.1890 O   0  0  0  0  0  0  0  0  0  0  0  0
  189.8760  177.3310  144.4350 C   0  0  2  0  0  3  0  0  0  0  0  0
  189.9870  177.1690  146.9490 N   0  0  0  0  0  1  0  0  0  0  0  0
  190.6210  176.9970  145.6870 C   0  0  0  0  0  0  0  0  0  0  0  0
  191.7950  176.5440  145.6340 O   0  0  0  0  0  0  0  0  0  0  0  0
  190.6550  178.2950  143.5950 C   0  0  0  0  0  0  0  0  0  0  0  0
  191.1940  177.8720  142.3870 O   0  0  0  0  0  0  0  0  0  0  0  0
  190.8340  179.4810  143.9780 O   0  0  0  0  0  1  0  0  0  0  0  0
  183.6710  179.9900  139.0910 C   0  0  0  0  0  1  0  0  0  0  0  0
  184.8070  179.1810  139.6970 C   0  0  2  0  0  3  0  0  0  0  0  0
  184.9440  177.8250  139.0150 C   0  0  0  0  0  2  0  0  0  0  0  0
  187.0110  176.3220  136.4560 N   0  0  0  0  0  0  0  0  0  0  0  0
  188.7530  177.7890  138.4570 C   0  0  0  0  0  3  0  0  0  0  0  0
  186.2600  177.7020  138.3110 C   0  0  0  0  0  0  0  0  0  0  0  0
  187.3850  177.8850  139.0040 C   0  0  0  0  0  3  0  0  0  0  0  0
  189.1610  177.0560  137.4070 C   0  0  0  0  0  0  0  0  0  0  0  0
  185.0210  177.4970  136.2860 F   0  0  0  0  0  0  0  0  0  0  0  0
  188.2750  176.1230  136.6800 C   0  0  0  0  0  3  0  0  0  0  0  0
  186.2970  177.5360  136.8210 C   0  0  2  0  0  3  0  0  0  0  0  0
  191.5670  176.1480  137.5000 C   0  0  0  0  0  0  0  0  0  0  0  0
  192.9520  176.2950  136.9860 C   0  0  0  0  0  1  0  0  0  0  0  0
  190.5460  177.0400  137.0320 N   0  0  0  0  0  2  0  0  0  0  0  0
  191.3140  175.2470  138.3430 O   0  0  0  0  0  0  0  0  0  0  0  0
  1  2  2  0  0  0  0
  2  8  1  0  0  0  0
  3  2  1  0  0  0  0
  4  5  1  0  0  0  0
  5  9  2  0  0  0  0
  6  7  2  0  0  0  0
  7  9  1  0  0  0  0
  8  6  1  0  0  0  0
  8  4  2  0  0  0  0
 10  4  1  0  0  0  0
 10 11  1  0  0  0  0
 12 10  2  0  0  0  0
 13 17  1  1  0  0  0
 13 11  1  0  0  0  0
 13 15  1  0  0  0  0
 15 14  1  0  0  0  0
 16 15  2  0  0  0  0
 17 19  1  0  0  0  0
 18 17  2  0  0  0  0
 21 20  1  6  0  0  0
 21  3  1  0  0  0  0
 22 21  1  0  0  0  0
 23 29  2  0  0  0  0
 23 30  1  0  0  0  0
 24 26  1  0  0  0  0
 25 26  2  0  0  0  0
 25 22  1  0  0  0  0
 27 24  2  0  0  0  0
 29 27  1  0  0  0  0
 30 28  1  1  0  0  0
 30 25  1  0  0  0  0
 31 34  2  0  0  0  0
 32 31  1  0  0  0  0
 33 27  1  0  0  0  0
 33 31  1  0  0  0  0
M  END
>  <MODEL>
7

>  <REMARK>
 VINA RESULT:      -7.8      2.895      6.910
  Name = 
  9 active torsions:
  status: ('A' for Active; 'I' for Inactive)
    1  A    between atoms: C_2  and  C_20
    2  A    between atoms: C_8  and  CA_9
    3  A    between atoms: CA_9  and  C_10
    4  A    between atoms: CA_9  and  N_23
    5  A    between atoms: C_12  and  C_13
    6  A    between atoms: C_12  and  C_26
    7  A    between atoms: C_16  and  C_29
    8  A    between atoms: N_17  and  C_24
    9  A    between atoms: N_22  and  C_26
                            x       y       z     vdW  Elec       q    Type
                         _______ _______ _______ _____ _____    ______ ____

>  <TORSDO>
F 9

$$$$
=
 OpenBabel11062415383D

 34 35  0  0  1  0  0  0  0  0999 V2000
  189.2280  178.3200  141.1770 O   0  0  0  0  0  0  0  0  0  0  0  0
  188.0230  178.3170  140.8050 C   0  0  0  0  0  0  0  0  0  0  0  0
  187.7030  178.2510  139.4080 N   0  0  0  0  0  2  0  0  0  0  0  0
  186.9180  177.7490  143.0330 C   0  0  0  0  0  0  0  0  0  0  0  0
  185.7860  177.8770  143.8450 C   0  0  0  0  0  3  0  0  0  0  0  0
  185.8690  179.2900  141.4930 C   0  0  0  0  0  3  0  0  0  0  0  0
  184.8080  179.3800  142.3350 N   0  0  0  0  0  0  0  0  0  0  0  0
  186.9500  178.4610  141.8090 C   0  0  0  0  0  0  0  0  0  0  0  0
  184.7640  178.6860  143.4710 N   0  0  0  0  0  0  0  0  0  0  0  0
  188.0460  176.9410  143.5450 C   0  0  0  0  0  0  0  0  0  0  0  0
  189.0390  177.5570  144.3710 N   0  0  0  0  0  2  0  0  0  0  0  0
  188.1650  175.7280  143.2190 O   0  0  0  0  0  0  0  0  0  0  0  0
  190.2110  176.8430  144.8660 C   0  0  2  0  0  3  0  0  0  0  0  0
  189.2920  177.4310  147.1390 N   0  0  0  0  0  1  0  0  0  0  0  0
  190.4140  177.1290  146.3190 C   0  0  0  0  0  0  0  0  0  0  0  0
  191.5650  177.0810  146.8270 O   0  0  0  0  0  0  0  0  0  0  0  0
  191.4300  177.2080  144.0770 C   0  0  0  0  0  0  0  0  0  0  0  0
  191.8740  178.5230  144.0690 O   0  0  0  0  0  1  0  0  0  0  0  0
  192.0490  176.3350  143.4120 O   0  0  0  0  0  0  0  0  0  0  0  0
  188.3470  179.1040  137.2030 C   0  0  0  0  0  1  0  0  0  0  0  0
  188.6840  178.1430  138.3320 C   0  0  2  0  0  3  0  0  0  0  0  0
  188.7710  176.7070  137.8260 C   0  0  0  0  0  2  0  0  0  0  0  0
  192.2630  176.7420  138.7650 N   0  0  0  0  0  0  0  0  0  0  0  0
  191.9750  175.7850  135.9020 C   0  0  0  0  0  3  0  0  0  0  0  0
  190.1900  176.3050  137.5730 C   0  0  0  0  0  0  0  0  0  0  0  0
  190.6090  176.1670  136.3130 C   0  0  0  0  0  3  0  0  0  0  0  0
  193.1170  175.9930  136.5800 C   0  0  0  0  0  0  0  0  0  0  0  0
  190.3990  176.0030  139.9260 F   0  0  0  0  0  0  0  0  0  0  0  0
  193.1800  176.7540  137.8440 C   0  0  0  0  0  3  0  0  0  0  0  0
  191.0700  175.9090  138.7200 C   0  0  2  0  0  3  0  0  0  0  0  0
  195.3730  176.4450  135.4270 C   0  0  0  0  0  0  0  0  0  0  0  0
  196.6180  175.8380  134.8920 C   0  0  0  0  0  1  0  0  0  0  0  0
  194.3750  175.5970  136.0120 N   0  0  0  0  0  2  0  0  0  0  0  0
  195.2120  177.6920  135.3520 O   0  0  0  0  0  0  0  0  0  0  0  0
  2  1  2  0  0  0  0
  2  8  1  0  0  0  0
  3  2  1  0  0  0  0
  4 10  1  0  0  0  0
  4  5  1  0  0  0  0
  6  8  1  0  0  0  0
  6  7  2  0  0  0  0
  7  9  1  0  0  0  0
  8  4  2  0  0  0  0
  9  5  2  0  0  0  0
 10 11  1  0  0  0  0
 11 13  1  0  0  0  0
 12 10  2  0  0  0  0
 13 17  1  6  0  0  0
 13 15  1  0  0  0  0
 15 16  2  0  0  0  0
 15 14  1  0  0  0  0
 18 17  1  0  0  0  0
 19 17  2  0  0  0  0
 21 20  1  6  0  0  0
 21  3  1  0  0  0  0
 22 21  1  0  0  0  0
 24 26  1  0  0  0  0
 24 27  2  0  0  0  0
 25 22  1  0  0  0  0
 25 30  1  0  0  0  0
 26 25  2  0  0  0  0
 27 29  1  0  0  0  0
 29 23  2  0  0  0  0
 30 23  1  0  0  0  0
 30 28  1  1  0  0  0
 31 33  1  0  0  0  0
 32 31  1  0  0  0  0
 33 27  1  0  0  0  0
 34 31  2  0  0  0  0
M  END
>  <MODEL>
8

>  <REMARK>
 VINA RESULT:      -7.8      3.594      7.692
  Name = 
  9 active torsions:
  status: ('A' for Active; 'I' for Inactive)
    1  A    between atoms: C_2  and  C_20
    2  A    between atoms: C_8  and  CA_9
    3  A    between atoms: CA_9  and  C_10
    4  A    between atoms: CA_9  and  N_23
    5  A    between atoms: C_12  and  C_13
    6  A    between atoms: C_12  and  C_26
    7  A    between atoms: C_16  and  C_29
    8  A    between atoms: N_17  and  C_24
    9  A    between atoms: N_22  and  C_26
                            x       y       z     vdW  Elec       q    Type
                         _______ _______ _______ _____ _____    ______ ____

>  <TORSDO>
F 9

$$$$
=
 OpenBabel11062415383D

 34 35  0  0  1  0  0  0  0  0999 V2000
  189.5580  178.5020  138.5180 O   0  0  0  0  0  0  0  0  0  0  0  0
  189.4780  177.2490  138.6410 C   0  0  0  0  0  0  0  0  0  0  0  0
  190.1680  176.5870  139.7110 N   0  0  0  0  0  2  0  0  0  0  0  0
  187.3910  176.7170  137.2730 C   0  0  0  0  0  0  0  0  0  0  0  0
  186.7590  175.8270  136.3990 C   0  0  0  0  0  3  0  0  0  0  0  0
  189.3820  175.3620  137.0630 C   0  0  0  0  0  3  0  0  0  0  0  0
  188.7150  174.5460  136.2080 N   0  0  0  0  0  0  0  0  0  0  0  0
  188.7370  176.4640  137.6330 C   0  0  0  0  0  0  0  0  0  0  0  0
  187.4380  174.7660  135.8940 N   0  0  0  0  0  0  0  0  0  0  0  0
  186.6350  177.9140  137.7020 C   0  0  0  0  0  0  0  0  0  0  0  0
  185.7100  177.8130  138.7890 N   0  0  0  0  0  2  0  0  0  0  0  0
  186.7630  179.0070  137.0850 O   0  0  0  0  0  0  0  0  0  0  0  0
  184.8860  178.9320  139.2330 C   0  0  2  0  0  3  0  0  0  0  0  0
  183.9550  178.2250  141.4670 N   0  0  0  0  0  1  0  0  0  0  0  0
  184.8810  179.0100  140.7260 C   0  0  0  0  0  0  0  0  0  0  0  0
  185.7040  179.7460  141.3320 O   0  0  0  0  0  0  0  0  0  0  0  0
  183.4910  178.8100  138.7020 C   0  0  0  0  0  0  0  0  0  0  0  0
  183.0590  177.5980  138.1820 O   0  0  0  0  0  0  0  0  0  0  0  0
  182.7120  179.7990  138.7130 O   0  0  0  0  0  1  0  0  0  0  0  0
  192.3760  177.5010  140.2510 C   0  0  0  0  0  1  0  0  0  0  0  0
  190.9560  177.2620  140.7380 C   0  0  2  0  0  3  0  0  0  0  0  0
  190.9460  176.4610  142.0350 C   0  0  0  0  0  2  0  0  0  0  0  0
  190.0030  177.9230  145.2050 N   0  0  0  0  0  0  0  0  0  0  0  0
  187.5600  176.7530  143.8430 C   0  0  0  0  0  3  0  0  0  0  0  0
  189.8940  176.9620  142.9760 C   0  0  0  0  0  0  0  0  0  0  0  0
  188.6940  176.3800  142.9730 C   0  0  0  0  0  3  0  0  0  0  0  0
  187.6190  177.3200  145.0600 C   0  0  0  0  0  0  0  0  0  0  0  0
  191.4040  178.7160  143.5390 F   0  0  0  0  0  0  0  0  0  0  0  0
  188.8890  177.5720  145.7740 C   0  0  0  0  0  3  0  0  0  0  0  0
  190.1430  178.2000  143.7840 C   0  0  2  0  0  3  0  0  0  0  0  0
  185.3750  178.5110  145.4700 C   0  0  0  0  0  0  0  0  0  0  0  0
  184.1970  178.6290  146.3670 C   0  0  0  0  0  1  0  0  0  0  0  0
  186.4140  177.5780  145.7960 N   0  0  0  0  0  2  0  0  0  0  0  0
  185.4440  179.2370  144.4430 O   0  0  0  0  0  0  0  0  0  0  0  0
  1  2  2  0  0  0  0
  2  3  1  0  0  0  0
  3 21  1  0  0  0  0
  4  8  1  0  0  0  0
  4 10  1  0  0  0  0
  5  4  2  0  0  0  0
  6  8  2  0  0  0  0
  7  6  1  0  0  0  0
  8  2  1  0  0  0  0
  9  7  2  0  0  0  0
  9  5  1  0  0  0  0
 10 11  1  0  0  0  0
 11 13  1  0  0  0  0
 12 10  2  0  0  0  0
 13 17  1  1  0  0  0
 13 15  1  0  0  0  0
 15 16  2  0  0  0  0
 15 14  1  0  0  0  0
 17 19  1  0  0  0  0
 18 17  2  0  0  0  0
 21 20  1  6  0  0  0
 21 22  1  0  0  0  0
 22 25  1  0  0  0  0
 23 29  2  0  0  0  0
 24 27  2  0  0  0  0
 25 30  1  0  0  0  0
 26 25  2  0  0  0  0
 26 24  1  0  0  0  0
 27 29  1  0  0  0  0
 27 33  1  0  0  0  0
 30 28  1  1  0  0  0
 30 23  1  0  0  0  0
 31 33  1  0  0  0  0
 31 32  1  0  0  0  0
 34 31  2  0  0  0  0
M  END
>  <MODEL>
9

>  <REMARK>
 VINA RESULT:      -7.7      2.840      6.006
  Name = 
  9 active torsions:
  status: ('A' for Active; 'I' for Inactive)
    1  A    between atoms: C_2  and  C_20
    2  A    between atoms: C_8  and  CA_9
    3  A    between atoms: CA_9  and  C_10
    4  A    between atoms: CA_9  and  N_23
    5  A    between atoms: C_12  and  C_13
    6  A    between atoms: C_12  and  C_26
    7  A    between atoms: C_16  and  C_29
    8  A    between atoms: N_17  and  C_24
    9  A    between atoms: N_22  and  C_26
                            x       y       z     vdW  Elec       q    Type
                         _______ _______ _______ _____ _____    ______ ____

>  <TORSDO>
F 9

$$$$
