=
 OpenBabel11062415473D

 44 46  0  0  1  0  0  0  0  0999 V2000
  189.5620  177.6320  145.7590 C   0  0  2  0  0  3  0  0  0  0  0  0
  190.3400  176.8660  146.7820 C   0  0  0  0  0  0  0  0  0  0  0  0
  189.7540  176.2120  147.6830 O   0  0  0  0  0  0  0  0  0  0  0  0
  191.7620  176.8840  146.7430 N   0  0  0  0  0  1  0  0  0  0  0  0
  188.1440  177.9650  146.2410 C   0  0  0  0  0  2  0  0  0  0  0  0
  187.1230  178.2270  145.1350 C   0  0  0  0  0  2  0  0  0  0  0  0
  184.7120  178.5400  144.9510 N   0  0  0  0  0  0  0  0  0  0  0  0
  185.0780  178.3070  146.3810 C   0  0  0  0  0  2  0  0  0  0  0  0
  183.9530  179.1960  143.9340 C   0  0  0  0  0  0  0  0  0  0  0  0
  183.0080  179.9510  144.2840 O   0  0  0  0  0  0  0  0  0  0  0  0
  185.7740  177.6020  145.4220 C   0  0  2  0  0  3  0  0  0  0  0  0
  184.2840  178.9780  142.4960 C   0  0  0  0  0  0  0  0  0  0  0  0
  185.0750  178.5760  139.8200 C   0  0  0  0  0  3  0  0  0  0  0  0
  186.0320  178.8400  140.7970 C   0  0  0  0  0  3  0  0  0  0  0  0
  185.6370  179.0400  142.1210 C   0  0  0  0  0  3  0  0  0  0  0  0
  183.7250  178.5120  140.1650 C   0  0  0  0  0  3  0  0  0  0  0  0
  183.3140  178.7070  141.4890 C   0  0  0  0  0  0  0  0  0  0  0  0
  181.5430  178.6210  141.8080 S   0  0  0  0  0  0  0  0  0  0  0  0
  181.1210  178.6730  140.0400 C   0  0  0  0  0  2  0  0  0  0  0  0
  179.9520  179.6110  139.8090 C   0  0  0  0  0  2  0  0  0  0  0  0
  180.4540  180.9680  139.6610 N   0  0  0  0  0  2  0  0  0  0  0  0
  180.8600  182.5580  137.8310 C   0  0  0  0  0  3  0  0  0  0  0  0
  180.7210  182.8810  136.5900 N   0  0  0  0  0  2  0  0  0  0  0  0
  180.3540  181.3120  138.3050 N   0  0  0  0  0  2  0  0  0  0  0  0
  189.6640  176.9890  144.3650 C   0  0  0  0  0  2  0  0  0  0  0  0
  190.8960  179.1340  143.8610 C   0  0  0  0  0  1  0  0  0  0  0  0
  191.7550  176.9630  143.0750 C   0  0  0  0  0  1  0  0  0  0  0  0
  190.4920  177.7640  143.3330 C   0  0  0  0  0  0  0  0  0  0  0  0
  189.8800  177.0610  141.0230 C   0  0  0  0  0  3  0  0  0  0  0  0
  189.7140  177.8900  142.0540 C   0  0  0  0  0  3  0  0  0  0  0  0
  189.0460  177.2170  139.7980 C   0  0  0  0  0  2  0  0  0  0  0  0
  189.9270  177.2300  138.5570 C   0  0  0  0  0  2  0  0  0  0  0  0
  189.1180  177.3930  137.3510 N   0  0  0  0  0  0  0  0  0  0  0  0
  188.6780  178.6820  136.9150 C   0  0  0  0  0  3  0  0  0  0  0  0
  188.9740  179.7210  137.5600 O   0  0  0  0  0  0  0  0  0  0  0  0
  188.6970  175.9950  136.4190 S   0  0  0  0  0  0  0  0  0  0  0  0
  188.7480  176.3220  134.9510 O   0  0  0  0  0  0  0  0  0  0  0  0
  189.6850  174.8950  136.7070 O   0  0  0  0  0  0  0  0  0  0  0  0
  186.8310  174.1010  137.0710 C   0  0  0  0  0  3  0  0  0  0  0  0
  186.0230  176.3800  136.8950 C   0  0  0  0  0  3  0  0  0  0  0  0
  185.5400  173.6700  137.3960 C   0  0  0  0  0  3  0  0  0  0  0  0
  187.0750  175.4570  136.8190 C   0  0  0  0  0  0  0  0  0  0  0  0
  184.4910  174.5940  137.4720 C   0  0  0  0  0  3  0  0  0  0  0  0
  184.7320  175.9490  137.2210 C   0  0  0  0  0  3  0  0  0  0  0  0
  1 25  1  6  0  0  0
  1  5  1  0  0  0  0
  1  2  1  0  0  0  0
  2  3  2  0  0  0  0
  4  2  1  0  0  0  0
  6  5  1  0  0  0  0
  7 11  1  0  0  0  0
  7  8  1  0  0  0  0
  9 10  2  0  0  0  0
  9  7  1  0  0  0  0
 11  6  1  6  0  0  0
 11  8  1  0  0  0  0
 12  9  1  0  0  0  0
 13 16  2  0  0  0  0
 13 14  1  0  0  0  0
 14 15  2  0  0  0  0
 15 12  1  0  0  0  0
 16 17  1  0  0  0  0
 17 18  1  0  0  0  0
 17 12  2  0  0  0  0
 19 18  1  0  0  0  0
 20 19  1  0  0  0  0
 21 20  1  0  0  0  0
 22 24  1  0  0  0  0
 23 22  2  0  0  0  0
 24 21  1  0  0  0  0
 27 28  1  0  0  0  0
 28 26  1  0  0  0  0
 28 25  1  0  0  0  0
 29 30  2  0  0  0  0
 30 28  1  0  0  0  0
 31 29  1  0  0  0  0
 32 31  1  0  0  0  0
 33 32  1  0  0  0  0
 34 33  1  0  0  0  0
 34 35  2  0  0  0  0
 36 38  2  0  0  0  0
 36 42  1  0  0  0  0
 36 33  1  0  0  0  0
 37 36  2  0  0  0  0
 39 41  1  0  0  0  0
 40 44  2  0  0  0  0
 41 43  2  0  0  0  0
 42 40  1  0  0  0  0
 42 39  2  0  0  0  0
 44 43  1  0  0  0  0
M  END
>  <MODEL>
1

>  <REMARK>
 VINA RESULT:      -7.4      0.000      0.000
  Name = 
  18 active torsions:
  status: ('A' for Active; 'I' for Inactive)
    1  A    between atoms: C_1  and  C_30
    2  A    between atoms: S_3  and  N_10
    3  A    between atoms: S_3  and  C_22
    4  A    between atoms: N_5  and  N_17
    5  A    between atoms: N_5  and  C_19
    6  A    between atoms: N_10  and  C_20
    7  A    between atoms: C_16  and  C_20
    8  A    between atoms: C_16  and  C_34
    9  A    between atoms: C_18  and  C_28
   10  A    between atoms: C_19  and  C_25
   11  A    between atoms: C_25  and  S_37
   12  A    between atoms: C_26  and  S_37
   13  A    between atoms: C_28  and  C_31
   14  A    between atoms: C_28  and  C_43
   15  A    between atoms: C_31  and  C_35
   16  A    between atoms: C_32  and  C_38
   17  A    between atoms: C_32  and  C_43
   18  A    between atoms: C_35  and  C_39
                            x       y       z     vdW  Elec       q    Type
                         _______ _______ _______ _____ _____    ______ ____

>  <TORSDO>
F 18

$$$$
=
 OpenBabel11062415473D

 44 46  0  0  1  0  0  0  0  0999 V2000
  187.4400  174.3170  136.1320 C   0  0  2  0  0  3  0  0  0  0  0  0
  187.0960  172.9890  136.7300 C   0  0  0  0  0  0  0  0  0  0  0  0
  186.1000  172.8620  137.4900 O   0  0  0  0  0  0  0  0  0  0  0  0
  187.9090  171.8570  136.4450 N   0  0  0  0  0  1  0  0  0  0  0  0
  188.8690  174.3470  135.5760 C   0  0  0  0  0  2  0  0  0  0  0  0
  189.8410  175.2640  136.3170 C   0  0  0  0  0  2  0  0  0  0  0  0
  191.3570  175.5700  138.2020 N   0  0  0  0  0  0  0  0  0  0  0  0
  191.9540  174.6030  137.2320 C   0  0  0  0  0  2  0  0  0  0  0  0
  191.4570  176.6570  139.1230 C   0  0  0  0  0  0  0  0  0  0  0  0
  192.6040  177.0770  139.4320 O   0  0  0  0  0  0  0  0  0  0  0  0
  190.5900  174.5520  137.4240 C   0  0  2  0  0  3  0  0  0  0  0  0
  190.2250  177.2670  139.6980 C   0  0  0  0  0  0  0  0  0  0  0  0
  187.8360  178.4450  140.6240 C   0  0  0  0  0  3  0  0  0  0  0  0
  188.1020  178.3930  139.2580 C   0  0  0  0  0  3  0  0  0  0  0  0
  189.2860  177.8100  138.8020 C   0  0  0  0  0  3  0  0  0  0  0  0
  188.7510  177.9170  141.5340 C   0  0  0  0  0  3  0  0  0  0  0  0
  189.9410  177.3260  141.0920 C   0  0  0  0  0  0  0  0  0  0  0  0
  191.0540  176.6980  142.3630 S   0  0  0  0  0  0  0  0  0  0  0  0
  189.8930  177.0820  143.7090 C   0  0  0  0  0  2  0  0  0  0  0  0
  190.5880  177.8990  144.7810 C   0  0  0  0  0  2  0  0  0  0  0  0
  190.4630  177.2130  146.0560 N   0  0  0  0  0  2  0  0  0  0  0  0
  191.9450  175.9720  147.5760 C   0  0  0  0  0  3  0  0  0  0  0  0
  193.1370  175.6920  147.9800 N   0  0  0  0  0  2  0  0  0  0  0  0
  191.7540  176.8610  146.4770 N   0  0  0  0  0  2  0  0  0  0  0  0
  187.0580  175.4800  137.0640 C   0  0  0  0  0  2  0  0  0  0  0  0
  186.6720  177.5530  135.6760 C   0  0  0  0  0  1  0  0  0  0  0  0
  185.0840  175.6710  135.6130 C   0  0  0  0  0  1  0  0  0  0  0  0
  186.0180  176.4610  136.5120 C   0  0  0  0  0  0  0  0  0  0  0  0
  184.7260  178.2860  137.6080 C   0  0  0  0  0  3  0  0  0  0  0  0
  185.2310  177.0530  137.6460 C   0  0  0  0  0  3  0  0  0  0  0  0
  183.9190  178.7980  138.7520 C   0  0  0  0  0  2  0  0  0  0  0  0
  182.4520  178.4360  138.5680 C   0  0  0  0  0  2  0  0  0  0  0  0
  181.9620  177.6670  139.7100 N   0  0  0  0  0  0  0  0  0  0  0  0
  181.9440  176.2370  139.6960 C   0  0  0  0  0  3  0  0  0  0  0  0
  182.3510  175.5940  138.6940 O   0  0  0  0  0  0  0  0  0  0  0  0
  181.4070  178.5070  141.1190 S   0  0  0  0  0  0  0  0  0  0  0  0
  180.9930  179.9070  140.7540 O   0  0  0  0  0  0  0  0  0  0  0  0
  180.2170  177.7810  141.6890 O   0  0  0  0  0  0  0  0  0  0  0  0
  182.3740  178.9440  143.6430 C   0  0  0  0  0  3  0  0  0  0  0  0
  184.0080  178.3090  141.9690 C   0  0  0  0  0  3  0  0  0  0  0  0
  183.3870  179.0080  144.6060 C   0  0  0  0  0  3  0  0  0  0  0  0
  182.6820  178.5940  142.3220 C   0  0  0  0  0  0  0  0  0  0  0  0
  184.7110  178.7220  144.2510 C   0  0  0  0  0  3  0  0  0  0  0  0
  185.0210  178.3720  142.9320 C   0  0  0  0  0  3  0  0  0  0  0  0
  1  5  1  1  0  0  0
  1  2  1  0  0  0  0
  1 25  1  0  0  0  0
  2  3  2  0  0  0  0
  4  2  1  0  0  0  0
  5  6  1  0  0  0  0
  7  9  1  0  0  0  0
  8 11  1  0  0  0  0
  8  7  1  0  0  0  0
  9 10  2  0  0  0  0
  9 12  1  0  0  0  0
 11  6  1  6  0  0  0
 11  7  1  0  0  0  0
 12 17  1  0  0  0  0
 13 16  1  0  0  0  0
 14 13  2  0  0  0  0
 15 14  1  0  0  0  0
 15 12  2  0  0  0  0
 17 16  2  0  0  0  0
 17 18  1  0  0  0  0
 18 19  1  0  0  0  0
 19 20  1  0  0  0  0
 20 21  1  0  0  0  0
 21 24  1  0  0  0  0
 22 23  2  0  0  0  0
 24 22  1  0  0  0  0
 26 28  1  0  0  0  0
 27 28  1  0  0  0  0
 28 25  1  0  0  0  0
 28 30  1  0  0  0  0
 29 30  2  0  0  0  0
 29 31  1  0  0  0  0
 32 31  1  0  0  0  0
 32 33  1  0  0  0  0
 33 36  1  0  0  0  0
 34 33  1  0  0  0  0
 35 34  2  0  0  0  0
 36 38  2  0  0  0  0
 36 42  1  0  0  0  0
 37 36  2  0  0  0  0
 39 41  1  0  0  0  0
 40 42  1  0  0  0  0
 40 44  2  0  0  0  0
 42 39  2  0  0  0  0
 43 41  2  0  0  0  0
 44 43  1  0  0  0  0
M  END
>  <MODEL>
2

>  <REMARK>
 VINA RESULT:      -7.1      3.085      9.629
  Name = 
  18 active torsions:
  status: ('A' for Active; 'I' for Inactive)
    1  A    between atoms: C_1  and  C_30
    2  A    between atoms: S_3  and  N_10
    3  A    between atoms: S_3  and  C_22
    4  A    between atoms: N_5  and  N_17
    5  A    between atoms: N_5  and  C_19
    6  A    between atoms: N_10  and  C_20
    7  A    between atoms: C_16  and  C_20
    8  A    between atoms: C_16  and  C_34
    9  A    between atoms: C_18  and  C_28
   10  A    between atoms: C_19  and  C_25
   11  A    between atoms: C_25  and  S_37
   12  A    between atoms: C_26  and  S_37
   13  A    between atoms: C_28  and  C_31
   14  A    between atoms: C_28  and  C_43
   15  A    between atoms: C_31  and  C_35
   16  A    between atoms: C_32  and  C_38
   17  A    between atoms: C_32  and  C_43
   18  A    between atoms: C_35  and  C_39
                            x       y       z     vdW  Elec       q    Type
                         _______ _______ _______ _____ _____    ______ ____

>  <TORSDO>
F 18

$$$$
=
 OpenBabel11062415473D

 44 46  0  0  1  0  0  0  0  0999 V2000
  189.0880  176.8510  144.4940 C   0  0  2  0  0  3  0  0  0  0  0  0
  190.5690  177.0710  144.4900 C   0  0  0  0  0  0  0  0  0  0  0  0
  191.3660  176.1000  144.4060 O   0  0  0  0  0  0  0  0  0  0  0  0
  191.0840  178.3930  144.5910 N   0  0  0  0  0  1  0  0  0  0  0  0
  188.6000  176.1740  143.2070 C   0  0  0  0  0  2  0  0  0  0  0  0
  188.9690  176.8940  141.9110 C   0  0  0  0  0  2  0  0  0  0  0  0
  188.2710  178.3300  140.0680 N   0  0  0  0  0  0  0  0  0  0  0  0
  188.1990  179.0930  141.3510 C   0  0  0  0  0  2  0  0  0  0  0  0
  188.5660  178.2310  138.6740 C   0  0  0  0  0  0  0  0  0  0  0  0
  188.8680  179.2820  138.0490 O   0  0  0  0  0  0  0  0  0  0  0  0
  187.8450  177.7610  141.3810 C   0  0  2  0  0  3  0  0  0  0  0  0
  188.5100  176.9080  137.9890 C   0  0  0  0  0  0  0  0  0  0  0  0
  188.2410  174.4370  136.6570 C   0  0  0  0  0  3  0  0  0  0  0  0
  187.1310  175.2620  136.8270 C   0  0  0  0  0  3  0  0  0  0  0  0
  187.2670  176.4840  137.4870 C   0  0  0  0  0  3  0  0  0  0  0  0
  189.4850  174.8320  137.1480 C   0  0  0  0  0  3  0  0  0  0  0  0
  189.6380  176.0570  137.8100 C   0  0  0  0  0  0  0  0  0  0  0  0
  191.2890  176.4480  138.4180 S   0  0  0  0  0  0  0  0  0  0  0  0
  192.0470  175.0350  137.5590 C   0  0  0  0  0  2  0  0  0  0  0  0
  193.4580  175.3830  137.1250 C   0  0  0  0  0  2  0  0  0  0  0  0
  194.1720  175.9620  138.2510 N   0  0  0  0  0  2  0  0  0  0  0  0
  195.1170  173.6950  138.1420 C   0  0  0  0  0  3  0  0  0  0  0  0
  195.8980  172.7940  138.6330 N   0  0  0  0  0  2  0  0  0  0  0  0
  195.0510  174.9860  138.7430 N   0  0  0  0  0  2  0  0  0  0  0  0
  188.3240  178.1170  144.9190 C   0  0  0  0  0  2  0  0  0  0  0  0
  186.6640  176.4500  145.8360 C   0  0  0  0  0  1  0  0  0  0  0  0
  186.6850  178.7850  146.6230 C   0  0  0  0  0  1  0  0  0  0  0  0
  186.8890  177.8950  145.4100 C   0  0  0  0  0  0  0  0  0  0  0  0
  184.9310  179.1640  144.5380 C   0  0  0  0  0  3  0  0  0  0  0  0
  185.9200  178.2940  144.3340 C   0  0  0  0  0  3  0  0  0  0  0  0
  184.0300  179.5470  143.4150 C   0  0  0  0  0  2  0  0  0  0  0  0
  183.9290  178.4110  142.4070 C   0  0  0  0  0  2  0  0  0  0  0  0
  182.9580  178.7320  141.3630 N   0  0  0  0  0  0  0  0  0  0  0  0
  181.5550  178.7760  141.6350 C   0  0  0  0  0  3  0  0  0  0  0  0
  181.1100  178.5380  142.7880 O   0  0  0  0  0  0  0  0  0  0  0  0
  183.5220  179.0840  139.7630 S   0  0  0  0  0  0  0  0  0  0  0  0
  182.6840  180.1740  139.1520 O   0  0  0  0  0  0  0  0  0  0  0  0
  184.9520  179.5520  139.8370 O   0  0  0  0  0  0  0  0  0  0  0  0
  183.7520  177.7380  137.3910 C   0  0  0  0  0  3  0  0  0  0  0  0
  182.9990  176.4330  139.2900 C   0  0  0  0  0  3  0  0  0  0  0  0
  183.6740  176.6010  136.5800 C   0  0  0  0  0  3  0  0  0  0  0  0
  183.4150  177.6570  138.7480 C   0  0  0  0  0  0  0  0  0  0  0  0
  183.2590  175.3790  137.1240 C   0  0  0  0  0  3  0  0  0  0  0  0
  182.9220  175.2950  138.4790 C   0  0  0  0  0  3  0  0  0  0  0  0
  1  5  1  6  0  0  0
  1 25  1  0  0  0  0
  2  1  1  0  0  0  0
  2  4  1  0  0  0  0
  3  2  2  0  0  0  0
  6  5  1  0  0  0  0
  7  8  1  0  0  0  0
  7 11  1  0  0  0  0
  8 11  1  0  0  0  0
  9  7  1  0  0  0  0
 10  9  2  0  0  0  0
 11  6  1  1  0  0  0
 12  9  1  0  0  0  0
 13 14  2  0  0  0  0
 13 16  1  0  0  0  0
 14 15  1  0  0  0  0
 15 12  2  0  0  0  0
 16 17  2  0  0  0  0
 17 12  1  0  0  0  0
 17 18  1  0  0  0  0
 19 18  1  0  0  0  0
 20 19  1  0  0  0  0
 20 21  1  0  0  0  0
 21 24  1  0  0  0  0
 22 23  2  0  0  0  0
 22 24  1  0  0  0  0
 25 28  1  0  0  0  0
 28 26  1  0  0  0  0
 28 27  1  0  0  0  0
 30 29  2  0  0  0  0
 30 28  1  0  0  0  0
 31 29  1  0  0  0  0
 32 31  1  0  0  0  0
 33 34  1  0  0  0  0
 33 32  1  0  0  0  0
 34 35  2  0  0  0  0
 36 38  2  0  0  0  0
 36 33  1  0  0  0  0
 37 36  2  0  0  0  0
 39 42  1  0  0  0  0
 41 43  1  0  0  0  0
 41 39  2  0  0  0  0
 42 40  2  0  0  0  0
 42 36  1  0  0  0  0
 43 44  2  0  0  0  0
 44 40  1  0  0  0  0
M  END
>  <MODEL>
3

>  <REMARK>
 VINA RESULT:      -7.0      2.987      7.970
  Name = 
  18 active torsions:
  status: ('A' for Active; 'I' for Inactive)
    1  A    between atoms: C_1  and  C_30
    2  A    between atoms: S_3  and  N_10
    3  A    between atoms: S_3  and  C_22
    4  A    between atoms: N_5  and  N_17
    5  A    between atoms: N_5  and  C_19
    6  A    between atoms: N_10  and  C_20
    7  A    between atoms: C_16  and  C_20
    8  A    between atoms: C_16  and  C_34
    9  A    between atoms: C_18  and  C_28
   10  A    between atoms: C_19  and  C_25
   11  A    between atoms: C_25  and  S_37
   12  A    between atoms: C_26  and  S_37
   13  A    between atoms: C_28  and  C_31
   14  A    between atoms: C_28  and  C_43
   15  A    between atoms: C_31  and  C_35
   16  A    between atoms: C_32  and  C_38
   17  A    between atoms: C_32  and  C_43
   18  A    between atoms: C_35  and  C_39
                            x       y       z     vdW  Elec       q    Type
                         _______ _______ _______ _____ _____    ______ ____

>  <TORSDO>
F 18

$$$$
=
 OpenBabel11062415473D

 44 46  0  0  1  0  0  0  0  0999 V2000
  189.8990  177.5010  144.7290 C   0  0  2  0  0  3  0  0  0  0  0  0
  191.1410  176.8030  145.1890 C   0  0  0  0  0  0  0  0  0  0  0  0
  191.7090  175.9500  144.4600 O   0  0  0  0  0  0  0  0  0  0  0  0
  191.6810  177.1010  146.4700 N   0  0  0  0  0  1  0  0  0  0  0  0
  190.1200  178.2750  143.4240 C   0  0  0  0  0  2  0  0  0  0  0  0
  189.9430  177.4610  142.1430 C   0  0  0  0  0  2  0  0  0  0  0  0
  188.6880  178.2300  140.1990 N   0  0  0  0  0  0  0  0  0  0  0  0
  188.1840  178.9210  141.4250 C   0  0  0  0  0  2  0  0  0  0  0  0
  189.0490  178.2160  138.8170 C   0  0  0  0  0  0  0  0  0  0  0  0
  188.7980  179.2360  138.1220 O   0  0  0  0  0  0  0  0  0  0  0  0
  188.5570  177.6000  141.5460 C   0  0  2  0  0  3  0  0  0  0  0  0
  189.7040  177.0140  138.2270 C   0  0  0  0  0  0  0  0  0  0  0  0
  191.0830  174.7770  137.2040 C   0  0  0  0  0  3  0  0  0  0  0  0
  191.7380  175.6750  138.0440 C   0  0  0  0  0  3  0  0  0  0  0  0
  191.0530  176.7820  138.5480 C   0  0  0  0  0  3  0  0  0  0  0  0
  189.7460  174.9850  136.8670 C   0  0  0  0  0  3  0  0  0  0  0  0
  189.0440  176.0890  137.3680 C   0  0  0  0  0  0  0  0  0  0  0  0
  187.3280  176.2630  136.8460 S   0  0  0  0  0  0  0  0  0  0  0  0
  187.0300  174.4700  136.8890 C   0  0  0  0  0  2  0  0  0  0  0  0
  185.5580  174.1900  137.1190 C   0  0  0  0  0  2  0  0  0  0  0  0
  185.4230  172.9890  137.9260 N   0  0  0  0  0  2  0  0  0  0  0  0
  183.6220  172.5800  136.3040 C   0  0  0  0  0  3  0  0  0  0  0  0
  182.4770  172.0570  136.0250 N   0  0  0  0  0  2  0  0  0  0  0  0
  184.2010  172.3870  137.5920 N   0  0  0  0  0  2  0  0  0  0  0  0
  189.2290  178.2860  145.8700 C   0  0  0  0  0  2  0  0  0  0  0  0
  188.0160  176.5460  147.2380 C   0  0  0  0  0  1  0  0  0  0  0  0
  187.1980  178.8670  147.1260 C   0  0  0  0  0  1  0  0  0  0  0  0
  187.8650  177.7590  146.3310 C   0  0  0  0  0  0  0  0  0  0  0  0
  186.0780  178.2500  144.6670 C   0  0  0  0  0  3  0  0  0  0  0  0
  187.0210  177.4310  145.1330 C   0  0  0  0  0  3  0  0  0  0  0  0
  185.3040  177.8810  143.4490 C   0  0  0  0  0  2  0  0  0  0  0  0
  184.7740  179.1310  142.7600 C   0  0  0  0  0  2  0  0  0  0  0  0
  183.5350  178.8390  142.0410 N   0  0  0  0  0  0  0  0  0  0  0  0
  182.2610  178.9090  142.6870 C   0  0  0  0  0  3  0  0  0  0  0  0
  182.1670  179.2250  143.9010 O   0  0  0  0  0  0  0  0  0  0  0  0
  183.6110  178.4160  140.3630 S   0  0  0  0  0  0  0  0  0  0  0  0
  184.9560  178.7890  139.8000 O   0  0  0  0  0  0  0  0  0  0  0  0
  183.4190  176.9290  140.2200 O   0  0  0  0  0  0  0  0  0  0  0  0
  182.5740  180.5950  139.0720 C   0  0  0  0  0  3  0  0  0  0  0  0
  181.1750  178.6160  139.1180 C   0  0  0  0  0  3  0  0  0  0  0  0
  181.5880  181.2740  138.3470 C   0  0  0  0  0  3  0  0  0  0  0  0
  182.3690  179.2650  139.4600 C   0  0  0  0  0  0  0  0  0  0  0  0
  180.3960  180.6230  138.0060 C   0  0  0  0  0  3  0  0  0  0  0  0
  180.1890  179.2940  138.3920 C   0  0  0  0  0  3  0  0  0  0  0  0
  1  5  1  6  0  0  0
  1  2  1  0  0  0  0
  1 25  1  0  0  0  0
  2  4  1  0  0  0  0
  3  2  2  0  0  0  0
  6  5  1  0  0  0  0
  7  8  1  0  0  0  0
  7 11  1  0  0  0  0
  8 11  1  0  0  0  0
  9  7  1  0  0  0  0
 10  9  2  0  0  0  0
 11  6  1  1  0  0  0
 12 15  1  0  0  0  0
 12  9  1  0  0  0  0
 13 14  1  0  0  0  0
 14 15  2  0  0  0  0
 16 13  2  0  0  0  0
 16 17  1  0  0  0  0
 17 12  2  0  0  0  0
 18 19  1  0  0  0  0
 18 17  1  0  0  0  0
 19 20  1  0  0  0  0
 20 21  1  0  0  0  0
 22 24  1  0  0  0  0
 23 22  2  0  0  0  0
 24 21  1  0  0  0  0
 25 28  1  0  0  0  0
 28 27  1  0  0  0  0
 28 26  1  0  0  0  0
 29 30  2  0  0  0  0
 30 28  1  0  0  0  0
 31 29  1  0  0  0  0
 32 31  1  0  0  0  0
 33 34  1  0  0  0  0
 33 32  1  0  0  0  0
 34 35  2  0  0  0  0
 36 33  1  0  0  0  0
 37 36  2  0  0  0  0
 38 36  2  0  0  0  0
 39 42  1  0  0  0  0
 40 42  2  0  0  0  0
 41 39  2  0  0  0  0
 42 36  1  0  0  0  0
 43 41  1  0  0  0  0
 43 44  2  0  0  0  0
 44 40  1  0  0  0  0
M  END
>  <MODEL>
4

>  <REMARK>
 VINA RESULT:      -7.0      2.725      6.871
  Name = 
  18 active torsions:
  status: ('A' for Active; 'I' for Inactive)
    1  A    between atoms: C_1  and  C_30
    2  A    between atoms: S_3  and  N_10
    3  A    between atoms: S_3  and  C_22
    4  A    between atoms: N_5  and  N_17
    5  A    between atoms: N_5  and  C_19
    6  A    between atoms: N_10  and  C_20
    7  A    between atoms: C_16  and  C_20
    8  A    between atoms: C_16  and  C_34
    9  A    between atoms: C_18  and  C_28
   10  A    between atoms: C_19  and  C_25
   11  A    between atoms: C_25  and  S_37
   12  A    between atoms: C_26  and  S_37
   13  A    between atoms: C_28  and  C_31
   14  A    between atoms: C_28  and  C_43
   15  A    between atoms: C_31  and  C_35
   16  A    between atoms: C_32  and  C_38
   17  A    between atoms: C_32  and  C_43
   18  A    between atoms: C_35  and  C_39
                            x       y       z     vdW  Elec       q    Type
                         _______ _______ _______ _____ _____    ______ ____

>  <TORSDO>
F 18

$$$$
=
 OpenBabel11062415473D

 44 46  0  0  1  0  0  0  0  0999 V2000
  187.5830  177.8780  145.0590 C   0  0  2  0  0  3  0  0  0  0  0  0
  186.7470  177.9480  146.2990 C   0  0  0  0  0  0  0  0  0  0  0  0
  185.4950  177.8370  146.2400 O   0  0  0  0  0  0  0  0  0  0  0  0
  187.3730  178.1530  147.5590 N   0  0  0  0  0  1  0  0  0  0  0  0
  186.7320  177.6870  143.7980 C   0  0  0  0  0  2  0  0  0  0  0  0
  185.6240  178.7190  143.5940 C   0  0  0  0  0  2  0  0  0  0  0  0
  184.7760  178.6410  141.3100 N   0  0  0  0  0  0  0  0  0  0  0  0
  186.2680  178.5640  141.2910 C   0  0  0  0  0  2  0  0  0  0  0  0
  183.4860  178.2560  140.8290 C   0  0  0  0  0  0  0  0  0  0  0  0
  183.4220  177.5250  139.8060 O   0  0  0  0  0  0  0  0  0  0  0  0
  185.6840  179.3830  142.2330 C   0  0  2  0  0  3  0  0  0  0  0  0
  182.2570  178.7210  141.5330 C   0  0  0  0  0  0  0  0  0  0  0  0
  180.0000  179.5410  143.0110 C   0  0  0  0  0  3  0  0  0  0  0  0
  181.0250  178.8380  143.6390 C   0  0  0  0  0  3  0  0  0  0  0  0
  182.1410  178.4320  142.9050 C   0  0  0  0  0  3  0  0  0  0  0  0
  180.0880  179.8370  141.6510 C   0  0  0  0  0  3  0  0  0  0  0  0
  181.2020  179.4400  140.9020 C   0  0  0  0  0  0  0  0  0  0  0  0
  181.1930  179.8620  139.1500 S   0  0  0  0  0  0  0  0  0  0  0  0
  179.7150  180.9090  139.3090 C   0  0  0  0  0  2  0  0  0  0  0  0
  180.0000  182.3010  138.7780 C   0  0  0  0  0  2  0  0  0  0  0  0
  181.3110  182.3100  138.1510 N   0  0  0  0  0  2  0  0  0  0  0  0
  180.3440  183.5300  136.2490 C   0  0  0  0  0  3  0  0  0  0  0  0
  180.4130  184.5000  135.4020 N   0  0  0  0  0  2  0  0  0  0  0  0
  181.3450  183.3870  137.2530 N   0  0  0  0  0  2  0  0  0  0  0  0
  188.7670  176.9090  145.2240 C   0  0  0  0  0  2  0  0  0  0  0  0
  190.1740  178.8110  144.3440 C   0  0  0  0  0  1  0  0  0  0  0  0
  191.2200  176.8100  145.3300 C   0  0  0  0  0  1  0  0  0  0  0  0
  190.0540  177.3000  144.4900 C   0  0  0  0  0  0  0  0  0  0  0  0
  190.1730  177.3060  142.0020 C   0  0  0  0  0  3  0  0  0  0  0  0
  190.0930  176.6280  143.1470 C   0  0  0  0  0  3  0  0  0  0  0  0
  190.2500  176.5750  140.7050 C   0  0  0  0  0  2  0  0  0  0  0  0
  190.7420  177.5030  139.6040 C   0  0  0  0  0  2  0  0  0  0  0  0
  191.4070  176.7430  138.5470 N   0  0  0  0  0  0  0  0  0  0  0  0
  192.8280  176.5810  138.5230 C   0  0  0  0  0  3  0  0  0  0  0  0
  193.5530  177.0910  139.4160 O   0  0  0  0  0  0  0  0  0  0  0  0
  190.4500  176.0080  137.3050 S   0  0  0  0  0  0  0  0  0  0  0  0
  191.1620  176.1040  135.9830 O   0  0  0  0  0  0  0  0  0  0  0  0
  190.2390  174.5550  137.6400 O   0  0  0  0  0  0  0  0  0  0  0  0
  188.8310  178.1140  136.6430 C   0  0  0  0  0  3  0  0  0  0  0  0
  187.7240  176.1670  137.5700 C   0  0  0  0  0  3  0  0  0  0  0  0
  187.5950  178.7590  136.5260 C   0  0  0  0  0  3  0  0  0  0  0  0
  188.8980  176.8160  137.1660 C   0  0  0  0  0  0  0  0  0  0  0  0
  186.4230  178.1080  136.9290 C   0  0  0  0  0  3  0  0  0  0  0  0
  186.4870  176.8110  137.4510 C   0  0  0  0  0  3  0  0  0  0  0  0
  1  5  1  6  0  0  0
  1 25  1  0  0  0  0
  1  2  1  0  0  0  0
  2  4  1  0  0  0  0
  3  2  2  0  0  0  0
  6  5  1  0  0  0  0
  7 11  1  0  0  0  0
  8  7  1  0  0  0  0
  8 11  1  0  0  0  0
  9  7  1  0  0  0  0
  9 12  1  0  0  0  0
 10  9  2  0  0  0  0
 11  6  1  1  0  0  0
 12 15  1  0  0  0  0
 13 14  1  0  0  0  0
 15 14  2  0  0  0  0
 16 13  2  0  0  0  0
 17 12  2  0  0  0  0
 17 16  1  0  0  0  0
 18 19  1  0  0  0  0
 18 17  1  0  0  0  0
 20 19  1  0  0  0  0
 21 20  1  0  0  0  0
 22 24  1  0  0  0  0
 23 22  2  0  0  0  0
 24 21  1  0  0  0  0
 26 28  1  0  0  0  0
 28 25  1  0  0  0  0
 28 27  1  0  0  0  0
 29 30  2  0  0  0  0
 30 28  1  0  0  0  0
 31 29  1  0  0  0  0
 32 31  1  0  0  0  0
 33 32  1  0  0  0  0
 34 33  1  0  0  0  0
 34 35  2  0  0  0  0
 36 38  2  0  0  0  0
 36 33  1  0  0  0  0
 37 36  2  0  0  0  0
 39 42  1  0  0  0  0
 41 39  2  0  0  0  0
 41 43  1  0  0  0  0
 42 36  1  0  0  0  0
 42 40  2  0  0  0  0
 43 44  2  0  0  0  0
 44 40  1  0  0  0  0
M  END
>  <MODEL>
5

>  <REMARK>
 VINA RESULT:      -6.9      2.129      3.352
  Name = 
  18 active torsions:
  status: ('A' for Active; 'I' for Inactive)
    1  A    between atoms: C_1  and  C_30
    2  A    between atoms: S_3  and  N_10
    3  A    between atoms: S_3  and  C_22
    4  A    between atoms: N_5  and  N_17
    5  A    between atoms: N_5  and  C_19
    6  A    between atoms: N_10  and  C_20
    7  A    between atoms: C_16  and  C_20
    8  A    between atoms: C_16  and  C_34
    9  A    between atoms: C_18  and  C_28
   10  A    between atoms: C_19  and  C_25
   11  A    between atoms: C_25  and  S_37
   12  A    between atoms: C_26  and  S_37
   13  A    between atoms: C_28  and  C_31
   14  A    between atoms: C_28  and  C_43
   15  A    between atoms: C_31  and  C_35
   16  A    between atoms: C_32  and  C_38
   17  A    between atoms: C_32  and  C_43
   18  A    between atoms: C_35  and  C_39
                            x       y       z     vdW  Elec       q    Type
                         _______ _______ _______ _____ _____    ______ ____

>  <TORSDO>
F 18

$$$$
=
 OpenBabel11062415473D

 44 46  0  0  1  0  0  0  0  0999 V2000
  188.0820  177.6230  146.9990 C   0  0  2  0  0  3  0  0  0  0  0  0
  188.3400  178.0090  148.4220 C   0  0  0  0  0  0  0  0  0  0  0  0
  187.4900  177.7740  149.3190 O   0  0  0  0  0  0  0  0  0  0  0  0
  189.5580  178.6600  148.7650 N   0  0  0  0  0  1  0  0  0  0  0  0
  189.3660  177.2010  146.2730 C   0  0  0  0  0  2  0  0  0  0  0  0
  190.1800  178.3430  145.6680 C   0  0  0  0  0  2  0  0  0  0  0  0
  191.0380  176.6750  144.1100 N   0  0  0  0  0  0  0  0  0  0  0  0
  191.8200  176.6190  145.3830 C   0  0  0  0  0  2  0  0  0  0  0  0
  190.3960  176.0530  142.9960 C   0  0  0  0  0  0  0  0  0  0  0  0
  190.5450  174.8130  142.8330 O   0  0  0  0  0  0  0  0  0  0  0  0
  191.4160  177.8590  144.9370 C   0  0  2  0  0  3  0  0  0  0  0  0
  189.5740  176.8670  142.0560 C   0  0  0  0  0  0  0  0  0  0  0  0
  187.8930  178.4050  140.3940 C   0  0  0  0  0  3  0  0  0  0  0  0
  187.4090  177.9010  141.5990 C   0  0  0  0  0  3  0  0  0  0  0  0
  188.2430  177.1400  142.4200 C   0  0  0  0  0  3  0  0  0  0  0  0
  189.2080  178.1470  140.0080 C   0  0  0  0  0  3  0  0  0  0  0  0
  190.0580  177.3880  140.8220 C   0  0  0  0  0  0  0  0  0  0  0  0
  191.7280  177.1050  140.2070 S   0  0  0  0  0  0  0  0  0  0  0  0
  191.1410  176.2340  138.7230 C   0  0  0  0  0  2  0  0  0  0  0  0
  192.1600  176.3580  137.6060 C   0  0  0  0  0  2  0  0  0  0  0  0
  193.4670  176.6260  138.1830 N   0  0  0  0  0  2  0  0  0  0  0  0
  194.9120  175.2260  136.7720 C   0  0  0  0  0  3  0  0  0  0  0  0
  195.5940  174.1430  136.6110 N   0  0  0  0  0  2  0  0  0  0  0  0
  194.2510  175.4760  138.0100 N   0  0  0  0  0  2  0  0  0  0  0  0
  187.2120  178.6640  146.2740 C   0  0  0  0  0  2  0  0  0  0  0  0
  185.7340  176.6880  145.7400 C   0  0  0  0  0  1  0  0  0  0  0  0
  184.8710  178.6090  147.0190 C   0  0  0  0  0  1  0  0  0  0  0  0
  185.8020  178.2020  145.8910 C   0  0  0  0  0  0  0  0  0  0  0  0
  184.7190  178.2550  143.6480 C   0  0  0  0  0  3  0  0  0  0  0  0
  185.3730  178.8860  144.6240 C   0  0  0  0  0  3  0  0  0  0  0  0
  184.2870  179.0040  142.4340 C   0  0  0  0  0  2  0  0  0  0  0  0
  183.6280  178.0610  141.4380 C   0  0  0  0  0  2  0  0  0  0  0  0
  182.7200  178.7910  140.5570 N   0  0  0  0  0  0  0  0  0  0  0  0
  181.3600  179.0410  140.9250 C   0  0  0  0  0  3  0  0  0  0  0  0
  180.9020  178.6360  142.0240 O   0  0  0  0  0  0  0  0  0  0  0  0
  183.3090  179.3850  139.0400 S   0  0  0  0  0  0  0  0  0  0  0  0
  182.3010  180.3200  138.4280 O   0  0  0  0  0  0  0  0  0  0  0  0
  184.5940  180.1350  139.2690 O   0  0  0  0  0  0  0  0  0  0  0  0
  182.5220  177.5310  137.1850 C   0  0  0  0  0  3  0  0  0  0  0  0
  184.8730  177.5190  137.7750 C   0  0  0  0  0  3  0  0  0  0  0  0
  182.7420  176.4760  136.2930 C   0  0  0  0  0  3  0  0  0  0  0  0
  183.5870  178.0550  137.9280 C   0  0  0  0  0  0  0  0  0  0  0  0
  184.0280  175.9420  136.1410 C   0  0  0  0  0  3  0  0  0  0  0  0
  185.0930  176.4640  136.8830 C   0  0  0  0  0  3  0  0  0  0  0  0
  1  5  1  6  0  0  0
  1  2  1  0  0  0  0
  2  4  1  0  0  0  0
  2  3  2  0  0  0  0
  6  5  1  0  0  0  0
  7 11  1  0  0  0  0
  7  8  1  0  0  0  0
  9  7  1  0  0  0  0
 10  9  2  0  0  0  0
 11  8  1  0  0  0  0
 11  6  1  1  0  0  0
 12 15  1  0  0  0  0
 12  9  1  0  0  0  0
 13 14  1  0  0  0  0
 14 15  2  0  0  0  0
 16 13  2  0  0  0  0
 16 17  1  0  0  0  0
 17 12  2  0  0  0  0
 18 17  1  0  0  0  0
 19 18  1  0  0  0  0
 20 21  1  0  0  0  0
 20 19  1  0  0  0  0
 22 24  1  0  0  0  0
 23 22  2  0  0  0  0
 24 21  1  0  0  0  0
 25  1  1  0  0  0  0
 26 28  1  0  0  0  0
 28 25  1  0  0  0  0
 28 27  1  0  0  0  0
 29 30  2  0  0  0  0
 30 28  1  0  0  0  0
 31 29  1  0  0  0  0
 32 31  1  0  0  0  0
 33 34  1  0  0  0  0
 33 32  1  0  0  0  0
 34 35  2  0  0  0  0
 36 38  2  0  0  0  0
 36 33  1  0  0  0  0
 37 36  2  0  0  0  0
 39 42  1  0  0  0  0
 40 42  2  0  0  0  0
 41 39  2  0  0  0  0
 42 36  1  0  0  0  0
 43 41  1  0  0  0  0
 43 44  2  0  0  0  0
 44 40  1  0  0  0  0
M  END
>  <MODEL>
6

>  <REMARK>
 VINA RESULT:      -6.8      2.953      7.594
  Name = 
  18 active torsions:
  status: ('A' for Active; 'I' for Inactive)
    1  A    between atoms: C_1  and  C_30
    2  A    between atoms: S_3  and  N_10
    3  A    between atoms: S_3  and  C_22
    4  A    between atoms: N_5  and  N_17
    5  A    between atoms: N_5  and  C_19
    6  A    between atoms: N_10  and  C_20
    7  A    between atoms: C_16  and  C_20
    8  A    between atoms: C_16  and  C_34
    9  A    between atoms: C_18  and  C_28
   10  A    between atoms: C_19  and  C_25
   11  A    between atoms: C_25  and  S_37
   12  A    between atoms: C_26  and  S_37
   13  A    between atoms: C_28  and  C_31
   14  A    between atoms: C_28  and  C_43
   15  A    between atoms: C_31  and  C_35
   16  A    between atoms: C_32  and  C_38
   17  A    between atoms: C_32  and  C_43
   18  A    between atoms: C_35  and  C_39
                            x       y       z     vdW  Elec       q    Type
                         _______ _______ _______ _____ _____    ______ ____

>  <TORSDO>
F 18

$$$$
=
 OpenBabel11062415473D

 44 46  0  0  1  0  0  0  0  0999 V2000
  188.1730  177.5110  147.1890 C   0  0  2  0  0  3  0  0  0  0  0  0
  188.3230  177.8990  148.6270 C   0  0  0  0  0  0  0  0  0  0  0  0
  187.4530  177.5760  149.4780 O   0  0  0  0  0  0  0  0  0  0  0  0
  189.4600  178.6490  149.0380 N   0  0  0  0  0  1  0  0  0  0  0  0
  189.5210  177.1850  146.5340 C   0  0  0  0  0  2  0  0  0  0  0  0
  190.0710  178.2610  145.6010 C   0  0  0  0  0  2  0  0  0  0  0  0
  190.9810  176.6830  143.9800 N   0  0  0  0  0  0  0  0  0  0  0  0
  191.7300  176.5640  145.2680 C   0  0  0  0  0  2  0  0  0  0  0  0
  190.3720  176.1170  142.8180 C   0  0  0  0  0  0  0  0  0  0  0  0
  190.5340  174.8880  142.5950 O   0  0  0  0  0  0  0  0  0  0  0  0
  191.3290  177.8240  144.8780 C   0  0  2  0  0  3  0  0  0  0  0  0
  189.5690  176.9760  141.9020 C   0  0  0  0  0  0  0  0  0  0  0  0
  187.9260  178.6010  140.2870 C   0  0  0  0  0  3  0  0  0  0  0  0
  187.4450  178.1120  141.4990 C   0  0  0  0  0  3  0  0  0  0  0  0
  188.2610  177.3070  142.2960 C   0  0  0  0  0  3  0  0  0  0  0  0
  189.2190  178.2860  139.8700 C   0  0  0  0  0  3  0  0  0  0  0  0
  190.0500  177.4820  140.6600 C   0  0  0  0  0  0  0  0  0  0  0  0
  191.6910  177.1260  140.0070 S   0  0  0  0  0  0  0  0  0  0  0  0
  191.0410  176.5770  138.4000 C   0  0  0  0  0  2  0  0  0  0  0  0
  192.1830  176.2570  137.4550 C   0  0  0  0  0  2  0  0  0  0  0  0
  193.4280  176.7300  138.0380 N   0  0  0  0  0  2  0  0  0  0  0  0
  194.4610  174.5020  137.9210 C   0  0  0  0  0  3  0  0  0  0  0  0
  195.4360  173.7500  137.5360 N   0  0  0  0  0  2  0  0  0  0  0  0
  194.4550  175.8880  137.5870 N   0  0  0  0  0  2  0  0  0  0  0  0
  187.2750  178.4970  146.4230 C   0  0  0  0  0  2  0  0  0  0  0  0
  186.0130  176.3950  145.8230 C   0  0  0  0  0  1  0  0  0  0  0  0
  184.8540  178.3320  146.8090 C   0  0  0  0  0  1  0  0  0  0  0  0
  185.9700  177.9160  145.8670 C   0  0  0  0  0  0  0  0  0  0  0  0
  184.4750  178.6980  144.0350 C   0  0  0  0  0  3  0  0  0  0  0  0
  185.7050  178.4850  144.5020 C   0  0  0  0  0  3  0  0  0  0  0  0
  184.2830  179.3040  142.6870 C   0  0  0  0  0  2  0  0  0  0  0  0
  183.7890  178.2550  141.7010 C   0  0  0  0  0  2  0  0  0  0  0  0
  182.7880  178.8230  140.8010 N   0  0  0  0  0  0  0  0  0  0  0  0
  181.4340  179.0220  141.2170 C   0  0  0  0  0  3  0  0  0  0  0  0
  181.0610  178.7110  142.3770 O   0  0  0  0  0  0  0  0  0  0  0  0
  183.2570  179.2820  139.1980 S   0  0  0  0  0  0  0  0  0  0  0  0
  184.5160  180.1050  139.2460 O   0  0  0  0  0  0  0  0  0  0  0  0
  183.5170  178.0410  138.3850 O   0  0  0  0  0  0  0  0  0  0  0  0
  181.0550  179.6150  137.6050 C   0  0  0  0  0  3  0  0  0  0  0  0
  181.9140  181.6160  138.6700 C   0  0  0  0  0  3  0  0  0  0  0  0
  180.0430  180.3710  137.0040 C   0  0  0  0  0  3  0  0  0  0  0  0
  181.9930  180.2360  138.4390 C   0  0  0  0  0  0  0  0  0  0  0  0
  179.9650  181.7500  137.2370 C   0  0  0  0  0  3  0  0  0  0  0  0
  180.9010  182.3720  138.0700 C   0  0  0  0  0  3  0  0  0  0  0  0
  1 25  1  6  0  0  0
  1  2  1  0  0  0  0
  2  4  1  0  0  0  0
  2  3  2  0  0  0  0
  5  1  1  0  0  0  0
  6  5  1  0  0  0  0
  7 11  1  0  0  0  0
  7  8  1  0  0  0  0
  9  7  1  0  0  0  0
 10  9  2  0  0  0  0
 11  8  1  0  0  0  0
 11  6  1  1  0  0  0
 12 15  1  0  0  0  0
 12  9  1  0  0  0  0
 13 14  1  0  0  0  0
 14 15  2  0  0  0  0
 16 13  2  0  0  0  0
 16 17  1  0  0  0  0
 17 12  2  0  0  0  0
 18 17  1  0  0  0  0
 19 18  1  0  0  0  0
 20 21  1  0  0  0  0
 20 19  1  0  0  0  0
 23 22  2  0  0  0  0
 24 22  1  0  0  0  0
 24 21  1  0  0  0  0
 26 28  1  0  0  0  0
 28 25  1  0  0  0  0
 28 27  1  0  0  0  0
 29 30  2  0  0  0  0
 30 28  1  0  0  0  0
 31 29  1  0  0  0  0
 32 31  1  0  0  0  0
 33 34  1  0  0  0  0
 33 32  1  0  0  0  0
 34 35  2  0  0  0  0
 36 37  2  0  0  0  0
 36 33  1  0  0  0  0
 38 36  2  0  0  0  0
 39 42  1  0  0  0  0
 41 43  1  0  0  0  0
 41 39  2  0  0  0  0
 42 40  2  0  0  0  0
 42 36  1  0  0  0  0
 43 44  2  0  0  0  0
 44 40  1  0  0  0  0
M  END
>  <MODEL>
7

>  <REMARK>
 VINA RESULT:      -6.7      3.310      7.980
  Name = 
  18 active torsions:
  status: ('A' for Active; 'I' for Inactive)
    1  A    between atoms: C_1  and  C_30
    2  A    between atoms: S_3  and  N_10
    3  A    between atoms: S_3  and  C_22
    4  A    between atoms: N_5  and  N_17
    5  A    between atoms: N_5  and  C_19
    6  A    between atoms: N_10  and  C_20
    7  A    between atoms: C_16  and  C_20
    8  A    between atoms: C_16  and  C_34
    9  A    between atoms: C_18  and  C_28
   10  A    between atoms: C_19  and  C_25
   11  A    between atoms: C_25  and  S_37
   12  A    between atoms: C_26  and  S_37
   13  A    between atoms: C_28  and  C_31
   14  A    between atoms: C_28  and  C_43
   15  A    between atoms: C_31  and  C_35
   16  A    between atoms: C_32  and  C_38
   17  A    between atoms: C_32  and  C_43
   18  A    between atoms: C_35  and  C_39
                            x       y       z     vdW  Elec       q    Type
                         _______ _______ _______ _____ _____    ______ ____

>  <TORSDO>
F 18

$$$$
=
 OpenBabel11062415473D

 44 46  0  0  1  0  0  0  0  0999 V2000
  182.4050  179.1040  142.1440 C   0  0  2  0  0  3  0  0  0  0  0  0
  180.9220  179.1900  142.3300 C   0  0  0  0  0  0  0  0  0  0  0  0
  180.2170  178.1500  142.3910 O   0  0  0  0  0  0  0  0  0  0  0  0
  180.2990  180.4650  142.4280 N   0  0  0  0  0  1  0  0  0  0  0  0
  182.7880  178.7650  140.6980 C   0  0  0  0  0  2  0  0  0  0  0  0
  183.0340  177.2840  140.4170 C   0  0  0  0  0  2  0  0  0  0  0  0
  182.2390  176.7430  138.1760 N   0  0  0  0  0  0  0  0  0  0  0  0
  181.2140  177.5680  138.8850 C   0  0  0  0  0  2  0  0  0  0  0  0
  182.9790  176.3790  137.0100 C   0  0  0  0  0  0  0  0  0  0  0  0
  182.6530  176.8950  135.9080 O   0  0  0  0  0  0  0  0  0  0  0  0
  181.9110  176.6410  139.6290 C   0  0  2  0  0  3  0  0  0  0  0  0
  184.1060  175.4090  137.1110 C   0  0  0  0  0  0  0  0  0  0  0  0
  186.1230  173.4510  137.3310 C   0  0  0  0  0  3  0  0  0  0  0  0
  184.7920  173.1100  137.5640 C   0  0  0  0  0  3  0  0  0  0  0  0
  183.7960  174.0820  137.4550 C   0  0  0  0  0  3  0  0  0  0  0  0
  186.4580  174.7610  136.9910 C   0  0  0  0  0  3  0  0  0  0  0  0
  185.4700  175.7460  136.8750 C   0  0  0  0  0  0  0  0  0  0  0  0
  186.0270  177.4060  136.4510 S   0  0  0  0  0  0  0  0  0  0  0  0
  187.3750  177.3730  137.6720 C   0  0  0  0  0  2  0  0  0  0  0  0
  188.5550  178.1830  137.1710 C   0  0  0  0  0  2  0  0  0  0  0  0
  189.4590  177.3050  136.4460 N   0  0  0  0  0  2  0  0  0  0  0  0
  190.6390  175.1880  136.8550 C   0  0  0  0  0  3  0  0  0  0  0  0
  190.8170  174.1390  137.5850 N   0  0  0  0  0  2  0  0  0  0  0  0
  189.6990  176.1830  137.2520 N   0  0  0  0  0  2  0  0  0  0  0  0
  183.0680  178.2430  143.2330 C   0  0  0  0  0  2  0  0  0  0  0  0
  184.5390  180.2370  143.7150 C   0  0  0  0  0  1  0  0  0  0  0  0
  184.6230  178.2260  145.1360 C   0  0  0  0  0  1  0  0  0  0  0  0
  184.4450  178.7170  143.7100 C   0  0  0  0  0  0  0  0  0  0  0  0
  186.6400  178.7610  142.5330 C   0  0  0  0  0  3  0  0  0  0  0  0
  185.5140  178.1170  142.8420 C   0  0  0  0  0  3  0  0  0  0  0  0
  187.6780  178.0920  141.7000 C   0  0  0  0  0  2  0  0  0  0  0  0
  188.4270  177.0530  142.5230 C   0  0  0  0  0  2  0  0  0  0  0  0
  189.8660  177.3070  142.4900 N   0  0  0  0  0  0  0  0  0  0  0  0
  190.6640  176.9370  141.3620 C   0  0  0  0  0  3  0  0  0  0  0  0
  190.1500  176.3790  140.3590 O   0  0  0  0  0  0  0  0  0  0  0  0
  190.6180  178.0890  143.8400 S   0  0  0  0  0  0  0  0  0  0  0  0
  192.0550  177.6570  143.9480 O   0  0  0  0  0  0  0  0  0  0  0  0
  190.5710  179.5800  143.6340 O   0  0  0  0  0  0  0  0  0  0  0  0
  188.4140  177.8880  145.4510 C   0  0  0  0  0  3  0  0  0  0  0  0
  190.5030  177.1070  146.3990 C   0  0  0  0  0  3  0  0  0  0  0  0
  187.7500  177.5480  146.6350 C   0  0  0  0  0  3  0  0  0  0  0  0
  189.7910  177.6680  145.3300 C   0  0  0  0  0  0  0  0  0  0  0  0
  188.4640  176.9860  147.7010 C   0  0  0  0  0  3  0  0  0  0  0  0
  189.8400  176.7650  147.5830 C   0  0  0  0  0  3  0  0  0  0  0  0
  1  5  1  6  0  0  0
  1  2  1  0  0  0  0
  1 25  1  0  0  0  0
  2  3  2  0  0  0  0
  2  4  1  0  0  0  0
  6  5  1  0  0  0  0
  7  8  1  0  0  0  0
  7 11  1  0  0  0  0
  8 11  1  0  0  0  0
  9 12  1  0  0  0  0
  9  7  1  0  0  0  0
 10  9  2  0  0  0  0
 11  6  1  1  0  0  0
 12 15  1  0  0  0  0
 13 14  1  0  0  0  0
 15 14  2  0  0  0  0
 16 13  2  0  0  0  0
 17 16  1  0  0  0  0
 17 12  2  0  0  0  0
 18 17  1  0  0  0  0
 18 19  1  0  0  0  0
 20 19  1  0  0  0  0
 21 20  1  0  0  0  0
 21 24  1  0  0  0  0
 22 24  1  0  0  0  0
 22 23  2  0  0  0  0
 25 28  1  0  0  0  0
 28 26  1  0  0  0  0
 28 27  1  0  0  0  0
 29 30  2  0  0  0  0
 30 28  1  0  0  0  0
 31 32  1  0  0  0  0
 31 29  1  0  0  0  0
 33 32  1  0  0  0  0
 33 36  1  0  0  0  0
 34 33  1  0  0  0  0
 35 34  2  0  0  0  0
 36 37  2  0  0  0  0
 36 42  1  0  0  0  0
 38 36  2  0  0  0  0
 39 41  1  0  0  0  0
 40 44  2  0  0  0  0
 41 43  2  0  0  0  0
 42 39  2  0  0  0  0
 42 40  1  0  0  0  0
 44 43  1  0  0  0  0
M  END
>  <MODEL>
8

>  <REMARK>
 VINA RESULT:      -6.7      2.901      8.305
  Name = 
  18 active torsions:
  status: ('A' for Active; 'I' for Inactive)
    1  A    between atoms: C_1  and  C_30
    2  A    between atoms: S_3  and  N_10
    3  A    between atoms: S_3  and  C_22
    4  A    between atoms: N_5  and  N_17
    5  A    between atoms: N_5  and  C_19
    6  A    between atoms: N_10  and  C_20
    7  A    between atoms: C_16  and  C_20
    8  A    between atoms: C_16  and  C_34
    9  A    between atoms: C_18  and  C_28
   10  A    between atoms: C_19  and  C_25
   11  A    between atoms: C_25  and  S_37
   12  A    between atoms: C_26  and  S_37
   13  A    between atoms: C_28  and  C_31
   14  A    between atoms: C_28  and  C_43
   15  A    between atoms: C_31  and  C_35
   16  A    between atoms: C_32  and  C_38
   17  A    between atoms: C_32  and  C_43
   18  A    between atoms: C_35  and  C_39
                            x       y       z     vdW  Elec       q    Type
                         _______ _______ _______ _____ _____    ______ ____

>  <TORSDO>
F 18

$$$$
=
 OpenBabel11062415473D

 44 46  0  0  1  0  0  0  0  0999 V2000
  188.1440  177.5260  146.9850 C   0  0  2  0  0  3  0  0  0  0  0  0
  188.4360  177.8380  148.4190 C   0  0  0  0  0  0  0  0  0  0  0  0
  187.5840  177.6060  149.3170 O   0  0  0  0  0  0  0  0  0  0  0  0
  189.6880  178.4110  148.7740 N   0  0  0  0  0  1  0  0  0  0  0  0
  189.4100  177.1520  146.2050 C   0  0  0  0  0  2  0  0  0  0  0  0
  190.0740  178.2990  145.4460 C   0  0  0  0  0  2  0  0  0  0  0  0
  190.8530  176.6960  143.7830 N   0  0  0  0  0  0  0  0  0  0  0  0
  191.7030  176.5970  145.0090 C   0  0  0  0  0  2  0  0  0  0  0  0
  190.1540  176.1120  142.6830 C   0  0  0  0  0  0  0  0  0  0  0  0
  190.2990  174.8800  142.4660 O   0  0  0  0  0  0  0  0  0  0  0  0
  191.2700  177.8510  144.6320 C   0  0  2  0  0  3  0  0  0  0  0  0
  189.2800  176.9560  141.8190 C   0  0  0  0  0  0  0  0  0  0  0  0
  187.5320  178.5900  140.3260 C   0  0  0  0  0  3  0  0  0  0  0  0
  187.2750  178.3440  141.6740 C   0  0  0  0  0  3  0  0  0  0  0  0
  188.1420  177.5340  142.4100 C   0  0  0  0  0  3  0  0  0  0  0  0
  188.6520  178.0270  139.7150 C   0  0  0  0  0  3  0  0  0  0  0  0
  189.5320  177.2150  140.4420 C   0  0  0  0  0  0  0  0  0  0  0  0
  190.9320  176.5280  139.5390 S   0  0  0  0  0  0  0  0  0  0  0  0
  190.3300  177.1460  137.9380 C   0  0  0  0  0  2  0  0  0  0  0  0
  190.1420  175.9930  136.9710 C   0  0  0  0  0  2  0  0  0  0  0  0
  188.9650  175.2340  137.3590 N   0  0  0  0  0  2  0  0  0  0  0  0
  188.0830  173.1710  136.3550 C   0  0  0  0  0  3  0  0  0  0  0  0
  188.2600  171.9400  136.0120 N   0  0  0  0  0  2  0  0  0  0  0  0
  189.1540  173.9110  136.9360 N   0  0  0  0  0  2  0  0  0  0  0  0
  187.2490  178.5980  146.3380 C   0  0  0  0  0  2  0  0  0  0  0  0
  185.7560  176.6210  145.8520 C   0  0  0  0  0  1  0  0  0  0  0  0
  184.8900  178.6070  147.0250 C   0  0  0  0  0  1  0  0  0  0  0  0
  185.8420  178.1390  145.9390 C   0  0  0  0  0  0  0  0  0  0  0  0
  184.3260  178.4740  143.9920 C   0  0  0  0  0  3  0  0  0  0  0  0
  185.4550  178.7740  144.6340 C   0  0  0  0  0  3  0  0  0  0  0  0
  183.9830  179.1720  142.7200 C   0  0  0  0  0  2  0  0  0  0  0  0
  183.5540  178.1640  141.6630 C   0  0  0  0  0  2  0  0  0  0  0  0
  182.7200  178.8040  140.6480 N   0  0  0  0  0  0  0  0  0  0  0  0
  181.3550  179.1440  140.9070 C   0  0  0  0  0  3  0  0  0  0  0  0
  180.8270  178.9010  142.0220 O   0  0  0  0  0  0  0  0  0  0  0  0
  183.4070  179.1750  139.1020 S   0  0  0  0  0  0  0  0  0  0  0  0
  182.3750  179.8330  138.2260 O   0  0  0  0  0  0  0  0  0  0  0  0
  184.5620  180.1230  139.2900 O   0  0  0  0  0  0  0  0  0  0  0  0
  183.2910  176.5010  138.5270 C   0  0  0  0  0  3  0  0  0  0  0  0
  185.0730  177.7470  137.4550 C   0  0  0  0  0  3  0  0  0  0  0  0
  183.7270  175.3330  137.8930 C   0  0  0  0  0  3  0  0  0  0  0  0
  183.9630  177.7110  138.3100 C   0  0  0  0  0  0  0  0  0  0  0  0
  184.8360  175.3720  137.0390 C   0  0  0  0  0  3  0  0  0  0  0  0
  185.5090  176.5790  136.8200 C   0  0  0  0  0  3  0  0  0  0  0  0
  1  5  1  6  0  0  0
  1  2  1  0  0  0  0
  2  4  1  0  0  0  0
  2  3  2  0  0  0  0
  6  5  1  0  0  0  0
  7 11  1  0  0  0  0
  7  8  1  0  0  0  0
  9  7  1  0  0  0  0
 10  9  2  0  0  0  0
 11  8  1  0  0  0  0
 11  6  1  1  0  0  0
 12 15  1  0  0  0  0
 12  9  1  0  0  0  0
 13 14  1  0  0  0  0
 14 15  2  0  0  0  0
 16 13  2  0  0  0  0
 16 17  1  0  0  0  0
 17 12  2  0  0  0  0
 18 17  1  0  0  0  0
 19 18  1  0  0  0  0
 20 21  1  0  0  0  0
 20 19  1  0  0  0  0
 22 24  1  0  0  0  0
 23 22  2  0  0  0  0
 24 21  1  0  0  0  0
 25  1  1  0  0  0  0
 26 28  1  0  0  0  0
 28 25  1  0  0  0  0
 28 27  1  0  0  0  0
 29 30  2  0  0  0  0
 30 28  1  0  0  0  0
 31 29  1  0  0  0  0
 32 31  1  0  0  0  0
 33 34  1  0  0  0  0
 33 32  1  0  0  0  0
 34 35  2  0  0  0  0
 36 38  2  0  0  0  0
 36 33  1  0  0  0  0
 37 36  2  0  0  0  0
 40 42  2  0  0  0  0
 41 39  2  0  0  0  0
 42 39  1  0  0  0  0
 42 36  1  0  0  0  0
 43 41  1  0  0  0  0
 44 43  2  0  0  0  0
 44 40  1  0  0  0  0
M  END
>  <MODEL>
9

>  <REMARK>
 VINA RESULT:      -6.7      2.746      6.768
  Name = 
  18 active torsions:
  status: ('A' for Active; 'I' for Inactive)
    1  A    between atoms: C_1  and  C_30
    2  A    between atoms: S_3  and  N_10
    3  A    between atoms: S_3  and  C_22
    4  A    between atoms: N_5  and  N_17
    5  A    between atoms: N_5  and  C_19
    6  A    between atoms: N_10  and  C_20
    7  A    between atoms: C_16  and  C_20
    8  A    between atoms: C_16  and  C_34
    9  A    between atoms: C_18  and  C_28
   10  A    between atoms: C_19  and  C_25
   11  A    between atoms: C_25  and  S_37
   12  A    between atoms: C_26  and  S_37
   13  A    between atoms: C_28  and  C_31
   14  A    between atoms: C_28  and  C_43
   15  A    between atoms: C_31  and  C_35
   16  A    between atoms: C_32  and  C_38
   17  A    between atoms: C_32  and  C_43
   18  A    between atoms: C_35  and  C_39
                            x       y       z     vdW  Elec       q    Type
                         _______ _______ _______ _____ _____    ______ ____

>  <TORSDO>
F 18

$$$$
