=
 OpenBabel11062416473D

 28 29  0  0  1  0  0  0  0  0999 V2000
  190.4190  177.6510  140.4010 C   0  0  2  0  0  3  0  0  0  0  0  0
  186.8880  178.7820  140.5430 N   0  0  0  0  0  0  0  0  0  0  0  0
  189.1520  178.2630  140.0060 N   0  0  0  0  0  0  0  0  0  0  0  0
  188.0290  178.2810  140.8990 C   0  0  0  0  0  3  0  0  0  0  0  0
  189.0420  178.7760  138.7030 C   0  0  0  0  0  0  0  0  0  0  0  0
  188.9520  179.2000  137.6300 N   0  0  0  0  0  0  0  0  0  0  0  0
  185.7560  178.8120  141.4170 C   0  0  0  0  0  0  0  0  0  0  0  0
  184.7210  179.4330  141.0610 O   0  0  0  0  0  0  0  0  0  0  0  0
  185.7660  178.1080  142.7420 C   0  0  0  0  0  2  0  0  0  0  0  0
  183.5040  178.3820  143.3790 F   0  0  0  0  0  0  0  0  0  0  0  0
  184.7930  178.7390  143.7290 C   0  0  0  0  0  0  0  0  0  0  0  0
  185.0520  178.2880  145.0110 F   0  0  0  0  0  0  0  0  0  0  0  0
  184.9010  180.1180  143.6950 F   0  0  0  0  0  0  0  0  0  0  0  0
  190.8460  176.5400  139.4480 C   0  0  0  0  0  2  0  0  0  0  0  0
  192.2280  176.7340  139.0460 N   0  0  0  0  0  1  0  0  0  0  0  0
  190.4230  177.2120  141.8710 C   0  0  0  0  0  2  0  0  0  0  0  0
  191.2440  178.1110  142.7950 C   0  0  0  0  0  2  0  0  0  0  0  0
  190.4530  178.5340  144.0250 C   0  0  0  0  0  2  0  0  0  0  0  0
  188.3930  176.9340  146.4490 C   0  0  2  0  0  3  0  0  0  0  0  0
  188.1830  178.2180  148.4900 C   0  0  0  0  0  2  0  0  0  0  0  0
  188.5950  177.3880  145.0870 N   0  0  0  0  0  2  0  0  0  0  0  0
  190.0330  177.3320  144.8600 C   0  0  2  0  0  3  0  0  0  0  0  0
  187.4900  177.9090  147.1820 C   0  0  0  0  0  2  0  0  0  0  0  0
  189.7380  176.9690  147.1370 C   0  0  2  0  0  3  0  0  0  0  0  0
  189.6560  178.0390  148.2090 C   0  0  0  0  0  2  0  0  0  0  0  0
  190.7300  177.3380  146.1430 N   0  0  0  0  0  0  0  0  0  0  0  0
  191.7080  176.2620  146.1020 C   0  0  0  0  0  2  0  0  0  0  0  0
  192.0260  175.8050  147.5110 C   0  0  0  0  0  1  0  0  0  0  0  0
  1 14  1  6  0  0  0
  1 16  1  0  0  0  0
  2  4  2  0  0  0  0
  2  7  1  0  0  0  0
  3  1  1  0  0  0  0
  3  4  1  0  0  0  0
  5  3  1  0  0  0  0
  6  5  3  0  0  0  0
  7  9  1  0  0  0  0
  8  7  2  0  0  0  0
  9 11  1  0  0  0  0
 10 11  1  0  0  0  0
 11 12  1  0  0  0  0
 13 11  1  0  0  0  0
 15 14  1  0  0  0  0
 16 17  1  0  0  0  0
 17 18  1  0  0  0  0
 19 24  1  0  0  0  0
 19 23  1  1  0  0  0
 21 19  1  0  0  0  0
 22 18  1  6  0  0  0
 22 21  1  0  0  0  0
 22 26  1  0  0  0  0
 23 20  1  0  0  0  0
 24 25  1  1  0  0  0
 25 20  1  0  0  0  0
 26 24  1  0  0  0  0
 27 26  1  0  0  0  0
 27 28  1  0  0  0  0
M  END
>  <MODEL>
1

>  <REMARK>
 VINA RESULT:      -8.0      0.000      0.000
  Name = 
  11 active torsions:
  status: ('A' for Active; 'I' for Inactive)
    1  A    between atoms: C_1  and  C_6
    2  A    between atoms: C_2  and  C_6
    3  A    between atoms: C_2  and  C_7
    4  A    between atoms: C_3  and  N_10
    5  A    between atoms: C_6  and  N_10
    6  A    between atoms: C_7  and  C_25
    7  A    between atoms: N_8  and  C_9
    8  A    between atoms: C_9  and  C_12
    9  A    between atoms: C_12  and  C_13
   10  A    between atoms: C_15  and  C_25
   11  A    between atoms: C_17  and  N_28
                            x       y       z     vdW  Elec       q    Type
                         _______ _______ _______ _____ _____    ______ ____

>  <TORSDO>
F 11

$$$$
=
 OpenBabel11062416473D

 28 29  0  0  1  0  0  0  0  0999 V2000
  190.1810  177.5580  140.2940 C   0  0  2  0  0  3  0  0  0  0  0  0
  186.7170  178.8860  140.2260 N   0  0  0  0  0  0  0  0  0  0  0  0
  188.9800  178.2510  139.8300 N   0  0  0  0  0  0  0  0  0  0  0  0
  187.8010  178.3130  140.6440 C   0  0  0  0  0  3  0  0  0  0  0  0
  188.9900  178.8000  138.5370 C   0  0  0  0  0  0  0  0  0  0  0  0
  188.9980  179.2520  137.4720 N   0  0  0  0  0  0  0  0  0  0  0  0
  185.5310  178.9610  141.0210 C   0  0  0  0  0  0  0  0  0  0  0  0
  185.5200  179.6980  142.0420 O   0  0  0  0  0  0  0  0  0  0  0  0
  184.2910  178.1960  140.6600 C   0  0  0  0  0  2  0  0  0  0  0  0
  184.1460  177.9800  138.3090 F   0  0  0  0  0  0  0  0  0  0  0  0
  183.6580  178.7120  139.3740 C   0  0  0  0  0  0  0  0  0  0  0  0
  182.2840  178.5690  139.4270 F   0  0  0  0  0  0  0  0  0  0  0  0
  183.9760  180.0460  139.1850 F   0  0  0  0  0  0  0  0  0  0  0  0
  190.5810  176.4150  139.3680 C   0  0  0  0  0  2  0  0  0  0  0  0
  191.8970  176.6680  138.8060 N   0  0  0  0  0  1  0  0  0  0  0  0
  190.0780  177.1300  141.7640 C   0  0  0  0  0  2  0  0  0  0  0  0
  190.9930  177.9060  142.7100 C   0  0  0  0  0  2  0  0  0  0  0  0
  190.2520  178.3850  143.9500 C   0  0  0  0  0  2  0  0  0  0  0  0
  188.3320  176.8790  146.5440 C   0  0  2  0  0  3  0  0  0  0  0  0
  188.1330  178.2920  148.4990 C   0  0  0  0  0  2  0  0  0  0  0  0
  188.4750  177.2450  145.1480 N   0  0  0  0  0  2  0  0  0  0  0  0
  189.9060  177.2290  144.8780 C   0  0  2  0  0  3  0  0  0  0  0  0
  187.4140  177.8670  147.2390 C   0  0  0  0  0  2  0  0  0  0  0  0
  189.6950  177.0120  147.1830 C   0  0  2  0  0  3  0  0  0  0  0  0
  189.6030  178.1500  148.1820 C   0  0  0  0  0  2  0  0  0  0  0  0
  190.6400  177.3500  146.1340 N   0  0  0  0  0  0  0  0  0  0  0  0
  191.6600  176.3120  146.1330 C   0  0  0  0  0  2  0  0  0  0  0  0
  192.0110  175.9390  147.5600 C   0  0  0  0  0  1  0  0  0  0  0  0
  1 14  1  6  0  0  0
  1 16  1  0  0  0  0
  2  4  2  0  0  0  0
  2  7  1  0  0  0  0
  3  1  1  0  0  0  0
  3  4  1  0  0  0  0
  5  3  1  0  0  0  0
  6  5  3  0  0  0  0
  7  8  2  0  0  0  0
  9  7  1  0  0  0  0
 10 11  1  0  0  0  0
 11 12  1  0  0  0  0
 11  9  1  0  0  0  0
 13 11  1  0  0  0  0
 15 14  1  0  0  0  0
 16 17  1  0  0  0  0
 17 18  1  0  0  0  0
 19 24  1  0  0  0  0
 19 23  1  1  0  0  0
 21 19  1  0  0  0  0
 22 18  1  6  0  0  0
 22 21  1  0  0  0  0
 22 26  1  0  0  0  0
 23 20  1  0  0  0  0
 24 25  1  1  0  0  0
 25 20  1  0  0  0  0
 26 24  1  0  0  0  0
 27 26  1  0  0  0  0
 27 28  1  0  0  0  0
M  END
>  <MODEL>
2

>  <REMARK>
 VINA RESULT:      -7.2      1.806      2.038
  Name = 
  11 active torsions:
  status: ('A' for Active; 'I' for Inactive)
    1  A    between atoms: C_1  and  C_6
    2  A    between atoms: C_2  and  C_6
    3  A    between atoms: C_2  and  C_7
    4  A    between atoms: C_3  and  N_10
    5  A    between atoms: C_6  and  N_10
    6  A    between atoms: C_7  and  C_25
    7  A    between atoms: N_8  and  C_9
    8  A    between atoms: C_9  and  C_12
    9  A    between atoms: C_12  and  C_13
   10  A    between atoms: C_15  and  C_25
   11  A    between atoms: C_17  and  N_28
                            x       y       z     vdW  Elec       q    Type
                         _______ _______ _______ _____ _____    ______ ____

>  <TORSDO>
F 11

$$$$
=
 OpenBabel11062416473D

 28 29  0  0  1  0  0  0  0  0999 V2000
  185.7170  178.0760  142.9660 C   0  0  2  0  0  3  0  0  0  0  0  0
  187.5040  178.6800  139.7710 N   0  0  0  0  0  0  0  0  0  0  0  0
  185.9600  178.4370  141.5700 N   0  0  0  0  0  0  0  0  0  0  0  0
  187.2680  178.3220  140.9940 C   0  0  0  0  0  3  0  0  0  0  0  0
  184.8900  178.9610  140.8260 C   0  0  0  0  0  0  0  0  0  0  0  0
  184.0100  179.3930  140.2120 N   0  0  0  0  0  0  0  0  0  0  0  0
  188.8000  178.5720  139.1750 C   0  0  0  0  0  0  0  0  0  0  0  0
  189.1360  179.3920  138.2810 O   0  0  0  0  0  0  0  0  0  0  0  0
  189.7770  177.5160  139.6020 C   0  0  0  0  0  2  0  0  0  0  0  0
  188.9440  176.1820  137.8340 F   0  0  0  0  0  0  0  0  0  0  0  0
  190.1140  176.5600  138.4640 C   0  0  0  0  0  0  0  0  0  0  0  0
  190.9380  177.1850  137.5450 F   0  0  0  0  0  0  0  0  0  0  0  0
  190.7450  175.4310  138.9560 F   0  0  0  0  0  0  0  0  0  0  0  0
  184.9940  179.1810  143.7300 C   0  0  0  0  0  2  0  0  0  0  0  0
  183.6960  178.7060  144.1790 N   0  0  0  0  0  1  0  0  0  0  0  0
  186.9890  177.5930  143.6750 C   0  0  0  0  0  2  0  0  0  0  0  0
  187.2020  178.1940  145.0640 C   0  0  0  0  0  2  0  0  0  0  0  0
  188.0680  177.3010  145.9420 C   0  0  0  0  0  2  0  0  0  0  0  0
  191.1020  178.3640  144.4110 C   0  0  2  0  0  3  0  0  0  0  0  0
  191.8560  176.8490  142.6800 C   0  0  0  0  0  2  0  0  0  0  0  0
  189.7550  178.6660  144.8540 N   0  0  0  0  0  2  0  0  0  0  0  0
  189.5080  177.7930  145.9940 C   0  0  2  0  0  3  0  0  0  0  0  0
  191.1070  178.1430  142.9100 C   0  0  0  0  0  2  0  0  0  0  0  0
  191.5030  177.0570  145.0550 C   0  0  2  0  0  3  0  0  0  0  0  0
  191.6430  176.0410  143.9380 C   0  0  0  0  0  2  0  0  0  0  0  0
  190.4310  176.6630  145.9510 N   0  0  0  0  0  0  0  0  0  0  0  0
  191.0140  176.5390  147.2790 C   0  0  0  0  0  2  0  0  0  0  0  0
  192.2610  175.6810  147.2130 C   0  0  0  0  0  1  0  0  0  0  0  0
  1 16  1  1  0  0  0
  1 14  1  0  0  0  0
  2  4  2  0  0  0  0
  3  1  1  0  0  0  0
  4  3  1  0  0  0  0
  5  3  1  0  0  0  0
  6  5  3  0  0  0  0
  7  9  1  0  0  0  0
  7  2  1  0  0  0  0
  8  7  2  0  0  0  0
 10 11  1  0  0  0  0
 11 13  1  0  0  0  0
 11  9  1  0  0  0  0
 12 11  1  0  0  0  0
 14 15  1  0  0  0  0
 16 17  1  0  0  0  0
 17 18  1  0  0  0  0
 19 23  1  6  0  0  0
 19 21  1  0  0  0  0
 19 24  1  0  0  0  0
 20 23  1  0  0  0  0
 20 25  1  0  0  0  0
 21 22  1  0  0  0  0
 22 18  1  6  0  0  0
 24 25  1  6  0  0  0
 24 26  1  0  0  0  0
 26 22  1  0  0  0  0
 26 27  1  0  0  0  0
 28 27  1  0  0  0  0
M  END
>  <MODEL>
3

>  <REMARK>
 VINA RESULT:      -7.1      3.363      5.363
  Name = 
  11 active torsions:
  status: ('A' for Active; 'I' for Inactive)
    1  A    between atoms: C_1  and  C_6
    2  A    between atoms: C_2  and  C_6
    3  A    between atoms: C_2  and  C_7
    4  A    between atoms: C_3  and  N_10
    5  A    between atoms: C_6  and  N_10
    6  A    between atoms: C_7  and  C_25
    7  A    between atoms: N_8  and  C_9
    8  A    between atoms: C_9  and  C_12
    9  A    between atoms: C_12  and  C_13
   10  A    between atoms: C_15  and  C_25
   11  A    between atoms: C_17  and  N_28
                            x       y       z     vdW  Elec       q    Type
                         _______ _______ _______ _____ _____    ______ ____

>  <TORSDO>
F 11

$$$$
=
 OpenBabel11062416473D

 28 29  0  0  1  0  0  0  0  0999 V2000
  185.6580  178.9680  142.2180 C   0  0  2  0  0  3  0  0  0  0  0  0
  185.1690  179.0480  145.8950 N   0  0  0  0  0  0  0  0  0  0  0  0
  184.9960  179.0670  143.5180 N   0  0  0  0  0  0  0  0  0  0  0  0
  185.7490  179.0050  144.7380 C   0  0  0  0  0  3  0  0  0  0  0  0
  183.5950  179.1590  143.5430 C   0  0  0  0  0  0  0  0  0  0  0  0
  182.4410  179.2340  143.5640 N   0  0  0  0  0  0  0  0  0  0  0  0
  185.9000  178.9900  147.1240 C   0  0  0  0  0  0  0  0  0  0  0  0
  185.9520  180.0130  147.8570 O   0  0  0  0  0  0  0  0  0  0  0  0
  186.5930  177.7360  147.5690 C   0  0  0  0  0  2  0  0  0  0  0  0
  188.5860  178.5540  148.5470 F   0  0  0  0  0  0  0  0  0  0  0  0
  188.1070  177.8520  147.4570 C   0  0  0  0  0  0  0  0  0  0  0  0
  188.6830  176.5940  147.4440 F   0  0  0  0  0  0  0  0  0  0  0  0
  188.4520  178.5290  146.3010 F   0  0  0  0  0  0  0  0  0  0  0  0
  184.6600  178.8870  141.0680 C   0  0  0  0  0  2  0  0  0  0  0  0
  185.3470  179.0730  139.8010 N   0  0  0  0  0  1  0  0  0  0  0  0
  186.7080  177.8500  142.1800 C   0  0  0  0  0  2  0  0  0  0  0  0
  188.1370  178.3370  141.9460 C   0  0  0  0  0  2  0  0  0  0  0  0
  188.7920  177.6300  140.7680 C   0  0  0  0  0  2  0  0  0  0  0  0
  190.8410  176.0930  143.2420 C   0  0  2  0  0  3  0  0  0  0  0  0
  191.4040  177.5960  145.0530 C   0  0  0  0  0  2  0  0  0  0  0  0
  189.6600  176.0580  142.4020 N   0  0  0  0  0  2  0  0  0  0  0  0
  190.0020  176.8150  141.2050 C   0  0  2  0  0  3  0  0  0  0  0  0
  190.4510  176.4930  144.6530 C   0  0  0  0  0  2  0  0  0  0  0  0
  191.7410  177.1810  142.7040 C   0  0  2  0  0  3  0  0  0  0  0  0
  191.7960  178.2680  143.7590 C   0  0  0  0  0  2  0  0  0  0  0  0
  191.1290  177.6970  141.4930 N   0  0  0  0  0  0  0  0  0  0  0  0
  192.0960  177.5160  140.4200 C   0  0  0  0  0  2  0  0  0  0  0  0
  191.4420  176.7900  139.2600 C   0  0  0  0  0  1  0  0  0  0  0  0
  1 14  1  6  0  0  0
  1  3  1  0  0  0  0
  2  7  1  0  0  0  0
  3  5  1  0  0  0  0
  3  4  1  0  0  0  0
  4  2  2  0  0  0  0
  5  6  3  0  0  0  0
  7  9  1  0  0  0  0
  7  8  2  0  0  0  0
 11  9  1  0  0  0  0
 11 10  1  0  0  0  0
 12 11  1  0  0  0  0
 13 11  1  0  0  0  0
 15 14  1  0  0  0  0
 16  1  1  0  0  0  0
 17 16  1  0  0  0  0
 18 17  1  0  0  0  0
 19 23  1  1  0  0  0
 21 19  1  0  0  0  0
 22 18  1  1  0  0  0
 22 26  1  0  0  0  0
 22 21  1  0  0  0  0
 23 20  1  0  0  0  0
 24 19  1  0  0  0  0
 24 25  1  1  0  0  0
 25 20  1  0  0  0  0
 26 24  1  0  0  0  0
 27 26  1  0  0  0  0
 28 27  1  0  0  0  0
M  END
>  <MODEL>
4

>  <REMARK>
 VINA RESULT:      -7.1      2.790      5.544
  Name = 
  11 active torsions:
  status: ('A' for Active; 'I' for Inactive)
    1  A    between atoms: C_1  and  C_6
    2  A    between atoms: C_2  and  C_6
    3  A    between atoms: C_2  and  C_7
    4  A    between atoms: C_3  and  N_10
    5  A    between atoms: C_6  and  N_10
    6  A    between atoms: C_7  and  C_25
    7  A    between atoms: N_8  and  C_9
    8  A    between atoms: C_9  and  C_12
    9  A    between atoms: C_12  and  C_13
   10  A    between atoms: C_15  and  C_25
   11  A    between atoms: C_17  and  N_28
                            x       y       z     vdW  Elec       q    Type
                         _______ _______ _______ _____ _____    ______ ____

>  <TORSDO>
F 11

$$$$
=
 OpenBabel11062416473D

 28 29  0  0  1  0  0  0  0  0999 V2000
  189.7780  177.1070  144.2100 C   0  0  2  0  0  3  0  0  0  0  0  0
  186.8440  178.1610  146.2230 N   0  0  0  0  0  0  0  0  0  0  0  0
  188.9340  177.3970  145.3690 N   0  0  0  0  0  0  0  0  0  0  0  0
  187.5860  177.8600  145.2050 C   0  0  0  0  0  3  0  0  0  0  0  0
  189.4990  177.2720  146.6480 C   0  0  0  0  0  0  0  0  0  0  0  0
  189.9650  177.1700  147.7030 N   0  0  0  0  0  0  0  0  0  0  0  0
  185.4970  178.6220  146.0820 C   0  0  0  0  0  0  0  0  0  0  0  0
  184.6430  178.2970  146.9480 O   0  0  0  0  0  0  0  0  0  0  0  0
  185.0810  179.4990  144.9380 C   0  0  0  0  0  2  0  0  0  0  0  0
  184.0860  179.5370  142.7910 F   0  0  0  0  0  0  0  0  0  0  0  0
  184.2760  178.7300  143.8970 C   0  0  0  0  0  0  0  0  0  0  0  0
  184.9580  177.5910  143.5110 F   0  0  0  0  0  0  0  0  0  0  0  0
  183.0410  178.3770  144.4110 F   0  0  0  0  0  0  0  0  0  0  0  0
  191.2430  176.9330  144.5940 C   0  0  0  0  0  2  0  0  0  0  0  0
  191.7740  175.7230  143.9890 N   0  0  0  0  0  1  0  0  0  0  0  0
  189.5720  178.1130  143.0710 C   0  0  0  0  0  2  0  0  0  0  0  0
  189.0650  177.4950  141.7690 C   0  0  0  0  0  2  0  0  0  0  0  0
  190.1950  176.8810  140.9540 C   0  0  0  0  0  2  0  0  0  0  0  0
  188.6740  178.1620  138.0000 C   0  0  2  0  0  3  0  0  0  0  0  0
  186.9140  176.7300  137.1600 C   0  0  0  0  0  2  0  0  0  0  0  0
  189.1270  178.3700  139.3610 N   0  0  0  0  0  2  0  0  0  0  0  0
  190.2510  177.4630  139.5480 C   0  0  2  0  0  3  0  0  0  0  0  0
  187.1690  177.9680  137.9880 C   0  0  0  0  0  2  0  0  0  0  0  0
  189.2930  176.8720  137.5140 C   0  0  2  0  0  3  0  0  0  0  0  0
  188.1580  175.8870  137.3150 C   0  0  0  0  0  2  0  0  0  0  0  0
  190.1860  176.3940  138.5550 N   0  0  0  0  0  0  0  0  0  0  0  0
  191.5090  176.2850  137.9600 C   0  0  0  0  0  2  0  0  0  0  0  0
  191.7760  174.8450  137.5690 C   0  0  0  0  0  1  0  0  0  0  0  0
  1 16  1  6  0  0  0
  1 14  1  0  0  0  0
  1  3  1  0  0  0  0
  3  5  1  0  0  0  0
  4  3  1  0  0  0  0
  4  2  2  0  0  0  0
  5  6  3  0  0  0  0
  7  2  1  0  0  0  0
  7  8  2  0  0  0  0
  9  7  1  0  0  0  0
 10 11  1  0  0  0  0
 11 13  1  0  0  0  0
 11  9  1  0  0  0  0
 12 11  1  0  0  0  0
 15 14  1  0  0  0  0
 17 16  1  0  0  0  0
 18 17  1  0  0  0  0
 19 23  1  1  0  0  0
 19 21  1  0  0  0  0
 20 25  1  0  0  0  0
 20 23  1  0  0  0  0
 21 22  1  0  0  0  0
 22 18  1  1  0  0  0
 24 25  1  1  0  0  0
 24 19  1  0  0  0  0
 24 26  1  0  0  0  0
 26 22  1  0  0  0  0
 27 26  1  0  0  0  0
 28 27  1  0  0  0  0
M  END
>  <MODEL>
5

>  <REMARK>
 VINA RESULT:      -6.9      2.117      6.587
  Name = 
  11 active torsions:
  status: ('A' for Active; 'I' for Inactive)
    1  A    between atoms: C_1  and  C_6
    2  A    between atoms: C_2  and  C_6
    3  A    between atoms: C_2  and  C_7
    4  A    between atoms: C_3  and  N_10
    5  A    between atoms: C_6  and  N_10
    6  A    between atoms: C_7  and  C_25
    7  A    between atoms: N_8  and  C_9
    8  A    between atoms: C_9  and  C_12
    9  A    between atoms: C_12  and  C_13
   10  A    between atoms: C_15  and  C_25
   11  A    between atoms: C_17  and  N_28
                            x       y       z     vdW  Elec       q    Type
                         _______ _______ _______ _____ _____    ______ ____

>  <TORSDO>
F 11

$$$$
=
 OpenBabel11062416473D

 28 29  0  0  1  0  0  0  0  0999 V2000
  186.3740  178.0200  144.0100 C   0  0  2  0  0  3  0  0  0  0  0  0
  183.3530  178.5780  141.9280 N   0  0  0  0  0  0  0  0  0  0  0  0
  184.9900  178.3120  143.6410 N   0  0  0  0  0  0  0  0  0  0  0  0
  184.5660  178.2780  142.2710 C   0  0  0  0  0  3  0  0  0  0  0  0
  184.0990  178.6920  144.6590 C   0  0  0  0  0  0  0  0  0  0  0  0
  183.3660  179.0050  145.4970 N   0  0  0  0  0  0  0  0  0  0  0  0
  182.9090  178.5480  140.5690 C   0  0  0  0  0  0  0  0  0  0  0  0
  181.9260  179.2570  140.2280 O   0  0  0  0  0  0  0  0  0  0  0  0
  183.5950  177.7040  139.5350 C   0  0  0  0  0  2  0  0  0  0  0  0
  185.8590  178.2570  139.1280 F   0  0  0  0  0  0  0  0  0  0  0  0
  184.5730  178.5170  138.6960 C   0  0  0  0  0  0  0  0  0  0  0  0
  184.4660  178.1640  137.3630 F   0  0  0  0  0  0  0  0  0  0  0  0
  184.3170  179.8700  138.8370 F   0  0  0  0  0  0  0  0  0  0  0  0
  187.1330  177.3170  142.8890 C   0  0  0  0  0  2  0  0  0  0  0  0
  187.8760  176.1890  143.4230 N   0  0  0  0  0  1  0  0  0  0  0  0
  186.4790  177.2880  145.3540 C   0  0  0  0  0  2  0  0  0  0  0  0
  187.3770  177.9800  146.3790 C   0  0  0  0  0  2  0  0  0  0  0  0
  188.5130  177.0780  146.8390 C   0  0  0  0  0  2  0  0  0  0  0  0
  191.0190  178.3040  144.6250 C   0  0  2  0  0  3  0  0  0  0  0  0
  191.5230  176.7550  142.8360 C   0  0  0  0  0  2  0  0  0  0  0  0
  189.7780  178.5140  145.3450 N   0  0  0  0  0  2  0  0  0  0  0  0
  189.8730  177.6970  146.5470 C   0  0  2  0  0  3  0  0  0  0  0  0
  190.7170  177.9890  143.1720 C   0  0  0  0  0  2  0  0  0  0  0  0
  191.6790  177.0810  145.2180 C   0  0  2  0  0  3  0  0  0  0  0  0
  191.6710  176.0120  144.1420 C   0  0  0  0  0  2  0  0  0  0  0  0
  190.8730  176.6510  146.3470 N   0  0  0  0  0  0  0  0  0  0  0  0
  191.7410  176.6640  147.5150 C   0  0  0  0  0  2  0  0  0  0  0  0
  192.3700  175.2980  147.7000 C   0  0  0  0  0  1  0  0  0  0  0  0
  1 14  1  6  0  0  0
  1 16  1  0  0  0  0
  2  4  2  0  0  0  0
  3  1  1  0  0  0  0
  3  5  1  0  0  0  0
  4  3  1  0  0  0  0
  5  6  3  0  0  0  0
  7  2  1  0  0  0  0
  8  7  2  0  0  0  0
  9  7  1  0  0  0  0
 11 13  1  0  0  0  0
 11 10  1  0  0  0  0
 11  9  1  0  0  0  0
 12 11  1  0  0  0  0
 14 15  1  0  0  0  0
 16 17  1  0  0  0  0
 17 18  1  0  0  0  0
 19 23  1  6  0  0  0
 19 24  1  0  0  0  0
 19 21  1  0  0  0  0
 20 23  1  0  0  0  0
 20 25  1  0  0  0  0
 21 22  1  0  0  0  0
 22 18  1  6  0  0  0
 24 25  1  6  0  0  0
 24 26  1  0  0  0  0
 26 22  1  0  0  0  0
 26 27  1  0  0  0  0
 27 28  1  0  0  0  0
M  END
>  <MODEL>
6

>  <REMARK>
 VINA RESULT:      -6.9      3.134      4.873
  Name = 
  11 active torsions:
  status: ('A' for Active; 'I' for Inactive)
    1  A    between atoms: C_1  and  C_6
    2  A    between atoms: C_2  and  C_6
    3  A    between atoms: C_2  and  C_7
    4  A    between atoms: C_3  and  N_10
    5  A    between atoms: C_6  and  N_10
    6  A    between atoms: C_7  and  C_25
    7  A    between atoms: N_8  and  C_9
    8  A    between atoms: C_9  and  C_12
    9  A    between atoms: C_12  and  C_13
   10  A    between atoms: C_15  and  C_25
   11  A    between atoms: C_17  and  N_28
                            x       y       z     vdW  Elec       q    Type
                         _______ _______ _______ _____ _____    ______ ____

>  <TORSDO>
F 11

$$$$
=
 OpenBabel11062416473D

 28 29  0  0  1  0  0  0  0  0999 V2000
  187.7760  177.4390  145.5420 C   0  0  2  0  0  3  0  0  0  0  0  0
  185.0410  178.5260  143.2820 N   0  0  0  0  0  0  0  0  0  0  0  0
  186.4690  177.9130  145.0900 N   0  0  0  0  0  0  0  0  0  0  0  0
  186.1800  178.0660  143.6930 C   0  0  0  0  0  3  0  0  0  0  0  0
  185.5230  178.2780  146.0630 C   0  0  0  0  0  0  0  0  0  0  0  0
  184.7440  178.5780  146.8640 N   0  0  0  0  0  0  0  0  0  0  0  0
  184.7310  178.6840  141.8950 C   0  0  0  0  0  0  0  0  0  0  0  0
  185.3350  179.5630  141.2260 O   0  0  0  0  0  0  0  0  0  0  0  0
  183.7150  177.8160  141.2120 C   0  0  0  0  0  2  0  0  0  0  0  0
  182.4300  179.4610  140.0990 F   0  0  0  0  0  0  0  0  0  0  0  0
  182.3620  178.5080  141.0960 C   0  0  0  0  0  0  0  0  0  0  0  0
  181.3820  177.5870  140.7740 F   0  0  0  0  0  0  0  0  0  0  0  0
  182.0370  179.1280  142.2890 F   0  0  0  0  0  0  0  0  0  0  0  0
  188.0530  177.8100  146.9950 C   0  0  0  0  0  2  0  0  0  0  0  0
  188.7500  176.7230  147.6610 N   0  0  0  0  0  1  0  0  0  0  0  0
  188.9080  177.8520  144.5930 C   0  0  0  0  0  2  0  0  0  0  0  0
  189.6760  176.6800  143.9830 C   0  0  0  0  0  2  0  0  0  0  0  0
  189.2250  176.3860  142.5590 C   0  0  0  0  0  2  0  0  0  0  0  0
  188.8890  178.2510  139.5430 C   0  0  2  0  0  3  0  0  0  0  0  0
  188.7310  176.8370  137.5850 C   0  0  0  0  0  2  0  0  0  0  0  0
  188.4650  177.9940  140.9060 N   0  0  0  0  0  2  0  0  0  0  0  0
  189.6440  177.4930  141.5990 C   0  0  2  0  0  3  0  0  0  0  0  0
  187.9020  177.6220  138.5760 C   0  0  0  0  0  2  0  0  0  0  0  0
  190.2130  177.5500  139.3460 C   0  0  2  0  0  3  0  0  0  0  0  0
  189.9790  176.4420  138.3380 C   0  0  0  0  0  2  0  0  0  0  0  0
  190.6030  176.9820  140.6240 N   0  0  0  0  0  0  0  0  0  0  0  0
  191.8980  177.5520  140.9630 C   0  0  0  0  0  2  0  0  0  0  0  0
  192.9070  177.2050  139.8860 C   0  0  0  0  0  1  0  0  0  0  0  0
  1 16  1  6  0  0  0
  1 14  1  0  0  0  0
  2  4  2  0  0  0  0
  3  1  1  0  0  0  0
  3  5  1  0  0  0  0
  4  3  1  0  0  0  0
  5  6  3  0  0  0  0
  7  2  1  0  0  0  0
  8  7  2  0  0  0  0
  9  7  1  0  0  0  0
 10 11  1  0  0  0  0
 11  9  1  0  0  0  0
 11 13  1  0  0  0  0
 12 11  1  0  0  0  0
 14 15  1  0  0  0  0
 17 16  1  0  0  0  0
 18 17  1  0  0  0  0
 19 23  1  6  0  0  0
 19 21  1  0  0  0  0
 20 25  1  0  0  0  0
 20 23  1  0  0  0  0
 21 22  1  0  0  0  0
 22 18  1  1  0  0  0
 24 25  1  6  0  0  0
 24 19  1  0  0  0  0
 24 26  1  0  0  0  0
 26 27  1  0  0  0  0
 26 22  1  0  0  0  0
 28 27  1  0  0  0  0
M  END
>  <MODEL>
7

>  <REMARK>
 VINA RESULT:      -6.8      2.143      6.176
  Name = 
  11 active torsions:
  status: ('A' for Active; 'I' for Inactive)
    1  A    between atoms: C_1  and  C_6
    2  A    between atoms: C_2  and  C_6
    3  A    between atoms: C_2  and  C_7
    4  A    between atoms: C_3  and  N_10
    5  A    between atoms: C_6  and  N_10
    6  A    between atoms: C_7  and  C_25
    7  A    between atoms: N_8  and  C_9
    8  A    between atoms: C_9  and  C_12
    9  A    between atoms: C_12  and  C_13
   10  A    between atoms: C_15  and  C_25
   11  A    between atoms: C_17  and  N_28
                            x       y       z     vdW  Elec       q    Type
                         _______ _______ _______ _____ _____    ______ ____

>  <TORSDO>
F 11

$$$$
=
 OpenBabel11062416473D

 28 29  0  0  1  0  0  0  0  0999 V2000
  184.5760  178.2730  142.0240 C   0  0  2  0  0  3  0  0  0  0  0  0
  187.1530  178.6370  139.3800 N   0  0  0  0  0  0  0  0  0  0  0  0
  185.2070  178.6370  140.7560 N   0  0  0  0  0  0  0  0  0  0  0  0
  186.5700  178.2820  140.4810 C   0  0  0  0  0  3  0  0  0  0  0  0
  184.4650  179.4010  139.8410 C   0  0  0  0  0  0  0  0  0  0  0  0
  183.8520  180.0300  139.0870 N   0  0  0  0  0  0  0  0  0  0  0  0
  188.5090  178.2920  139.0830 C   0  0  0  0  0  0  0  0  0  0  0  0
  189.1890  179.0510  138.3440 O   0  0  0  0  0  0  0  0  0  0  0  0
  189.1480  177.0560  139.6450 C   0  0  0  0  0  2  0  0  0  0  0  0
  189.4690  178.5020  141.4890 F   0  0  0  0  0  0  0  0  0  0  0  0
  189.9630  177.3560  140.8970 C   0  0  0  0  0  0  0  0  0  0  0  0
  189.8640  176.3070  141.7930 F   0  0  0  0  0  0  0  0  0  0  0  0
  191.2910  177.5570  140.5670 F   0  0  0  0  0  0  0  0  0  0  0  0
  183.1360  178.7680  142.1140 C   0  0  0  0  0  2  0  0  0  0  0  0
  182.7880  179.0350  143.4990 N   0  0  0  0  0  1  0  0  0  0  0  0
  185.4240  178.6760  143.2370 C   0  0  0  0  0  2  0  0  0  0  0  0
  185.6720  177.5460  144.2350 C   0  0  0  0  0  2  0  0  0  0  0  0
  187.1220  177.0830  144.2190 C   0  0  0  0  0  2  0  0  0  0  0  0
  190.2830  178.1910  145.4310 C   0  0  2  0  0  3  0  0  0  0  0  0
  191.7150  176.3620  146.1110 C   0  0  0  0  0  2  0  0  0  0  0  0
  189.2540  178.2300  144.4100 N   0  0  0  0  0  2  0  0  0  0  0  0
  188.0000  177.9620  145.1010 C   0  0  2  0  0  3  0  0  0  0  0  0
  191.4270  177.3080  144.9670 C   0  0  0  0  0  2  0  0  0  0  0  0
  189.6790  177.5330  146.6500 C   0  0  2  0  0  3  0  0  0  0  0  0
  190.4010  176.2140  146.8410 C   0  0  0  0  0  2  0  0  0  0  0  0
  188.2750  177.2920  146.3690 N   0  0  0  0  0  0  0  0  0  0  0  0
  187.5130  177.9910  147.3930 C   0  0  0  0  0  2  0  0  0  0  0  0
  188.3910  178.2420  148.6030 C   0  0  0  0  0  1  0  0  0  0  0  0
  1 14  1  1  0  0  0
  1 16  1  0  0  0  0
  2  4  2  0  0  0  0
  3  1  1  0  0  0  0
  4  3  1  0  0  0  0
  5  3  1  0  0  0  0
  6  5  3  0  0  0  0
  7  2  1  0  0  0  0
  7  9  1  0  0  0  0
  8  7  2  0  0  0  0
  9 11  1  0  0  0  0
 11 10  1  0  0  0  0
 11 12  1  0  0  0  0
 13 11  1  0  0  0  0
 14 15  1  0  0  0  0
 16 17  1  0  0  0  0
 18 17  1  0  0  0  0
 19 23  1  6  0  0  0
 19 24  1  0  0  0  0
 20 25  1  0  0  0  0
 21 22  1  0  0  0  0
 21 19  1  0  0  0  0
 22 18  1  6  0  0  0
 22 26  1  0  0  0  0
 23 20  1  0  0  0  0
 24 25  1  6  0  0  0
 26 24  1  0  0  0  0
 26 27  1  0  0  0  0
 27 28  1  0  0  0  0
M  END
>  <MODEL>
8

>  <REMARK>
 VINA RESULT:      -6.8      2.867      5.047
  Name = 
  11 active torsions:
  status: ('A' for Active; 'I' for Inactive)
    1  A    between atoms: C_1  and  C_6
    2  A    between atoms: C_2  and  C_6
    3  A    between atoms: C_2  and  C_7
    4  A    between atoms: C_3  and  N_10
    5  A    between atoms: C_6  and  N_10
    6  A    between atoms: C_7  and  C_25
    7  A    between atoms: N_8  and  C_9
    8  A    between atoms: C_9  and  C_12
    9  A    between atoms: C_12  and  C_13
   10  A    between atoms: C_15  and  C_25
   11  A    between atoms: C_17  and  N_28
                            x       y       z     vdW  Elec       q    Type
                         _______ _______ _______ _____ _____    ______ ____

>  <TORSDO>
F 11

$$$$
=
 OpenBabel11062416473D

 28 29  0  0  1  0  0  0  0  0999 V2000
  185.8090  178.0130  144.8520 C   0  0  2  0  0  3  0  0  0  0  0  0
  184.8720  178.7400  141.3360 N   0  0  0  0  0  0  0  0  0  0  0  0
  184.9960  178.3520  143.6850 N   0  0  0  0  0  0  0  0  0  0  0  0
  185.5720  178.3980  142.3710 C   0  0  0  0  0  3  0  0  0  0  0  0
  183.6510  178.6960  143.8920 C   0  0  0  0  0  0  0  0  0  0  0  0
  182.5420  178.9800  144.0630 N   0  0  0  0  0  0  0  0  0  0  0  0
  185.4240  178.7910  140.0170 C   0  0  0  0  0  0  0  0  0  0  0  0
  186.6640  178.6380  139.8640 O   0  0  0  0  0  0  0  0  0  0  0  0
  184.5580  179.0030  138.8100 C   0  0  0  0  0  2  0  0  0  0  0  0
  184.3380  176.7850  138.0170 F   0  0  0  0  0  0  0  0  0  0  0  0
  183.6190  177.8280  138.5690 C   0  0  0  0  0  0  0  0  0  0  0  0
  183.0640  177.4080  139.7650 F   0  0  0  0  0  0  0  0  0  0  0  0
  182.6110  178.1900  137.6940 F   0  0  0  0  0  0  0  0  0  0  0  0
  185.6500  179.0270  145.9800 C   0  0  0  0  0  2  0  0  0  0  0  0
  184.8940  178.4390  147.0720 N   0  0  0  0  0  1  0  0  0  0  0  0
  187.2760  177.7500  144.4860 C   0  0  0  0  0  2  0  0  0  0  0  0
  188.1060  177.1390  145.6150 C   0  0  0  0  0  2  0  0  0  0  0  0
  189.1550  178.1110  146.1370 C   0  0  0  0  0  2  0  0  0  0  0  0
  191.0840  177.9540  143.1470 C   0  0  2  0  0  3  0  0  0  0  0  0
  190.1850  176.3870  141.5370 C   0  0  0  0  0  2  0  0  0  0  0  0
  190.3990  178.7460  144.1500 N   0  0  0  0  0  2  0  0  0  0  0  0
  190.4710  177.9720  145.3820 C   0  0  2  0  0  3  0  0  0  0  0  0
  190.2220  177.8540  141.9020 C   0  0  0  0  0  2  0  0  0  0  0  0
  191.2300  176.5570  143.7020 C   0  0  2  0  0  3  0  0  0  0  0  0
  190.3700  175.6500  142.8420 C   0  0  0  0  0  2  0  0  0  0  0  0
  190.7260  176.5700  145.0640 N   0  0  0  0  0  0  0  0  0  0  0  0
  191.8160  176.1300  145.9220 C   0  0  0  0  0  2  0  0  0  0  0  0
  191.3120  175.9600  147.3410 C   0  0  0  0  0  1  0  0  0  0  0  0
  1 16  1  6  0  0  0
  1 14  1  0  0  0  0
  2  4  2  0  0  0  0
  3  5  1  0  0  0  0
  3  1  1  0  0  0  0
  4  3  1  0  0  0  0
  5  6  3  0  0  0  0
  7  2  1  0  0  0  0
  8  7  2  0  0  0  0
  9  7  1  0  0  0  0
 10 11  1  0  0  0  0
 11  9  1  0  0  0  0
 11 12  1  0  0  0  0
 13 11  1  0  0  0  0
 14 15  1  0  0  0  0
 16 17  1  0  0  0  0
 17 18  1  0  0  0  0
 19 23  1  6  0  0  0
 19 24  1  0  0  0  0
 19 21  1  0  0  0  0
 20 23  1  0  0  0  0
 20 25  1  0  0  0  0
 21 22  1  0  0  0  0
 22 18  1  6  0  0  0
 24 25  1  6  0  0  0
 24 26  1  0  0  0  0
 26 22  1  0  0  0  0
 26 27  1  0  0  0  0
 27 28  1  0  0  0  0
M  END
>  <MODEL>
9

>  <REMARK>
 VINA RESULT:      -6.7      2.822      5.328
  Name = 
  11 active torsions:
  status: ('A' for Active; 'I' for Inactive)
    1  A    between atoms: C_1  and  C_6
    2  A    between atoms: C_2  and  C_6
    3  A    between atoms: C_2  and  C_7
    4  A    between atoms: C_3  and  N_10
    5  A    between atoms: C_6  and  N_10
    6  A    between atoms: C_7  and  C_25
    7  A    between atoms: N_8  and  C_9
    8  A    between atoms: C_9  and  C_12
    9  A    between atoms: C_12  and  C_13
   10  A    between atoms: C_15  and  C_25
   11  A    between atoms: C_17  and  N_28
                            x       y       z     vdW  Elec       q    Type
                         _______ _______ _______ _____ _____    ______ ____

>  <TORSDO>
F 11

$$$$
