=
 OpenBabel11062413303D

 28 31  0  0  1  0  0  0  0  0999 V2000
  189.3820  178.3080  145.9630 O   0  0  0  0  0  1  0  0  0  0  0  0
  185.4220  178.1530  143.8310 C   0  0  0  0  0  0  0  0  0  0  0  0
  187.7790  177.2520  143.1910 C   0  0  0  0  0  2  0  0  0  0  0  0
  188.5680  177.2740  145.4980 C   0  0  1  0  0  3  0  0  0  0  0  0
  186.3740  178.1440  146.4270 N   0  0  0  0  0  0  0  0  0  0  0  0
  185.1000  178.5490  146.1560 C   0  0  0  0  0  3  0  0  0  0  0  0
  191.0290  176.1340  144.5250 O   0  0  0  0  0  0  0  0  0  0  0  0
  187.1690  177.7460  145.4040 C   0  0  0  0  0  0  0  0  0  0  0  0
  190.1350  176.4000  143.6780 C   0  0  0  0  0  0  0  0  0  0  0  0
  184.6330  178.5510  144.8710 N   0  0  0  0  0  0  0  0  0  0  0  0
  188.8940  176.9790  144.1000 N   0  0  0  0  0  0  0  0  0  0  0  0
  186.7230  177.7390  144.1100 C   0  0  0  0  0  0  0  0  0  0  0  0
  183.4000  178.4240  142.4230 C   0  0  0  0  0  2  0  0  0  0  0  0
  181.4940  177.5970  138.3500 C   0  0  0  0  0  1  0  0  0  0  0  0
  185.6100  178.7380  140.1170 C   0  0  0  0  0  2  0  0  0  0  0  0
  185.6750  179.1590  141.5790 C   0  0  0  0  0  2  0  0  0  0  0  0
  182.9040  177.0380  140.3320 C   0  0  0  0  0  2  0  0  0  0  0  0
  184.3270  179.1900  139.4020 C   0  0  2  0  0  3  0  0  0  0  0  0
  183.2500  179.5260  140.2600 O   0  0  0  0  0  0  0  0  0  0  0  0
  184.9050  178.1550  142.4290 C   0  0  1  0  0  3  0  0  0  0  0  0
  182.7970  178.4130  141.0200 C   0  0  2  0  0  3  0  0  0  0  0  0
  183.1900  175.8210  138.2000 C   0  0  0  0  0  1  0  0  0  0  0  0
  183.9140  178.1850  138.3220 C   0  0  0  0  0  2  0  0  0  0  0  0
  182.8760  177.1710  138.8110 C   0  0  0  0  0  0  0  0  0  0  0  0
  190.4010  176.1300  142.2310 C   0  0  0  0  0  2  0  0  0  0  0  0
  189.8710  177.4620  140.2150 C   0  0  0  0  0  1  0  0  0  0  0  0
  190.6930  177.4220  141.4850 C   0  0  0  0  0  3  0  0  0  0  0  0
  192.1650  177.5050  141.1280 C   0  0  0  0  0  1  0  0  0  0  0  0
  2 12  2  0  0  0  0
  2 10  1  0  0  0  0
  3 11  1  0  0  0  0
  3 12  1  0  0  0  0
  4  1  1  6  0  0  0
  6  5  1  0  0  0  0
  8  4  1  0  0  0  0
  8  5  2  0  0  0  0
  9 11  1  0  0  0  0
  9  7  2  0  0  0  0
 10  6  2  0  0  0  0
 11  4  1  0  0  0  0
 12  8  1  0  0  0  0
 13 20  1  0  0  0  0
 14 24  1  0  0  0  0
 15 16  1  0  0  0  0
 16 20  1  0  0  0  0
 18 23  1  6  0  0  0
 18 15  1  0  0  0  0
 18 19  1  0  0  0  0
 19 21  1  0  0  0  0
 20  2  1  1  0  0  0
 21 17  1  6  0  0  0
 21 13  1  0  0  0  0
 22 24  1  0  0  0  0
 23 24  1  0  0  0  0
 24 17  1  0  0  0  0
 25  9  1  0  0  0  0
 26 27  1  0  0  0  0
 27 25  1  0  0  0  0
 28 27  1  0  0  0  0
M  END
>  <MODEL>
1

>  <REMARK>
 VINA RESULT:      -8.5      0.000      0.000
  Name = 
  3 active torsions:
  status: ('A' for Active; 'I' for Inactive)
    1  A    between atoms: C_2  and  C_14
    2  A    between atoms: C_4  and  C_22
    3  A    between atoms: C_4  and  C_23
                            x       y       z     vdW  Elec       q    Type
                         _______ _______ _______ _____ _____    ______ ____

>  <TORSDO>
F 3

$$$$
=
 OpenBabel11062413303D

 28 31  0  0  1  0  0  0  0  0999 V2000
  185.7950  179.6070  146.6680 O   0  0  0  0  0  1  0  0  0  0  0  0
  183.9480  178.5390  142.7070 C   0  0  0  0  0  0  0  0  0  0  0  0
  186.2580  177.9670  143.7590 C   0  0  0  0  0  2  0  0  0  0  0  0
  185.4900  178.4040  146.0310 C   0  0  1  0  0  3  0  0  0  0  0  0
  183.1340  179.0090  145.3070 N   0  0  0  0  0  0  0  0  0  0  0  0
  182.2630  179.1610  144.2690 C   0  0  0  0  0  3  0  0  0  0  0  0
  188.0980  177.5740  146.9300 O   0  0  0  0  0  0  0  0  0  0  0  0
  184.4080  178.6240  145.0460 C   0  0  0  0  0  0  0  0  0  0  0  0
  187.8850  177.5820  145.6880 C   0  0  0  0  0  0  0  0  0  0  0  0
  182.6690  178.9270  142.9850 N   0  0  0  0  0  0  0  0  0  0  0  0
  186.6100  177.9960  145.1800 N   0  0  0  0  0  0  0  0  0  0  0  0
  184.8360  178.3830  143.7680 C   0  0  0  0  0  0  0  0  0  0  0  0
  183.2910  178.7120  140.3220 C   0  0  0  0  0  2  0  0  0  0  0  0
  184.0580  177.2060  136.0740 C   0  0  0  0  0  1  0  0  0  0  0  0
  186.4370  178.2410  139.8990 C   0  0  0  0  0  2  0  0  0  0  0  0
  185.7140  178.9720  141.0220 C   0  0  0  0  0  2  0  0  0  0  0  0
  183.8350  176.9540  138.5470 C   0  0  0  0  0  2  0  0  0  0  0  0
  185.9790  178.6620  138.4940 C   0  0  2  0  0  3  0  0  0  0  0  0
  184.7170  179.3050  138.4420 O   0  0  0  0  0  0  0  0  0  0  0  0
  184.3840  178.2820  141.3010 C   0  0  1  0  0  3  0  0  0  0  0  0
  183.6590  178.4520  138.8630 C   0  0  2  0  0  3  0  0  0  0  0  0
  185.0440  175.2610  137.2130 C   0  0  0  0  0  1  0  0  0  0  0  0
  186.0730  177.4920  137.5080 C   0  0  0  0  0  2  0  0  0  0  0  0
  184.7490  176.7400  137.3420 C   0  0  0  0  0  0  0  0  0  0  0  0
  188.9860  177.1830  144.7590 C   0  0  0  0  0  2  0  0  0  0  0  0
  190.7110  178.7590  143.9460 C   0  0  0  0  0  1  0  0  0  0  0  0
  190.2800  177.8980  145.1140 C   0  0  0  0  0  3  0  0  0  0  0  0
  191.3720  176.8920  145.4210 C   0  0  0  0  0  1  0  0  0  0  0  0
  2 10  2  0  0  0  0
  2 12  1  0  0  0  0
  3 12  1  0  0  0  0
  3 11  1  0  0  0  0
  4  1  1  6  0  0  0
  6  5  2  0  0  0  0
  8  5  1  0  0  0  0
  8  4  1  0  0  0  0
  9  7  2  0  0  0  0
 10  6  1  0  0  0  0
 11  9  1  0  0  0  0
 11  4  1  0  0  0  0
 12  8  2  0  0  0  0
 13 20  1  0  0  0  0
 14 24  1  0  0  0  0
 15 16  1  0  0  0  0
 16 20  1  0  0  0  0
 18 23  1  6  0  0  0
 18 15  1  0  0  0  0
 19 18  1  0  0  0  0
 19 21  1  0  0  0  0
 20  2  1  1  0  0  0
 21 17  1  1  0  0  0
 21 13  1  0  0  0  0
 22 24  1  0  0  0  0
 24 23  1  0  0  0  0
 24 17  1  0  0  0  0
 25 27  1  0  0  0  0
 25  9  1  0  0  0  0
 26 27  1  0  0  0  0
 27 28  1  0  0  0  0
M  END
>  <MODEL>
2

>  <REMARK>
 VINA RESULT:      -8.2      1.922      2.835
  Name = 
  3 active torsions:
  status: ('A' for Active; 'I' for Inactive)
    1  A    between atoms: C_2  and  C_14
    2  A    between atoms: C_4  and  C_22
    3  A    between atoms: C_4  and  C_23
                            x       y       z     vdW  Elec       q    Type
                         _______ _______ _______ _____ _____    ______ ____

>  <TORSDO>
F 3

$$$$
=
 OpenBabel11062413303D

 28 31  0  0  1  0  0  0  0  0999 V2000
  189.1860  176.8430  145.5490 O   0  0  0  0  0  1  0  0  0  0  0  0
  190.2910  177.3600  141.2180 C   0  0  0  0  0  0  0  0  0  0  0  0
  188.0130  177.5360  142.4650 C   0  0  0  0  0  2  0  0  0  0  0  0
  189.0680  177.8900  144.6350 C   0  0  1  0  0  3  0  0  0  0  0  0
  191.4260  177.7760  143.7050 N   0  0  0  0  0  0  0  0  0  0  0  0
  192.2110  177.6110  142.6020 C   0  0  0  0  0  3  0  0  0  0  0  0
  186.4170  178.1900  145.7240 O   0  0  0  0  0  0  0  0  0  0  0  0
  190.0780  177.7310  143.5650 C   0  0  0  0  0  0  0  0  0  0  0  0
  186.5170  177.9340  144.4950 C   0  0  0  0  0  0  0  0  0  0  0  0
  191.6460  177.4060  141.3740 N   0  0  0  0  0  0  0  0  0  0  0  0
  187.8080  177.7630  143.8970 N   0  0  0  0  0  0  0  0  0  0  0  0
  189.4910  177.5280  142.3460 C   0  0  0  0  0  0  0  0  0  0  0  0
  189.2580  178.4730  139.2580 C   0  0  0  0  0  2  0  0  0  0  0  0
  186.5950  177.9410  135.5810 C   0  0  0  0  0  1  0  0  0  0  0  0
  189.8430  175.6200  137.9100 C   0  0  0  0  0  2  0  0  0  0  0  0
  190.6380  176.3650  138.9740 C   0  0  0  0  0  2  0  0  0  0  0  0
  187.2750  177.5330  137.9470 C   0  0  0  0  0  2  0  0  0  0  0  0
  189.4780  176.4860  136.6950 C   0  0  2  0  0  3  0  0  0  0  0  0
  189.5390  177.8850  136.9150 O   0  0  0  0  0  0  0  0  0  0  0  0
  189.6800  177.1380  139.8730 C   0  0  1  0  0  3  0  0  0  0  0  0
  188.5990  178.3190  137.8900 C   0  0  2  0  0  3  0  0  0  0  0  0
  185.7620  175.9630  136.7830 C   0  0  0  0  0  1  0  0  0  0  0  0
  188.1370  176.0540  136.0910 C   0  0  0  0  0  2  0  0  0  0  0  0
  186.9540  176.8800  136.6050 C   0  0  0  0  0  0  0  0  0  0  0  0
  185.2710  177.7850  143.6800 C   0  0  0  0  0  2  0  0  0  0  0  0
  183.4720  179.4690  143.8980 C   0  0  0  0  0  1  0  0  0  0  0  0
  184.7740  179.1390  143.2010 C   0  0  0  0  0  3  0  0  0  0  0  0
  184.5440  179.1160  141.7020 C   0  0  0  0  0  1  0  0  0  0  0  0
  2 10  2  0  0  0  0
  2 12  1  0  0  0  0
  3 11  1  0  0  0  0
  4  1  1  1  0  0  0
  6  5  2  0  0  0  0
  8  5  1  0  0  0  0
  8  4  1  0  0  0  0
  9  7  2  0  0  0  0
 10  6  1  0  0  0  0
 11  9  1  0  0  0  0
 11  4  1  0  0  0  0
 12  3  1  0  0  0  0
 12  8  2  0  0  0  0
 13 20  1  0  0  0  0
 14 24  1  0  0  0  0
 15 16  1  0  0  0  0
 16 20  1  0  0  0  0
 18 23  1  1  0  0  0
 18 19  1  0  0  0  0
 18 15  1  0  0  0  0
 19 21  1  0  0  0  0
 20  2  1  1  0  0  0
 21 17  1  1  0  0  0
 21 13  1  0  0  0  0
 23 24  1  0  0  0  0
 24 22  1  0  0  0  0
 24 17  1  0  0  0  0
 25  9  1  0  0  0  0
 27 25  1  0  0  0  0
 27 26  1  0  0  0  0
 28 27  1  0  0  0  0
M  END
>  <MODEL>
3

>  <REMARK>
 VINA RESULT:      -8.1      2.725      5.528
  Name = 
  3 active torsions:
  status: ('A' for Active; 'I' for Inactive)
    1  A    between atoms: C_2  and  C_14
    2  A    between atoms: C_4  and  C_22
    3  A    between atoms: C_4  and  C_23
                            x       y       z     vdW  Elec       q    Type
                         _______ _______ _______ _____ _____    ______ ____

>  <TORSDO>
F 3

$$$$
=
 OpenBabel11062413303D

 28 31  0  0  1  0  0  0  0  0999 V2000
  187.5070  178.9910  137.2370 O   0  0  0  0  0  1  0  0  0  0  0  0
  189.9680  177.1570  140.5270 C   0  0  0  0  0  0  0  0  0  0  0  0
  187.5740  178.1760  140.5070 C   0  0  0  0  0  2  0  0  0  0  0  0
  187.3270  177.9080  138.0970 C   0  0  1  0  0  3  0  0  0  0  0  0
  189.6230  176.8700  137.7980 N   0  0  0  0  0  0  0  0  0  0  0  0
  190.7800  176.4660  138.3980 C   0  0  0  0  0  3  0  0  0  0  0  0
  184.6490  178.9300  138.3930 O   0  0  0  0  0  0  0  0  0  0  0  0
  188.6430  177.4160  138.5600 C   0  0  0  0  0  0  0  0  0  0  0  0
  185.3610  178.8540  139.4290 C   0  0  0  0  0  0  0  0  0  0  0  0
  190.9460  176.6100  139.7470 N   0  0  0  0  0  0  0  0  0  0  0  0
  186.7060  178.3630  139.3430 N   0  0  0  0  0  0  0  0  0  0  0  0
  188.7880  177.5680  139.9130 C   0  0  0  0  0  0  0  0  0  0  0  0
  190.1540  175.9360  142.6770 C   0  0  0  0  0  2  0  0  0  0  0  0
  189.8260  176.2290  147.2280 C   0  0  0  0  0  1  0  0  0  0  0  0
  191.2980  178.7700  143.6580 C   0  0  0  0  0  2  0  0  0  0  0  0
  191.4270  178.0960  142.2980 C   0  0  0  0  0  2  0  0  0  0  0  0
  189.1430  176.7420  144.8830 C   0  0  0  0  0  2  0  0  0  0  0  0
  191.6500  177.8510  144.8370 C   0  0  2  0  0  3  0  0  0  0  0  0
  191.6180  176.4630  144.5470 O   0  0  0  0  0  0  0  0  0  0  0  0
  190.1560  177.3080  142.0020 C   0  0  1  0  0  3  0  0  0  0  0  0
  190.3150  176.0170  144.1930 C   0  0  2  0  0  3  0  0  0  0  0  0
  188.4390  178.2040  146.7470 C   0  0  0  0  0  1  0  0  0  0  0  0
  190.8220  178.2010  146.0780 C   0  0  0  0  0  2  0  0  0  0  0  0
  189.5650  177.3370  146.2240 C   0  0  0  0  0  0  0  0  0  0  0  0
  184.7940  179.3070  140.7360 C   0  0  0  0  0  2  0  0  0  0  0  0
  182.5980  178.3000  141.2670 C   0  0  0  0  0  1  0  0  0  0  0  0
  184.0940  178.1600  141.4470 C   0  0  0  0  0  3  0  0  0  0  0  0
  184.4200  178.1810  142.9290 C   0  0  0  0  0  1  0  0  0  0  0  0
  4  1  1  6  0  0  0
  4  8  1  0  0  0  0
  4 11  1  0  0  0  0
  5  6  2  0  0  0  0
  5  8  1  0  0  0  0
  6 10  1  0  0  0  0
  7  9  2  0  0  0  0
  8 12  2  0  0  0  0
  9 25  1  0  0  0  0
 10  2  2  0  0  0  0
 11  9  1  0  0  0  0
 11  3  1  0  0  0  0
 12  3  1  0  0  0  0
 12  2  1  0  0  0  0
 16 15  1  0  0  0  0
 17 24  1  0  0  0  0
 18 15  1  6  0  0  0
 18 23  1  0  0  0  0
 19 18  1  0  0  0  0
 20  2  1  6  0  0  0
 20 16  1  0  0  0  0
 20 13  1  0  0  0  0
 21 13  1  6  0  0  0
 21 19  1  0  0  0  0
 21 17  1  0  0  0  0
 23 24  1  0  0  0  0
 24 22  1  0  0  0  0
 24 14  1  0  0  0  0
 25 27  1  0  0  0  0
 26 27  1  0  0  0  0
 27 28  1  0  0  0  0
M  END
>  <MODEL>
4

>  <REMARK>
 VINA RESULT:      -7.8      2.692      8.038
  Name = 
  3 active torsions:
  status: ('A' for Active; 'I' for Inactive)
    1  A    between atoms: C_2  and  C_14
    2  A    between atoms: C_4  and  C_22
    3  A    between atoms: C_4  and  C_23
                            x       y       z     vdW  Elec       q    Type
                         _______ _______ _______ _____ _____    ______ ____

>  <TORSDO>
F 3

$$$$
=
 OpenBabel11062413303D

 28 31  0  0  1  0  0  0  0  0999 V2000
  187.1640  176.9350  146.5720 O   0  0  0  0  0  1  0  0  0  0  0  0
  189.5870  177.0160  142.7820 C   0  0  0  0  0  0  0  0  0  0  0  0
  187.3310  178.1410  143.4280 C   0  0  0  0  0  2  0  0  0  0  0  0
  187.7590  177.9490  145.8210 C   0  0  1  0  0  3  0  0  0  0  0  0
  190.0190  176.8380  145.5070 N   0  0  0  0  0  0  0  0  0  0  0  0
  190.9490  176.3720  144.6250 C   0  0  0  0  0  3  0  0  0  0  0  0
  185.2780  179.3520  146.2410 O   0  0  0  0  0  0  0  0  0  0  0  0
  188.8770  177.3900  145.0280 C   0  0  0  0  0  0  0  0  0  0  0  0
  185.6140  179.1070  145.0520 C   0  0  0  0  0  0  0  0  0  0  0  0
  190.7320  176.4630  143.2780 N   0  0  0  0  0  0  0  0  0  0  0  0
  186.8330  178.4020  144.7800 N   0  0  0  0  0  0  0  0  0  0  0  0
  188.6390  177.4920  143.6840 C   0  0  0  0  0  0  0  0  0  0  0  0
  188.7170  178.4600  140.9630 C   0  0  0  0  0  2  0  0  0  0  0  0
  187.1400  178.5920  136.6730 C   0  0  0  0  0  1  0  0  0  0  0  0
  190.3470  176.3700  139.1520 C   0  0  0  0  0  2  0  0  0  0  0  0
  190.6610  176.8840  140.5510 C   0  0  0  0  0  2  0  0  0  0  0  0
  187.3980  177.6000  138.9490 C   0  0  0  0  0  2  0  0  0  0  0  0
  190.0160  177.4840  138.1470 C   0  0  2  0  0  3  0  0  0  0  0  0
  189.6350  178.7210  138.7250 O   0  0  0  0  0  0  0  0  0  0  0  0
  189.3580  177.1150  141.3080 C   0  0  1  0  0  3  0  0  0  0  0  0
  188.4290  178.6180  139.4720 C   0  0  2  0  0  3  0  0  0  0  0  0
  186.6640  176.2070  137.0440 C   0  0  0  0  0  1  0  0  0  0  0  0
  189.0080  177.0010  137.0990 C   0  0  0  0  0  2  0  0  0  0  0  0
  187.5600  177.3580  137.4500 C   0  0  0  0  0  0  0  0  0  0  0  0
  184.7130  179.5350  143.9390 C   0  0  0  0  0  2  0  0  0  0  0  0
  183.8080  178.2450  142.0320 C   0  0  0  0  0  1  0  0  0  0  0  0
  183.7770  178.4070  143.5360 C   0  0  0  0  0  3  0  0  0  0  0  0
  182.3580  178.7180  143.9740 C   0  0  0  0  0  1  0  0  0  0  0  0
  2 10  2  0  0  0  0
  2 12  1  0  0  0  0
  3 12  1  0  0  0  0
  3 11  1  0  0  0  0
  4  1  1  1  0  0  0
  6  5  2  0  0  0  0
  8  5  1  0  0  0  0
  8  4  1  0  0  0  0
  9  7  2  0  0  0  0
 10  6  1  0  0  0  0
 11  9  1  0  0  0  0
 11  4  1  0  0  0  0
 12  8  2  0  0  0  0
 13 20  1  0  0  0  0
 14 24  1  0  0  0  0
 15 16  1  0  0  0  0
 16 20  1  0  0  0  0
 18 23  1  6  0  0  0
 18 19  1  0  0  0  0
 18 15  1  0  0  0  0
 19 21  1  0  0  0  0
 20  2  1  1  0  0  0
 21 17  1  6  0  0  0
 21 13  1  0  0  0  0
 22 24  1  0  0  0  0
 23 24  1  0  0  0  0
 24 17  1  0  0  0  0
 25  9  1  0  0  0  0
 26 27  1  0  0  0  0
 27 25  1  0  0  0  0
 27 28  1  0  0  0  0
M  END
>  <MODEL>
5

>  <REMARK>
 VINA RESULT:      -7.8      2.530      5.406
  Name = 
  3 active torsions:
  status: ('A' for Active; 'I' for Inactive)
    1  A    between atoms: C_2  and  C_14
    2  A    between atoms: C_4  and  C_22
    3  A    between atoms: C_4  and  C_23
                            x       y       z     vdW  Elec       q    Type
                         _______ _______ _______ _____ _____    ______ ____

>  <TORSDO>
F 3

$$$$
=
 OpenBabel11062413303D

 28 31  0  0  1  0  0  0  0  0999 V2000
  181.4100  177.9920  141.4210 O   0  0  0  0  0  1  0  0  0  0  0  0
  185.2590  178.5080  143.6930 C   0  0  0  0  0  0  0  0  0  0  0  0
  184.7350  178.4710  141.1440 C   0  0  0  0  0  2  0  0  0  0  0  0
  182.3780  178.9950  141.4780 C   0  0  1  0  0  3  0  0  0  0  0  0
  182.5780  179.1110  144.0050 N   0  0  0  0  0  0  0  0  0  0  0  0
  183.3960  179.0030  145.0910 C   0  0  0  0  0  3  0  0  0  0  0  0
  182.1190  179.0370  138.6080 O   0  0  0  0  0  0  0  0  0  0  0  0
  183.0990  178.9180  142.7680 C   0  0  0  0  0  0  0  0  0  0  0  0
  183.2510  178.7610  139.0880 C   0  0  0  0  0  0  0  0  0  0  0  0
  184.7210  178.7050  144.9330 N   0  0  0  0  0  0  0  0  0  0  0  0
  183.4390  178.7140  140.5080 N   0  0  0  0  0  0  0  0  0  0  0  0
  184.4220  178.6200  142.5860 C   0  0  0  0  0  0  0  0  0  0  0  0
  187.1290  177.1130  144.5320 C   0  0  0  0  0  2  0  0  0  0  0  0
  191.6700  176.6370  144.7820 C   0  0  0  0  0  1  0  0  0  0  0  0
  188.4640  178.0590  141.7710 C   0  0  0  0  0  2  0  0  0  0  0  0
  187.0020  177.7780  142.0880 C   0  0  0  0  0  2  0  0  0  0  0  0
  189.5370  177.9340  144.7850 C   0  0  0  0  0  2  0  0  0  0  0  0
  189.4190  176.9470  142.2300 C   0  0  2  0  0  3  0  0  0  0  0  0
  188.8960  176.0770  143.2190 O   0  0  0  0  0  0  0  0  0  0  0  0
  186.7090  178.1870  143.5280 C   0  0  1  0  0  3  0  0  0  0  0  0
  188.6100  176.7530  144.4370 C   0  0  2  0  0  3  0  0  0  0  0  0
  191.6940  179.0580  144.3430 C   0  0  0  0  0  1  0  0  0  0  0  0
  190.7840  177.5210  142.6290 C   0  0  0  0  0  2  0  0  0  0  0  0
  190.9090  177.7790  144.1340 C   0  0  0  0  0  0  0  0  0  0  0  0
  184.3800  178.4570  138.1560 C   0  0  0  0  0  2  0  0  0  0  0  0
  183.7710  176.0660  137.9660 C   0  0  0  0  0  1  0  0  0  0  0  0
  184.0000  177.3460  137.1900 C   0  0  0  0  0  3  0  0  0  0  0  0
  185.1080  177.1230  136.1790 C   0  0  0  0  0  1  0  0  0  0  0  0
  2 10  1  0  0  0  0
  3 12  1  0  0  0  0
  4  1  1  1  0  0  0
  4  8  1  0  0  0  0
  5  6  1  0  0  0  0
  7  9  2  0  0  0  0
  8  5  2  0  0  0  0
  9 11  1  0  0  0  0
 10  6  2  0  0  0  0
 11  3  1  0  0  0  0
 11  4  1  0  0  0  0
 12  8  1  0  0  0  0
 12  2  2  0  0  0  0
 15 16  1  0  0  0  0
 16 20  1  0  0  0  0
 18 15  1  1  0  0  0
 18 23  1  0  0  0  0
 18 19  1  0  0  0  0
 19 21  1  0  0  0  0
 20  2  1  6  0  0  0
 20 13  1  0  0  0  0
 21 13  1  6  0  0  0
 21 17  1  0  0  0  0
 23 24  1  0  0  0  0
 24 22  1  0  0  0  0
 24 14  1  0  0  0  0
 24 17  1  0  0  0  0
 25  9  1  0  0  0  0
 27 26  1  0  0  0  0
 27 25  1  0  0  0  0
 28 27  1  0  0  0  0
M  END
>  <MODEL>
6

>  <REMARK>
 VINA RESULT:      -7.4      1.825      6.990
  Name = 
  3 active torsions:
  status: ('A' for Active; 'I' for Inactive)
    1  A    between atoms: C_2  and  C_14
    2  A    between atoms: C_4  and  C_22
    3  A    between atoms: C_4  and  C_23
                            x       y       z     vdW  Elec       q    Type
                         _______ _______ _______ _____ _____    ______ ____

>  <TORSDO>
F 3

$$$$
=
 OpenBabel11062413303D

 28 31  0  0  1  0  0  0  0  0999 V2000
  189.1250  178.4620  145.1900 O   0  0  0  0  0  1  0  0  0  0  0  0
  184.7300  178.6160  144.2380 C   0  0  0  0  0  0  0  0  0  0  0  0
  186.7770  177.7770  142.8690 C   0  0  0  0  0  2  0  0  0  0  0  0
  188.1690  177.5030  144.8510 C   0  0  1  0  0  3  0  0  0  0  0  0
  186.3550  178.2740  146.4490 N   0  0  0  0  0  0  0  0  0  0  0  0
  185.0750  178.7230  146.5910 C   0  0  0  0  0  3  0  0  0  0  0  0
  190.2150  176.4670  143.1070 O   0  0  0  0  0  0  0  0  0  0  0  0
  186.8210  177.9990  145.2050 C   0  0  0  0  0  0  0  0  0  0  0  0
  189.1360  176.8460  142.5790 C   0  0  0  0  0  0  0  0  0  0  0  0
  184.2740  178.8910  145.4960 N   0  0  0  0  0  0  0  0  0  0  0  0
  188.0850  177.3810  143.3940 N   0  0  0  0  0  0  0  0  0  0  0  0
  186.0370  178.1580  144.0950 C   0  0  0  0  0  0  0  0  0  0  0  0
  184.2660  177.8420  141.9290 C   0  0  0  0  0  2  0  0  0  0  0  0
  182.2890  178.8500  137.9310 C   0  0  0  0  0  1  0  0  0  0  0  0
  181.5070  179.3950  142.4550 C   0  0  0  0  0  2  0  0  0  0  0  0
  182.3840  178.6280  143.4350 C   0  0  0  0  0  2  0  0  0  0  0  0
  183.5720  179.3780  140.0070 C   0  0  0  0  0  2  0  0  0  0  0  0
  181.2040  178.6210  141.1630 C   0  0  2  0  0  3  0  0  0  0  0  0
  182.0890  177.5490  140.8840 O   0  0  0  0  0  0  0  0  0  0  0  0
  183.8480  178.7990  143.0450 C   0  0  1  0  0  3  0  0  0  0  0  0
  183.4220  177.9920  140.6650 C   0  0  2  0  0  3  0  0  0  0  0  0
  182.4660  181.1740  138.7190 C   0  0  0  0  0  1  0  0  0  0  0  0
  181.0550  179.5720  139.9700 C   0  0  0  0  0  2  0  0  0  0  0  0
  182.3480  179.7320  139.1650 C   0  0  0  0  0  0  0  0  0  0  0  0
  188.9830  176.7560  141.0940 C   0  0  0  0  0  2  0  0  0  0  0  0
  189.0520  178.4600  139.3020 C   0  0  0  0  0  1  0  0  0  0  0  0
  189.8530  177.7890  140.3970 C   0  0  0  0  0  3  0  0  0  0  0  0
  191.0730  177.1260  139.7860 C   0  0  0  0  0  1  0  0  0  0  0  0
  2 10  1  0  0  0  0
  3 11  1  0  0  0  0
  3 12  1  0  0  0  0
  4  1  1  6  0  0  0
  4  8  1  0  0  0  0
  5  6  1  0  0  0  0
  8  5  2  0  0  0  0
  9  7  2  0  0  0  0
  9 11  1  0  0  0  0
 10  6  2  0  0  0  0
 11  4  1  0  0  0  0
 12  2  2  0  0  0  0
 12  8  1  0  0  0  0
 13 20  1  0  0  0  0
 14 24  1  0  0  0  0
 15 16  1  0  0  0  0
 18 23  1  6  0  0  0
 18 15  1  0  0  0  0
 19 18  1  0  0  0  0
 20 16  1  0  0  0  0
 20  2  1  1  0  0  0
 21 17  1  1  0  0  0
 21 19  1  0  0  0  0
 21 13  1  0  0  0  0
 22 24  1  0  0  0  0
 24 23  1  0  0  0  0
 24 17  1  0  0  0  0
 25  9  1  0  0  0  0
 26 27  1  0  0  0  0
 27 25  1  0  0  0  0
 28 27  1  0  0  0  0
M  END
>  <MODEL>
7

>  <REMARK>
 VINA RESULT:      -7.3      1.427      2.243
  Name = 
  3 active torsions:
  status: ('A' for Active; 'I' for Inactive)
    1  A    between atoms: C_2  and  C_14
    2  A    between atoms: C_4  and  C_22
    3  A    between atoms: C_4  and  C_23
                            x       y       z     vdW  Elec       q    Type
                         _______ _______ _______ _____ _____    ______ ____

>  <TORSDO>
F 3

$$$$
=
 OpenBabel11062413303D

 28 31  0  0  1  0  0  0  0  0999 V2000
  186.9950  176.8360  137.3890 O   0  0  0  0  0  1  0  0  0  0  0  0
  187.4300  178.3200  141.6150 C   0  0  0  0  0  0  0  0  0  0  0  0
  189.1820  177.5320  139.8590 C   0  0  0  0  0  2  0  0  0  0  0  0
  187.6740  177.9030  137.9800 C   0  0  1  0  0  3  0  0  0  0  0  0
  185.7710  178.7300  139.4410 N   0  0  0  0  0  0  0  0  0  0  0  0
  185.3380  179.0030  140.7050 C   0  0  0  0  0  3  0  0  0  0  0  0
  189.8470  177.1270  136.2560 O   0  0  0  0  0  0  0  0  0  0  0  0
  187.0280  178.2530  139.2650 C   0  0  0  0  0  0  0  0  0  0  0  0
  190.0520  177.1010  137.4980 C   0  0  0  0  0  0  0  0  0  0  0  0
  186.1620  178.7990  141.7770 N   0  0  0  0  0  0  0  0  0  0  0  0
  189.0050  177.4660  138.4070 N   0  0  0  0  0  0  0  0  0  0  0  0
  187.8690  178.0430  140.3230 C   0  0  0  0  0  0  0  0  0  0  0  0
  188.2590  176.6440  143.2440 C   0  0  0  0  0  2  0  0  0  0  0  0
  190.2170  175.9880  147.3230 C   0  0  0  0  0  1  0  0  0  0  0  0
  190.4710  178.9130  143.7520 C   0  0  0  0  0  2  0  0  0  0  0  0
  189.7480  178.5420  142.4640 C   0  0  0  0  0  2  0  0  0  0  0  0
  188.6820  177.1280  145.7180 C   0  0  0  0  0  2  0  0  0  0  0  0
  191.0650  177.7060  144.4940 C   0  0  2  0  0  3  0  0  0  0  0  0
  190.5130  176.4500  144.1370 O   0  0  0  0  0  0  0  0  0  0  0  0
  188.3260  178.1030  142.7910 C   0  0  1  0  0  3  0  0  0  0  0  0
  189.1320  176.3560  144.4620 C   0  0  2  0  0  3  0  0  0  0  0  0
  189.3830  178.2520  147.8040 C   0  0  0  0  0  1  0  0  0  0  0  0
  191.0570  177.9300  146.0100 C   0  0  0  0  0  2  0  0  0  0  0  0
  189.8340  177.3190  146.7010 C   0  0  0  0  0  0  0  0  0  0  0  0
  191.3870  176.6600  138.0060 C   0  0  0  0  0  2  0  0  0  0  0  0
  192.1430  174.4170  137.2870 C   0  0  0  0  0  1  0  0  0  0  0  0
  192.1440  175.8890  136.9370 C   0  0  0  0  0  3  0  0  0  0  0  0
  193.5780  176.3780  136.8490 C   0  0  0  0  0  1  0  0  0  0  0  0
  2 10  1  0  0  0  0
  3 12  1  0  0  0  0
  4  1  1  1  0  0  0
  4 11  1  0  0  0  0
  4  8  1  0  0  0  0
  5  6  1  0  0  0  0
  6 10  2  0  0  0  0
  7  9  2  0  0  0  0
  8  5  2  0  0  0  0
  8 12  1  0  0  0  0
  9 25  1  0  0  0  0
  9 11  1  0  0  0  0
 11  3  1  0  0  0  0
 12  2  2  0  0  0  0
 16 20  1  0  0  0  0
 16 15  1  0  0  0  0
 17 24  1  0  0  0  0
 18 15  1  6  0  0  0
 18 23  1  0  0  0  0
 19 21  1  0  0  0  0
 19 18  1  0  0  0  0
 20  2  1  6  0  0  0
 20 13  1  0  0  0  0
 21 13  1  6  0  0  0
 21 17  1  0  0  0  0
 23 24  1  0  0  0  0
 24 14  1  0  0  0  0
 24 22  1  0  0  0  0
 27 26  1  0  0  0  0
 27 25  1  0  0  0  0
 28 27  1  0  0  0  0
M  END
>  <MODEL>
8

>  <REMARK>
 VINA RESULT:      -7.2      3.336      7.114
  Name = 
  3 active torsions:
  status: ('A' for Active; 'I' for Inactive)
    1  A    between atoms: C_2  and  C_14
    2  A    between atoms: C_4  and  C_22
    3  A    between atoms: C_4  and  C_23
                            x       y       z     vdW  Elec       q    Type
                         _______ _______ _______ _____ _____    ______ ____

>  <TORSDO>
F 3

$$$$
=
 OpenBabel11062413303D

 28 31  0  0  1  0  0  0  0  0999 V2000
  184.1300  180.1650  144.8180 O   0  0  0  0  0  1  0  0  0  0  0  0
  182.8270  178.2280  140.9710 C   0  0  0  0  0  0  0  0  0  0  0  0
  184.9190  177.8700  142.4780 C   0  0  0  0  0  2  0  0  0  0  0  0
  183.8510  178.8520  144.4370 C   0  0  1  0  0  3  0  0  0  0  0  0
  181.6680  179.3210  143.2310 N   0  0  0  0  0  0  0  0  0  0  0  0
  180.9700  179.2420  142.0620 C   0  0  0  0  0  3  0  0  0  0  0  0
  186.2440  178.1990  145.9030 O   0  0  0  0  0  0  0  0  0  0  0  0
  182.9410  178.8560  143.2700 C   0  0  0  0  0  0  0  0  0  0  0  0
  186.2170  177.9170  144.6750 C   0  0  0  0  0  0  0  0  0  0  0  0
  181.5460  178.7010  140.9470 N   0  0  0  0  0  0  0  0  0  0  0  0
  185.0580  178.2270  143.8910 N   0  0  0  0  0  0  0  0  0  0  0  0
  183.5380  178.3090  142.1670 C   0  0  0  0  0  0  0  0  0  0  0  0
  182.3740  177.0190  138.8550 C   0  0  0  0  0  2  0  0  0  0  0  0
  184.1390  174.4030  135.5460 C   0  0  0  0  0  1  0  0  0  0  0  0
  185.3650  177.9820  138.2020 C   0  0  0  0  0  2  0  0  0  0  0  0
  184.2830  178.6790  139.0170 C   0  0  0  0  0  2  0  0  0  0  0  0
  183.8630  175.1700  137.9050 C   0  0  0  0  0  2  0  0  0  0  0  0
  184.8790  177.4790  136.8340 C   0  0  2  0  0  3  0  0  0  0  0  0
  183.4730  177.3450  136.7090 O   0  0  0  0  0  0  0  0  0  0  0  0
  183.4500  177.6340  139.7500 C   0  0  1  0  0  3  0  0  0  0  0  0
  182.9440  176.3680  137.5960 C   0  0  2  0  0  3  0  0  0  0  0  0
  185.8570  173.8770  137.2270 C   0  0  0  0  0  1  0  0  0  0  0  0
  185.6210  176.2040  136.4180 C   0  0  0  0  0  2  0  0  0  0  0  0
  184.8600  174.9240  136.7760 C   0  0  0  0  0  0  0  0  0  0  0  0
  187.4180  177.2840  144.0490 C   0  0  0  0  0  2  0  0  0  0  0  0
  189.6660  178.1080  143.4270 C   0  0  0  0  0  1  0  0  0  0  0  0
  188.6980  177.9140  144.5740 C   0  0  0  0  0  3  0  0  0  0  0  0
  189.3370  177.0180  145.6180 C   0  0  0  0  0  1  0  0  0  0  0  0
  2 12  1  0  0  0  0
  3 11  1  0  0  0  0
  4  1  1  6  0  0  0
  5  8  1  0  0  0  0
  6  5  2  0  0  0  0
  8  4  1  0  0  0  0
  9  7  2  0  0  0  0
 10  2  2  0  0  0  0
 10  6  1  0  0  0  0
 11  4  1  0  0  0  0
 11  9  1  0  0  0  0
 12  3  1  0  0  0  0
 12  8  2  0  0  0  0
 13 20  1  0  0  0  0
 14 24  1  0  0  0  0
 15 16  1  0  0  0  0
 16 20  1  0  0  0  0
 18 23  1  1  0  0  0
 18 15  1  0  0  0  0
 19 18  1  0  0  0  0
 19 21  1  0  0  0  0
 20  2  1  1  0  0  0
 21 17  1  1  0  0  0
 21 13  1  0  0  0  0
 23 24  1  0  0  0  0
 24 22  1  0  0  0  0
 24 17  1  0  0  0  0
 25 27  1  0  0  0  0
 25  9  1  0  0  0  0
 26 27  1  0  0  0  0
 27 28  1  0  0  0  0
M  END
>  <MODEL>
9

>  <REMARK>
 VINA RESULT:      -7.1      2.311      4.208
  Name = 
  3 active torsions:
  status: ('A' for Active; 'I' for Inactive)
    1  A    between atoms: C_2  and  C_14
    2  A    between atoms: C_4  and  C_22
    3  A    between atoms: C_4  and  C_23
                            x       y       z     vdW  Elec       q    Type
                         _______ _______ _______ _____ _____    ______ ____

>  <TORSDO>
F 3

$$$$
